REMARK  Name = 
REMARK  7 active torsions:
REMARK  status: ('A' for Active; 'I' for Inactive)
REMARK    1  A    between atoms: N_1  and  C_12
REMARK    2  A    between atoms: C_5  and  N_10
REMARK    3  A    between atoms: C_15  and  C_17
REMARK    4  A    between atoms: C_17  and  C_18
REMARK    5  A    between atoms: C_17  and  C_19
REMARK    6  A    between atoms: C_17  and  C_20
REMARK    7  A    between atoms: C_20  and  N_35
REMARK                            x       y       z     vdW  Elec       q    Type
REMARK                         _______ _______ _______ _____ _____    ______ ____
ROOT
ATOM      1  C   UNL     1      34.646  29.997  47.401  0.00  0.00    +0.000 A 
ATOM      2  C   UNL     1      35.516  29.891  48.510  0.00  0.00    +0.000 A 
ATOM      3  C   UNL     1      35.432  28.725  49.280  0.00  0.00    +0.000 A 
ATOM      4  N   UNL     1      34.534  27.778  48.921  0.00  0.00    +0.000 NA
ATOM      5  C   UNL     1      33.716  27.909  47.854  0.00  0.00    +0.000 A 
ATOM      6  N   UNL     1      33.773  29.012  47.099  0.00  0.00    +0.000 NA
ATOM      7  H   UNL     1      34.690  30.878  46.799  0.00  0.00    +0.000 HD
ATOM      8  H   UNL     1      36.105  28.683  50.107  0.00  0.00    +0.000 HD
ENDROOT
BRANCH   2   9
ATOM      9  N   UNL     1      36.410  30.969  48.757  0.00  0.00    +0.000 N 
ATOM     10  C   UNL     1      36.384  31.737  49.870  0.00  0.00    +0.000 A 
ATOM     11  N   UNL     1      37.367  32.665  49.776  0.00  0.00    +0.000 NA
ATOM     12  C   UNL     1      37.988  32.456  48.601  0.00  0.00    +0.000 A 
ATOM     13  C   UNL     1      39.044  33.076  47.973  0.00  0.00    +0.000 A 
ATOM     14  N   UNL     1      39.484  32.660  46.767  0.00  0.00    +0.000 NA
ATOM     15  C   UNL     1      38.902  31.610  46.121  0.00  0.00    +0.000 A 
ATOM     16  N   UNL     1      37.872  31.017  46.751  0.00  0.00    +0.000 NA
ATOM     17  C   UNL     1      37.400  31.398  47.954  0.00  0.00    +0.000 A 
ATOM     18  H   UNL     1      35.742  31.710  50.743  0.00  0.00    +0.000 HD
ATOM     19  H   UNL     1      39.279  31.303  45.155  0.00  0.00    +0.000 HD
BRANCH  13  20
ATOM     20  N   UNL     1      39.691  34.170  48.587  0.00  0.00    +0.000 N 
ATOM     21  H   UNL     1      39.641  34.417  49.588  0.00  0.00    +0.000 HD
ATOM     22  H   UNL     1      40.299  34.847  48.061  0.00  0.00    +0.000 HD
ENDBRANCH  13  20
ENDBRANCH   2   9
BRANCH   5  23
ATOM     23  C   UNL     1      32.760  26.834  47.508  0.00  0.00    +0.000 C 
BRANCH  23  24
ATOM     24  C   UNL     1      31.553  26.895  48.447  0.00  0.00    +0.000 C 
ATOM     25  H   UNL     1      31.299  25.853  48.731  0.00  0.00    +0.000 HD
ATOM     26  H   UNL     1      30.672  27.351  47.993  0.00  0.00    +0.000 HD
ATOM     27  H   UNL     1      31.825  27.442  49.391  0.00  0.00    +0.000 HD
ENDBRANCH  23  24
BRANCH  23  28
ATOM     28  C   UNL     1      32.160  27.113  46.116  0.00  0.00    +0.000 C 
ATOM     29  H   UNL     1      32.965  27.231  45.372  0.00  0.00    +0.000 HD
ATOM     30  H   UNL     1      31.524  26.223  45.910  0.00  0.00    +0.000 HD
ATOM     31  H   UNL     1      31.502  27.980  46.240  0.00  0.00    +0.000 HD
ENDBRANCH  23  28
BRANCH  23  32
ATOM     32  C   UNL     1      33.327  25.468  47.437  0.00  0.00    +0.000 C 
ATOM     33  H   UNL     1      32.493  24.776  47.170  0.00  0.00    +0.000 HD
ATOM     34  H   UNL     1      33.716  25.130  48.441  0.00  0.00    +0.000 HD
BRANCH  32  35
ATOM     35  N   UNL     1      34.344  25.360  46.444  0.00  0.00    +0.000 NA
ATOM     36  C   UNL     1      34.599  26.480  45.617  0.00  0.00    +0.000 C 
ATOM     37  C   UNL     1      35.983  26.220  44.979  0.00  0.00    +0.000 C 
ATOM     38  C   UNL     1      36.512  25.036  45.733  0.00  0.00    +0.000 C 
ATOM     39  C   UNL     1      35.623  24.966  46.962  0.00  0.00    +0.000 C 
ATOM     40  H   UNL     1      36.037  25.682  47.699  0.00  0.00    +0.000 HD
ENDBRANCH  32  35
ENDBRANCH  23  32
ENDBRANCH   5  23
TORSDOF 7
