
 OpenBabel03252513123D

 42 45  0  0  0  0  0  0  0  0999 V2000
   36.9330   30.8090   46.0770 C   0  0  0  0  0  0  0  0  0  0  0  0
   35.9090   30.0360   46.6350 C   0  0  0  0  0  0  0  0  0  0  0  0
   35.5850   29.9930   47.9530 C   0  0  0  0  0  0  0  0  0  0  0  0
   36.2830   30.7470   48.8490 C   0  0  0  0  0  0  0  0  0  0  0  0
   37.2800   31.5130   48.3780 C   0  0  0  0  0  0  0  0  0  0  0  0
   37.9890   32.2810   49.2920 C   0  0  0  0  0  0  0  0  0  0  0  0
   39.0170   33.0900   48.9070 C   0  0  0  0  0  0  0  0  0  0  0  0
   39.3440   33.1290   47.5590 C   0  0  0  0  0  0  0  0  0  0  0  0
   38.6240   32.3600   46.6880 C   0  0  0  0  0  0  0  0  0  0  0  0
   37.6040   31.5510   47.0340 C   0  0  0  0  0  0  0  0  0  0  0  0
   35.3220   29.4120   45.9450 H   0  0  0  0  0  0  0  0  0  0  0  0
   34.7700   29.3560   48.2810 H   0  0  0  0  0  0  0  0  0  0  0  0
   37.7900   32.3010   50.3540 H   0  0  0  0  0  0  0  0  0  0  0  0
   39.6020   33.7100   49.5930 H   0  0  0  0  0  0  0  0  0  0  0  0
   40.1550   33.7600   47.2210 H   0  0  0  0  0  0  0  0  0  0  0  0
   38.9090   32.4170   45.6380 H   0  0  0  0  0  0  0  0  0  0  0  0
   36.2090   31.1800   42.5770 C   0  0  0  0  0  0  0  0  0  0  0  0
   37.4250   30.9530   41.9080 C   0  0  0  0  0  0  0  0  0  0  0  0
   38.5150   30.6670   42.6730 C   0  0  0  0  0  0  0  0  0  0  0  0
   38.3170   30.6330   43.9710 N   0  0  0  0  0  0  0  0  0  0  0  0
   37.2450   30.8260   44.6720 C   0  0  0  0  0  0  0  0  0  0  0  0
   36.1960   31.1020   43.9080 N   0  0  0  0  0  0  0  0  0  0  0  0
   35.3130   31.4130   41.9740 H   0  0  0  0  0  0  0  0  0  0  0  0
   39.7940   30.4140   42.1370 N   0  0  0  0  0  0  0  0  0  0  0  0
   40.8800   29.9630   42.9460 C   0  0  0  0  0  0  0  0  0  0  0  0
   41.0110   30.4980   44.1200 N   0  0  0  0  0  0  0  0  0  0  0  0
   41.7850   28.9620   42.4850 N   0  0  0  0  0  0  0  0  0  0  0  0
   41.7140   30.2670   44.8120 H   0  0  0  0  0  0  0  0  0  0  0  0
   40.0280   30.5390   41.1070 H   0  0  0  0  0  0  0  0  0  0  0  0
   41.5660   27.9790   42.7600 H   0  0  0  0  0  0  0  0  0  0  0  0
   42.6480   29.0620   41.9030 H   0  0  0  0  0  0  0  0  0  0  0  0
   37.4840   31.0170   40.4950 N   0  0  0  0  0  0  0  0  0  0  0  0
   37.5040   30.1090   39.3630 C   0  0  0  0  0  0  0  0  0  0  0  0
   36.9590   30.9730   38.2010 C   0  0  0  0  0  0  0  0  0  0  0  0
   37.8040   32.2210   38.5030 C   0  0  0  0  0  0  0  0  0  0  0  0
   37.5310   32.3680   39.9730 C   0  0  0  0  0  0  0  0  0  0  0  0
   36.4870   32.7530   40.0630 H   0  0  0  0  0  0  0  0  0  0  0  0
   35.9340   30.6860   50.1790 O   0  0  0  0  0  0  0  0  0  0  0  0
   36.4410   29.6550   51.0140 C   0  0  0  0  0  0  0  0  0  0  0  0
   37.2480   28.7450   50.4000 F   0  0  0  0  0  0  0  0  0  0  0  0
   37.2180   30.2600   51.9900 F   0  0  0  0  0  0  0  0  0  0  0  0
   35.3320   29.0330   51.5770 F   0  0  0  0  0  0  0  0  0  0  0  0
  1  2  2  0  0  0  0
  1 10  1  0  0  0  0
  2  3  1  0  0  0  0
  3 12  1  0  0  0  0
  3  4  2  0  0  0  0
  4 38  1  0  0  0  0
  5  4  1  0  0  0  0
  5  6  1  0  0  0  0
  6 13  1  0  0  0  0
  7  6  2  0  0  0  0
  7 14  1  0  0  0  0
  8  7  1  0  0  0  0
  9 10  1  0  0  0  0
  9  8  2  0  0  0  0
 10  5  2  0  0  0  0
 11  2  1  0  0  0  0
 15  8  1  0  0  0  0
 16  9  1  0  0  0  0
 17 22  1  0  0  0  0
 18 17  2  0  0  0  0
 18 19  1  0  0  0  0
 19 20  2  0  0  0  0
 20 21  1  0  0  0  0
 21  1  1  0  0  0  0
 22 21  2  0  0  0  0
 23 17  1  0  0  0  0
 24 19  1  0  0  0  0
 24 25  1  0  0  0  0
 25 26  2  0  0  0  0
 26 28  1  0  0  0  0
 27 30  1  0  0  0  0
 27 25  1  0  0  0  0
 29 24  1  0  0  0  0
 31 27  1  0  0  0  0
 32 18  1  0  0  0  0
 33 32  1  0  0  0  0
 34 35  1  0  0  0  0
 34 33  1  0  0  0  0
 35 36  1  0  0  0  0
 36 37  1  0  0  0  0
 36 32  1  0  0  0  0
 38 39  1  0  0  0  0
 39 42  1  0  0  0  0
 39 41  1  0  0  0  0
 40 39  1  0  0  0  0
M  END
>  <minimizedAffinity>
-7.42723513

>  <minimizedRMSD>
0.316938668

$$$$
