
 OpenBabel03252513003D

 21 22  0  0  0  0  0  0  0  0999 V2000
   37.9620   30.5720   47.5170 C   0  0  0  0  0  0  0  0  0  0  0  0
   37.1850   30.3890   46.7560 H   0  0  0  0  0  0  0  0  0  0  0  0
   38.8330   29.8780   47.3440 H   0  0  0  0  0  0  0  0  0  0  0  0
   37.4110   30.2810   51.2630 C   0  0  0  0  0  0  0  0  0  0  0  0
   38.0000   30.6660   50.0390 C   0  0  0  0  0  0  0  0  0  0  0  0
   37.4360   30.2360   48.8520 C   0  0  0  0  0  0  0  0  0  0  0  0
   36.3210   29.4480   48.9380 N   0  0  0  0  0  0  0  0  0  0  0  0
   35.7770   29.0930   50.1060 C   0  0  0  0  0  0  0  0  0  0  0  0
   36.3170   29.5060   51.2620 N   0  0  0  0  0  0  0  0  0  0  0  0
   37.9430   30.6810   52.1170 H   0  0  0  0  0  0  0  0  0  0  0  0
   38.8830   31.2900   49.9920 H   0  0  0  0  0  0  0  0  0  0  0  0
   34.8900   28.4660   50.1150 H   0  0  0  0  0  0  0  0  0  0  0  0
   38.4920   31.9810   47.4480 C   0  0  0  0  0  0  0  0  0  0  0  0
   38.6930   32.2880   48.5150 H   0  0  0  0  0  0  0  0  0  0  0  0
   37.7240   32.6650   47.0700 H   0  0  0  0  0  0  0  0  0  0  0  0
   39.7470   32.0610   46.7780 N   0  0  0  0  0  0  0  0  0  0  0  0
   39.9860   33.3570   46.2360 C   0  0  0  0  0  0  0  0  0  0  0  0
   40.1550   33.1940   44.7370 C   0  0  0  0  0  0  0  0  0  0  0  0
   40.5540   31.7500   44.5700 C   0  0  0  0  0  0  0  0  0  0  0  0
   40.0260   31.0630   45.8100 C   0  0  0  0  0  0  0  0  0  0  0  0
   40.8660   30.4310   46.2200 H   0  0  0  0  0  0  0  0  0  0  0  0
  1  6  1  0  0  0  0
  2  1  1  0  0  0  0
  3  1  1  0  0  0  0
  4 10  1  0  0  0  0
  5  4  2  0  0  0  0
  6  7  2  0  0  0  0
  6  5  1  0  0  0  0
  7  8  1  0  0  0  0
  8 12  1  0  0  0  0
  8  9  2  0  0  0  0
  9  4  1  0  0  0  0
 11  5  1  0  0  0  0
 13  1  1  0  0  0  0
 13 14  1  0  0  0  0
 15 13  1  0  0  0  0
 16 13  1  0  0  0  0
 17 16  1  0  0  0  0
 18 17  1  0  0  0  0
 19 18  1  0  0  0  0
 19 20  1  0  0  0  0
 20 21  1  0  0  0  0
 20 16  1  0  0  0  0
M  END
>  <minimizedAffinity>
-4.79079199

>  <minimizedRMSD>
1.56778288

$$$$
