
 OpenBabel03252512323D

 41 43  0  0  1  0  0  0  0  0999 V2000
   31.8400   28.0630   46.7220 C   0  0  2  0  0  0  0  0  0  0  0  0
   31.9680   26.9680   46.4710 H   0  0  0  0  0  0  0  0  0  0  0  0
   35.1690   29.5250   48.5550 C   0  0  0  0  0  0  0  0  0  0  0  0
   34.7290   28.3130   49.0690 C   0  0  0  0  0  0  0  0  0  0  0  0
   33.6250   27.7610   48.5260 C   0  0  0  0  0  0  0  0  0  0  0  0
   33.0270   28.3970   47.5460 C   0  0  0  0  0  0  0  0  0  0  0  0
   33.9860   29.9230   47.2520 S   0  0  0  0  0  0  0  0  0  0  0  0
   35.3160   27.8730   49.8940 H   0  0  0  0  0  0  0  0  0  0  0  0
   33.2120   26.8160   48.8660 H   0  0  0  0  0  0  0  0  0  0  0  0
   37.9700   30.7820   50.5510 C   0  0  0  0  0  0  0  0  0  0  0  0
   38.5500   31.7580   49.7100 C   0  0  0  0  0  0  0  0  0  0  0  0
   37.9690   31.9740   48.4690 C   0  0  0  0  0  0  0  0  0  0  0  0
   36.8750   31.2390   48.1220 N   0  0  0  0  0  0  0  0  0  0  0  0
   36.3740   30.3270   48.9700 C   0  0  0  0  0  0  0  0  0  0  0  0
   36.8780   30.0360   50.2280 N   0  0  0  0  0  0  0  0  0  0  0  0
   38.4340   30.6250   51.5160 H   0  0  0  0  0  0  0  0  0  0  0  0
   39.4190   32.2850   50.0840 H   0  0  0  0  0  0  0  0  0  0  0  0
   38.4050   32.7110   47.8300 H   0  0  0  0  0  0  0  0  0  0  0  0
   31.7800   28.8810   45.5320 C   0  0  0  0  0  0  0  0  0  0  0  0
   31.3110   28.3830   44.6390 H   0  0  0  0  0  0  0  0  0  0  0  0
   31.1940   29.8100   45.7090 H   0  0  0  0  0  0  0  0  0  0  0  0
   32.7960   29.2420   45.2390 H   0  0  0  0  0  0  0  0  0  0  0  0
   30.6160   28.1190   47.6310 C   0  0  0  0  0  0  0  0  0  0  0  0
   30.2000   29.1450   47.5530 H   0  0  0  0  0  0  0  0  0  0  0  0
   30.8990   27.9660   48.6920 H   0  0  0  0  0  0  0  0  0  0  0  0
   29.6620   27.2120   47.2800 O   0  0  0  0  0  0  0  0  0  0  0  0
   28.5470   27.5680   46.5500 C   0  0  0  0  0  0  0  0  0  0  0  0
   27.6200   26.9680   45.7350 C   0  0  0  0  0  0  0  0  0  0  0  0
   26.7630   27.9870   45.3490 C   0  0  0  0  0  0  0  0  0  0  0  0
   27.2020   29.1620   45.9420 C   0  0  0  0  0  0  0  0  0  0  0  0
   28.2580   28.8300   46.6340 O   0  0  0  0  0  0  0  0  0  0  0  0
   27.7100   25.9190   45.5550 H   0  0  0  0  0  0  0  0  0  0  0  0
   25.9320   27.7790   44.6940 H   0  0  0  0  0  0  0  0  0  0  0  0
   26.5670   30.4250   45.7740 N   0  0  0  0  0  0  0  0  0  0  0  0
   27.3690   31.5800   45.5970 C   0  0  0  0  0  0  0  0  0  0  0  0
   28.4640   31.5310   44.9420 N   0  0  0  0  0  0  0  0  0  0  0  0
   26.9400   32.8330   46.1650 N   0  0  0  0  0  0  0  0  0  0  0  0
   25.5310   30.5120   45.7820 H   0  0  0  0  0  0  0  0  0  0  0  0
   28.7890   30.6410   44.5250 H   0  0  0  0  0  0  0  0  0  0  0  0
   27.4020   33.1850   47.0460 H   0  0  0  0  0  0  0  0  0  0  0  0
   26.1910   33.4010   45.7340 H   0  0  0  0  0  0  0  0  0  0  0  0
  1  2  1  6  0  0  0
  1  6  1  0  0  0  0
  1 23  1  0  0  0  0
  3 14  1  0  0  0  0
  3  4  2  0  0  0  0
  4  8  1  0  0  0  0
  5  9  1  0  0  0  0
  5  4  1  0  0  0  0
  6  5  2  0  0  0  0
  7  6  1  0  0  0  0
  7  3  1  0  0  0  0
 10 16  1  0  0  0  0
 11 17  1  0  0  0  0
 11 10  2  0  0  0  0
 12 11  1  0  0  0  0
 13 12  2  0  0  0  0
 13 14  1  0  0  0  0
 14 15  2  0  0  0  0
 15 10  1  0  0  0  0
 18 12  1  0  0  0  0
 19 21  1  0  0  0  0
 19  1  1  0  0  0  0
 20 19  1  0  0  0  0
 22 19  1  0  0  0  0
 23 25  1  0  0  0  0
 24 23  1  0  0  0  0
 26 23  1  0  0  0  0
 27 31  1  0  0  0  0
 27 26  1  0  0  0  0
 28 27  2  0  0  0  0
 29 28  1  0  0  0  0
 29 30  2  0  0  0  0
 30 31  1  0  0  0  0
 32 28  1  0  0  0  0
 33 29  1  0  0  0  0
 34 38  1  0  0  0  0
 34 30  1  0  0  0  0
 35 34  1  0  0  0  0
 35 37  1  0  0  0  0
 36 35  2  0  0  0  0
 37 40  1  0  0  0  0
 39 36  1  0  0  0  0
 41 37  1  0  0  0  0
M  END
>  <minimizedAffinity>
-5.25368977

>  <minimizedRMSD>
1.91274083

$$$$
