
 OpenBabel03252512243D

 33 34  0  0  1  0  0  0  0  0999 V2000
   32.8150   27.8520   47.8270 C   0  0  2  0  0  0  0  0  0  0  0  0
   33.1210   26.8100   47.5380 H   0  0  0  0  0  0  0  0  0  0  0  0
   36.0340   30.2820   48.5260 C   0  0  0  0  0  0  0  0  0  0  0  0
   35.9250   29.2330   49.4560 C   0  0  0  0  0  0  0  0  0  0  0  0
   34.8990   28.3800   49.3080 C   0  0  0  0  0  0  0  0  0  0  0  0
   34.0350   28.5840   48.2730 C   0  0  0  0  0  0  0  0  0  0  0  0
   34.6280   30.0370   47.4130 S   0  0  0  0  0  0  0  0  0  0  0  0
   36.6580   29.1560   50.2470 H   0  0  0  0  0  0  0  0  0  0  0  0
   34.6790   27.5300   49.9400 H   0  0  0  0  0  0  0  0  0  0  0  0
   38.1260   33.1600   49.5410 C   0  0  0  0  0  0  0  0  0  0  0  0
   39.0440   33.2410   48.4400 C   0  0  0  0  0  0  0  0  0  0  0  0
   38.9140   32.3150   47.3920 C   0  0  0  0  0  0  0  0  0  0  0  0
   37.9320   31.3860   47.4660 N   0  0  0  0  0  0  0  0  0  0  0  0
   37.0900   31.3350   48.5110 C   0  0  0  0  0  0  0  0  0  0  0  0
   37.1690   32.2000   49.5460 N   0  0  0  0  0  0  0  0  0  0  0  0
   38.2070   33.8600   50.3620 H   0  0  0  0  0  0  0  0  0  0  0  0
   39.7700   34.0140   48.5030 H   0  0  0  0  0  0  0  0  0  0  0  0
   39.6150   32.3870   46.5700 H   0  0  0  0  0  0  0  0  0  0  0  0
   32.2840   28.4910   46.6080 C   0  0  0  0  0  0  0  0  0  0  0  0
   31.5250   27.8120   46.1120 H   0  0  0  0  0  0  0  0  0  0  0  0
   31.8530   29.4990   46.7380 H   0  0  0  0  0  0  0  0  0  0  0  0
   33.1190   28.5710   45.8680 H   0  0  0  0  0  0  0  0  0  0  0  0
   31.8950   27.7460   49.0000 C   0  0  0  0  0  0  0  0  0  0  0  0
   32.4050   27.0460   49.7240 H   0  0  0  0  0  0  0  0  0  0  0  0
   31.8030   28.7100   49.5550 H   0  0  0  0  0  0  0  0  0  0  0  0
   30.6200   27.1500   48.7110 N   0  0  0  0  0  0  0  0  0  0  0  0
   29.5070   27.8880   49.2670 C   0  0  0  0  0  0  0  0  0  0  0  0
   29.5890   28.7120   50.2480 N   0  0  0  0  0  0  0  0  0  0  0  0
   28.1820   27.7460   48.7280 N   0  0  0  0  0  0  0  0  0  0  0  0
   30.3580   26.3070   48.1970 H   0  0  0  0  0  0  0  0  0  0  0  0
   28.8600   29.2670   50.6930 H   0  0  0  0  0  0  0  0  0  0  0  0
   27.2160   27.3060   48.7460 H   0  0  0  0  0  0  0  0  0  0  0  0
   28.0970   28.3930   47.8990 H   0  0  0  0  0  0  0  0  0  0  0  0
  1  2  1  6  0  0  0
  1  6  1  0  0  0  0
  1 23  1  0  0  0  0
  3  4  2  0  0  0  0
  4  8  1  0  0  0  0
  5  4  1  0  0  0  0
  5  9  1  0  0  0  0
  6  5  2  0  0  0  0
  7  6  1  0  0  0  0
  7  3  1  0  0  0  0
 10 15  1  0  0  0  0
 10 16  1  0  0  0  0
 11 17  1  0  0  0  0
 11 10  2  0  0  0  0
 12 13  2  0  0  0  0
 12 11  1  0  0  0  0
 13 14  1  0  0  0  0
 14  3  1  0  0  0  0
 14 15  2  0  0  0  0
 18 12  1  0  0  0  0
 19 21  1  0  0  0  0
 19  1  1  0  0  0  0
 20 19  1  0  0  0  0
 22 19  1  0  0  0  0
 23 25  1  0  0  0  0
 23 24  1  0  0  0  0
 26 23  1  0  0  0  0
 26 27  1  0  0  0  0
 27 28  2  0  0  0  0
 28 31  1  0  0  0  0
 29 32  1  0  0  0  0
 29 27  1  0  0  0  0
 30 26  1  0  0  0  0
 33 29  1  0  0  0  0
M  END
>  <minimizedAffinity>
-5.50352049

>  <minimizedRMSD>
2.17872071

$$$$
