
 OpenBabel03252513513D

 39 38  0  0  1  0  0  0  0  0999 V2000
   37.8800   31.4090   46.9770 C   0  0  0  0  0  0  0  0  0  0  0  0
   38.1730   32.0920   47.9850 O   0  0  0  0  0  0  0  0  0  0  0  0
   38.8230   31.5000   45.9030 N   0  0  0  0  0  0  0  0  0  0  0  0
   39.1840   30.2510   45.2750 C   0  0  0  0  0  0  0  0  0  0  0  0
   40.4570   30.3720   44.4760 C   0  0  0  0  0  0  0  0  0  0  0  0
   41.2870   31.2770   45.1590 O   0  0  0  0  0  0  0  0  0  0  0  0
   40.7670   32.5440   44.8450 C   0  0  0  0  0  0  0  0  0  0  0  0
   39.4020   32.7560   45.4480 C   0  0  1  0  0  0  0  0  0  0  0  0
   39.2190   29.4180   46.0090 H   0  0  0  0  0  0  0  0  0  0  0  0
   38.3680   29.9900   44.5400 H   0  0  0  0  0  0  0  0  0  0  0  0
   40.9820   29.3980   44.4970 H   0  0  0  0  0  0  0  0  0  0  0  0
   40.2880   30.7250   43.4400 H   0  0  0  0  0  0  0  0  0  0  0  0
   40.7790   32.6210   43.7410 H   0  0  0  0  0  0  0  0  0  0  0  0
   41.4990   33.2720   45.2810 H   0  0  0  0  0  0  0  0  0  0  0  0
   39.4840   33.4480   46.3040 H   0  0  0  0  0  0  0  0  0  0  0  0
   38.5280   33.4060   44.4610 N   0  0  0  0  0  0  0  0  0  0  0  0
   37.6540   32.5170   43.7610 C   0  0  0  0  0  0  0  0  0  0  0  0
   37.8620   31.2680   43.5630 N   0  0  0  0  0  0  0  0  0  0  0  0
   36.4290   33.0060   43.2110 N   0  0  0  0  0  0  0  0  0  0  0  0
   38.4480   34.4070   44.1930 H   0  0  0  0  0  0  0  0  0  0  0  0
   38.7050   30.7810   43.9040 H   0  0  0  0  0  0  0  0  0  0  0  0
   35.5370   33.3400   42.8310 H   0  0  0  0  0  0  0  0  0  0  0  0
   36.0340   33.7180   42.5560 H   0  0  0  0  0 10  0  0  0  0  0  0
   34.9570   29.3140   48.1090 C   0  0  0  0  0  0  0  0  0  0  0  0
   36.1590   30.0950   48.1580 C   0  0  0  0  0  0  0  0  0  0  0  0
   36.6640   30.6130   46.9680 C   0  0  0  0  0  0  0  0  0  0  0  0
   35.9780   30.3410   45.8300 N   0  0  0  0  0  0  0  0  0  0  0  0
   34.8540   29.6050   45.8170 C   0  0  0  0  0  0  0  0  0  0  0  0
   34.3690   29.1120   46.9380 N   0  0  0  0  0  0  0  0  0  0  0  0
   36.6440   30.2670   49.0970 H   0  0  0  0  0  0  0  0  0  0  0  0
   34.2500   29.4160   44.4850 C   0  0  0  0  0  0  0  0  0  0  0  0
   34.2930   30.6210   43.7520 F   0  0  0  0  0  0  0  0  0  0  0  0
   34.9960   28.5090   43.7580 F   0  0  0  0  0  0  0  0  0  0  0  0
   32.9580   28.9210   44.5490 F   0  0  0  0  0  0  0  0  0  0  0  0
   34.4850   28.8170   49.3090 O   0  0  0  0  0  0  0  0  0  0  0  0
   34.2080   29.5800   50.4340 C   0  0  0  0  0  0  0  0  0  0  0  0
   34.9850   29.2440   51.5290 F   0  0  0  0  0  0  0  0  0  0  0  0
   34.2280   30.9290   50.2230 F   0  0  0  0  0  0  0  0  0  0  0  0
   32.8840   29.2330   50.7690 F   0  0  0  0  0  0  0  0  0  0  0  0
  1  2  2  0  0  0  0
  3  1  1  0  0  0  0
  4  3  1  0  0  0  0
  4  9  1  0  0  0  0
  5 11  1  0  0  0  0
  5  6  1  0  0  0  0
  5  4  1  0  0  0  0
  7  6  1  0  0  0  0
  7 14  1  0  0  0  0
  7  8  1  0  0  0  0
  8  3  1  0  0  0  0
  8 15  1  1  0  0  0
 10  4  1  0  0  0  0
 12  5  1  0  0  0  0
 13  7  1  0  0  0  0
 16  8  1  0  0  0  0
 17 16  1  0  0  0  0
 18 17  2  0  0  0  0
 18 21  1  0  0  0  0
 20 16  1  0  0  0  0
 22 19  1  0  0  0  0
 24 25  1  0  0  0  0
 24 35  1  0  0  0  0
 25 30  1  0  0  0  0
 26  1  1  0  0  0  0
 26 25  2  0  0  0  0
 27 26  1  0  0  0  0
 28 27  2  0  0  0  0
 28 29  1  0  0  0  0
 29 24  2  0  0  0  0
 31 34  1  0  0  0  0
 31 28  1  0  0  0  0
 32 31  1  0  0  0  0
 33 31  1  0  0  0  0
 35 36  1  0  0  0  0
 36 39  1  0  0  0  0
 36 37  1  0  0  0  0
 38 36  1  0  0  0  0
M  END
>  <minimizedAffinity>
-5.6911459

>  <minimizedRMSD>
0.63519299

$$$$
