
 OpenBabel03252513593D

 25 26  0  0  1  0  0  0  0  0999 V2000
   35.5190   29.5640   49.2330 C   0  0  2  0  0  0  0  0  0  0  0  0
   34.5880   29.4330   50.3630 C   0  0  0  0  0  0  0  0  0  0  0  0
   34.7670   28.2510   49.5320 C   0  0  1  0  0  0  0  0  0  0  0  0
   35.2800   29.9740   48.2490 H   0  0  0  0  0  0  0  0  0  0  0  0
   35.0000   29.5140   51.3950 H   0  0  0  0  0  0  0  0  0  0  0  0
   33.6440   30.0460   50.2850 H   0  0  0  0  0  0  0  0  0  0  0  0
   35.4730   27.4330   49.7030 H   0  0  0  0  0  0  0  0  0  0  0  0
   37.0150   29.4460   49.5290 C   0  0  0  0  0  0  0  0  0  0  0  0
   37.1180   29.3620   50.6250 H   0  0  0  0  0  0  0  0  0  0  0  0
   37.4270   28.5370   49.0250 H   0  0  0  0  0  0  0  0  0  0  0  0
   38.2380   32.8990   49.3820 C   0  0  0  0  0  0  0  0  0  0  0  0
   38.8640   32.9530   48.1270 C   0  0  0  0  0  0  0  0  0  0  0  0
   38.8610   31.7910   47.3370 C   0  0  0  0  0  0  0  0  0  0  0  0
   38.2440   30.6700   47.8380 N   0  0  0  0  0  0  0  0  0  0  0  0
   37.6610   30.6660   49.0390 C   0  0  0  0  0  0  0  0  0  0  0  0
   37.6650   31.7860   49.7990 N   0  0  0  0  0  0  0  0  0  0  0  0
   38.1910   33.7350   50.0530 H   0  0  0  0  0  0  0  0  0  0  0  0
   39.3180   33.8730   47.8230 H   0  0  0  0  0  0  0  0  0  0  0  0
   39.3370   31.8120   46.3710 H   0  0  0  0  0  0  0  0  0  0  0  0
   33.6060   27.9130   48.6400 C   0  0  0  0  0  0  0  0  0  0  0  0
   33.9400   27.3600   47.5160 O   0  0  0  0  0  0  0  0  0  0  0  0
   32.2680   28.1300   48.9260 O   0  0  0  0  0  0  0  0  0  0  0  0
   31.2090   27.4930   48.2840 C   0  0  0  0  0  3  0  0  0  0  0  0
   31.6120   26.0360   48.0600 C   0  0  0  0  0  1  0  0  0  0  0  0
   31.0810   28.1110   46.9060 C   0  0  0  0  0  1  0  0  0  0  0  0
  1  4  1  6  0  0  0
  1  8  1  0  0  0  0
  1  3  1  0  0  0  0
  1  2  1  0  0  0  0
  2  5  1  0  0  0  0
  3  7  1  1  0  0  0
  3  2  1  0  0  0  0
  6  2  1  0  0  0  0
  8  9  1  0  0  0  0
 10  8  1  0  0  0  0
 11 16  1  0  0  0  0
 11 17  1  0  0  0  0
 12 11  2  0  0  0  0
 13 14  2  0  0  0  0
 13 12  1  0  0  0  0
 14 15  1  0  0  0  0
 15  8  1  0  0  0  0
 15 16  2  0  0  0  0
 18 12  1  0  0  0  0
 19 13  1  0  0  0  0
 20 22  1  0  0  0  0
 20  3  1  0  0  0  0
 21 20  2  0  0  0  0
 23 22  1  0  0  0  0
 24 23  1  0  0  0  0
 25 23  1  0  0  0  0
M  END
>  <minimizedAffinity>
-4.64537287

>  <minimizedRMSD>
0.676796913

$$$$
