
 OpenBabel03252511333D

 30 31  0  0  0  0  0  0  0  0999 V2000
   36.4220   30.5410   46.5420 C   0  0  0  0  0  0  0  0  0  0  0  0
   35.1350   29.9850   46.5260 C   0  0  0  0  0  0  0  0  0  0  0  0
   34.4240   29.6840   45.3940 C   0  0  0  0  0  0  0  0  0  0  0  0
   35.0210   29.9480   44.1750 C   0  0  0  0  0  0  0  0  0  0  0  0
   36.2960   30.4980   44.1620 C   0  0  0  0  0  0  0  0  0  0  0  0
   37.0070   30.7980   45.3240 C   0  0  0  0  0  0  0  0  0  0  0  0
   34.6820   29.7850   47.5090 H   0  0  0  0  0  0  0  0  0  0  0  0
   33.4400   29.2580   45.5250 H   0  0  0  0  0  0  0  0  0  0  0  0
   34.4570   29.7100   43.2860 H   0  0  0  0  0  0  0  0  0  0  0  0
   36.6470   30.6460   43.1550 H   0  0  0  0  0  0  0  0  0  0  0  0
   37.4350   30.2920   50.0430 C   0  0  0  0  0  0  0  0  0  0  0  0
   38.2580   31.4110   50.1990 C   0  0  0  0  0  0  0  0  0  0  0  0
   38.4600   32.2390   49.1010 C   0  0  0  0  0  0  0  0  0  0  0  0
   37.8540   31.9210   47.9490 N   0  0  0  0  0  0  0  0  0  0  0  0
   37.0540   30.8270   47.8110 C   0  0  0  0  0  0  0  0  0  0  0  0
   36.8660   30.0360   48.8750 N   0  0  0  0  0  0  0  0  0  0  0  0
   38.7280   31.6280   51.1520 H   0  0  0  0  0  0  0  0  0  0  0  0
   39.1000   33.1220   49.1920 H   0  0  0  0  0  0  0  0  0  0  0  0
   37.2170   29.4070   51.2400 C   0  0  0  0  0  0  0  0  0  0  0  0
   35.8500   29.1720   51.3870 F   0  0  0  0  0  0  0  0  0  0  0  0
   37.9250   28.2720   51.0610 F   0  0  0  0  0  0  0  0  0  0  0  0
   37.6450   30.0970   52.3630 F   0  0  0  0  0  0  0  0  0  0  0  0
   38.3190   31.3230   45.2200 N   0  0  0  0  0  0  0  0  0  0  0  0
   39.4980   30.5220   45.1790 C   0  0  0  0  0  0  0  0  0  0  0  0
   39.4330   29.4480   44.4220 N   0  0  0  0  0  0  0  0  0  0  0  0
   40.7310   30.7640   45.8620 N   0  0  0  0  0  0  0  0  0  0  0  0
   38.5860   32.3190   45.1790 H   0  0  0  0  0  0  0  0  0  0  0  0
   40.2410   28.7990   44.3240 H   0  0  0  0  0  0  0  0  0  0  0  0
   41.6090   30.4580   45.4220 H   0  0  0  0  0  0  0  0  0  0  0  0
   40.7270   31.2510   46.8050 H   0  0  0  0  0  0  0  0  0  0  0  0
  1 15  1  0  0  0  0
  2  1  1  0  0  0  0
  2  7  1  0  0  0  0
  3  8  1  0  0  0  0
  3  2  2  0  0  0  0
  4  3  1  0  0  0  0
  5  4  2  0  0  0  0
  5  6  1  0  0  0  0
  6  1  2  0  0  0  0
  9  4  1  0  0  0  0
 10  5  1  0  0  0  0
 11 12  1  0  0  0  0
 11 19  1  0  0  0  0
 12 17  1  0  0  0  0
 13 18  1  0  0  0  0
 13 12  2  0  0  0  0
 14 13  1  0  0  0  0
 15 14  2  0  0  0  0
 15 16  1  0  0  0  0
 16 11  2  0  0  0  0
 19 20  1  0  0  0  0
 19 22  1  0  0  0  0
 21 19  1  0  0  0  0
 23  6  1  0  0  0  0
 24 23  1  0  0  0  0
 24 26  1  0  0  0  0
 25 24  2  0  0  0  0
 26 30  1  0  0  0  0
 27 23  1  0  0  0  0
 28 25  1  0  0  0  0
 29 26  1  0  0  0  0
M  END
>  <minimizedAffinity>
-6.66205931

>  <minimizedRMSD>
0.432833195

$$$$
