
 OpenBabel03252512193D

 24 25  0  0  0  0  0  0  0  0999 V2000
   34.9500   29.2130   48.6170 C   0  0  0  0  0  0  0  0  0  0  0  0
   34.4090   27.9700   49.0080 C   0  0  0  0  0  0  0  0  0  0  0  0
   33.3160   27.5320   48.3240 C   0  0  0  0  0  0  0  0  0  0  0  0
   32.8170   28.2860   47.3360 C   0  0  0  0  0  0  0  0  0  0  0  0
   33.8780   29.7210   47.2830 S   0  0  0  0  0  0  0  0  0  0  0  0
   34.8940   27.4260   49.8340 H   0  0  0  0  0  0  0  0  0  0  0  0
   32.8480   26.5790   48.5740 H   0  0  0  0  0  0  0  0  0  0  0  0
   37.4600   30.3380   51.0940 C   0  0  0  0  0  0  0  0  0  0  0  0
   38.3390   31.0830   50.2940 C   0  0  0  0  0  0  0  0  0  0  0  0
   38.0550   31.1900   48.9170 C   0  0  0  0  0  0  0  0  0  0  0  0
   36.9490   30.5700   48.4240 N   0  0  0  0  0  0  0  0  0  0  0  0
   36.1280   29.8610   49.2270 C   0  0  0  0  0  0  0  0  0  0  0  0
   36.3640   29.7340   50.5570 N   0  0  0  0  0  0  0  0  0  0  0  0
   37.7150   30.2830   52.1420 H   0  0  0  0  0  0  0  0  0  0  0  0
   39.2150   31.5790   50.6670 H   0  0  0  0  0  0  0  0  0  0  0  0
   38.6610   31.7360   48.2120 H   0  0  0  0  0  0  0  0  0  0  0  0
   31.7000   28.0310   46.4910 N   0  0  0  0  0  0  0  0  0  0  0  0
   30.4560   28.6730   46.7190 C   0  0  0  0  0  0  0  0  0  0  0  0
   30.0340   28.8420   47.9090 N   0  0  0  0  0  0  0  0  0  0  0  0
   29.6850   29.1170   45.6030 N   0  0  0  0  0  0  0  0  0  0  0  0
   31.8210   27.3710   45.7090 H   0  0  0  0  0  0  0  0  0  0  0  0
   30.4810   28.5700   48.7870 H   0  0  0  0  0  0  0  0  0  0  0  0
   29.1090   28.5180   44.9970 H   0  0  0  0  0  0  0  0  0  0  0  0
   29.7740   30.1300   45.4710 H   0  0  0  0  0  0  0  0  0  0  0  0
  1  2  2  0  0  0  0
  1 12  1  0  0  0  0
  2  6  1  0  0  0  0
  3  7  1  0  0  0  0
  3  2  1  0  0  0  0
  4  3  2  0  0  0  0
  5  4  1  0  0  0  0
  5  1  1  0  0  0  0
  8 14  1  0  0  0  0
  9 15  1  0  0  0  0
  9  8  2  0  0  0  0
 10  9  1  0  0  0  0
 11 10  2  0  0  0  0
 11 12  1  0  0  0  0
 12 13  2  0  0  0  0
 13  8  1  0  0  0  0
 16 10  1  0  0  0  0
 17 18  1  0  0  0  0
 17  4  1  0  0  0  0
 18 19  2  0  0  0  0
 19 22  1  0  0  0  0
 20 18  1  0  0  0  0
 21 17  1  0  0  0  0
 23 20  1  0  0  0  0
 24 20  1  0  0  0  0
M  END
>  <minimizedAffinity>
-4.5732522

>  <minimizedRMSD>
0.160458788

$$$$
