
 OpenBabel03252514073D

 42 44  0  0  0  0  0  0  0  0999 V2000
   32.8580   30.3390   46.6220 C   0  0  0  0  0  0  0  0  0  0  0  0
   33.4940   29.1450   47.0350 C   0  0  0  0  0  0  0  0  0  0  0  0
   32.9680   27.9760   46.5190 C   0  0  0  0  0  0  0  0  0  0  0  0
   31.9110   28.0250   45.6750 N   0  0  0  0  0  0  0  0  0  0  0  0
   31.3250   29.1660   45.2980 C   0  0  0  0  0  0  0  0  0  0  0  0
   31.8130   30.3280   45.7840 N   0  0  0  0  0  0  0  0  0  0  0  0
   33.1870   31.3320   46.9670 H   0  0  0  0  0  0  0  0  0  0  0  0
   33.4590   27.0770   46.8390 H   0  0  0  0  0  0  0  0  0  0  0  0
   34.5860   29.2520   47.9230 N   0  0  0  0  0  0  0  0  0  0  0  0
   34.6010   28.6930   49.1680 C   0  0  0  0  0  0  0  0  0  0  0  0
   35.7850   28.9800   49.7530 N   0  0  0  0  0  0  0  0  0  0  0  0
   36.4920   29.7120   48.8640 C   0  0  0  0  0  0  0  0  0  0  0  0
   37.7450   30.2820   48.8970 C   0  0  0  0  0  0  0  0  0  0  0  0
   38.2160   30.9790   47.8420 N   0  0  0  0  0  0  0  0  0  0  0  0
   37.4820   31.1440   46.7210 C   0  0  0  0  0  0  0  0  0  0  0  0
   36.2610   30.5850   46.7000 N   0  0  0  0  0  0  0  0  0  0  0  0
   35.7460   29.8880   47.7100 C   0  0  0  0  0  0  0  0  0  0  0  0
   33.8600   28.1090   49.6970 H   0  0  0  0  0  0  0  0  0  0  0  0
   37.8660   31.7070   45.8770 H   0  0  0  0  0  0  0  0  0  0  0  0
   38.5490   30.1360   50.0440 N   0  0  0  0  0  0  0  0  0  0  0  0
   38.1190   29.9460   50.9990 H   0  0  0  0  0  0  0  0  0  0  0  0
   39.5960   30.2070   50.0190 H   0  0  0  0  0  0  0  0  0  0  0  0
   30.1670   29.1990   44.3770 C   0  0  0  0  0  0  0  0  0  0  0  0
   29.9640   27.8220   43.7680 C   0  0  0  0  0  0  0  0  0  0  0  0
   30.9040   27.4150   43.3490 H   0  0  0  0  0  0  0  0  0  0  0  0
   29.0950   27.7870   43.1030 H   0  0  0  0  0  0  0  0  0  0  0  0
   29.7080   27.0980   44.6020 H   0  0  0  0  0  0  0  0  0  0  0  0
   28.8770   29.4600   45.1770 C   0  0  0  0  0  0  0  0  0  0  0  0
   27.9980   29.0250   44.6550 H   0  0  0  0  0  0  0  0  0  0  0  0
   29.0280   28.8620   46.1130 H   0  0  0  0  0  0  0  0  0  0  0  0
   28.7310   30.5250   45.3820 H   0  0  0  0  0  0  0  0  0  0  0  0
   30.2360   30.2890   43.3670 C   0  0  0  0  0  0  0  0  0  0  0  0
   29.6230   29.9360   42.4820 H   0  0  0  0  0  0  0  0  0  0  0  0
   29.7060   31.2050   43.7190 H   0  0  0  0  0  0  0  0  0  0  0  0
   31.5570   30.5930   42.8730 N   0  0  0  0  0  0  0  0  0  0  0  0
   32.3040   29.8400   41.9350 C   0  0  0  0  0  0  0  0  0  0  0  0
   31.5800   29.1840   41.0720 N   0  0  0  0  0  0  0  0  0  0  0  0
   33.7230   29.7880   41.9020 N   0  0  0  0  0  0  0  0  0  0  0  0
   32.0160   31.4730   43.2580 H   0  0  0  0  0  0  0  0  0  0  0  0
   32.0040   28.5960   40.3320 H   0  0  0  0  0  0  0  0  0  0  0  0
   34.0710   29.9560   40.9160 H   0  0  0  0  0  0  0  0  0  0  0  0
   34.4700   29.6280   42.6000 H   0  0  0  0  0  0  0  0  0  0  0  0
  1  7  1  0  0  0  0
  1  2  1  0  0  0  0
  2  9  1  0  0  0  0
  3  8  1  0  0  0  0
  3  2  2  0  0  0  0
  4  3  1  0  0  0  0
  5  4  2  0  0  0  0
  5  6  1  0  0  0  0
  6  1  2  0  0  0  0
  9 10  1  0  0  0  0
 10 18  1  0  0  0  0
 10 11  2  0  0  0  0
 12 13  1  0  0  0  0
 12 11  1  0  0  0  0
 13 20  1  0  0  0  0
 14 13  2  0  0  0  0
 15 14  1  0  0  0  0
 16 15  2  0  0  0  0
 16 17  1  0  0  0  0
 17  9  1  0  0  0  0
 17 12  2  0  0  0  0
 19 15  1  0  0  0  0
 20 21  1  0  0  0  0
 22 20  1  0  0  0  0
 23 28  1  0  0  0  0
 23  5  1  0  0  0  0
 24 23  1  0  0  0  0
 24 27  1  0  0  0  0
 25 24  1  0  0  0  0
 26 24  1  0  0  0  0
 28 31  1  0  0  0  0
 28 30  1  0  0  0  0
 29 28  1  0  0  0  0
 32 34  1  0  0  0  0
 32 23  1  0  0  0  0
 33 32  1  0  0  0  0
 35 39  1  0  0  0  0
 35 32  1  0  0  0  0
 36 35  1  0  0  0  0
 37 36  2  0  0  0  0
 38 36  1  0  0  0  0
 38 42  1  0  0  0  0
 40 37  1  0  0  0  0
 41 38  1  0  0  0  0
M  END
>  <minimizedAffinity>
-4.18935442

>  <minimizedRMSD>
5.0316391

$$$$
