REMARK  Name = 
REMARK  1 active torsions:
REMARK  status: ('A' for Active; 'I' for Inactive)
REMARK    1  A    between atoms: N_1  and  C_11
REMARK                            x       y       z     vdW  Elec       q    Type
REMARK                         _______ _______ _______ _____ _____    ______ ____
ROOT
ATOM      1  C   UNL     1      35.690  30.666  49.399  0.00  0.00    +0.000 A 
ATOM      2  C   UNL     1      36.995  30.929  49.826  0.00  0.00    +0.000 A 
ATOM      3  C   UNL     1      37.406  30.294  50.997  0.00  0.00    +0.000 A 
ATOM      4  N   UNL     1      36.549  29.471  51.655  0.00  0.00    +0.000 NA
ATOM      5  C   UNL     1      35.289  29.241  51.208  0.00  0.00    +0.000 A 
ATOM      6  N   UNL     1      34.881  29.843  50.087  0.00  0.00    +0.000 NA
ATOM      7  H   UNL     1      35.310  31.133  48.491  0.00  0.00    +0.000 HD
ATOM      8  H   UNL     1      38.402  30.502  51.311  0.00  0.00    +0.000 HD
ATOM      9  N   UNL     1      34.423  28.371  51.929  0.00  0.00    +0.000 N 
ATOM     10  C   UNL     1      33.362  28.897  52.717  0.00  0.00    +0.000 C 
ATOM     11  N   UNL     1      32.790  29.989  52.332  0.00  0.00    +0.000 NA
ATOM     12  N   UNL     1      32.964  28.210  53.898  0.00  0.00    +0.000 N 
ATOM     13  H   UNL     1      34.571  27.339  51.876  0.00  0.00    +0.000 HD
ATOM     14  H   UNL     1      32.008  30.422  52.867  0.00  0.00    +0.000 HD
ATOM     15  H   UNL     1      32.475  27.612  54.578  0.00  0.00    +0.000 HD
ATOM     16  H   UNL     1      33.388  28.228  54.868  0.00  0.00    +0.000 HD
ENDROOT
BRANCH   2  17
ATOM     17  N   UNL     1      37.799  31.809  49.054  0.00  0.00    +0.000 N 
ATOM     18  C   UNL     1      38.195  33.032  49.467  0.00  0.00    +0.000 A 
ATOM     19  N   UNL     1      38.946  33.597  48.490  0.00  0.00    +0.000 NA
ATOM     20  C   UNL     1      39.004  32.722  47.492  0.00  0.00    +0.000 A 
ATOM     21  C   UNL     1      39.608  32.724  46.251  0.00  0.00    +0.000 A 
ATOM     22  N   UNL     1      39.505  31.681  45.415  0.00  0.00    +0.000 NA
ATOM     23  C   UNL     1      38.798  30.560  45.745  0.00  0.00    +0.000 A 
ATOM     24  N   UNL     1      38.210  30.558  46.954  0.00  0.00    +0.000 NA
ATOM     25  C   UNL     1      38.290  31.581  47.816  0.00  0.00    +0.000 A 
ATOM     26  N   UNL     1      40.355  33.831  45.824  0.00  0.00    +0.000 N 
ATOM     27  H   UNL     1      37.953  33.494  50.430  0.00  0.00    +0.000 HD
ATOM     28  H   UNL     1      38.756  29.756  45.026  0.00  0.00    +0.000 HD
ATOM     29  H   UNL     1      41.394  33.882  45.647  0.00  0.00    +0.000 HD
ATOM     30  H   UNL     1      39.796  34.713  45.664  0.00  0.00    +0.000 HD
ENDBRANCH   2  17
TORSDOF 1
