
 OpenBabel03252514033D

 37 39  0  0  1  0  0  0  0  0999 V2000
   35.4530   29.5050   49.0070 C   0  0  2  0  0  0  0  0  0  0  0  0
   34.3400   29.3850   49.9420 C   0  0  0  0  0  0  0  0  0  0  0  0
   34.7340   28.1530   49.3230 C   0  0  1  0  0  0  0  0  0  0  0  0
   35.2890   29.9190   48.0100 H   0  0  0  0  0  0  0  0  0  0  0  0
   34.5780   29.4950   51.0380 H   0  0  0  0  0  0  0  0  0  0  0  0
   33.3460   29.8550   49.7060 H   0  0  0  0  0  0  0  0  0  0  0  0
   35.4130   27.3890   49.7010 H   0  0  0  0  0  0  0  0  0  0  0  0
   36.8610   29.5180   49.6210 C   0  0  0  0  0  0  0  0  0  0  0  0
   37.3730   28.5640   49.4410 H   0  0  0  0  0  0  0  0  0  0  0  0
   36.7680   29.6320   50.7180 H   0  0  0  0  0  0  0  0  0  0  0  0
   38.2640   32.8820   49.3540 C   0  0  0  0  0  0  0  0  0  0  0  0
   38.8990   32.8510   48.0940 C   0  0  0  0  0  0  0  0  0  0  0  0
   38.8280   31.6480   47.3530 C   0  0  0  0  0  0  0  0  0  0  0  0
   38.1520   30.5910   47.8970 N   0  0  0  0  0  0  0  0  0  0  0  0
   37.5690   30.6750   49.0950 C   0  0  0  0  0  0  0  0  0  0  0  0
   37.6290   31.8280   49.8200 N   0  0  0  0  0  0  0  0  0  0  0  0
   38.3850   33.8440   49.8210 H   0  0  0  0  0  0  0  0  0  0  0  0
   39.4490   33.6190   47.5820 H   0  0  0  0  0  0  0  0  0  0  0  0
   39.2810   31.5250   46.3820 H   0  0  0  0  0  0  0  0  0  0  0  0
   33.7990   27.6410   48.2450 C   0  0  0  0  0  0  0  0  0  0  0  0
   34.1720   26.5060   47.7450 O   0  0  0  0  0  0  0  0  0  0  0  0
   32.6370   28.2580   47.7850 O   0  0  0  0  0  0  0  0  0  0  0  0
   31.3840   27.8990   48.2150 C   0  0  0  0  0  0  0  0  0  0  0  0
   30.8290   28.1490   49.5670 C   0  0  0  0  0  0  0  0  0  0  0  0
   29.5730   27.7270   49.8110 C   0  0  0  0  0  0  0  0  0  0  0  0
   28.7950   27.0780   48.8520 C   0  0  0  0  0  0  0  0  0  0  0  0
   29.9270   27.0170   47.3800 S   0  0  0  0  0  0  0  0  0  0  0  0
   31.4830   28.6480   50.2380 H   0  0  0  0  0  0  0  0  0  0  0  0
   29.1410   27.8840   50.7870 H   0  0  0  0  0  0  0  0  0  0  0  0
   27.5720   26.5650   48.7440 N   0  0  0  0  0  0  0  0  0  0  0  0
   27.0080   25.7370   49.7520 C   0  0  0  0  0  0  0  0  0  0  0  0
   27.1240   26.1040   50.9630 N   0  0  0  0  0  0  0  0  0  0  0  0
   26.3110   24.5190   49.4820 N   0  0  0  0  0  0  0  0  0  0  0  0
   26.9380   26.7270   47.9060 H   0  0  0  0  0  0  0  0  0  0  0  0
   27.5870   26.9530   51.3320 H   0  0  0  0  0  0  0  0  0  0  0  0
   26.4950   23.5140   49.6950 H   0  0  0  0  0  0  0  0  0  0  0  0
   25.4030   24.4190   48.9710 H   0  0  0  0  0  0  0  0  0  0  0  0
  1  4  1  6  0  0  0
  1  3  1  0  0  0  0
  1  8  1  0  0  0  0
  1  2  1  0  0  0  0
  2  5  1  0  0  0  0
  3  7  1  1  0  0  0
  3  2  1  0  0  0  0
  6  2  1  0  0  0  0
  8 10  1  0  0  0  0
  9  8  1  0  0  0  0
 11 16  1  0  0  0  0
 11 17  1  0  0  0  0
 12 11  2  0  0  0  0
 13 14  2  0  0  0  0
 13 12  1  0  0  0  0
 14 15  1  0  0  0  0
 15  8  1  0  0  0  0
 15 16  2  0  0  0  0
 18 12  1  0  0  0  0
 19 13  1  0  0  0  0
 20  3  1  0  0  0  0
 21 20  2  0  0  0  0
 22 23  1  0  0  0  0
 22 20  1  0  0  0  0
 23 24  2  0  0  0  0
 24 25  1  0  0  0  0
 24 28  1  0  0  0  0
 25 29  1  0  0  0  0
 26 25  2  0  0  0  0
 27 23  1  0  0  0  0
 27 26  1  0  0  0  0
 30 26  1  0  0  0  0
 30 31  1  0  0  0  0
 31 32  2  0  0  0  0
 32 35  1  0  0  0  0
 33 36  1  0  0  0  0
 33 31  1  0  0  0  0
 34 30  1  0  0  0  0
 37 33  1  0  0  0  0
M  END
>  <minimizedAffinity>
-4.61839819

>  <minimizedRMSD>
0.403040081

$$$$
