
 OpenBabel03252513303D

 40 43  0  0  0  0  0  0  0  0999 V2000
   31.7190   26.2560   47.6020 C   0  0  0  0  0  0  0  0  0  0  0  0
   31.4420   25.1360   46.9030 C   0  0  0  0  0  0  0  0  0  0  0  0
   32.4080   24.3460   46.3160 C   0  0  0  0  0  0  0  0  0  0  0  0
   33.7170   24.7600   46.4770 C   0  0  0  0  0  0  0  0  0  0  0  0
   34.0200   25.8930   47.1810 C   0  0  0  0  0  0  0  0  0  0  0  0
   33.0300   26.6600   47.7540 C   0  0  0  0  0  0  0  0  0  0  0  0
   30.3930   24.8440   46.8000 H   0  0  0  0  0  0  0  0  0  0  0  0
   32.1380   23.4470   45.7590 H   0  0  0  0  0  0  0  0  0  0  0  0
   34.4870   24.1500   46.0210 H   0  0  0  0  0  0  0  0  0  0  0  0
   35.0500   26.1770   47.2800 H   0  0  0  0  0  0  0  0  0  0  0  0
   29.3130   27.6810   50.0020 C   0  0  0  0  0  0  0  0  0  0  0  0
   28.6520   28.6550   49.2280 C   0  0  0  0  0  0  0  0  0  0  0  0
   29.0540   28.7900   47.9060 C   0  0  0  0  0  0  0  0  0  0  0  0
   30.0580   27.9860   47.4190 N   0  0  0  0  0  0  0  0  0  0  0  0
   30.6600   27.0660   48.2090 C   0  0  0  0  0  0  0  0  0  0  0  0
   30.2770   26.9340   49.4750 N   0  0  0  0  0  0  0  0  0  0  0  0
   28.9830   27.5950   51.0260 H   0  0  0  0  0  0  0  0  0  0  0  0
   28.6040   29.5020   47.2550 H   0  0  0  0  0  0  0  0  0  0  0  0
   27.5710   29.5060   49.7780 C   0  0  0  0  0  0  0  0  0  0  0  0
   28.0340   30.6090   50.4450 F   0  0  0  0  0  0  0  0  0  0  0  0
   26.7590   28.8080   50.6510 F   0  0  0  0  0  0  0  0  0  0  0  0
   26.7630   29.9600   48.7150 F   0  0  0  0  0  0  0  0  0  0  0  0
   33.3110   27.8870   48.5210 C   0  0  0  0  0  0  0  0  0  0  0  0
   33.8970   27.5840   49.4090 H   0  0  0  0  0  0  0  0  0  0  0  0
   32.3480   28.2810   48.9520 H   0  0  0  0  0  0  0  0  0  0  0  0
   33.8740   29.0090   47.7230 C   0  0  0  0  0  0  0  0  0  0  0  0
   34.0630   28.6240   46.6830 H   0  0  0  0  0  0  0  0  0  0  0  0
   33.1740   29.8540   47.5780 H   0  0  0  0  0  0  0  0  0  0  0  0
   35.1100   29.5010   48.3300 C   0  0  0  0  0  0  0  0  0  0  0  0
   35.7540   28.8720   49.3820 C   0  0  0  0  0  0  0  0  0  0  0  0
   36.8800   29.5860   49.7260 C   0  0  0  0  0  0  0  0  0  0  0  0
   36.8800   30.6460   48.8520 N   0  0  0  0  0  0  0  0  0  0  0  0
   35.8440   30.5990   48.0330 N   0  0  0  0  0  0  0  0  0  0  0  0
   35.5720   27.9780   49.9640 H   0  0  0  0  0  0  0  0  0  0  0  0
   37.6610   29.4700   50.4660 H   0  0  0  0  0  0  0  0  0  0  0  0
   37.7840   31.7480   48.6920 C   0  0  0  0  0  0  0  0  0  0  0  0
   38.1350   32.7480   49.4890 C   0  0  0  0  0  0  0  0  0  0  0  0
   39.0360   33.6940   49.1000 C   0  0  0  0  0  0  0  0  0  0  0  0
   39.5540   33.4950   47.7650 C   0  0  0  0  0  0  0  0  0  0  0  0
   38.6560   31.9220   47.2060 S   0  0  0  0  0  0  0  0  0  0  0  0
  1  6  1  0  0  0  0
  1 15  1  0  0  0  0
  2  1  2  0  0  0  0
  3  4  2  0  0  0  0
  3  2  1  0  0  0  0
  4  5  1  0  0  0  0
  5 10  1  0  0  0  0
  5  6  2  0  0  0  0
  6 23  1  0  0  0  0
  7  2  1  0  0  0  0
  8  3  1  0  0  0  0
  9  4  1  0  0  0  0
 11 17  1  0  0  0  0
 12 19  1  0  0  0  0
 12 11  2  0  0  0  0
 13 12  1  0  0  0  0
 14 13  2  0  0  0  0
 14 15  1  0  0  0  0
 15 16  2  0  0  0  0
 16 11  1  0  0  0  0
 18 13  1  0  0  0  0
 19 20  1  0  0  0  0
 19 21  1  0  0  0  0
 22 19  1  0  0  0  0
 23 25  1  0  0  0  0
 23 24  1  0  0  0  0
 26 29  1  0  0  0  0
 26 23  1  0  0  0  0
 27 26  1  0  0  0  0
 28 26  1  0  0  0  0
 29 30  1  0  0  0  0
 30 31  2  0  0  0  0
 30 34  1  0  0  0  0
 31 35  1  0  0  0  0
 32 31  1  0  0  0  0
 33 29  2  0  0  0  0
 33 32  1  0  0  0  0
 36 32  1  0  0  0  0
 36 37  2  0  0  0  0
 38 37  1  0  0  0  0
 39 38  2  0  0  0  0
 40 39  1  0  0  0  0
 40 36  1  0  0  0  0
M  END
>  <minimizedAffinity>
-6.86502075

>  <minimizedRMSD>
1.07582676

$$$$
