
 OpenBabel03252513593D

 25 26  0  0  1  0  0  0  0  0999 V2000
   35.4430   29.4910   49.1290 C   0  0  2  0  0  0  0  0  0  0  0  0
   34.3580   29.5280   50.1200 C   0  0  0  0  0  0  0  0  0  0  0  0
   34.6570   28.2290   49.5370 C   0  0  1  0  0  0  0  0  0  0  0  0
   35.3480   29.7230   48.0650 H   0  0  0  0  0  0  0  0  0  0  0  0
   34.6150   29.7930   51.1710 H   0  0  0  0  0  0  0  0  0  0  0  0
   33.4340   30.0950   49.8040 H   0  0  0  0  0  0  0  0  0  0  0  0
   35.3320   27.4700   49.9450 H   0  0  0  0  0  0  0  0  0  0  0  0
   36.8800   29.4650   49.6510 C   0  0  0  0  0  0  0  0  0  0  0  0
   36.8200   29.5200   50.7530 H   0  0  0  0  0  0  0  0  0  0  0  0
   37.3770   28.5150   49.3330 H   0  0  0  0  0  0  0  0  0  0  0  0
   38.2410   32.8560   49.3600 C   0  0  0  0  0  0  0  0  0  0  0  0
   38.8570   32.8350   48.1000 C   0  0  0  0  0  0  0  0  0  0  0  0
   38.8000   31.6440   47.3560 C   0  0  0  0  0  0  0  0  0  0  0  0
   38.1430   30.5700   47.9050 N   0  0  0  0  0  0  0  0  0  0  0  0
   37.5700   30.6370   49.1090 C   0  0  0  0  0  0  0  0  0  0  0  0
   37.6260   31.7840   49.8240 N   0  0  0  0  0  0  0  0  0  0  0  0
   38.2330   33.7190   49.9980 H   0  0  0  0  0  0  0  0  0  0  0  0
   39.3460   33.7230   47.7560 H   0  0  0  0  0  0  0  0  0  0  0  0
   39.2680   31.6080   46.3870 H   0  0  0  0  0  0  0  0  0  0  0  0
   33.6390   27.7140   48.5590 C   0  0  0  0  0  0  0  0  0  0  0  0
   34.1000   26.8440   47.7170 O   0  0  0  0  0  0  0  0  0  0  0  0
   32.3030   28.0800   48.5050 O   0  0  0  0  0  0  0  0  0  0  0  0
   31.4490   27.7980   47.4420 C   0  0  0  0  0  3  0  0  0  0  0  0
   31.5520   28.9540   46.4480 C   0  0  0  0  0  1  0  0  0  0  0  0
   30.0330   27.8310   47.9810 C   0  0  0  0  0  1  0  0  0  0  0  0
  1  4  1  6  0  0  0
  1  3  1  0  0  0  0
  1  8  1  0  0  0  0
  1  2  1  0  0  0  0
  2  5  1  0  0  0  0
  3  7  1  1  0  0  0
  3  2  1  0  0  0  0
  6  2  1  0  0  0  0
  8  9  1  0  0  0  0
 10  8  1  0  0  0  0
 11 16  1  0  0  0  0
 11 17  1  0  0  0  0
 12 11  2  0  0  0  0
 13 14  2  0  0  0  0
 13 12  1  0  0  0  0
 14 15  1  0  0  0  0
 15  8  1  0  0  0  0
 15 16  2  0  0  0  0
 18 12  1  0  0  0  0
 19 13  1  0  0  0  0
 20  3  1  0  0  0  0
 21 20  2  0  0  0  0
 22 20  1  0  0  0  0
 23 25  1  0  0  0  0
 23 22  1  0  0  0  0
 24 23  1  0  0  0  0
M  END
>  <minimizedAffinity>
-4.61759424

>  <minimizedRMSD>
0.321893305

$$$$
