
 OpenBabel03252513083D

 33 35  0  0  0  0  0  0  0  0999 V2000
   38.2840   31.7120   45.9720 C   0  0  0  0  0  0  0  0  0  0  0  0
   37.3010   30.7730   46.3350 C   0  0  0  0  0  0  0  0  0  0  0  0
   36.8150   30.6460   47.5980 C   0  0  0  0  0  0  0  0  0  0  0  0
   37.2620   31.4390   48.6050 C   0  0  0  0  0  0  0  0  0  0  0  0
   38.2130   32.3660   48.3180 C   0  0  0  0  0  0  0  0  0  0  0  0
   38.6580   33.1670   49.3560 C   0  0  0  0  0  0  0  0  0  0  0  0
   39.6080   34.1190   49.1520 C   0  0  0  0  0  0  0  0  0  0  0  0
   40.1170   34.2600   47.8590 C   0  0  0  0  0  0  0  0  0  0  0  0
   39.6420   33.4430   46.8670 C   0  0  0  0  0  0  0  0  0  0  0  0
   38.7000   32.4870   47.0330 C   0  0  0  0  0  0  0  0  0  0  0  0
   36.9860   30.1660   45.4690 H   0  0  0  0  0  0  0  0  0  0  0  0
   36.0790   29.8640   47.6500 H   0  0  0  0  0  0  0  0  0  0  0  0
   38.3430   33.1500   50.3820 H   0  0  0  0  0  0  0  0  0  0  0  0
   40.0190   34.7830   49.8730 H   0  0  0  0  0  0  0  0  0  0  0  0
   40.8720   34.9910   47.6090 H   0  0  0  0  0  0  0  0  0  0  0  0
   40.0580   33.5720   45.8540 H   0  0  0  0  0  0  0  0  0  0  0  0
   40.2720   30.7940   43.1220 C   0  0  0  0  0  0  0  0  0  0  0  0
   40.0230   31.7020   42.1080 C   0  0  0  0  0  0  0  0  0  0  0  0
   39.1060   32.7070   42.4240 C   0  0  0  0  0  0  0  0  0  0  0  0
   38.5550   32.7140   43.6440 N   0  0  0  0  0  0  0  0  0  0  0  0
   38.7940   31.8400   44.6180 C   0  0  0  0  0  0  0  0  0  0  0  0
   39.6630   30.9070   44.2870 N   0  0  0  0  0  0  0  0  0  0  0  0
   40.9880   30.0190   42.8580 H   0  0  0  0  0  0  0  0  0  0  0  0
   40.4590   31.6980   41.1410 H   0  0  0  0  0  0  0  0  0  0  0  0
   38.8050   33.4840   41.7530 H   0  0  0  0  0  0  0  0  0  0  0  0
   36.7340   31.2600   49.9140 N   0  0  0  0  0  0  0  0  0  0  0  0
   36.9380   30.0990   50.7010 C   0  0  0  0  0  0  0  0  0  0  0  0
   36.8210   28.9470   50.0780 N   0  0  0  0  0  0  0  0  0  0  0  0
   37.2560   30.0620   52.1110 N   0  0  0  0  0  0  0  0  0  0  0  0
   36.1500   31.9460   50.4580 H   0  0  0  0  0  0  0  0  0  0  0  0
   36.9510   28.0620   50.5680 H   0  0  0  0  0  0  0  0  0  0  0  0
   36.8990   30.3270   53.0500 H   0  0  0  0  0  0  0  0  0  0  0  0
   38.2000   29.5920   52.2380 H   0  0  0  0  0  0  0  0  0  0  0  0
  1  2  2  0  0  0  0
  1 10  1  0  0  0  0
  2  3  1  0  0  0  0
  3 12  1  0  0  0  0
  3  4  2  0  0  0  0
  4 26  1  0  0  0  0
  5  4  1  0  0  0  0
  5  6  1  0  0  0  0
  6 13  1  0  0  0  0
  7  6  2  0  0  0  0
  7 14  1  0  0  0  0
  8  7  1  0  0  0  0
  9 10  1  0  0  0  0
  9  8  2  0  0  0  0
 10  5  2  0  0  0  0
 11  2  1  0  0  0  0
 15  8  1  0  0  0  0
 16  9  1  0  0  0  0
 17 22  1  0  0  0  0
 18 19  1  0  0  0  0
 18 17  2  0  0  0  0
 19 20  2  0  0  0  0
 20 21  1  0  0  0  0
 21  1  1  0  0  0  0
 22 21  2  0  0  0  0
 23 17  1  0  0  0  0
 24 18  1  0  0  0  0
 25 19  1  0  0  0  0
 26 30  1  0  0  0  0
 26 27  1  0  0  0  0
 27 29  1  0  0  0  0
 28 31  1  0  0  0  0
 28 27  2  0  0  0  0
 29 33  1  0  0  0  0
 29 32  1  0  0  0  0
M  END
>  <minimizedAffinity>
-6.6271944

>  <minimizedRMSD>
5.15133858

$$$$
