
 OpenBabel03252514073D

 36 38  0  0  0  0  0  0  0  0999 V2000
   34.5130   30.0950   47.5080 C   0  0  0  0  0  0  0  0  0  0  0  0
   35.4590   29.9290   48.5280 C   0  0  0  0  0  0  0  0  0  0  0  0
   35.4140   28.7280   49.2270 C   0  0  0  0  0  0  0  0  0  0  0  0
   34.4860   27.8000   48.9030 N   0  0  0  0  0  0  0  0  0  0  0  0
   33.5950   27.9760   47.9310 C   0  0  0  0  0  0  0  0  0  0  0  0
   33.6150   29.1270   47.2380 N   0  0  0  0  0  0  0  0  0  0  0  0
   34.4830   31.0110   46.9130 H   0  0  0  0  0  0  0  0  0  0  0  0
   36.1440   28.6000   50.0140 H   0  0  0  0  0  0  0  0  0  0  0  0
   36.3750   30.9880   48.7610 N   0  0  0  0  0  0  0  0  0  0  0  0
   36.3750   31.7570   49.8890 C   0  0  0  0  0  0  0  0  0  0  0  0
   37.3700   32.6660   49.7890 N   0  0  0  0  0  0  0  0  0  0  0  0
   37.9720   32.4510   48.6050 C   0  0  0  0  0  0  0  0  0  0  0  0
   39.0340   33.0500   47.9550 C   0  0  0  0  0  0  0  0  0  0  0  0
   39.4410   32.6320   46.7560 N   0  0  0  0  0  0  0  0  0  0  0  0
   38.8350   31.6020   46.1180 C   0  0  0  0  0  0  0  0  0  0  0  0
   37.8030   31.0200   46.7510 N   0  0  0  0  0  0  0  0  0  0  0  0
   37.3570   31.4040   47.9570 C   0  0  0  0  0  0  0  0  0  0  0  0
   35.7160   31.7060   50.7640 H   0  0  0  0  0  0  0  0  0  0  0  0
   39.1730   31.2610   45.1310 H   0  0  0  0  0  0  0  0  0  0  0  0
   39.7050   34.1330   48.5750 N   0  0  0  0  0  0  0  0  0  0  0  0
   39.2110   34.8160   49.1950 H   0  0  0  0  0  0  0  0  0  0  0  0
   40.7350   34.2950   48.4370 H   0  0  0  0  0  0  0  0  0  0  0  0
   32.5730   26.9750   47.5600 C   0  0  0  0  0  0  0  0  0  0  0  0
   31.4050   27.0330   48.5320 C   0  0  0  0  0  0  0  0  0  0  0  0
   31.7360   26.5890   49.5150 H   0  0  0  0  0  0  0  0  0  0  0  0
   31.1150   28.0890   48.6740 H   0  0  0  0  0  0  0  0  0  0  0  0
   30.5940   26.3910   48.1790 H   0  0  0  0  0  0  0  0  0  0  0  0
   31.9680   27.2590   46.1920 C   0  0  0  0  0  0  0  0  0  0  0  0
   32.7810   27.4230   45.4640 H   0  0  0  0  0  0  0  0  0  0  0  0
   31.3410   26.3770   45.9470 H   0  0  0  0  0  0  0  0  0  0  0  0
   31.2960   28.1370   46.3160 H   0  0  0  0  0  0  0  0  0  0  0  0
   33.1350   25.5770   47.4820 C   0  0  0  0  0  0  0  0  0  0  0  0
   32.3280   24.8420   47.5080 H   0  0  0  0  0  0  0  0  0  0  0  0
   33.8590   25.4200   48.3020 H   0  0  0  0  0  0  0  0  0  0  0  0
   34.0450   25.3580   45.9380 S   0  0  0  0  0  0  0  0  0  0  0  0
   33.6580   26.2670   44.9390 H   0  0  0  0  0  0  0  0  0  0  0  0
  1  2  1  0  0  0  0
  2  9  1  0  0  0  0
  2  3  2  0  0  0  0
  3  8  1  0  0  0  0
  4  3  1  0  0  0  0
  5  4  2  0  0  0  0
  6  1  2  0  0  0  0
  6  5  1  0  0  0  0
  7  1  1  0  0  0  0
  9 10  1  0  0  0  0
 10 18  1  0  0  0  0
 11 10  2  0  0  0  0
 12 11  1  0  0  0  0
 13 20  1  0  0  0  0
 13 12  2  0  0  0  0
 14 13  1  0  0  0  0
 15 16  1  0  0  0  0
 15 14  2  0  0  0  0
 16 17  2  0  0  0  0
 17 12  1  0  0  0  0
 17  9  1  0  0  0  0
 19 15  1  0  0  0  0
 20 21  1  0  0  0  0
 22 20  1  0  0  0  0
 23  5  1  0  0  0  0
 23 24  1  0  0  0  0
 24 26  1  0  0  0  0
 24 25  1  0  0  0  0
 27 24  1  0  0  0  0
 28 31  1  0  0  0  0
 28 23  1  0  0  0  0
 29 28  1  0  0  0  0
 30 28  1  0  0  0  0
 32 33  1  0  0  0  0
 32 23  1  0  0  0  0
 32 34  1  0  0  0  0
 35 32  1  0  0  0  0
 36 35  1  0  0  0  0
M  END
>  <minimizedAffinity>
-5.26971722

>  <minimizedRMSD>
0.202345282

$$$$
