
 OpenBabel03252513493D

 24 25  0  0  0  0  0  0  0  0999 V2000
   35.4470   29.5040   48.1090 C   0  0  0  0  0  0  0  0  0  0  0  0
   36.6630   30.2290   48.3650 C   0  0  0  0  0  0  0  0  0  0  0  0
   37.2770   30.8970   47.3000 C   0  0  0  0  0  0  0  0  0  0  0  0
   36.6660   30.8100   46.0800 N   0  0  0  0  0  0  0  0  0  0  0  0
   35.5330   30.1270   45.8740 C   0  0  0  0  0  0  0  0  0  0  0  0
   34.9410   29.4880   46.8740 N   0  0  0  0  0  0  0  0  0  0  0  0
   37.1310   30.2920   49.3170 H   0  0  0  0  0  0  0  0  0  0  0  0
   35.0270   30.1500   44.4800 C   0  0  0  0  0  0  0  0  0  0  0  0
   35.8450   30.9550   43.6750 F   0  0  0  0  0  0  0  0  0  0  0  0
   35.1150   28.8960   43.9360 F   0  0  0  0  0  0  0  0  0  0  0  0
   33.6970   30.5320   44.4040 F   0  0  0  0  0  0  0  0  0  0  0  0
   38.5060   31.6450   47.4980 C   0  0  0  0  0  0  0  0  0  0  0  0
   38.8640   31.9310   48.6590 O   0  0  0  0  0  0  0  0  0  0  0  0
   39.3560   32.0870   46.3970 C   0  0  0  0  0  0  0  0  0  0  0  0
   40.2770   31.2610   45.7860 C   0  0  0  0  0  0  0  0  0  0  0  0
   40.9140   31.9480   44.8030 N   0  0  0  0  0  0  0  0  0  0  0  0
   40.3740   33.2020   44.8160 C   0  0  0  0  0  0  0  0  0  0  0  0
   39.4390   33.2770   45.7760 N   0  0  0  0  0  0  0  0  0  0  0  0
   38.8160   34.0510   46.0920 H   0  0  0  0  0  0  0  0  0  0  0  0
   34.8700   28.8610   49.1710 O   0  0  0  0  0  0  0  0  0  0  0  0
   34.2930   29.4930   50.2620 C   0  0  0  0  0  0  0  0  0  0  0  0
   34.9520   29.2320   51.4580 F   0  0  0  0  0  0  0  0  0  0  0  0
   34.1400   30.8480   50.1100 F   0  0  0  0  0  0  0  0  0  0  0  0
   33.0100   28.9580   50.3960 F   0  0  0  0  0  0  0  0  0  0  0  0
  1  2  1  0  0  0  0
  1 20  1  0  0  0  0
  2  7  1  0  0  0  0
  3 12  1  0  0  0  0
  3  2  2  0  0  0  0
  4  3  1  0  0  0  0
  5  4  2  0  0  0  0
  5  6  1  0  0  0  0
  6  1  2  0  0  0  0
  8  5  1  0  0  0  0
  9  8  1  0  0  0  0
 10  8  1  0  0  0  0
 11  8  1  0  0  0  0
 12 13  2  0  0  0  0
 14 12  1  0  0  0  0
 15 14  2  0  0  0  0
 16 17  2  0  0  0  0
 16 15  1  0  0  0  0
 17 18  1  0  0  0  0
 18 19  1  0  0  0  0
 18 14  1  0  0  0  0
 20 21  1  0  0  0  0
 21 24  1  0  0  0  0
 21 22  1  0  0  0  0
 23 21  1  0  0  0  0
M  END
>  <minimizedAffinity>
-5.37801456

>  <minimizedRMSD>
3.284343

$$$$
