
 OpenBabel03252511003D

 27 28  0  0  0  0  0  0  0  0999 V2000
   37.2500   31.4280   48.5510 C   0  0  0  0  0  0  0  0  0  0  0  0
   37.6960   32.4130   49.4780 C   0  0  0  0  0  0  0  0  0  0  0  0
   38.6760   33.3010   49.0470 C   0  0  0  0  0  0  0  0  0  0  0  0
   39.1450   33.1650   47.7600 N   0  0  0  0  0  0  0  0  0  0  0  0
   38.6910   32.2210   46.9310 C   0  0  0  0  0  0  0  0  0  0  0  0
   37.7340   31.3370   47.3180 N   0  0  0  0  0  0  0  0  0  0  0  0
   37.2920   32.4740   50.4800 H   0  0  0  0  0  0  0  0  0  0  0  0
   39.0680   34.0810   49.6970 H   0  0  0  0  0  0  0  0  0  0  0  0
   39.2140   32.1120   45.5780 C   0  0  0  0  0  0  0  0  0  0  0  0
   40.3530   31.3890   45.2640 C   0  0  0  0  0  0  0  0  0  0  0  0
   40.5610   31.5040   43.8740 C   0  0  0  0  0  0  0  0  0  0  0  0
   39.5180   32.2970   43.4470 C   0  0  0  0  0  0  0  0  0  0  0  0
   38.7650   32.6270   44.4590 O   0  0  0  0  0  0  0  0  0  0  0  0
   40.9760   30.8360   45.9510 H   0  0  0  0  0  0  0  0  0  0  0  0
   41.3830   31.0350   43.3590 H   0  0  0  0  0  0  0  0  0  0  0  0
   39.3610   32.6640   42.0440 C   0  0  0  0  0  0  0  0  0  0  0  0
   39.6380   31.8150   41.1570 O   0  0  0  0  0  0  0  0  0  0  0  0
   38.9180   33.9070   41.6130 O   0  0  0  0  0  0  0  0  0  0  0  0
   38.4140   34.0010   40.7170 H   0  0  0  0  0  0  0  0  0  0  0  0
   36.2200   30.5070   49.0240 C   0  0  0  0  0  0  0  0  0  0  0  0
   35.0020   30.7100   48.7120 O   0  0  0  0  0  0  0  0  0  0  0  0
   36.5940   29.4190   49.8120 O   0  0  0  0  0  0  0  0  0  0  0  0
   36.5570   29.4610   51.2050 C   0  0  0  0  0  0  0  0  0  0  0  0
   37.6940   29.7570   51.9820 N   0  0  0  0  0  0  0  0  0  0  0  0
   35.4210   29.2110   51.6880 O   0  0  0  0  0  0  0  0  0  0  0  0
   37.9120   30.5110   52.6570 H   0  0  0  0  0  0  0  0  0  0  0  0
   38.5710   29.1870   51.9770 H   0  0  0  0  0  0  0  0  0  0  0  0
  1 20  1  0  0  0  0
  1  2  1  0  0  0  0
  2  7  1  0  0  0  0
  3  2  2  0  0  0  0
  3  8  1  0  0  0  0
  4  3  1  0  0  0  0
  5  6  1  0  0  0  0
  5  4  2  0  0  0  0
  6  1  2  0  0  0  0
  9  5  1  0  0  0  0
 10  9  2  0  0  0  0
 10 14  1  0  0  0  0
 11 10  1  0  0  0  0
 12 11  2  0  0  0  0
 12 13  1  0  0  0  0
 13  9  1  0  0  0  0
 15 11  1  0  0  0  0
 16 12  1  0  0  0  0
 17 16  2  0  0  0  0
 18 16  1  0  0  0  0
 19 18  1  0  0  0  0
 20 22  1  0  0  0  0
 21 20  2  0  0  0  0
 22 23  1  0  0  0  0
 23 25  2  0  0  0  0
 23 24  1  0  0  0  0
 24 26  1  0  0  0  0
 27 24  1  0  0  0  0
M  END
>  <minimizedAffinity>
-5.5658412

>  <minimizedRMSD>
0.525759697

$$$$
