
 OpenBabel03252509503D

 36 39  0  0  0  0  0  0  0  0999 V2000
   30.0590   27.7960   47.0910 C   0  0  0  0  0  0  0  0  0  0  0  0
   30.9200   28.4610   46.2790 C   0  0  0  0  0  0  0  0  0  0  0  0
   32.2000   28.7990   46.6690 C   0  0  0  0  0  0  0  0  0  0  0  0
   32.6340   28.4600   47.9220 C   0  0  0  0  0  0  0  0  0  0  0  0
   31.7480   27.7860   48.7320 C   0  0  0  0  0  0  0  0  0  0  0  0
   30.4730   27.4440   48.3560 C   0  0  0  0  0  0  0  0  0  0  0  0
   30.5990   28.7410   45.2810 H   0  0  0  0  0  0  0  0  0  0  0  0
   32.8990   29.3260   46.0390 H   0  0  0  0  0  0  0  0  0  0  0  0
   32.0330   27.4850   49.7470 H   0  0  0  0  0  0  0  0  0  0  0  0
   29.8150   26.9190   49.0190 H   0  0  0  0  0  0  0  0  0  0  0  0
   35.6910   29.9870   48.6650 C   0  0  0  0  0  0  0  0  0  0  0  0
   35.8250   28.8740   49.4870 C   0  0  0  0  0  0  0  0  0  0  0  0
   34.7020   28.1020   49.3550 C   0  0  0  0  0  0  0  0  0  0  0  0
   33.9140   28.7330   48.4790 N   0  0  0  0  0  0  0  0  0  0  0  0
   34.4880   29.8290   48.0760 N   0  0  0  0  0  0  0  0  0  0  0  0
   36.6490   28.6040   50.1450 H   0  0  0  0  0  0  0  0  0  0  0  0
   34.4010   27.1660   49.8080 H   0  0  0  0  0  0  0  0  0  0  0  0
   38.0550   32.7310   49.4410 C   0  0  0  0  0  0  0  0  0  0  0  0
   38.7230   32.8380   48.2100 C   0  0  0  0  0  0  0  0  0  0  0  0
   38.3600   31.9890   47.1630 C   0  0  0  0  0  0  0  0  0  0  0  0
   37.3620   31.0910   47.4010 N   0  0  0  0  0  0  0  0  0  0  0  0
   36.7340   31.0040   48.5880 C   0  0  0  0  0  0  0  0  0  0  0  0
   37.0700   31.8190   49.6170 N   0  0  0  0  0  0  0  0  0  0  0  0
   38.3720   33.4050   50.2070 H   0  0  0  0  0  0  0  0  0  0  0  0
   39.5130   33.5580   48.0400 H   0  0  0  0  0  0  0  0  0  0  0  0
   38.8390   32.0240   46.1930 H   0  0  0  0  0  0  0  0  0  0  0  0
   28.4250   27.3790   46.6260 S   0  0  0  0  0  0  0  0  0  0  0  0
   28.4720   26.2140   45.6750 O   0  0  0  0  0  0  0  0  0  0  0  0
   27.6700   27.0180   47.8560 O   0  0  0  0  0  0  0  0  0  0  0  0
   27.6320   28.6850   45.8220 C   0  0  0  0  0  0  0  0  0  0  0  0
   27.0620   28.5100   44.5560 C   0  0  0  0  0  0  0  0  0  0  0  0
   26.4600   29.6300   44.0250 C   0  0  0  0  0  0  0  0  0  0  0  0
   26.4080   30.8060   44.6510 N   0  0  0  0  0  0  0  0  0  0  0  0
   26.9840   30.9080   45.8840 C   0  0  0  0  0  0  0  0  0  0  0  0
   26.8790   31.9190   46.3000 H   0  0  0  0  0  0  0  0  0  0  0  0
   27.5870   29.8490   46.4550 N   0  0  0  0  0  0  0  0  0  0  0  0
  1  6  1  0  0  0  0
  2  3  1  0  0  0  0
  2  1  2  0  0  0  0
  3  4  2  0  0  0  0
  4 14  1  0  0  0  0
  4  5  1  0  0  0  0
  5  9  1  0  0  0  0
  6  5  2  0  0  0  0
  6 10  1  0  0  0  0
  7  2  1  0  0  0  0
  8  3  1  0  0  0  0
 11 12  1  0  0  0  0
 12 16  1  0  0  0  0
 13 12  2  0  0  0  0
 13 17  1  0  0  0  0
 14 13  1  0  0  0  0
 15 14  1  0  0  0  0
 15 11  2  0  0  0  0
 18 23  1  0  0  0  0
 18 24  1  0  0  0  0
 19 18  2  0  0  0  0
 20 21  2  0  0  0  0
 20 19  1  0  0  0  0
 21 22  1  0  0  0  0
 22 11  1  0  0  0  0
 22 23  2  0  0  0  0
 25 19  1  0  0  0  0
 26 20  1  0  0  0  0
 27  1  1  0  0  0  0
 27 29  2  0  0  0  0
 28 27  2  0  0  0  0
 30 36  1  0  0  0  0
 30 27  1  0  0  0  0
 31 30  2  0  0  0  0
 32 31  1  0  0  0  0
 32 33  2  0  0  0  0
 33 34  1  0  0  0  0
 34 35  1  0  0  0  0
 34 36  2  0  0  0  0
M  END
>  <minimizedAffinity>
-5.91774464

>  <minimizedRMSD>
1.40501332

$$$$
