
 OpenBabel03252513363D

 23 23  0  0  0  0  0  0  0  0999 V2000
   36.8720   29.9510   49.8330 C   0  0  0  0  0  0  0  0  0  0  0  0
   38.0420   30.5490   49.3460 C   0  0  0  0  0  0  0  0  0  0  0  0
   38.0220   31.0050   48.0210 C   0  0  0  0  0  0  0  0  0  0  0  0
   36.8990   30.8460   47.3010 N   0  0  0  0  0  0  0  0  0  0  0  0
   35.7850   30.2560   47.8190 C   0  0  0  0  0  0  0  0  0  0  0  0
   35.7950   29.8210   49.0760 N   0  0  0  0  0  0  0  0  0  0  0  0
   39.1460   31.6150   47.4510 N   0  0  0  0  0  0  0  0  0  0  0  0
   39.0720   32.3910   46.2830 C   0  0  0  0  0  0  0  0  0  0  0  0
   37.9240   32.5010   45.6920 N   0  0  0  0  0  0  0  0  0  0  0  0
   40.2330   33.0280   45.7800 N   0  0  0  0  0  0  0  0  0  0  0  0
   37.8760   33.0620   44.8130 H   0  0  0  0  0  0  0  0  0  0  0  0
   38.9200   30.6570   49.9590 H   0  0  0  0  0  0  0  0  0  0  0  0
   40.0740   31.4820   47.9200 H   0  0  0  0  0  0  0  0  0  0  0  0
   40.5200   32.6310   44.8550 H   0  0  0  0  0  0  0  0  0  0  0  0
   40.8040   33.8070   46.2060 H   0  0  0  0  0  0  0  0  0  0  0  0
   36.8780   29.4560   51.2570 C   0  0  0  0  0  0  0  0  0  0  0  0
   35.5750   29.1640   51.6400 F   0  0  0  0  0  0  0  0  0  0  0  0
   37.7400   28.4360   51.3770 F   0  0  0  0  0  0  0  0  0  0  0  0
   37.3060   30.5380   52.0510 F   0  0  0  0  0  0  0  0  0  0  0  0
   34.5660   30.0840   47.0370 C   0  0  0  0  0  0  0  0  0  0  0  0
   34.4470   29.2000   46.1730 O   0  0  0  0  0  0  0  0  0  0  0  0
   33.4300   30.8480   47.1470 O   0  0  0  0  0  0  0  0  0  0  0  0
   32.9910   31.3330   46.3720 H   0  0  0  0  0  0  0  0  0  0  0  0
  1 16  1  0  0  0  0
  2  1  1  0  0  0  0
  2 12  1  0  0  0  0
  3  2  2  0  0  0  0
  4  5  2  0  0  0  0
  4  3  1  0  0  0  0
  5  6  1  0  0  0  0
  6  1  2  0  0  0  0
  7 13  1  0  0  0  0
  7  3  1  0  0  0  0
  8  7  1  0  0  0  0
  9  8  2  0  0  0  0
 10 15  1  0  0  0  0
 10  8  1  0  0  0  0
 11  9  1  0  0  0  0
 14 10  1  0  0  0  0
 16 18  1  0  0  0  0
 16 17  1  0  0  0  0
 16 19  1  0  0  0  0
 20 22  1  0  0  0  0
 20  5  1  0  0  0  0
 21 20  2  0  0  0  0
 23 22  1  0  0  0  0
M  END
>  <minimizedAffinity>
-6.57369852

>  <minimizedRMSD>
0.207075015

$$$$
