
 OpenBabel03252510453D

 33 35  0  0  1  0  0  0  0  0999 V2000
   37.4940   31.2770   48.7450 N   0  0  0  0  0  0  0  0  0  0  0  0
   38.3780   31.5040   49.8800 C   0  0  0  0  0  0  0  0  0  0  0  0
   38.7220   32.9460   49.7080 C   0  0  0  0  0  0  0  0  0  0  0  0
   39.0330   32.9730   48.2220 C   0  0  0  0  0  0  0  0  0  0  0  0
   37.8300   32.2160   47.7100 C   0  0  1  0  0  0  0  0  0  0  0  0
   37.7950   31.3700   50.8060 H   0  0  0  0  0  0  0  0  0  0  0  0
   39.2680   30.8550   49.8320 H   0  0  0  0  0  0  0  0  0  0  0  0
   37.8720   33.5930   49.9280 H   0  0  0  0  0  0  0  0  0  0  0  0
   39.6370   33.1620   50.2880 H   0  0  0  0  0  0  0  0  0  0  0  0
   38.9420   34.0260   47.8760 H   0  0  0  0  0  0  0  0  0  0  0  0
   39.9880   32.5140   47.9790 H   0  0  0  0  0  0  0  0  0  0  0  0
   36.9860   32.9240   47.6700 H   0  0  0  0  0  0  0  0  0  0  0  0
   36.3640   29.1810   49.4730 C   0  0  0  0  0  0  0  0  0  0  0  0
   36.4720   30.3120   48.6400 C   0  0  0  0  0  0  0  0  0  0  0  0
   35.5070   30.4910   47.6420 C   0  0  0  0  0  0  0  0  0  0  0  0
   34.5120   29.5680   47.5230 N   0  0  0  0  0  0  0  0  0  0  0  0
   34.4420   28.4980   48.3380 C   0  0  0  0  0  0  0  0  0  0  0  0
   35.3670   28.2960   49.3200 N   0  0  0  0  0  0  0  0  0  0  0  0
   37.1320   29.0810   50.2320 H   0  0  0  0  0  0  0  0  0  0  0  0
   35.5100   31.3100   46.9730 H   0  0  0  0  0  0  0  0  0  0  0  0
   33.6240   27.7990   48.1910 H   0  0  0  0  0  0  0  0  0  0  0  0
   38.1700   31.6150   46.4230 C   0  0  0  0  0  0  0  0  0  0  0  0
   38.9880   30.5090   46.1410 C   0  0  0  0  0  0  0  0  0  0  0  0
   39.1890   30.1070   44.8490 C   0  0  0  0  0  0  0  0  0  0  0  0
   38.5940   30.7820   43.8730 N   0  0  0  0  0  0  0  0  0  0  0  0
   37.7990   31.8490   44.1000 C   0  0  0  0  0  0  0  0  0  0  0  0
   37.6150   32.2300   45.3840 N   0  0  0  0  0  0  0  0  0  0  0  0
   39.4040   30.0610   47.0330 H   0  0  0  0  0  0  0  0  0  0  0  0
   39.8210   29.2600   44.6840 H   0  0  0  0  0  0  0  0  0  0  0  0
   37.1590   32.5690   42.9820 C   0  0  0  0  0  0  0  0  0  0  0  0
   37.7910   32.5230   41.8970 O   0  0  0  0  0  0  0  0  0  0  0  0
   35.9550   33.2060   43.2380 O   0  0  0  0  0  0  0  0  0  0  0  0
   35.5860   33.7550   42.4650 H   0  0  0  0  0  0  0  0  0  0  0  0
  1  2  1  0  0  0  0
  2  6  1  0  0  0  0
  3  2  1  0  0  0  0
  3  8  1  0  0  0  0
  3  9  1  0  0  0  0
  4  3  1  0  0  0  0
  5 12  1  6  0  0  0
  5  4  1  0  0  0  0
  5  1  1  0  0  0  0
  7  2  1  0  0  0  0
 10  4  1  0  0  0  0
 11  4  1  0  0  0  0
 13 19  1  0  0  0  0
 14  1  1  0  0  0  0
 14 13  2  0  0  0  0
 15 14  1  0  0  0  0
 16 15  2  0  0  0  0
 16 17  1  0  0  0  0
 17 18  2  0  0  0  0
 18 13  1  0  0  0  0
 20 15  1  0  0  0  0
 21 17  1  0  0  0  0
 22  5  1  0  0  0  0
 23 22  1  0  0  0  0
 23 28  1  0  0  0  0
 24 23  2  0  0  0  0
 25 26  2  0  0  0  0
 25 24  1  0  0  0  0
 26 27  1  0  0  0  0
 27 22  2  0  0  0  0
 29 24  1  0  0  0  0
 30 32  1  0  0  0  0
 30 26  1  0  0  0  0
 31 30  2  0  0  0  0
 33 32  1  0  0  0  0
M  END
>  <minimizedAffinity>
-5.61675358

>  <minimizedRMSD>
0.417341202

$$$$
