
 OpenBabel03252513423D

 17 17  0  0  0  0  0  0  0  0999 V2000
   37.5650   30.8710   49.5230 C   0  0  0  0  0  0  0  0  0  0  0  0
   37.6030   32.2350   49.8890 C   0  0  0  0  0  0  0  0  0  0  0  0
   38.1970   33.1280   48.9830 C   0  0  0  0  0  0  0  0  0  0  0  0
   38.6990   32.6350   47.8120 N   0  0  0  0  0  0  0  0  0  0  0  0
   38.6310   31.3340   47.5270 C   0  0  0  0  0  0  0  0  0  0  0  0
   38.0800   30.4570   48.3540 N   0  0  0  0  0  0  0  0  0  0  0  0
   37.2000   32.6160   50.8230 H   0  0  0  0  0  0  0  0  0  0  0  0
   38.2400   34.1890   49.2370 H   0  0  0  0  0  0  0  0  0  0  0  0
   39.1860   30.8690   46.2580 C   0  0  0  0  0  0  0  0  0  0  0  0
   38.4210   30.5700   45.2840 O   0  0  0  0  0  0  0  0  0  0  0  0
   40.5390   30.7220   46.0220 O   0  0  0  0  0  0  0  0  0  0  0  0
   40.8890   31.0050   45.0940 H   0  0  0  0  0  0  0  0  0  0  0  0
   36.9860   29.9870   50.4050 O   0  0  0  0  0  0  0  0  0  0  0  0
   35.6630   29.5630   50.3810 C   0  0  0  0  0  0  0  0  0  0  0  0
   35.1950   29.1390   51.6120 F   0  0  0  0  0  0  0  0  0  0  0  0
   34.8020   30.4650   49.8230 F   0  0  0  0  0  0  0  0  0  0  0  0
   35.6410   28.4420   49.5300 F   0  0  0  0  0  0  0  0  0  0  0  0
  1  2  1  0  0  0  0
  1 13  1  0  0  0  0
  2  7  1  0  0  0  0
  3  8  1  0  0  0  0
  3  2  2  0  0  0  0
  4  3  1  0  0  0  0
  5  4  2  0  0  0  0
  5  6  1  0  0  0  0
  6  1  2  0  0  0  0
  9  5  1  0  0  0  0
 10  9  2  0  0  0  0
 11  9  1  0  0  0  0
 12 11  1  0  0  0  0
 14 13  1  0  0  0  0
 14 15  1  0  0  0  0
 16 14  1  0  0  0  0
 17 14  1  0  0  0  0
M  END
>  <minimizedAffinity>
-5.07547235

>  <minimizedRMSD>
0.775602579

$$$$
