
 OpenBabel03252513183D

 40 42  0  0  1  0  0  0  0  0999 V2000
   37.8910   30.7200   45.6300 N   0  0  0  0  0  0  0  0  0  0  0  0
   39.3190   30.5080   45.7640 C   0  0  0  0  0  0  0  0  0  0  0  0
   39.8040   31.9080   46.0400 C   0  0  0  0  0  0  0  0  0  0  0  0
   38.7690   32.3730   47.0690 C   0  0  0  0  0  0  0  0  0  0  0  0
   37.6370   31.4830   46.8200 C   0  0  2  0  0  0  0  0  0  0  0  0
   39.5060   29.8310   46.6150 H   0  0  0  0  0  0  0  0  0  0  0  0
   39.7770   30.0690   44.8600 H   0  0  0  0  0  0  0  0  0  0  0  0
   40.8320   31.9140   46.4650 H   0  0  0  0  0  0  0  0  0  0  0  0
   39.7630   32.4530   45.0990 H   0  0  0  0  0  0  0  0  0  0  0  0
   39.2460   32.5350   47.9970 H   0  0  0  0  0  0  0  0  0  0  0  0
   38.5090   33.4170   46.7070 H   0  0  0  0  0  0  0  0  0  0  0  0
   36.7120   32.0660   46.5390 H   0  0  0  0  0  0  0  0  0  0  0  0
   37.2360   30.7590   47.9600 N   0  0  1  0  0  0  0  0  0  0  0  0
   38.3100   30.6110   48.8620 C   0  0  0  0  0  0  0  0  0  0  0  0
   37.8280   29.8440   50.0850 C   0  0  0  0  0  0  0  0  0  0  0  0
   36.8470   30.7700   50.7710 C   0  0  0  0  0  0  0  0  0  0  0  0
   35.6960   31.0560   49.8690 C   0  0  0  0  0  0  0  0  0  0  0  0
   35.9180   30.7930   48.4230 C   0  0  2  0  0  0  0  0  0  0  0  0
   38.9960   29.8230   48.4580 H   0  0  0  0  0  0  0  0  0  0  0  0
   38.7860   31.5020   49.2620 H   0  0  0  0  0  0  0  0  0  0  0  0
   37.3990   28.8910   49.7800 H   0  0  0  0  0  0  0  0  0  0  0  0
   38.6650   29.6540   50.7940 H   0  0  0  0  0  0  0  0  0  0  0  0
   36.5120   30.3720   51.7310 H   0  0  0  0  0  0  0  0  0  0  0  0
   37.4100   31.7160   50.9650 H   0  0  0  0  0  0  0  0  0  0  0  0
   34.8070   30.4820   50.2430 H   0  0  0  0  0  0  0  0  0  0  0  0
   35.3930   32.1310   50.0360 H   0  0  0  0  0  0  0  0  0  0  0  0
   35.2860   31.5210   47.8680 H   0  0  0  0  0  0  0  0  0  0  0  0
   35.3030   29.4570   48.0910 C   0  0  0  0  0  0  0  0  0  0  0  0
   35.2160   28.4750   48.9050 O   0  0  0  0  0  0  0  0  0  0  0  0
   34.7140   28.9320   46.9570 O   0  0  0  0  0  0  0  0  0  0  0  0
   33.7480   28.6240   46.9230 H   0  0  0  0  0  0  0  0  0  0  0  0
   37.0500   30.2700   44.5890 C   0  0  0  0  0  0  0  0  0  0  0  0
   37.5060   29.4940   43.5190 C   0  0  0  0  0  0  0  0  0  0  0  0
   36.5790   29.0960   42.5270 C   0  0  0  0  0  0  0  0  0  0  0  0
   35.2810   29.4910   42.6660 N   0  0  0  0  0  0  0  0  0  0  0  0
   34.8650   30.2420   43.7120 C   0  0  0  0  0  0  0  0  0  0  0  0
   35.7660   30.6150   44.6540 N   0  0  0  0  0  0  0  0  0  0  0  0
   38.5320   29.2210   43.4720 H   0  0  0  0  0  0  0  0  0  0  0  0
   36.9220   28.4970   41.6990 H   0  0  0  0  0  0  0  0  0  0  0  0
   33.8420   30.5510   43.8180 H   0  0  0  0  0  0  0  0  0  0  0  0
  1  2  1  0  0  0  0
  1  5  1  0  0  0  0
  2  3  1  0  0  0  0
  2  6  1  0  0  0  0
  3  8  1  0  0  0  0
  3  4  1  0  0  0  0
  4 10  1  0  0  0  0
  5 12  1  6  0  0  0
  5  4  1  0  0  0  0
  5 13  1  0  0  0  0
  7  2  1  0  0  0  0
  9  3  1  0  0  0  0
 11  4  1  0  0  0  0
 13 18  1  0  0  0  0
 13 14  1  1  0  0  0
 14 20  1  0  0  0  0
 14 15  1  0  0  0  0
 15 16  1  0  0  0  0
 15 22  1  0  0  0  0
 16 24  1  0  0  0  0
 16 23  1  0  0  0  0
 17 26  1  0  0  0  0
 17 25  1  0  0  0  0
 17 16  1  0  0  0  0
 18 27  1  6  0  0  0
 18 17  1  0  0  0  0
 19 14  1  0  0  0  0
 21 15  1  0  0  0  0
 28 18  1  0  0  0  0
 28 29  2  0  0  0  0
 30 28  1  0  0  0  0
 31 30  1  0  0  0  0
 32 37  1  0  0  0  0
 32  1  1  0  0  0  0
 33 32  2  0  0  0  0
 34 35  2  0  0  0  0
 34 33  1  0  0  0  0
 35 36  1  0  0  0  0
 36 40  1  0  0  0  0
 36 37  2  0  0  0  0
 38 33  1  0  0  0  0
 39 34  1  0  0  0  0
M  END
>  <minimizedAffinity>
-4.81827641

>  <minimizedRMSD>
1.87149179

$$$$
