
 OpenBabel03252513023D

 32 34  0  0  0  0  0  0  0  0999 V2000
   38.1710   31.8960   45.8800 N   0  0  0  0  0  0  0  0  0  0  0  0
   39.2990   32.5920   45.8290 C   0  0  0  0  0  0  0  0  0  0  0  0
   39.8110   33.1880   44.7190 C   0  0  0  0  0  0  0  0  0  0  0  0
   39.1390   33.0870   43.5320 C   0  0  0  0  0  0  0  0  0  0  0  0
   39.5450   33.6070   42.4660 O   0  0  0  0  0  0  0  0  0  0  0  0
   38.0140   32.4060   43.5380 N   0  0  0  0  0  0  0  0  0  0  0  0
   37.5410   31.8300   44.6580 C   0  0  0  0  0  0  0  0  0  0  0  0
   36.4510   31.1960   44.5660 O   0  0  0  0  0  0  0  0  0  0  0  0
   39.8430   32.6760   46.7760 H   0  0  0  0  0  0  0  0  0  0  0  0
   40.7420   33.7330   44.7850 H   0  0  0  0  0  0  0  0  0  0  0  0
   37.2820   32.2780   42.3180 C   0  0  0  0  0  0  0  0  0  0  0  0
   36.3500   33.2750   42.0280 C   0  0  0  0  0  0  0  0  0  0  0  0
   35.5930   33.2300   40.8630 C   0  0  0  0  0  0  0  0  0  0  0  0
   35.7620   32.2090   40.0030 N   0  0  0  0  0  0  0  0  0  0  0  0
   36.6670   31.2560   40.2990 C   0  0  0  0  0  0  0  0  0  0  0  0
   36.7730   30.4530   39.5850 H   0  0  0  0  0  0  0  0  0  0  0  0
   37.4140   31.2710   41.4180 N   0  0  0  0  0  0  0  0  0  0  0  0
   37.5620   31.2460   46.9760 C   0  0  0  0  0  0  0  0  0  0  0  0
   37.3790   30.1720   46.6780 H   0  0  0  0  0  0  0  0  0  0  0  0
   36.5190   31.6510   47.1280 H   0  0  0  0  0  0  0  0  0  0  0  0
   38.2420   31.2150   48.2790 C   0  0  0  0  0  0  0  0  0  0  0  0
   39.2200   30.6560   48.2140 H   0  0  0  0  0  0  0  0  0  0  0  0
   38.5330   32.2200   48.6270 H   0  0  0  0  0  0  0  0  0  0  0  0
   35.6810   29.1930   50.1960 C   0  0  0  0  0  0  0  0  0  0  0  0
   36.3530   29.8040   49.1180 C   0  0  0  0  0  0  0  0  0  0  0  0
   37.4840   30.5450   49.3490 C   0  0  0  0  0  0  0  0  0  0  0  0
   37.9040   30.6490   50.6390 N   0  0  0  0  0  0  0  0  0  0  0  0
   37.2780   30.0780   51.6560 C   0  0  0  0  0  0  0  0  0  0  0  0
   36.1740   29.3520   51.4500 N   0  0  0  0  0  0  0  0  0  0  0  0
   34.8160   28.6460   49.8750 H   0  0  0  0  0  0  0  0  0  0  0  0
   36.0160   29.7200   48.0910 H   0  0  0  0  0  0  0  0  0  0  0  0
   37.6130   30.1600   52.6860 H   0  0  0  0  0  0  0  0  0  0  0  0
  1 18  1  0  0  0  0
  2  1  1  0  0  0  0
  2  9  1  0  0  0  0
  3 10  1  0  0  0  0
  3  2  2  0  0  0  0
  4  6  1  0  0  0  0
  4  3  1  0  0  0  0
  5  4  2  0  0  0  0
  6  7  1  0  0  0  0
  7  1  1  0  0  0  0
  8  7  2  0  0  0  0
 11  6  1  0  0  0  0
 12 11  1  0  0  0  0
 13 12  2  0  0  0  0
 14 15  2  0  0  0  0
 14 13  1  0  0  0  0
 15 17  1  0  0  0  0
 16 15  1  0  0  0  0
 17 11  2  0  0  0  0
 18 20  1  0  0  0  0
 18 21  1  0  0  0  0
 19 18  1  0  0  0  0
 21 23  1  0  0  0  0
 21 26  1  0  0  0  0
 22 21  1  0  0  0  0
 24 29  1  0  0  0  0
 25 26  1  0  0  0  0
 25 24  2  0  0  0  0
 26 27  2  0  0  0  0
 27 28  1  0  0  0  0
 28 32  1  0  0  0  0
 29 28  2  0  0  0  0
 30 24  1  0  0  0  0
 31 25  1  0  0  0  0
M  END
>  <minimizedAffinity>
-5.20776224

>  <minimizedRMSD>
1.3170085

$$$$
