
 OpenBabel03252512153D

 35 38  0  0  0  0  0  0  0  0999 V2000
   32.3170   30.0520   46.1120 C   0  0  0  0  0  0  0  0  0  0  0  0
   31.9760   28.7040   46.1360 C   0  0  0  0  0  0  0  0  0  0  0  0
   32.8970   27.8140   46.7240 C   0  0  0  0  0  0  0  0  0  0  0  0
   34.0580   28.2900   47.2360 N   0  0  0  0  0  0  0  0  0  0  0  0
   34.3460   29.6250   47.1890 C   0  0  0  0  0  0  0  0  0  0  0  0
   33.4850   30.4870   46.6330 N   0  0  0  0  0  0  0  0  0  0  0  0
   31.5920   30.7140   45.6550 H   0  0  0  0  0  0  0  0  0  0  0  0
   31.0570   28.2880   45.7360 H   0  0  0  0  0  0  0  0  0  0  0  0
   35.6060   30.0470   47.7580 C   0  0  0  0  0  0  0  0  0  0  0  0
   36.6290   30.6370   47.0290 C   0  0  0  0  0  0  0  0  0  0  0  0
   37.6640   30.9150   47.8320 N   0  0  0  0  0  0  0  0  0  0  0  0
   37.3330   30.5120   49.0920 C   0  0  0  0  0  0  0  0  0  0  0  0
   38.0450   30.5680   50.2910 C   0  0  0  0  0  0  0  0  0  0  0  0
   37.4280   30.0670   51.4360 C   0  0  0  0  0  0  0  0  0  0  0  0
   36.1670   29.5400   51.3670 C   0  0  0  0  0  0  0  0  0  0  0  0
   35.4480   29.4800   50.1690 C   0  0  0  0  0  0  0  0  0  0  0  0
   36.0660   29.9770   49.0440 C   0  0  0  0  0  0  0  0  0  0  0  0
   36.6460   30.8640   45.9650 H   0  0  0  0  0  0  0  0  0  0  0  0
   38.5780   31.3580   47.5840 H   0  0  0  0  0  0  0  0  0  0  0  0
   39.0330   30.9980   50.2670 H   0  0  0  0  0  0  0  0  0  0  0  0
   38.0020   30.1240   52.3510 H   0  0  0  0  0  0  0  0  0  0  0  0
   35.7160   29.1590   52.2730 H   0  0  0  0  0  0  0  0  0  0  0  0
   34.4500   29.0560   50.1490 H   0  0  0  0  0  0  0  0  0  0  0  0
   32.5940   26.3870   46.7780 C   0  0  0  0  0  0  0  0  0  0  0  0
   33.4890   25.5290   47.3570 C   0  0  0  0  0  0  0  0  0  0  0  0
   33.1320   24.2060   47.3680 C   0  0  0  0  0  0  0  0  0  0  0  0
   31.9570   23.7650   46.8360 N   0  0  0  0  0  0  0  0  0  0  0  0
   31.0890   24.6340   46.2690 C   0  0  0  0  0  0  0  0  0  0  0  0
   31.4370   25.9470   46.2550 N   0  0  0  0  0  0  0  0  0  0  0  0
   34.4270   25.8360   47.7890 H   0  0  0  0  0  0  0  0  0  0  0  0
   33.7920   23.4670   47.8100 H   0  0  0  0  0  0  0  0  0  0  0  0
   29.8190   24.2820   45.6750 C   0  0  0  0  0  0  0  0  0  0  0  0
   29.6250   23.3970   44.8350 O   0  0  0  0  0  0  0  0  0  0  0  0
   28.6840   25.0010   46.0750 O   0  0  0  0  0  0  0  0  0  0  0  0
   27.9090   25.0880   45.4100 H   0  0  0  0  0  0  0  0  0  0  0  0
  1  2  2  0  0  0  0
  1  6  1  0  0  0  0
  2  3  1  0  0  0  0
  3 24  1  0  0  0  0
  3  4  2  0  0  0  0
  5  4  1  0  0  0  0
  5  9  1  0  0  0  0
  6  5  2  0  0  0  0
  7  1  1  0  0  0  0
  8  2  1  0  0  0  0
  9 17  1  0  0  0  0
 10  9  2  0  0  0  0
 10 11  1  0  0  0  0
 11 12  1  0  0  0  0
 12 13  1  0  0  0  0
 13 14  2  0  0  0  0
 14 21  1  0  0  0  0
 15 14  1  0  0  0  0
 15 22  1  0  0  0  0
 16 15  2  0  0  0  0
 17 12  2  0  0  0  0
 17 16  1  0  0  0  0
 18 10  1  0  0  0  0
 19 11  1  0  0  0  0
 20 13  1  0  0  0  0
 23 16  1  0  0  0  0
 24 25  1  0  0  0  0
 25 26  2  0  0  0  0
 25 30  1  0  0  0  0
 26 31  1  0  0  0  0
 27 26  1  0  0  0  0
 28 27  2  0  0  0  0
 29 28  1  0  0  0  0
 29 24  2  0  0  0  0
 32 34  1  0  0  0  0
 32 28  1  0  0  0  0
 33 32  2  0  0  0  0
 35 34  1  0  0  0  0
M  END
>  <minimizedAffinity>
-5.84061527

>  <minimizedRMSD>
0.36863032

$$$$
