
 OpenBabel03252514073D

 46 50  0  0  0  0  0  0  0  0999 V2000
   32.7050   26.2900   46.9540 C   0  0  0  0  0  0  0  0  0  0  0  0
   34.6200   29.4240   47.1390 C   0  0  0  0  0  0  0  0  0  0  0  0
   35.2160   29.3760   48.4130 C   0  0  0  0  0  0  0  0  0  0  0  0
   34.9390   28.2470   49.1960 C   0  0  0  0  0  0  0  0  0  0  0  0
   34.1300   27.2970   48.6740 N   0  0  0  0  0  0  0  0  0  0  0  0
   33.5780   27.3660   47.4610 C   0  0  0  0  0  0  0  0  0  0  0  0
   33.8250   28.4280   46.7000 N   0  0  0  0  0  0  0  0  0  0  0  0
   34.7710   30.2600   46.4490 H   0  0  0  0  0  0  0  0  0  0  0  0
   35.3960   28.2150   50.1690 H   0  0  0  0  0  0  0  0  0  0  0  0
   36.0420   30.4630   48.8080 N   0  0  0  0  0  0  0  0  0  0  0  0
   35.8610   31.1790   49.9420 C   0  0  0  0  0  0  0  0  0  0  0  0
   36.8170   32.1320   50.0120 N   0  0  0  0  0  0  0  0  0  0  0  0
   37.5780   31.9930   48.9200 C   0  0  0  0  0  0  0  0  0  0  0  0
   38.6910   32.6640   48.4390 C   0  0  0  0  0  0  0  0  0  0  0  0
   39.2700   32.3130   47.2950 N   0  0  0  0  0  0  0  0  0  0  0  0
   38.8050   31.2760   46.5270 C   0  0  0  0  0  0  0  0  0  0  0  0
   37.7230   30.6360   47.0110 N   0  0  0  0  0  0  0  0  0  0  0  0
   37.1090   30.9490   48.1490 C   0  0  0  0  0  0  0  0  0  0  0  0
   35.0610   30.9890   50.6610 H   0  0  0  0  0  0  0  0  0  0  0  0
   39.2660   30.9790   45.5930 H   0  0  0  0  0  0  0  0  0  0  0  0
   39.2280   33.7410   49.1700 N   0  0  0  0  0  0  0  0  0  0  0  0
   39.2980   34.6150   48.6040 H   0  0  0  0  0  0  0  0  0  0  0  0
   39.4880   33.5360   50.1750 H   0  0  0  0  0  0  0  0  0  0  0  0
   31.6000   25.9830   47.9810 C   0  0  0  0  0  0  0  0  0  0  0  0
   30.7650   25.4340   47.5360 H   0  0  0  0  0  0  0  0  0  0  0  0
   32.0360   25.3910   48.8130 H   0  0  0  0  0  0  0  0  0  0  0  0
   31.2240   26.9440   48.3900 H   0  0  0  0  0  0  0  0  0  0  0  0
   31.9130   26.8020   45.7310 C   0  0  0  0  0  0  0  0  0  0  0  0
   31.3080   27.6770   46.0020 H   0  0  0  0  0  0  0  0  0  0  0  0
   32.6060   27.0190   44.8960 H   0  0  0  0  0  0  0  0  0  0  0  0
   31.2820   25.9430   45.4190 H   0  0  0  0  0  0  0  0  0  0  0  0
   33.3990   25.0660   46.4980 C   0  0  0  0  0  0  0  0  0  0  0  0
   34.5080   25.2340   46.6770 H   0  0  0  0  0  0  0  0  0  0  0  0
   33.3510   25.0790   45.3640 H   0  0  0  0  0  0  0  0  0  0  0  0
   32.9740   23.8130   47.0300 N   0  0  0  0  0  0  0  0  0  0  0  0
   33.7280   23.2460   48.0180 C   0  0  0  0  0  3  0  0  0  0  0  0
   33.2080   22.0550   48.4020 N   0  0  0  0  0  0  0  0  0  0  0  0
   32.1200   21.8280   47.6820 C   0  0  0  0  0  0  0  0  0  0  0  0
   31.1790   20.8220   47.6180 C   0  0  0  0  0  0  0  0  0  0  0  0
   30.1660   20.9610   46.7230 N   0  0  0  0  0  0  0  0  0  0  0  0
   30.0710   22.0440   45.9180 C   0  0  0  0  0  3  0  0  0  0  0  0
   30.9800   23.0350   45.9670 N   0  0  0  0  0  0  0  0  0  0  0  0
   31.9910   22.9170   46.8460 C   0  0  0  0  0  0  0  0  0  0  0  0
   31.2950   19.6930   48.4680 N   0  0  0  0  0  0  0  0  0  0  0  0
   31.1040   19.8860   49.4740 H   0  0  0  0  0  0  0  0  0  0  0  0
   31.5620   18.9060   47.8100 H   0  0  0  0  0  0  0  0  0  0  0  0
  1  6  1  0  0  0  0
  1 24  1  0  0  0  0
  2  3  1  0  0  0  0
  3 10  1  0  0  0  0
  3  4  2  0  0  0  0
  4  9  1  0  0  0  0
  5  4  1  0  0  0  0
  6  5  2  0  0  0  0
  7  2  2  0  0  0  0
  7  6  1  0  0  0  0
  8  2  1  0  0  0  0
 10 11  1  0  0  0  0
 11 12  2  0  0  0  0
 11 19  1  0  0  0  0
 13 12  1  0  0  0  0
 14 13  1  0  0  0  0
 14 21  1  0  0  0  0
 15 14  2  0  0  0  0
 16 17  2  0  0  0  0
 16 15  1  0  0  0  0
 17 18  1  0  0  0  0
 18 10  1  0  0  0  0
 18 13  2  0  0  0  0
 20 16  1  0  0  0  0
 21 23  1  0  0  0  0
 22 21  1  0  0  0  0
 24 27  1  0  0  0  0
 24 26  1  0  0  0  0
 25 24  1  0  0  0  0
 28 29  1  0  0  0  0
 28  1  1  0  0  0  0
 30 28  1  0  0  0  0
 31 28  1  0  0  0  0
 32 33  1  0  0  0  0
 32  1  1  0  0  0  0
 32 35  1  0  0  0  0
 34 32  1  0  0  0  0
 35 36  1  0  0  0  0
 36 37  2  0  0  0  0
 38 37  1  0  0  0  0
 39 38  1  0  0  0  0
 39 44  1  0  0  0  0
 40 39  2  0  0  0  0
 41 42  2  0  0  0  0
 41 40  1  0  0  0  0
 42 43  1  0  0  0  0
 43 35  1  0  0  0  0
 43 38  2  0  0  0  0
 44 45  1  0  0  0  0
 46 44  1  0  0  0  0
M  END
>  <minimizedAffinity>
-5.8969965

>  <minimizedRMSD>
2.70369887

$$$$
