
 OpenBabel03252513113D

 32 34  0  0  0  0  0  0  0  0999 V2000
   36.8550   30.5650   47.2280 C   0  0  0  0  0  0  0  0  0  0  0  0
   35.7530   30.2710   46.4020 C   0  0  0  0  0  0  0  0  0  0  0  0
   34.6010   29.6740   46.8180 C   0  0  0  0  0  0  0  0  0  0  0  0
   34.4450   29.3120   48.1180 C   0  0  0  0  0  0  0  0  0  0  0  0
   35.4610   29.5620   48.9760 C   0  0  0  0  0  0  0  0  0  0  0  0
   35.2920   29.1910   50.2930 C   0  0  0  0  0  0  0  0  0  0  0  0
   36.2720   29.4090   51.2270 C   0  0  0  0  0  0  0  0  0  0  0  0
   37.4400   30.0140   50.8040 C   0  0  0  0  0  0  0  0  0  0  0  0
   37.5620   30.3640   49.4860 C   0  0  0  0  0  0  0  0  0  0  0  0
   36.6270   30.1680   48.5450 C   0  0  0  0  0  0  0  0  0  0  0  0
   35.8420   30.5470   45.3490 H   0  0  0  0  0  0  0  0  0  0  0  0
   33.8090   29.4940   46.0860 H   0  0  0  0  0  0  0  0  0  0  0  0
   34.3630   28.7150   50.6110 H   0  0  0  0  0  0  0  0  0  0  0  0
   36.0910   29.0970   52.2570 H   0  0  0  0  0  0  0  0  0  0  0  0
   38.2100   30.1820   51.5450 H   0  0  0  0  0  0  0  0  0  0  0  0
   38.5060   30.8410   49.1970 H   0  0  0  0  0  0  0  0  0  0  0  0
   39.8700   30.7850   45.3220 C   0  0  0  0  0  0  0  0  0  0  0  0
   40.4620   32.0200   45.6070 C   0  0  0  0  0  0  0  0  0  0  0  0
   39.7790   32.7960   46.4960 C   0  0  0  0  0  0  0  0  0  0  0  0
   38.6470   32.3320   47.0000 N   0  0  0  0  0  0  0  0  0  0  0  0
   38.0630   31.1970   46.7640 C   0  0  0  0  0  0  0  0  0  0  0  0
   38.7270   30.4390   45.8980 N   0  0  0  0  0  0  0  0  0  0  0  0
   40.4280   30.1630   44.6020 H   0  0  0  0  0  0  0  0  0  0  0  0
   41.3920   32.3310   45.1540 H   0  0  0  0  0  0  0  0  0  0  0  0
   40.2720   34.1110   46.8910 C   0  0  0  0  0  0  0  0  0  0  0  0
   40.7010   34.7790   46.1570 H   0  0  0  0  0  0  0  0  0  0  0  0
   40.2370   34.5420   48.0570 O   0  0  0  0  0  0  0  0  0  0  0  0
   33.2690   28.7120   48.5060 O   0  0  0  0  0  0  0  0  0  0  0  0
   32.9200   27.4250   48.0510 C   0  0  0  0  0  0  0  0  0  0  0  0
   33.9430   26.5120   48.1190 F   0  0  0  0  0  0  0  0  0  0  0  0
   31.9200   26.9490   48.8980 F   0  0  0  0  0  0  0  0  0  0  0  0
   32.4530   27.5710   46.7530 F   0  0  0  0  0  0  0  0  0  0  0  0
  1 10  1  0  0  0  0
  2  3  1  0  0  0  0
  2  1  2  0  0  0  0
  3  4  2  0  0  0  0
  4 28  1  0  0  0  0
  4  5  1  0  0  0  0
  5  6  1  0  0  0  0
  6 13  1  0  0  0  0
  6  7  2  0  0  0  0
  7 14  1  0  0  0  0
  8  7  1  0  0  0  0
  8 15  1  0  0  0  0
  9  8  2  0  0  0  0
 10  5  2  0  0  0  0
 10  9  1  0  0  0  0
 11  2  1  0  0  0  0
 12  3  1  0  0  0  0
 16  9  1  0  0  0  0
 17 18  2  0  0  0  0
 17 22  1  0  0  0  0
 18 19  1  0  0  0  0
 19 25  1  0  0  0  0
 19 20  2  0  0  0  0
 21 20  1  0  0  0  0
 21  1  1  0  0  0  0
 22 21  2  0  0  0  0
 23 17  1  0  0  0  0
 24 18  1  0  0  0  0
 25 27  2  0  0  0  0
 26 25  1  0  0  0  0
 29 30  1  0  0  0  0
 29 28  1  0  0  0  0
 29 31  1  0  0  0  0
 32 29  1  0  0  0  0
M  END
>  <minimizedAffinity>
-6.43820429

>  <minimizedRMSD>
0.967011154

$$$$
