
 OpenBabel03252514073D

 46 50  0  0  0  0  0  0  0  0999 V2000
   32.1730   26.9000   46.9690 C   0  0  0  0  0  0  0  0  0  0  0  0
   34.1150   29.9940   47.3930 C   0  0  0  0  0  0  0  0  0  0  0  0
   35.0390   29.6720   48.4060 C   0  0  0  0  0  0  0  0  0  0  0  0
   34.9710   28.3740   48.9310 C   0  0  0  0  0  0  0  0  0  0  0  0
   34.0340   27.5370   48.4310 N   0  0  0  0  0  0  0  0  0  0  0  0
   33.1700   27.8670   47.4700 C   0  0  0  0  0  0  0  0  0  0  0  0
   33.2140   29.0920   46.9550 N   0  0  0  0  0  0  0  0  0  0  0  0
   34.0830   30.9780   46.9160 H   0  0  0  0  0  0  0  0  0  0  0  0
   35.6780   28.1330   49.7050 H   0  0  0  0  0  0  0  0  0  0  0  0
   35.9600   30.6740   48.8160 N   0  0  0  0  0  0  0  0  0  0  0  0
   35.9440   31.2640   50.0340 C   0  0  0  0  0  0  0  0  0  0  0  0
   36.9500   32.1650   50.0950 N   0  0  0  0  0  0  0  0  0  0  0  0
   37.5760   32.1210   48.9130 C   0  0  0  0  0  0  0  0  0  0  0  0
   38.6610   32.7970   48.3800 C   0  0  0  0  0  0  0  0  0  0  0  0
   39.0900   32.5550   47.1450 N   0  0  0  0  0  0  0  0  0  0  0  0
   38.4890   31.6310   46.3290 C   0  0  0  0  0  0  0  0  0  0  0  0
   37.4360   30.9830   46.8640 N   0  0  0  0  0  0  0  0  0  0  0  0
   36.9700   31.1890   48.0940 C   0  0  0  0  0  0  0  0  0  0  0  0
   35.2200   31.0250   50.8170 H   0  0  0  0  0  0  0  0  0  0  0  0
   38.8270   31.4240   45.3220 H   0  0  0  0  0  0  0  0  0  0  0  0
   39.3320   33.7620   49.1550 N   0  0  0  0  0  0  0  0  0  0  0  0
   39.3830   34.6920   48.6820 H   0  0  0  0  0  0  0  0  0  0  0  0
   39.6910   33.4350   50.0950 H   0  0  0  0  0  0  0  0  0  0  0  0
   31.2910   26.4080   48.1320 C   0  0  0  0  0  0  0  0  0  0  0  0
   30.3640   25.9480   47.7780 H   0  0  0  0  0  0  0  0  0  0  0  0
   31.8660   25.6750   48.7350 H   0  0  0  0  0  0  0  0  0  0  0  0
   31.0410   27.2770   48.7750 H   0  0  0  0  0  0  0  0  0  0  0  0
   31.1680   27.6250   46.0490 C   0  0  0  0  0  0  0  0  0  0  0  0
   30.6620   28.4340   46.5920 H   0  0  0  0  0  0  0  0  0  0  0  0
   31.6840   27.9930   45.1410 H   0  0  0  0  0  0  0  0  0  0  0  0
   30.4560   26.8360   45.7260 H   0  0  0  0  0  0  0  0  0  0  0  0
   32.7150   25.7810   46.1680 C   0  0  0  0  0  0  0  0  0  0  0  0
   33.8080   26.0210   45.9710 H   0  0  0  0  0  0  0  0  0  0  0  0
   32.2720   25.8910   45.1300 H   0  0  0  0  0  0  0  0  0  0  0  0
   32.5600   24.4560   46.6700 N   0  0  0  0  0  0  0  0  0  0  0  0
   33.5100   23.9780   47.5290 C   0  0  0  0  0  3  0  0  0  0  0  0
   33.2320   22.7050   47.8990 N   0  0  0  0  0  0  0  0  0  0  0  0
   32.1120   22.3340   47.2970 C   0  0  0  0  0  0  0  0  0  0  0  0
   31.3390   21.1920   47.2820 C   0  0  0  0  0  0  0  0  0  0  0  0
   30.2150   21.2010   46.5210 N   0  0  0  0  0  0  0  0  0  0  0  0
   29.8540   22.2860   45.7970 C   0  0  0  0  0  3  0  0  0  0  0  0
   30.5950   23.4070   45.8000 N   0  0  0  0  0  0  0  0  0  0  0  0
   31.7140   23.4210   46.5480 C   0  0  0  0  0  0  0  0  0  0  0  0
   31.7340   20.0640   48.0460 N   0  0  0  0  0  0  0  0  0  0  0  0
   31.6410   20.1820   49.0760 H   0  0  0  0  0  0  0  0  0  0  0  0
   32.0370   19.3560   47.3150 H   0  0  0  0  0  0  0  0  0  0  0  0
  1  6  1  0  0  0  0
  1 24  1  0  0  0  0
  2  3  1  0  0  0  0
  3 10  1  0  0  0  0
  3  4  2  0  0  0  0
  4  9  1  0  0  0  0
  5  4  1  0  0  0  0
  6  5  2  0  0  0  0
  7  2  2  0  0  0  0
  7  6  1  0  0  0  0
  8  2  1  0  0  0  0
 10 11  1  0  0  0  0
 11 12  2  0  0  0  0
 11 19  1  0  0  0  0
 13 12  1  0  0  0  0
 14 13  1  0  0  0  0
 14 21  1  0  0  0  0
 15 14  2  0  0  0  0
 16 17  2  0  0  0  0
 16 15  1  0  0  0  0
 17 18  1  0  0  0  0
 18 10  1  0  0  0  0
 18 13  2  0  0  0  0
 20 16  1  0  0  0  0
 21 23  1  0  0  0  0
 22 21  1  0  0  0  0
 24 26  1  0  0  0  0
 24 27  1  0  0  0  0
 25 24  1  0  0  0  0
 28 29  1  0  0  0  0
 28  1  1  0  0  0  0
 30 28  1  0  0  0  0
 31 28  1  0  0  0  0
 32 35  1  0  0  0  0
 32  1  1  0  0  0  0
 33 32  1  0  0  0  0
 34 32  1  0  0  0  0
 35 36  1  0  0  0  0
 36 37  2  0  0  0  0
 38 37  1  0  0  0  0
 39 38  1  0  0  0  0
 39 44  1  0  0  0  0
 40 39  2  0  0  0  0
 41 42  2  0  0  0  0
 41 40  1  0  0  0  0
 42 43  1  0  0  0  0
 43 35  1  0  0  0  0
 43 38  2  0  0  0  0
 44 45  1  0  0  0  0
 46 44  1  0  0  0  0
M  END
>  <minimizedAffinity>
-5.77660942

>  <minimizedRMSD>
2.75612044

$$$$
