
 OpenBabel03252514053D

 25 27  0  0  0  0  0  0  0  0999 V2000
   36.7820   31.0520   48.2700 N   0  0  0  0  0  0  0  0  0  0  0  0
   37.1790   31.8550   49.2860 C   0  0  0  0  0  0  0  0  0  0  0  0
   38.1880   32.6530   48.8320 N   0  0  0  0  0  0  0  0  0  0  0  0
   38.3930   32.3280   47.5450 C   0  0  0  0  0  0  0  0  0  0  0  0
   39.2660   32.7880   46.5860 C   0  0  0  0  0  0  0  0  0  0  0  0
   39.2630   32.2740   45.3330 N   0  0  0  0  0  0  0  0  0  0  0  0
   38.4050   31.2940   44.9850 C   0  0  0  0  0  0  0  0  0  0  0  0
   37.5530   30.8460   45.9230 N   0  0  0  0  0  0  0  0  0  0  0  0
   37.5240   31.3310   47.1770 C   0  0  0  0  0  0  0  0  0  0  0  0
   40.1830   33.8090   46.8930 N   0  0  0  0  0  0  0  0  0  0  0  0
   36.7780   31.8780   50.3000 H   0  0  0  0  0  0  0  0  0  0  0  0
   38.3750   30.8590   43.9920 H   0  0  0  0  0  0  0  0  0  0  0  0
   40.8480   33.8470   47.6860 H   0  0  0  0  0  0  0  0  0  0  0  0
   40.3230   34.6970   46.3420 H   0  0  0  0  0  0  0  0  0  0  0  0
   34.6220   30.2220   47.5390 C   0  0  0  0  0  0  0  0  0  0  0  0
   35.7510   30.0910   48.3770 C   0  0  0  0  0  0  0  0  0  0  0  0
   35.7550   29.0070   49.2570 C   0  0  0  0  0  0  0  0  0  0  0  0
   34.6880   28.1470   49.2610 N   0  0  0  0  0  0  0  0  0  0  0  0
   33.6420   28.3120   48.4470 C   0  0  0  0  0  0  0  0  0  0  0  0
   33.6060   29.3390   47.5930 N   0  0  0  0  0  0  0  0  0  0  0  0
   34.5860   31.0570   46.8400 H   0  0  0  0  0  0  0  0  0  0  0  0
   36.6190   28.9190   49.8910 H   0  0  0  0  0  0  0  0  0  0  0  0
   32.5340   27.3700   48.4910 C   0  0  0  0  0  0  0  0  0  0  0  0
   32.0700   27.1060   49.4410 H   0  0  0  0  0  0  0  0  0  0  0  0
   32.0810   26.8340   47.4510 O   0  0  0  0  0  0  0  0  0  0  0  0
  1 16  1  0  0  0  0
  1  2  1  0  0  0  0
  2 11  1  0  0  0  0
  3  2  2  0  0  0  0
  4  3  1  0  0  0  0
  5 10  1  0  0  0  0
  5  4  2  0  0  0  0
  6  5  1  0  0  0  0
  7  6  2  0  0  0  0
  7  8  1  0  0  0  0
  8  9  2  0  0  0  0
  9  4  1  0  0  0  0
  9  1  1  0  0  0  0
 10 13  1  0  0  0  0
 12  7  1  0  0  0  0
 14 10  1  0  0  0  0
 15 20  2  0  0  0  0
 15 16  1  0  0  0  0
 16 17  2  0  0  0  0
 17 18  1  0  0  0  0
 17 22  1  0  0  0  0
 19 23  1  0  0  0  0
 19 18  2  0  0  0  0
 20 19  1  0  0  0  0
 21 15  1  0  0  0  0
 23 24  1  0  0  0  0
 25 23  2  0  0  0  0
M  END
>  <minimizedAffinity>
-4.99864483

>  <minimizedRMSD>
2.34389758

$$$$
