
 OpenBabel03252512503D

 17 18  0  0  0  0  0  0  0  0999 V2000
   37.2770   29.9920   51.1960 C   0  0  0  0  0  0  0  0  0  0  0  0
   38.0360   30.9270   50.4920 C   0  0  0  0  0  0  0  0  0  0  0  0
   37.8790   30.9660   49.1090 C   0  0  0  0  0  0  0  0  0  0  0  0
   37.0050   30.1010   48.5390 N   0  0  0  0  0  0  0  0  0  0  0  0
   36.2840   29.2080   49.2510 C   0  0  0  0  0  0  0  0  0  0  0  0
   36.4220   29.1530   50.5900 N   0  0  0  0  0  0  0  0  0  0  0  0
   37.4560   30.0230   52.2690 H   0  0  0  0  0  0  0  0  0  0  0  0
   38.7310   31.6160   50.9330 H   0  0  0  0  0  0  0  0  0  0  0  0
   35.5930   28.5290   48.7630 H   0  0  0  0  0  0  0  0  0  0  0  0
   38.6200   31.9010   48.2700 C   0  0  0  0  0  0  0  0  0  0  0  0
   39.0540   33.1580   48.4500 N   0  0  0  0  0  0  0  0  0  0  0  0
   39.6760   33.5840   47.4060 O   0  0  0  0  0  0  0  0  0  0  0  0
   39.6700   32.6310   46.5190 C   0  0  0  0  0  0  0  0  0  0  0  0
   39.0150   31.5480   47.0170 N   0  0  0  0  0  0  0  0  0  0  0  0
   40.2700   32.7010   45.1900 C   0  0  0  0  0  0  0  0  0  0  0  0
   40.8270   31.8980   44.7590 H   0  0  0  0  0  0  0  0  0  0  0  0
   40.1120   33.7680   44.5380 O   0  0  0  0  0  0  0  0  0  0  0  0
  1  7  1  0  0  0  0
  2  8  1  0  0  0  0
  2  1  2  0  0  0  0
  3  2  1  0  0  0  0
  4  3  2  0  0  0  0
  4  5  1  0  0  0  0
  5  6  2  0  0  0  0
  6  1  1  0  0  0  0
  9  5  1  0  0  0  0
 10 11  2  0  0  0  0
 10  3  1  0  0  0  0
 12 11  1  0  0  0  0
 13 14  2  0  0  0  0
 13 12  1  0  0  0  0
 14 10  1  0  0  0  0
 15 13  1  0  0  0  0
 16 15  1  0  0  0  0
 17 15  2  0  0  0  0
M  END
>  <minimizedAffinity>
-4.61563969

>  <minimizedRMSD>
0.830416083

$$$$
