
 OpenBabel03252514033D

 32 34  0  0  1  0  0  0  0  0999 V2000
   35.2500   29.4240   48.9820 C   0  0  2  0  0  0  0  0  0  0  0  0
   34.1310   29.3220   49.9120 C   0  0  0  0  0  0  0  0  0  0  0  0
   34.5110   28.0810   49.3030 C   0  0  1  0  0  0  0  0  0  0  0  0
   35.1520   29.8250   47.9750 H   0  0  0  0  0  0  0  0  0  0  0  0
   33.1850   29.8470   49.6010 H   0  0  0  0  0  0  0  0  0  0  0  0
   34.3410   29.5710   50.9900 H   0  0  0  0  0  0  0  0  0  0  0  0
   35.1740   27.3300   49.7270 H   0  0  0  0  0  0  0  0  0  0  0  0
   36.6570   29.4140   49.5980 C   0  0  0  0  0  0  0  0  0  0  0  0
   36.5610   29.3070   50.6940 H   0  0  0  0  0  0  0  0  0  0  0  0
   37.1320   28.4830   49.1850 H   0  0  0  0  0  0  0  0  0  0  0  0
   37.8930   32.8480   49.4520 C   0  0  0  0  0  0  0  0  0  0  0  0
   38.6720   32.8460   48.2770 C   0  0  0  0  0  0  0  0  0  0  0  0
   38.7540   31.6360   47.5480 C   0  0  0  0  0  0  0  0  0  0  0  0
   38.0760   30.5450   48.0250 N   0  0  0  0  0  0  0  0  0  0  0  0
   37.3480   30.6130   49.1560 C   0  0  0  0  0  0  0  0  0  0  0  0
   37.2710   31.7660   49.8520 N   0  0  0  0  0  0  0  0  0  0  0  0
   37.8570   33.7900   49.9790 H   0  0  0  0  0  0  0  0  0  0  0  0
   39.2150   33.6780   47.8740 H   0  0  0  0  0  0  0  0  0  0  0  0
   39.3060   31.4910   46.6410 H   0  0  0  0  0  0  0  0  0  0  0  0
   33.5760   27.5730   48.2220 C   0  0  0  0  0  0  0  0  0  0  0  0
   33.9340   26.4300   47.7360 O   0  0  0  0  0  0  0  0  0  0  0  0
   32.4290   28.2050   47.7530 O   0  0  0  0  0  0  0  0  0  0  0  0
   31.1610   27.8430   48.1160 C   0  0  0  0  0  0  0  0  0  0  0  0
   30.6840   27.6850   49.5100 C   0  0  0  0  0  0  0  0  0  0  0  0
   29.3980   27.3220   49.7030 C   0  0  0  0  0  0  0  0  0  0  0  0
   28.5220   27.0970   48.6220 C   0  0  0  0  0  0  0  0  0  0  0  0
   29.5940   27.4210   47.1390 S   0  0  0  0  0  0  0  0  0  0  0  0
   31.3970   27.8710   50.2890 H   0  0  0  0  0  0  0  0  0  0  0  0
   28.9760   27.1850   50.6840 H   0  0  0  0  0  0  0  0  0  0  0  0
   27.1830   26.7250   48.5000 C   0  0  0  0  0  0  0  0  0  0  0  0
   27.0330   25.6550   48.5060 H   0  0  0  0  0  0  0  0  0  0  0  0
   26.3660   27.6770   48.4030 O   0  0  0  0  0  0  0  0  0  0  0  0
  1  4  1  6  0  0  0
  1  3  1  0  0  0  0
  1  8  1  0  0  0  0
  1  2  1  0  0  0  0
  2  6  1  0  0  0  0
  3  7  1  1  0  0  0
  3  2  1  0  0  0  0
  5  2  1  0  0  0  0
  8  9  1  0  0  0  0
 10  8  1  0  0  0  0
 11 16  1  0  0  0  0
 11 17  1  0  0  0  0
 12 11  2  0  0  0  0
 13 14  2  0  0  0  0
 13 12  1  0  0  0  0
 14 15  1  0  0  0  0
 15  8  1  0  0  0  0
 15 16  2  0  0  0  0
 18 12  1  0  0  0  0
 19 13  1  0  0  0  0
 20  3  1  0  0  0  0
 21 20  2  0  0  0  0
 22 23  1  0  0  0  0
 22 20  1  0  0  0  0
 23 24  2  0  0  0  0
 24 25  1  0  0  0  0
 24 28  1  0  0  0  0
 25 29  1  0  0  0  0
 26 25  2  0  0  0  0
 27 23  1  0  0  0  0
 27 26  1  0  0  0  0
 30 31  1  0  0  0  0
 30 26  1  0  0  0  0
 32 30  2  0  0  0  0
M  END
>  <minimizedAffinity>
-5.55422163

>  <minimizedRMSD>
0.199880183

$$$$
