
 OpenBabel03252514063D

 25 27  0  0  0  0  0  0  0  0999 V2000
   37.7750   31.3200   45.9700 N   0  0  0  0  0  0  0  0  0  0  0  0
   38.5020   32.4620   46.0280 C   0  0  0  0  0  0  0  0  0  0  0  0
   38.9460   32.7510   44.7710 N   0  0  0  0  0  0  0  0  0  0  0  0
   38.4860   31.7810   43.9630 C   0  0  0  0  0  0  0  0  0  0  0  0
   38.6100   31.5440   42.6130 C   0  0  0  0  0  0  0  0  0  0  0  0
   38.0300   30.4640   42.0370 N   0  0  0  0  0  0  0  0  0  0  0  0
   37.3130   29.5860   42.7670 C   0  0  0  0  0  0  0  0  0  0  0  0
   37.1930   29.8200   44.0850 N   0  0  0  0  0  0  0  0  0  0  0  0
   37.7530   30.8800   44.6950 C   0  0  0  0  0  0  0  0  0  0  0  0
   39.3470   32.4260   41.8020 N   0  0  0  0  0  0  0  0  0  0  0  0
   38.7090   33.0650   46.9130 H   0  0  0  0  0  0  0  0  0  0  0  0
   36.8360   28.7110   42.3390 H   0  0  0  0  0  0  0  0  0  0  0  0
   40.3120   32.7670   41.9510 H   0  0  0  0  0  0  0  0  0  0  0  0
   39.0060   32.8700   40.9080 H   0  0  0  0  0  0  0  0  0  0  0  0
   35.7780   30.4210   47.0140 C   0  0  0  0  0  0  0  0  0  0  0  0
   37.1560   30.7190   47.0900 C   0  0  0  0  0  0  0  0  0  0  0  0
   37.8030   30.3930   48.2840 C   0  0  0  0  0  0  0  0  0  0  0  0
   37.0830   29.8130   49.2940 N   0  0  0  0  0  0  0  0  0  0  0  0
   35.7790   29.5480   49.1760 C   0  0  0  0  0  0  0  0  0  0  0  0
   35.1300   29.8480   48.0470 N   0  0  0  0  0  0  0  0  0  0  0  0
   35.2420   30.6620   46.0960 H   0  0  0  0  0  0  0  0  0  0  0  0
   38.8510   30.6260   48.3300 H   0  0  0  0  0  0  0  0  0  0  0  0
   35.0610   28.9310   50.2800 C   0  0  0  0  0  0  0  0  0  0  0  0
   34.2630   28.2140   50.0880 H   0  0  0  0  0  0  0  0  0  0  0  0
   35.3330   29.1990   51.4760 O   0  0  0  0  0  0  0  0  0  0  0  0
  1  2  1  0  0  0  0
  1 16  1  0  0  0  0
  2 11  1  0  0  0  0
  3  2  2  0  0  0  0
  4  9  1  0  0  0  0
  4  3  1  0  0  0  0
  5  4  2  0  0  0  0
  6  5  1  0  0  0  0
  6  7  2  0  0  0  0
  7  8  1  0  0  0  0
  8  9  2  0  0  0  0
  9  1  1  0  0  0  0
 10 13  1  0  0  0  0
 10  5  1  0  0  0  0
 12  7  1  0  0  0  0
 14 10  1  0  0  0  0
 15 16  2  0  0  0  0
 15 20  1  0  0  0  0
 16 17  1  0  0  0  0
 17 22  1  0  0  0  0
 17 18  2  0  0  0  0
 19 18  1  0  0  0  0
 19 23  1  0  0  0  0
 20 19  2  0  0  0  0
 21 15  1  0  0  0  0
 23 25  2  0  0  0  0
 24 23  1  0  0  0  0
M  END
>  <minimizedAffinity>
-4.34270716

>  <minimizedRMSD>
3.12932634

$$$$
