
 OpenBabel03252510143D

 12 12  0  0  0  0  0  0  0  0999 V2000
   37.8160   30.7530   50.5860 C   0  0  0  0  0  0  0  0  0  0  0  0
   37.5520   31.5650   49.4660 C   0  0  0  0  0  0  0  0  0  0  0  0
   36.7020   31.0520   48.4860 C   0  0  0  0  0  0  0  0  0  0  0  0
   36.1790   29.8070   48.6670 N   0  0  0  0  0  0  0  0  0  0  0  0
   36.4570   29.0640   49.7520 C   0  0  0  0  0  0  0  0  0  0  0  0
   37.2800   29.5370   50.7200 N   0  0  0  0  0  0  0  0  0  0  0  0
   38.4660   31.1340   51.3450 H   0  0  0  0  0  0  0  0  0  0  0  0
   36.4880   31.6480   47.6330 H   0  0  0  0  0  0  0  0  0  0  0  0
   35.9300   28.1120   49.6790 H   0  0  0  0  0  0  0  0  0  0  0  0
   38.1450   32.9080   49.3190 C   0  0  0  0  0  0  0  0  0  0  0  0
   37.8000   33.6540   50.0160 H   0  0  0  0  0  0  0  0  0  0  0  0
   38.9910   33.0840   48.4070 O   0  0  0  0  0  0  0  0  0  0  0  0
  1  6  1  0  0  0  0
  1  7  1  0  0  0  0
  2  1  2  0  0  0  0
  3  4  2  0  0  0  0
  3  2  1  0  0  0  0
  4  5  1  0  0  0  0
  5  6  2  0  0  0  0
  8  3  1  0  0  0  0
  9  5  1  0  0  0  0
 10  2  1  0  0  0  0
 10 11  1  0  0  0  0
 12 10  2  0  0  0  0
M  END
>  <minimizedAffinity>
-3.23137546

>  <minimizedRMSD>
1.367558

$$$$
