ligand
  PyMOL2.5          3D                             0

 21 22  0  0  0  0  0  0  0  0999 V2000
   41.2619   73.5814   56.2694 H   0  0  0  0  0  0  0  0  0  0  0  0
   40.6035   72.0691   56.8210 H   0  0  0  0  0  0  0  0  0  0  0  0
   44.7048   71.4118   56.8831 H   0  0  0  0  0  0  0  0  0  0  0  0
   41.3569   71.7906   54.3665 H   0  0  0  0  0  0  0  0  0  0  0  0
   43.1573   72.0681   59.4830 H   0  0  0  0  0  0  0  0  0  0  0  0
   41.9524   71.9122   55.1731 N   0  0  0  0  0  0  0  0  0  0  0  0
   41.5067   72.5301   56.4212 C   0  0  0  0  0  0  0  0  0  0  0  0
   42.7249   72.3767   57.3633 C   0  0  0  0  0  0  0  0  0  0  0  0
   43.6333   71.3227   56.7043 C   0  0  0  0  0  0  0  0  0  0  0  0
   43.3597   71.4863   55.2163 C   0  0  0  0  0  0  0  0  0  0  0  0
   43.1820   69.9687   57.2769 C   0  0  0  0  0  0  0  0  0  0  0  0
   42.3661   70.2967   58.5229 C   0  0  0  0  0  0  0  0  0  0  0  0
   42.4093   71.7894   58.7407 C   0  0  0  0  0  0  0  0  0  0  0  0
   43.2335   73.3314   57.4821 H   0  0  0  0  0  0  0  0  0  0  0  0
   44.0114   72.2179   54.7401 H   0  0  0  0  0  0  0  0  0  0  0  0
   43.5564   70.5414   54.7169 H   0  0  0  0  0  0  0  0  0  0  0  0
   42.5872   69.4214   56.5474 H   0  0  0  0  0  0  0  0  0  0  0  0
   44.0254   69.3142   57.4942 H   0  0  0  0  0  0  0  0  0  0  0  0
   42.7521   69.7692   59.3940 H   0  0  0  0  0  0  0  0  0  0  0  0
   41.3414   69.9377   58.4272 H   0  0  0  0  0  0  0  0  0  0  0  0
   41.4696   72.1704   59.1369 H   0  0  0  0  0  0  0  0  0  0  0  0
  3  9  1  0  0  0  0
  4  6  1  0  0  0  0
  5 13  1  0  0  0  0
  6  7  1  0  0  0  0
  6 10  1  0  0  0  0
  1  7  1  0  0  0  0
  2  7  1  0  0  0  0
  7  8  1  0  0  0  0
  8  9  1  0  0  0  0
  8 13  1  0  0  0  0
  8 14  1  0  0  0  0
  9 10  1  0  0  0  0
  9 11  1  0  0  0  0
 10 15  1  0  0  0  0
 10 16  1  0  0  0  0
 11 12  1  0  0  0  0
 11 17  1  0  0  0  0
 11 18  1  0  0  0  0
 12 13  1  0  0  0  0
 12 19  1  0  0  0  0
 12 20  1  0  0  0  0
 13 21  1  0  0  0  0
M  END
>  <pdb_header>
CRYST1   81.561   97.031  102.599  90.00  90.00  90.00               1

$$$$
