
     RDKit          3D

 25 27  0  0  1  0  0  0  0  0999 V2000
   38.5910   24.0650   34.3750 C   0  0  0  0  0  0  0  0  0  0  0  0
   38.8550   25.3040   33.8020 C   0  0  0  0  0  0  0  0  0  0  0  0
   38.6460   25.0840   32.4720 N   0  0  0  0  0  0  0  0  0  0  0  0
   38.2920   23.8230   32.3070 C   0  0  0  0  0  0  0  0  0  0  0  0
   38.2450   23.1520   33.4690 N   0  0  0  0  0  0  0  0  0  0  0  0
   38.6750   23.7740   35.8070 C   0  0  0  0  0  0  0  0  0  0  0  0
   39.7820   23.0850   36.3210 C   0  0  0  0  0  0  0  0  0  0  0  0
   39.8200   22.8260   37.7070 C   0  0  0  0  0  0  0  0  0  0  0  0
   38.7780   23.2630   38.4520 N   0  0  0  0  0  0  0  0  0  0  0  0
   37.7280   23.9230   37.9270 C   0  0  0  0  0  0  0  0  0  0  0  0
   37.6730   24.1810   36.6030 N   0  0  0  0  0  0  0  0  0  0  0  0
   37.8870   21.7600   33.5780 C   0  0  1  0  0  0  0  0  0  0  0  0
   36.6470   21.3160   34.1900 C   0  0  0  0  0  0  0  0  0  0  0  0
   36.7350   21.3620   32.6880 C   0  0  1  0  0  0  0  0  0  0  0  0
   35.7020   22.6170   31.9110 S   0  0  0  0  0  0  0  0  0  0  0  0
   39.1589   26.2362   34.3006 H   0  0  0  0  0  0  0  0  0  0  0  0
   38.0619   23.3736   31.3297 H   0  0  0  0  0  0  0  0  0  0  0  0
   40.5986   22.7554   35.6618 H   0  0  0  0  0  0  0  0  0  0  0  0
   40.6641   22.2894   38.1648 H   0  0  0  0  0  0  0  0  0  0  0  0
   36.9088   24.2544   38.5821 H   0  0  0  0  0  0  0  0  0  0  0  0
   38.9285   21.4585   33.7636 H   0  0  0  0  0  0  0  0  0  0  0  0
   36.6093   20.3450   34.7055 H   0  0  0  0  0  0  0  0  0  0  0  0
   35.9594   21.7439   34.9344 H   0  0  0  0  0  0  0  0  0  0  0  0
   36.6379   20.6754   31.8341 H   0  0  0  0  0  0  0  0  0  0  0  0
   35.0861   23.3652   32.8794 H   0  0  0  0  0  0  0  0  0  0  0  0
  1  6  1  0
  2  1  2  0
  3  2  1  0
  4  3  2  0
  4  5  1  0
  5 12  1  0
  5  1  1  0
  6  7  2  0
  6 11  1  0
  7  8  1  0
  8  9  2  0
 10  9  1  0
 11 10  2  0
 12 13  1  0
 14 12  1  0
 14 13  1  0
 15 14  1  0
  2 16  1  0
  4 17  1  0
  7 18  1  0
  8 19  1  0
 10 20  1  0
 12 21  1  6
 13 22  1  0
 13 23  1  0
 14 24  1  6
 15 25  1  0
M  ISO  8  16  14  17  14  18  14  19  14  20  14  21  13  22  13  23  13
M  ISO  2  24  13  25  11
M  END
>  <minimizedAffinity>  (1) 
-3.70347905

>  <minimizedRMSD>  (1) 
1.04528236

$$$$
