
     RDKit          3D

 44 48  0  0  0  0  0  0  0  0999 V2000
   36.7520   25.5990   31.4680 C   0  0  0  0  0  0  0  0  0  0  0  0
   37.6930   24.7610   32.0220 C   0  0  0  0  0  0  0  0  0  0  0  0
   37.3930   23.3980   32.1270 C   0  0  0  0  0  0  0  0  0  0  0  0
   36.1670   22.8750   31.6860 C   0  0  0  0  0  0  0  0  0  0  0  0
   35.2150   23.7220   31.1250 C   0  0  0  0  0  0  0  0  0  0  0  0
   35.5420   25.0480   31.0370 C   0  0  0  0  0  0  0  0  0  0  0  0
   36.1030   20.4880   30.8580 C   0  0  0  0  0  0  0  0  0  0  0  0
   35.9730   21.4520   31.8490 C   0  0  0  0  0  0  0  0  0  0  0  0
   35.6160   20.9890   33.1440 C   0  0  0  0  0  0  0  0  0  0  0  0
   35.4280   19.6530   33.3210 N   0  0  0  0  0  0  0  0  0  0  0  0
   35.5730   18.7490   32.2930 C   0  0  0  0  0  0  0  0  0  0  0  0
   35.9140   19.1920   31.0540 N   0  0  0  0  0  0  0  0  0  0  0  0
   37.1480   27.2980   31.3480 S   0  0  0  0  0  0  0  0  0  0  0  0
   38.6330   27.4690   31.1960 O   0  0  0  0  0  0  0  0  0  0  0  0
   36.3920   27.8960   30.2080 O   0  0  0  0  0  0  0  0  0  0  0  0
   36.5960   28.0330   32.8500 C   0  0  0  0  0  0  0  0  0  0  0  0
   37.1390   28.1530   34.0370 N   0  0  0  0  0  0  0  0  0  0  0  0
   36.3320   28.7780   34.8240 O   0  0  0  0  0  0  0  0  0  0  0  0
   35.2350   29.1060   34.2320 C   0  0  0  0  0  0  0  0  0  0  0  0
   35.4000   28.6390   32.9930 N   0  0  0  0  0  0  0  0  0  0  0  0
   33.9790   29.7890   34.5350 C   0  0  0  0  0  0  0  0  0  0  0  0
   32.7460   29.4490   34.0030 C   0  0  0  0  0  0  0  0  0  0  0  0
   31.5830   30.1100   34.3070 C   0  0  0  0  0  0  0  0  0  0  0  0
   31.5800   31.1610   35.1680 C   0  0  0  0  0  0  0  0  0  0  0  0
   32.7650   31.5510   35.7310 C   0  0  0  0  0  0  0  0  0  0  0  0
   32.7320   32.6110   36.5930 C   0  0  0  0  0  0  0  0  0  0  0  0
   33.8830   33.0600   37.1980 C   0  0  0  0  0  0  0  0  0  0  0  0
   35.0610   32.4050   36.9030 C   0  0  0  0  0  0  0  0  0  0  0  0
   35.0390   31.3410   36.0260 C   0  0  0  0  0  0  0  0  0  0  0  0
   33.9120   30.8610   35.4000 C   0  0  0  0  0  0  0  0  0  0  0  0
   38.6584   25.1535   32.3740 H   0  0  0  0  0  0  0  0  0  0  0  0
   38.1377   22.7183   32.5668 H   0  0  0  0  0  0  0  0  0  0  0  0
   34.2455   23.3432   30.7692 H   0  0  0  0  0  0  0  0  0  0  0  0
   34.7994   25.7289   30.5955 H   0  0  0  0  0  0  0  0  0  0  0  0
   36.3803   20.8217   29.8472 H   0  0  0  0  0  0  0  0  0  0  0  0
   35.4948   21.6920   33.9813 H   0  0  0  0  0  0  0  0  0  0  0  0
   35.4140   17.6755   32.4730 H   0  0  0  0  0  0  0  0  0  0  0  0
   32.6969   28.6046   33.2998 H   0  0  0  0  0  0  0  0  0  0  0  0
   30.6386   29.7842   33.8467 H   0  0  0  0  0  0  0  0  0  0  0  0
   30.6445   31.6876   35.4077 H   0  0  0  0  0  0  0  0  0  0  0  0
   31.7751   33.1103   36.8053 H   0  0  0  0  0  0  0  0  0  0  0  0
   33.8648   33.9122   37.8933 H   0  0  0  0  0  0  0  0  0  0  0  0
   36.0070   32.7279   37.3622 H   0  0  0  0  0  0  0  0  0  0  0  0
   35.9937   30.8387   35.8110 H   0  0  0  0  0  0  0  0  0  0  0  0
  1  2  2  0
  2  3  1  0
  4  8  1  0
  4  3  2  0
  5  4  1  0
  6  5  2  0
  6  1  1  0
  7 12  2  0
  7  8  1  0
  8  9  2  0
  9 10  1  0
 11 10  2  0
 12 11  1  0
 13  1  1  0
 13 16  1  0
 14 13  2  0
 15 13  2  0
 16 20  1  0
 16 17  2  0
 17 18  1  0
 19 21  1  0
 19 18  1  0
 20 19  2  0
 21 30  2  0
 22 23  2  0
 22 21  1  0
 23 24  1  0
 24 25  2  0
 25 26  1  0
 26 27  2  0
 28 27  1  0
 29 28  2  0
 30 25  1  0
 30 29  1  0
  2 31  1  0
  3 32  1  0
  5 33  1  0
  6 34  1  0
  7 35  1  0
  9 36  1  0
 11 37  1  0
 22 38  1  0
 23 39  1  0
 24 40  1  0
 26 41  1  0
 27 42  1  0
 28 43  1  0
 29 44  1  0
M  ISO  8  31  14  32  14  33  14  34  14  35  14  36  14  37  14  38  14
M  ISO  6  39  14  40  14  41  14  42  14  43  14  44  14
M  END
>  <minimizedAffinity>  (1) 
-6.79174137

>  <minimizedRMSD>  (1) 
0.986882091

$$$$
