
     RDKit          3D

 39 43  0  0  0  0  0  0  0  0999 V2000
   36.6960   25.7160   31.5110 C   0  0  0  0  0  0  0  0  0  0  0  0
   37.6330   24.8770   32.0680 C   0  0  0  0  0  0  0  0  0  0  0  0
   37.3490   23.5110   32.1660 C   0  0  0  0  0  0  0  0  0  0  0  0
   36.1310   22.9860   31.7060 C   0  0  0  0  0  0  0  0  0  0  0  0
   35.1900   23.8250   31.1460 C   0  0  0  0  0  0  0  0  0  0  0  0
   35.5150   25.1560   31.0730 C   0  0  0  0  0  0  0  0  0  0  0  0
   36.0480   20.5960   30.8570 C   0  0  0  0  0  0  0  0  0  0  0  0
   35.9440   21.5490   31.8580 C   0  0  0  0  0  0  0  0  0  0  0  0
   35.6250   21.0780   33.1590 C   0  0  0  0  0  0  0  0  0  0  0  0
   35.4460   19.7310   33.3150 N   0  0  0  0  0  0  0  0  0  0  0  0
   35.5620   18.8430   32.2860 C   0  0  0  0  0  0  0  0  0  0  0  0
   35.8720   19.2980   31.0280 N   0  0  0  0  0  0  0  0  0  0  0  0
   37.0840   27.4100   31.4060 S   0  0  0  0  0  0  0  0  0  0  0  0
   38.5610   27.6190   31.5460 O   0  0  0  0  0  0  0  0  0  0  0  0
   36.5770   27.9570   30.1120 O   0  0  0  0  0  0  0  0  0  0  0  0
   36.2070   28.1950   32.7230 C   0  0  0  0  0  0  0  0  0  0  0  0
   36.5360   28.3810   34.0000 N   0  0  0  0  0  0  0  0  0  0  0  0
   35.5720   29.0130   34.6010 O   0  0  0  0  0  0  0  0  0  0  0  0
   34.5990   29.2640   33.7760 C   0  0  0  0  0  0  0  0  0  0  0  0
   34.9680   28.7590   32.5760 N   0  0  0  0  0  0  0  0  0  0  0  0
   33.3470   29.9180   33.9400 N   0  0  0  0  0  0  0  0  0  0  0  0
   32.4310   29.9250   32.9280 C   0  0  0  0  0  0  0  0  0  0  0  0
   31.3140   30.5970   33.2860 N   0  0  0  0  0  0  0  0  0  0  0  0
   31.5080   31.0320   34.5480 C   0  0  0  0  0  0  0  0  0  0  0  0
   30.8160   31.7580   35.5100 C   0  0  0  0  0  0  0  0  0  0  0  0
   31.3400   32.0190   36.7220 N   0  0  0  0  0  0  0  0  0  0  0  0
   32.5770   31.5790   37.0550 C   0  0  0  0  0  0  0  0  0  0  0  0
   33.3000   30.8610   36.1460 N   0  0  0  0  0  0  0  0  0  0  0  0
   32.7590   30.6090   34.9350 C   0  0  0  0  0  0  0  0  0  0  0  0
   38.5921   25.2748   32.4312 H   0  0  0  0  0  0  0  0  0  0  0  0
   38.0939   22.8355   32.6118 H   0  0  0  0  0  0  0  0  0  0  0  0
   34.2261   23.4454   30.7760 H   0  0  0  0  0  0  0  0  0  0  0  0
   34.7709   25.8328   30.6277 H   0  0  0  0  0  0  0  0  0  0  0  0
   36.2957   20.9468   29.8443 H   0  0  0  0  0  0  0  0  0  0  0  0
   35.5257   21.7697   34.0085 H   0  0  0  0  0  0  0  0  0  0  0  0
   35.4081   17.7683   32.4630 H   0  0  0  0  0  0  0  0  0  0  0  0
   32.5820   29.4464   31.9492 H   0  0  0  0  0  0  0  0  0  0  0  0
   29.8085   32.1310   35.2735 H   0  0  0  0  0  0  0  0  0  0  0  0
   32.9953   31.7980   38.0485 H   0  0  0  0  0  0  0  0  0  0  0  0
  1  2  2  0
  2  3  1  0
  4  8  1  0
  4  3  2  0
  5  4  1  0
  6  5  2  0
  6  1  1  0
  7 12  2  0
  7  8  1  0
  8  9  2  0
  9 10  1  0
 11 10  2  0
 12 11  1  0
 13  1  1  0
 13 14  2  0
 13 16  1  0
 15 13  2  0
 16 17  2  0
 17 18  1  0
 19 21  1  0
 19 18  1  0
 20 16  1  0
 20 19  2  0
 21 29  1  0
 22 23  2  0
 22 21  1  0
 23 24  1  0
 24 29  2  0
 24 25  1  0
 25 26  2  0
 26 27  1  0
 28 27  2  0
 29 28  1  0
  2 30  1  0
  3 31  1  0
  5 32  1  0
  6 33  1  0
  7 34  1  0
  9 35  1  0
 11 36  1  0
 22 37  1  0
 25 38  1  0
 27 39  1  0
M  ISO  8  30  14  31  14  32  14  33  14  34  14  35  14  36  14  37  14
M  ISO  2  38  14  39  14
M  END
>  <minimizedAffinity>  (1) 
-6.44672251

>  <minimizedRMSD>  (1) 
0.31465143

$$$$
