
     RDKit          3D

 38 41  0  0  0  0  0  0  0  0999 V2000
   36.7770   25.7100   31.7630 C   0  0  0  0  0  0  0  0  0  0  0  0
   37.5860   24.8810   32.4820 C   0  0  0  0  0  0  0  0  0  0  0  0
   37.2810   23.5150   32.5410 C   0  0  0  0  0  0  0  0  0  0  0  0
   36.1690   22.9880   31.8800 C   0  0  0  0  0  0  0  0  0  0  0  0
   35.3500   23.8260   31.1520 C   0  0  0  0  0  0  0  0  0  0  0  0
   35.6880   25.1590   31.1220 C   0  0  0  0  0  0  0  0  0  0  0  0
   35.9680   20.6340   30.9710 C   0  0  0  0  0  0  0  0  0  0  0  0
   35.9500   21.5660   32.0100 C   0  0  0  0  0  0  0  0  0  0  0  0
   35.6940   21.0640   33.3110 C   0  0  0  0  0  0  0  0  0  0  0  0
   35.4840   19.7260   33.4570 N   0  0  0  0  0  0  0  0  0  0  0  0
   35.5120   18.8600   32.4100 C   0  0  0  0  0  0  0  0  0  0  0  0
   35.7600   19.3400   31.1450 N   0  0  0  0  0  0  0  0  0  0  0  0
   37.1880   27.4060   31.7120 S   0  0  0  0  0  0  0  0  0  0  0  0
   38.5970   27.6130   32.1740 O   0  0  0  0  0  0  0  0  0  0  0  0
   36.9660   27.9290   30.3270 O   0  0  0  0  0  0  0  0  0  0  0  0
   36.0530   28.2160   32.7990 C   0  0  0  0  0  0  0  0  0  0  0  0
   36.1540   28.5470   34.0690 N   0  0  0  0  0  0  0  0  0  0  0  0
   35.0580   29.1310   34.4470 O   0  0  0  0  0  0  0  0  0  0  0  0
   34.2010   29.2080   33.4600 C   0  0  0  0  0  0  0  0  0  0  0  0
   34.8190   28.6330   32.4160 N   0  0  0  0  0  0  0  0  0  0  0  0
   32.8840   29.7830   33.4880 N   0  0  0  0  0  0  0  0  0  0  0  0
   32.4420   30.4060   32.3820 C   0  0  0  0  0  0  0  0  0  0  0  0
   31.1830   30.9490   32.4220 C   0  0  0  0  0  0  0  0  0  0  0  0
   30.3840   30.8740   33.5410 C   0  0  0  0  0  0  0  0  0  0  0  0
   29.2330   31.3460   33.6470 O   0  0  0  0  0  0  0  0  0  0  0  0
   30.9240   30.2240   34.6070 N   0  0  0  0  0  0  0  0  0  0  0  0
   32.1670   29.6650   34.6210 C   0  0  0  0  0  0  0  0  0  0  0  0
   32.5760   29.0840   35.6580 O   0  0  0  0  0  0  0  0  0  0  0  0
   38.4659   25.2792   33.0084 H   0  0  0  0  0  0  0  0  0  0  0  0
   37.9312   22.8429   33.1203 H   0  0  0  0  0  0  0  0  0  0  0  0
   34.4661   23.4452   30.6193 H   0  0  0  0  0  0  0  0  0  0  0  0
   35.0415   25.8354   30.5437 H   0  0  0  0  0  0  0  0  0  0  0  0
   36.1661   20.9961   29.9514 H   0  0  0  0  0  0  0  0  0  0  0  0
   35.6657   21.7376   34.1801 H   0  0  0  0  0  0  0  0  0  0  0  0
   35.3381   17.7861   32.5725 H   0  0  0  0  0  0  0  0  0  0  0  0
   33.0662   30.4777   31.4791 H   0  0  0  0  0  0  0  0  0  0  0  0
   30.7980   31.4625   31.5286 H   0  0  0  0  0  0  0  0  0  0  0  0
   30.3546   30.1491   35.4620 H   0  0  0  0  0  0  0  0  0  0  0  0
  1  2  2  0
  2  3  1  0
  4  8  1  0
  4  3  2  0
  5  4  1  0
  6  5  2  0
  6  1  1  0
  7 12  2  0
  7  8  1  0
  8  9  2  0
  9 10  1  0
 11 10  2  0
 12 11  1  0
 13  1  1  0
 13 14  2  0
 13 16  1  0
 15 13  2  0
 16 17  2  0
 17 18  1  0
 19 21  1  0
 19 18  1  0
 20 16  1  0
 20 19  2  0
 21 27  1  0
 22 23  2  0
 22 21  1  0
 23 24  1  0
 24 25  2  0
 24 26  1  0
 26 27  1  0
 27 28  2  0
  2 29  1  0
  3 30  1  0
  5 31  1  0
  6 32  1  0
  7 33  1  0
  9 34  1  0
 11 35  1  0
 22 36  1  0
 23 37  1  0
 26 38  1  0
M  ISO  8  29  14  30  14  31  14  32  14  33  14  34  14  35  14  36  14
M  ISO  2  37  14  38   9
M  END
>  <minimizedAffinity>  (1) 
-6.23801231

>  <minimizedRMSD>  (1) 
0.710974097

$$$$
