
     RDKit          3D

 34 37  0  0  0  0  0  0  0  0999 V2000
   36.6190   25.8350   31.6420 C   0  0  0  0  0  0  0  0  0  0  0  0
   37.4810   25.0260   32.3310 C   0  0  0  0  0  0  0  0  0  0  0  0
   37.2040   23.6570   32.4060 C   0  0  0  0  0  0  0  0  0  0  0  0
   36.0770   23.0910   31.7990 C   0  0  0  0  0  0  0  0  0  0  0  0
   35.2100   23.9080   31.1060 C   0  0  0  0  0  0  0  0  0  0  0  0
   35.5040   25.2410   31.0500 C   0  0  0  0  0  0  0  0  0  0  0  0
   35.9640   20.7260   30.9250 C   0  0  0  0  0  0  0  0  0  0  0  0
   35.9020   21.6610   31.9490 C   0  0  0  0  0  0  0  0  0  0  0  0
   35.6450   21.1760   33.2450 C   0  0  0  0  0  0  0  0  0  0  0  0
   35.4770   19.8310   33.4090 N   0  0  0  0  0  0  0  0  0  0  0  0
   35.5460   18.9530   32.3760 C   0  0  0  0  0  0  0  0  0  0  0  0
   35.7960   19.4170   31.1040 N   0  0  0  0  0  0  0  0  0  0  0  0
   36.9710   27.5300   31.5570 S   0  0  0  0  0  0  0  0  0  0  0  0
   38.4130   27.7820   31.8960 O   0  0  0  0  0  0  0  0  0  0  0  0
   36.6380   28.0530   30.2070 O   0  0  0  0  0  0  0  0  0  0  0  0
   35.9080   28.3170   32.7280 C   0  0  0  0  0  0  0  0  0  0  0  0
   36.0970   28.6310   34.0090 N   0  0  0  0  0  0  0  0  0  0  0  0
   35.0290   29.2020   34.4640 O   0  0  0  0  0  0  0  0  0  0  0  0
   34.1140   29.2930   33.5500 C   0  0  0  0  0  0  0  0  0  0  0  0
   34.6480   28.7430   32.4550 N   0  0  0  0  0  0  0  0  0  0  0  0
   32.8210   29.8650   33.7110 N   0  0  0  0  0  0  0  0  0  0  0  0
   32.2630   30.3930   34.8150 C   0  0  0  0  0  0  0  0  0  0  0  0
   31.0060   30.8360   34.5610 N   0  0  0  0  0  0  0  0  0  0  0  0
   30.7970   30.5660   33.2520 C   0  0  0  0  0  0  0  0  0  0  0  0
   31.9050   29.9810   32.7640 N   0  0  0  0  0  0  0  0  0  0  0  0
   38.3749   25.4443   32.8167 H   0  0  0  0  0  0  0  0  0  0  0  0
   37.8944   23.0040   32.9601 H   0  0  0  0  0  0  0  0  0  0  0  0
   34.3133   23.5013   30.6155 H   0  0  0  0  0  0  0  0  0  0  0  0
   34.8113   25.8933   30.4981 H   0  0  0  0  0  0  0  0  0  0  0  0
   36.1637   21.0875   29.9055 H   0  0  0  0  0  0  0  0  0  0  0  0
   35.5812   21.8620   34.1025 H   0  0  0  0  0  0  0  0  0  0  0  0
   35.4030   17.8770   32.5541 H   0  0  0  0  0  0  0  0  0  0  0  0
   32.7600   30.4572   35.7942 H   0  0  0  0  0  0  0  0  0  0  0  0
   29.8803   30.7866   32.6855 H   0  0  0  0  0  0  0  0  0  0  0  0
  1  2  2  0
  2  3  1  0
  4  8  1  0
  4  3  2  0
  5  4  1  0
  6  5  2  0
  6  1  1  0
  7 12  2  0
  7  8  1  0
  8  9  2  0
  9 10  1  0
 11 10  2  0
 12 11  1  0
 13  1  1  0
 13 14  2  0
 13 16  1  0
 15 13  2  0
 16 17  2  0
 17 18  1  0
 19 21  1  0
 19 18  1  0
 20 16  1  0
 20 19  2  0
 21 22  1  0
 23 22  2  0
 24 23  1  0
 25 24  2  0
 25 21  1  0
  2 26  1  0
  3 27  1  0
  5 28  1  0
  6 29  1  0
  7 30  1  0
  9 31  1  0
 11 32  1  0
 22 33  1  0
 24 34  1  0
M  ISO  8  26  14  27  14  28  14  29  14  30  14  31  14  32  14  33  14
M  ISO  1  34  14
M  END
>  <minimizedAffinity>  (1) 
-5.7626276

>  <minimizedRMSD>  (1) 
0.556071639

$$$$
