
     RDKit          3D

 41 44  0  0  0  0  0  0  0  0999 V2000
   36.8080   25.6670   31.7260 C   0  0  0  0  0  0  0  0  0  0  0  0
   37.6220   24.8400   32.4520 C   0  0  0  0  0  0  0  0  0  0  0  0
   37.2950   23.4820   32.5310 C   0  0  0  0  0  0  0  0  0  0  0  0
   36.1770   22.9610   31.8970 C   0  0  0  0  0  0  0  0  0  0  0  0
   35.3550   23.7930   31.1640 C   0  0  0  0  0  0  0  0  0  0  0  0
   35.6980   25.1140   31.1050 C   0  0  0  0  0  0  0  0  0  0  0  0
   35.9220   20.5980   31.0310 C   0  0  0  0  0  0  0  0  0  0  0  0
   35.9360   21.5380   32.0470 C   0  0  0  0  0  0  0  0  0  0  0  0
   35.6910   21.0590   33.3580 C   0  0  0  0  0  0  0  0  0  0  0  0
   35.4600   19.7280   33.5350 N   0  0  0  0  0  0  0  0  0  0  0  0
   35.4600   18.8440   32.4850 C   0  0  0  0  0  0  0  0  0  0  0  0
   35.6970   19.3040   31.2150 N   0  0  0  0  0  0  0  0  0  0  0  0
   37.2370   27.3570   31.6430 S   0  0  0  0  0  0  0  0  0  0  0  0
   38.6670   27.5540   32.0760 O   0  0  0  0  0  0  0  0  0  0  0  0
   37.0160   27.8600   30.2580 O   0  0  0  0  0  0  0  0  0  0  0  0
   36.1360   28.2000   32.7370 C   0  0  0  0  0  0  0  0  0  0  0  0
   36.2870   28.6180   33.9740 N   0  0  0  0  0  0  0  0  0  0  0  0
   35.1750   29.1930   34.3600 O   0  0  0  0  0  0  0  0  0  0  0  0
   34.2880   29.1710   33.4170 C   0  0  0  0  0  0  0  0  0  0  0  0
   34.8590   28.5530   32.3780 N   0  0  0  0  0  0  0  0  0  0  0  0
   32.9780   29.7150   33.5230 N   0  0  0  0  0  0  0  0  0  0  0  0
   32.2050   29.4500   34.7220 C   0  0  0  0  0  0  0  0  0  0  0  0
   30.8150   29.0910   34.2880 C   0  0  0  0  0  0  0  0  0  0  0  0
   30.2330   30.0050   33.4460 O   0  0  0  0  0  0  0  0  0  0  0  0
   31.0440   31.0210   33.0070 C   0  0  0  0  0  0  0  0  0  0  0  0
   32.3850   30.5270   32.4750 C   0  0  0  0  0  0  0  0  0  0  0  0
   38.5133   25.2343   32.9619 H   0  0  0  0  0  0  0  0  0  0  0  0
   37.9426   22.8089   33.1120 H   0  0  0  0  0  0  0  0  0  0  0  0
   34.4619   23.4088   30.6494 H   0  0  0  0  0  0  0  0  0  0  0  0
   35.0486   25.7859   30.5246 H   0  0  0  0  0  0  0  0  0  0  0  0
   36.1096   20.9468   30.0048 H   0  0  0  0  0  0  0  0  0  0  0  0
   35.6874   21.7480   34.2155 H   0  0  0  0  0  0  0  0  0  0  0  0
   35.2713   17.7747   32.6609 H   0  0  0  0  0  0  0  0  0  0  0  0
   32.6521   28.6147   35.2809 H   0  0  0  0  0  0  0  0  0  0  0  0
   32.1916   30.3322   35.3789 H   0  0  0  0  0  0  0  0  0  0  0  0
   30.8554   28.1217   33.7695 H   0  0  0  0  0  0  0  0  0  0  0  0
   30.1979   29.0632   35.1982 H   0  0  0  0  0  0  0  0  0  0  0  0
   30.5247   31.5604   32.2012 H   0  0  0  0  0  0  0  0  0  0  0  0
   31.2521   31.6712   33.8695 H   0  0  0  0  0  0  0  0  0  0  0  0
   32.2336   29.9233   31.5680 H   0  0  0  0  0  0  0  0  0  0  0  0
   33.0399   31.3703   32.2105 H   0  0  0  0  0  0  0  0  0  0  0  0
  1  2  2  0
  2  3  1  0
  4  8  1  0
  4  3  2  0
  5  4  1  0
  6  5  2  0
  6  1  1  0
  7 12  2  0
  7  8  1  0
  8  9  2  0
  9 10  1  0
 11 10  2  0
 12 11  1  0
 13  1  1  0
 13 14  2  0
 13 16  1  0
 15 13  2  0
 16 17  2  0
 17 18  1  0
 19 21  1  0
 19 18  1  0
 20 16  1  0
 20 19  2  0
 21 22  1  0
 23 22  1  0
 24 23  1  0
 25 24  1  0
 26 25  1  0
 26 21  1  0
  2 27  1  0
  3 28  1  0
  5 29  1  0
  6 30  1  0
  7 31  1  0
  9 32  1  0
 11 33  1  0
 22 34  1  0
 22 35  1  0
 23 36  1  0
 23 37  1  0
 25 38  1  0
 25 39  1  0
 26 40  1  0
 26 41  1  0
M  ISO  8  27  14  28  14  29  14  30  14  31  14  32  14  33  14  34  13
M  ISO  7  35  13  36  13  37  13  38  13  39  13  40  13  41  13
M  END
>  <minimizedAffinity>  (1) 
-5.95469904

>  <minimizedRMSD>  (1) 
0.658972561

$$$$
