
     RDKit          3D

 33 36  0  0  0  0  0  0  0  0999 V2000
   36.6940   25.7490   31.6760 C   0  0  0  0  0  0  0  0  0  0  0  0
   37.5750   24.9290   32.3410 C   0  0  0  0  0  0  0  0  0  0  0  0
   37.2800   23.5590   32.4200 C   0  0  0  0  0  0  0  0  0  0  0  0
   36.1210   23.0200   31.8430 C   0  0  0  0  0  0  0  0  0  0  0  0
   35.2360   23.8590   31.1730 C   0  0  0  0  0  0  0  0  0  0  0  0
   35.5630   25.1910   31.1190 C   0  0  0  0  0  0  0  0  0  0  0  0
   35.9440   20.6550   30.9670 C   0  0  0  0  0  0  0  0  0  0  0  0
   35.9230   21.5960   31.9890 C   0  0  0  0  0  0  0  0  0  0  0  0
   35.6840   21.1140   33.3020 C   0  0  0  0  0  0  0  0  0  0  0  0
   35.4950   19.7600   33.4540 N   0  0  0  0  0  0  0  0  0  0  0  0
   35.5280   18.8930   32.4070 C   0  0  0  0  0  0  0  0  0  0  0  0
   35.7570   19.3590   31.1530 N   0  0  0  0  0  0  0  0  0  0  0  0
   37.0880   27.4450   31.5960 S   0  0  0  0  0  0  0  0  0  0  0  0
   38.5150   27.6790   31.9900 O   0  0  0  0  0  0  0  0  0  0  0  0
   36.8240   27.9620   30.2190 O   0  0  0  0  0  0  0  0  0  0  0  0
   35.9940   28.2630   32.7180 C   0  0  0  0  0  0  0  0  0  0  0  0
   36.1500   28.6240   33.9740 N   0  0  0  0  0  0  0  0  0  0  0  0
   35.0760   29.2010   34.4050 O   0  0  0  0  0  0  0  0  0  0  0  0
   34.1750   29.2430   33.4540 C   0  0  0  0  0  0  0  0  0  0  0  0
   34.7380   28.6580   32.3940 N   0  0  0  0  0  0  0  0  0  0  0  0
   32.8470   29.8270   33.6050 C   0  0  0  0  0  0  0  0  0  0  0  0
   32.4030   30.9840   34.1260 N   0  0  0  0  0  0  0  0  0  0  0  0
   31.0880   31.0250   34.0110 O   0  0  0  0  0  0  0  0  0  0  0  0
   30.6610   29.9220   33.4260 C   0  0  0  0  0  0  0  0  0  0  0  0
   31.7640   29.1600   33.1660 N   0  0  0  0  0  0  0  0  0  0  0  0
   38.4881   25.3365   32.7996 H   0  0  0  0  0  0  0  0  0  0  0  0
   37.9760   22.8907   32.9482 H   0  0  0  0  0  0  0  0  0  0  0  0
   34.3169   23.4727   30.7082 H   0  0  0  0  0  0  0  0  0  0  0  0
   34.8707   25.8638   30.5917 H   0  0  0  0  0  0  0  0  0  0  0  0
   36.1271   21.0091   29.9418 H   0  0  0  0  0  0  0  0  0  0  0  0
   35.6512   21.7962   34.1643 H   0  0  0  0  0  0  0  0  0  0  0  0
   35.3696   17.8176   32.5758 H   0  0  0  0  0  0  0  0  0  0  0  0
   29.6171   29.6656   33.1926 H   0  0  0  0  0  0  0  0  0  0  0  0
  1  2  2  0
  2  3  1  0
  4  8  1  0
  4  3  2  0
  5  4  1  0
  6  5  2  0
  6  1  1  0
  7 12  2  0
  7  8  1  0
  8  9  2  0
  9 10  1  0
 11 10  2  0
 12 11  1  0
 13  1  1  0
 13 14  2  0
 13 16  1  0
 15 13  2  0
 16 17  2  0
 17 18  1  0
 19 21  1  0
 19 18  1  0
 20 16  1  0
 20 19  2  0
 21 22  2  0
 23 22  1  0
 24 23  1  0
 25 24  2  0
 25 21  1  0
  2 26  1  0
  3 27  1  0
  5 28  1  0
  6 29  1  0
  7 30  1  0
  9 31  1  0
 11 32  1  0
 24 33  1  0
M  ISO  8  26  14  27  14  28  14  29  14  30  14  31  14  32  14  33  14
M  END
>  <minimizedAffinity>  (1) 
-5.51115036

>  <minimizedRMSD>  (1) 
0.575785041

$$$$
