
     RDKit          3D

 36 39  0  0  0  0  0  0  0  0999 V2000
   36.6700   25.7200   31.6170 C   0  0  0  0  0  0  0  0  0  0  0  0
   37.5390   24.9180   32.3220 C   0  0  0  0  0  0  0  0  0  0  0  0
   37.2410   23.5490   32.4230 C   0  0  0  0  0  0  0  0  0  0  0  0
   36.1060   22.9970   31.8360 C   0  0  0  0  0  0  0  0  0  0  0  0
   35.2350   23.8020   31.1310 C   0  0  0  0  0  0  0  0  0  0  0  0
   35.5570   25.1330   31.0520 C   0  0  0  0  0  0  0  0  0  0  0  0
   35.9220   20.6140   31.0060 C   0  0  0  0  0  0  0  0  0  0  0  0
   35.9080   21.5720   32.0110 C   0  0  0  0  0  0  0  0  0  0  0  0
   35.6810   21.1120   33.3260 C   0  0  0  0  0  0  0  0  0  0  0  0
   35.4910   19.7670   33.5180 N   0  0  0  0  0  0  0  0  0  0  0  0
   35.5170   18.8780   32.4910 C   0  0  0  0  0  0  0  0  0  0  0  0
   35.7360   19.3150   31.2140 N   0  0  0  0  0  0  0  0  0  0  0  0
   37.0630   27.4170   31.5070 S   0  0  0  0  0  0  0  0  0  0  0  0
   38.5380   27.6270   31.7450 O   0  0  0  0  0  0  0  0  0  0  0  0
   36.6440   27.9340   30.1690 O   0  0  0  0  0  0  0  0  0  0  0  0
   36.1140   28.2180   32.7430 C   0  0  0  0  0  0  0  0  0  0  0  0
   36.3950   28.5290   33.9970 N   0  0  0  0  0  0  0  0  0  0  0  0
   35.3670   29.1280   34.5410 O   0  0  0  0  0  0  0  0  0  0  0  0
   34.4020   29.2270   33.6830 C   0  0  0  0  0  0  0  0  0  0  0  0
   34.8350   28.6690   32.5500 N   0  0  0  0  0  0  0  0  0  0  0  0
   33.0750   29.8160   33.8370 C   0  0  0  0  0  0  0  0  0  0  0  0
   32.6760   30.4590   34.9910 C   0  0  0  0  0  0  0  0  0  0  0  0
   31.4370   31.0310   35.1900 C   0  0  0  0  0  0  0  0  0  0  0  0
   30.5930   30.9240   34.1470 N   0  0  0  0  0  0  0  0  0  0  0  0
   30.9270   30.3090   32.9990 C   0  0  0  0  0  0  0  0  0  0  0  0
   32.1600   29.7490   32.8260 N   0  0  0  0  0  0  0  0  0  0  0  0
   38.4406   25.3371   32.7926 H   0  0  0  0  0  0  0  0  0  0  0  0
   37.9248   22.8938   32.9825 H   0  0  0  0  0  0  0  0  0  0  0  0
   34.3289   23.3972   30.6566 H   0  0  0  0  0  0  0  0  0  0  0  0
   34.8713   25.7859   30.4921 H   0  0  0  0  0  0  0  0  0  0  0  0
   36.0979   20.9514   29.9739 H   0  0  0  0  0  0  0  0  0  0  0  0
   35.6571   21.8127   34.1736 H   0  0  0  0  0  0  0  0  0  0  0  0
   35.3619   17.8067   32.6868 H   0  0  0  0  0  0  0  0  0  0  0  0
   33.4018   30.5200   35.8153 H   0  0  0  0  0  0  0  0  0  0  0  0
   31.1602   31.5352   36.1276 H   0  0  0  0  0  0  0  0  0  0  0  0
   30.1918   30.2560   32.1825 H   0  0  0  0  0  0  0  0  0  0  0  0
  1  2  2  0
  2  3  1  0
  4  8  1  0
  4  3  2  0
  5  4  1  0
  6  5  2  0
  6  1  1  0
  7 12  2  0
  7  8  1  0
  8  9  2  0
  9 10  1  0
 11 10  2  0
 12 11  1  0
 13  1  1  0
 13 14  2  0
 13 16  1  0
 15 13  2  0
 16 17  2  0
 17 18  1  0
 19 21  1  0
 19 18  1  0
 20 16  1  0
 20 19  2  0
 21 22  2  0
 22 23  1  0
 24 23  2  0
 25 24  1  0
 26 25  2  0
 26 21  1  0
  2 27  1  0
  3 28  1  0
  5 29  1  0
  6 30  1  0
  7 31  1  0
  9 32  1  0
 11 33  1  0
 22 34  1  0
 23 35  1  0
 25 36  1  0
M  ISO  8  27  14  28  14  29  14  30  14  31  14  32  14  33  14  34  14
M  ISO  2  35  14  36  14
M  END
>  <minimizedAffinity>  (1) 
-5.65044355

>  <minimizedRMSD>  (1) 
0.488495082

$$$$
