
     RDKit          3D

 34 36  0  0  0  0  0  0  0  0999 V2000
   36.6000   25.8430   31.6460 C   0  0  0  0  0  0  0  0  0  0  0  0
   37.4560   25.0370   32.3300 C   0  0  0  0  0  0  0  0  0  0  0  0
   37.2000   23.6690   32.4140 C   0  0  0  0  0  0  0  0  0  0  0  0
   36.0760   23.0980   31.8070 C   0  0  0  0  0  0  0  0  0  0  0  0
   35.2040   23.9100   31.1120 C   0  0  0  0  0  0  0  0  0  0  0  0
   35.4860   25.2520   31.0500 C   0  0  0  0  0  0  0  0  0  0  0  0
   35.9530   20.7310   30.9270 C   0  0  0  0  0  0  0  0  0  0  0  0
   35.9000   21.6730   31.9500 C   0  0  0  0  0  0  0  0  0  0  0  0
   35.6490   21.1830   33.2590 C   0  0  0  0  0  0  0  0  0  0  0  0
   35.4790   19.8390   33.4170 N   0  0  0  0  0  0  0  0  0  0  0  0
   35.5400   18.9600   32.3840 C   0  0  0  0  0  0  0  0  0  0  0  0
   35.7830   19.4300   31.1160 N   0  0  0  0  0  0  0  0  0  0  0  0
   36.9510   27.5450   31.5640 S   0  0  0  0  0  0  0  0  0  0  0  0
   38.3950   27.7970   31.9040 O   0  0  0  0  0  0  0  0  0  0  0  0
   36.6160   28.0600   30.2050 O   0  0  0  0  0  0  0  0  0  0  0  0
   35.8900   28.3280   32.7400 C   0  0  0  0  0  0  0  0  0  0  0  0
   36.0340   28.5620   34.0270 N   0  0  0  0  0  0  0  0  0  0  0  0
   34.9870   29.1680   34.4850 O   0  0  0  0  0  0  0  0  0  0  0  0
   34.1170   29.3560   33.5200 C   0  0  0  0  0  0  0  0  0  0  0  0
   34.6580   28.8380   32.4130 N   0  0  0  0  0  0  0  0  0  0  0  0
   32.7650   29.9710   33.3970 C   0  0  0  0  0  0  0  0  0  0  0  0
   31.7350   28.8780   33.2430 C   0  0  0  0  0  0  0  0  0  0  0  0
   38.3468   25.4628   32.8150 H   0  0  0  0  0  0  0  0  0  0  0  0
   37.8970   23.0244   32.9697 H   0  0  0  0  0  0  0  0  0  0  0  0
   34.3105   23.4951   30.6227 H   0  0  0  0  0  0  0  0  0  0  0  0
   34.7911   25.9008   30.4966 H   0  0  0  0  0  0  0  0  0  0  0  0
   36.1469   21.0860   29.9041 H   0  0  0  0  0  0  0  0  0  0  0  0
   35.5934   21.8664   34.1191 H   0  0  0  0  0  0  0  0  0  0  0  0
   35.3965   17.8837   32.5603 H   0  0  0  0  0  0  0  0  0  0  0  0
   32.5449   30.5595   34.2999 H   0  0  0  0  0  0  0  0  0  0  0  0
   32.7378   30.6312   32.5176 H   0  0  0  0  0  0  0  0  0  0  0  0
   31.4123   28.5356   34.2373 H   0  0  0  0  0  0  0  0  0  0  0  0
   30.8675   29.2670   32.6898 H   0  0  0  0  0  0  0  0  0  0  0  0
   32.1748   28.0351   32.6898 H   0  0  0  0  0  0  0  0  0  0  0  0
  1  2  2  0
  2  3  1  0
  4  8  1  0
  4  3  2  0
  5  4  1  0
  6  5  2  0
  6  1  1  0
  7 12  2  0
  7  8  1  0
  8  9  2  0
  9 10  1  0
 11 10  2  0
 12 11  1  0
 13  1  1  0
 13 14  2  0
 13 16  1  0
 15 13  2  0
 16 17  2  0
 17 18  1  0
 19 18  1  0
 20 16  1  0
 20 19  2  0
 21 19  1  0
 22 21  1  0
  2 23  1  0
  3 24  1  0
  5 25  1  0
  6 26  1  0
  7 27  1  0
  9 28  1  0
 11 29  1  0
 21 30  1  0
 21 31  1  0
 22 32  1  0
 22 33  1  0
 22 34  1  0
M  ISO  8  23  14  24  14  25  14  26  14  27  14  28  14  29  14  30   8
M  ISO  4  31   8  32   8  33   8  34   8
M  END
>  <minimizedAffinity>  (1) 
-5.15557146

>  <minimizedRMSD>  (1) 
0.421882272

$$$$
