
     RDKit          3D

 44 47  0  0  0  0  0  0  0  0999 V2000
   36.6710   25.7580   31.6530 C   0  0  0  0  0  0  0  0  0  0  0  0
   37.5180   24.9440   32.3500 C   0  0  0  0  0  0  0  0  0  0  0  0
   37.2360   23.5770   32.4270 C   0  0  0  0  0  0  0  0  0  0  0  0
   36.1140   23.0300   31.8140 C   0  0  0  0  0  0  0  0  0  0  0  0
   35.2540   23.8440   31.1100 C   0  0  0  0  0  0  0  0  0  0  0  0
   35.5680   25.1770   31.0590 C   0  0  0  0  0  0  0  0  0  0  0  0
   35.9600   20.6500   30.9600 C   0  0  0  0  0  0  0  0  0  0  0  0
   35.9230   21.5930   31.9640 C   0  0  0  0  0  0  0  0  0  0  0  0
   35.6730   21.1060   33.2690 C   0  0  0  0  0  0  0  0  0  0  0  0
   35.4870   19.7660   33.4490 N   0  0  0  0  0  0  0  0  0  0  0  0
   35.5390   18.8940   32.4040 C   0  0  0  0  0  0  0  0  0  0  0  0
   35.7820   19.3560   31.1320 N   0  0  0  0  0  0  0  0  0  0  0  0
   37.0310   27.4640   31.5600 S   0  0  0  0  0  0  0  0  0  0  0  0
   38.5300   27.6600   31.7080 O   0  0  0  0  0  0  0  0  0  0  0  0
   36.5260   28.0310   30.2970 O   0  0  0  0  0  0  0  0  0  0  0  0
   36.2040   28.2030   32.9270 C   0  0  0  0  0  0  0  0  0  0  0  0
   36.4180   28.1990   34.2210 N   0  0  0  0  0  0  0  0  0  0  0  0
   35.5150   28.9080   34.8360 O   0  0  0  0  0  0  0  0  0  0  0  0
   34.6680   29.4060   33.9550 C   0  0  0  0  0  0  0  0  0  0  0  0
   35.0920   28.9730   32.7740 N   0  0  0  0  0  0  0  0  0  0  0  0
   33.5550   30.2080   34.0780 O   0  0  0  0  0  0  0  0  0  0  0  0
   35.0400   32.0390   37.2880 N   0  0  0  0  0  0  0  0  0  0  0  0
   33.6120   32.1800   37.1540 C   0  0  0  0  0  0  0  0  0  0  0  0
   33.1630   31.0520   36.2470 C   0  0  0  0  0  0  0  0  0  0  0  0
   33.6370   31.4040   34.8570 C   0  0  0  0  0  0  0  0  0  0  0  0
   34.9680   32.0620   34.8050 C   0  0  0  0  0  0  0  0  0  0  0  0
   35.7520   32.0320   36.0630 C   0  0  0  0  0  0  0  0  0  0  0  0
   38.4094   25.3583   32.8437 H   0  0  0  0  0  0  0  0  0  0  0  0
   37.9176   22.9186   32.9855 H   0  0  0  0  0  0  0  0  0  0  0  0
   34.3584   23.4433   30.6127 H   0  0  0  0  0  0  0  0  0  0  0  0
   34.8874   25.8365   30.5006 H   0  0  0  0  0  0  0  0  0  0  0  0
   36.1529   21.0047   29.9368 H   0  0  0  0  0  0  0  0  0  0  0  0
   35.6293   21.7963   34.1244 H   0  0  0  0  0  0  0  0  0  0  0  0
   35.3864   17.8186   32.5779 H   0  0  0  0  0  0  0  0  0  0  0  0
   35.3879   32.8241   37.8568 H   0  0  0  0  0  0  0  0  0  0  0  0
   33.1259   32.0961   38.1372 H   0  0  0  0  0  0  0  0  0  0  0  0
   33.3418   33.1621   36.7388 H   0  0  0  0  0  0  0  0  0  0  0  0
   33.6116   30.1017   36.5721 H   0  0  0  0  0  0  0  0  0  0  0  0
   32.0701   30.9302   36.2754 H   0  0  0  0  0  0  0  0  0  0  0  0
   32.9852   32.1826   34.4340 H   0  0  0  0  0  0  0  0  0  0  0  0
   35.5615   31.5620   34.0254 H   0  0  0  0  0  0  0  0  0  0  0  0
   34.7683   33.1246   34.6026 H   0  0  0  0  0  0  0  0  0  0  0  0
   36.3648   31.1187   36.0454 H   0  0  0  0  0  0  0  0  0  0  0  0
   36.3103   32.9798   36.0629 H   0  0  0  0  0  0  0  0  0  0  0  0
  1  2  2  0
  2  3  1  0
  4  8  1  0
  4  3  2  0
  5  4  1  0
  6  5  2  0
  6  1  1  0
  7 12  2  0
  7  8  1  0
  8  9  2  0
  9 10  1  0
 11 10  2  0
 12 11  1  0
 13  1  1  0
 13 14  2  0
 13 16  1  0
 15 13  2  0
 16 17  2  0
 17 18  1  0
 19 21  1  0
 19 18  1  0
 20 16  1  0
 20 19  2  0
 21 25  1  0
 23 22  1  0
 24 23  1  0
 25 24  1  0
 26 25  1  0
 26 27  1  0
 27 22  1  0
  2 28  1  0
  3 29  1  0
  5 30  1  0
  6 31  1  0
  7 32  1  0
  9 33  1  0
 11 34  1  0
 22 35  1  0
 23 36  1  0
 23 37  1  0
 24 38  1  0
 24 39  1  0
 25 40  1  0
 26 41  1  0
 26 42  1  0
 27 43  1  0
 27 44  1  0
M  ISO  8  28  14  29  14  30  14  31  14  32  14  33  14  34  14  35   5
M  ISO  8  36  13  37  13  38  13  39  13  40  13  41  13  42  13  43  13
M  ISO  1  44  13
M  END
>  <minimizedAffinity>  (1) 
-6.27804708

>  <minimizedRMSD>  (1) 
1.39939618

$$$$
