
     RDKit          3D

 39 42  0  0  0  0  0  0  0  0999 V2000
   36.8070   25.4880   31.5670 C   0  0  0  0  0  0  0  0  0  0  0  0
   37.6680   24.6660   32.2220 C   0  0  0  0  0  0  0  0  0  0  0  0
   37.3490   23.3080   32.3320 C   0  0  0  0  0  0  0  0  0  0  0  0
   36.1730   22.7790   31.7870 C   0  0  0  0  0  0  0  0  0  0  0  0
   35.2990   23.6040   31.1250 C   0  0  0  0  0  0  0  0  0  0  0  0
   35.6460   24.9340   31.0370 C   0  0  0  0  0  0  0  0  0  0  0  0
   36.0360   20.3870   30.9940 C   0  0  0  0  0  0  0  0  0  0  0  0
   35.9590   21.3580   31.9680 C   0  0  0  0  0  0  0  0  0  0  0  0
   35.6380   20.9100   33.2710 C   0  0  0  0  0  0  0  0  0  0  0  0
   35.4310   19.5780   33.4780 N   0  0  0  0  0  0  0  0  0  0  0  0
   35.5220   18.6670   32.4650 C   0  0  0  0  0  0  0  0  0  0  0  0
   35.8340   19.0970   31.1990 N   0  0  0  0  0  0  0  0  0  0  0  0
   37.2020   27.1820   31.4290 S   0  0  0  0  0  0  0  0  0  0  0  0
   38.6980   27.3530   31.4720 O   0  0  0  0  0  0  0  0  0  0  0  0
   36.6330   27.7420   30.1840 O   0  0  0  0  0  0  0  0  0  0  0  0
   36.4580   27.9710   32.8060 C   0  0  0  0  0  0  0  0  0  0  0  0
   36.6760   27.8810   34.0970 N   0  0  0  0  0  0  0  0  0  0  0  0
   35.8720   28.6650   34.7510 O   0  0  0  0  0  0  0  0  0  0  0  0
   35.0840   29.3070   33.9070 C   0  0  0  0  0  0  0  0  0  0  0  0
   35.4440   28.8790   32.6890 N   0  0  0  0  0  0  0  0  0  0  0  0
   34.0720   30.2370   34.0520 O   0  0  0  0  0  0  0  0  0  0  0  0
   34.1260   31.0320   35.1900 C   0  0  0  0  0  0  0  0  0  0  0  0
   35.2470   31.8610   35.1800 C   0  0  0  0  0  0  0  0  0  0  0  0
   35.5060   32.7490   36.2280 C   0  0  0  0  0  0  0  0  0  0  0  0
   34.5900   32.7540   37.2650 C   0  0  0  0  0  0  0  0  0  0  0  0
   33.4780   31.9450   37.2960 C   0  0  0  0  0  0  0  0  0  0  0  0
   33.2380   31.0750   36.2530 C   0  0  0  0  0  0  0  0  0  0  0  0
   38.5979   25.0605   32.6574 H   0  0  0  0  0  0  0  0  0  0  0  0
   38.0417   22.6373   32.8615 H   0  0  0  0  0  0  0  0  0  0  0  0
   34.3659   23.2215   30.6856 H   0  0  0  0  0  0  0  0  0  0  0  0
   34.9547   25.6074   30.5091 H   0  0  0  0  0  0  0  0  0  0  0  0
   36.2835   20.7085   29.9716 H   0  0  0  0  0  0  0  0  0  0  0  0
   35.5567   21.6243   34.1035 H   0  0  0  0  0  0  0  0  0  0  0  0
   35.3470   17.5989   32.6613 H   0  0  0  0  0  0  0  0  0  0  0  0
   35.9426   31.8153   34.3291 H   0  0  0  0  0  0  0  0  0  0  0  0
   36.3879   33.4064   36.2283 H   0  0  0  0  0  0  0  0  0  0  0  0
   34.7598   33.4401   38.1079 H   0  0  0  0  0  0  0  0  0  0  0  0
   32.7839   31.9916   38.1480 H   0  0  0  0  0  0  0  0  0  0  0  0
   32.3522   30.4230   36.2648 H   0  0  0  0  0  0  0  0  0  0  0  0
  1  2  2  0
  2  3  1  0
  4  8  1  0
  4  3  2  0
  5  4  1  0
  6  5  2  0
  6  1  1  0
  7 12  2  0
  7  8  1  0
  8  9  2  0
  9 10  1  0
 11 10  2  0
 12 11  1  0
 13 14  2  0
 13  1  1  0
 13 16  1  0
 15 13  2  0
 16 17  2  0
 17 18  1  0
 19 21  1  0
 19 18  1  0
 20 16  1  0
 20 19  2  0
 21 22  1  0
 22 27  1  0
 23 22  2  0
 23 24  1  0
 24 25  2  0
 25 26  1  0
 27 26  2  0
  2 28  1  0
  3 29  1  0
  5 30  1  0
  6 31  1  0
  7 32  1  0
  9 33  1  0
 11 34  1  0
 23 35  1  0
 24 36  1  0
 25 37  1  0
 26 38  1  0
 27 39  1  0
M  ISO  8  28  14  29  14  30  14  31  14  32  14  33  14  34  14  35  14
M  ISO  4  36  14  37  14  38  14  39  14
M  END
>  <minimizedAffinity>  (1) 
-6.19590378

>  <minimizedRMSD>  (1) 
1.33463085

$$$$
