
     RDKit          3D

 42 45  0  0  0  0  0  0  0  0999 V2000
   36.7910   25.4540   31.5490 C   0  0  0  0  0  0  0  0  0  0  0  0
   37.6600   24.6220   32.2080 C   0  0  0  0  0  0  0  0  0  0  0  0
   37.3510   23.2630   32.3160 C   0  0  0  0  0  0  0  0  0  0  0  0
   36.1790   22.7390   31.7700 C   0  0  0  0  0  0  0  0  0  0  0  0
   35.3070   23.5720   31.1110 C   0  0  0  0  0  0  0  0  0  0  0  0
   35.6460   24.8950   31.0270 C   0  0  0  0  0  0  0  0  0  0  0  0
   36.0730   20.3470   30.9610 C   0  0  0  0  0  0  0  0  0  0  0  0
   35.9640   21.3140   31.9460 C   0  0  0  0  0  0  0  0  0  0  0  0
   35.6130   20.8700   33.2460 C   0  0  0  0  0  0  0  0  0  0  0  0
   35.4040   19.5360   33.4440 N   0  0  0  0  0  0  0  0  0  0  0  0
   35.5260   18.6240   32.4280 C   0  0  0  0  0  0  0  0  0  0  0  0
   35.8650   19.0510   31.1740 N   0  0  0  0  0  0  0  0  0  0  0  0
   37.2020   27.1520   31.4270 S   0  0  0  0  0  0  0  0  0  0  0  0
   38.6900   27.2940   31.2450 O   0  0  0  0  0  0  0  0  0  0  0  0
   36.4480   27.7750   30.3250 O   0  0  0  0  0  0  0  0  0  0  0  0
   36.7140   27.8740   32.9570 C   0  0  0  0  0  0  0  0  0  0  0  0
   37.2480   27.8800   34.1460 N   0  0  0  0  0  0  0  0  0  0  0  0
   36.5100   28.5610   34.9810 O   0  0  0  0  0  0  0  0  0  0  0  0
   35.4570   29.0260   34.3460 C   0  0  0  0  0  0  0  0  0  0  0  0
   35.5720   28.6080   33.0900 N   0  0  0  0  0  0  0  0  0  0  0  0
   34.3720   29.8010   34.7560 O   0  0  0  0  0  0  0  0  0  0  0  0
   34.4080   33.4950   36.6500 C   0  0  0  0  0  0  0  0  0  0  0  0
   33.2660   32.7260   36.5340 C   0  0  0  0  0  0  0  0  0  0  0  0
   33.3460   31.5060   35.8860 C   0  0  0  0  0  0  0  0  0  0  0  0
   34.5310   31.0400   35.3550 C   0  0  0  0  0  0  0  0  0  0  0  0
   35.6820   31.8170   35.4740 C   0  0  0  0  0  0  0  0  0  0  0  0
   35.6050   33.0320   36.1190 C   0  0  0  0  0  0  0  0  0  0  0  0
   34.3420   35.0380   37.4610 S   0  0  0  0  0  0  0  0  0  0  0  0
   35.5300   35.8970   37.1110 O   0  0  0  0  0  0  0  0  0  0  0  0
   34.2360   34.8600   38.9480 O   0  0  0  0  0  0  0  0  0  0  0  0
   38.5878   25.0190   32.6457 H   0  0  0  0  0  0  0  0  0  0  0  0
   38.0464   22.5928   32.8425 H   0  0  0  0  0  0  0  0  0  0  0  0
   34.3746   23.1908   30.6691 H   0  0  0  0  0  0  0  0  0  0  0  0
   34.9492   25.5644   30.5013 H   0  0  0  0  0  0  0  0  0  0  0  0
   36.3470   20.6689   29.9455 H   0  0  0  0  0  0  0  0  0  0  0  0
   35.5115   21.5846   34.0761 H   0  0  0  0  0  0  0  0  0  0  0  0
   35.3522   17.5550   32.6203 H   0  0  0  0  0  0  0  0  0  0  0  0
   32.3100   33.0774   36.9495 H   0  0  0  0  0  0  0  0  0  0  0  0
   32.4393   30.8904   35.7916 H   0  0  0  0  0  0  0  0  0  0  0  0
   36.6380   31.4652   35.0589 H   0  0  0  0  0  0  0  0  0  0  0  0
   36.5109   33.6485   36.2155 H   0  0  0  0  0  0  0  0  0  0  0  0
   33.2157   35.6838   37.0237 H   0  0  0  0  0  0  0  0  0  0  0  0
  1  2  2  0
  2  3  1  0
  4  8  1  0
  4  3  2  0
  5  4  1  0
  6  5  2  0
  6  1  1  0
  7 12  2  0
  7  8  1  0
  8  9  2  0
  9 10  1  0
 11 10  2  0
 12 11  1  0
 13  1  1  0
 13 16  1  0
 14 13  2  0
 15 13  2  0
 16 20  1  0
 16 17  2  0
 17 18  1  0
 19 21  1  0
 19 18  1  0
 20 19  2  0
 21 25  1  0
 22 28  1  0
 23 22  2  0
 24 23  1  0
 25 26  1  0
 25 24  2  0
 26 27  2  0
 27 22  1  0
 28 30  2  0
 29 28  2  0
  2 31  1  0
  3 32  1  0
  5 33  1  0
  6 34  1  0
  7 35  1  0
  9 36  1  0
 11 37  1  0
 23 38  1  0
 24 39  1  0
 26 40  1  0
 27 41  1  0
 28 42  1  0
M  ISO  8  31  14  32  14  33  14  34  14  35  14  36  14  37  14  38  14
M  ISO  4  39  14  40  14  41  14  42  11
M  END
>  <minimizedAffinity>  (1) 
-6.06156015

>  <minimizedRMSD>  (1) 
2.52394986

$$$$
