
     RDKit          3D

 29 29  0  0  0  0  0  0  0  0999 V2000
   41.9880   23.3760   35.8740 C   0  0  0  0  0  0  0  0  0  0  0  0
   41.8270   24.6230   35.2730 C   0  0  0  0  0  0  0  0  0  0  0  0
   40.5130   24.9950   35.0020 C   0  0  0  0  0  0  0  0  0  0  0  0
   39.4830   24.1580   35.3240 N   0  0  0  0  0  0  0  0  0  0  0  0
   39.7100   22.9580   35.9090 C   0  0  0  0  0  0  0  0  0  0  0  0
   40.9830   22.5670   36.1860 N   0  0  0  0  0  0  0  0  0  0  0  0
   38.6310   22.0870   36.2430 N   0  0  0  0  0  0  0  0  0  0  0  0
   37.4850   22.6150   36.8950 C   0  0  0  0  0  0  0  0  0  0  0  0
   37.4980   23.8490   37.3060 N   0  0  0  0  0  0  0  0  0  0  0  0
   36.3350   21.7730   37.0850 N   0  0  0  0  0  0  0  0  0  0  0  0
   36.6520   24.2240   37.7890 H   0  0  0  0  0  0  0  0  0  0  0  0
   40.0710   26.2540   34.3730 C   0  0  0  0  0  0  0  0  0  0  0  0
   39.2390   27.0960   35.3510 C   0  0  0  0  0  0  0  0  0  0  0  0
   39.1360   26.0260   33.1880 C   0  0  0  0  0  0  0  0  0  0  0  0
   41.2290   27.1580   33.9950 C   0  0  0  0  0  0  0  0  0  0  0  0
   43.0105   23.0417   36.1039 H   0  0  0  0  0  0  0  0  0  0  0  0
   42.6818   25.2708   35.0288 H   0  0  0  0  0  0  0  0  0  0  0  0
   38.6824   21.0842   36.0134 H   0  0  0  0  0  0  0  0  0  0  0  0
   35.4975   22.1437   37.5563 H   0  0  0  0  0  0  0  0  0  0  0  0
   36.3487   20.7992   36.7498 H   0  0  0  0  0  0  0  0  0  0  0  0
   39.5046   26.8272   36.3841 H   0  0  0  0  0  0  0  0  0  0  0  0
   39.4470   28.1633   35.1848 H   0  0  0  0  0  0  0  0  0  0  0  0
   38.1693   26.9007   35.1848 H   0  0  0  0  0  0  0  0  0  0  0  0
   38.1293   25.7805   33.5572 H   0  0  0  0  0  0  0  0  0  0  0  0
   39.0897   26.9392   32.5765 H   0  0  0  0  0  0  0  0  0  0  0  0
   39.5153   25.1940   32.5765 H   0  0  0  0  0  0  0  0  0  0  0  0
   41.7126   27.5355   34.9080 H   0  0  0  0  0  0  0  0  0  0  0  0
   41.9597   26.5890   33.4014 H   0  0  0  0  0  0  0  0  0  0  0  0
   40.8544   28.0050   33.4014 H   0  0  0  0  0  0  0  0  0  0  0  0
  1  6  2  0
  2  1  1  0
  3  2  2  0
  3  4  1  0
  4  5  2  0
  5  6  1  0
  5  7  1  0
  7  8  1  0
  8 10  1  0
  8  9  2  0
  9 11  1  0
 12  3  1  0
 12 13  1  0
 14 12  1  0
 15 12  1  0
  1 16  1  0
  2 17  1  0
  7 18  1  0
 10 19  1  0
 10 20  1  0
 13 21  1  0
 13 22  1  0
 13 23  1  0
 14 24  1  0
 14 25  1  0
 14 26  1  0
 15 27  1  0
 15 28  1  0
 15 29  1  0
M  ISO  8  16  14  17  14  21   8  22   8  23   8  24   8  25   8  26   8
M  ISO  3  27   8  28   8  29   8
M  END
>  <minimizedAffinity>  (1) 
-4.23188925

>  <minimizedRMSD>  (1) 
4.50409651

$$$$
