
     RDKit          3D

 20 20  0  0  0  0  0  0  0  0999 V2000
   37.8940   24.0040   37.9370 C   0  0  0  0  0  0  0  0  0  0  0  0
   38.9880   23.1310   38.1130 C   0  0  0  0  0  0  0  0  0  0  0  0
   39.9440   23.1620   37.1070 C   0  0  0  0  0  0  0  0  0  0  0  0
   39.8030   23.9900   36.0390 N   0  0  0  0  0  0  0  0  0  0  0  0
   38.7330   24.8110   35.9170 C   0  0  0  0  0  0  0  0  0  0  0  0
   37.7790   24.8090   36.8800 N   0  0  0  0  0  0  0  0  0  0  0  0
   38.5780   25.6780   34.8060 N   0  0  0  0  0  0  0  0  0  0  0  0
   39.7030   26.4300   34.3540 C   0  0  0  0  0  0  0  0  0  0  0  0
   40.7860   26.4740   35.0930 N   0  0  0  0  0  0  0  0  0  0  0  0
   39.6450   27.1300   33.1010 N   0  0  0  0  0  0  0  0  0  0  0  0
   41.6020   27.0180   34.7310 H   0  0  0  0  0  0  0  0  0  0  0  0
   41.1050   22.2880   37.2140 C   0  0  0  0  0  0  0  0  0  0  0  0
   42.1570   22.6160   36.6090 O   0  0  0  0  0  0  0  0  0  0  0  0
   41.0450   21.1230   37.9690 O   0  0  0  0  0  0  0  0  0  0  0  0
   37.1041   24.0215   38.7023 H   0  0  0  0  0  0  0  0  0  0  0  0
   39.0775   22.4705   38.9881 H   0  0  0  0  0  0  0  0  0  0  0  0
   37.6673   25.7636   34.3325 H   0  0  0  0  0  0  0  0  0  0  0  0
   40.4580   27.6725   32.7760 H   0  0  0  0  0  0  0  0  0  0  0  0
   38.7904   27.0894   32.5275 H   0  0  0  0  0  0  0  0  0  0  0  0
   41.8388   20.5352   38.0361 H   0  0  0  0  0  0  0  0  0  0  0  0
  1  2  2  0
  3 12  1  0
  3  2  1  0
  4  3  2  0
  5  4  1  0
  5  6  2  0
  6  1  1  0
  7  5  1  0
  8  7  1  0
  8  9  2  0
 10  8  1  0
 11  9  1  0
 12 14  1  0
 13 12  2  0
  1 15  1  0
  2 16  1  0
  7 17  1  0
 10 18  1  0
 10 19  1  0
 14 20  1  0
M  ISO  3  15  14  16  14  20   3
M  END
>  <minimizedAffinity>  (1) 
-4.1654706

>  <minimizedRMSD>  (1) 
5.00202703

$$$$
