
     RDKit          3D

 32 34  0  0  0  0  0  0  0  0999 V2000
   36.6030   25.8420   31.6280 C   0  0  0  0  0  0  0  0  0  0  0  0
   37.4750   25.0340   32.3050 C   0  0  0  0  0  0  0  0  0  0  0  0
   37.1980   23.6680   32.3830 C   0  0  0  0  0  0  0  0  0  0  0  0
   36.0730   23.1140   31.7990 C   0  0  0  0  0  0  0  0  0  0  0  0
   35.1950   23.9190   31.1190 C   0  0  0  0  0  0  0  0  0  0  0  0
   35.4830   25.2550   31.0520 C   0  0  0  0  0  0  0  0  0  0  0  0
   35.9350   20.7350   30.9360 C   0  0  0  0  0  0  0  0  0  0  0  0
   35.8920   21.6730   31.9500 C   0  0  0  0  0  0  0  0  0  0  0  0
   35.6490   21.1860   33.2530 C   0  0  0  0  0  0  0  0  0  0  0  0
   35.4730   19.8520   33.4400 N   0  0  0  0  0  0  0  0  0  0  0  0
   35.5270   18.9660   32.3960 C   0  0  0  0  0  0  0  0  0  0  0  0
   35.7610   19.4290   31.1370 N   0  0  0  0  0  0  0  0  0  0  0  0
   36.9710   27.5550   31.5410 S   0  0  0  0  0  0  0  0  0  0  0  0
   38.4110   27.7820   31.8880 O   0  0  0  0  0  0  0  0  0  0  0  0
   36.6290   28.0690   30.1820 O   0  0  0  0  0  0  0  0  0  0  0  0
   35.9160   28.3260   32.7200 C   0  0  0  0  0  0  0  0  0  0  0  0
   36.0520   28.5360   34.0190 N   0  0  0  0  0  0  0  0  0  0  0  0
   34.9900   29.1570   34.4780 O   0  0  0  0  0  0  0  0  0  0  0  0
   34.1400   29.3680   33.5050 C   0  0  0  0  0  0  0  0  0  0  0  0
   34.7020   28.8590   32.4160 N   0  0  0  0  0  0  0  0  0  0  0  0
   32.8980   29.9680   33.4480 O   0  0  0  0  0  0  0  0  0  0  0  0
   32.3860   30.4320   34.7030 C   0  0  0  0  0  0  0  0  0  0  0  0
   38.3758   25.4520   32.7781 H   0  0  0  0  0  0  0  0  0  0  0  0
   37.8953   23.0124   32.9252 H   0  0  0  0  0  0  0  0  0  0  0  0
   34.2925   23.5058   30.6449 H   0  0  0  0  0  0  0  0  0  0  0  0
   34.7832   25.9059   30.5074 H   0  0  0  0  0  0  0  0  0  0  0  0
   36.1225   21.0844   29.9099 H   0  0  0  0  0  0  0  0  0  0  0  0
   35.6028   21.8785   34.1064 H   0  0  0  0  0  0  0  0  0  0  0  0
   35.3826   17.8901   32.5735 H   0  0  0  0  0  0  0  0  0  0  0  0
   32.9281   29.9407   35.5244 H   0  0  0  0  0  0  0  0  0  0  0  0
   32.5215   31.5213   34.7741 H   0  0  0  0  0  0  0  0  0  0  0  0
   31.3152   30.1903   34.7741 H   0  0  0  0  0  0  0  0  0  0  0  0
  1  2  2  0
  2  3  1  0
  4  8  1  0
  4  3  2  0
  5  4  1  0
  6  5  2  0
  6  1  1  0
  7 12  2  0
  7  8  1  0
  8  9  2  0
  9 10  1  0
 11 10  2  0
 12 11  1  0
 13  1  1  0
 13 14  2  0
 13 16  1  0
 15 13  2  0
 16 17  2  0
 17 18  1  0
 19 18  1  0
 20 16  1  0
 20 19  2  0
 21 19  1  0
 21 22  1  0
  2 23  1  0
  3 24  1  0
  5 25  1  0
  6 26  1  0
  7 27  1  0
  9 28  1  0
 11 29  1  0
 22 30  1  0
 22 31  1  0
 22 32  1  0
M  ISO  8  23  14  24  14  25  14  26  14  27  14  28  14  29  14  30   8
M  ISO  2  31   8  32   8
M  END
>  <minimizedAffinity>  (1) 
-5.01547527

>  <minimizedRMSD>  (1) 
0.0212637261

$$$$
