
     RDKit          3D

 23 24  0  0  1  0  0  0  0  0999 V2000
   38.8080   23.2370   38.2080 C   0  0  0  0  0  0  0  0  0  0  0  0
   39.5950   22.8620   37.0870 C   0  0  0  0  0  0  0  0  0  0  0  0
   39.5330   23.6970   35.9790 C   0  0  0  0  0  0  0  0  0  0  0  0
   38.7550   24.7980   36.0030 N   0  0  0  0  0  0  0  0  0  0  0  0
   38.0170   25.1190   37.0960 C   0  0  0  0  0  0  0  0  0  0  0  0
   38.0480   24.3370   38.1910 N   0  0  0  0  0  0  0  0  0  0  0  0
   40.3200   21.7120   37.2520 O   0  0  0  0  0  0  0  0  0  0  0  0
   42.1550   20.3810   37.9530 N   0  0  0  0  0  0  0  0  0  0  0  0
   43.1760   19.7330   37.1620 C   0  0  0  0  0  0  0  0  0  0  0  0
   43.6620   20.8730   36.2580 C   0  0  0  0  0  0  0  0  0  0  0  0
   42.2660   21.3570   35.8380 C   0  0  0  0  0  0  0  0  0  0  0  0
   41.6920   21.5480   37.2300 C   0  0  1  0  0  0  0  0  0  0  0  0
   38.8240   22.6084   39.1106 H   0  0  0  0  0  0  0  0  0  0  0  0
   40.1201   23.4596   35.0796 H   0  0  0  0  0  0  0  0  0  0  0  0
   37.3903   26.0230   37.0868 H   0  0  0  0  0  0  0  0  0  0  0  0
   41.3698   19.7325   38.1070 H   0  0  0  0  0  0  0  0  0  0  0  0
   43.9902   19.3531   37.7966 H   0  0  0  0  0  0  0  0  0  0  0  0
   42.8125   18.8554   36.6072 H   0  0  0  0  0  0  0  0  0  0  0  0
   44.2287   21.6386   36.8082 H   0  0  0  0  0  0  0  0  0  0  0  0
   44.3631   20.6086   35.4527 H   0  0  0  0  0  0  0  0  0  0  0  0
   42.3032   22.2972   35.2683 H   0  0  0  0  0  0  0  0  0  0  0  0
   41.7025   20.6926   35.1665 H   0  0  0  0  0  0  0  0  0  0  0  0
   42.0324   22.4855   37.6940 H   0  0  0  0  0  0  0  0  0  0  0  0
  2  7  1  0
  2  1  2  0
  3  4  2  0
  3  2  1  0
  4  5  1  0
  5  6  2  0
  6  1  1  0
  9  8  1  0
 10  9  1  0
 11 10  1  0
 11 12  1  0
 12  7  1  0
 12  8  1  0
  1 13  1  0
  3 14  1  0
  5 15  1  0
  8 16  1  0
  9 17  1  0
  9 18  1  0
 10 19  1  0
 10 20  1  0
 11 21  1  0
 11 22  1  0
 12 23  1  1
M  ISO  8  13  14  14  14  15  14  16   5  17  13  18  13  19  13  20  13
M  ISO  3  21  13  22  13  23  13
M  END
>  <minimizedAffinity>  (1) 
-3.64184451

>  <minimizedRMSD>  (1) 
5.53457642

$$$$
