
     RDKit          3D

 31 33  0  0  0  0  0  0  0  0999 V2000
   36.6040   25.8280   31.6400 C   0  0  0  0  0  0  0  0  0  0  0  0
   37.4630   25.0280   32.3290 C   0  0  0  0  0  0  0  0  0  0  0  0
   37.1930   23.6590   32.4090 C   0  0  0  0  0  0  0  0  0  0  0  0
   36.0680   23.0990   31.7970 C   0  0  0  0  0  0  0  0  0  0  0  0
   35.2080   23.9130   31.1040 C   0  0  0  0  0  0  0  0  0  0  0  0
   35.5090   25.2460   31.0510 C   0  0  0  0  0  0  0  0  0  0  0  0
   35.9370   20.7270   30.9370 C   0  0  0  0  0  0  0  0  0  0  0  0
   35.8910   21.6690   31.9470 C   0  0  0  0  0  0  0  0  0  0  0  0
   35.6470   21.1770   33.2560 C   0  0  0  0  0  0  0  0  0  0  0  0
   35.4750   19.8500   33.4490 N   0  0  0  0  0  0  0  0  0  0  0  0
   35.5310   18.9620   32.4020 C   0  0  0  0  0  0  0  0  0  0  0  0
   35.7670   19.4220   31.1300 N   0  0  0  0  0  0  0  0  0  0  0  0
   36.9580   27.5430   31.5500 S   0  0  0  0  0  0  0  0  0  0  0  0
   38.4060   27.7780   31.9070 O   0  0  0  0  0  0  0  0  0  0  0  0
   36.6490   28.0600   30.1910 O   0  0  0  0  0  0  0  0  0  0  0  0
   35.9070   28.3220   32.7160 C   0  0  0  0  0  0  0  0  0  0  0  0
   36.0360   28.5360   34.0150 N   0  0  0  0  0  0  0  0  0  0  0  0
   34.9860   29.1600   34.4660 O   0  0  0  0  0  0  0  0  0  0  0  0
   34.1400   29.3780   33.5020 C   0  0  0  0  0  0  0  0  0  0  0  0
   34.6970   28.8590   32.3920 N   0  0  0  0  0  0  0  0  0  0  0  0
   32.8870   29.9850   33.4030 O   0  0  0  0  0  0  0  0  0  0  0  0
   31.7290   29.3070   33.7540 C   0  0  0  0  0  0  0  0  0  0  0  0
   31.4060   28.2410   33.1300 O   0  0  0  0  0  0  0  0  0  0  0  0
   38.3545   25.4517   32.8146 H   0  0  0  0  0  0  0  0  0  0  0  0
   37.8818   23.0072   32.9665 H   0  0  0  0  0  0  0  0  0  0  0  0
   34.3117   23.5093   30.6104 H   0  0  0  0  0  0  0  0  0  0  0  0
   34.8222   25.9009   30.4947 H   0  0  0  0  0  0  0  0  0  0  0  0
   36.1256   21.0775   29.9115 H   0  0  0  0  0  0  0  0  0  0  0  0
   35.5982   21.8711   34.1080 H   0  0  0  0  0  0  0  0  0  0  0  0
   35.3873   17.8864   32.5822 H   0  0  0  0  0  0  0  0  0  0  0  0
   31.0917   29.6861   34.5665 H   0  0  0  0  0  0  0  0  0  0  0  0
  1  2  2  0
  2  3  1  0
  4  8  1  0
  4  3  2  0
  5  4  1  0
  6  5  2  0
  6  1  1  0
  7 12  2  0
  7  8  1  0
  8  9  2  0
  9 10  1  0
 11 10  2  0
 12 11  1  0
 13  1  1  0
 13 14  2  0
 13 16  1  0
 15 13  2  0
 16 17  2  0
 17 18  1  0
 19 18  1  0
 20 16  1  0
 20 19  2  0
 21 19  1  0
 21 22  1  0
 23 22  2  0
  2 24  1  0
  3 25  1  0
  5 26  1  0
  6 27  1  0
  7 28  1  0
  9 29  1  0
 11 30  1  0
 22 31  1  0
M  ISO  8  24  14  25  14  26  14  27  14  28  14  29  14  30  14  31   6
M  END
>  <minimizedAffinity>  (1) 
-5.07078028

>  <minimizedRMSD>  (1) 
0.89499104

$$$$
