
     RDKit          3D

 14 14  0  0  0  0  0  0  0  0999 V2000
   38.7620   22.1660   35.6400 C   0  0  0  0  0  0  0  0  0  0  0  0
   38.1040   23.3490   36.0350 C   0  0  0  0  0  0  0  0  0  0  0  0
   38.2390   24.4570   35.2060 C   0  0  0  0  0  0  0  0  0  0  0  0
   38.9840   24.3390   34.0890 N   0  0  0  0  0  0  0  0  0  0  0  0
   39.5990   23.2060   33.7390 C   0  0  0  0  0  0  0  0  0  0  0  0
   39.4900   22.1060   34.5180 N   0  0  0  0  0  0  0  0  0  0  0  0
   37.3900   23.2640   37.2120 O   0  0  0  0  0  0  0  0  0  0  0  0
   37.9120   23.5430   38.4680 C   0  0  0  0  0  0  0  0  0  0  0  0
   38.0330   24.7100   38.9730 O   0  0  0  0  0  0  0  0  0  0  0  0
   38.3510   22.4750   39.2670 O   0  0  0  0  0  0  0  0  0  0  0  0
   38.6748   21.2688   36.2704 H   0  0  0  0  0  0  0  0  0  0  0  0
   37.7485   25.4092   35.4563 H   0  0  0  0  0  0  0  0  0  0  0  0
   40.1952   23.1677   32.8154 H   0  0  0  0  0  0  0  0  0  0  0  0
   38.7266   22.6511   40.1659 H   0  0  0  0  0  0  0  0  0  0  0  0
  1  2  2  0
  2  7  1  0
  3  2  1  0
  4  3  2  0
  5  4  1  0
  5  6  2  0
  6  1  1  0
  7  8  1  0
  8  9  2  0
  8 10  1  0
  1 11  1  0
  3 12  1  0
  5 13  1  0
 10 14  1  0
M  ISO  4  11  14  12  14  13  14  14   3
M  END
>  <minimizedAffinity>  (1) 
-3.26224017

>  <minimizedRMSD>  (1) 
2.61777925

$$$$
