
     RDKit          3D

 20 20  0  0  0  0  0  0  0  0999 V2000
   38.5580   23.0510   34.2600 C   0  0  0  0  0  0  0  0  0  0  0  0
   37.6260   22.1040   34.7300 C   0  0  0  0  0  0  0  0  0  0  0  0
   37.2940   22.0960   36.0780 C   0  0  0  0  0  0  0  0  0  0  0  0
   37.9040   23.0140   36.8510 N   0  0  0  0  0  0  0  0  0  0  0  0
   38.7860   23.9070   36.3990 C   0  0  0  0  0  0  0  0  0  0  0  0
   39.1130   23.9250   35.1010 N   0  0  0  0  0  0  0  0  0  0  0  0
   37.1340   21.2660   33.7530 O   0  0  0  0  0  0  0  0  0  0  0  0
   35.8290   20.9940   33.3980 C   0  0  0  0  0  0  0  0  0  0  0  0
   35.3270   21.7450   32.1950 C   0  0  0  0  0  0  0  0  0  0  0  0
   35.5620   19.5180   33.1850 C   0  0  0  0  0  0  0  0  0  0  0  0
   38.8291   23.0695   33.1941 H   0  0  0  0  0  0  0  0  0  0  0  0
   36.5711   21.3779   36.4923 H   0  0  0  0  0  0  0  0  0  0  0  0
   39.2441   24.6278   37.0922 H   0  0  0  0  0  0  0  0  0  0  0  0
   35.2690   21.3508   34.2750 H   0  0  0  0  0  0  0  0  0  0  0  0
   34.7438   22.6175   32.5245 H   0  0  0  0  0  0  0  0  0  0  0  0
   36.1818   22.0824   31.5904 H   0  0  0  0  0  0  0  0  0  0  0  0
   34.6884   21.0842   31.5904 H   0  0  0  0  0  0  0  0  0  0  0  0
   35.4714   19.0173   34.1602 H   0  0  0  0  0  0  0  0  0  0  0  0
   34.6266   19.3924   32.6201 H   0  0  0  0  0  0  0  0  0  0  0  0
   36.3942   19.0726   32.6201 H   0  0  0  0  0  0  0  0  0  0  0  0
  1  2  2  0
  1  6  1  0
  2  3  1  0
  3  4  2  0
  5  4  1  0
  6  5  2  0
  7  2  1  0
  8  7  1  0
  9  8  1  0
 10  8  1  0
  1 11  1  0
  3 12  1  0
  5 13  1  0
  8 14  1  0
  9 15  1  0
  9 16  1  0
  9 17  1  0
 10 18  1  0
 10 19  1  0
 10 20  1  0
M  ISO  8  11  14  12  14  13  14  14   8  15   8  16   8  17   8  18   8
M  ISO  2  19   8  20   8
M  END
>  <minimizedAffinity>  (1) 
-2.7740581

>  <minimizedRMSD>  (1) 
5.83955193

$$$$
