
     RDKit          3D

 18 19  0  0  0  0  0  0  0  0999 V2000
   37.6380   22.0470   34.1420 C   0  0  0  0  0  0  0  0  0  0  0  0
   37.2520   21.8880   35.5060 C   0  0  0  0  0  0  0  0  0  0  0  0
   36.1350   21.1050   35.7610 C   0  0  0  0  0  0  0  0  0  0  0  0
   35.4830   20.5430   34.7090 N   0  0  0  0  0  0  0  0  0  0  0  0
   35.8680   20.7090   33.4380 C   0  0  0  0  0  0  0  0  0  0  0  0
   36.9450   21.4610   33.1690 N   0  0  0  0  0  0  0  0  0  0  0  0
   38.0450   22.5400   36.4220 O   0  0  0  0  0  0  0  0  0  0  0  0
   37.6120   23.1940   37.5840 C   0  0  0  0  0  0  0  0  0  0  0  0
   38.0180   24.5710   37.9130 C   0  0  0  0  0  0  0  0  0  0  0  0
   38.7310   23.4150   38.6130 C   0  0  0  0  0  0  0  0  0  0  0  0
   38.5167   22.6598   33.8922 H   0  0  0  0  0  0  0  0  0  0  0  0
   35.7851   20.9428   36.7912 H   0  0  0  0  0  0  0  0  0  0  0  0
   35.3058   20.2327   32.6212 H   0  0  0  0  0  0  0  0  0  0  0  0
   36.6161   22.7295   37.5352 H   0  0  0  0  0  0  0  0  0  0  0  0
   38.5576   25.1736   37.1676 H   0  0  0  0  0  0  0  0  0  0  0  0
   37.4837   25.4676   38.2603 H   0  0  0  0  0  0  0  0  0  0  0  0
   38.5536   23.2157   39.6801 H   0  0  0  0  0  0  0  0  0  0  0  0
   39.7729   23.0836   38.7342 H   0  0  0  0  0  0  0  0  0  0  0  0
  1  2  2  0
  2  3  1  0
  2  7  1  0
  4  3  2  0
  5  4  1  0
  6  5  2  0
  6  1  1  0
  7  8  1  0
  8  9  1  0
  8 10  1  0
  9 10  1  0
  1 11  1  0
  3 12  1  0
  5 13  1  0
  8 14  1  0
  9 15  1  0
  9 16  1  0
 10 17  1  0
 10 18  1  0
M  ISO  8  11  14  12  14  13  14  14  13  15  13  16  13  17  13  18  13
M  END
>  <minimizedAffinity>  (1) 
-3.14841557

>  <minimizedRMSD>  (1) 
3.4994545

$$$$
