
     RDKit          3D

 27 28  0  0  0  0  0  0  0  0999 V2000
   43.2210   20.8990   36.5800 C   0  0  0  0  0  0  0  0  0  0  0  0
   41.8780   21.1960   36.8990 C   0  0  0  0  0  0  0  0  0  0  0  0
   41.4560   22.5110   36.7460 C   0  0  0  0  0  0  0  0  0  0  0  0
   42.3590   23.4240   36.2980 N   0  0  0  0  0  0  0  0  0  0  0  0
   43.6410   23.1050   36.0010 C   0  0  0  0  0  0  0  0  0  0  0  0
   44.0600   21.8400   36.1460 N   0  0  0  0  0  0  0  0  0  0  0  0
   44.5280   24.1200   35.5380 N   0  0  0  0  0  0  0  0  0  0  0  0
   44.1250   25.0360   34.5400 C   0  0  0  0  0  0  0  0  0  0  0  0
   42.9960   24.8360   33.9310 N   0  0  0  0  0  0  0  0  0  0  0  0
   44.9630   26.1580   34.2240 N   0  0  0  0  0  0  0  0  0  0  0  0
   42.6990   25.5110   33.1880 H   0  0  0  0  0  0  0  0  0  0  0  0
   40.1090   22.9800   37.0300 C   0  0  0  0  0  0  0  0  0  0  0  0
   39.6720   22.9480   38.3350 C   0  0  0  0  0  0  0  0  0  0  0  0
   38.3970   23.3880   38.6390 C   0  0  0  0  0  0  0  0  0  0  0  0
   37.5450   23.8640   37.6410 C   0  0  0  0  0  0  0  0  0  0  0  0
   37.9790   23.8990   36.3290 C   0  0  0  0  0  0  0  0  0  0  0  0
   39.2500   23.4550   36.0650 C   0  0  0  0  0  0  0  0  0  0  0  0
   43.5838   19.8666   36.6922 H   0  0  0  0  0  0  0  0  0  0  0  0
   41.1907   20.4147   37.2557 H   0  0  0  0  0  0  0  0  0  0  0  0
   45.4756   24.1869   35.9361 H   0  0  0  0  0  0  0  0  0  0  0  0
   44.6737   26.8284   33.4975 H   0  0  0  0  0  0  0  0  0  0  0  0
   45.8535   26.2926   34.7238 H   0  0  0  0  0  0  0  0  0  0  0  0
   40.3331   22.5747   39.1310 H   0  0  0  0  0  0  0  0  0  0  0  0
   38.0491   23.3626   39.6822 H   0  0  0  0  0  0  0  0  0  0  0  0
   36.5327   24.2097   37.8974 H   0  0  0  0  0  0  0  0  0  0  0  0
   37.3275   24.2702   35.5241 H   0  0  0  0  0  0  0  0  0  0  0  0
   39.6025   23.4800   35.0233 H   0  0  0  0  0  0  0  0  0  0  0  0
  1  2  2  0
  3  2  1  0
  3 12  1  0
  4  3  2  0
  5  6  2  0
  5  4  1  0
  6  1  1  0
  7  5  1  0
  8  7  1  0
  9  8  2  0
 10  8  1  0
 11  9  1  0
 12 13  2  0
 13 14  1  0
 15 14  2  0
 16 15  1  0
 17 16  2  0
 17 12  1  0
  1 18  1  0
  2 19  1  0
  7 20  1  0
 10 21  1  0
 10 22  1  0
 13 23  1  0
 14 24  1  0
 15 25  1  0
 16 26  1  0
 17 27  1  0
M  ISO  7  18  14  19  14  23  14  24  14  25  14  26  14  27  14
M  END
>  <minimizedAffinity>  (1) 
-4.09939861

>  <minimizedRMSD>  (1) 
6.0069809

$$$$
