
     RDKit          3D

 15 15  0  0  0  0  0  0  0  0999 V2000
   37.8860   25.2490   36.2660 C   0  0  0  0  0  0  0  0  0  0  0  0
   37.9820   23.8490   36.1910 C   0  0  0  0  0  0  0  0  0  0  0  0
   38.1550   23.2960   34.9240 C   0  0  0  0  0  0  0  0  0  0  0  0
   38.2220   24.1240   33.8440 N   0  0  0  0  0  0  0  0  0  0  0  0
   38.1250   25.4700   33.9720 C   0  0  0  0  0  0  0  0  0  0  0  0
   37.9570   26.0330   35.1830 N   0  0  0  0  0  0  0  0  0  0  0  0
   37.8930   23.1760   37.3880 O   0  0  0  0  0  0  0  0  0  0  0  0
   38.8990   23.2240   38.3330 C   0  0  0  0  0  0  0  0  0  0  0  0
   40.0030   22.3580   38.0550 N   0  0  0  0  0  0  0  0  0  0  0  0
   38.8450   23.9730   39.3580 O   0  0  0  0  0  0  0  0  0  0  0  0
   37.7474   25.7182   37.2512 H   0  0  0  0  0  0  0  0  0  0  0  0
   38.2363   22.2063   34.7974 H   0  0  0  0  0  0  0  0  0  0  0  0
   38.1841   26.1081   33.0779 H   0  0  0  0  0  0  0  0  0  0  0  0
   40.8044   22.3216   38.7010 H   0  0  0  0  0  0  0  0  0  0  0  0
   39.9966   21.7708   37.2088 H   0  0  0  0  0  0  0  0  0  0  0  0
  2  1  2  0
  2  7  1  0
  3  2  1  0
  4  5  1  0
  4  3  2  0
  5  6  2  0
  6  1  1  0
  7  8  1  0
  8 10  2  0
  9  8  1  0
  1 11  1  0
  3 12  1  0
  5 13  1  0
  9 14  1  0
  9 15  1  0
M  ISO  3  11  14  12  14  13  14
M  END
>  <minimizedAffinity>  (1) 
-3.17366576

>  <minimizedRMSD>  (1) 
3.04190874

$$$$
