
     RDKit          3D

 17 17  0  0  0  0  0  0  0  0999 V2000
   39.5720   23.7200   35.6210 C   0  0  0  0  0  0  0  0  0  0  0  0
   39.5300   22.8740   36.7610 C   0  0  0  0  0  0  0  0  0  0  0  0
   38.7330   23.2720   37.8250 C   0  0  0  0  0  0  0  0  0  0  0  0
   38.0450   24.4270   37.7310 N   0  0  0  0  0  0  0  0  0  0  0  0
   38.1100   25.2070   36.6300 C   0  0  0  0  0  0  0  0  0  0  0  0
   38.8720   24.8440   35.5900 N   0  0  0  0  0  0  0  0  0  0  0  0
   40.2980   21.7250   36.6910 O   0  0  0  0  0  0  0  0  0  0  0  0
   41.4210   21.6810   37.5830 C   0  0  0  0  0  0  0  0  0  0  0  0
   42.4420   20.7300   37.0430 C   0  0  0  0  0  0  0  0  0  0  0  0
   40.1913   23.4393   34.7563 H   0  0  0  0  0  0  0  0  0  0  0  0
   38.6638   22.6536   38.7321 H   0  0  0  0  0  0  0  0  0  0  0  0
   37.5350   26.1438   36.5874 H   0  0  0  0  0  0  0  0  0  0  0  0
   41.8624   22.6849   37.6685 H   0  0  0  0  0  0  0  0  0  0  0  0
   41.0906   21.3432   38.5763 H   0  0  0  0  0  0  0  0  0  0  0  0
   42.9661   20.2418   37.8778 H   0  0  0  0  0  0  0  0  0  0  0  0
   41.9431   19.9673   36.4271 H   0  0  0  0  0  0  0  0  0  0  0  0
   43.1674   21.2817   36.4271 H   0  0  0  0  0  0  0  0  0  0  0  0
  1  2  2  0
  2  3  1  0
  4  3  2  0
  5  4  1  0
  6  1  1  0
  6  5  2  0
  7  2  1  0
  7  8  1  0
  9  8  1  0
  1 10  1  0
  3 11  1  0
  5 12  1  0
  8 13  1  0
  8 14  1  0
  9 15  1  0
  9 16  1  0
  9 17  1  0
M  ISO  8  10  14  11  14  12  14  13   8  14   8  15   8  16   8  17   8
M  END
>  <minimizedAffinity>  (1) 
-2.67035723

>  <minimizedRMSD>  (1) 
3.68610001

$$$$
