
     RDKit          3D

 30 31  0  0  0  0  0  0  0  0999 V2000
   42.4990   22.0020   36.6250 C   0  0  0  0  0  0  0  0  0  0  0  0
   43.2740   22.8860   35.7040 C   0  0  0  0  0  0  0  0  0  0  0  0
   44.4070   23.5200   36.3350 N   0  0  0  0  0  0  0  0  0  0  0  0
   44.1670   24.5130   37.2300 C   0  0  0  0  0  0  0  0  0  0  0  0
   45.2130   25.1430   37.8540 C   0  0  0  0  0  0  0  0  0  0  0  0
   44.8970   26.2280   38.8300 C   0  0  0  0  0  0  0  0  0  0  0  0
   46.4960   24.7530   37.5570 C   0  0  0  0  0  0  0  0  0  0  0  0
   47.4350   25.3490   38.1430 O   0  0  0  0  0  0  0  0  0  0  0  0
   46.7560   23.7590   36.6610 N   0  0  0  0  0  0  0  0  0  0  0  0
   45.7020   23.1790   36.0840 C   0  0  0  0  0  0  0  0  0  0  0  0
   45.8970   22.2510   35.2450 O   0  0  0  0  0  0  0  0  0  0  0  0
   41.2400   21.6890   36.0370 O   0  0  0  0  0  0  0  0  0  0  0  0
   38.9610   22.2900   35.8740 C   0  0  0  0  0  0  0  0  0  0  0  0
   40.1360   22.2590   36.6630 C   0  0  0  0  0  0  0  0  0  0  0  0
   40.0730   22.7830   37.9400 C   0  0  0  0  0  0  0  0  0  0  0  0
   38.8980   23.2960   38.3700 N   0  0  0  0  0  0  0  0  0  0  0  0
   37.7930   23.3120   37.5950 C   0  0  0  0  0  0  0  0  0  0  0  0
   37.8310   22.8100   36.3560 N   0  0  0  0  0  0  0  0  0  0  0  0
   43.0619   21.0736   36.8017 H   0  0  0  0  0  0  0  0  0  0  0  0
   42.3375   22.5213   37.5812 H   0  0  0  0  0  0  0  0  0  0  0  0
   42.6017   23.6702   35.3259 H   0  0  0  0  0  0  0  0  0  0  0  0
   43.6663   22.2495   34.8972 H   0  0  0  0  0  0  0  0  0  0  0  0
   43.1325   24.8122   37.4545 H   0  0  0  0  0  0  0  0  0  0  0  0
   45.0090   25.8436   39.8545 H   0  0  0  0  0  0  0  0  0  0  0  0
   45.5869   27.0710   38.6772 H   0  0  0  0  0  0  0  0  0  0  0  0
   43.8623   26.5687   38.6772 H   0  0  0  0  0  0  0  0  0  0  0  0
   47.7195   23.4697   36.4401 H   0  0  0  0  0  0  0  0  0  0  0  0
   38.9800   21.8811   34.8530 H   0  0  0  0  0  0  0  0  0  0  0  0
   40.9588   22.7829   38.5922 H   0  0  0  0  0  0  0  0  0  0  0  0
   36.8573   23.7397   37.9841 H   0  0  0  0  0  0  0  0  0  0  0  0
  2  3  1  0
  2  1  1  0
  3  4  1  0
  4  5  2  0
  5  6  1  0
  7  5  1  0
  7  8  2  0
  9  7  1  0
 10  3  1  0
 10  9  1  0
 11 10  2  0
 12  1  1  0
 12 14  1  0
 13 18  2  0
 13 14  1  0
 14 15  2  0
 15 16  1  0
 17 16  2  0
 18 17  1  0
  1 19  1  0
  1 20  1  0
  2 21  1  0
  2 22  1  0
  4 23  1  0
  6 24  1  0
  6 25  1  0
  6 26  1  0
  9 27  1  0
 13 28  1  0
 15 29  1  0
 17 30  1  0
M  ISO  8  19   8  20   8  21   8  22   8  23  14  24   8  25   8  26   8
M  ISO  4  27   9  28  14  29  14  30  14
M  END
>  <minimizedAffinity>  (1) 
-4.42334652

>  <minimizedRMSD>  (1) 
3.79726434

$$$$
