
     RDKit          3D

 24 25  0  0  0  0  0  0  0  0999 V2000
   41.3700   21.7130   37.3840 C   0  0  0  0  0  0  0  0  0  0  0  0
   42.4530   21.8470   36.3460 C   0  0  0  0  0  0  0  0  0  0  0  0
   43.4560   20.7530   36.4970 C   0  0  0  0  0  0  0  0  0  0  0  0
   43.4730   19.5620   37.0760 C   0  0  0  0  0  0  0  0  0  0  0  0
   44.5770   18.7590   37.0450 C   0  0  0  0  0  0  0  0  0  0  0  0
   45.6740   19.2700   36.3700 C   0  0  0  0  0  0  0  0  0  0  0  0
   45.0540   20.9560   35.7820 S   0  0  0  0  0  0  0  0  0  0  0  0
   40.0990   21.7420   36.7390 O   0  0  0  0  0  0  0  0  0  0  0  0
   39.1610   23.7300   35.8440 C   0  0  0  0  0  0  0  0  0  0  0  0
   39.3430   22.8720   36.9540 C   0  0  0  0  0  0  0  0  0  0  0  0
   38.7530   23.2380   38.1500 C   0  0  0  0  0  0  0  0  0  0  0  0
   38.0340   24.3860   38.2110 N   0  0  0  0  0  0  0  0  0  0  0  0
   37.8820   25.1810   37.1290 C   0  0  0  0  0  0  0  0  0  0  0  0
   38.4460   24.8500   35.9500 N   0  0  0  0  0  0  0  0  0  0  0  0
   41.4894   20.7598   37.9199 H   0  0  0  0  0  0  0  0  0  0  0  0
   41.4401   22.5435   38.1019 H   0  0  0  0  0  0  0  0  0  0  0  0
   42.9547   22.8182   36.4688 H   0  0  0  0  0  0  0  0  0  0  0  0
   41.9994   21.7798   35.3462 H   0  0  0  0  0  0  0  0  0  0  0  0
   42.5710   19.2092   37.5974 H   0  0  0  0  0  0  0  0  0  0  0  0
   44.5944   17.7695   37.5253 H   0  0  0  0  0  0  0  0  0  0  0  0
   46.6606   18.8090   36.2149 H   0  0  0  0  0  0  0  0  0  0  0  0
   39.6170   23.4686   34.8777 H   0  0  0  0  0  0  0  0  0  0  0  0
   38.8658   22.6046   39.0423 H   0  0  0  0  0  0  0  0  0  0  0  0
   37.2929   26.1064   37.2108 H   0  0  0  0  0  0  0  0  0  0  0  0
  2  3  1  0
  2  1  1  0
  3  4  2  0
  5  4  1  0
  6  5  2  0
  7  6  1  0
  7  3  1  0
  8 10  1  0
  8  1  1  0
  9 14  2  0
  9 10  1  0
 10 11  2  0
 11 12  1  0
 13 12  2  0
 14 13  1  0
  1 15  1  0
  1 16  1  0
  2 17  1  0
  2 18  1  0
  4 19  1  0
  5 20  1  0
  6 21  1  0
  9 22  1  0
 11 23  1  0
 13 24  1  0
M  ISO  8  15   8  16   8  17   8  18   8  19  14  20  14  21  14  22  14
M  ISO  2  23  14  24  14
M  END
>  <minimizedAffinity>  (1) 
-3.10314417

>  <minimizedRMSD>  (1) 
2.31530905

$$$$
