
     RDKit          3D

 18 18  0  0  0  0  0  0  0  0999 V2000
   40.1940   22.5000   37.0810 C   0  0  0  0  0  0  0  0  0  0  0  0
   39.6360   23.3170   38.0600 C   0  0  0  0  0  0  0  0  0  0  0  0
   38.2530   23.5430   37.9720 C   0  0  0  0  0  0  0  0  0  0  0  0
   37.5460   22.9580   36.9470 N   0  0  0  0  0  0  0  0  0  0  0  0
   38.1330   22.1820   36.0340 C   0  0  0  0  0  0  0  0  0  0  0  0
   39.4670   21.9580   36.1120 N   0  0  0  0  0  0  0  0  0  0  0  0
   37.3920   21.5860   34.9850 N   0  0  0  0  0  0  0  0  0  0  0  0
   36.1450   20.9490   35.2880 C   0  0  0  0  0  0  0  0  0  0  0  0
   35.8080   20.7670   36.5430 N   0  0  0  0  0  0  0  0  0  0  0  0
   35.2840   20.5220   34.2200 N   0  0  0  0  0  0  0  0  0  0  0  0
   34.9030   20.2980   36.7290 H   0  0  0  0  0  0  0  0  0  0  0  0
   37.5010   24.3180   38.8340 O   0  0  0  0  0  0  0  0  0  0  0  0
   41.2746   22.2966   37.1115 H   0  0  0  0  0  0  0  0  0  0  0  0
   40.2460   23.7619   38.8600 H   0  0  0  0  0  0  0  0  0  0  0  0
   37.7445   21.6101   34.0175 H   0  0  0  0  0  0  0  0  0  0  0  0
   34.3867   20.0637   34.4338 H   0  0  0  0  0  0  0  0  0  0  0  0
   35.5640   20.6742   33.2406 H   0  0  0  0  0  0  0  0  0  0  0  0
   36.5268   24.4172   38.6884 H   0  0  0  0  0  0  0  0  0  0  0  0
  1  2  2  0
  3  2  1  0
  3 12  1  0
  4  3  2  0
  5  6  2  0
  5  4  1  0
  6  1  1  0
  7  8  1  0
  7  5  1  0
  8  9  2  0
  9 11  1  0
 10  8  1  0
  1 13  1  0
  2 14  1  0
  7 15  1  0
 10 16  1  0
 10 17  1  0
 12 18  1  0
M  ISO  3  13  14  14  14  18   3
M  END
>  <minimizedAffinity>  (1) 
-3.93219852

>  <minimizedRMSD>  (1) 
0.44525072

$$$$
