
     RDKit          3D

 19 19  0  0  0  0  0  0  0  0999 V2000
   40.1660   22.2810   36.4370 C   0  0  0  0  0  0  0  0  0  0  0  0
   39.6120   22.9690   37.5390 C   0  0  0  0  0  0  0  0  0  0  0  0
   38.2360   23.1980   37.5110 C   0  0  0  0  0  0  0  0  0  0  0  0
   37.5220   22.7510   36.4380 N   0  0  0  0  0  0  0  0  0  0  0  0
   38.0810   22.1060   35.4140 C   0  0  0  0  0  0  0  0  0  0  0  0
   39.4030   21.8690   35.4110 N   0  0  0  0  0  0  0  0  0  0  0  0
   37.3020   21.6550   34.3090 N   0  0  0  0  0  0  0  0  0  0  0  0
   36.0600   21.0180   34.5460 C   0  0  0  0  0  0  0  0  0  0  0  0
   35.7270   20.6960   35.7700 N   0  0  0  0  0  0  0  0  0  0  0  0
   35.1760   20.7290   33.4370 N   0  0  0  0  0  0  0  0  0  0  0  0
   34.8340   20.1870   35.9140 H   0  0  0  0  0  0  0  0  0  0  0  0
   37.5850   23.9010   38.6100 C   0  0  0  0  0  0  0  0  0  0  0  0
   38.0520   24.9990   38.9980 O   0  0  0  0  0  0  0  0  0  0  0  0
   41.2469   22.0779   36.4184 H   0  0  0  0  0  0  0  0  0  0  0  0
   40.2356   23.3081   38.3793 H   0  0  0  0  0  0  0  0  0  0  0  0
   37.6399   21.7914   33.3456 H   0  0  0  0  0  0  0  0  0  0  0  0
   34.2718   20.2657   33.6063 H   0  0  0  0  0  0  0  0  0  0  0  0
   35.4511   20.9867   32.4784 H   0  0  0  0  0  0  0  0  0  0  0  0
   36.6943   23.4735   39.0936 H   0  0  0  0  0  0  0  0  0  0  0  0
  1  2  2  0
  3  2  1  0
  3 12  1  0
  4  3  2  0
  5  4  1  0
  6  5  2  0
  6  1  1  0
  7  8  1  0
  7  5  1  0
  8  9  2  0
  9 11  1  0
 10  8  1  0
 12 13  2  0
  1 14  1  0
  2 15  1  0
  7 16  1  0
 10 17  1  0
 10 18  1  0
 12 19  1  0
M  ISO  3  14  14  15  14  19   6
M  END
>  <minimizedAffinity>  (1) 
-3.86611295

>  <minimizedRMSD>  (1) 
0.895469487

$$$$
