
     RDKit          3D

 34 36  0  0  0  0  0  0  0  0999 V2000
   44.4210   23.2460   34.7270 C   0  0  0  0  0  0  0  0  0  0  0  0
   45.4780   23.4860   35.7410 C   0  0  0  0  0  0  0  0  0  0  0  0
   46.7300   22.9040   35.7760 C   0  0  0  0  0  0  0  0  0  0  0  0
   47.4600   23.3310   36.8270 N   0  0  0  0  0  0  0  0  0  0  0  0
   46.6900   24.2000   37.4930 C   0  0  0  0  0  0  0  0  0  0  0  0
   46.8630   24.9610   38.6290 C   0  0  0  0  0  0  0  0  0  0  0  0
   45.9120   25.8060   39.1450 C   0  0  0  0  0  0  0  0  0  0  0  0
   44.7050   25.9020   38.4840 C   0  0  0  0  0  0  0  0  0  0  0  0
   44.5180   25.1530   37.3570 C   0  0  0  0  0  0  0  0  0  0  0  0
   45.4650   24.3070   36.8360 C   0  0  0  0  0  0  0  0  0  0  0  0
   43.4870   22.1720   35.1220 C   0  0  0  0  0  0  0  0  0  0  0  0
   42.1580   22.4810   34.7380 O   0  0  0  0  0  0  0  0  0  0  0  0
   40.1170   23.4080   35.3730 C   0  0  0  0  0  0  0  0  0  0  0  0
   41.2460   22.6620   35.7420 C   0  0  0  0  0  0  0  0  0  0  0  0
   41.3190   22.2050   37.0240 C   0  0  0  0  0  0  0  0  0  0  0  0
   40.3140   22.4790   37.8970 N   0  0  0  0  0  0  0  0  0  0  0  0
   39.2340   23.2000   37.5230 C   0  0  0  0  0  0  0  0  0  0  0  0
   39.1520   23.6520   36.2730 N   0  0  0  0  0  0  0  0  0  0  0  0
   38.1700   23.4740   38.4980 C   0  0  0  0  0  0  0  0  0  0  0  0
   37.9720   24.6740   38.8560 O   0  0  0  0  0  0  0  0  0  0  0  0
   37.4130   22.4300   39.0030 O   0  0  0  0  0  0  0  0  0  0  0  0
   44.9008   22.9641   33.7782 H   0  0  0  0  0  0  0  0  0  0  0  0
   43.8384   24.1737   34.6276 H   0  0  0  0  0  0  0  0  0  0  0  0
   47.0900   22.1769   35.0333 H   0  0  0  0  0  0  0  0  0  0  0  0
   48.4195   23.0451   37.0690 H   0  0  0  0  0  0  0  0  0  0  0  0
   47.8254   24.8865   39.1564 H   0  0  0  0  0  0  0  0  0  0  0  0
   46.1065   26.3886   40.0575 H   0  0  0  0  0  0  0  0  0  0  0  0
   43.9112   26.5665   38.8559 H   0  0  0  0  0  0  0  0  0  0  0  0
   43.5521   25.2325   36.8367 H   0  0  0  0  0  0  0  0  0  0  0  0
   43.7922   21.2341   34.6350 H   0  0  0  0  0  0  0  0  0  0  0  0
   43.5180   22.0688   36.2167 H   0  0  0  0  0  0  0  0  0  0  0  0
   40.0227   23.7927   34.3468 H   0  0  0  0  0  0  0  0  0  0  0  0
   42.1887   21.6162   37.3511 H   0  0  0  0  0  0  0  0  0  0  0  0
   36.6953   22.6117   39.6602 H   0  0  0  0  0  0  0  0  0  0  0  0
  1 11  1  0
  1  2  1  0
  2  3  2  0
  2 10  1  0
  3  4  1  0
  4  5  1  0
  5  6  2  0
  6  7  1  0
  8  7  2  0
  9  8  1  0
 10  9  2  0
 10  5  1  0
 12 11  1  0
 12 14  1  0
 13 14  2  0
 13 18  1  0
 14 15  1  0
 15 16  2  0
 17 16  1  0
 17 19  1  0
 18 17  2  0
 19 20  2  0
 19 21  1  0
  1 22  1  0
  1 23  1  0
  3 24  1  0
  4 25  1  0
  6 26  1  0
  7 27  1  0
  8 28  1  0
  9 29  1  0
 11 30  1  0
 11 31  1  0
 13 32  1  0
 15 33  1  0
 21 34  1  0
M  ISO  8  22   8  23   8  24  14  25   9  26  14  27  14  28  14  29  14
M  ISO  5  30   8  31   8  32  14  33  14  34   3
M  END
>  <minimizedAffinity>  (1) 
-5.47619963

>  <minimizedRMSD>  (1) 
1.42911792

$$$$
