
     RDKit          3D

 41 44  0  0  0  0  0  0  0  0999 V2000
   42.0210   24.4610   35.3010 C   0  0  0  0  0  0  0  0  0  0  0  0
   43.1060   25.4640   35.2010 C   0  0  0  0  0  0  0  0  0  0  0  0
   44.4230   24.9140   35.6250 C   0  0  0  0  0  0  0  0  0  0  0  0
   45.2810   24.1410   34.8780 C   0  0  0  0  0  0  0  0  0  0  0  0
   46.3850   23.8080   35.5510 N   0  0  0  0  0  0  0  0  0  0  0  0
   46.2720   24.3640   36.7660 C   0  0  0  0  0  0  0  0  0  0  0  0
   47.0760   24.3800   37.8890 C   0  0  0  0  0  0  0  0  0  0  0  0
   46.7550   25.0280   39.0550 C   0  0  0  0  0  0  0  0  0  0  0  0
   45.5570   25.7040   39.1010 C   0  0  0  0  0  0  0  0  0  0  0  0
   44.7470   25.6980   37.9970 C   0  0  0  0  0  0  0  0  0  0  0  0
   45.0720   25.0480   36.8320 C   0  0  0  0  0  0  0  0  0  0  0  0
   40.7440   25.0700   35.1890 O   0  0  0  0  0  0  0  0  0  0  0  0
   39.6460   23.0040   35.0440 C   0  0  0  0  0  0  0  0  0  0  0  0
   39.7480   24.3440   34.6190 C   0  0  0  0  0  0  0  0  0  0  0  0
   38.8410   24.7910   33.6770 C   0  0  0  0  0  0  0  0  0  0  0  0
   37.8970   23.9390   33.2000 N   0  0  0  0  0  0  0  0  0  0  0  0
   37.8280   22.6590   33.6290 C   0  0  0  0  0  0  0  0  0  0  0  0
   38.6940   22.1980   34.5410 N   0  0  0  0  0  0  0  0  0  0  0  0
   36.7790   21.8180   33.0590 C   0  0  0  0  0  0  0  0  0  0  0  0
   36.3350   21.9940   31.7630 C   0  0  0  0  0  0  0  0  0  0  0  0
   35.3310   21.1820   31.2280 C   0  0  0  0  0  0  0  0  0  0  0  0
   34.7750   20.1890   32.0110 C   0  0  0  0  0  0  0  0  0  0  0  0
   35.2350   20.0350   33.3010 C   0  0  0  0  0  0  0  0  0  0  0  0
   36.2330   20.8290   33.8580 C   0  0  0  0  0  0  0  0  0  0  0  0
   42.1387   23.7240   34.4929 H   0  0  0  0  0  0  0  0  0  0  0  0
   42.0882   23.9737   36.2849 H   0  0  0  0  0  0  0  0  0  0  0  0
   43.1824   25.7999   34.1563 H   0  0  0  0  0  0  0  0  0  0  0  0
   42.8569   26.2982   35.8733 H   0  0  0  0  0  0  0  0  0  0  0  0
   45.0801   23.8316   33.8417 H   0  0  0  0  0  0  0  0  0  0  0  0
   47.1690   23.2366   35.2051 H   0  0  0  0  0  0  0  0  0  0  0  0
   48.0332   23.8396   37.8459 H   0  0  0  0  0  0  0  0  0  0  0  0
   47.4312   25.0080   39.9224 H   0  0  0  0  0  0  0  0  0  0  0  0
   45.2545   26.2415   40.0118 H   0  0  0  0  0  0  0  0  0  0  0  0
   43.7908   26.2395   38.0457 H   0  0  0  0  0  0  0  0  0  0  0  0
   40.3508   22.6142   35.7932 H   0  0  0  0  0  0  0  0  0  0  0  0
   38.8833   25.8293   33.3162 H   0  0  0  0  0  0  0  0  0  0  0  0
   36.7787   22.7860   31.1419 H   0  0  0  0  0  0  0  0  0  0  0  0
   34.9871   21.3321   30.1940 H   0  0  0  0  0  0  0  0  0  0  0  0
   33.9835   19.5363   31.6141 H   0  0  0  0  0  0  0  0  0  0  0  0
   34.7904   19.2437   33.9224 H   0  0  0  0  0  0  0  0  0  0  0  0
   36.5743   20.6764   34.8925 H   0  0  0  0  0  0  0  0  0  0  0  0
  2  1  1  0
  2  3  1  0
  3 11  1  0
  4  5  1  0
  4  3  2  0
  5  6  1  0
  6 11  2  0
  6  7  1  0
  7  8  2  0
  8  9  1  0
 10  9  2  0
 11 10  1  0
 12  1  1  0
 14 13  2  0
 14 12  1  0
 15 14  1  0
 16 17  1  0
 16 15  2  0
 17 18  2  0
 18 13  1  0
 19 17  1  0
 19 24  1  0
 20 19  2  0
 21 20  1  0
 21 22  2  0
 22 23  1  0
 23 24  2  0
  1 25  1  0
  1 26  1  0
  2 27  1  0
  2 28  1  0
  4 29  1  0
  5 30  1  0
  7 31  1  0
  8 32  1  0
  9 33  1  0
 10 34  1  0
 13 35  1  0
 15 36  1  0
 20 37  1  0
 21 38  1  0
 22 39  1  0
 23 40  1  0
 24 41  1  0
M  ISO  8  25   8  26   8  27   8  28   8  29  14  30   9  31  14  32  14
M  ISO  8  33  14  34  14  35  14  36  14  37  14  38  14  39  14  40  14
M  ISO  1  41  14
M  END
>  <minimizedAffinity>  (1) 
-5.62588549

>  <minimizedRMSD>  (1) 
4.76832867

$$$$
