
     RDKit          3D

 37 39  0  0  0  0  0  0  0  0999 V2000
   44.0940   22.9000   35.0810 C   0  0  0  0  0  0  0  0  0  0  0  0
   45.2450   23.2630   35.9440 C   0  0  0  0  0  0  0  0  0  0  0  0
   46.5140   22.7200   35.9090 C   0  0  0  0  0  0  0  0  0  0  0  0
   47.3280   23.2620   36.8170 N   0  0  0  0  0  0  0  0  0  0  0  0
   46.5990   24.1870   37.4750 C   0  0  0  0  0  0  0  0  0  0  0  0
   46.8810   25.0620   38.5080 C   0  0  0  0  0  0  0  0  0  0  0  0
   45.9710   25.9360   39.0370 C   0  0  0  0  0  0  0  0  0  0  0  0
   44.7020   25.9410   38.5090 C   0  0  0  0  0  0  0  0  0  0  0  0
   44.4110   25.0750   37.4830 C   0  0  0  0  0  0  0  0  0  0  0  0
   45.3180   24.1960   36.9470 C   0  0  0  0  0  0  0  0  0  0  0  0
   43.4010   21.6730   35.5540 C   0  0  0  0  0  0  0  0  0  0  0  0
   42.0790   21.6170   35.0620 O   0  0  0  0  0  0  0  0  0  0  0  0
   39.8510   22.3280   35.2460 C   0  0  0  0  0  0  0  0  0  0  0  0
   41.0750   22.0670   35.8830 C   0  0  0  0  0  0  0  0  0  0  0  0
   41.1590   22.2780   37.2410 C   0  0  0  0  0  0  0  0  0  0  0  0
   40.0730   22.7270   37.9210 N   0  0  0  0  0  0  0  0  0  0  0  0
   38.9050   22.9690   37.2670 C   0  0  0  0  0  0  0  0  0  0  0  0
   38.8000   22.7720   35.9540 N   0  0  0  0  0  0  0  0  0  0  0  0
   37.7040   23.4680   38.0280 C   0  0  0  0  0  0  0  0  0  0  0  0
   38.0100   24.7210   38.7800 C   0  0  0  0  0  0  0  0  0  0  0  0
   44.4591   22.7282   34.0577 H   0  0  0  0  0  0  0  0  0  0  0  0
   43.3722   23.7293   35.1152 H   0  0  0  0  0  0  0  0  0  0  0  0
   46.8202   21.9280   35.2098 H   0  0  0  0  0  0  0  0  0  0  0  0
   48.3159   23.0220   36.9825 H   0  0  0  0  0  0  0  0  0  0  0  0
   47.8971   25.0549   38.9293 H   0  0  0  0  0  0  0  0  0  0  0  0
   46.2462   26.6133   39.8589 H   0  0  0  0  0  0  0  0  0  0  0  0
   43.9345   26.6250   38.9003 H   0  0  0  0  0  0  0  0  0  0  0  0
   43.3926   25.0870   37.0674 H   0  0  0  0  0  0  0  0  0  0  0  0
   43.9536   20.7894   35.2019 H   0  0  0  0  0  0  0  0  0  0  0  0
   43.3653   21.6924   36.6532 H   0  0  0  0  0  0  0  0  0  0  0  0
   39.7528   22.1680   34.1621 H   0  0  0  0  0  0  0  0  0  0  0  0
   42.1021   22.0836   37.7728 H   0  0  0  0  0  0  0  0  0  0  0  0
   36.8892   23.6687   37.3168 H   0  0  0  0  0  0  0  0  0  0  0  0
   37.4114   22.6947   38.7535 H   0  0  0  0  0  0  0  0  0  0  0  0
   37.9612   24.5213   39.8606 H   0  0  0  0  0  0  0  0  0  0  0  0
   39.0196   25.0694   38.5167 H   0  0  0  0  0  0  0  0  0  0  0  0
   37.2746   25.4955   38.5167 H   0  0  0  0  0  0  0  0  0  0  0  0
  1 11  1  0
  1  2  1  0
  2 10  1  0
  3  2  2  0
  3  4  1  0
  4  5  1  0
  5  6  2  0
  6  7  1  0
  8  7  2  0
  9  8  1  0
 10  5  1  0
 10  9  2  0
 12 11  1  0
 12 14  1  0
 13 14  2  0
 13 18  1  0
 14 15  1  0
 15 16  2  0
 17 16  1  0
 17 19  1  0
 18 17  2  0
 19 20  1  0
  1 21  1  0
  1 22  1  0
  3 23  1  0
  4 24  1  0
  6 25  1  0
  7 26  1  0
  8 27  1  0
  9 28  1  0
 11 29  1  0
 11 30  1  0
 13 31  1  0
 15 32  1  0
 19 33  1  0
 19 34  1  0
 20 35  1  0
 20 36  1  0
 20 37  1  0
M  ISO  8  21   8  22   8  23  14  24   9  25  14  26  14  27  14  28  14
M  ISO  8  29   8  30   8  31  14  32  14  33   8  34   8  35   8  36   8
M  ISO  1  37   8
M  END
>  <minimizedAffinity>  (1) 
-5.06418276

>  <minimizedRMSD>  (1) 
1.37452614

$$$$
