
     RDKit          3D

 39 42  0  0  0  0  0  0  0  0999 V2000
   42.0150   24.4460   35.2770 C   0  0  0  0  0  0  0  0  0  0  0  0
   43.1030   25.4650   35.1960 C   0  0  0  0  0  0  0  0  0  0  0  0
   44.4120   24.9140   35.6140 C   0  0  0  0  0  0  0  0  0  0  0  0
   45.2700   24.1370   34.8690 C   0  0  0  0  0  0  0  0  0  0  0  0
   46.3730   23.8060   35.5490 N   0  0  0  0  0  0  0  0  0  0  0  0
   46.2740   24.3550   36.7560 C   0  0  0  0  0  0  0  0  0  0  0  0
   47.0680   24.3790   37.8880 C   0  0  0  0  0  0  0  0  0  0  0  0
   46.7490   25.0270   39.0460 C   0  0  0  0  0  0  0  0  0  0  0  0
   45.5560   25.7070   39.0980 C   0  0  0  0  0  0  0  0  0  0  0  0
   44.7440   25.7030   37.9940 C   0  0  0  0  0  0  0  0  0  0  0  0
   45.0660   25.0490   36.8280 C   0  0  0  0  0  0  0  0  0  0  0  0
   40.7440   25.0530   35.2280 O   0  0  0  0  0  0  0  0  0  0  0  0
   39.6230   23.0100   35.0210 C   0  0  0  0  0  0  0  0  0  0  0  0
   39.7390   24.3550   34.6260 C   0  0  0  0  0  0  0  0  0  0  0  0
   38.8410   24.8220   33.6860 C   0  0  0  0  0  0  0  0  0  0  0  0
   37.8920   23.9830   33.1840 N   0  0  0  0  0  0  0  0  0  0  0  0
   37.8220   22.6980   33.5970 C   0  0  0  0  0  0  0  0  0  0  0  0
   38.6710   22.2150   34.5000 N   0  0  0  0  0  0  0  0  0  0  0  0
   36.7920   21.8340   33.0340 C   0  0  0  0  0  0  0  0  0  0  0  0
   36.3580   22.0150   31.7370 C   0  0  0  0  0  0  0  0  0  0  0  0
   35.3710   21.2040   31.1690 C   0  0  0  0  0  0  0  0  0  0  0  0
   34.8700   20.2440   31.9450 N   0  0  0  0  0  0  0  0  0  0  0  0
   35.2680   20.0390   33.2080 C   0  0  0  0  0  0  0  0  0  0  0  0
   36.2300   20.8400   33.7450 N   0  0  0  0  0  0  0  0  0  0  0  0
   42.1126   23.7489   34.4317 H   0  0  0  0  0  0  0  0  0  0  0  0
   42.1091   23.9111   36.2336 H   0  0  0  0  0  0  0  0  0  0  0  0
   43.1819   25.8183   34.1573 H   0  0  0  0  0  0  0  0  0  0  0  0
   42.8479   26.2890   35.8786 H   0  0  0  0  0  0  0  0  0  0  0  0
   45.0712   23.8243   33.8333 H   0  0  0  0  0  0  0  0  0  0  0  0
   47.1546   23.2320   35.2019 H   0  0  0  0  0  0  0  0  0  0  0  0
   48.0247   23.8373   37.8526 H   0  0  0  0  0  0  0  0  0  0  0  0
   47.4268   25.0056   39.9121 H   0  0  0  0  0  0  0  0  0  0  0  0
   45.2580   26.2452   40.0099 H   0  0  0  0  0  0  0  0  0  0  0  0
   43.7900   26.2485   38.0429 H   0  0  0  0  0  0  0  0  0  0  0  0
   40.3210   22.6022   35.7669 H   0  0  0  0  0  0  0  0  0  0  0  0
   38.8918   25.8664   33.3443 H   0  0  0  0  0  0  0  0  0  0  0  0
   36.8011   22.8202   31.1327 H   0  0  0  0  0  0  0  0  0  0  0  0
   35.0260   21.3510   30.1349 H   0  0  0  0  0  0  0  0  0  0  0  0
   34.8217   19.2308   33.8060 H   0  0  0  0  0  0  0  0  0  0  0  0
  2  1  1  0
  2  3  1  0
  3 11  1  0
  4  5  1  0
  4  3  2  0
  5  6  1  0
  6 11  2  0
  6  7  1  0
  7  8  2  0
  8  9  1  0
 10  9  2  0
 11 10  1  0
 12  1  1  0
 14 13  2  0
 14 12  1  0
 15 14  1  0
 16 17  1  0
 16 15  2  0
 17 18  2  0
 18 13  1  0
 19 17  1  0
 19 24  1  0
 20 19  2  0
 21 20  1  0
 21 22  2  0
 22 23  1  0
 23 24  2  0
  1 25  1  0
  1 26  1  0
  2 27  1  0
  2 28  1  0
  4 29  1  0
  5 30  1  0
  7 31  1  0
  8 32  1  0
  9 33  1  0
 10 34  1  0
 13 35  1  0
 15 36  1  0
 20 37  1  0
 21 38  1  0
 23 39  1  0
M  ISO  8  25   8  26   8  27   8  28   8  29  14  30   9  31  14  32  14
M  ISO  7  33  14  34  14  35  14  36  14  37  14  38  14  39  14
M  END
>  <minimizedAffinity>  (1) 
-5.21321487

>  <minimizedRMSD>  (1) 
4.76546955

$$$$
