
     RDKit          3D

 39 42  0  0  0  0  0  0  0  0999 V2000
   41.8260   23.0170   36.5140 C   0  0  0  0  0  0  0  0  0  0  0  0
   42.6410   24.1070   35.9370 C   0  0  0  0  0  0  0  0  0  0  0  0
   44.0970   23.9110   36.1540 C   0  0  0  0  0  0  0  0  0  0  0  0
   44.9470   23.0910   35.4570 C   0  0  0  0  0  0  0  0  0  0  0  0
   46.2030   23.1460   35.9060 N   0  0  0  0  0  0  0  0  0  0  0  0
   46.2100   24.0210   36.9290 C   0  0  0  0  0  0  0  0  0  0  0  0
   47.1790   24.5010   37.7850 C   0  0  0  0  0  0  0  0  0  0  0  0
   46.9460   25.4160   38.7820 C   0  0  0  0  0  0  0  0  0  0  0  0
   45.6640   25.8800   38.9300 C   0  0  0  0  0  0  0  0  0  0  0  0
   44.6800   25.4150   38.0870 C   0  0  0  0  0  0  0  0  0  0  0  0
   44.9070   24.5020   37.0920 C   0  0  0  0  0  0  0  0  0  0  0  0
   40.4560   23.3450   36.5330 O   0  0  0  0  0  0  0  0  0  0  0  0
   38.3620   22.4720   35.9890 C   0  0  0  0  0  0  0  0  0  0  0  0
   39.6580   22.7810   35.5630 C   0  0  0  0  0  0  0  0  0  0  0  0
   39.9980   22.5010   34.2680 C   0  0  0  0  0  0  0  0  0  0  0  0
   39.0800   21.9430   33.4520 N   0  0  0  0  0  0  0  0  0  0  0  0
   37.8230   21.6520   33.8900 C   0  0  0  0  0  0  0  0  0  0  0  0
   37.4810   21.9240   35.1640 N   0  0  0  0  0  0  0  0  0  0  0  0
   36.8330   21.0460   32.9960 C   0  0  0  0  0  0  0  0  0  0  0  0
   35.6950   20.4760   33.5710 C   0  0  0  0  0  0  0  0  0  0  0  0
   34.8300   19.9370   32.6550 C   0  0  0  0  0  0  0  0  0  0  0  0
   35.0050   19.9260   31.3350 N   0  0  0  0  0  0  0  0  0  0  0  0
   36.1370   20.5000   30.8460 C   0  0  0  0  0  0  0  0  0  0  0  0
   37.0280   21.0460   31.6650 N   0  0  0  0  0  0  0  0  0  0  0  0
   42.1617   22.8279   37.5443 H   0  0  0  0  0  0  0  0  0  0  0  0
   41.9559   22.1227   35.8868 H   0  0  0  0  0  0  0  0  0  0  0  0
   42.3403   25.0563   36.4043 H   0  0  0  0  0  0  0  0  0  0  0  0
   42.4651   24.1141   34.8512 H   0  0  0  0  0  0  0  0  0  0  0  0
   44.6279   22.4558   34.6176 H   0  0  0  0  0  0  0  0  0  0  0  0
   47.0102   22.6208   35.5406 H   0  0  0  0  0  0  0  0  0  0  0  0
   48.2058   24.1263   37.6609 H   0  0  0  0  0  0  0  0  0  0  0  0
   47.7577   25.7640   39.4378 H   0  0  0  0  0  0  0  0  0  0  0  0
   45.4249   26.6148   39.7128 H   0  0  0  0  0  0  0  0  0  0  0  0
   43.6571   25.7971   38.2197 H   0  0  0  0  0  0  0  0  0  0  0  0
   38.0687   22.6876   37.0270 H   0  0  0  0  0  0  0  0  0  0  0  0
   41.0081   22.7281   33.8963 H   0  0  0  0  0  0  0  0  0  0  0  0
   35.5107   20.4612   34.6553 H   0  0  0  0  0  0  0  0  0  0  0  0
   33.9115   19.4732   33.0438 H   0  0  0  0  0  0  0  0  0  0  0  0
   36.3161   20.5120   29.7608 H   0  0  0  0  0  0  0  0  0  0  0  0
  1 12  1  0
  2  3  1  0
  2  1  1  0
  3 11  1  0
  4  5  1  0
  4  3  2  0
  5  6  1  0
  6 11  2  0
  6  7  1  0
  7  8  2  0
  8  9  1  0
 10  9  2  0
 11 10  1  0
 14 13  2  0
 14 12  1  0
 15 14  1  0
 16 17  1  0
 16 15  2  0
 17 18  2  0
 18 13  1  0
 19 20  2  0
 19 17  1  0
 21 20  1  0
 22 21  2  0
 23 22  1  0
 23 24  2  0
 24 19  1  0
  1 25  1  0
  1 26  1  0
  2 27  1  0
  2 28  1  0
  4 29  1  0
  5 30  1  0
  7 31  1  0
  8 32  1  0
  9 33  1  0
 10 34  1  0
 13 35  1  0
 15 36  1  0
 20 37  1  0
 21 38  1  0
 23 39  1  0
M  ISO  8  25   8  26   8  27   8  28   8  29  14  30   9  31  14  32  14
M  ISO  7  33  14  34  14  35  14  36  14  37  14  38  14  39  14
M  END
>  <minimizedAffinity>  (1) 
-5.28368187

>  <minimizedRMSD>  (1) 
4.90845346

$$$$
