
     RDKit          3D

 29 30  0  0  0  0  0  0  0  0999 V2000
   42.2080   23.0840   35.9960 C   0  0  0  0  0  0  0  0  0  0  0  0
   46.1560   24.2810   37.0040 C   0  0  0  0  0  0  0  0  0  0  0  0
   45.1090   25.0620   37.4520 C   0  0  0  0  0  0  0  0  0  0  0  0
   43.7840   24.7390   37.1650 C   0  0  0  0  0  0  0  0  0  0  0  0
   43.5340   23.5960   36.4060 C   0  0  0  0  0  0  0  0  0  0  0  0
   44.6100   22.8420   35.9780 C   0  0  0  0  0  0  0  0  0  0  0  0
   45.9320   23.1420   36.2500 C   0  0  0  0  0  0  0  0  0  0  0  0
   47.7690   24.7990   37.4350 S   0  0  0  0  0  0  0  0  0  0  0  0
   47.7400   26.3130   37.4760 O   0  0  0  0  0  0  0  0  0  0  0  0
   48.1850   24.2850   38.7790 O   0  0  0  0  0  0  0  0  0  0  0  0
   41.5730   22.1700   37.0270 C   0  0  0  0  0  0  0  0  0  0  0  0
   40.1420   22.5230   37.1020 C   0  0  0  0  0  0  0  0  0  0  0  0
   39.5720   23.1410   38.2220 C   0  0  0  0  0  0  0  0  0  0  0  0
   38.1860   23.4240   38.1550 C   0  0  0  0  0  0  0  0  0  0  0  0
   37.4990   23.0910   37.0420 N   0  0  0  0  0  0  0  0  0  0  0  0
   38.1180   22.4890   35.9860 C   0  0  0  0  0  0  0  0  0  0  0  0
   39.4190   22.2040   36.0050 N   0  0  0  0  0  0  0  0  0  0  0  0
   41.5388   23.9411   35.8298 H   0  0  0  0  0  0  0  0  0  0  0  0
   42.3562   22.4907   35.0817 H   0  0  0  0  0  0  0  0  0  0  0  0
   45.3258   25.9599   38.0493 H   0  0  0  0  0  0  0  0  0  0  0  0
   42.9578   25.3685   37.5273 H   0  0  0  0  0  0  0  0  0  0  0  0
   44.4007   21.9424   35.3806 H   0  0  0  0  0  0  0  0  0  0  0  0
   46.7579   22.5120   35.8882 H   0  0  0  0  0  0  0  0  0  0  0  0
   48.6655   24.3131   36.5201 H   0  0  0  0  0  0  0  0  0  0  0  0
   41.6864   21.1198   36.7201 H   0  0  0  0  0  0  0  0  0  0  0  0
   42.0568   22.2921   38.0073 H   0  0  0  0  0  0  0  0  0  0  0  0
   40.1709   23.3939   39.1093 H   0  0  0  0  0  0  0  0  0  0  0  0
   37.6755   23.9094   38.9999 H   0  0  0  0  0  0  0  0  0  0  0  0
   37.5268   22.2320   35.0947 H   0  0  0  0  0  0  0  0  0  0  0  0
  1  5  1  0
  1 11  1  0
  2  8  1  0
  2  3  2  0
  4  3  1  0
  5  4  2  0
  6  7  2  0
  6  5  1  0
  7  2  1  0
  8  9  2  0
  8 10  2  0
 11 12  1  0
 12 13  2  0
 14 13  1  0
 15 14  2  0
 16 17  2  0
 16 15  1  0
 17 12  1  0
  1 18  1  0
  1 19  1  0
  3 20  1  0
  4 21  1  0
  6 22  1  0
  7 23  1  0
  8 24  1  0
 11 25  1  0
 11 26  1  0
 13 27  1  0
 14 28  1  0
 16 29  1  0
M  ISO  8  18   8  19   8  20  14  21  14  22  14  23  14  24  11  25   8
M  ISO  4  26   8  27  14  28  14  29  14
M  END
>  <minimizedAffinity>  (1) 
-4.44176054

>  <minimizedRMSD>  (1) 
2.99312234

$$$$
