
     RDKit          3D

 23 24  0  0  0  0  0  0  0  0999 V2000
   39.1200   23.3090   36.2080 C   0  0  0  0  0  0  0  0  0  0  0  0
   38.5770   24.5420   35.8570 C   0  0  0  0  0  0  0  0  0  0  0  0
   38.0140   24.6580   34.5920 C   0  0  0  0  0  0  0  0  0  0  0  0
   38.0470   23.5470   33.8110 N   0  0  0  0  0  0  0  0  0  0  0  0
   38.5700   22.3750   34.1610 C   0  0  0  0  0  0  0  0  0  0  0  0
   39.1120   22.2710   35.3830 N   0  0  0  0  0  0  0  0  0  0  0  0
   38.5510   21.2780   33.2570 N   0  0  0  0  0  0  0  0  0  0  0  0
   37.3780   20.9540   32.5370 C   0  0  0  0  0  0  0  0  0  0  0  0
   36.2730   21.5770   32.8220 N   0  0  0  0  0  0  0  0  0  0  0  0
   37.4420   19.9450   31.5080 N   0  0  0  0  0  0  0  0  0  0  0  0
   35.4180   21.3270   32.2760 H   0  0  0  0  0  0  0  0  0  0  0  0
   37.4070   25.9200   34.1120 C   0  0  0  0  0  0  0  0  0  0  0  0
   37.1670   26.9580   34.9870 C   0  0  0  0  0  0  0  0  0  0  0  0
   36.4190   28.2690   33.9110 S   0  0  0  0  0  0  0  0  0  0  0  0
   36.5800   27.1110   32.4170 C   0  0  0  0  0  0  0  0  0  0  0  0
   37.0440   26.1920   32.8760 N   0  0  0  0  0  0  0  0  0  0  0  0
   39.5713   23.1919   37.2043 H   0  0  0  0  0  0  0  0  0  0  0  0
   38.5931   25.3922   36.5548 H   0  0  0  0  0  0  0  0  0  0  0  0
   39.4017   20.7125   33.1250 H   0  0  0  0  0  0  0  0  0  0  0  0
   38.3337   19.4702   31.3071 H   0  0  0  0  0  0  0  0  0  0  0  0
   36.5960   19.6994   30.9742 H   0  0  0  0  0  0  0  0  0  0  0  0
   37.3710   26.9986   36.0672 H   0  0  0  0  0  0  0  0  0  0  0  0
   36.2937   27.2905   31.3702 H   0  0  0  0  0  0  0  0  0  0  0  0
  2  1  2  0
  3  2  1  0
  4  5  1  0
  4  3  2  0
  5  6  2  0
  6  1  1  0
  7  5  1  0
  8  9  2  0
  8  7  1  0
 10  8  1  0
 11  9  1  0
 12  3  1  0
 12 13  2  0
 14 13  1  0
 15 16  2  0
 15 14  1  0
 16 12  1  0
  1 17  1  0
  2 18  1  0
  7 19  1  0
 10 20  1  0
 10 21  1  0
 13 22  1  0
 15 23  1  0
M  ISO  4  17  14  18  14  22  14  23  14
M  END
>  <minimizedAffinity>  (1) 
-3.52080584

>  <minimizedRMSD>  (1) 
4.63502884

$$$$
