
     RDKit          3D

 23 24  0  0  0  0  0  0  0  0999 V2000
   40.8020   21.9460   37.5620 C   0  0  0  0  0  0  0  0  0  0  0  0
   39.6920   22.9300   37.4470 C   0  0  0  0  0  0  0  0  0  0  0  0
   38.9050   23.3000   38.5400 C   0  0  0  0  0  0  0  0  0  0  0  0
   37.8850   24.2420   38.3000 C   0  0  0  0  0  0  0  0  0  0  0  0
   37.7280   24.7250   37.0480 N   0  0  0  0  0  0  0  0  0  0  0  0
   38.5260   24.3260   36.0170 C   0  0  0  0  0  0  0  0  0  0  0  0
   39.5080   23.4270   36.2240 N   0  0  0  0  0  0  0  0  0  0  0  0
   41.9640   22.4830   36.7300 C   0  0  0  0  0  0  0  0  0  0  0  0
   43.0360   21.4760   36.5420 C   0  0  0  0  0  0  0  0  0  0  0  0
   42.8610   20.2190   37.1040 C   0  0  0  0  0  0  0  0  0  0  0  0
   43.9820   19.4730   36.7920 C   0  0  0  0  0  0  0  0  0  0  0  0
   44.7930   20.3330   36.0440 C   0  0  0  0  0  0  0  0  0  0  0  0
   44.1780   21.4860   35.9360 O   0  0  0  0  0  0  0  0  0  0  0  0
   41.1070   21.8421   38.6137 H   0  0  0  0  0  0  0  0  0  0  0  0
   40.4868   20.9555   37.2020 H   0  0  0  0  0  0  0  0  0  0  0  0
   39.0735   22.8760   39.5409 H   0  0  0  0  0  0  0  0  0  0  0  0
   37.2289   24.5778   39.1166 H   0  0  0  0  0  0  0  0  0  0  0  0
   38.3672   24.7404   35.0105 H   0  0  0  0  0  0  0  0  0  0  0  0
   41.5830   22.7822   35.7424 H   0  0  0  0  0  0  0  0  0  0  0  0
   42.3971   23.3377   37.2702 H   0  0  0  0  0  0  0  0  0  0  0  0
   41.9928   19.8800   37.6882 H   0  0  0  0  0  0  0  0  0  0  0  0
   44.1910   18.4298   37.0712 H   0  0  0  0  0  0  0  0  0  0  0  0
   45.7770   20.0848   35.6196 H   0  0  0  0  0  0  0  0  0  0  0  0
  2  1  1  0
  2  3  2  0
  4  3  1  0
  5  4  2  0
  6  7  2  0
  6  5  1  0
  7  2  1  0
  8  1  1  0
  9  8  1  0
  9 10  2  0
 11 10  1  0
 12 11  2  0
 13 12  1  0
 13  9  1  0
  1 14  1  0
  1 15  1  0
  3 16  1  0
  4 17  1  0
  6 18  1  0
  8 19  1  0
  8 20  1  0
 10 21  1  0
 11 22  1  0
 12 23  1  0
M  ISO  8  14   8  15   8  16  14  17  14  18  14  19   8  20   8  21  14
M  ISO  2  22  14  23  14
M  END
>  <minimizedAffinity>  (1) 
-3.67771816

>  <minimizedRMSD>  (1) 
0.827233195

$$$$
