
     RDKit          3D

 22 23  0  0  0  0  0  0  0  0999 V2000
   40.8520   21.9360   37.5630 C   0  0  0  0  0  0  0  0  0  0  0  0
   39.7360   22.9120   37.4570 C   0  0  0  0  0  0  0  0  0  0  0  0
   38.9310   23.2810   38.5530 C   0  0  0  0  0  0  0  0  0  0  0  0
   37.9160   24.2110   38.3080 C   0  0  0  0  0  0  0  0  0  0  0  0
   37.7650   24.7010   37.0430 N   0  0  0  0  0  0  0  0  0  0  0  0
   38.5760   24.3070   36.0200 C   0  0  0  0  0  0  0  0  0  0  0  0
   39.5500   23.4190   36.2370 N   0  0  0  0  0  0  0  0  0  0  0  0
   41.9970   22.4890   36.7160 C   0  0  0  0  0  0  0  0  0  0  0  0
   42.9810   21.3530   36.5800 C   0  0  0  0  0  0  0  0  0  0  0  0
   44.1510   21.5740   35.9010 C   0  0  0  0  0  0  0  0  0  0  0  0
   44.9800   19.9780   35.9970 S   0  0  0  0  0  0  0  0  0  0  0  0
   43.5320   19.2400   36.9910 C   0  0  0  0  0  0  0  0  0  0  0  0
   42.8370   20.1260   37.0590 N   0  0  0  0  0  0  0  0  0  0  0  0
   41.1697   21.8350   38.6113 H   0  0  0  0  0  0  0  0  0  0  0  0
   40.5433   20.9405   37.2115 H   0  0  0  0  0  0  0  0  0  0  0  0
   39.0935   22.8571   39.5549 H   0  0  0  0  0  0  0  0  0  0  0  0
   37.2514   24.5417   39.1198 H   0  0  0  0  0  0  0  0  0  0  0  0
   38.4276   24.7220   35.0122 H   0  0  0  0  0  0  0  0  0  0  0  0
   41.6288   22.7995   35.7270 H   0  0  0  0  0  0  0  0  0  0  0  0
   42.4568   23.3748   37.1786 H   0  0  0  0  0  0  0  0  0  0  0  0
   44.4982   22.4986   35.4167 H   0  0  0  0  0  0  0  0  0  0  0  0
   43.4071   18.2230   37.3912 H   0  0  0  0  0  0  0  0  0  0  0  0
  2  1  1  0
  2  3  2  0
  4  3  1  0
  5  4  2  0
  6  7  2  0
  6  5  1  0
  7  2  1  0
  8  1  1  0
  9  8  1  0
  9 13  1  0
 10 11  1  0
 10  9  2  0
 11 12  1  0
 12 13  2  0
  1 14  1  0
  1 15  1  0
  3 16  1  0
  4 17  1  0
  6 18  1  0
  8 19  1  0
  8 20  1  0
 10 21  1  0
 12 22  1  0
M  ISO  8  14   8  15   8  16  14  17  14  18  14  19   8  20   8  21  14
M  ISO  1  22  14
M  END
>  <minimizedAffinity>  (1) 
-3.58128047

>  <minimizedRMSD>  (1) 
0.862473667

$$$$
