
     RDKit          3D

 34 36  0  0  0  0  0  0  0  0999 V2000
   41.8580   22.2980   37.1780 C   0  0  0  0  0  0  0  0  0  0  0  0
   40.5200   21.8970   36.6020 C   0  0  0  0  0  0  0  0  0  0  0  0
   39.5770   22.9870   36.9230 C   0  0  0  0  0  0  0  0  0  0  0  0
   38.9500   23.1370   38.1770 C   0  0  0  0  0  0  0  0  0  0  0  0
   38.0830   24.2050   38.3560 C   0  0  0  0  0  0  0  0  0  0  0  0
   37.8760   25.0570   37.3200 N   0  0  0  0  0  0  0  0  0  0  0  0
   38.4970   24.8780   36.1300 C   0  0  0  0  0  0  0  0  0  0  0  0
   39.3320   23.8710   35.9230 N   0  0  0  0  0  0  0  0  0  0  0  0
   42.5020   23.3200   36.4190 N   0  0  0  0  0  0  0  0  0  0  0  0
   43.8970   23.3130   36.3390 C   0  0  0  0  0  0  0  0  0  0  0  0
   44.5780   22.4210   35.5360 C   0  0  0  0  0  0  0  0  0  0  0  0
   45.9500   22.3590   35.4080 C   0  0  0  0  0  0  0  0  0  0  0  0
   46.7240   23.2430   36.1250 C   0  0  0  0  0  0  0  0  0  0  0  0
   46.1210   24.1670   36.9510 C   0  0  0  0  0  0  0  0  0  0  0  0
   46.8780   25.0600   37.6780 C   0  0  0  0  0  0  0  0  0  0  0  0
   46.3090   25.9930   38.5070 C   0  0  0  0  0  0  0  0  0  0  0  0
   44.9400   26.0090   38.5950 C   0  0  0  0  0  0  0  0  0  0  0  0
   44.1980   25.1070   37.8610 C   0  0  0  0  0  0  0  0  0  0  0  0
   44.7450   24.1610   37.0200 C   0  0  0  0  0  0  0  0  0  0  0  0
   41.7035   22.6659   38.2031 H   0  0  0  0  0  0  0  0  0  0  0  0
   42.5074   21.4104   37.1569 H   0  0  0  0  0  0  0  0  0  0  0  0
   40.1790   20.9546   37.0555 H   0  0  0  0  0  0  0  0  0  0  0  0
   40.5878   21.7391   35.5155 H   0  0  0  0  0  0  0  0  0  0  0  0
   39.1435   22.4250   38.9929 H   0  0  0  0  0  0  0  0  0  0  0  0
   37.5733   24.3583   39.3187 H   0  0  0  0  0  0  0  0  0  0  0  0
   38.3026   25.5884   35.3129 H   0  0  0  0  0  0  0  0  0  0  0  0
   41.9509   24.0469   35.9406 H   0  0  0  0  0  0  0  0  0  0  0  0
   43.9808   21.7043   34.9532 H   0  0  0  0  0  0  0  0  0  0  0  0
   46.4173   21.6163   34.7447 H   0  0  0  0  0  0  0  0  0  0  0  0
   47.8202   23.2121   36.0391 H   0  0  0  0  0  0  0  0  0  0  0  0
   47.9739   25.0234   37.5907 H   0  0  0  0  0  0  0  0  0  0  0  0
   46.9265   26.7010   39.0792 H   0  0  0  0  0  0  0  0  0  0  0  0
   44.4365   26.7375   39.2476 H   0  0  0  0  0  0  0  0  0  0  0  0
   43.1024   25.1447   37.9522 H   0  0  0  0  0  0  0  0  0  0  0  0
  2  3  1  0
  2  1  1  0
  3  4  2  0
  4  5  1  0
  6  5  2  0
  7  6  1  0
  8  7  2  0
  8  3  1  0
  9  1  1  0
 10  9  1  0
 10 19  1  0
 11 10  2  0
 12 11  1  0
 12 13  2  0
 13 14  1  0
 14 19  2  0
 14 15  1  0
 15 16  2  0
 16 17  1  0
 18 17  2  0
 19 18  1  0
  1 20  1  0
  1 21  1  0
  2 22  1  0
  2 23  1  0
  4 24  1  0
  5 25  1  0
  7 26  1  0
  9 27  1  0
 11 28  1  0
 12 29  1  0
 13 30  1  0
 15 31  1  0
 16 32  1  0
 17 33  1  0
 18 34  1  0
M  ISO  8  20   8  21   8  22   8  23   8  24  14  25  14  26  14  28  14
M  ISO  6  29  14  30  14  31  14  32  14  33  14  34  14
M  END
>  <minimizedAffinity>  (1) 
-4.82389355

>  <minimizedRMSD>  (1) 
2.40088272

$$$$
