
     RDKit          3D

 28 29  0  0  0  0  0  0  0  0999 V2000
   42.0980   23.0600   36.6550 C   0  0  0  0  0  0  0  0  0  0  0  0
   41.2270   21.9540   37.2520 C   0  0  0  0  0  0  0  0  0  0  0  0
   39.8480   22.4850   37.2620 C   0  0  0  0  0  0  0  0  0  0  0  0
   39.3240   23.2610   38.3280 C   0  0  0  0  0  0  0  0  0  0  0  0
   38.0060   23.7000   38.2120 C   0  0  0  0  0  0  0  0  0  0  0  0
   37.2950   23.3740   37.1100 N   0  0  0  0  0  0  0  0  0  0  0  0
   37.8210   22.6380   36.1190 C   0  0  0  0  0  0  0  0  0  0  0  0
   39.0810   22.2040   36.2050 N   0  0  0  0  0  0  0  0  0  0  0  0
   41.6120   23.4520   35.3590 N   0  0  0  0  0  0  0  0  0  0  0  0
   41.4120   24.7820   34.8990 C   0  0  0  0  0  0  0  0  0  0  0  0
   40.1810   25.4410   34.9740 C   0  0  0  0  0  0  0  0  0  0  0  0
   40.1000   26.7310   34.4970 C   0  0  0  0  0  0  0  0  0  0  0  0
   41.1670   27.4110   33.9470 C   0  0  0  0  0  0  0  0  0  0  0  0
   42.3760   26.7440   33.8800 C   0  0  0  0  0  0  0  0  0  0  0  0
   42.5070   25.4490   34.3460 C   0  0  0  0  0  0  0  0  0  0  0  0
   42.0819   23.9324   37.3248 H   0  0  0  0  0  0  0  0  0  0  0  0
   43.1241   22.6791   36.5454 H   0  0  0  0  0  0  0  0  0  0  0  0
   41.2831   21.0466   36.6327 H   0  0  0  0  0  0  0  0  0  0  0  0
   41.5610   21.6787   38.2633 H   0  0  0  0  0  0  0  0  0  0  0  0
   39.9332   23.5063   39.2104 H   0  0  0  0  0  0  0  0  0  0  0  0
   37.5496   24.3053   39.0090 H   0  0  0  0  0  0  0  0  0  0  0  0
   37.2140   22.3920   35.2352 H   0  0  0  0  0  0  0  0  0  0  0  0
   41.3867   22.6939   34.6991 H   0  0  0  0  0  0  0  0  0  0  0  0
   39.2995   24.9421   35.4030 H   0  0  0  0  0  0  0  0  0  0  0  0
   39.1307   27.2475   34.5581 H   0  0  0  0  0  0  0  0  0  0  0  0
   41.0601   28.4414   33.5771 H   0  0  0  0  0  0  0  0  0  0  0  0
   43.2501   27.2531   33.4479 H   0  0  0  0  0  0  0  0  0  0  0  0
   43.4803   24.9407   34.2807 H   0  0  0  0  0  0  0  0  0  0  0  0
  1  2  1  0
  2  3  1  0
  3  4  2  0
  5  4  1  0
  6  5  2  0
  7  8  2  0
  7  6  1  0
  8  3  1  0
  9  1  1  0
 10 11  2  0
 10  9  1  0
 12 11  1  0
 13 12  2  0
 14 13  1  0
 14 15  2  0
 15 10  1  0
  1 16  1  0
  1 17  1  0
  2 18  1  0
  2 19  1  0
  4 20  1  0
  5 21  1  0
  7 22  1  0
  9 23  1  0
 11 24  1  0
 12 25  1  0
 13 26  1  0
 14 27  1  0
 15 28  1  0
M  ISO  8  16   8  17   8  18   8  19   8  20  14  21  14  22  14  24  14
M  ISO  4  25  14  26  14  27  14  28  14
M  END
>  <minimizedAffinity>  (1) 
-3.99813724

>  <minimizedRMSD>  (1) 
2.56756926

$$$$
