
     RDKit          3D

 27 28  0  0  0  0  0  0  0  0999 V2000
   41.2120   21.9490   37.2520 C   0  0  0  0  0  0  0  0  0  0  0  0
   39.8500   22.4790   37.2530 C   0  0  0  0  0  0  0  0  0  0  0  0
   39.3300   23.2440   38.3070 C   0  0  0  0  0  0  0  0  0  0  0  0
   38.0070   23.7190   38.2320 C   0  0  0  0  0  0  0  0  0  0  0  0
   37.2910   23.4020   37.1120 N   0  0  0  0  0  0  0  0  0  0  0  0
   37.8360   22.6600   36.1180 C   0  0  0  0  0  0  0  0  0  0  0  0
   39.0810   22.2100   36.1850 N   0  0  0  0  0  0  0  0  0  0  0  0
   42.1000   23.0580   36.6650 C   0  0  0  0  0  0  0  0  0  0  0  0
   41.6110   23.4860   35.3820 N   0  0  0  0  0  0  0  0  0  0  0  0
   41.4000   24.8100   34.9140 C   0  0  0  0  0  0  0  0  0  0  0  0
   40.1810   25.4850   34.9690 C   0  0  0  0  0  0  0  0  0  0  0  0
   40.1780   26.7720   34.4610 C   0  0  0  0  0  0  0  0  0  0  0  0
   41.3210   27.3240   33.9400 C   0  0  0  0  0  0  0  0  0  0  0  0
   42.5310   26.6330   33.8940 C   0  0  0  0  0  0  0  0  0  0  0  0
   42.5060   25.3800   34.3960 N   0  0  0  0  0  0  0  0  0  0  0  0
   41.5290   21.7087   38.2776 H   0  0  0  0  0  0  0  0  0  0  0  0
   41.2827   21.0230   36.6624 H   0  0  0  0  0  0  0  0  0  0  0  0
   39.9513   23.4712   39.1858 H   0  0  0  0  0  0  0  0  0  0  0  0
   37.5677   24.3205   39.0415 H   0  0  0  0  0  0  0  0  0  0  0  0
   37.2289   22.4246   35.2314 H   0  0  0  0  0  0  0  0  0  0  0  0
   42.1048   23.9166   37.3526 H   0  0  0  0  0  0  0  0  0  0  0  0
   43.1177   22.6606   36.5370 H   0  0  0  0  0  0  0  0  0  0  0  0
   41.3842   22.7340   34.7156 H   0  0  0  0  0  0  0  0  0  0  0  0
   39.2765   25.0223   35.3907 H   0  0  0  0  0  0  0  0  0  0  0  0
   39.2482   27.3596   34.4750 H   0  0  0  0  0  0  0  0  0  0  0  0
   41.2812   28.3495   33.5440 H   0  0  0  0  0  0  0  0  0  0  0  0
   43.4456   27.0792   33.4763 H   0  0  0  0  0  0  0  0  0  0  0  0
  1  2  1  0
  2  3  2  0
  4  3  1  0
  5  4  2  0
  6  7  2  0
  6  5  1  0
  7  2  1  0
  8  1  1  0
  9  8  1  0
 10 11  2  0
 10  9  1  0
 12 11  1  0
 13 12  2  0
 14 13  1  0
 14 15  2  0
 15 10  1  0
  1 16  1  0
  1 17  1  0
  3 18  1  0
  4 19  1  0
  6 20  1  0
  8 21  1  0
  8 22  1  0
  9 23  1  0
 11 24  1  0
 12 25  1  0
 13 26  1  0
 14 27  1  0
M  ISO  8  16   8  17   8  18  14  19  14  20  14  21   8  22   8  24  14
M  ISO  3  25  14  26  14  27  14
M  END
>  <minimizedAffinity>  (1) 
-3.97742963

>  <minimizedRMSD>  (1) 
2.67792606

$$$$
