
     RDKit          3D

 33 34  0  0  0  0  0  0  0  0999 V2000
   40.8310   21.7690   36.9840 C   0  0  0  0  0  0  0  0  0  0  0  0
   39.7100   22.6960   37.1450 C   0  0  0  0  0  0  0  0  0  0  0  0
   39.2420   23.1470   38.3880 C   0  0  0  0  0  0  0  0  0  0  0  0
   38.1620   24.0330   38.4180 C   0  0  0  0  0  0  0  0  0  0  0  0
   37.6160   24.4150   37.2420 N   0  0  0  0  0  0  0  0  0  0  0  0
   38.0780   23.9700   36.0620 C   0  0  0  0  0  0  0  0  0  0  0  0
   39.1040   23.1290   36.0240 N   0  0  0  0  0  0  0  0  0  0  0  0
   42.1020   22.6220   36.9470 C   0  0  0  0  0  0  0  0  0  0  0  0
   41.9870   23.7020   36.0350 N   0  0  0  0  0  0  0  0  0  0  0  0
   45.1280   26.1640   36.3540 N   0  0  0  0  0  0  0  0  0  0  0  0
   44.4330   25.3140   37.2830 C   0  0  0  0  0  0  0  0  0  0  0  0
   44.3280   23.9520   36.6410 C   0  0  0  0  0  0  0  0  0  0  0  0
   43.3080   24.0570   35.5560 C   0  0  0  0  0  0  0  0  0  0  0  0
   43.2930   25.4030   34.8980 C   0  0  0  0  0  0  0  0  0  0  0  0
   44.5590   26.1790   35.0400 C   0  0  0  0  0  0  0  0  0  0  0  0
   40.8687   21.0682   37.8311 H   0  0  0  0  0  0  0  0  0  0  0  0
   40.7253   21.1745   36.0646 H   0  0  0  0  0  0  0  0  0  0  0  0
   39.7162   22.8096   39.3214 H   0  0  0  0  0  0  0  0  0  0  0  0
   37.7667   24.4095   39.3730 H   0  0  0  0  0  0  0  0  0  0  0  0
   37.6055   24.3029   35.1261 H   0  0  0  0  0  0  0  0  0  0  0  0
   42.2896   23.0246   37.9533 H   0  0  0  0  0  0  0  0  0  0  0  0
   42.9328   21.9821   36.6150 H   0  0  0  0  0  0  0  0  0  0  0  0
   41.3952   23.4213   35.2401 H   0  0  0  0  0  0  0  0  0  0  0  0
   45.1158   27.1255   36.7232 H   0  0  0  0  0  0  0  0  0  0  0  0
   44.9956   25.2450   38.2257 H   0  0  0  0  0  0  0  0  0  0  0  0
   43.4359   25.7172   37.5139 H   0  0  0  0  0  0  0  0  0  0  0  0
   45.3000   23.6579   36.2182 H   0  0  0  0  0  0  0  0  0  0  0  0
   44.0369   23.1914   37.3805 H   0  0  0  0  0  0  0  0  0  0  0  0
   43.6049   23.3302   34.7855 H   0  0  0  0  0  0  0  0  0  0  0  0
   42.4777   25.9928   35.3423 H   0  0  0  0  0  0  0  0  0  0  0  0
   43.1582   25.2217   33.8215 H   0  0  0  0  0  0  0  0  0  0  0  0
   45.2982   25.7587   34.3421 H   0  0  0  0  0  0  0  0  0  0  0  0
   44.3056   27.2274   34.8241 H   0  0  0  0  0  0  0  0  0  0  0  0
  1  2  1  0
  2  3  2  0
  3  4  1  0
  5  4  2  0
  6  5  1  0
  7  6  2  0
  7  2  1  0
  8  1  1  0
  9  8  1  0
 10 11  1  0
 12 11  1  0
 13  9  1  0
 13 12  1  0
 14 15  1  0
 14 13  1  0
 15 10  1  0
  1 16  1  0
  1 17  1  0
  3 18  1  0
  4 19  1  0
  6 20  1  0
  8 21  1  0
  8 22  1  0
  9 23  1  0
 10 24  1  0
 11 25  1  0
 11 26  1  0
 12 27  1  0
 12 28  1  0
 13 29  1  0
 14 30  1  0
 14 31  1  0
 15 32  1  0
 15 33  1  0
M  ISO  8  16   8  17   8  18  14  19  14  20  14  21   8  22   8  23   5
M  ISO  8  24   5  25  13  26  13  27  13  28  13  29  13  30  13  31  13
M  ISO  2  32  13  33  13
M  END
>  <minimizedAffinity>  (1) 
-3.88209963

>  <minimizedRMSD>  (1) 
1.10524249

$$$$
