
     RDKit          3D

 24 25  0  0  0  0  0  0  0  0999 V2000
   41.2510   22.0290   37.1770 C   0  0  0  0  0  0  0  0  0  0  0  0
   39.8630   22.5260   37.2270 C   0  0  0  0  0  0  0  0  0  0  0  0
   39.3290   23.2410   38.3110 C   0  0  0  0  0  0  0  0  0  0  0  0
   38.0040   23.6640   38.2540 C   0  0  0  0  0  0  0  0  0  0  0  0
   37.2830   23.3590   37.1320 N   0  0  0  0  0  0  0  0  0  0  0  0
   37.8340   22.6690   36.1140 C   0  0  0  0  0  0  0  0  0  0  0  0
   39.0920   22.2560   36.1450 N   0  0  0  0  0  0  0  0  0  0  0  0
   42.0830   23.1390   36.5660 C   0  0  0  0  0  0  0  0  0  0  0  0
   41.6680   23.4440   35.2380 N   0  0  0  0  0  0  0  0  0  0  0  0
   41.3500   24.7780   34.8730 C   0  0  0  0  0  0  0  0  0  0  0  0
   42.3420   25.3570   34.0560 C   0  0  0  0  0  0  0  0  0  0  0  0
   41.6740   27.1040   33.7240 S   0  0  0  0  0  0  0  0  0  0  0  0
   40.1580   26.6680   34.7870 C   0  0  0  0  0  0  0  0  0  0  0  0
   40.3600   25.6140   35.1040 N   0  0  0  0  0  0  0  0  0  0  0  0
   41.6094   21.7996   38.1914 H   0  0  0  0  0  0  0  0  0  0  0  0
   41.3221   21.1055   36.5837 H   0  0  0  0  0  0  0  0  0  0  0  0
   39.9485   23.4636   39.1923 H   0  0  0  0  0  0  0  0  0  0  0  0
   37.5512   24.2255   39.0845 H   0  0  0  0  0  0  0  0  0  0  0  0
   37.2200   22.4418   35.2300 H   0  0  0  0  0  0  0  0  0  0  0  0
   41.9821   24.0418   37.1863 H   0  0  0  0  0  0  0  0  0  0  0  0
   43.1286   22.7996   36.5271 H   0  0  0  0  0  0  0  0  0  0  0  0
   41.5983   22.6915   34.5381 H   0  0  0  0  0  0  0  0  0  0  0  0
   43.2785   24.9054   33.6968 H   0  0  0  0  0  0  0  0  0  0  0  0
   39.2914   27.2999   35.0313 H   0  0  0  0  0  0  0  0  0  0  0  0
  1  2  1  0
  2  3  2  0
  4  3  1  0
  5  4  2  0
  6  7  2  0
  6  5  1  0
  7  2  1  0
  8  1  1  0
  9  8  1  0
 10 14  1  0
 10  9  1  0
 11 10  2  0
 12 11  1  0
 12 13  1  0
 13 14  2  0
  1 15  1  0
  1 16  1  0
  3 17  1  0
  4 18  1  0
  6 19  1  0
  8 20  1  0
  8 21  1  0
  9 22  1  0
 11 23  1  0
 13 24  1  0
M  ISO  8  15   8  16   8  17  14  18  14  19  14  20   8  21   8  23  14
M  ISO  1  24  14
M  END
>  <minimizedAffinity>  (1) 
-3.58503842

>  <minimizedRMSD>  (1) 
2.38785362

$$$$
