
     RDKit          3D

 24 24  0  0  0  0  0  0  0  0999 V2000
   40.9730   21.9350   37.4130 C   0  0  0  0  0  0  0  0  0  0  0  0
   39.7390   22.7210   37.3650 C   0  0  0  0  0  0  0  0  0  0  0  0
   39.1810   23.3310   38.5000 C   0  0  0  0  0  0  0  0  0  0  0  0
   37.9970   24.0660   38.3710 C   0  0  0  0  0  0  0  0  0  0  0  0
   37.4440   24.1550   37.1420 N   0  0  0  0  0  0  0  0  0  0  0  0
   38.0000   23.5600   36.0650 C   0  0  0  0  0  0  0  0  0  0  0  0
   39.1320   22.8520   36.1750 N   0  0  0  0  0  0  0  0  0  0  0  0
   42.0760   22.8120   36.8210 C   0  0  0  0  0  0  0  0  0  0  0  0
   41.9700   22.9410   35.4130 N   0  0  0  0  0  0  0  0  0  0  0  0
   42.4710   24.5230   34.9500 S   0  0  0  0  0  0  0  0  0  0  0  0
   41.0960   25.6270   34.7930 C   0  0  0  0  0  0  0  0  0  0  0  0
   43.1640   24.3940   33.6230 O   0  0  0  0  0  0  0  0  0  0  0  0
   43.4320   25.1060   35.9480 O   0  0  0  0  0  0  0  0  0  0  0  0
   41.2149   21.6724   38.4534 H   0  0  0  0  0  0  0  0  0  0  0  0
   40.8670   20.9974   36.8477 H   0  0  0  0  0  0  0  0  0  0  0  0
   39.6695   23.2322   39.4806 H   0  0  0  0  0  0  0  0  0  0  0  0
   37.5328   24.5543   39.2405 H   0  0  0  0  0  0  0  0  0  0  0  0
   37.5160   23.6581   35.0821 H   0  0  0  0  0  0  0  0  0  0  0  0
   42.0116   23.8129   37.2728 H   0  0  0  0  0  0  0  0  0  0  0  0
   43.0402   22.3304   37.0409 H   0  0  0  0  0  0  0  0  0  0  0  0
   42.5726   22.2414   34.9566 H   0  0  0  0  0  0  0  0  0  0  0  0
   40.7395   25.9132   35.7935 H   0  0  0  0  0  0  0  0  0  0  0  0
   41.4094   26.5272   34.2440 H   0  0  0  0  0  0  0  0  0  0  0  0
   40.2848   25.1265   34.2440 H   0  0  0  0  0  0  0  0  0  0  0  0
  2  1  1  0
  2  3  2  0
  4  3  1  0
  5  4  2  0
  6  7  2  0
  6  5  1  0
  7  2  1  0
  8  1  1  0
  9  8  1  0
 10  9  1  0
 10 13  2  0
 11 10  1  0
 12 10  2  0
  1 14  1  0
  1 15  1  0
  3 16  1  0
  4 17  1  0
  6 18  1  0
  8 19  1  0
  8 20  1  0
  9 21  1  0
 11 22  1  0
 11 23  1  0
 11 24  1  0
M  ISO  8  14   8  15   8  16  14  17  14  18  14  19   8  20   8  21   5
M  ISO  3  22   8  23   8  24   8
M  END
>  <minimizedAffinity>  (1) 
-3.2559669

>  <minimizedRMSD>  (1) 
1.05318797

$$$$
