
     RDKit          3D

 20 20  0  0  0  0  0  0  0  0999 V2000
   41.1540   21.8640   37.2600 C   0  0  0  0  0  0  0  0  0  0  0  0
   39.8240   22.4970   37.2630 C   0  0  0  0  0  0  0  0  0  0  0  0
   39.3220   23.2530   38.3440 C   0  0  0  0  0  0  0  0  0  0  0  0
   38.0470   23.8010   38.2180 C   0  0  0  0  0  0  0  0  0  0  0  0
   37.3500   23.5830   37.0700 N   0  0  0  0  0  0  0  0  0  0  0  0
   37.8710   22.8510   36.0580 C   0  0  0  0  0  0  0  0  0  0  0  0
   39.0790   22.3170   36.1460 N   0  0  0  0  0  0  0  0  0  0  0  0
   42.1260   22.9330   36.7480 C   0  0  0  0  0  0  0  0  0  0  0  0
   41.6860   23.5050   35.5190 N   0  0  0  0  0  0  0  0  0  0  0  0
   42.0930   24.7780   35.0290 C   0  0  0  0  0  0  0  0  0  0  0  0
   43.0770   25.3400   35.5280 O   0  0  0  0  0  0  0  0  0  0  0  0
   41.4310   21.5505   38.2774 H   0  0  0  0  0  0  0  0  0  0  0  0
   41.1722   20.9647   36.6269 H   0  0  0  0  0  0  0  0  0  0  0  0
   39.9178   23.4047   39.2562 H   0  0  0  0  0  0  0  0  0  0  0  0
   37.6118   24.3992   39.0321 H   0  0  0  0  0  0  0  0  0  0  0  0
   37.2788   22.6967   35.1440 H   0  0  0  0  0  0  0  0  0  0  0  0
   42.2081   23.7297   37.5020 H   0  0  0  0  0  0  0  0  0  0  0  0
   43.0998   22.4527   36.5717 H   0  0  0  0  0  0  0  0  0  0  0  0
   41.0275   22.9591   34.9452 H   0  0  0  0  0  0  0  0  0  0  0  0
   41.5364   25.2598   34.2116 H   0  0  0  0  0  0  0  0  0  0  0  0
  1  2  1  0
  2  3  2  0
  4  3  1  0
  5  4  2  0
  6  7  2  0
  6  5  1  0
  7  2  1  0
  8  1  1  0
  9  8  1  0
 10  9  1  0
 10 11  2  0
  1 12  1  0
  1 13  1  0
  3 14  1  0
  4 15  1  0
  6 16  1  0
  8 17  1  0
  8 18  1  0
  9 19  1  0
 10 20  1  0
M  ISO  8  12   8  13   8  14  14  15  14  16  14  17   8  18   8  20   6
M  END
>  <minimizedAffinity>  (1) 
-3.14842606

>  <minimizedRMSD>  (1) 
1.06556797

$$$$
