
     RDKit          3D

 29 30  0  0  0  0  0  0  0  0999 V2000
   42.0080   22.5160   37.1260 C   0  0  0  0  0  0  0  0  0  0  0  0
   40.6760   21.8470   36.7100 C   0  0  0  0  0  0  0  0  0  0  0  0
   39.6570   22.9040   36.9230 C   0  0  0  0  0  0  0  0  0  0  0  0
   39.0710   23.1100   38.1820 C   0  0  0  0  0  0  0  0  0  0  0  0
   38.1310   24.1300   38.2870 C   0  0  0  0  0  0  0  0  0  0  0  0
   37.8250   24.8730   37.1820 N   0  0  0  0  0  0  0  0  0  0  0  0
   38.4140   24.6370   35.9940 C   0  0  0  0  0  0  0  0  0  0  0  0
   39.3030   23.6800   35.8740 N   0  0  0  0  0  0  0  0  0  0  0  0
   42.3870   23.4940   36.1210 N   0  0  0  0  0  0  0  0  0  0  0  0
   43.4590   24.4430   36.2030 C   0  0  0  0  0  0  0  0  0  0  0  0
   43.5880   25.1690   35.0530 C   0  0  0  0  0  0  0  0  0  0  0  0
   44.5640   26.1340   34.9070 C   0  0  0  0  0  0  0  0  0  0  0  0
   45.4290   26.3810   35.9230 N   0  0  0  0  0  0  0  0  0  0  0  0
   45.3060   25.6610   37.0720 C   0  0  0  0  0  0  0  0  0  0  0  0
   44.3390   24.7130   37.2030 N   0  0  0  0  0  0  0  0  0  0  0  0
   46.1500   25.7820   38.2910 C   0  0  0  0  0  0  0  0  0  0  0  0
   45.4950   26.4910   39.2910 F   0  0  0  0  0  0  0  0  0  0  0  0
   47.3280   26.4620   37.9550 F   0  0  0  0  0  0  0  0  0  0  0  0
   46.5310   24.5440   38.7570 F   0  0  0  0  0  0  0  0  0  0  0  0
   41.8803   23.0171   38.0969 H   0  0  0  0  0  0  0  0  0  0  0  0
   42.7941   21.7513   37.2117 H   0  0  0  0  0  0  0  0  0  0  0  0
   40.4662   20.9700   37.3400 H   0  0  0  0  0  0  0  0  0  0  0  0
   40.6937   21.4811   35.6728 H   0  0  0  0  0  0  0  0  0  0  0  0
   39.3438   22.4907   39.0492 H   0  0  0  0  0  0  0  0  0  0  0  0
   37.6394   24.3361   39.2492 H   0  0  0  0  0  0  0  0  0  0  0  0
   38.1482   25.2498   35.1200 H   0  0  0  0  0  0  0  0  0  0  0  0
   41.8259   23.5073   35.2573 H   0  0  0  0  0  0  0  0  0  0  0  0
   42.8948   24.9793   34.2202 H   0  0  0  0  0  0  0  0  0  0  0  0
   44.6406   26.7022   33.9682 H   0  0  0  0  0  0  0  0  0  0  0  0
  2  3  1  0
  2  1  1  0
  3  4  2  0
  4  5  1  0
  6  5  2  0
  7  6  1  0
  8  7  2  0
  8  3  1  0
  9 10  1  0
  9  1  1  0
 10 15  1  0
 11 10  2  0
 12 11  1  0
 12 13  2  0
 13 14  1  0
 14 15  2  0
 14 16  1  0
 16 19  1  0
 16 17  1  0
 18 16  1  0
  1 20  1  0
  1 21  1  0
  2 22  1  0
  2 23  1  0
  4 24  1  0
  5 25  1  0
  7 26  1  0
  9 27  1  0
 11 28  1  0
 12 29  1  0
M  ISO  8  20   8  21   8  22   8  23   8  24  14  25  14  26  14  28  14
M  ISO  1  29  14
M  END
>  <minimizedAffinity>  (1) 
-4.72793674

>  <minimizedRMSD>  (1) 
1.58894992

$$$$
