
     RDKit          3D

 37 40  0  0  0  0  0  0  0  0999 V2000
   42.5340   24.6700   35.2870 C   0  0  0  0  0  0  0  0  0  0  0  0
   41.7530   25.4160   34.4430 C   0  0  0  0  0  0  0  0  0  0  0  0
   42.2600   26.5600   33.8290 C   0  0  0  0  0  0  0  0  0  0  0  0
   43.5500   26.9520   34.0660 N   0  0  0  0  0  0  0  0  0  0  0  0
   44.3000   26.1930   34.9090 C   0  0  0  0  0  0  0  0  0  0  0  0
   43.8310   25.0740   35.5180 N   0  0  0  0  0  0  0  0  0  0  0  0
   45.6530   26.4270   35.2870 N   0  0  0  0  0  0  0  0  0  0  0  0
   46.3500   27.3550   34.5980 C   0  0  0  0  0  0  0  0  0  0  0  0
   47.6070   27.4190   35.1150 N   0  0  0  0  0  0  0  0  0  0  0  0
   47.7150   26.5370   36.1300 C   0  0  0  0  0  0  0  0  0  0  0  0
   48.6460   26.0920   37.0510 C   0  0  0  0  0  0  0  0  0  0  0  0
   48.3740   25.1540   37.9480 N   0  0  0  0  0  0  0  0  0  0  0  0
   47.1440   24.5850   37.9960 C   0  0  0  0  0  0  0  0  0  0  0  0
   46.1680   24.9670   37.1210 N   0  0  0  0  0  0  0  0  0  0  0  0
   46.4710   25.9200   36.2230 C   0  0  0  0  0  0  0  0  0  0  0  0
   41.8120   23.5340   35.7740 N   0  0  0  0  0  0  0  0  0  0  0  0
   42.0470   22.7940   36.9990 C   0  0  0  0  0  0  0  0  0  0  0  0
   40.8990   21.8070   37.2660 C   0  0  0  0  0  0  0  0  0  0  0  0
   39.6800   22.6490   37.2640 C   0  0  0  0  0  0  0  0  0  0  0  0
   39.2310   23.2770   38.4350 C   0  0  0  0  0  0  0  0  0  0  0  0
   38.0860   24.0570   38.3580 C   0  0  0  0  0  0  0  0  0  0  0  0
   37.4550   24.1760   37.1570 N   0  0  0  0  0  0  0  0  0  0  0  0
   37.9220   23.5520   36.0450 C   0  0  0  0  0  0  0  0  0  0  0  0
   39.0040   22.8140   36.1130 N   0  0  0  0  0  0  0  0  0  0  0  0
   40.7150   25.1085   34.2481 H   0  0  0  0  0  0  0  0  0  0  0  0
   41.6226   27.1487   33.1530 H   0  0  0  0  0  0  0  0  0  0  0  0
   45.9670   27.9571   33.7609 H   0  0  0  0  0  0  0  0  0  0  0  0
   49.6531   26.5342   37.0389 H   0  0  0  0  0  0  0  0  0  0  0  0
   46.9308   23.8092   38.7461 H   0  0  0  0  0  0  0  0  0  0  0  0
   41.0342   23.2033   35.1853 H   0  0  0  0  0  0  0  0  0  0  0  0
   42.9900   22.2350   36.9080 H   0  0  0  0  0  0  0  0  0  0  0  0
   42.1042   23.5050   37.8364 H   0  0  0  0  0  0  0  0  0  0  0  0
   40.8477   21.0462   36.4732 H   0  0  0  0  0  0  0  0  0  0  0  0
   41.0285   21.2596   38.2113 H   0  0  0  0  0  0  0  0  0  0  0  0
   39.7704   23.1548   39.3859 H   0  0  0  0  0  0  0  0  0  0  0  0
   37.6955   24.5693   39.2497 H   0  0  0  0  0  0  0  0  0  0  0  0
   37.3929   23.6655   35.0873 H   0  0  0  0  0  0  0  0  0  0  0  0
  1  6  1  0
  1 16  1  0
  2  1  2  0
  3  4  2  0
  3  2  1  0
  4  5  1  0
  5  7  1  0
  5  6  2  0
  7 15  1  0
  8  9  2  0
  8  7  1  0
  9 10  1  0
 10 15  2  0
 10 11  1  0
 11 12  2  0
 12 13  1  0
 14 13  2  0
 15 14  1  0
 16 17  1  0
 17 18  1  0
 19 18  1  0
 19 20  2  0
 21 20  1  0
 22 21  2  0
 23 24  2  0
 23 22  1  0
 24 19  1  0
  2 25  1  0
  3 26  1  0
  8 27  1  0
 11 28  1  0
 13 29  1  0
 16 30  1  0
 17 31  1  0
 17 32  1  0
 18 33  1  0
 18 34  1  0
 20 35  1  0
 21 36  1  0
 23 37  1  0
M  ISO  8  25  14  26  14  27  14  28  14  29  14  31   8  32   8  33   8
M  ISO  4  34   8  35  14  36  14  37  14
M  END
>  <minimizedAffinity>  (1) 
-5.03421974

>  <minimizedRMSD>  (1) 
0.825750053

$$$$
