
     RDKit          3D

 39 41  0  0  0  0  0  0  0  0999 V2000
   42.9330   24.6640   35.5450 C   0  0  0  0  0  0  0  0  0  0  0  0
   42.5230   25.5730   34.6140 C   0  0  0  0  0  0  0  0  0  0  0  0
   43.3050   26.5800   34.1420 C   0  0  0  0  0  0  0  0  0  0  0  0
   44.5860   26.7000   34.6230 N   0  0  0  0  0  0  0  0  0  0  0  0
   45.0200   25.8100   35.5510 C   0  0  0  0  0  0  0  0  0  0  0  0
   44.1980   24.8000   36.0060 N   0  0  0  0  0  0  0  0  0  0  0  0
   46.3120   25.7960   36.1460 N   0  0  0  0  0  0  0  0  0  0  0  0
   46.6180   24.9670   37.1610 C   0  0  0  0  0  0  0  0  0  0  0  0
   47.9270   25.0710   37.6390 C   0  0  0  0  0  0  0  0  0  0  0  0
   48.3640   24.2050   38.7510 C   0  0  0  0  0  0  0  0  0  0  0  0
   48.8040   25.9760   37.0780 C   0  0  0  0  0  0  0  0  0  0  0  0
   49.9630   26.0560   37.5140 O   0  0  0  0  0  0  0  0  0  0  0  0
   48.4530   26.7910   36.0590 N   0  0  0  0  0  0  0  0  0  0  0  0
   47.1760   26.6810   35.6000 C   0  0  0  0  0  0  0  0  0  0  0  0
   46.8740   27.4460   34.6550 O   0  0  0  0  0  0  0  0  0  0  0  0
   41.9190   23.7020   35.8560 N   0  0  0  0  0  0  0  0  0  0  0  0
   41.9290   22.7270   36.9300 C   0  0  0  0  0  0  0  0  0  0  0  0
   40.6360   21.8700   36.8570 C   0  0  0  0  0  0  0  0  0  0  0  0
   39.5460   22.8540   37.0210 C   0  0  0  0  0  0  0  0  0  0  0  0
   39.0630   23.2140   38.2900 C   0  0  0  0  0  0  0  0  0  0  0  0
   38.0360   24.1510   38.3430 C   0  0  0  0  0  0  0  0  0  0  0  0
   37.5490   24.6700   37.1700 N   0  0  0  0  0  0  0  0  0  0  0  0
   38.0410   24.2950   35.9750 C   0  0  0  0  0  0  0  0  0  0  0  0
   39.0110   23.4130   35.9150 N   0  0  0  0  0  0  0  0  0  0  0  0
   41.4989   25.4860   34.2220 H   0  0  0  0  0  0  0  0  0  0  0  0
   42.9197   27.2844   33.3901 H   0  0  0  0  0  0  0  0  0  0  0  0
   45.8903   24.2587   37.5838 H   0  0  0  0  0  0  0  0  0  0  0  0
   48.1205   24.6875   39.7090 H   0  0  0  0  0  0  0  0  0  0  0  0
   47.8468   23.2363   38.6864 H   0  0  0  0  0  0  0  0  0  0  0  0
   49.4505   24.0456   38.6864 H   0  0  0  0  0  0  0  0  0  0  0  0
   49.1186   27.4622   35.6498 H   0  0  0  0  0  0  0  0  0  0  0  0
   41.0878   23.7024   35.2478 H   0  0  0  0  0  0  0  0  0  0  0  0
   42.8086   22.0747   36.8260 H   0  0  0  0  0  0  0  0  0  0  0  0
   41.9728   23.2462   37.8988 H   0  0  0  0  0  0  0  0  0  0  0  0
   40.5593   21.3597   35.8856 H   0  0  0  0  0  0  0  0  0  0  0  0
   40.6095   21.0774   37.6193 H   0  0  0  0  0  0  0  0  0  0  0  0
   39.4807   22.7720   39.2066 H   0  0  0  0  0  0  0  0  0  0  0  0
   37.6209   24.4708   39.3102 H   0  0  0  0  0  0  0  0  0  0  0  0
   37.6310   24.7269   35.0502 H   0  0  0  0  0  0  0  0  0  0  0  0
  1 16  1  0
  1  6  1  0
  2  1  2  0
  3  2  1  0
  3  4  2  0
  4  5  1  0
  5  6  2  0
  5  7  1  0
  7  8  1  0
  8  9  2  0
  9 10  1  0
 11 12  2  0
 11  9  1  0
 13 11  1  0
 14 13  1  0
 14  7  1  0
 15 14  2  0
 16 17  1  0
 18 17  1  0
 18 19  1  0
 19 20  2  0
 20 21  1  0
 22 21  2  0
 23 22  1  0
 24 23  2  0
 24 19  1  0
  2 25  1  0
  3 26  1  0
  8 27  1  0
 10 28  1  0
 10 29  1  0
 10 30  1  0
 13 31  1  0
 16 32  1  0
 17 33  1  0
 17 34  1  0
 18 35  1  0
 18 36  1  0
 20 37  1  0
 21 38  1  0
 23 39  1  0
M  ISO  8  25  14  26  14  27  14  28   8  29   8  30   8  31   9  33   8
M  ISO  6  34   8  35   8  36   8  37  14  38  14  39  14
M  END
>  <minimizedAffinity>  (1) 
-5.03702164

>  <minimizedRMSD>  (1) 
0.520823717

$$$$
