
     RDKit          3D

 40 43  0  0  0  0  0  0  0  0999 V2000
   42.0860   24.6480   35.1290 C   0  0  0  0  0  0  0  0  0  0  0  0
   41.1500   25.4190   34.5180 C   0  0  0  0  0  0  0  0  0  0  0  0
   41.5110   26.6230   33.9310 C   0  0  0  0  0  0  0  0  0  0  0  0
   42.8000   27.0530   33.9570 N   0  0  0  0  0  0  0  0  0  0  0  0
   43.7380   26.2830   34.5690 C   0  0  0  0  0  0  0  0  0  0  0  0
   43.3380   25.1140   35.1280 N   0  0  0  0  0  0  0  0  0  0  0  0
   45.1780   26.4470   34.7720 C   0  0  0  0  0  0  0  0  0  0  0  0
   46.0560   26.8750   33.8530 N   0  0  0  0  0  0  0  0  0  0  0  0
   47.3660   27.0230   34.0420 C   0  0  0  0  0  0  0  0  0  0  0  0
   47.9230   26.7360   35.2350 N   0  0  0  0  0  0  0  0  0  0  0  0
   47.1250   26.2920   36.2510 C   0  0  0  0  0  0  0  0  0  0  0  0
   47.7480   26.0150   37.4450 C   0  0  0  0  0  0  0  0  0  0  0  0
   46.9730   25.5630   38.4910 C   0  0  0  0  0  0  0  0  0  0  0  0
   45.6170   25.4140   38.2830 C   0  0  0  0  0  0  0  0  0  0  0  0
   45.0760   25.7140   37.0540 C   0  0  0  0  0  0  0  0  0  0  0  0
   45.7840   26.1670   35.9720 C   0  0  0  0  0  0  0  0  0  0  0  0
   41.5370   23.4300   35.6370 N   0  0  0  0  0  0  0  0  0  0  0  0
   41.9610   22.6550   36.7810 C   0  0  0  0  0  0  0  0  0  0  0  0
   40.8410   21.6760   37.2070 C   0  0  0  0  0  0  0  0  0  0  0  0
   39.6240   22.5180   37.2540 C   0  0  0  0  0  0  0  0  0  0  0  0
   39.2960   23.2660   38.3980 C   0  0  0  0  0  0  0  0  0  0  0  0
   38.1340   24.0330   38.3500 C   0  0  0  0  0  0  0  0  0  0  0  0
   37.3710   24.0220   37.1980 N   0  0  0  0  0  0  0  0  0  0  0  0
   37.7310   23.2880   36.1330 C   0  0  0  0  0  0  0  0  0  0  0  0
   38.8210   22.5580   36.1530 N   0  0  0  0  0  0  0  0  0  0  0  0
   40.1015   25.0876   34.4884 H   0  0  0  0  0  0  0  0  0  0  0  0
   40.7437   27.2379   33.4379 H   0  0  0  0  0  0  0  0  0  0  0  0
   47.9987   27.3826   33.2172 H   0  0  0  0  0  0  0  0  0  0  0  0
   48.8334   26.1502   37.5619 H   0  0  0  0  0  0  0  0  0  0  0  0
   47.4236   25.3271   39.4664 H   0  0  0  0  0  0  0  0  0  0  0  0
   44.9702   25.0563   39.0977 H   0  0  0  0  0  0  0  0  0  0  0  0
   43.9912   25.5798   36.9306 H   0  0  0  0  0  0  0  0  0  0  0  0
   40.7307   23.0539   35.1180 H   0  0  0  0  0  0  0  0  0  0  0  0
   42.8632   22.0831   36.5184 H   0  0  0  0  0  0  0  0  0  0  0  0
   42.1789   23.3370   37.6161 H   0  0  0  0  0  0  0  0  0  0  0  0
   40.7281   20.8673   36.4700 H   0  0  0  0  0  0  0  0  0  0  0  0
   41.0523   21.1854   38.1686 H   0  0  0  0  0  0  0  0  0  0  0  0
   39.9316   23.2465   39.2956 H   0  0  0  0  0  0  0  0  0  0  0  0
   37.8285   24.6383   39.2162 H   0  0  0  0  0  0  0  0  0  0  0  0
   37.1027   23.2988   35.2302 H   0  0  0  0  0  0  0  0  0  0  0  0
  1 17  1  0
  2  1  2  0
  3  4  2  0
  3  2  1  0
  4  5  1  0
  5  7  1  0
  5  6  2  0
  6  1  1  0
  7 16  2  0
  8  9  2  0
  8  7  1  0
  9 10  1  0
 10 11  2  0
 11 12  1  0
 12 13  2  0
 14 13  1  0
 15 14  2  0
 16 11  1  0
 16 15  1  0
 17 18  1  0
 18 19  1  0
 19 20  1  0
 20 21  2  0
 22 21  1  0
 23 22  2  0
 24 25  2  0
 24 23  1  0
 25 20  1  0
  2 26  1  0
  3 27  1  0
  9 28  1  0
 12 29  1  0
 13 30  1  0
 14 31  1  0
 15 32  1  0
 17 33  1  0
 18 34  1  0
 18 35  1  0
 19 36  1  0
 19 37  1  0
 21 38  1  0
 22 39  1  0
 24 40  1  0
M  ISO  8  26  14  27  14  28  14  29  14  30  14  31  14  32  14  34   8
M  ISO  6  35   8  36   8  37   8  38  14  39  14  40  14
M  END
>  <minimizedAffinity>  (1) 
-5.28665447

>  <minimizedRMSD>  (1) 
1.45203817

$$$$
