
     RDKit          3D

 39 42  0  0  0  0  0  0  0  0999 V2000
   42.4470   24.6450   35.2270 C   0  0  0  0  0  0  0  0  0  0  0  0
   41.5960   25.3670   34.4290 C   0  0  0  0  0  0  0  0  0  0  0  0
   41.9830   26.5350   33.8020 C   0  0  0  0  0  0  0  0  0  0  0  0
   43.2720   27.0010   33.9800 N   0  0  0  0  0  0  0  0  0  0  0  0
   44.0910   26.2640   34.7770 C   0  0  0  0  0  0  0  0  0  0  0  0
   43.7380   25.1160   35.4020 N   0  0  0  0  0  0  0  0  0  0  0  0
   45.4480   26.5900   35.0750 N   0  0  0  0  0  0  0  0  0  0  0  0
   46.2490   27.4760   34.4310 C   0  0  0  0  0  0  0  0  0  0  0  0
   47.4570   27.4850   35.0280 N   0  0  0  0  0  0  0  0  0  0  0  0
   47.4060   26.6160   36.0260 C   0  0  0  0  0  0  0  0  0  0  0  0
   48.2880   26.1750   36.9910 C   0  0  0  0  0  0  0  0  0  0  0  0
   47.9400   25.2430   37.9150 N   0  0  0  0  0  0  0  0  0  0  0  0
   46.7010   24.7140   37.9170 C   0  0  0  0  0  0  0  0  0  0  0  0
   45.8080   25.1170   36.9920 N   0  0  0  0  0  0  0  0  0  0  0  0
   46.1560   26.0270   36.0940 C   0  0  0  0  0  0  0  0  0  0  0  0
   49.6010   26.7000   37.0300 N   0  0  0  0  0  0  0  0  0  0  0  0
   41.7900   23.4800   35.7480 N   0  0  0  0  0  0  0  0  0  0  0  0
   42.0400   22.8110   37.0090 C   0  0  0  0  0  0  0  0  0  0  0  0
   40.9010   21.8380   37.3420 C   0  0  0  0  0  0  0  0  0  0  0  0
   39.6740   22.6680   37.3120 C   0  0  0  0  0  0  0  0  0  0  0  0
   39.2160   23.3380   38.4570 C   0  0  0  0  0  0  0  0  0  0  0  0
   38.0650   24.0990   38.3380 C   0  0  0  0  0  0  0  0  0  0  0  0
   37.4290   24.1690   37.1360 N   0  0  0  0  0  0  0  0  0  0  0  0
   37.9080   23.5050   36.0560 C   0  0  0  0  0  0  0  0  0  0  0  0
   38.9980   22.7790   36.1500 N   0  0  0  0  0  0  0  0  0  0  0  0
   40.5684   25.0024   34.2834 H   0  0  0  0  0  0  0  0  0  0  0  0
   41.2738   27.0879   33.1684 H   0  0  0  0  0  0  0  0  0  0  0  0
   45.9595   28.0870   33.5634 H   0  0  0  0  0  0  0  0  0  0  0  0
   46.4209   23.9598   38.6671 H   0  0  0  0  0  0  0  0  0  0  0  0
   50.2644   26.3751   37.7478 H   0  0  0  0  0  0  0  0  0  0  0  0
   49.8936   27.4071   36.3406 H   0  0  0  0  0  0  0  0  0  0  0  0
   41.0535   23.0710   35.1553 H   0  0  0  0  0  0  0  0  0  0  0  0
   42.9844   22.2513   36.9398 H   0  0  0  0  0  0  0  0  0  0  0  0
   42.1024   23.5680   37.8047 H   0  0  0  0  0  0  0  0  0  0  0  0
   40.8447   21.0358   36.5915 H   0  0  0  0  0  0  0  0  0  0  0  0
   41.0461   21.3460   38.3151 H   0  0  0  0  0  0  0  0  0  0  0  0
   39.7520   23.2615   39.4145 H   0  0  0  0  0  0  0  0  0  0  0  0
   37.6677   24.6427   39.2078 H   0  0  0  0  0  0  0  0  0  0  0  0
   37.3798   23.5748   35.0937 H   0  0  0  0  0  0  0  0  0  0  0  0
  1  6  1  0
  1 17  1  0
  2  1  2  0
  3  4  2  0
  3  2  1  0
  4  5  1  0
  5  7  1  0
  5  6  2  0
  7 15  1  0
  8  9  2  0
  8  7  1  0
  9 10  1  0
 10 15  2  0
 10 11  1  0
 11 16  1  0
 11 12  2  0
 12 13  1  0
 14 13  2  0
 15 14  1  0
 17 18  1  0
 18 19  1  0
 20 19  1  0
 20 21  2  0
 22 21  1  0
 23 22  2  0
 24 25  2  0
 24 23  1  0
 25 20  1  0
  2 26  1  0
  3 27  1  0
  8 28  1  0
 13 29  1  0
 16 30  1  0
 16 31  1  0
 17 32  1  0
 18 33  1  0
 18 34  1  0
 19 35  1  0
 19 36  1  0
 21 37  1  0
 22 38  1  0
 24 39  1  0
M  ISO  8  26  14  27  14  28  14  29  14  33   8  34   8  35   8  36   8
M  ISO  3  37  14  38  14  39  14
M  END
>  <minimizedAffinity>  (1) 
-5.1626544

>  <minimizedRMSD>  (1) 
1.11764574

$$$$
