
     RDKit          3D

 38 40  0  0  0  0  0  0  0  0999 V2000
   42.1320   23.5640   35.9610 N   0  0  0  0  0  0  0  0  0  0  0  0
   43.2040   24.5010   35.9170 C   0  0  0  0  0  0  0  0  0  0  0  0
   43.1570   25.3000   34.8110 C   0  0  0  0  0  0  0  0  0  0  0  0
   44.0830   26.2740   34.5370 C   0  0  0  0  0  0  0  0  0  0  0  0
   45.1190   26.4680   35.4150 N   0  0  0  0  0  0  0  0  0  0  0  0
   45.1700   25.6760   36.5170 C   0  0  0  0  0  0  0  0  0  0  0  0
   44.2520   24.7120   36.7870 N   0  0  0  0  0  0  0  0  0  0  0  0
   46.1940   25.7850   37.4980 N   0  0  0  0  0  0  0  0  0  0  0  0
   47.5850   26.1940   37.4060 C   0  0  0  0  0  0  0  0  0  0  0  0
   48.2460   24.9010   37.8960 C   0  0  0  0  0  0  0  0  0  0  0  0
   47.3250   24.5570   39.0690 C   0  0  0  0  0  0  0  0  0  0  0  0
   46.1470   25.5060   38.9350 C   0  0  0  0  0  0  0  0  0  0  0  0
   41.9170   22.5090   36.9330 C   0  0  0  0  0  0  0  0  0  0  0  0
   40.5570   21.8300   36.6740 C   0  0  0  0  0  0  0  0  0  0  0  0
   39.5640   22.9050   36.9110 C   0  0  0  0  0  0  0  0  0  0  0  0
   39.0250   23.1310   38.1870 C   0  0  0  0  0  0  0  0  0  0  0  0
   38.1060   24.1680   38.3140 C   0  0  0  0  0  0  0  0  0  0  0  0
   37.7760   24.9060   37.2010 N   0  0  0  0  0  0  0  0  0  0  0  0
   38.3230   24.6440   36.0030 C   0  0  0  0  0  0  0  0  0  0  0  0
   39.1930   23.6710   35.8610 N   0  0  0  0  0  0  0  0  0  0  0  0
   41.4266   23.6452   35.2149 H   0  0  0  0  0  0  0  0  0  0  0  0
   42.3304   25.1545   34.1000 H   0  0  0  0  0  0  0  0  0  0  0  0
   43.9964   26.8889   33.6290 H   0  0  0  0  0  0  0  0  0  0  0  0
   47.8753   26.4406   36.3741 H   0  0  0  0  0  0  0  0  0  0  0  0
   47.8496   27.1030   37.9660 H   0  0  0  0  0  0  0  0  0  0  0  0
   48.2325   24.1179   37.1236 H   0  0  0  0  0  0  0  0  0  0  0  0
   49.3106   24.9957   38.1562 H   0  0  0  0  0  0  0  0  0  0  0  0
   46.9889   23.5117   39.0030 H   0  0  0  0  0  0  0  0  0  0  0  0
   47.8334   24.6637   40.0386 H   0  0  0  0  0  0  0  0  0  0  0  0
   46.2908   26.4191   39.5313 H   0  0  0  0  0  0  0  0  0  0  0  0
   45.1887   25.1019   39.2933 H   0  0  0  0  0  0  0  0  0  0  0  0
   42.7204   21.7627   36.8457 H   0  0  0  0  0  0  0  0  0  0  0  0
   41.9208   22.9407   37.9447 H   0  0  0  0  0  0  0  0  0  0  0  0
   40.3998   20.9930   37.3702 H   0  0  0  0  0  0  0  0  0  0  0  0
   40.4841   21.4040   35.6624 H   0  0  0  0  0  0  0  0  0  0  0  0
   39.3167   22.5145   39.0500 H   0  0  0  0  0  0  0  0  0  0  0  0
   37.6504   24.3942   39.2893 H   0  0  0  0  0  0  0  0  0  0  0  0
   38.0390   25.2513   35.1309 H   0  0  0  0  0  0  0  0  0  0  0  0
  1 13  1  0
  2  1  1  0
  2  7  1  0
  3  2  2  0
  4  3  1  0
  4  5  2  0
  5  6  1  0
  6  7  2  0
  6  8  1  0
  8 12  1  0
  9  8  1  0
  9 10  1  0
 10 11  1  0
 12 11  1  0
 14 15  1  0
 14 13  1  0
 15 16  2  0
 16 17  1  0
 18 17  2  0
 19 18  1  0
 20 19  2  0
 20 15  1  0
  1 21  1  0
  3 22  1  0
  4 23  1  0
  9 24  1  0
  9 25  1  0
 10 26  1  0
 10 27  1  0
 11 28  1  0
 11 29  1  0
 12 30  1  0
 12 31  1  0
 13 32  1  0
 13 33  1  0
 14 34  1  0
 14 35  1  0
 16 36  1  0
 17 37  1  0
 19 38  1  0
M  ISO  8  22  14  23  14  24  13  25  13  26  13  27  13  28  13  29  13
M  ISO  8  30  13  31  13  32   8  33   8  34   8  35   8  36  14  37  14
M  ISO  1  38  14
M  END
>  <minimizedAffinity>  (1) 
-4.88512373

>  <minimizedRMSD>  (1) 
1.316522

$$$$
