
     RDKit          3D

 33 34  0  0  0  0  0  0  0  0999 V2000
   42.0950   23.5970   36.0820 N   0  0  0  0  0  0  0  0  0  0  0  0
   43.2630   24.4160   35.9900 C   0  0  0  0  0  0  0  0  0  0  0  0
   43.1320   25.3290   34.9720 C   0  0  0  0  0  0  0  0  0  0  0  0
   44.1650   26.2190   34.6760 C   0  0  0  0  0  0  0  0  0  0  0  0
   45.3300   26.1880   35.4110 N   0  0  0  0  0  0  0  0  0  0  0  0
   45.4180   25.2730   36.4090 C   0  0  0  0  0  0  0  0  0  0  0  0
   44.4390   24.3920   36.7250 N   0  0  0  0  0  0  0  0  0  0  0  0
   46.5960   25.2010   37.1970 N   0  0  0  0  0  0  0  0  0  0  0  0
   46.4980   25.0910   38.6130 C   0  0  0  0  0  0  0  0  0  0  0  0
   45.4420   25.5010   39.2340 N   0  0  0  0  0  0  0  0  0  0  0  0
   47.5680   24.5280   39.3330 N   0  0  0  0  0  0  0  0  0  0  0  0
   45.2850   25.4610   40.2470 H   0  0  0  0  0  0  0  0  0  0  0  0
   41.8390   22.4820   36.9760 C   0  0  0  0  0  0  0  0  0  0  0  0
   40.4420   21.8930   36.7240 C   0  0  0  0  0  0  0  0  0  0  0  0
   39.5040   22.9950   37.0180 C   0  0  0  0  0  0  0  0  0  0  0  0
   38.9680   23.1850   38.3020 C   0  0  0  0  0  0  0  0  0  0  0  0
   38.1010   24.2470   38.4910 C   0  0  0  0  0  0  0  0  0  0  0  0
   37.8060   25.0560   37.4340 N   0  0  0  0  0  0  0  0  0  0  0  0
   38.3370   24.8460   36.2190 C   0  0  0  0  0  0  0  0  0  0  0  0
   39.1600   23.8400   36.0300 N   0  0  0  0  0  0  0  0  0  0  0  0
   41.3343   23.8286   35.4274 H   0  0  0  0  0  0  0  0  0  0  0  0
   42.2029   25.3588   34.3839 H   0  0  0  0  0  0  0  0  0  0  0  0
   44.0495   26.9443   33.8571 H   0  0  0  0  0  0  0  0  0  0  0  0
   47.5211   25.2283   36.7449 H   0  0  0  0  0  0  0  0  0  0  0  0
   47.5106   24.4423   40.3578 H   0  0  0  0  0  0  0  0  0  0  0  0
   48.4086   24.2017   38.8352 H   0  0  0  0  0  0  0  0  0  0  0  0
   42.5957   21.7019   36.8061 H   0  0  0  0  0  0  0  0  0  0  0  0
   41.8887   22.8425   38.0141 H   0  0  0  0  0  0  0  0  0  0  0  0
   40.3420   21.5690   35.6776 H   0  0  0  0  0  0  0  0  0  0  0  0
   40.2481   21.0079   37.3476 H   0  0  0  0  0  0  0  0  0  0  0  0
   39.2290   22.5111   39.1313 H   0  0  0  0  0  0  0  0  0  0  0  0
   37.6565   24.4356   39.4794 H   0  0  0  0  0  0  0  0  0  0  0  0
   38.0834   25.5151   35.3835 H   0  0  0  0  0  0  0  0  0  0  0  0
  1 13  1  0
  2  1  1  0
  2  7  1  0
  3  2  2  0
  4  3  1  0
  4  5  2  0
  5  6  1  0
  6  7  2  0
  6  8  1  0
  8  9  1  0
  9 10  2  0
  9 11  1  0
 10 12  1  0
 14 13  1  0
 14 15  1  0
 15 16  2  0
 16 17  1  0
 18 17  2  0
 19 18  1  0
 20 19  2  0
 20 15  1  0
  1 21  1  0
  3 22  1  0
  4 23  1  0
  8 24  1  0
 11 25  1  0
 11 26  1  0
 13 27  1  0
 13 28  1  0
 14 29  1  0
 14 30  1  0
 16 31  1  0
 17 32  1  0
 19 33  1  0
M  ISO  8  22  14  23  14  27   8  28   8  29   8  30   8  31  14  32  14
M  ISO  1  33  14
M  END
>  <minimizedAffinity>  (1) 
-4.6117034

>  <minimizedRMSD>  (1) 
1.14462852

$$$$
