
     RDKit          3D

 42 44  0  0  0  0  0  0  0  0999 V2000
   42.0390   23.5930   36.0120 N   0  0  0  0  0  0  0  0  0  0  0  0
   43.2350   24.3740   35.9230 C   0  0  0  0  0  0  0  0  0  0  0  0
   43.1400   25.3540   34.9790 C   0  0  0  0  0  0  0  0  0  0  0  0
   44.1700   26.2300   34.7050 C   0  0  0  0  0  0  0  0  0  0  0  0
   45.3330   26.1220   35.3970 N   0  0  0  0  0  0  0  0  0  0  0  0
   45.4390   25.1480   36.3410 C   0  0  0  0  0  0  0  0  0  0  0  0
   44.4170   24.2920   36.6010 N   0  0  0  0  0  0  0  0  0  0  0  0
   46.6740   24.9930   37.1120 C   0  0  0  0  0  0  0  0  0  0  0  0
   47.5930   26.1980   36.9840 C   0  0  0  0  0  0  0  0  0  0  0  0
   48.9790   25.7230   37.3660 C   0  0  0  0  0  0  0  0  0  0  0  0
   48.9330   24.5350   38.2950 C   0  0  0  0  0  0  0  0  0  0  0  0
   47.7700   24.5490   39.2460 C   0  0  0  0  0  0  0  0  0  0  0  0
   46.4410   24.8080   38.5930 C   0  0  0  0  0  0  0  0  0  0  0  0
   41.7850   22.4810   36.9080 C   0  0  0  0  0  0  0  0  0  0  0  0
   40.3780   21.9060   36.6400 C   0  0  0  0  0  0  0  0  0  0  0  0
   39.4530   23.0190   36.9680 C   0  0  0  0  0  0  0  0  0  0  0  0
   38.9610   23.1810   38.2720 C   0  0  0  0  0  0  0  0  0  0  0  0
   38.1040   24.2500   38.5080 C   0  0  0  0  0  0  0  0  0  0  0  0
   37.7900   25.0820   37.4570 N   0  0  0  0  0  0  0  0  0  0  0  0
   38.2900   24.8840   36.2190 C   0  0  0  0  0  0  0  0  0  0  0  0
   39.0990   23.8770   35.9890 N   0  0  0  0  0  0  0  0  0  0  0  0
   41.2753   23.8484   35.3697 H   0  0  0  0  0  0  0  0  0  0  0  0
   42.2022   25.4499   34.4121 H   0  0  0  0  0  0  0  0  0  0  0  0
   44.0504   27.0066   33.9352 H   0  0  0  0  0  0  0  0  0  0  0  0
   47.1320   24.0901   36.6818 H   0  0  0  0  0  0  0  0  0  0  0  0
   47.5904   26.5698   35.9487 H   0  0  0  0  0  0  0  0  0  0  0  0
   47.2617   27.0221   37.6329 H   0  0  0  0  0  0  0  0  0  0  0  0
   49.5214   25.4386   36.4523 H   0  0  0  0  0  0  0  0  0  0  0  0
   49.4875   26.5453   37.8907 H   0  0  0  0  0  0  0  0  0  0  0  0
   48.8708   23.6213   37.6856 H   0  0  0  0  0  0  0  0  0  0  0  0
   49.8460   24.5737   38.9074 H   0  0  0  0  0  0  0  0  0  0  0  0
   47.7229   23.5710   39.7473 H   0  0  0  0  0  0  0  0  0  0  0  0
   47.9448   25.3796   39.9457 H   0  0  0  0  0  0  0  0  0  0  0  0
   45.9887   25.7173   39.0157 H   0  0  0  0  0  0  0  0  0  0  0  0
   45.7589   23.9632   38.7689 H   0  0  0  0  0  0  0  0  0  0  0  0
   42.5382   21.6971   36.7401 H   0  0  0  0  0  0  0  0  0  0  0  0
   41.8421   22.8322   37.9488 H   0  0  0  0  0  0  0  0  0  0  0  0
   40.2729   21.6111   35.5855 H   0  0  0  0  0  0  0  0  0  0  0  0
   40.1745   21.0038   37.2355 H   0  0  0  0  0  0  0  0  0  0  0  0
   39.2430   22.4876   39.0780 H   0  0  0  0  0  0  0  0  0  0  0  0
   37.6868   24.4268   39.5104 H   0  0  0  0  0  0  0  0  0  0  0  0
   38.0187   25.5681   35.4014 H   0  0  0  0  0  0  0  0  0  0  0  0
  1 14  1  0
  2  1  1  0
  2  7  1  0
  3  2  2  0
  4  3  1  0
  4  5  2  0
  5  6  1  0
  6  7  2  0
  6  8  1  0
  8 13  1  0
  9  8  1  0
  9 10  1  0
 10 11  1  0
 11 12  1  0
 13 12  1  0
 15 14  1  0
 15 16  1  0
 16 17  2  0
 17 18  1  0
 19 18  2  0
 20 19  1  0
 21 20  2  0
 21 16  1  0
  1 22  1  0
  3 23  1  0
  4 24  1  0
  8 25  1  0
  9 26  1  0
  9 27  1  0
 10 28  1  0
 10 29  1  0
 11 30  1  0
 11 31  1  0
 12 32  1  0
 12 33  1  0
 13 34  1  0
 13 35  1  0
 14 36  1  0
 14 37  1  0
 15 38  1  0
 15 39  1  0
 17 40  1  0
 18 41  1  0
 20 42  1  0
M  ISO  8  23  14  24  14  25  13  26  13  27  13  28  13  29  13  30  13
M  ISO  8  31  13  32  13  33  13  34  13  35  13  36   8  37   8  38   8
M  ISO  4  39   8  40  14  41  14  42  14
M  END
>  <minimizedAffinity>  (1) 
-4.71674585

>  <minimizedRMSD>  (1) 
1.44093287

$$$$
