
     RDKit          3D

 32 34  0  0  0  0  0  0  0  0999 V2000
   42.0820   22.7910   37.0050 C   0  0  0  0  0  0  0  0  0  0  0  0
   40.8680   21.8310   37.0130 C   0  0  0  0  0  0  0  0  0  0  0  0
   39.6970   22.7380   37.0730 C   0  0  0  0  0  0  0  0  0  0  0  0
   39.1890   23.2070   38.2970 C   0  0  0  0  0  0  0  0  0  0  0  0
   38.0930   24.0590   38.2510 C   0  0  0  0  0  0  0  0  0  0  0  0
   37.5600   24.3990   37.0400 N   0  0  0  0  0  0  0  0  0  0  0  0
   38.0830   23.9230   35.8900 C   0  0  0  0  0  0  0  0  0  0  0  0
   39.1180   23.1190   35.9100 N   0  0  0  0  0  0  0  0  0  0  0  0
   42.0000   23.6760   35.8620 N   0  0  0  0  0  0  0  0  0  0  0  0
   42.8910   24.7270   35.4870 C   0  0  0  0  0  0  0  0  0  0  0  0
   42.3720   25.5080   34.4970 C   0  0  0  0  0  0  0  0  0  0  0  0
   43.0810   26.5710   33.9670 C   0  0  0  0  0  0  0  0  0  0  0  0
   44.3300   26.8610   34.4300 N   0  0  0  0  0  0  0  0  0  0  0  0
   44.8500   26.0830   35.4180 C   0  0  0  0  0  0  0  0  0  0  0  0
   44.1360   25.0380   35.9310 N   0  0  0  0  0  0  0  0  0  0  0  0
   46.1250   26.2190   36.0330 N   0  0  0  0  0  0  0  0  0  0  0  0
   46.4210   25.7730   37.2900 C   0  0  0  0  0  0  0  0  0  0  0  0
   47.7270   26.0700   37.5500 N   0  0  0  0  0  0  0  0  0  0  0  0
   48.2210   26.6950   36.4560 C   0  0  0  0  0  0  0  0  0  0  0  0
   47.2290   26.7790   35.5340 N   0  0  0  0  0  0  0  0  0  0  0  0
   42.0821   23.3874   37.9293 H   0  0  0  0  0  0  0  0  0  0  0  0
   43.0096   22.2030   36.9432 H   0  0  0  0  0  0  0  0  0  0  0  0
   40.8447   21.2218   36.0974 H   0  0  0  0  0  0  0  0  0  0  0  0
   40.8961   21.1183   37.8505 H   0  0  0  0  0  0  0  0  0  0  0  0
   39.6421   22.9106   39.2545 H   0  0  0  0  0  0  0  0  0  0  0  0
   37.6586   24.4560   39.1803 H   0  0  0  0  0  0  0  0  0  0  0  0
   37.6364   24.2126   34.9273 H   0  0  0  0  0  0  0  0  0  0  0  0
   41.1939   23.5282   35.2381 H   0  0  0  0  0  0  0  0  0  0  0  0
   41.3659   25.2876   34.1108 H   0  0  0  0  0  0  0  0  0  0  0  0
   42.6357   27.1841   33.1696 H   0  0  0  0  0  0  0  0  0  0  0  0
   45.7267   25.2629   37.9739 H   0  0  0  0  0  0  0  0  0  0  0  0
   49.2481   27.0698   36.3352 H   0  0  0  0  0  0  0  0  0  0  0  0
  1  2  1  0
  2  3  1  0
  3  4  2  0
  5  4  1  0
  6  5  2  0
  7  8  2  0
  7  6  1  0
  8  3  1  0
  9  1  1  0
 10  9  1  0
 10 15  1  0
 11 10  2  0
 12 13  2  0
 12 11  1  0
 13 14  1  0
 14 15  2  0
 14 16  1  0
 16 17  1  0
 17 18  2  0
 19 18  1  0
 20 16  1  0
 20 19  2  0
  1 21  1  0
  1 22  1  0
  2 23  1  0
  2 24  1  0
  4 25  1  0
  5 26  1  0
  7 27  1  0
  9 28  1  0
 11 29  1  0
 12 30  1  0
 17 31  1  0
 19 32  1  0
M  ISO  8  21   8  22   8  23   8  24   8  25  14  26  14  27  14  29  14
M  ISO  3  30  14  31  14  32  14
M  END
>  <minimizedAffinity>  (1) 
-4.43593168

>  <minimizedRMSD>  (1) 
0.309813291

$$$$
