
     RDKit          3D

 36 39  0  0  0  0  0  0  0  0999 V2000
   38.3310   23.4470   38.1710 C   0  0  0  0  0  0  0  0  0  0  0  0
   37.7140   24.2140   37.1850 C   0  0  0  0  0  0  0  0  0  0  0  0
   38.4240   24.4260   36.0000 C   0  0  0  0  0  0  0  0  0  0  0  0
   39.6570   23.8780   35.8840 N   0  0  0  0  0  0  0  0  0  0  0  0
   40.2140   23.1380   36.8730 C   0  0  0  0  0  0  0  0  0  0  0  0
   39.5380   22.9290   38.0140 N   0  0  0  0  0  0  0  0  0  0  0  0
   41.5180   22.5740   36.7150 N   0  0  0  0  0  0  0  0  0  0  0  0
   41.8790   21.9370   35.5130 C   0  0  0  0  0  0  0  0  0  0  0  0
   40.9640   21.7120   34.6160 N   0  0  0  0  0  0  0  0  0  0  0  0
   43.2430   21.5330   35.2670 N   0  0  0  0  0  0  0  0  0  0  0  0
   41.2250   21.2150   33.7410 H   0  0  0  0  0  0  0  0  0  0  0  0
   37.8760   25.1920   34.9480 N   0  0  0  0  0  0  0  0  0  0  0  0
   37.5800   26.4930   35.0190 C   0  0  0  0  0  0  0  0  0  0  0  0
   37.0710   26.9120   33.8320 N   0  0  0  0  0  0  0  0  0  0  0  0
   37.0680   25.8330   33.0370 C   0  0  0  0  0  0  0  0  0  0  0  0
   36.6370   25.7580   31.7190 C   0  0  0  0  0  0  0  0  0  0  0  0
   36.7340   24.5300   31.1090 N   0  0  0  0  0  0  0  0  0  0  0  0
   37.2310   23.4860   31.8140 C   0  0  0  0  0  0  0  0  0  0  0  0
   37.6540   23.5440   33.0980 N   0  0  0  0  0  0  0  0  0  0  0  0
   37.5730   24.7430   33.7300 C   0  0  0  0  0  0  0  0  0  0  0  0
   37.3150   22.2010   31.1270 C   0  0  0  0  0  0  0  0  0  0  0  0
   38.4460   21.8160   30.4360 C   0  0  0  0  0  0  0  0  0  0  0  0
   38.5920   20.6130   29.7610 C   0  0  0  0  0  0  0  0  0  0  0  0
   37.5120   19.7870   29.8160 N   0  0  0  0  0  0  0  0  0  0  0  0
   36.3990   20.1430   30.4830 C   0  0  0  0  0  0  0  0  0  0  0  0
   36.2820   21.3360   31.1400 N   0  0  0  0  0  0  0  0  0  0  0  0
   37.7950   23.2656   39.1143 H   0  0  0  0  0  0  0  0  0  0  0  0
   36.7089   24.6356   37.3332 H   0  0  0  0  0  0  0  0  0  0  0  0
   42.1981   22.6342   37.4862 H   0  0  0  0  0  0  0  0  0  0  0  0
   43.4907   21.0678   34.3820 H   0  0  0  0  0  0  0  0  0  0  0  0
   43.9684   21.7099   35.9765 H   0  0  0  0  0  0  0  0  0  0  0  0
   37.7265   27.1284   35.9049 H   0  0  0  0  0  0  0  0  0  0  0  0
   36.2384   26.6363   31.1902 H   0  0  0  0  0  0  0  0  0  0  0  0
   39.2950   22.5153   30.4193 H   0  0  0  0  0  0  0  0  0  0  0  0
   39.5127   20.3465   29.2212 H   0  0  0  0  0  0  0  0  0  0  0  0
   35.5485   19.4456   30.5003 H   0  0  0  0  0  0  0  0  0  0  0  0
  2  1  2  0
  3  2  1  0
  4  3  2  0
  4  5  1  0
  5  6  2  0
  6  1  1  0
  7  5  1  0
  8  7  1  0
  9  8  2  0
 10  8  1  0
 11  9  1  0
 12 13  1  0
 12  3  1  0
 14 13  2  0
 15 20  2  0
 15 14  1  0
 16 15  1  0
 17 16  2  0
 17 18  1  0
 18 19  2  0
 19 20  1  0
 20 12  1  0
 21 26  1  0
 21 18  1  0
 22 21  2  0
 23 24  2  0
 23 22  1  0
 24 25  1  0
 25 26  2  0
  1 27  1  0
  2 28  1  0
  7 29  1  0
 10 30  1  0
 10 31  1  0
 13 32  1  0
 16 33  1  0
 22 34  1  0
 23 35  1  0
 25 36  1  0
M  ISO  7  27  14  28  14  32  14  33  14  34  14  35  14  36  14
M  END
>  <minimizedAffinity>  (1) 
-5.88041306

>  <minimizedRMSD>  (1) 
5.37413979

$$$$
