
     RDKit          3D

 33 35  0  0  0  0  0  0  0  0999 V2000
   41.9620   23.6600   35.8440 N   0  0  0  0  0  0  0  0  0  0  0  0
   42.8550   24.7140   35.4650 C   0  0  0  0  0  0  0  0  0  0  0  0
   42.3140   25.4940   34.4800 C   0  0  0  0  0  0  0  0  0  0  0  0
   43.0220   26.5670   33.9470 C   0  0  0  0  0  0  0  0  0  0  0  0
   44.2700   26.8530   34.4060 N   0  0  0  0  0  0  0  0  0  0  0  0
   44.7950   26.0700   35.3860 C   0  0  0  0  0  0  0  0  0  0  0  0
   44.1250   25.0190   35.9200 N   0  0  0  0  0  0  0  0  0  0  0  0
   46.1040   26.2020   36.0160 C   0  0  0  0  0  0  0  0  0  0  0  0
   46.3670   25.7110   37.2950 C   0  0  0  0  0  0  0  0  0  0  0  0
   47.7050   26.0410   37.5080 C   0  0  0  0  0  0  0  0  0  0  0  0
   48.2000   26.6880   36.4160 N   0  0  0  0  0  0  0  0  0  0  0  0
   47.2110   26.7770   35.5180 N   0  0  0  0  0  0  0  0  0  0  0  0
   42.0610   22.7780   36.9920 C   0  0  0  0  0  0  0  0  0  0  0  0
   40.8470   21.8310   37.0370 C   0  0  0  0  0  0  0  0  0  0  0  0
   39.6760   22.7380   37.0950 C   0  0  0  0  0  0  0  0  0  0  0  0
   39.1810   23.2180   38.3170 C   0  0  0  0  0  0  0  0  0  0  0  0
   38.0860   24.0690   38.2770 C   0  0  0  0  0  0  0  0  0  0  0  0
   37.5440   24.4000   37.0710 N   0  0  0  0  0  0  0  0  0  0  0  0
   38.0510   23.9150   35.9200 C   0  0  0  0  0  0  0  0  0  0  0  0
   39.0860   23.1090   35.9390 N   0  0  0  0  0  0  0  0  0  0  0  0
   41.1512   23.5100   35.2267 H   0  0  0  0  0  0  0  0  0  0  0  0
   41.3049   25.2699   34.1039 H   0  0  0  0  0  0  0  0  0  0  0  0
   42.5725   27.1836   33.1547 H   0  0  0  0  0  0  0  0  0  0  0  0
   45.6802   25.1866   37.9757 H   0  0  0  0  0  0  0  0  0  0  0  0
   48.2752   25.8131   38.4207 H   0  0  0  0  0  0  0  0  0  0  0  0
   49.1599   27.0437   36.3021 H   0  0  0  0  0  0  0  0  0  0  0  0
   42.9836   22.1838   36.9160 H   0  0  0  0  0  0  0  0  0  0  0  0
   42.0805   23.3828   37.9106 H   0  0  0  0  0  0  0  0  0  0  0  0
   40.8091   21.2031   36.1346 H   0  0  0  0  0  0  0  0  0  0  0  0
   40.8853   21.1394   37.8916 H   0  0  0  0  0  0  0  0  0  0  0  0
   39.6444   22.9300   39.2722 H   0  0  0  0  0  0  0  0  0  0  0  0
   37.6602   24.4719   39.2078 H   0  0  0  0  0  0  0  0  0  0  0  0
   37.5945   24.1965   34.9596 H   0  0  0  0  0  0  0  0  0  0  0  0
  1 13  1  0
  2  1  1  0
  2  7  1  0
  3  2  2  0
  4  5  2  0
  4  3  1  0
  5  6  1  0
  6  7  2  0
  6  8  1  0
  8  9  1  0
  9 10  2  0
 11 10  1  0
 12  8  2  0
 12 11  1  0
 13 14  1  0
 14 15  1  0
 15 16  2  0
 17 16  1  0
 18 17  2  0
 19 20  2  0
 19 18  1  0
 20 15  1  0
  1 21  1  0
  3 22  1  0
  4 23  1  0
  9 24  1  0
 10 25  1  0
 11 26  1  0
 13 27  1  0
 13 28  1  0
 14 29  1  0
 14 30  1  0
 16 31  1  0
 17 32  1  0
 19 33  1  0
M  ISO  8  22  14  23  14  24  14  25  14  26   9  27   8  28   8  29   8
M  ISO  4  30   8  31  14  32  14  33  14
M  END
>  <minimizedAffinity>  (1) 
-4.27546215

>  <minimizedRMSD>  (1) 
0.503607988

$$$$
