
     RDKit          3D

 45 48  0  0  0  0  0  0  0  0999 V2000
   41.9560   23.3190   35.6010 N   0  0  0  0  0  0  0  0  0  0  0  0
   42.7170   24.4940   35.2680 C   0  0  0  0  0  0  0  0  0  0  0  0
   42.0490   25.3090   34.3910 C   0  0  0  0  0  0  0  0  0  0  0  0
   42.6490   26.4890   33.9120 C   0  0  0  0  0  0  0  0  0  0  0  0
   43.9060   26.8300   34.3200 N   0  0  0  0  0  0  0  0  0  0  0  0
   44.5360   25.9940   35.1950 C   0  0  0  0  0  0  0  0  0  0  0  0
   43.9930   24.8430   35.6830 N   0  0  0  0  0  0  0  0  0  0  0  0
   45.8260   26.1960   35.7450 N   0  0  0  0  0  0  0  0  0  0  0  0
   46.6500   27.0020   35.0400 C   0  0  0  0  0  0  0  0  0  0  0  0
   47.9110   27.2630   35.5150 C   0  0  0  0  0  0  0  0  0  0  0  0
   48.3550   26.7090   36.7120 C   0  0  0  0  0  0  0  0  0  0  0  0
   49.5120   26.9140   37.2010 O   0  0  0  0  0  0  0  0  0  0  0  0
   47.4930   25.9140   37.3690 N   0  0  0  0  0  0  0  0  0  0  0  0
   46.2500   25.6460   36.9200 C   0  0  0  0  0  0  0  0  0  0  0  0
   45.4100   24.9090   37.5010 O   0  0  0  0  0  0  0  0  0  0  0  0
   41.8590   22.6870   36.9120 C   0  0  0  0  0  0  0  0  0  0  0  0
   40.5210   21.9120   37.0050 C   0  0  0  0  0  0  0  0  0  0  0  0
   39.5230   22.9740   37.2130 C   0  0  0  0  0  0  0  0  0  0  0  0
   38.9730   23.2210   38.4660 C   0  0  0  0  0  0  0  0  0  0  0  0
   38.0510   24.2310   38.5930 C   0  0  0  0  0  0  0  0  0  0  0  0
   37.7090   24.9510   37.4950 N   0  0  0  0  0  0  0  0  0  0  0  0
   38.2640   24.6920   36.2640 C   0  0  0  0  0  0  0  0  0  0  0  0
   39.1320   23.7290   36.1890 N   0  0  0  0  0  0  0  0  0  0  0  0
   37.8460   25.5130   35.1220 C   0  0  0  0  0  0  0  0  0  0  0  0
   37.5130   26.8410   35.3010 C   0  0  0  0  0  0  0  0  0  0  0  0
   37.1150   27.6460   34.2540 C   0  0  0  0  0  0  0  0  0  0  0  0
   37.0520   27.0960   32.9930 C   0  0  0  0  0  0  0  0  0  0  0  0
   37.3910   25.7660   32.8400 C   0  0  0  0  0  0  0  0  0  0  0  0
   37.7840   24.9730   33.8730 N   0  0  0  0  0  0  0  0  0  0  0  0
   41.4256   22.8793   34.8354 H   0  0  0  0  0  0  0  0  0  0  0  0
   41.0358   25.0386   34.0589 H   0  0  0  0  0  0  0  0  0  0  0  0
   42.1046   27.1363   33.2087 H   0  0  0  0  0  0  0  0  0  0  0  0
   46.3125   27.4460   34.0918 H   0  0  0  0  0  0  0  0  0  0  0  0
   48.5808   27.9200   34.9409 H   0  0  0  0  0  0  0  0  0  0  0  0
   47.7961   25.4895   38.2572 H   0  0  0  0  0  0  0  0  0  0  0  0
   42.6986   21.9894   37.0473 H   0  0  0  0  0  0  0  0  0  0  0  0
   41.8963   23.4564   37.6973 H   0  0  0  0  0  0  0  0  0  0  0  0
   40.3204   21.3606   36.0745 H   0  0  0  0  0  0  0  0  0  0  0  0
   40.5174   21.1576   37.8056 H   0  0  0  0  0  0  0  0  0  0  0  0
   39.2703   22.6197   39.3378 H   0  0  0  0  0  0  0  0  0  0  0  0
   37.5968   24.4528   39.5700 H   0  0  0  0  0  0  0  0  0  0  0  0
   37.5669   27.2712   36.3119 H   0  0  0  0  0  0  0  0  0  0  0  0
   36.8543   28.7014   34.4221 H   0  0  0  0  0  0  0  0  0  0  0  0
   36.7394   27.7010   32.1291 H   0  0  0  0  0  0  0  0  0  0  0  0
   37.3407   25.3262   31.8330 H   0  0  0  0  0  0  0  0  0  0  0  0
  1 16  1  0
  2  1  1  0
  2  7  1  0
  3  2  2  0
  4  5  2  0
  4  3  1  0
  5  6  1  0
  6  7  2  0
  6  8  1  0
  8 14  1  0
  9 10  2  0
  9  8  1  0
 10 11  1  0
 11 12  2  0
 11 13  1  0
 14 13  1  0
 14 15  2  0
 16 17  1  0
 17 18  1  0
 18 19  2  0
 19 20  1  0
 21 20  2  0
 22 21  1  0
 23 22  2  0
 23 18  1  0
 24 25  2  0
 24 22  1  0
 26 25  1  0
 27 26  2  0
 28 27  1  0
 28 29  2  0
 29 24  1  0
  1 30  1  0
  3 31  1  0
  4 32  1  0
  9 33  1  0
 10 34  1  0
 13 35  1  0
 16 36  1  0
 16 37  1  0
 17 38  1  0
 17 39  1  0
 19 40  1  0
 20 41  1  0
 25 42  1  0
 26 43  1  0
 27 44  1  0
 28 45  1  0
M  ISO  8  31  14  32  14  33  14  34  14  35   9  36   8  37   8  38   8
M  ISO  7  39   8  40  14  41  14  42  14  43  14  44  14  45  14
M  END
>  <minimizedAffinity>  (1) 
-6.04198408

>  <minimizedRMSD>  (1) 
1.13658154

$$$$
