
     RDKit          3D

 43 46  0  0  0  0  0  0  0  0999 V2000
   41.9510   23.4890   35.5560 N   0  0  0  0  0  0  0  0  0  0  0  0
   42.7780   24.6260   35.2460 C   0  0  0  0  0  0  0  0  0  0  0  0
   42.1670   25.4790   34.3610 C   0  0  0  0  0  0  0  0  0  0  0  0
   42.8340   26.6340   33.9040 C   0  0  0  0  0  0  0  0  0  0  0  0
   44.0930   26.9080   34.3450 N   0  0  0  0  0  0  0  0  0  0  0  0
   44.6630   26.0350   35.2260 C   0  0  0  0  0  0  0  0  0  0  0  0
   44.0580   24.9150   35.6890 N   0  0  0  0  0  0  0  0  0  0  0  0
   45.9540   26.1710   35.7980 N   0  0  0  0  0  0  0  0  0  0  0  0
   46.8230   26.9550   35.1310 C   0  0  0  0  0  0  0  0  0  0  0  0
   48.0880   27.1520   35.6230 C   0  0  0  0  0  0  0  0  0  0  0  0
   48.4860   26.5410   36.8230 C   0  0  0  0  0  0  0  0  0  0  0  0
   49.6510   26.7060   37.3050 O   0  0  0  0  0  0  0  0  0  0  0  0
   47.5800   25.7710   37.4450 N   0  0  0  0  0  0  0  0  0  0  0  0
   46.3420   25.5800   36.9590 C   0  0  0  0  0  0  0  0  0  0  0  0
   45.4600   24.8600   37.5180 O   0  0  0  0  0  0  0  0  0  0  0  0
   41.8680   22.8010   36.8370 C   0  0  0  0  0  0  0  0  0  0  0  0
   40.5510   21.9840   36.8970 C   0  0  0  0  0  0  0  0  0  0  0  0
   39.5250   23.0160   37.1390 C   0  0  0  0  0  0  0  0  0  0  0  0
   38.9720   23.2160   38.3990 C   0  0  0  0  0  0  0  0  0  0  0  0
   38.0260   24.1990   38.5550 C   0  0  0  0  0  0  0  0  0  0  0  0
   37.6630   24.9410   37.4780 N   0  0  0  0  0  0  0  0  0  0  0  0
   38.2240   24.7250   36.2420 C   0  0  0  0  0  0  0  0  0  0  0  0
   39.1130   23.7880   36.1350 N   0  0  0  0  0  0  0  0  0  0  0  0
   37.7760   25.5580   35.1750 N   0  0  0  0  0  0  0  0  0  0  0  0
   37.9370   25.0090   33.9800 N   0  0  0  0  0  0  0  0  0  0  0  0
   37.5020   25.8280   33.0190 C   0  0  0  0  0  0  0  0  0  0  0  0
   37.0280   26.9860   33.6450 C   0  0  0  0  0  0  0  0  0  0  0  0
   37.2200   26.7740   35.0160 C   0  0  0  0  0  0  0  0  0  0  0  0
   41.3587   23.1257   34.7957 H   0  0  0  0  0  0  0  0  0  0  0  0
   41.1493   25.2598   34.0057 H   0  0  0  0  0  0  0  0  0  0  0  0
   42.3388   27.3119   33.1932 H   0  0  0  0  0  0  0  0  0  0  0  0
   46.5177   27.4376   34.1909 H   0  0  0  0  0  0  0  0  0  0  0  0
   48.7947   27.7922   35.0745 H   0  0  0  0  0  0  0  0  0  0  0  0
   47.8433   25.3094   38.3274 H   0  0  0  0  0  0  0  0  0  0  0  0
   42.7266   22.1220   36.9455 H   0  0  0  0  0  0  0  0  0  0  0  0
   41.8807   23.5390   37.6526 H   0  0  0  0  0  0  0  0  0  0  0  0
   40.3678   21.4607   35.9469 H   0  0  0  0  0  0  0  0  0  0  0  0
   40.5645   21.1998   37.6683 H   0  0  0  0  0  0  0  0  0  0  0  0
   39.2861   22.5990   39.2538 H   0  0  0  0  0  0  0  0  0  0  0  0
   37.5690   24.3825   39.5386 H   0  0  0  0  0  0  0  0  0  0  0  0
   37.5141   25.6292   31.9372 H   0  0  0  0  0  0  0  0  0  0  0  0
   36.5959   27.8750   33.1624 H   0  0  0  0  0  0  0  0  0  0  0  0
   36.9619   27.4773   35.8214 H   0  0  0  0  0  0  0  0  0  0  0  0
  1 16  1  0
  2  1  1  0
  2  7  1  0
  3  2  2  0
  4  5  2  0
  4  3  1  0
  5  6  1  0
  6  7  2  0
  6  8  1  0
  8 14  1  0
  9 10  2  0
  9  8  1  0
 10 11  1  0
 11 12  2  0
 11 13  1  0
 14 13  1  0
 14 15  2  0
 16 17  1  0
 17 18  1  0
 18 19  2  0
 19 20  1  0
 21 20  2  0
 22 21  1  0
 23 22  2  0
 23 18  1  0
 24 22  1  0
 25 24  1  0
 26 27  1  0
 26 25  2  0
 27 28  2  0
 28 24  1  0
  1 29  1  0
  3 30  1  0
  4 31  1  0
  9 32  1  0
 10 33  1  0
 13 34  1  0
 16 35  1  0
 16 36  1  0
 17 37  1  0
 17 38  1  0
 19 39  1  0
 20 40  1  0
 26 41  1  0
 27 42  1  0
 28 43  1  0
M  ISO  8  30  14  31  14  32  14  33  14  34   9  35   8  36   8  37   8
M  ISO  6  38   8  39  14  40  14  41  14  42  14  43  14
M  END
>  <minimizedAffinity>  (1) 
-5.95556402

>  <minimizedRMSD>  (1) 
1.04048645

$$$$
