
     RDKit          3D

 35 38  0  0  0  0  0  0  0  0999 V2000
   38.5770   23.3010   38.2750 C   0  0  0  0  0  0  0  0  0  0  0  0
   38.0500   24.4150   37.6130 C   0  0  0  0  0  0  0  0  0  0  0  0
   38.6580   24.7850   36.4020 C   0  0  0  0  0  0  0  0  0  0  0  0
   39.7090   24.0370   35.9620 N   0  0  0  0  0  0  0  0  0  0  0  0
   40.1700   22.9790   36.6390 C   0  0  0  0  0  0  0  0  0  0  0  0
   39.5990   22.6090   37.8050 N   0  0  0  0  0  0  0  0  0  0  0  0
   41.2790   22.2240   36.1350 N   0  0  0  0  0  0  0  0  0  0  0  0
   41.3350   21.8630   34.7680 C   0  0  0  0  0  0  0  0  0  0  0  0
   40.2820   22.0760   34.0210 N   0  0  0  0  0  0  0  0  0  0  0  0
   42.5140   21.2780   34.2090 N   0  0  0  0  0  0  0  0  0  0  0  0
   40.3210   21.7840   33.0130 H   0  0  0  0  0  0  0  0  0  0  0  0
   38.1890   25.8960   35.6730 N   0  0  0  0  0  0  0  0  0  0  0  0
   38.2160   27.1620   36.0910 C   0  0  0  0  0  0  0  0  0  0  0  0
   37.6850   27.9680   35.1370 N   0  0  0  0  0  0  0  0  0  0  0  0
   37.3310   27.1520   34.1240 C   0  0  0  0  0  0  0  0  0  0  0  0
   36.7430   27.5350   32.9270 C   0  0  0  0  0  0  0  0  0  0  0  0
   36.4770   26.5240   32.0520 N   0  0  0  0  0  0  0  0  0  0  0  0
   36.7890   25.2330   32.3790 C   0  0  0  0  0  0  0  0  0  0  0  0
   37.3640   24.8750   33.5560 N   0  0  0  0  0  0  0  0  0  0  0  0
   37.6450   25.8430   34.4520 C   0  0  0  0  0  0  0  0  0  0  0  0
   36.4880   24.1400   31.4040 C   0  0  0  0  0  0  0  0  0  0  0  0
   37.6230   23.6840   30.5000 C   0  0  0  0  0  0  0  0  0  0  0  0
   37.0580   22.7970   31.5370 C   0  0  0  0  0  0  0  0  0  0  0  0
   38.1214   22.9885   39.2262 H   0  0  0  0  0  0  0  0  0  0  0  0
   37.1973   24.9763   38.0226 H   0  0  0  0  0  0  0  0  0  0  0  0
   42.0389   21.9428   36.7709 H   0  0  0  0  0  0  0  0  0  0  0  0
   42.5383   21.0209   33.2119 H   0  0  0  0  0  0  0  0  0  0  0  0
   43.3389   21.1137   34.8035 H   0  0  0  0  0  0  0  0  0  0  0  0
   38.6087   27.5012   37.0609 H   0  0  0  0  0  0  0  0  0  0  0  0
   36.5071   28.5850   32.6991 H   0  0  0  0  0  0  0  0  0  0  0  0
   35.4597   24.5136   31.2898 H   0  0  0  0  0  0  0  0  0  0  0  0
   37.4360   23.4810   29.4352 H   0  0  0  0  0  0  0  0  0  0  0  0
   38.6257   24.0586   30.2464 H   0  0  0  0  0  0  0  0  0  0  0  0
   37.6583   22.5466   32.4241 H   0  0  0  0  0  0  0  0  0  0  0  0
   36.6337   21.7822   31.5263 H   0  0  0  0  0  0  0  0  0  0  0  0
  2  1  2  0
  3  2  1  0
  4  3  2  0
  4  5  1  0
  5  6  2  0
  6  1  1  0
  7  5  1  0
  8  7  1  0
  9  8  2  0
 10  8  1  0
 11  9  1  0
 12 13  1  0
 12  3  1  0
 14 13  2  0
 15 20  2  0
 15 14  1  0
 16 15  1  0
 17 18  1  0
 17 16  2  0
 18 19  2  0
 19 20  1  0
 20 12  1  0
 21 23  1  0
 21 18  1  0
 22 21  1  0
 22 23  1  0
  1 24  1  0
  2 25  1  0
  7 26  1  0
 10 27  1  0
 10 28  1  0
 13 29  1  0
 16 30  1  0
 21 31  1  0
 22 32  1  0
 22 33  1  0
 23 34  1  0
 23 35  1  0
M  ISO  8  24  14  25  14  29  14  30  14  31  13  32  13  33  13  34  13
M  ISO  1  35  13
M  END
>  <minimizedAffinity>  (1) 
-5.57648373

>  <minimizedRMSD>  (1) 
4.23604059

$$$$
