
     RDKit          3D

 43 46  0  0  0  0  0  0  0  0999 V2000
   41.9250   23.5140   35.5490 N   0  0  0  0  0  0  0  0  0  0  0  0
   42.7560   24.6460   35.2380 C   0  0  0  0  0  0  0  0  0  0  0  0
   42.1500   25.5060   34.3560 C   0  0  0  0  0  0  0  0  0  0  0  0
   42.8200   26.6540   33.9000 C   0  0  0  0  0  0  0  0  0  0  0  0
   44.0840   26.9240   34.3340 N   0  0  0  0  0  0  0  0  0  0  0  0
   44.6510   26.0420   35.2160 C   0  0  0  0  0  0  0  0  0  0  0  0
   44.0420   24.9240   35.6800 N   0  0  0  0  0  0  0  0  0  0  0  0
   45.9420   26.1740   35.7870 N   0  0  0  0  0  0  0  0  0  0  0  0
   46.8160   26.9540   35.1190 C   0  0  0  0  0  0  0  0  0  0  0  0
   48.0780   27.1480   35.6130 C   0  0  0  0  0  0  0  0  0  0  0  0
   48.4760   26.5430   36.8130 C   0  0  0  0  0  0  0  0  0  0  0  0
   49.6350   26.6990   37.3070 O   0  0  0  0  0  0  0  0  0  0  0  0
   47.5700   25.7810   37.4320 N   0  0  0  0  0  0  0  0  0  0  0  0
   46.3220   25.5810   36.9560 C   0  0  0  0  0  0  0  0  0  0  0  0
   45.4430   24.8700   37.5100 O   0  0  0  0  0  0  0  0  0  0  0  0
   41.8720   22.7930   36.8160 C   0  0  0  0  0  0  0  0  0  0  0  0
   40.5510   21.9830   36.8800 C   0  0  0  0  0  0  0  0  0  0  0  0
   39.5400   23.0130   37.1720 C   0  0  0  0  0  0  0  0  0  0  0  0
   39.0250   23.1880   38.4520 C   0  0  0  0  0  0  0  0  0  0  0  0
   38.0890   24.1730   38.6620 C   0  0  0  0  0  0  0  0  0  0  0  0
   37.7010   24.9390   37.6080 N   0  0  0  0  0  0  0  0  0  0  0  0
   38.2210   24.7520   36.3510 C   0  0  0  0  0  0  0  0  0  0  0  0
   39.1000   23.8100   36.2020 N   0  0  0  0  0  0  0  0  0  0  0  0
   37.7970   25.5830   35.2260 C   0  0  0  0  0  0  0  0  0  0  0  0
   37.3180   26.8690   35.0450 C   0  0  0  0  0  0  0  0  0  0  0  0
   37.1080   27.0180   33.6710 C   0  0  0  0  0  0  0  0  0  0  0  0
   37.4520   25.8600   33.0750 N   0  0  0  0  0  0  0  0  0  0  0  0
   37.8610   25.0080   33.9980 N   0  0  0  0  0  0  0  0  0  0  0  0
   41.3032   23.1778   34.7999 H   0  0  0  0  0  0  0  0  0  0  0  0
   41.1300   25.2944   34.0028 H   0  0  0  0  0  0  0  0  0  0  0  0
   42.3244   27.3351   33.1926 H   0  0  0  0  0  0  0  0  0  0  0  0
   46.5147   27.4347   34.1766 H   0  0  0  0  0  0  0  0  0  0  0  0
   48.7864   27.7848   35.0629 H   0  0  0  0  0  0  0  0  0  0  0  0
   47.8363   25.3236   38.3156 H   0  0  0  0  0  0  0  0  0  0  0  0
   42.7291   22.1072   36.8864 H   0  0  0  0  0  0  0  0  0  0  0  0
   41.9117   23.5067   37.6521 H   0  0  0  0  0  0  0  0  0  0  0  0
   40.3444   21.4883   35.9195 H   0  0  0  0  0  0  0  0  0  0  0  0
   40.5746   21.1767   37.6279 H   0  0  0  0  0  0  0  0  0  0  0  0
   39.3608   22.5493   39.2822 H   0  0  0  0  0  0  0  0  0  0  0  0
   37.6627   24.3379   39.6626 H   0  0  0  0  0  0  0  0  0  0  0  0
   37.1386   27.6227   35.8259 H   0  0  0  0  0  0  0  0  0  0  0  0
   36.7296   27.9194   33.1668 H   0  0  0  0  0  0  0  0  0  0  0  0
   37.4039   25.6698   32.0639 H   0  0  0  0  0  0  0  0  0  0  0  0
  1 16  1  0
  2  1  1  0
  2  7  1  0
  3  2  2  0
  4  5  2  0
  4  3  1  0
  5  6  1  0
  6  7  2  0
  6  8  1  0
  8 14  1  0
  9 10  2  0
  9  8  1  0
 10 11  1  0
 11 12  2  0
 11 13  1  0
 14 13  1  0
 14 15  2  0
 16 17  1  0
 17 18  1  0
 18 19  2  0
 19 20  1  0
 21 20  2  0
 22 21  1  0
 23 22  2  0
 23 18  1  0
 24 22  1  0
 25 24  1  0
 26 25  2  0
 27 26  1  0
 27 28  1  0
 28 24  2  0
  1 29  1  0
  3 30  1  0
  4 31  1  0
  9 32  1  0
 10 33  1  0
 13 34  1  0
 16 35  1  0
 16 36  1  0
 17 37  1  0
 17 38  1  0
 19 39  1  0
 20 40  1  0
 25 41  1  0
 26 42  1  0
 27 43  1  0
M  ISO  8  30  14  31  14  32  14  33  14  34   9  35   8  36   8  37   8
M  ISO  6  38   8  39  14  40  14  41  14  42  14  43   9
M  END
>  <minimizedAffinity>  (1) 
-5.67473841

>  <minimizedRMSD>  (1) 
1.05706096

$$$$
