
     RDKit          3D

 48 50  0  0  0  0  0  0  0  0999 V2000
   42.3540   22.9650   35.6850 N   0  0  0  0  0  0  0  0  0  0  0  0
   43.0420   24.1650   35.2830 C   0  0  0  0  0  0  0  0  0  0  0  0
   42.3530   24.8580   34.3200 C   0  0  0  0  0  0  0  0  0  0  0  0
   42.8810   26.0400   33.7710 C   0  0  0  0  0  0  0  0  0  0  0  0
   44.0900   26.5060   34.1960 N   0  0  0  0  0  0  0  0  0  0  0  0
   44.7450   25.7870   35.1580 C   0  0  0  0  0  0  0  0  0  0  0  0
   44.2720   24.6420   35.7140 N   0  0  0  0  0  0  0  0  0  0  0  0
   45.9940   26.1300   35.7290 N   0  0  0  0  0  0  0  0  0  0  0  0
   46.7780   26.9600   35.0110 C   0  0  0  0  0  0  0  0  0  0  0  0
   47.9870   27.3590   35.4910 C   0  0  0  0  0  0  0  0  0  0  0  0
   48.4340   26.9090   36.7420 C   0  0  0  0  0  0  0  0  0  0  0  0
   49.5590   27.2560   37.2350 O   0  0  0  0  0  0  0  0  0  0  0  0
   47.6260   26.0880   37.4160 N   0  0  0  0  0  0  0  0  0  0  0  0
   46.4270   25.6910   36.9450 C   0  0  0  0  0  0  0  0  0  0  0  0
   45.6330   24.9170   37.5500 O   0  0  0  0  0  0  0  0  0  0  0  0
   41.9350   22.6140   37.0360 C   0  0  0  0  0  0  0  0  0  0  0  0
   40.5560   21.9120   36.9780 C   0  0  0  0  0  0  0  0  0  0  0  0
   39.6000   23.0230   37.1060 C   0  0  0  0  0  0  0  0  0  0  0  0
   38.8480   23.2000   38.2630 C   0  0  0  0  0  0  0  0  0  0  0  0
   37.9740   24.2610   38.3280 C   0  0  0  0  0  0  0  0  0  0  0  0
   37.8800   25.0940   37.2600 N   0  0  0  0  0  0  0  0  0  0  0  0
   38.6300   24.8990   36.1310 C   0  0  0  0  0  0  0  0  0  0  0  0
   39.4420   23.8880   36.1070 N   0  0  0  0  0  0  0  0  0  0  0  0
   38.4300   25.8960   35.0180 C   0  0  0  0  0  0  0  0  0  0  0  0
   38.7200   25.2570   33.6780 C   0  0  0  0  0  0  0  0  0  0  0  0
   39.4750   27.0050   35.1980 C   0  0  0  0  0  0  0  0  0  0  0  0
   37.0890   26.5650   35.0890 C   0  0  0  0  0  0  0  0  0  0  0  0
   42.1360   22.2858   34.9420 H   0  0  0  0  0  0  0  0  0  0  0  0
   41.3777   24.4852   33.9739 H   0  0  0  0  0  0  0  0  0  0  0  0
   42.3196   26.5879   32.9999 H   0  0  0  0  0  0  0  0  0  0  0  0
   46.4368   27.3177   34.0283 H   0  0  0  0  0  0  0  0  0  0  0  0
   48.6162   28.0370   34.8957 H   0  0  0  0  0  0  0  0  0  0  0  0
   47.9321   25.7425   38.3368 H   0  0  0  0  0  0  0  0  0  0  0  0
   42.6745   21.9348   37.4853 H   0  0  0  0  0  0  0  0  0  0  0  0
   41.8590   23.5257   37.6468 H   0  0  0  0  0  0  0  0  0  0  0  0
   40.4222   21.3863   36.0210 H   0  0  0  0  0  0  0  0  0  0  0  0
   40.4312   21.1470   37.7586 H   0  0  0  0  0  0  0  0  0  0  0  0
   38.9501   22.5052   39.1096 H   0  0  0  0  0  0  0  0  0  0  0  0
   37.3637   24.4308   39.2273 H   0  0  0  0  0  0  0  0  0  0  0  0
   39.1700   24.2655   33.8343 H   0  0  0  0  0  0  0  0  0  0  0  0
   37.7826   25.1492   33.1126 H   0  0  0  0  0  0  0  0  0  0  0  0
   39.4183   25.8916   33.1126 H   0  0  0  0  0  0  0  0  0  0  0  0
   39.6413   27.1815   36.2709 H   0  0  0  0  0  0  0  0  0  0  0  0
   40.4201   26.6983   34.7260 H   0  0  0  0  0  0  0  0  0  0  0  0
   39.1128   27.9302   34.7260 H   0  0  0  0  0  0  0  0  0  0  0  0
   36.8052   26.7066   36.1423 H   0  0  0  0  0  0  0  0  0  0  0  0
   37.1402   27.5431   34.5884 H   0  0  0  0  0  0  0  0  0  0  0  0
   36.3384   25.9358   34.5884 H   0  0  0  0  0  0  0  0  0  0  0  0
  1 16  1  0
  2  1  1  0
  2  7  1  0
  3  2  2  0
  4  5  2  0
  4  3  1  0
  5  6  1  0
  6  7  2  0
  6  8  1  0
  8 14  1  0
  9 10  2  0
  9  8  1  0
 10 11  1  0
 11 12  2  0
 11 13  1  0
 14 13  1  0
 14 15  2  0
 17 16  1  0
 17 18  1  0
 18 19  2  0
 19 20  1  0
 21 20  2  0
 22 21  1  0
 23 22  2  0
 23 18  1  0
 24 27  1  0
 24 26  1  0
 24 22  1  0
 25 24  1  0
  1 28  1  0
  3 29  1  0
  4 30  1  0
  9 31  1  0
 10 32  1  0
 13 33  1  0
 16 34  1  0
 16 35  1  0
 17 36  1  0
 17 37  1  0
 19 38  1  0
 20 39  1  0
 25 40  1  0
 25 41  1  0
 25 42  1  0
 26 43  1  0
 26 44  1  0
 26 45  1  0
 27 46  1  0
 27 47  1  0
 27 48  1  0
M  ISO  8  29  14  30  14  31  14  32  14  33   9  34   8  35   8  36   8
M  ISO  8  37   8  38  14  39  14  40   8  41   8  42   8  43   8  44   8
M  ISO  4  45   8  46   8  47   8  48   8
M  END
>  <minimizedAffinity>  (1) 
-5.46488333

>  <minimizedRMSD>  (1) 
1.16768229

$$$$
