
     RDKit          3D

 41 44  0  0  0  0  0  0  0  0999 V2000
   41.9230   23.4070   35.6250 N   0  0  0  0  0  0  0  0  0  0  0  0
   42.7270   24.5540   35.2860 C   0  0  0  0  0  0  0  0  0  0  0  0
   42.1000   25.3940   34.4010 C   0  0  0  0  0  0  0  0  0  0  0  0
   42.7330   26.5450   33.9290 C   0  0  0  0  0  0  0  0  0  0  0  0
   44.0000   26.8540   34.3500 N   0  0  0  0  0  0  0  0  0  0  0  0
   44.5900   25.9940   35.2340 C   0  0  0  0  0  0  0  0  0  0  0  0
   44.0100   24.8650   35.7160 N   0  0  0  0  0  0  0  0  0  0  0  0
   45.8810   26.1600   35.7920 N   0  0  0  0  0  0  0  0  0  0  0  0
   46.7340   26.9490   35.1140 C   0  0  0  0  0  0  0  0  0  0  0  0
   47.9940   27.1830   35.5750 C   0  0  0  0  0  0  0  0  0  0  0  0
   48.4160   26.5970   36.7770 C   0  0  0  0  0  0  0  0  0  0  0  0
   49.5810   26.7680   37.2740 O   0  0  0  0  0  0  0  0  0  0  0  0
   47.5330   25.8090   37.4310 N   0  0  0  0  0  0  0  0  0  0  0  0
   46.2870   25.5830   36.9650 C   0  0  0  0  0  0  0  0  0  0  0  0
   45.4280   24.8610   37.5320 O   0  0  0  0  0  0  0  0  0  0  0  0
   41.8550   22.7400   36.9170 C   0  0  0  0  0  0  0  0  0  0  0  0
   40.5360   21.9390   37.0170 C   0  0  0  0  0  0  0  0  0  0  0  0
   39.5110   22.9820   37.2040 C   0  0  0  0  0  0  0  0  0  0  0  0
   38.9650   23.2420   38.4560 C   0  0  0  0  0  0  0  0  0  0  0  0
   38.0170   24.2300   38.5640 C   0  0  0  0  0  0  0  0  0  0  0  0
   37.6490   24.9170   37.4510 N   0  0  0  0  0  0  0  0  0  0  0  0
   38.1960   24.6440   36.2420 C   0  0  0  0  0  0  0  0  0  0  0  0
   39.0890   23.7050   36.1700 N   0  0  0  0  0  0  0  0  0  0  0  0
   37.7900   25.3890   35.0550 C   0  0  0  0  0  0  0  0  0  0  0  0
   37.7070   25.2250   33.7260 N   0  0  0  0  0  0  0  0  0  0  0  0
   37.2470   26.3030   33.1970 O   0  0  0  0  0  0  0  0  0  0  0  0
   37.0020   27.2210   34.0890 C   0  0  0  0  0  0  0  0  0  0  0  0
   37.3470   26.6400   35.2750 N   0  0  0  0  0  0  0  0  0  0  0  0
   41.3347   23.0184   34.8742 H   0  0  0  0  0  0  0  0  0  0  0  0
   41.0822   25.1567   34.0579 H   0  0  0  0  0  0  0  0  0  0  0  0
   42.2142   27.2049   33.2182 H   0  0  0  0  0  0  0  0  0  0  0  0
   46.4083   27.4130   34.1713 H   0  0  0  0  0  0  0  0  0  0  0  0
   48.6784   27.8296   35.0063 H   0  0  0  0  0  0  0  0  0  0  0  0
   47.8213   25.3661   38.3151 H   0  0  0  0  0  0  0  0  0  0  0  0
   42.7088   22.0542   37.0206 H   0  0  0  0  0  0  0  0  0  0  0  0
   41.8881   23.4920   37.7191 H   0  0  0  0  0  0  0  0  0  0  0  0
   40.3521   21.3683   36.0948 H   0  0  0  0  0  0  0  0  0  0  0  0
   40.5460   21.1985   37.8304 H   0  0  0  0  0  0  0  0  0  0  0  0
   39.2848   22.6698   39.3394 H   0  0  0  0  0  0  0  0  0  0  0  0
   37.5619   24.4619   39.5382 H   0  0  0  0  0  0  0  0  0  0  0  0
   36.6068   28.2342   33.9237 H   0  0  0  0  0  0  0  0  0  0  0  0
  1 16  1  0
  2  1  1  0
  2  7  1  0
  3  2  2  0
  4  5  2  0
  4  3  1  0
  5  6  1  0
  6  7  2  0
  6  8  1  0
  8 14  1  0
  9 10  2  0
  9  8  1  0
 10 11  1  0
 11 12  2  0
 11 13  1  0
 14 13  1  0
 14 15  2  0
 16 17  1  0
 17 18  1  0
 18 19  2  0
 19 20  1  0
 21 20  2  0
 22 21  1  0
 23 22  2  0
 23 18  1  0
 24 28  1  0
 24 22  1  0
 25 24  2  0
 26 25  1  0
 26 27  1  0
 27 28  2  0
  1 29  1  0
  3 30  1  0
  4 31  1  0
  9 32  1  0
 10 33  1  0
 13 34  1  0
 16 35  1  0
 16 36  1  0
 17 37  1  0
 17 38  1  0
 19 39  1  0
 20 40  1  0
 27 41  1  0
M  ISO  8  30  14  31  14  32  14  33  14  34   9  35   8  36   8  37   8
M  ISO  4  38   8  39  14  40  14  41  14
M  END
>  <minimizedAffinity>  (1) 
-5.6185956

>  <minimizedRMSD>  (1) 
0.949032545

$$$$
