
     RDKit          3D

 38 40  0  0  0  0  0  0  0  0999 V2000
   41.9310   23.4000   35.6230 N   0  0  0  0  0  0  0  0  0  0  0  0
   42.7340   24.5480   35.2920 C   0  0  0  0  0  0  0  0  0  0  0  0
   42.1050   25.3770   34.3960 C   0  0  0  0  0  0  0  0  0  0  0  0
   42.7460   26.5340   33.9200 C   0  0  0  0  0  0  0  0  0  0  0  0
   44.0030   26.8440   34.3480 N   0  0  0  0  0  0  0  0  0  0  0  0
   44.5910   25.9960   35.2390 C   0  0  0  0  0  0  0  0  0  0  0  0
   44.0110   24.8700   35.7230 N   0  0  0  0  0  0  0  0  0  0  0  0
   45.8850   26.1560   35.8070 N   0  0  0  0  0  0  0  0  0  0  0  0
   46.7390   26.9510   35.1230 C   0  0  0  0  0  0  0  0  0  0  0  0
   48.0010   27.1760   35.5860 C   0  0  0  0  0  0  0  0  0  0  0  0
   48.4260   26.5810   36.7830 C   0  0  0  0  0  0  0  0  0  0  0  0
   49.5860   26.7380   37.2830 O   0  0  0  0  0  0  0  0  0  0  0  0
   47.5400   25.7980   37.4290 N   0  0  0  0  0  0  0  0  0  0  0  0
   46.2930   25.5800   36.9660 C   0  0  0  0  0  0  0  0  0  0  0  0
   45.4320   24.8560   37.5350 O   0  0  0  0  0  0  0  0  0  0  0  0
   41.8540   22.7410   36.9230 C   0  0  0  0  0  0  0  0  0  0  0  0
   40.5360   21.9360   37.0090 C   0  0  0  0  0  0  0  0  0  0  0  0
   39.5130   22.9810   37.2050 C   0  0  0  0  0  0  0  0  0  0  0  0
   38.9590   23.2370   38.4540 C   0  0  0  0  0  0  0  0  0  0  0  0
   38.0140   24.2270   38.5670 C   0  0  0  0  0  0  0  0  0  0  0  0
   37.6570   24.9210   37.4550 N   0  0  0  0  0  0  0  0  0  0  0  0
   38.2130   24.6580   36.2300 C   0  0  0  0  0  0  0  0  0  0  0  0
   39.1000   23.7120   36.1720 N   0  0  0  0  0  0  0  0  0  0  0  0
   37.7720   25.4400   35.1230 N   0  0  0  0  0  0  0  0  0  0  0  0
   41.3535   23.0044   34.8674 H   0  0  0  0  0  0  0  0  0  0  0  0
   41.0904   25.1335   34.0476 H   0  0  0  0  0  0  0  0  0  0  0  0
   42.2330   27.1901   33.2014 H   0  0  0  0  0  0  0  0  0  0  0  0
   46.4118   27.4207   34.1837 H   0  0  0  0  0  0  0  0  0  0  0  0
   48.6865   27.8245   35.0207 H   0  0  0  0  0  0  0  0  0  0  0  0
   47.8266   25.3488   38.3105 H   0  0  0  0  0  0  0  0  0  0  0  0
   42.7094   22.0596   37.0411 H   0  0  0  0  0  0  0  0  0  0  0  0
   41.8778   23.4967   37.7219 H   0  0  0  0  0  0  0  0  0  0  0  0
   40.3546   21.3762   36.0796 H   0  0  0  0  0  0  0  0  0  0  0  0
   40.5424   21.1836   37.8114 H   0  0  0  0  0  0  0  0  0  0  0  0
   39.2717   22.6575   39.3352 H   0  0  0  0  0  0  0  0  0  0  0  0
   37.5544   24.4540   39.5403 H   0  0  0  0  0  0  0  0  0  0  0  0
   38.1652   25.2736   34.1857 H   0  0  0  0  0  0  0  0  0  0  0  0
   37.0601   26.1716   35.2603 H   0  0  0  0  0  0  0  0  0  0  0  0
  1 16  1  0
  2  1  1  0
  2  7  1  0
  3  2  2  0
  4  5  2  0
  4  3  1  0
  5  6  1  0
  6  7  2  0
  6  8  1  0
  8 14  1  0
  9 10  2  0
  9  8  1  0
 10 11  1  0
 11 12  2  0
 11 13  1  0
 14 13  1  0
 14 15  2  0
 16 17  1  0
 17 18  1  0
 18 19  2  0
 19 20  1  0
 21 20  2  0
 22 21  1  0
 23 22  2  0
 23 18  1  0
 24 22  1  0
  1 25  1  0
  3 26  1  0
  4 27  1  0
  9 28  1  0
 10 29  1  0
 13 30  1  0
 16 31  1  0
 16 32  1  0
 17 33  1  0
 17 34  1  0
 19 35  1  0
 20 36  1  0
 24 37  1  0
 24 38  1  0
M  ISO  8  26  14  27  14  28  14  29  14  30   9  31   8  32   8  33   8
M  ISO  3  34   8  35  14  36  14
M  END
>  <minimizedAffinity>  (1) 
-5.01855946

>  <minimizedRMSD>  (1) 
0.504758716

$$$$
