
     RDKit          3D

 30 32  0  0  0  0  0  0  0  0999 V2000
   38.5650   23.3490   38.2750 C   0  0  0  0  0  0  0  0  0  0  0  0
   38.0160   24.3920   37.5410 C   0  0  0  0  0  0  0  0  0  0  0  0
   38.6280   24.7270   36.3290 C   0  0  0  0  0  0  0  0  0  0  0  0
   39.7160   24.0050   35.9570 N   0  0  0  0  0  0  0  0  0  0  0  0
   40.2200   23.0030   36.6890 C   0  0  0  0  0  0  0  0  0  0  0  0
   39.6390   22.6690   37.8620 N   0  0  0  0  0  0  0  0  0  0  0  0
   41.3710   22.2740   36.2500 N   0  0  0  0  0  0  0  0  0  0  0  0
   41.4720   21.8500   34.9120 C   0  0  0  0  0  0  0  0  0  0  0  0
   40.4480   21.9810   34.1330 N   0  0  0  0  0  0  0  0  0  0  0  0
   42.6910   21.2790   34.4050 N   0  0  0  0  0  0  0  0  0  0  0  0
   40.5030   21.6330   33.1430 H   0  0  0  0  0  0  0  0  0  0  0  0
   38.1370   25.7710   35.5240 N   0  0  0  0  0  0  0  0  0  0  0  0
   38.1150   27.0680   35.8840 C   0  0  0  0  0  0  0  0  0  0  0  0
   37.5770   27.8030   34.8740 N   0  0  0  0  0  0  0  0  0  0  0  0
   37.2760   26.9150   33.8940 C   0  0  0  0  0  0  0  0  0  0  0  0
   36.7080   27.2160   32.6720 C   0  0  0  0  0  0  0  0  0  0  0  0
   36.4950   26.1430   31.8410 N   0  0  0  0  0  0  0  0  0  0  0  0
   36.8450   24.9000   32.2540 C   0  0  0  0  0  0  0  0  0  0  0  0
   37.4040   24.6120   33.4580 N   0  0  0  0  0  0  0  0  0  0  0  0
   37.6300   25.6450   34.3090 C   0  0  0  0  0  0  0  0  0  0  0  0
   36.5830   23.8220   31.3050 C   0  0  0  0  0  0  0  0  0  0  0  0
   35.4950   23.1950   31.3890 O   0  0  0  0  0  0  0  0  0  0  0  0
   38.0987   23.0721   39.2320 H   0  0  0  0  0  0  0  0  0  0  0  0
   37.1301   24.9361   37.9005 H   0  0  0  0  0  0  0  0  0  0  0  0
   42.1274   22.0592   36.9153 H   0  0  0  0  0  0  0  0  0  0  0  0
   42.7473   20.9740   33.4228 H   0  0  0  0  0  0  0  0  0  0  0  0
   43.5076   21.1752   35.0241 H   0  0  0  0  0  0  0  0  0  0  0  0
   38.4750   27.4695   36.8427 H   0  0  0  0  0  0  0  0  0  0  0  0
   36.4442   28.2442   32.3837 H   0  0  0  0  0  0  0  0  0  0  0  0
   37.3216   23.5630   30.5321 H   0  0  0  0  0  0  0  0  0  0  0  0
  2  1  2  0
  3  2  1  0
  4  3  2  0
  4  5  1  0
  5  6  2  0
  6  1  1  0
  7  5  1  0
  8  7  1  0
  9  8  2  0
 10  8  1  0
 11  9  1  0
 12 13  1  0
 12  3  1  0
 14 13  2  0
 15 20  2  0
 15 14  1  0
 16 15  1  0
 17 18  1  0
 17 16  2  0
 18 19  2  0
 19 20  1  0
 20 12  1  0
 21 22  2  0
 21 18  1  0
  1 23  1  0
  2 24  1  0
  7 25  1  0
 10 26  1  0
 10 27  1  0
 13 28  1  0
 16 29  1  0
 21 30  1  0
M  ISO  5  23  14  24  14  28  14  29  14  30   6
M  END
>  <minimizedAffinity>  (1) 
-5.36178303

>  <minimizedRMSD>  (1) 
4.13015079

$$$$
