
     RDKit          3D

 37 39  0  0  0  0  0  0  0  0999 V2000
   42.9640   24.6970   35.4460 C   0  0  0  0  0  0  0  0  0  0  0  0
   42.3130   25.4450   34.4990 C   0  0  0  0  0  0  0  0  0  0  0  0
   42.9320   26.5670   33.9230 C   0  0  0  0  0  0  0  0  0  0  0  0
   44.1910   26.9260   34.3040 N   0  0  0  0  0  0  0  0  0  0  0  0
   44.8040   26.1600   35.2480 C   0  0  0  0  0  0  0  0  0  0  0  0
   44.2430   25.0670   35.8300 N   0  0  0  0  0  0  0  0  0  0  0  0
   46.1020   26.3810   35.7800 N   0  0  0  0  0  0  0  0  0  0  0  0
   46.9360   27.1280   35.0250 C   0  0  0  0  0  0  0  0  0  0  0  0
   48.2030   27.4040   35.4500 C   0  0  0  0  0  0  0  0  0  0  0  0
   48.6470   26.9030   36.6930 C   0  0  0  0  0  0  0  0  0  0  0  0
   49.8230   27.1340   37.1340 O   0  0  0  0  0  0  0  0  0  0  0  0
   47.7800   26.1650   37.4080 N   0  0  0  0  0  0  0  0  0  0  0  0
   46.5370   25.9050   36.9720 C   0  0  0  0  0  0  0  0  0  0  0  0
   45.6920   25.2160   37.6140 O   0  0  0  0  0  0  0  0  0  0  0  0
   42.1840   23.5700   35.8850 N   0  0  0  0  0  0  0  0  0  0  0  0
   42.3240   22.8520   37.1460 C   0  0  0  0  0  0  0  0  0  0  0  0
   41.2570   21.7350   37.2280 C   0  0  0  0  0  0  0  0  0  0  0  0
   39.9920   22.4480   36.9420 C   0  0  0  0  0  0  0  0  0  0  0  0
   39.2940   23.1170   37.9420 C   0  0  0  0  0  0  0  0  0  0  0  0
   38.1300   23.7610   37.6080 C   0  0  0  0  0  0  0  0  0  0  0  0
   37.7020   23.7250   36.3200 N   0  0  0  0  0  0  0  0  0  0  0  0
   38.4030   23.0610   35.3460 C   0  0  0  0  0  0  0  0  0  0  0  0
   39.4980   22.4650   35.7070 N   0  0  0  0  0  0  0  0  0  0  0  0
   37.7800   23.0530   33.6640 S   0  0  0  0  0  0  0  0  0  0  0  0
   41.2963   25.1639   34.1873 H   0  0  0  0  0  0  0  0  0  0  0  0
   42.3996   27.1574   33.1627 H   0  0  0  0  0  0  0  0  0  0  0  0
   46.5901   27.5184   34.0565 H   0  0  0  0  0  0  0  0  0  0  0  0
   48.8747   28.0135   34.8276 H   0  0  0  0  0  0  0  0  0  0  0  0
   48.0786   25.7873   38.3185 H   0  0  0  0  0  0  0  0  0  0  0  0
   41.4516   23.2364   35.2422 H   0  0  0  0  0  0  0  0  0  0  0  0
   43.3274   22.4048   37.2033 H   0  0  0  0  0  0  0  0  0  0  0  0
   42.1849   23.5524   37.9827 H   0  0  0  0  0  0  0  0  0  0  0  0
   41.4468   20.9534   36.4776 H   0  0  0  0  0  0  0  0  0  0  0  0
   41.2491   21.2189   38.1994 H   0  0  0  0  0  0  0  0  0  0  0  0
   39.6669   23.1293   38.9768 H   0  0  0  0  0  0  0  0  0  0  0  0
   37.5512   24.2992   38.3731 H   0  0  0  0  0  0  0  0  0  0  0  0
   36.4103   23.0354   33.6844 H   0  0  0  0  0  0  0  0  0  0  0  0
  1  6  1  0
  1 15  1  0
  2  1  2  0
  3  4  2  0
  3  2  1  0
  4  5  1  0
  5  7  1  0
  5  6  2  0
  7 13  1  0
  8  9  2  0
  8  7  1  0
  9 10  1  0
 10 11  2  0
 10 12  1  0
 13 12  1  0
 13 14  2  0
 15 16  1  0
 16 17  1  0
 18 17  1  0
 18 19  2  0
 20 19  1  0
 21 20  2  0
 22 23  2  0
 22 21  1  0
 23 18  1  0
 24 22  1  0
  2 25  1  0
  3 26  1  0
  8 27  1  0
  9 28  1  0
 12 29  1  0
 15 30  1  0
 16 31  1  0
 16 32  1  0
 17 33  1  0
 17 34  1  0
 19 35  1  0
 20 36  1  0
 24 37  1  0
M  ISO  8  25  14  26  14  27  14  28  14  29   9  31   8  32   8  33   8
M  ISO  4  34   8  35  14  36  14  37  11
M  END
>  <minimizedAffinity>  (1) 
-4.79009199

>  <minimizedRMSD>  (1) 
0.544212401

$$$$
