
     RDKit          3D

 54 57  0  0  0  0  0  0  0  0999 V2000
   42.2890   22.9110   37.1370 C   0  0  0  0  0  0  0  0  0  0  0  0
   41.1650   21.8500   37.2350 C   0  0  0  0  0  0  0  0  0  0  0  0
   39.9390   22.6650   37.2060 C   0  0  0  0  0  0  0  0  0  0  0  0
   39.3120   23.0770   38.3750 C   0  0  0  0  0  0  0  0  0  0  0  0
   38.1770   23.8300   38.2820 C   0  0  0  0  0  0  0  0  0  0  0  0
   37.7010   24.1500   37.0500 N   0  0  0  0  0  0  0  0  0  0  0  0
   38.3370   23.7330   35.9050 C   0  0  0  0  0  0  0  0  0  0  0  0
   39.4080   23.0220   36.0350 N   0  0  0  0  0  0  0  0  0  0  0  0
   37.6970   24.1540   34.6230 C   0  0  0  0  0  0  0  0  0  0  0  0
   38.0630   25.4180   34.1350 N   0  0  0  0  0  0  0  0  0  0  0  0
   38.8440   26.2540   34.9640 C   0  0  0  0  0  0  0  0  0  0  0  0
   38.0130   27.3360   35.6650 C   0  0  0  0  0  0  0  0  0  0  0  0
   37.0620   28.0220   34.7150 C   0  0  0  0  0  0  0  0  0  0  0  0
   37.2820   27.5370   33.3050 C   0  0  0  0  0  0  0  0  0  0  0  0
   37.2110   26.0350   33.1990 C   0  0  0  0  0  0  0  0  0  0  0  0
   42.2530   23.5320   35.8180 N   0  0  0  0  0  0  0  0  0  0  0  0
   43.0250   24.6670   35.3800 C   0  0  0  0  0  0  0  0  0  0  0  0
   42.3620   25.4440   34.4480 C   0  0  0  0  0  0  0  0  0  0  0  0
   42.9580   26.5820   33.9100 C   0  0  0  0  0  0  0  0  0  0  0  0
   44.2230   26.9530   34.2990 N   0  0  0  0  0  0  0  0  0  0  0  0
   44.8500   26.1530   35.2290 C   0  0  0  0  0  0  0  0  0  0  0  0
   44.3060   25.0380   35.7770 N   0  0  0  0  0  0  0  0  0  0  0  0
   46.1400   26.4140   35.7310 N   0  0  0  0  0  0  0  0  0  0  0  0
   46.9650   27.1660   35.0010 C   0  0  0  0  0  0  0  0  0  0  0  0
   48.2230   27.4530   35.4630 C   0  0  0  0  0  0  0  0  0  0  0  0
   48.6590   26.9650   36.6990 C   0  0  0  0  0  0  0  0  0  0  0  0
   49.8160   27.2160   37.1480 O   0  0  0  0  0  0  0  0  0  0  0  0
   47.8030   26.2140   37.4010 N   0  0  0  0  0  0  0  0  0  0  0  0
   46.5690   25.9310   36.9520 C   0  0  0  0  0  0  0  0  0  0  0  0
   45.7320   25.2230   37.5890 O   0  0  0  0  0  0  0  0  0  0  0  0
   42.1369   23.6796   37.9091 H   0  0  0  0  0  0  0  0  0  0  0  0
   43.2654   22.4281   37.2900 H   0  0  0  0  0  0  0  0  0  0  0  0
   41.1996   21.1569   36.3815 H   0  0  0  0  0  0  0  0  0  0  0  0
   41.2436   21.2157   38.1303 H   0  0  0  0  0  0  0  0  0  0  0  0
   39.7224   22.8016   39.3577 H   0  0  0  0  0  0  0  0  0  0  0  0
   37.6567   24.1719   39.1889 H   0  0  0  0  0  0  0  0  0  0  0  0
   37.9585   23.4095   33.8567 H   0  0  0  0  0  0  0  0  0  0  0  0
   36.6205   24.2215   34.8389 H   0  0  0  0  0  0  0  0  0  0  0  0
   39.3316   25.6333   35.7302 H   0  0  0  0  0  0  0  0  0  0  0  0
   39.5796   26.7629   34.3238 H   0  0  0  0  0  0  0  0  0  0  0  0
   37.4319   26.8691   36.4739 H   0  0  0  0  0  0  0  0  0  0  0  0
   38.7055   28.0943   36.0593 H   0  0  0  0  0  0  0  0  0  0  0  0
   36.0274   27.8012   35.0164 H   0  0  0  0  0  0  0  0  0  0  0  0
   37.2444   29.1062   34.7505 H   0  0  0  0  0  0  0  0  0  0  0  0
   36.5091   27.9744   32.6558 H   0  0  0  0  0  0  0  0  0  0  0  0
   38.2904   27.8489   32.9954 H   0  0  0  0  0  0  0  0  0  0  0  0
   36.1768   25.7105   33.3866 H   0  0  0  0  0  0  0  0  0  0  0  0
   37.5323   25.7414   32.1888 H   0  0  0  0  0  0  0  0  0  0  0  0
   41.6098   23.1167   35.1289 H   0  0  0  0  0  0  0  0  0  0  0  0
   41.3492   25.1592   34.1268 H   0  0  0  0  0  0  0  0  0  0  0  0
   42.4136   27.1870   33.1700 H   0  0  0  0  0  0  0  0  0  0  0  0
   46.6353   27.5563   34.0269 H   0  0  0  0  0  0  0  0  0  0  0  0
   48.8972   28.0740   34.8549 H   0  0  0  0  0  0  0  0  0  0  0  0
   48.0994   25.8411   38.3143 H   0  0  0  0  0  0  0  0  0  0  0  0
  1  2  1  0
  3  2  1  0
  3  4  2  0
  5  4  1  0
  6  5  2  0
  7  8  2  0
  7  6  1  0
  8  3  1  0
  9  7  1  0
 10  9  1  0
 10 11  1  0
 11 12  1  0
 13 12  1  0
 14 13  1  0
 15 14  1  0
 15 10  1  0
 16  1  1  0
 17 22  1  0
 17 16  1  0
 18 17  2  0
 19 20  2  0
 19 18  1  0
 20 21  1  0
 21 23  1  0
 21 22  2  0
 23 29  1  0
 24 25  2  0
 24 23  1  0
 25 26  1  0
 26 27  2  0
 26 28  1  0
 29 28  1  0
 29 30  2  0
  1 31  1  0
  1 32  1  0
  2 33  1  0
  2 34  1  0
  4 35  1  0
  5 36  1  0
  9 37  1  0
  9 38  1  0
 11 39  1  0
 11 40  1  0
 12 41  1  0
 12 42  1  0
 13 43  1  0
 13 44  1  0
 14 45  1  0
 14 46  1  0
 15 47  1  0
 15 48  1  0
 16 49  1  0
 18 50  1  0
 19 51  1  0
 24 52  1  0
 25 53  1  0
 28 54  1  0
M  ISO  8  31   8  32   8  33   8  34   8  35  14  36  14  37   8  38   8
M  ISO  8  39  13  40  13  41  13  42  13  43  13  44  13  45  13  46  13
M  ISO  7  47  13  48  13  50  14  51  14  52  14  53  14  54   9
M  END
>  <minimizedAffinity>  (1) 
-5.8520174

>  <minimizedRMSD>  (1) 
1.09208286

$$$$
