
     RDKit          3D

 49 52  0  0  0  0  0  0  0  0999 V2000
   42.2510   22.8280   37.1330 C   0  0  0  0  0  0  0  0  0  0  0  0
   41.1230   21.7700   37.2190 C   0  0  0  0  0  0  0  0  0  0  0  0
   39.8960   22.5790   37.0140 C   0  0  0  0  0  0  0  0  0  0  0  0
   39.2360   23.1710   38.0700 C   0  0  0  0  0  0  0  0  0  0  0  0
   38.1120   23.8950   37.8090 C   0  0  0  0  0  0  0  0  0  0  0  0
   37.6830   24.0070   36.5140 N   0  0  0  0  0  0  0  0  0  0  0  0
   38.3560   23.4090   35.4790 C   0  0  0  0  0  0  0  0  0  0  0  0
   39.4100   22.7390   35.7970 N   0  0  0  0  0  0  0  0  0  0  0  0
   37.7490   23.6280   34.1390 C   0  0  0  0  0  0  0  0  0  0  0  0
   37.9440   24.9600   33.5750 C   0  0  0  0  0  0  0  0  0  0  0  0
   39.0210   24.9550   32.6820 C   0  0  0  0  0  0  0  0  0  0  0  0
   39.4390   26.1010   32.0040 C   0  0  0  0  0  0  0  0  0  0  0  0
   38.7830   27.2970   32.2050 C   0  0  0  0  0  0  0  0  0  0  0  0
   37.7200   27.3140   33.0840 C   0  0  0  0  0  0  0  0  0  0  0  0
   37.3250   26.1790   33.7390 C   0  0  0  0  0  0  0  0  0  0  0  0
   42.2130   23.4580   35.8370 N   0  0  0  0  0  0  0  0  0  0  0  0
   42.9680   24.6160   35.3880 C   0  0  0  0  0  0  0  0  0  0  0  0
   42.2860   25.3860   34.4740 C   0  0  0  0  0  0  0  0  0  0  0  0
   42.8700   26.5260   33.9490 C   0  0  0  0  0  0  0  0  0  0  0  0
   44.1400   26.9110   34.3290 N   0  0  0  0  0  0  0  0  0  0  0  0
   44.7810   26.1120   35.2420 C   0  0  0  0  0  0  0  0  0  0  0  0
   44.2530   24.9790   35.7920 N   0  0  0  0  0  0  0  0  0  0  0  0
   46.0730   26.3750   35.7350 N   0  0  0  0  0  0  0  0  0  0  0  0
   46.8810   27.1520   35.0130 C   0  0  0  0  0  0  0  0  0  0  0  0
   48.1430   27.4390   35.4610 C   0  0  0  0  0  0  0  0  0  0  0  0
   48.6070   26.9230   36.6810 C   0  0  0  0  0  0  0  0  0  0  0  0
   49.7700   27.1690   37.1240 O   0  0  0  0  0  0  0  0  0  0  0  0
   47.7630   26.1440   37.3790 N   0  0  0  0  0  0  0  0  0  0  0  0
   46.5270   25.8650   36.9360 C   0  0  0  0  0  0  0  0  0  0  0  0
   45.7070   25.1380   37.5630 O   0  0  0  0  0  0  0  0  0  0  0  0
   42.1037   23.5871   37.9154 H   0  0  0  0  0  0  0  0  0  0  0  0
   43.2264   22.3406   37.2782 H   0  0  0  0  0  0  0  0  0  0  0  0
   41.2322   21.0097   36.4316 H   0  0  0  0  0  0  0  0  0  0  0  0
   41.1223   21.2107   38.1662 H   0  0  0  0  0  0  0  0  0  0  0  0
   39.6084   23.0612   39.0992 H   0  0  0  0  0  0  0  0  0  0  0  0
   37.5583   24.3816   38.6255 H   0  0  0  0  0  0  0  0  0  0  0  0
   38.1879   22.8972   33.4438 H   0  0  0  0  0  0  0  0  0  0  0  0
   36.6636   23.5115   34.2745 H   0  0  0  0  0  0  0  0  0  0  0  0
   39.5590   24.0115   32.5076 H   0  0  0  0  0  0  0  0  0  0  0  0
   40.2909   26.0502   31.3100 H   0  0  0  0  0  0  0  0  0  0  0  0
   39.0981   28.2108   31.6798 H   0  0  0  0  0  0  0  0  0  0  0  0
   37.1805   28.2560   33.2616 H   0  0  0  0  0  0  0  0  0  0  0  0
   36.4716   26.2438   34.4300 H   0  0  0  0  0  0  0  0  0  0  0  0
   41.5746   23.0373   35.1468 H   0  0  0  0  0  0  0  0  0  0  0  0
   41.2730   25.0946   34.1594 H   0  0  0  0  0  0  0  0  0  0  0  0
   42.3145   27.1333   33.2192 H   0  0  0  0  0  0  0  0  0  0  0  0
   46.5328   27.5639   34.0543 H   0  0  0  0  0  0  0  0  0  0  0  0
   48.8008   28.0816   34.8574 H   0  0  0  0  0  0  0  0  0  0  0  0
   48.0732   25.7502   38.2788 H   0  0  0  0  0  0  0  0  0  0  0  0
  1  2  1  0
  3  2  1  0
  3  4  2  0
  5  4  1  0
  6  5  2  0
  7  8  2  0
  7  6  1  0
  8  3  1  0
  9  7  1  0
 10 15  1  0
 10  9  1  0
 11 10  2  0
 12 13  2  0
 12 11  1  0
 13 14  1  0
 14 15  2  0
 16  1  1  0
 17 22  1  0
 17 16  1  0
 18 17  2  0
 19 20  2  0
 19 18  1  0
 20 21  1  0
 21 23  1  0
 21 22  2  0
 23 29  1  0
 24 25  2  0
 24 23  1  0
 25 26  1  0
 26 27  2  0
 26 28  1  0
 29 28  1  0
 29 30  2  0
  1 31  1  0
  1 32  1  0
  2 33  1  0
  2 34  1  0
  4 35  1  0
  5 36  1  0
  9 37  1  0
  9 38  1  0
 11 39  1  0
 12 40  1  0
 13 41  1  0
 14 42  1  0
 15 43  1  0
 16 44  1  0
 18 45  1  0
 19 46  1  0
 24 47  1  0
 25 48  1  0
 28 49  1  0
M  ISO  8  31   8  32   8  33   8  34   8  35  14  36  14  37   8  38   8
M  ISO  8  39  14  40  14  41  14  42  14  43  14  45  14  46  14  47  14
M  ISO  2  48  14  49   9
M  END
>  <minimizedAffinity>  (1) 
-5.48065853

>  <minimizedRMSD>  (1) 
1.45141029

$$$$
