
     RDKit          3D

 52 55  0  0  0  0  0  0  0  0999 V2000
   41.8710   22.8260   36.8100 C   0  0  0  0  0  0  0  0  0  0  0  0
   40.5610   22.0030   36.8760 C   0  0  0  0  0  0  0  0  0  0  0  0
   39.5380   23.0300   37.1350 C   0  0  0  0  0  0  0  0  0  0  0  0
   38.9930   23.2100   38.4020 C   0  0  0  0  0  0  0  0  0  0  0  0
   38.0480   24.1810   38.5770 C   0  0  0  0  0  0  0  0  0  0  0  0
   37.6760   24.9350   37.5100 N   0  0  0  0  0  0  0  0  0  0  0  0
   38.2270   24.7410   36.2660 C   0  0  0  0  0  0  0  0  0  0  0  0
   39.1160   23.8120   36.1460 N   0  0  0  0  0  0  0  0  0  0  0  0
   37.7200   25.6390   35.1890 C   0  0  0  0  0  0  0  0  0  0  0  0
   38.5280   25.6280   34.0130 N   0  0  0  0  0  0  0  0  0  0  0  0
   38.9020   26.9780   33.6820 C   0  0  0  0  0  0  0  0  0  0  0  0
   38.7380   27.2530   32.1880 C   0  0  0  0  0  0  0  0  0  0  0  0
   37.3740   27.3200   31.9320 O   0  0  0  0  0  0  0  0  0  0  0  0
   36.7370   26.1980   32.4120 C   0  0  0  0  0  0  0  0  0  0  0  0
   37.6990   25.1380   32.9270 C   0  0  0  0  0  0  0  0  0  0  0  0
   41.9530   23.5140   35.5270 N   0  0  0  0  0  0  0  0  0  0  0  0
   42.7910   24.6450   35.1940 C   0  0  0  0  0  0  0  0  0  0  0  0
   42.1970   25.5190   34.3170 C   0  0  0  0  0  0  0  0  0  0  0  0
   42.8710   26.6640   33.8890 C   0  0  0  0  0  0  0  0  0  0  0  0
   44.1430   26.9320   34.3420 N   0  0  0  0  0  0  0  0  0  0  0  0
   44.7000   26.0330   35.2180 C   0  0  0  0  0  0  0  0  0  0  0  0
   44.0750   24.9100   35.6550 N   0  0  0  0  0  0  0  0  0  0  0  0
   45.9830   26.1790   35.7780 N   0  0  0  0  0  0  0  0  0  0  0  0
   46.8680   26.9510   35.1490 C   0  0  0  0  0  0  0  0  0  0  0  0
   48.1160   27.1460   35.6420 C   0  0  0  0  0  0  0  0  0  0  0  0
   48.5050   26.5310   36.8380 C   0  0  0  0  0  0  0  0  0  0  0  0
   49.6490   26.6680   37.3570 O   0  0  0  0  0  0  0  0  0  0  0  0
   47.5900   25.7540   37.4540 N   0  0  0  0  0  0  0  0  0  0  0  0
   46.3530   25.5670   36.9560 C   0  0  0  0  0  0  0  0  0  0  0  0
   45.4650   24.8470   37.5020 O   0  0  0  0  0  0  0  0  0  0  0  0
   41.8794   23.5664   37.6235 H   0  0  0  0  0  0  0  0  0  0  0  0
   42.7324   22.1504   36.9176 H   0  0  0  0  0  0  0  0  0  0  0  0
   40.3703   21.4861   35.9239 H   0  0  0  0  0  0  0  0  0  0  0  0
   40.5840   21.2115   37.6396 H   0  0  0  0  0  0  0  0  0  0  0  0
   39.3164   22.5832   39.2461 H   0  0  0  0  0  0  0  0  0  0  0  0
   37.5958   24.3495   39.5655 H   0  0  0  0  0  0  0  0  0  0  0  0
   36.7040   25.3172   34.9167 H   0  0  0  0  0  0  0  0  0  0  0  0
   37.7397   26.6646   35.5862 H   0  0  0  0  0  0  0  0  0  0  0  0
   38.2640   27.6744   34.2460 H   0  0  0  0  0  0  0  0  0  0  0  0
   39.9610   27.1176   33.9449 H   0  0  0  0  0  0  0  0  0  0  0  0
   39.2185   28.2069   31.9250 H   0  0  0  0  0  0  0  0  0  0  0  0
   39.2100   26.4596   31.5899 H   0  0  0  0  0  0  0  0  0  0  0  0
   36.0734   26.4982   33.2363 H   0  0  0  0  0  0  0  0  0  0  0  0
   36.1794   25.7545   31.5739 H   0  0  0  0  0  0  0  0  0  0  0  0
   37.1169   24.2768   33.2870 H   0  0  0  0  0  0  0  0  0  0  0  0
   38.3636   24.8549   32.0974 H   0  0  0  0  0  0  0  0  0  0  0  0
   41.3475   23.1551   34.7750 H   0  0  0  0  0  0  0  0  0  0  0  0
   41.1809   25.3149   33.9485 H   0  0  0  0  0  0  0  0  0  0  0  0
   42.3833   27.3556   33.1863 H   0  0  0  0  0  0  0  0  0  0  0  0
   46.5796   27.4417   34.2077 H   0  0  0  0  0  0  0  0  0  0  0  0
   48.8250   27.7895   35.1005 H   0  0  0  0  0  0  0  0  0  0  0  0
   47.8466   25.2877   38.3358 H   0  0  0  0  0  0  0  0  0  0  0  0
  1  2  1  0
  2  3  1  0
  3  4  2  0
  4  5  1  0
  6  5  2  0
  7  6  1  0
  8  7  2  0
  8  3  1  0
  9  7  1  0
 10  9  1  0
 11 10  1  0
 12 11  1  0
 13 12  1  0
 13 14  1  0
 14 15  1  0
 15 10  1  0
 16  1  1  0
 17 16  1  0
 17 22  1  0
 18 17  2  0
 19 18  1  0
 19 20  2  0
 20 21  1  0
 21 22  2  0
 21 23  1  0
 23 29  1  0
 24 25  2  0
 24 23  1  0
 25 26  1  0
 26 27  2  0
 26 28  1  0
 29 28  1  0
 29 30  2  0
  1 31  1  0
  1 32  1  0
  2 33  1  0
  2 34  1  0
  4 35  1  0
  5 36  1  0
  9 37  1  0
  9 38  1  0
 11 39  1  0
 11 40  1  0
 12 41  1  0
 12 42  1  0
 14 43  1  0
 14 44  1  0
 15 45  1  0
 15 46  1  0
 16 47  1  0
 18 48  1  0
 19 49  1  0
 24 50  1  0
 25 51  1  0
 28 52  1  0
M  ISO  8  31   8  32   8  33   8  34   8  35  14  36  14  37   8  38   8
M  ISO  8  39  13  40  13  41  13  42  13  43  13  44  13  45  13  46  13
M  ISO  5  48  14  49  14  50  14  51  14  52   9
M  END
>  <minimizedAffinity>  (1) 
-5.55613375

>  <minimizedRMSD>  (1) 
1.47513795

$$$$
