
     RDKit          3D

 51 54  0  0  0  0  0  0  0  0999 V2000
   42.3110   22.8680   37.2040 C   0  0  0  0  0  0  0  0  0  0  0  0
   41.1900   21.8030   37.2930 C   0  0  0  0  0  0  0  0  0  0  0  0
   39.9570   22.6090   37.1860 C   0  0  0  0  0  0  0  0  0  0  0  0
   39.2390   22.9960   38.3070 C   0  0  0  0  0  0  0  0  0  0  0  0
   38.1100   23.7380   38.1370 C   0  0  0  0  0  0  0  0  0  0  0  0
   37.7270   24.0750   36.8820 N   0  0  0  0  0  0  0  0  0  0  0  0
   38.4480   23.6860   35.7770 C   0  0  0  0  0  0  0  0  0  0  0  0
   39.5150   22.9800   35.9910 N   0  0  0  0  0  0  0  0  0  0  0  0
   37.9140   24.1260   34.4550 C   0  0  0  0  0  0  0  0  0  0  0  0
   38.2800   25.5060   34.2100 N   0  0  0  0  0  0  0  0  0  0  0  0
   38.9620   26.1100   35.3100 C   0  0  0  0  0  0  0  0  0  0  0  0
   38.6090   27.5910   35.1180 C   0  0  0  0  0  0  0  0  0  0  0  0
   37.1010   27.4500   34.8670 C   0  0  0  0  0  0  0  0  0  0  0  0
   37.1570   26.3070   33.8430 C   0  0  0  0  0  0  0  0  0  0  0  0
   42.3770   23.3940   35.8520 N   0  0  0  0  0  0  0  0  0  0  0  0
   43.1040   24.5610   35.4080 C   0  0  0  0  0  0  0  0  0  0  0  0
   42.4050   25.3200   34.4920 C   0  0  0  0  0  0  0  0  0  0  0  0
   42.9590   26.4770   33.9550 C   0  0  0  0  0  0  0  0  0  0  0  0
   44.2200   26.8830   34.3290 N   0  0  0  0  0  0  0  0  0  0  0  0
   44.8810   26.0960   35.2460 C   0  0  0  0  0  0  0  0  0  0  0  0
   44.3760   24.9690   35.7880 N   0  0  0  0  0  0  0  0  0  0  0  0
   46.1690   26.3940   35.7330 N   0  0  0  0  0  0  0  0  0  0  0  0
   46.9630   27.1860   35.0160 C   0  0  0  0  0  0  0  0  0  0  0  0
   48.2080   27.5240   35.4420 C   0  0  0  0  0  0  0  0  0  0  0  0
   48.6810   27.0260   36.6810 C   0  0  0  0  0  0  0  0  0  0  0  0
   49.8330   27.3080   37.1320 O   0  0  0  0  0  0  0  0  0  0  0  0
   47.8610   26.2340   37.3750 N   0  0  0  0  0  0  0  0  0  0  0  0
   46.6340   25.9100   36.9400 C   0  0  0  0  0  0  0  0  0  0  0  0
   45.8310   25.1600   37.5750 O   0  0  0  0  0  0  0  0  0  0  0  0
   42.0942   23.6872   37.9054 H   0  0  0  0  0  0  0  0  0  0  0  0
   43.2750   22.4063   37.4638 H   0  0  0  0  0  0  0  0  0  0  0  0
   41.2637   21.0814   36.4661 H   0  0  0  0  0  0  0  0  0  0  0  0
   41.2360   21.2009   38.2125 H   0  0  0  0  0  0  0  0  0  0  0  0
   39.5749   22.7092   39.3144 H   0  0  0  0  0  0  0  0  0  0  0  0
   37.5174   24.0592   39.0063 H   0  0  0  0  0  0  0  0  0  0  0  0
   38.3350   23.4907   33.6618 H   0  0  0  0  0  0  0  0  0  0  0  0
   36.8176   24.0375   34.4597 H   0  0  0  0  0  0  0  0  0  0  0  0
   38.5875   25.7298   36.2719 H   0  0  0  0  0  0  0  0  0  0  0  0
   40.0429   25.9073   35.3315 H   0  0  0  0  0  0  0  0  0  0  0  0
   38.8231   28.1858   36.0182 H   0  0  0  0  0  0  0  0  0  0  0  0
   39.1722   28.1125   34.3301 H   0  0  0  0  0  0  0  0  0  0  0  0
   36.5524   27.1666   35.7773 H   0  0  0  0  0  0  0  0  0  0  0  0
   36.5797   28.3625   34.5419 H   0  0  0  0  0  0  0  0  0  0  0  0
   37.2896   26.7092   32.8278 H   0  0  0  0  0  0  0  0  0  0  0  0
   36.2264   25.7205   33.8419 H   0  0  0  0  0  0  0  0  0  0  0  0
   41.8489   22.8800   35.1324 H   0  0  0  0  0  0  0  0  0  0  0  0
   41.3971   25.0061   34.1827 H   0  0  0  0  0  0  0  0  0  0  0  0
   42.3864   27.0710   33.2274 H   0  0  0  0  0  0  0  0  0  0  0  0
   46.6017   27.5770   34.0534 H   0  0  0  0  0  0  0  0  0  0  0  0
   48.8442   28.1796   34.8293 H   0  0  0  0  0  0  0  0  0  0  0  0
   48.1822   25.8575   38.2783 H   0  0  0  0  0  0  0  0  0  0  0  0
  1  2  1  0
  3  2  1  0
  3  4  2  0
  5  4  1  0
  6  5  2  0
  7  8  2  0
  7  6  1  0
  8  3  1  0
  9  7  1  0
 10  9  1  0
 10 11  1  0
 12 11  1  0
 13 12  1  0
 14 10  1  0
 14 13  1  0
 15  1  1  0
 16 21  1  0
 16 15  1  0
 17 16  2  0
 18 19  2  0
 18 17  1  0
 19 20  1  0
 20 22  1  0
 20 21  2  0
 22 28  1  0
 23 24  2  0
 23 22  1  0
 24 25  1  0
 25 26  2  0
 25 27  1  0
 28 27  1  0
 28 29  2  0
  1 30  1  0
  1 31  1  0
  2 32  1  0
  2 33  1  0
  4 34  1  0
  5 35  1  0
  9 36  1  0
  9 37  1  0
 11 38  1  0
 11 39  1  0
 12 40  1  0
 12 41  1  0
 13 42  1  0
 13 43  1  0
 14 44  1  0
 14 45  1  0
 15 46  1  0
 17 47  1  0
 18 48  1  0
 23 49  1  0
 24 50  1  0
 27 51  1  0
M  ISO  8  30   8  31   8  32   8  33   8  34  14  35  14  36   8  37   8
M  ISO  8  38  13  39  13  40  13  41  13  42  13  43  13  44  13  45  13
M  ISO  5  47  14  48  14  49  14  50  14  51   9
M  END
>  <minimizedAffinity>  (1) 
-5.48920059

>  <minimizedRMSD>  (1) 
0.88298285

$$$$
