
     RDKit          3D

 48 51  0  0  0  0  0  0  0  0999 V2000
   42.2710   22.8140   37.1580 C   0  0  0  0  0  0  0  0  0  0  0  0
   41.1370   21.7600   37.2320 C   0  0  0  0  0  0  0  0  0  0  0  0
   39.9240   22.5690   37.0110 C   0  0  0  0  0  0  0  0  0  0  0  0
   39.2530   23.1620   38.0610 C   0  0  0  0  0  0  0  0  0  0  0  0
   38.1300   23.8970   37.7840 C   0  0  0  0  0  0  0  0  0  0  0  0
   37.7170   24.0140   36.4880 N   0  0  0  0  0  0  0  0  0  0  0  0
   38.4080   23.4100   35.4590 C   0  0  0  0  0  0  0  0  0  0  0  0
   39.4540   22.7350   35.7860 N   0  0  0  0  0  0  0  0  0  0  0  0
   37.8060   23.6340   34.1190 C   0  0  0  0  0  0  0  0  0  0  0  0
   37.8900   24.9600   33.5620 C   0  0  0  0  0  0  0  0  0  0  0  0
   39.0210   25.1520   32.7580 C   0  0  0  0  0  0  0  0  0  0  0  0
   39.3200   26.3370   32.1180 C   0  0  0  0  0  0  0  0  0  0  0  0
   38.4740   27.4180   32.2590 C   0  0  0  0  0  0  0  0  0  0  0  0
   37.3650   27.2100   33.0540 C   0  0  0  0  0  0  0  0  0  0  0  0
   37.1010   26.0430   33.6650 N   0  0  0  0  0  0  0  0  0  0  0  0
   42.2700   23.4140   35.8340 N   0  0  0  0  0  0  0  0  0  0  0  0
   43.0150   24.5760   35.4010 C   0  0  0  0  0  0  0  0  0  0  0  0
   42.3240   25.3460   34.4840 C   0  0  0  0  0  0  0  0  0  0  0  0
   42.8990   26.4940   33.9620 C   0  0  0  0  0  0  0  0  0  0  0  0
   44.1590   26.8920   34.3410 N   0  0  0  0  0  0  0  0  0  0  0  0
   44.8070   26.0970   35.2550 C   0  0  0  0  0  0  0  0  0  0  0  0
   44.2890   24.9680   35.7920 N   0  0  0  0  0  0  0  0  0  0  0  0
   46.1010   26.3710   35.7490 N   0  0  0  0  0  0  0  0  0  0  0  0
   46.9060   27.1510   35.0350 C   0  0  0  0  0  0  0  0  0  0  0  0
   48.1560   27.4630   35.4530 C   0  0  0  0  0  0  0  0  0  0  0  0
   48.6280   26.9500   36.6840 C   0  0  0  0  0  0  0  0  0  0  0  0
   49.7900   27.2040   37.1340 O   0  0  0  0  0  0  0  0  0  0  0  0
   47.7880   26.1670   37.3760 N   0  0  0  0  0  0  0  0  0  0  0  0
   46.5590   25.8690   36.9490 C   0  0  0  0  0  0  0  0  0  0  0  0
   45.7480   25.1360   37.5760 O   0  0  0  0  0  0  0  0  0  0  0  0
   42.1016   23.5925   37.9164 H   0  0  0  0  0  0  0  0  0  0  0  0
   43.2412   22.3318   37.3481 H   0  0  0  0  0  0  0  0  0  0  0  0
   41.2530   20.9975   36.4477 H   0  0  0  0  0  0  0  0  0  0  0  0
   41.1218   21.2025   38.1801 H   0  0  0  0  0  0  0  0  0  0  0  0
   39.6107   23.0475   39.0949 H   0  0  0  0  0  0  0  0  0  0  0  0
   37.5693   24.3858   38.5944 H   0  0  0  0  0  0  0  0  0  0  0  0
   38.3041   22.9499   33.4162 H   0  0  0  0  0  0  0  0  0  0  0  0
   36.7296   23.4604   34.2644 H   0  0  0  0  0  0  0  0  0  0  0  0
   39.7127   24.3065   32.6291 H   0  0  0  0  0  0  0  0  0  0  0  0
   40.2261   26.4195   31.4998 H   0  0  0  0  0  0  0  0  0  0  0  0
   38.6707   28.3832   31.7694 H   0  0  0  0  0  0  0  0  0  0  0  0
   36.6607   28.0431   33.1946 H   0  0  0  0  0  0  0  0  0  0  0  0
   41.6733   22.9622   35.1264 H   0  0  0  0  0  0  0  0  0  0  0  0
   41.3140   25.0464   34.1675 H   0  0  0  0  0  0  0  0  0  0  0  0
   42.3379   27.0965   33.2325 H   0  0  0  0  0  0  0  0  0  0  0  0
   46.5468   27.5549   34.0769 H   0  0  0  0  0  0  0  0  0  0  0  0
   48.7996   28.1107   34.8396 H   0  0  0  0  0  0  0  0  0  0  0  0
   48.1047   25.7787   38.2759 H   0  0  0  0  0  0  0  0  0  0  0  0
  1  2  1  0
  3  2  1  0
  3  4  2  0
  5  4  1  0
  6  5  2  0
  7  8  2  0
  7  6  1  0
  8  3  1  0
  9  7  1  0
 10 15  1  0
 10  9  1  0
 11 10  2  0
 12 13  2  0
 12 11  1  0
 13 14  1  0
 14 15  2  0
 16  1  1  0
 17 22  1  0
 17 16  1  0
 18 17  2  0
 19 20  2  0
 19 18  1  0
 20 21  1  0
 21 23  1  0
 21 22  2  0
 23 29  1  0
 24 25  2  0
 24 23  1  0
 25 26  1  0
 26 27  2  0
 26 28  1  0
 29 28  1  0
 29 30  2  0
  1 31  1  0
  1 32  1  0
  2 33  1  0
  2 34  1  0
  4 35  1  0
  5 36  1  0
  9 37  1  0
  9 38  1  0
 11 39  1  0
 12 40  1  0
 13 41  1  0
 14 42  1  0
 16 43  1  0
 18 44  1  0
 19 45  1  0
 24 46  1  0
 25 47  1  0
 28 48  1  0
M  ISO  8  31   8  32   8  33   8  34   8  35  14  36  14  37   8  38   8
M  ISO  8  39  14  40  14  41  14  42  14  44  14  45  14  46  14  47  14
M  ISO  1  48   9
M  END
>  <minimizedAffinity>  (1) 
-5.43032455

>  <minimizedRMSD>  (1) 
1.41219068

$$$$
