
     RDKit          3D

 46 49  0  0  0  0  0  0  0  0999 V2000
   41.9800   22.8490   37.0110 C   0  0  0  0  0  0  0  0  0  0  0  0
   40.7170   21.9570   36.9210 C   0  0  0  0  0  0  0  0  0  0  0  0
   39.6290   22.9370   36.7200 C   0  0  0  0  0  0  0  0  0  0  0  0
   38.7470   23.2570   37.7430 C   0  0  0  0  0  0  0  0  0  0  0  0
   37.7670   24.1680   37.4950 C   0  0  0  0  0  0  0  0  0  0  0  0
   37.6850   24.7280   36.2640 N   0  0  0  0  0  0  0  0  0  0  0  0
   38.5610   24.4010   35.2720 C   0  0  0  0  0  0  0  0  0  0  0  0
   39.4830   23.5300   35.5410 N   0  0  0  0  0  0  0  0  0  0  0  0
   38.3670   25.0960   33.9510 C   0  0  0  0  0  0  0  0  0  0  0  0
   37.4810   24.3860   33.0770 N   0  0  0  0  0  0  0  0  0  0  0  0
   37.4080   23.0530   33.0390 N   0  0  0  0  0  0  0  0  0  0  0  0
   36.4940   22.6780   32.1280 C   0  0  0  0  0  0  0  0  0  0  0  0
   36.0030   23.8580   31.6030 C   0  0  0  0  0  0  0  0  0  0  0  0
   36.6220   24.9530   32.1980 C   0  0  0  0  0  0  0  0  0  0  0  0
   42.3820   23.2480   35.6820 N   0  0  0  0  0  0  0  0  0  0  0  0
   43.0910   24.4550   35.3080 C   0  0  0  0  0  0  0  0  0  0  0  0
   42.3750   25.2680   34.4480 C   0  0  0  0  0  0  0  0  0  0  0  0
   42.9100   26.4580   33.9870 C   0  0  0  0  0  0  0  0  0  0  0  0
   44.1640   26.8560   34.3740 N   0  0  0  0  0  0  0  0  0  0  0  0
   44.8500   26.0230   35.2310 C   0  0  0  0  0  0  0  0  0  0  0  0
   44.3640   24.8530   35.7040 N   0  0  0  0  0  0  0  0  0  0  0  0
   46.1360   26.3070   35.7270 N   0  0  0  0  0  0  0  0  0  0  0  0
   46.9050   27.1550   35.0480 C   0  0  0  0  0  0  0  0  0  0  0  0
   48.1540   27.4780   35.4990 C   0  0  0  0  0  0  0  0  0  0  0  0
   48.6420   26.9110   36.7010 C   0  0  0  0  0  0  0  0  0  0  0  0
   49.7920   27.1870   37.1520 O   0  0  0  0  0  0  0  0  0  0  0  0
   47.8420   26.0650   37.3510 N   0  0  0  0  0  0  0  0  0  0  0  0
   46.6140   25.7520   36.8980 C   0  0  0  0  0  0  0  0  0  0  0  0
   45.8250   24.9530   37.4910 O   0  0  0  0  0  0  0  0  0  0  0  0
   41.7554   23.7435   37.6105 H   0  0  0  0  0  0  0  0  0  0  0  0
   42.7951   22.2844   37.4872 H   0  0  0  0  0  0  0  0  0  0  0  0
   40.7842   21.2616   36.0713 H   0  0  0  0  0  0  0  0  0  0  0  0
   40.5704   21.3237   37.8084 H   0  0  0  0  0  0  0  0  0  0  0  0
   38.8382   22.7846   38.7322 H   0  0  0  0  0  0  0  0  0  0  0  0
   37.0514   24.4458   38.2829 H   0  0  0  0  0  0  0  0  0  0  0  0
   37.9499   26.0966   34.1378 H   0  0  0  0  0  0  0  0  0  0  0  0
   39.3483   25.1498   33.4569 H   0  0  0  0  0  0  0  0  0  0  0  0
   36.2001   21.6528   31.8584 H   0  0  0  0  0  0  0  0  0  0  0  0
   35.2301   23.9228   30.8230 H   0  0  0  0  0  0  0  0  0  0  0  0
   36.4537   26.0221   32.0013 H   0  0  0  0  0  0  0  0  0  0  0  0
   42.1378   22.6038   34.9163 H   0  0  0  0  0  0  0  0  0  0  0  0
   41.3677   24.9648   34.1265 H   0  0  0  0  0  0  0  0  0  0  0  0
   42.3241   27.0905   33.3039 H   0  0  0  0  0  0  0  0  0  0  0  0
   46.5314   27.6005   34.1142 H   0  0  0  0  0  0  0  0  0  0  0  0
   48.7805   28.1789   34.9278 H   0  0  0  0  0  0  0  0  0  0  0  0
   48.1744   25.6377   38.2273 H   0  0  0  0  0  0  0  0  0  0  0  0
  2  1  1  0
  3  2  1  0
  3  4  2  0
  5  4  1  0
  6  5  2  0
  7  8  2  0
  7  6  1  0
  8  3  1  0
  9  7  1  0
 10  9  1  0
 11 10  1  0
 12 11  2  0
 13 12  1  0
 13 14  2  0
 14 10  1  0
 15  1  1  0
 16 15  1  0
 16 21  1  0
 17 16  2  0
 18 19  2  0
 18 17  1  0
 19 20  1  0
 20 21  2  0
 20 22  1  0
 22 28  1  0
 23 24  2  0
 23 22  1  0
 24 25  1  0
 25 26  2  0
 25 27  1  0
 28 27  1  0
 28 29  2  0
  1 30  1  0
  1 31  1  0
  2 32  1  0
  2 33  1  0
  4 34  1  0
  5 35  1  0
  9 36  1  0
  9 37  1  0
 12 38  1  0
 13 39  1  0
 14 40  1  0
 15 41  1  0
 17 42  1  0
 18 43  1  0
 23 44  1  0
 24 45  1  0
 27 46  1  0
M  ISO  8  30   8  31   8  32   8  33   8  34  14  35  14  36   8  37   8
M  ISO  8  38  14  39  14  40  14  42  14  43  14  44  14  45  14  46   9
M  END
>  <minimizedAffinity>  (1) 
-5.30473566

>  <minimizedRMSD>  (1) 
0.912815094

$$$$
