
     RDKit          3D

 41 43  0  0  0  0  0  0  0  0999 V2000
   42.1030   23.2470   35.6890 N   0  0  0  0  0  0  0  0  0  0  0  0
   42.8330   24.4290   35.2890 C   0  0  0  0  0  0  0  0  0  0  0  0
   42.1380   25.2050   34.3910 C   0  0  0  0  0  0  0  0  0  0  0  0
   42.7070   26.3880   33.8940 C   0  0  0  0  0  0  0  0  0  0  0  0
   43.9510   26.7850   34.2910 N   0  0  0  0  0  0  0  0  0  0  0  0
   44.6090   25.9810   35.1880 C   0  0  0  0  0  0  0  0  0  0  0  0
   44.1000   24.8240   35.6990 N   0  0  0  0  0  0  0  0  0  0  0  0
   45.8920   26.2550   35.7030 N   0  0  0  0  0  0  0  0  0  0  0  0
   46.6930   27.0630   35.0080 C   0  0  0  0  0  0  0  0  0  0  0  0
   47.9350   27.3740   35.4550 C   0  0  0  0  0  0  0  0  0  0  0  0
   48.4070   26.8440   36.6700 C   0  0  0  0  0  0  0  0  0  0  0  0
   49.5550   27.0990   37.1370 O   0  0  0  0  0  0  0  0  0  0  0  0
   47.5700   26.0280   37.3500 N   0  0  0  0  0  0  0  0  0  0  0  0
   46.3380   25.7260   36.8980 C   0  0  0  0  0  0  0  0  0  0  0  0
   45.5350   24.9720   37.5000 O   0  0  0  0  0  0  0  0  0  0  0  0
   41.9620   22.7200   37.0450 C   0  0  0  0  0  0  0  0  0  0  0  0
   40.6540   21.9010   37.1470 C   0  0  0  0  0  0  0  0  0  0  0  0
   39.6120   22.9490   37.2380 C   0  0  0  0  0  0  0  0  0  0  0  0
   38.9840   23.2370   38.4430 C   0  0  0  0  0  0  0  0  0  0  0  0
   38.0280   24.2170   38.4600 C   0  0  0  0  0  0  0  0  0  0  0  0
   37.7340   24.8620   37.3100 N   0  0  0  0  0  0  0  0  0  0  0  0
   38.3610   24.5690   36.1230 C   0  0  0  0  0  0  0  0  0  0  0  0
   39.2620   23.6280   36.1620 N   0  0  0  0  0  0  0  0  0  0  0  0
   37.9460   25.3480   34.9190 C   0  0  0  0  0  0  0  0  0  0  0  0
   38.0260   24.5640   33.7170 N   0  0  0  0  0  0  0  0  0  0  0  0
   41.6325   22.7206   34.9391 H   0  0  0  0  0  0  0  0  0  0  0  0
   41.1344   24.8980   34.0617 H   0  0  0  0  0  0  0  0  0  0  0  0
   42.1437   27.0023   33.1761 H   0  0  0  0  0  0  0  0  0  0  0  0
   46.3403   27.4848   34.0553 H   0  0  0  0  0  0  0  0  0  0  0  0
   48.5769   28.0443   34.8645 H   0  0  0  0  0  0  0  0  0  0  0  0
   47.8854   25.6240   38.2434 H   0  0  0  0  0  0  0  0  0  0  0  0
   42.8196   22.0715   37.2773 H   0  0  0  0  0  0  0  0  0  0  0  0
   41.9286   23.5545   37.7608 H   0  0  0  0  0  0  0  0  0  0  0  0
   40.5086   21.2752   36.2541 H   0  0  0  0  0  0  0  0  0  0  0  0
   40.6438   21.2041   37.9980 H   0  0  0  0  0  0  0  0  0  0  0  0
   39.2482   22.6913   39.3608 H   0  0  0  0  0  0  0  0  0  0  0  0
   37.5080   24.4748   39.3944 H   0  0  0  0  0  0  0  0  0  0  0  0
   36.9078   25.6853   35.0546 H   0  0  0  0  0  0  0  0  0  0  0  0
   38.6312   26.2021   34.8140 H   0  0  0  0  0  0  0  0  0  0  0  0
   38.1275   23.5688   33.9623 H   0  0  0  0  0  0  0  0  0  0  0  0
   37.1672   24.6953   33.1637 H   0  0  0  0  0  0  0  0  0  0  0  0
  1 16  1  0
  2  1  1  0
  2  7  1  0
  3  2  2  0
  4  5  2  0
  4  3  1  0
  5  6  1  0
  6  7  2  0
  6  8  1  0
  8 14  1  0
  9 10  2  0
  9  8  1  0
 10 11  1  0
 11 12  2  0
 11 13  1  0
 14 13  1  0
 14 15  2  0
 16 17  1  0
 17 18  1  0
 18 19  2  0
 19 20  1  0
 21 20  2  0
 22 23  2  0
 22 21  1  0
 23 18  1  0
 24 22  1  0
 25 24  1  0
  1 26  1  0
  3 27  1  0
  4 28  1  0
  9 29  1  0
 10 30  1  0
 13 31  1  0
 16 32  1  0
 16 33  1  0
 17 34  1  0
 17 35  1  0
 19 36  1  0
 20 37  1  0
 24 38  1  0
 24 39  1  0
 25 40  1  0
 25 41  1  0
M  ISO  8  27  14  28  14  29  14  30  14  31   9  32   8  33   8  34   8
M  ISO  7  35   8  36  14  37  14  38   8  39   8  40   5  41   5
M  END
>  <minimizedAffinity>  (1) 
-4.94643545

>  <minimizedRMSD>  (1) 
0.296229929

$$$$
