
     RDKit          3D

 45 48  0  0  0  0  0  0  0  0999 V2000
   42.2380   22.8330   37.1440 C   0  0  0  0  0  0  0  0  0  0  0  0
   41.0850   21.8030   37.2370 C   0  0  0  0  0  0  0  0  0  0  0  0
   39.8750   22.6440   37.0420 C   0  0  0  0  0  0  0  0  0  0  0  0
   39.2010   23.1860   38.1190 C   0  0  0  0  0  0  0  0  0  0  0  0
   38.0930   23.9460   37.8760 C   0  0  0  0  0  0  0  0  0  0  0  0
   37.6990   24.1400   36.5900 N   0  0  0  0  0  0  0  0  0  0  0  0
   38.3860   23.5900   35.5350 C   0  0  0  0  0  0  0  0  0  0  0  0
   39.4250   22.8800   35.8170 N   0  0  0  0  0  0  0  0  0  0  0  0
   37.8310   23.8780   34.1830 C   0  0  0  0  0  0  0  0  0  0  0  0
   37.8330   25.2590   33.8210 N   0  0  0  0  0  0  0  0  0  0  0  0
   38.9530   25.7380   33.1990 C   0  0  0  0  0  0  0  0  0  0  0  0
   38.7850   27.0640   32.9330 N   0  0  0  0  0  0  0  0  0  0  0  0
   37.5760   27.4120   33.3810 C   0  0  0  0  0  0  0  0  0  0  0  0
   37.0500   26.3150   33.8970 N   0  0  0  0  0  0  0  0  0  0  0  0
   42.2830   23.4060   35.8140 N   0  0  0  0  0  0  0  0  0  0  0  0
   43.0290   24.5700   35.3890 C   0  0  0  0  0  0  0  0  0  0  0  0
   42.3400   25.3410   34.4830 C   0  0  0  0  0  0  0  0  0  0  0  0
   42.9100   26.5050   33.9590 C   0  0  0  0  0  0  0  0  0  0  0  0
   44.1720   26.8930   34.3450 N   0  0  0  0  0  0  0  0  0  0  0  0
   44.8230   26.0900   35.2550 C   0  0  0  0  0  0  0  0  0  0  0  0
   44.3030   24.9600   35.7810 N   0  0  0  0  0  0  0  0  0  0  0  0
   46.1100   26.3650   35.7500 N   0  0  0  0  0  0  0  0  0  0  0  0
   46.9090   27.1630   35.0330 C   0  0  0  0  0  0  0  0  0  0  0  0
   48.1650   27.4690   35.4870 C   0  0  0  0  0  0  0  0  0  0  0  0
   48.6330   26.9550   36.7020 C   0  0  0  0  0  0  0  0  0  0  0  0
   49.7820   27.2120   37.1590 O   0  0  0  0  0  0  0  0  0  0  0  0
   47.8050   26.1590   37.3920 N   0  0  0  0  0  0  0  0  0  0  0  0
   46.5630   25.8530   36.9500 C   0  0  0  0  0  0  0  0  0  0  0  0
   45.7590   25.1080   37.5720 O   0  0  0  0  0  0  0  0  0  0  0  0
   42.0721   23.6333   37.8802 H   0  0  0  0  0  0  0  0  0  0  0  0
   43.1924   22.3272   37.3523 H   0  0  0  0  0  0  0  0  0  0  0  0
   41.1695   21.0414   36.4478 H   0  0  0  0  0  0  0  0  0  0  0  0
   41.0775   21.2422   38.1833 H   0  0  0  0  0  0  0  0  0  0  0  0
   39.5485   23.0096   39.1476 H   0  0  0  0  0  0  0  0  0  0  0  0
   37.5287   24.3938   38.7073 H   0  0  0  0  0  0  0  0  0  0  0  0
   38.4301   23.3283   33.4421 H   0  0  0  0  0  0  0  0  0  0  0  0
   36.7772   23.5634   34.2054 H   0  0  0  0  0  0  0  0  0  0  0  0
   39.8473   25.1468   32.9526 H   0  0  0  0  0  0  0  0  0  0  0  0
   37.1126   28.4084   33.3308 H   0  0  0  0  0  0  0  0  0  0  0  0
   41.7220   22.9323   35.0917 H   0  0  0  0  0  0  0  0  0  0  0  0
   41.3304   25.0391   34.1673 H   0  0  0  0  0  0  0  0  0  0  0  0
   42.3472   27.1129   33.2353 H   0  0  0  0  0  0  0  0  0  0  0  0
   46.5566   27.5749   34.0758 H   0  0  0  0  0  0  0  0  0  0  0  0
   48.8135   28.1266   34.8894 H   0  0  0  0  0  0  0  0  0  0  0  0
   48.1246   25.7667   38.2892 H   0  0  0  0  0  0  0  0  0  0  0  0
  1  2  1  0
  3  2  1  0
  3  4  2  0
  5  4  1  0
  6  5  2  0
  7  8  2  0
  7  6  1  0
  8  3  1  0
  9  7  1  0
 10 14  1  0
 10  9  1  0
 11 10  1  0
 12 11  2  0
 12 13  1  0
 13 14  2  0
 15  1  1  0
 16 21  1  0
 16 15  1  0
 17 16  2  0
 18 19  2  0
 18 17  1  0
 19 20  1  0
 20 22  1  0
 20 21  2  0
 22 28  1  0
 23 24  2  0
 23 22  1  0
 24 25  1  0
 25 26  2  0
 25 27  1  0
 28 27  1  0
 28 29  2  0
  1 30  1  0
  1 31  1  0
  2 32  1  0
  2 33  1  0
  4 34  1  0
  5 35  1  0
  9 36  1  0
  9 37  1  0
 11 38  1  0
 13 39  1  0
 15 40  1  0
 17 41  1  0
 18 42  1  0
 23 43  1  0
 24 44  1  0
 27 45  1  0
M  ISO  8  30   8  31   8  32   8  33   8  34  14  35  14  36   8  37   8
M  ISO  7  38  14  39  14  41  14  42  14  43  14  44  14  45   9
M  END
>  <minimizedAffinity>  (1) 
-5.21843815

>  <minimizedRMSD>  (1) 
1.12829721

$$$$
