
     RDKit          3D

 30 32  0  0  1  0  0  0  0  0999 V2000
   40.0200   22.2430   36.6570 C   0  0  0  0  0  0  0  0  0  0  0  0
   39.3160   23.4260   36.4430 C   0  0  0  0  0  0  0  0  0  0  0  0
   39.7170   24.2890   35.4230 C   0  0  0  0  0  0  0  0  0  0  0  0
   40.8010   23.9240   34.6720 N   0  0  0  0  0  0  0  0  0  0  0  0
   41.4820   22.7590   34.8960 C   0  0  0  0  0  0  0  0  0  0  0  0
   41.0790   21.9340   35.8890 N   0  0  0  0  0  0  0  0  0  0  0  0
   39.0720   25.5080   35.1260 N   0  0  0  0  0  0  0  0  0  0  0  0
   39.5700   26.8730   35.1300 C   0  0  0  0  0  0  0  0  0  0  0  0
   38.3630   27.5540   35.7540 C   0  0  0  0  0  0  0  0  0  0  0  0
   37.2630   27.0160   34.8410 C   0  0  0  0  0  0  0  0  0  0  0  0
   37.6660   25.5660   34.7330 C   0  0  1  0  0  0  0  0  0  0  0  0
   37.6300   25.1850   33.2940 C   0  0  0  0  0  0  0  0  0  0  0  0
   37.6860   26.1340   32.3190 C   0  0  0  0  0  0  0  0  0  0  0  0
   37.6420   25.6200   31.0280 C   0  0  0  0  0  0  0  0  0  0  0  0
   37.5510   24.3130   30.7470 N   0  0  0  0  0  0  0  0  0  0  0  0
   37.4980   23.4100   31.7540 C   0  0  0  0  0  0  0  0  0  0  0  0
   37.5380   23.8580   33.0220 N   0  0  0  0  0  0  0  0  0  0  0  0
   39.7075   21.5580   37.4589 H   0  0  0  0  0  0  0  0  0  0  0  0
   38.4505   23.6776   37.0736 H   0  0  0  0  0  0  0  0  0  0  0  0
   42.3500   22.4954   34.2738 H   0  0  0  0  0  0  0  0  0  0  0  0
   40.4730   26.9825   35.7486 H   0  0  0  0  0  0  0  0  0  0  0  0
   39.8880   27.2673   34.1536 H   0  0  0  0  0  0  0  0  0  0  0  0
   38.2143   27.2462   36.7995 H   0  0  0  0  0  0  0  0  0  0  0  0
   38.4252   28.6507   35.8127 H   0  0  0  0  0  0  0  0  0  0  0  0
   36.2684   27.1264   35.2977 H   0  0  0  0  0  0  0  0  0  0  0  0
   37.1778   27.5372   33.8761 H   0  0  0  0  0  0  0  0  0  0  0  0
   37.0148   24.9202   35.3404 H   0  0  0  0  0  0  0  0  0  0  0  0
   37.7594   27.2104   32.5336 H   0  0  0  0  0  0  0  0  0  0  0  0
   37.6844   26.3282   30.1874 H   0  0  0  0  0  0  0  0  0  0  0  0
   37.4239   22.3335   31.5403 H   0  0  0  0  0  0  0  0  0  0  0  0
  2  1  2  0
  3  2  1  0
  4  5  1  0
  4  3  2  0
  5  6  2  0
  6  1  1  0
  7  8  1  0
  7  3  1  0
  8  9  1  0
 10  9  1  0
 11 10  1  0
 11  7  1  0
 12 11  1  0
 13 12  2  0
 14 13  1  0
 15 14  2  0
 15 16  1  0
 16 17  2  0
 17 12  1  0
  1 18  1  0
  2 19  1  0
  5 20  1  0
  8 21  1  0
  8 22  1  0
  9 23  1  0
  9 24  1  0
 10 25  1  0
 10 26  1  0
 11 27  1  1
 13 28  1  0
 14 29  1  0
 16 30  1  0
M  ISO  8  18  14  19  14  20  14  21  13  22  13  23  13  24  13  25  13
M  ISO  5  26  13  27  13  28  14  29  14  30  14
M  END
>  <minimizedAffinity>  (1) 
-4.33748055

>  <minimizedRMSD>  (1) 
0.759523809

$$$$
