
     RDKit          3D

 37 39  0  0  1  0  0  0  0  0999 V2000
   38.9050   22.4480   36.6400 C   0  0  0  0  0  0  0  0  0  0  0  0
   38.3560   23.6540   36.2120 C   0  0  0  0  0  0  0  0  0  0  0  0
   39.1600   24.5650   35.5280 C   0  0  0  0  0  0  0  0  0  0  0  0
   40.4610   24.2170   35.3110 N   0  0  0  0  0  0  0  0  0  0  0  0
   40.9830   23.0460   35.7300 C   0  0  0  0  0  0  0  0  0  0  0  0
   40.1970   22.1620   36.3960 N   0  0  0  0  0  0  0  0  0  0  0  0
   38.6790   25.7970   35.0560 N   0  0  0  0  0  0  0  0  0  0  0  0
   39.1170   27.1440   35.3510 C   0  0  0  0  0  0  0  0  0  0  0  0
   37.7380   27.8100   35.4550 C   0  0  0  0  0  0  0  0  0  0  0  0
   37.2340   27.4000   34.0730 C   0  0  0  0  0  0  0  0  0  0  0  0
   37.5690   25.9110   34.1170 C   0  0  1  0  0  0  0  0  0  0  0  0
   37.9300   25.5540   32.7780 N   0  0  0  0  0  0  0  0  0  0  0  0
   37.8620   24.1590   32.4840 C   0  0  0  0  0  0  0  0  0  0  0  0
   37.3540   23.8730   31.0810 C   0  0  0  0  0  0  0  0  0  0  0  0
   35.9490   24.4220   30.8920 C   0  0  0  0  0  0  0  0  0  0  0  0
   35.7780   25.7660   31.5950 C   0  0  0  0  0  0  0  0  0  0  0  0
   37.1490   26.3090   31.8480 C   0  0  0  0  0  0  0  0  0  0  0  0
   38.2781   21.7241   37.1813 H   0  0  0  0  0  0  0  0  0  0  0  0
   37.2993   23.8855   36.4114 H   0  0  0  0  0  0  0  0  0  0  0  0
   42.0390   22.8088   35.5333 H   0  0  0  0  0  0  0  0  0  0  0  0
   39.6776   27.2006   36.2957 H   0  0  0  0  0  0  0  0  0  0  0  0
   39.8117   27.5917   34.6250 H   0  0  0  0  0  0  0  0  0  0  0  0
   37.1274   27.3903   36.2680 H   0  0  0  0  0  0  0  0  0  0  0  0
   37.7248   28.8852   35.6867 H   0  0  0  0  0  0  0  0  0  0  0  0
   37.7747   27.9191   33.2679 H   0  0  0  0  0  0  0  0  0  0  0  0
   36.1797   27.6378   33.8685 H   0  0  0  0  0  0  0  0  0  0  0  0
   36.7555   25.2472   34.4449 H   0  0  0  0  0  0  0  0  0  0  0  0
   38.8695   23.7295   32.5865 H   0  0  0  0  0  0  0  0  0  0  0  0
   37.1499   23.7078   33.1906 H   0  0  0  0  0  0  0  0  0  0  0  0
   38.0270   24.3459   30.3506 H   0  0  0  0  0  0  0  0  0  0  0  0
   37.3295   22.7836   30.9306 H   0  0  0  0  0  0  0  0  0  0  0  0
   35.7575   24.5534   29.8168 H   0  0  0  0  0  0  0  0  0  0  0  0
   35.2361   23.7083   31.3306 H   0  0  0  0  0  0  0  0  0  0  0  0
   35.2109   26.4573   30.9543 H   0  0  0  0  0  0  0  0  0  0  0  0
   35.2246   25.6464   32.5381 H   0  0  0  0  0  0  0  0  0  0  0  0
   37.6888   26.3357   30.8899 H   0  0  0  0  0  0  0  0  0  0  0  0
   37.0105   27.3043   32.2956 H   0  0  0  0  0  0  0  0  0  0  0  0
  2  1  2  0
  3  2  1  0
  4  3  2  0
  4  5  1  0
  5  6  2  0
  6  1  1  0
  7  8  1  0
  7  3  1  0
  8  9  1  0
 10 11  1  0
 10  9  1  0
 11  7  1  0
 12 11  1  0
 13 12  1  0
 14 13  1  0
 15 14  1  0
 15 16  1  0
 16 17  1  0
 17 12  1  0
  1 18  1  0
  2 19  1  0
  5 20  1  0
  8 21  1  0
  8 22  1  0
  9 23  1  0
  9 24  1  0
 10 25  1  0
 10 26  1  0
 11 27  1  1
 13 28  1  0
 13 29  1  0
 14 30  1  0
 14 31  1  0
 15 32  1  0
 15 33  1  0
 16 34  1  0
 16 35  1  0
 17 36  1  0
 17 37  1  0
M  ISO  8  18  14  19  14  20  14  21  13  22  13  23  13  24  13  25  13
M  ISO  8  26  13  27  13  28  13  29  13  30  13  31  13  32  13  33  13
M  ISO  4  34  13  35  13  36  13  37  13
M  END
>  <minimizedAffinity>  (1) 
-4.55956316

>  <minimizedRMSD>  (1) 
1.98163307

$$$$
