
     RDKit          3D

 32 34  0  0  1  0  0  0  0  0999 V2000
   38.8910   22.4520   36.5320 C   0  0  0  0  0  0  0  0  0  0  0  0
   38.3250   23.6530   36.1110 C   0  0  0  0  0  0  0  0  0  0  0  0
   39.1510   24.6110   35.4870 C   0  0  0  0  0  0  0  0  0  0  0  0
   40.4770   24.3200   35.3190 N   0  0  0  0  0  0  0  0  0  0  0  0
   40.9770   23.1230   35.7520 C   0  0  0  0  0  0  0  0  0  0  0  0
   40.2040   22.2070   36.3460 N   0  0  0  0  0  0  0  0  0  0  0  0
   38.6460   25.8450   35.0390 N   0  0  0  0  0  0  0  0  0  0  0  0
   38.9800   27.1870   35.4440 C   0  0  0  0  0  0  0  0  0  0  0  0
   37.6060   27.8170   35.4430 C   0  0  0  0  0  0  0  0  0  0  0  0
   37.1420   27.3890   34.0490 C   0  0  0  0  0  0  0  0  0  0  0  0
   37.6280   25.9640   34.0170 C   0  0  1  0  0  0  0  0  0  0  0  0
   37.9420   25.4340   32.7470 N   0  0  0  0  0  0  0  0  0  0  0  0
   37.3300   24.3220   32.2390 C   0  0  0  0  0  0  0  0  0  0  0  0
   37.5980   23.7650   31.0060 C   0  0  0  0  0  0  0  0  0  0  0  0
   38.5490   24.3590   30.2180 C   0  0  0  0  0  0  0  0  0  0  0  0
   38.7930   23.8600   29.1090 O   0  0  0  0  0  0  0  0  0  0  0  0
   39.1680   25.4560   30.6920 N   0  0  0  0  0  0  0  0  0  0  0  0
   38.8590   25.9540   31.9110 C   0  0  0  0  0  0  0  0  0  0  0  0
   39.4940   26.9660   32.2400 O   0  0  0  0  0  0  0  0  0  0  0  0
   38.2603   21.6953   37.0214 H   0  0  0  0  0  0  0  0  0  0  0  0
   37.2536   23.8507   36.2624 H   0  0  0  0  0  0  0  0  0  0  0  0
   42.0459   22.9072   35.6076 H   0  0  0  0  0  0  0  0  0  0  0  0
   39.4373   27.2087   36.4442 H   0  0  0  0  0  0  0  0  0  0  0  0
   39.7191   27.6914   34.8042 H   0  0  0  0  0  0  0  0  0  0  0  0
   36.9636   27.4050   36.2352 H   0  0  0  0  0  0  0  0  0  0  0  0
   37.5839   28.8999   35.6352 H   0  0  0  0  0  0  0  0  0  0  0  0
   36.0479   27.4462   33.9509 H   0  0  0  0  0  0  0  0  0  0  0  0
   37.5195   28.0182   33.2295 H   0  0  0  0  0  0  0  0  0  0  0  0
   36.7936   25.2880   34.2555 H   0  0  0  0  0  0  0  0  0  0  0  0
   36.5653   23.8342   32.8613 H   0  0  0  0  0  0  0  0  0  0  0  0
   37.0623   22.8672   30.6640 H   0  0  0  0  0  0  0  0  0  0  0  0
   39.8860   25.9222   30.1193 H   0  0  0  0  0  0  0  0  0  0  0  0
  2  1  2  0
  3  2  1  0
  4  3  2  0
  4  5  1  0
  5  6  2  0
  6  1  1  0
  7  8  1  0
  7  3  1  0
  9  8  1  0
 10  9  1  0
 11 10  1  0
 11  7  1  0
 12 11  1  0
 13 12  1  0
 14 13  2  0
 15 17  1  0
 15 14  1  0
 16 15  2  0
 17 18  1  0
 18 19  2  0
 18 12  1  0
  1 20  1  0
  2 21  1  0
  5 22  1  0
  8 23  1  0
  8 24  1  0
  9 25  1  0
  9 26  1  0
 10 27  1  0
 10 28  1  0
 11 29  1  1
 13 30  1  0
 14 31  1  0
 17 32  1  0
M  ISO  8  20  14  21  14  22  14  23  13  24  13  25  13  26  13  27  13
M  ISO  5  28  13  29  13  30  14  31  14  32   9
M  END
>  <minimizedAffinity>  (1) 
-4.61818123

>  <minimizedRMSD>  (1) 
1.61856747

$$$$
