
     RDKit          3D

 29 31  0  0  1  0  0  0  0  0999 V2000
   39.7040   22.3710   36.8700 C   0  0  0  0  0  0  0  0  0  0  0  0
   38.9970   23.5160   36.4970 C   0  0  0  0  0  0  0  0  0  0  0  0
   39.5810   24.4000   35.5940 C   0  0  0  0  0  0  0  0  0  0  0  0
   40.8220   24.1020   35.1150 N   0  0  0  0  0  0  0  0  0  0  0  0
   41.4940   22.9840   35.4910 C   0  0  0  0  0  0  0  0  0  0  0  0
   40.9350   22.1230   36.3650 N   0  0  0  0  0  0  0  0  0  0  0  0
   38.9580   25.5760   35.1530 N   0  0  0  0  0  0  0  0  0  0  0  0
   39.3730   26.9770   35.2310 C   0  0  0  0  0  0  0  0  0  0  0  0
   38.0160   27.5950   35.5930 C   0  0  0  0  0  0  0  0  0  0  0  0
   37.2220   27.0280   34.4060 C   0  0  0  0  0  0  0  0  0  0  0  0
   37.6600   25.5820   34.4770 C   0  0  1  0  0  0  0  0  0  0  0  0
   37.6780   24.8910   33.2090 C   0  0  0  0  0  0  0  0  0  0  0  0
   37.3710   23.6120   32.8170 C   0  0  0  0  0  0  0  0  0  0  0  0
   37.4940   23.2450   31.5050 C   0  0  0  0  0  0  0  0  0  0  0  0
   37.9480   24.2540   30.6130 C   0  0  0  0  0  0  0  0  0  0  0  0
   38.1730   25.7070   31.7610 S   0  0  0  0  0  0  0  0  0  0  0  0
   39.2555   21.6627   37.5822 H   0  0  0  0  0  0  0  0  0  0  0  0
   37.9969   23.7158   36.9092 H   0  0  0  0  0  0  0  0  0  0  0  0
   42.4949   22.7805   35.0825 H   0  0  0  0  0  0  0  0  0  0  0  0
   40.1267   27.1432   36.0148 H   0  0  0  0  0  0  0  0  0  0  0  0
   39.8584   27.3827   34.3311 H   0  0  0  0  0  0  0  0  0  0  0  0
   37.6365   27.2368   36.5613 H   0  0  0  0  0  0  0  0  0  0  0  0
   37.9935   28.6873   35.7205 H   0  0  0  0  0  0  0  0  0  0  0  0
   37.5138   27.4985   33.4555 H   0  0  0  0  0  0  0  0  0  0  0  0
   36.1349   27.1896   34.4513 H   0  0  0  0  0  0  0  0  0  0  0  0
   36.9149   25.0035   35.0428 H   0  0  0  0  0  0  0  0  0  0  0  0
   37.0247   22.8792   33.5607 H   0  0  0  0  0  0  0  0  0  0  0  0
   37.2554   22.2280   31.1604 H   0  0  0  0  0  0  0  0  0  0  0  0
   38.1215   24.1938   29.5284 H   0  0  0  0  0  0  0  0  0  0  0  0
  2  1  2  0
  3  2  1  0
  4  5  1  0
  4  3  2  0
  5  6  2  0
  6  1  1  0
  7  8  1  0
  7  3  1  0
  8  9  1  0
 10 11  1  0
 10  9  1  0
 11  7  1  0
 12 11  1  0
 13 12  2  0
 14 13  1  0
 15 14  2  0
 15 16  1  0
 16 12  1  0
  1 17  1  0
  2 18  1  0
  5 19  1  0
  8 20  1  0
  8 21  1  0
  9 22  1  0
  9 23  1  0
 10 24  1  0
 10 25  1  0
 11 26  1  1
 13 27  1  0
 14 28  1  0
 15 29  1  0
M  ISO  8  17  14  18  14  19  14  20  13  21  13  22  13  23  13  24  13
M  ISO  5  25  13  26  13  27  14  28  14  29  14
M  END
>  <minimizedAffinity>  (1) 
-4.15536451

>  <minimizedRMSD>  (1) 
0.80367738

$$$$
