
     RDKit          3D

 29 31  0  0  1  0  0  0  0  0999 V2000
   40.0760   22.2920   36.8070 C   0  0  0  0  0  0  0  0  0  0  0  0
   39.3030   23.4250   36.5400 C   0  0  0  0  0  0  0  0  0  0  0  0
   39.7800   24.3190   35.5820 C   0  0  0  0  0  0  0  0  0  0  0  0
   40.9750   24.0390   34.9610 N   0  0  0  0  0  0  0  0  0  0  0  0
   41.6980   22.9310   35.2450 C   0  0  0  0  0  0  0  0  0  0  0  0
   41.2500   22.0620   36.1640 N   0  0  0  0  0  0  0  0  0  0  0  0
   39.1070   25.5080   35.2080 N   0  0  0  0  0  0  0  0  0  0  0  0
   39.5190   26.9010   35.2540 C   0  0  0  0  0  0  0  0  0  0  0  0
   38.2040   27.4940   35.7680 C   0  0  0  0  0  0  0  0  0  0  0  0
   37.2490   26.9070   34.7260 C   0  0  0  0  0  0  0  0  0  0  0  0
   37.7510   25.4880   34.6630 C   0  0  1  0  0  0  0  0  0  0  0  0
   37.7280   24.9260   33.3420 N   0  0  0  0  0  0  0  0  0  0  0  0
   37.5120   23.6410   33.1010 N   0  0  0  0  0  0  0  0  0  0  0  0
   37.5500   23.4230   31.7950 C   0  0  0  0  0  0  0  0  0  0  0  0
   37.8030   24.6460   31.2090 C   0  0  0  0  0  0  0  0  0  0  0  0
   37.9160   25.6000   32.2060 C   0  0  0  0  0  0  0  0  0  0  0  0
   39.7248   21.5680   37.5570 H   0  0  0  0  0  0  0  0  0  0  0  0
   38.3537   23.6050   37.0658 H   0  0  0  0  0  0  0  0  0  0  0  0
   42.6489   22.7435   34.7247 H   0  0  0  0  0  0  0  0  0  0  0  0
   40.3522   27.0664   35.9529 H   0  0  0  0  0  0  0  0  0  0  0  0
   39.9041   27.3223   34.3137 H   0  0  0  0  0  0  0  0  0  0  0  0
   37.9663   27.1490   36.7851 H   0  0  0  0  0  0  0  0  0  0  0  0
   38.1851   28.5899   35.8608 H   0  0  0  0  0  0  0  0  0  0  0  0
   36.2027   26.9532   35.0623 H   0  0  0  0  0  0  0  0  0  0  0  0
   37.2428   27.4346   33.7608 H   0  0  0  0  0  0  0  0  0  0  0  0
   37.0833   24.8369   35.2463 H   0  0  0  0  0  0  0  0  0  0  0  0
   37.4084   22.4607   31.2812 H   0  0  0  0  0  0  0  0  0  0  0  0
   37.8990   24.8323   30.1291 H   0  0  0  0  0  0  0  0  0  0  0  0
   38.1163   26.6751   32.0878 H   0  0  0  0  0  0  0  0  0  0  0  0
  2  1  2  0
  3  2  1  0
  4  5  1  0
  4  3  2  0
  5  6  2  0
  6  1  1  0
  7  8  1  0
  7  3  1  0
  8  9  1  0
 10  9  1  0
 11 10  1  0
 11  7  1  0
 12 11  1  0
 13 12  1  0
 14 13  2  0
 15 14  1  0
 15 16  2  0
 16 12  1  0
  1 17  1  0
  2 18  1  0
  5 19  1  0
  8 20  1  0
  8 21  1  0
  9 22  1  0
  9 23  1  0
 10 24  1  0
 10 25  1  0
 11 26  1  1
 14 27  1  0
 15 28  1  0
 16 29  1  0
M  ISO  8  17  14  18  14  19  14  20  13  21  13  22  13  23  13  24  13
M  ISO  5  25  13  26  13  27  14  28  14  29  14
M  END
>  <minimizedAffinity>  (1) 
-4.08744287

>  <minimizedRMSD>  (1) 
0.400975138

$$$$
