
     RDKit          3D

 31 32  0  0  1  0  0  0  0  0999 V2000
   39.9580   22.4710   36.9850 C   0  0  0  0  0  0  0  0  0  0  0  0
   39.2010   23.5550   36.5530 C   0  0  0  0  0  0  0  0  0  0  0  0
   39.7630   24.4840   35.6670 C   0  0  0  0  0  0  0  0  0  0  0  0
   41.0500   24.2910   35.2510 N   0  0  0  0  0  0  0  0  0  0  0  0
   41.7680   23.2130   35.6950 C   0  0  0  0  0  0  0  0  0  0  0  0
   41.2170   22.3210   36.5520 N   0  0  0  0  0  0  0  0  0  0  0  0
   39.0420   25.5900   35.1980 N   0  0  0  0  0  0  0  0  0  0  0  0
   39.3070   27.0180   35.3500 C   0  0  0  0  0  0  0  0  0  0  0  0
   37.8860   27.5110   35.5680 C   0  0  0  0  0  0  0  0  0  0  0  0
   37.2510   26.8910   34.3350 C   0  0  0  0  0  0  0  0  0  0  0  0
   37.8300   25.4950   34.4330 C   0  0  1  0  0  0  0  0  0  0  0  0
   37.9430   24.8220   33.1110 C   0  0  0  0  0  0  0  0  0  0  0  0
   36.8930   25.4670   32.1930 C   0  0  0  0  0  0  0  0  0  0  0  0
   37.5460   23.3580   33.1910 C   0  0  0  0  0  0  0  0  0  0  0  0
   39.5237   21.7381   37.6809 H   0  0  0  0  0  0  0  0  0  0  0  0
   38.1666   23.6824   36.9050 H   0  0  0  0  0  0  0  0  0  0  0  0
   42.8033   23.0700   35.3519 H   0  0  0  0  0  0  0  0  0  0  0  0
   39.9518   27.2264   36.2165 H   0  0  0  0  0  0  0  0  0  0  0  0
   39.8438   27.4878   34.5127 H   0  0  0  0  0  0  0  0  0  0  0  0
   37.4496   27.1232   36.5003 H   0  0  0  0  0  0  0  0  0  0  0  0
   37.7654   28.5990   35.6758 H   0  0  0  0  0  0  0  0  0  0  0  0
   37.5631   27.4011   33.4118 H   0  0  0  0  0  0  0  0  0  0  0  0
   36.1528   26.9415   34.2975 H   0  0  0  0  0  0  0  0  0  0  0  0
   37.1486   24.8160   34.9664 H   0  0  0  0  0  0  0  0  0  0  0  0
   38.9817   24.9153   32.7611 H   0  0  0  0  0  0  0  0  0  0  0  0
   36.1145   25.9452   32.8056 H   0  0  0  0  0  0  0  0  0  0  0  0
   37.3765   26.2240   31.5581 H   0  0  0  0  0  0  0  0  0  0  0  0
   36.4363   24.6935   31.5581 H   0  0  0  0  0  0  0  0  0  0  0  0
   37.4645   23.0573   34.2460 H   0  0  0  0  0  0  0  0  0  0  0  0
   36.5762   23.2133   32.6925 H   0  0  0  0  0  0  0  0  0  0  0  0
   38.3099   22.7432   32.6925 H   0  0  0  0  0  0  0  0  0  0  0  0
  2  1  2  0
  3  2  1  0
  4  3  2  0
  4  5  1  0
  5  6  2  0
  6  1  1  0
  7  8  1  0
  7  3  1  0
  8  9  1  0
 10 11  1  0
 10  9  1  0
 11  7  1  0
 12 14  1  0
 12 11  1  0
 13 12  1  0
  1 15  1  0
  2 16  1  0
  5 17  1  0
  8 18  1  0
  8 19  1  0
  9 20  1  0
  9 21  1  0
 10 22  1  0
 10 23  1  0
 11 24  1  1
 12 25  1  0
 13 26  1  0
 13 27  1  0
 13 28  1  0
 14 29  1  0
 14 30  1  0
 14 31  1  0
M  ISO  8  15  14  16  14  17  14  18  13  19  13  20  13  21  13  22  13
M  ISO  8  23  13  24  13  25   8  26   8  27   8  28   8  29   8  30   8
M  ISO  1  31   8
M  END
>  <minimizedAffinity>  (1) 
-3.7926178

>  <minimizedRMSD>  (1) 
0.692937672

$$$$
