
     RDKit          3D

 27 29  0  0  1  0  0  0  0  0999 V2000
   39.6430   22.5480   37.1300 C   0  0  0  0  0  0  0  0  0  0  0  0
   38.9280   23.6600   36.6990 C   0  0  0  0  0  0  0  0  0  0  0  0
   39.5310   24.5230   35.7870 C   0  0  0  0  0  0  0  0  0  0  0  0
   40.8030   24.2220   35.3650 N   0  0  0  0  0  0  0  0  0  0  0  0
   41.4820   23.1390   35.7930 C   0  0  0  0  0  0  0  0  0  0  0  0
   40.8990   22.3020   36.6770 N   0  0  0  0  0  0  0  0  0  0  0  0
   38.9080   25.6750   35.2780 N   0  0  0  0  0  0  0  0  0  0  0  0
   39.2710   27.0730   35.3080 C   0  0  0  0  0  0  0  0  0  0  0  0
   37.8670   27.6550   35.5390 C   0  0  0  0  0  0  0  0  0  0  0  0
   37.2020   27.0140   34.3050 C   0  0  0  0  0  0  0  0  0  0  0  0
   37.6350   25.5940   34.5530 C   0  0  1  0  0  0  0  0  0  0  0  0
   37.8370   24.7870   33.3560 C   0  0  0  0  0  0  0  0  0  0  0  0
   38.4580   25.2890   32.2670 N   0  0  0  0  0  0  0  0  0  0  0  0
   38.5050   24.3800   31.3630 O   0  0  0  0  0  0  0  0  0  0  0  0
   37.9450   23.2850   31.7860 C   0  0  0  0  0  0  0  0  0  0  0  0
   37.5130   23.5080   33.0390 N   0  0  0  0  0  0  0  0  0  0  0  0
   39.1830   21.8556   37.8505 H   0  0  0  0  0  0  0  0  0  0  0  0
   37.9105   23.8535   37.0694 H   0  0  0  0  0  0  0  0  0  0  0  0
   42.4996   22.9396   35.4260 H   0  0  0  0  0  0  0  0  0  0  0  0
   39.9597   27.3068   36.1332 H   0  0  0  0  0  0  0  0  0  0  0  0
   39.8104   27.4502   34.4267 H   0  0  0  0  0  0  0  0  0  0  0  0
   37.4192   27.3147   36.4844 H   0  0  0  0  0  0  0  0  0  0  0  0
   37.7929   28.7488   35.6296 H   0  0  0  0  0  0  0  0  0  0  0  0
   37.6014   27.4133   33.3610 H   0  0  0  0  0  0  0  0  0  0  0  0
   36.1197   27.1786   34.1978 H   0  0  0  0  0  0  0  0  0  0  0  0
   36.8267   25.0934   35.1062 H   0  0  0  0  0  0  0  0  0  0  0  0
   37.8434   22.3468   31.2209 H   0  0  0  0  0  0  0  0  0  0  0  0
  2  1  2  0
  3  2  1  0
  4  3  2  0
  4  5  1  0
  5  6  2  0
  6  1  1  0
  7  8  1  0
  7  3  1  0
  8  9  1  0
 10 11  1  0
 10  9  1  0
 11  7  1  0
 12 11  1  0
 13 12  2  0
 14 15  1  0
 14 13  1  0
 15 16  2  0
 16 12  1  0
  1 17  1  0
  2 18  1  0
  5 19  1  0
  8 20  1  0
  8 21  1  0
  9 22  1  0
  9 23  1  0
 10 24  1  0
 10 25  1  0
 11 26  1  1
 15 27  1  0
M  ISO  8  17  14  18  14  19  14  20  13  21  13  22  13  23  13  24  13
M  ISO  3  25  13  26  13  27  14
M  END
>  <minimizedAffinity>  (1) 
-4.02672291

>  <minimizedRMSD>  (1) 
0.848295331

$$$$
