
     RDKit          3D

 25 26  0  0  1  0  0  0  0  0999 V2000
   40.3820   22.1760   37.5370 C   0  0  0  0  0  0  0  0  0  0  0  0
   40.0510   23.2690   36.7510 C   0  0  0  0  0  0  0  0  0  0  0  0
   40.8940   23.6920   35.7380 C   0  0  0  0  0  0  0  0  0  0  0  0
   42.0730   22.9900   35.5390 N   0  0  0  0  0  0  0  0  0  0  0  0
   42.3540   21.9180   36.3400 C   0  0  0  0  0  0  0  0  0  0  0  0
   41.5270   21.5150   37.3230 N   0  0  0  0  0  0  0  0  0  0  0  0
   40.6110   24.7720   34.8900 N   0  0  0  0  0  0  0  0  0  0  0  0
   41.3700   26.0280   34.7080 C   0  0  0  0  0  0  0  0  0  0  0  0
   40.1950   26.9860   34.6230 C   0  0  0  0  0  0  0  0  0  0  0  0
   39.3920   26.2880   33.5490 C   0  0  0  0  0  0  0  0  0  0  0  0
   39.5030   24.8250   33.9910 C   0  0  2  0  0  0  0  0  0  0  0  0
   38.2030   24.2700   34.4020 C   0  0  0  0  0  0  0  0  0  0  0  0
   37.2710   24.8000   33.4740 F   0  0  0  0  0  0  0  0  0  0  0  0
   37.7250   24.7540   35.6090 F   0  0  0  0  0  0  0  0  0  0  0  0
   38.1580   22.9260   34.2580 F   0  0  0  0  0  0  0  0  0  0  0  0
   39.7024   21.8508   38.3385 H   0  0  0  0  0  0  0  0  0  0  0  0
   39.1085   23.8057   36.9344 H   0  0  0  0  0  0  0  0  0  0  0  0
   43.2902   21.3645   36.1752 H   0  0  0  0  0  0  0  0  0  0  0  0
   42.0226   26.2467   35.5660 H   0  0  0  0  0  0  0  0  0  0  0  0
   42.0669   26.0477   33.8571 H   0  0  0  0  0  0  0  0  0  0  0  0
   39.6448   27.0481   35.5735 H   0  0  0  0  0  0  0  0  0  0  0  0
   40.4553   28.0335   34.4110 H   0  0  0  0  0  0  0  0  0  0  0  0
   39.8329   26.4419   32.5530 H   0  0  0  0  0  0  0  0  0  0  0  0
   38.3582   26.6514   33.4528 H   0  0  0  0  0  0  0  0  0  0  0  0
   39.7375   24.1189   33.1808 H   0  0  0  0  0  0  0  0  0  0  0  0
  2  1  2  0
  3  2  1  0
  4  3  2  0
  4  5  1  0
  5  6  2  0
  6  1  1  0
  7  3  1  0
  8  7  1  0
  9  8  1  0
 10 11  1  0
 10  9  1  0
 11 12  1  0
 11  7  1  0
 12 14  1  0
 13 12  1  0
 15 12  1  0
  1 16  1  0
  2 17  1  0
  5 18  1  0
  8 19  1  0
  8 20  1  0
  9 21  1  0
  9 22  1  0
 10 23  1  0
 10 24  1  0
 11 25  1  6
M  ISO  8  16  14  17  14  18  14  19  13  20  13  21  13  22  13  23  13
M  ISO  2  24  13  25  13
M  END
>  <minimizedAffinity>  (1) 
-3.67228103

>  <minimizedRMSD>  (1) 
1.69488049

$$$$
