
     RDKit          3D

 23 24  0  0  1  0  0  0  0  0999 V2000
   40.2970   22.1980   37.0130 C   0  0  0  0  0  0  0  0  0  0  0  0
   39.5170   23.3330   36.7280 C   0  0  0  0  0  0  0  0  0  0  0  0
   39.9420   24.1500   35.6590 C   0  0  0  0  0  0  0  0  0  0  0  0
   41.0690   23.7900   34.9820 N   0  0  0  0  0  0  0  0  0  0  0  0
   41.7960   22.6970   35.2790 C   0  0  0  0  0  0  0  0  0  0  0  0
   41.4010   21.9000   36.3030 N   0  0  0  0  0  0  0  0  0  0  0  0
   39.2550   25.3160   35.2720 N   0  0  0  0  0  0  0  0  0  0  0  0
   39.7160   26.7050   35.2170 C   0  0  0  0  0  0  0  0  0  0  0  0
   38.4800   27.3800   35.8090 C   0  0  0  0  0  0  0  0  0  0  0  0
   37.4300   26.7830   34.8720 C   0  0  0  0  0  0  0  0  0  0  0  0
   37.8790   25.3230   34.8350 C   0  0  1  0  0  0  0  0  0  0  0  0
   37.6990   24.7490   33.5930 O   0  0  0  0  0  0  0  0  0  0  0  0
   39.9967   21.5359   37.8385 H   0  0  0  0  0  0  0  0  0  0  0  0
   38.6163   23.5730   37.3121 H   0  0  0  0  0  0  0  0  0  0  0  0
   42.6984   22.4533   34.6991 H   0  0  0  0  0  0  0  0  0  0  0  0
   40.6123   26.8685   35.8334 H   0  0  0  0  0  0  0  0  0  0  0  0
   40.0270   27.0652   34.2253 H   0  0  0  0  0  0  0  0  0  0  0  0
   38.3121   27.0926   36.8574 H   0  0  0  0  0  0  0  0  0  0  0  0
   38.5105   28.4785   35.8566 H   0  0  0  0  0  0  0  0  0  0  0  0
   36.4150   26.8844   35.2838 H   0  0  0  0  0  0  0  0  0  0  0  0
   37.3706   27.2671   33.8860 H   0  0  0  0  0  0  0  0  0  0  0  0
   37.2638   24.7009   35.5017 H   0  0  0  0  0  0  0  0  0  0  0  0
   37.4046   23.8102   33.7029 H   0  0  0  0  0  0  0  0  0  0  0  0
  2  1  2  0
  3  2  1  0
  4  5  1  0
  4  3  2  0
  5  6  2  0
  6  1  1  0
  7  3  1  0
  8  7  1  0
  8  9  1  0
 10  9  1  0
 11 10  1  0
 11  7  1  0
 12 11  1  0
  1 13  1  0
  2 14  1  0
  5 15  1  0
  8 16  1  0
  8 17  1  0
  9 18  1  0
  9 19  1  0
 10 20  1  0
 10 21  1  0
 11 22  1  1
 12 23  1  0
M  ISO  8  13  14  14  14  15  14  16  13  17  13  18  13  19  13  20  13
M  ISO  3  21  13  22  13  23   3
M  END
>  <minimizedAffinity>  (1) 
-3.55157661

>  <minimizedRMSD>  (1) 
0.135622457

$$$$
