
     RDKit          3D

 23 24  0  0  1  0  0  0  0  0999 V2000
   39.6010   22.6000   37.3570 C   0  0  0  0  0  0  0  0  0  0  0  0
   38.8900   23.6960   36.8410 C   0  0  0  0  0  0  0  0  0  0  0  0
   39.5160   24.4840   35.8790 C   0  0  0  0  0  0  0  0  0  0  0  0
   40.7840   24.1510   35.4910 N   0  0  0  0  0  0  0  0  0  0  0  0
   41.4490   23.0910   36.0030 C   0  0  0  0  0  0  0  0  0  0  0  0
   40.8610   22.3140   36.9360 N   0  0  0  0  0  0  0  0  0  0  0  0
   38.8970   25.6040   35.2940 N   0  0  0  0  0  0  0  0  0  0  0  0
   39.3020   27.0130   35.2730 C   0  0  0  0  0  0  0  0  0  0  0  0
   37.9270   27.6340   35.4810 C   0  0  0  0  0  0  0  0  0  0  0  0
   37.1780   26.9490   34.3340 C   0  0  0  0  0  0  0  0  0  0  0  0
   37.6470   25.5180   34.5550 C   0  0  1  0  0  0  0  0  0  0  0  0
   37.7630   24.5550   33.0500 S   0  0  0  0  0  0  0  0  0  0  0  0
   39.1284   21.9604   38.1170 H   0  0  0  0  0  0  0  0  0  0  0  0
   37.8708   23.9245   37.1861 H   0  0  0  0  0  0  0  0  0  0  0  0
   42.4685   22.8624   35.6591 H   0  0  0  0  0  0  0  0  0  0  0  0
   39.9975   27.2585   36.0891 H   0  0  0  0  0  0  0  0  0  0  0  0
   39.8499   27.3437   34.3784 H   0  0  0  0  0  0  0  0  0  0  0  0
   37.5025   27.3766   36.4626 H   0  0  0  0  0  0  0  0  0  0  0  0
   37.8989   28.7336   35.4740 H   0  0  0  0  0  0  0  0  0  0  0  0
   37.4870   27.3361   33.3518 H   0  0  0  0  0  0  0  0  0  0  0  0
   36.0873   27.0917   34.3328 H   0  0  0  0  0  0  0  0  0  0  0  0
   36.8990   24.9576   35.1351 H   0  0  0  0  0  0  0  0  0  0  0  0
   37.9224   23.2315   33.3659 H   0  0  0  0  0  0  0  0  0  0  0  0
  2  1  2  0
  3  2  1  0
  4  3  2  0
  4  5  1  0
  5  6  2  0
  6  1  1  0
  7  3  1  0
  8  7  1  0
  8  9  1  0
 10 11  1  0
 10  9  1  0
 11  7  1  0
 12 11  1  0
  1 13  1  0
  2 14  1  0
  5 15  1  0
  8 16  1  0
  8 17  1  0
  9 18  1  0
  9 19  1  0
 10 20  1  0
 10 21  1  0
 11 22  1  1
 12 23  1  0
M  ISO  8  13  14  14  14  15  14  16  13  17  13  18  13  19  13  20  13
M  ISO  3  21  13  22  13  23  11
M  END
>  <minimizedAffinity>  (1) 
-3.59529018

>  <minimizedRMSD>  (1) 
0.739486694

$$$$
