
     RDKit          3D

 46 49  0  0  1  0  0  0  0  0999 V2000
   38.2480   26.0070   33.6730 C   0  0  2  0  0  0  0  0  0  0  0  0
   37.7180   27.4280   33.4710 C   0  0  0  0  0  0  0  0  0  0  0  0
   37.1090   27.6590   34.8510 C   0  0  0  0  0  0  0  0  0  0  0  0
   38.0920   27.0450   35.7590 C   0  0  0  0  0  0  0  0  0  0  0  0
   39.0230   26.1800   34.9080 C   0  0  1  0  0  0  0  0  0  0  0  0
   37.4220   21.5860   31.2940 C   0  0  0  0  0  0  0  0  0  0  0  0
   38.2180   22.7520   31.3650 C   0  0  0  0  0  0  0  0  0  0  0  0
   37.5450   23.9910   31.2800 C   0  0  0  0  0  0  0  0  0  0  0  0
   36.1740   24.0040   31.1350 N   0  0  0  0  0  0  0  0  0  0  0  0
   35.4670   22.8420   31.0740 C   0  0  0  0  0  0  0  0  0  0  0  0
   36.0780   21.6500   31.1520 N   0  0  0  0  0  0  0  0  0  0  0  0
   38.2350   25.2100   31.3420 N   0  0  0  0  0  0  0  0  0  0  0  0
   38.3070   26.2730   30.3540 C   0  0  0  0  0  0  0  0  0  0  0  0
   39.7950   26.5850   30.4950 C   0  0  0  0  0  0  0  0  0  0  0  0
   39.7520   26.8980   31.9770 C   0  0  0  0  0  0  0  0  0  0  0  0
   39.0310   25.6390   32.4480 C   0  0  1  0  0  0  0  0  0  0  0  0
   39.4180   25.0250   35.6740 N   0  0  0  0  0  0  0  0  0  0  0  0
   38.6100   24.3510   36.5450 C   0  0  0  0  0  0  0  0  0  0  0  0
   38.9930   23.2230   37.2180 C   0  0  0  0  0  0  0  0  0  0  0  0
   40.2580   22.7030   37.0410 C   0  0  0  0  0  0  0  0  0  0  0  0
   40.6360   21.5350   37.7460 N   0  0  0  0  0  0  0  0  0  0  0  0
   41.0750   23.3690   36.1740 N   0  0  0  0  0  0  0  0  0  0  0  0
   40.6340   24.4890   35.5320 C   0  0  0  0  0  0  0  0  0  0  0  0
   41.5220   24.9420   34.7960 O   0  0  0  0  0  0  0  0  0  0  0  0
   37.5259   25.1846   33.7836 H   0  0  0  0  0  0  0  0  0  0  0  0
   38.5261   28.1417   33.2529 H   0  0  0  0  0  0  0  0  0  0  0  0
   37.0286   27.5580   32.6238 H   0  0  0  0  0  0  0  0  0  0  0  0
   36.9977   28.7335   35.0583 H   0  0  0  0  0  0  0  0  0  0  0  0
   36.1004   27.2324   34.9546 H   0  0  0  0  0  0  0  0  0  0  0  0
   38.6703   27.8277   36.2718 H   0  0  0  0  0  0  0  0  0  0  0  0
   37.5872   26.4362   36.5235 H   0  0  0  0  0  0  0  0  0  0  0  0
   40.0068   26.5835   34.6265 H   0  0  0  0  0  0  0  0  0  0  0  0
   37.9079   20.6011   31.3558 H   0  0  0  0  0  0  0  0  0  0  0  0
   39.3105   22.6971   31.4810 H   0  0  0  0  0  0  0  0  0  0  0  0
   34.3738   22.8812   30.9585 H   0  0  0  0  0  0  0  0  0  0  0  0
   37.6732   27.1324   30.6182 H   0  0  0  0  0  0  0  0  0  0  0  0
   37.9584   26.0191   29.3421 H   0  0  0  0  0  0  0  0  0  0  0  0
   40.4343   25.7208   30.2616 H   0  0  0  0  0  0  0  0  0  0  0  0
   40.2107   27.3572   29.8311 H   0  0  0  0  0  0  0  0  0  0  0  0
   40.7584   26.9875   32.4119 H   0  0  0  0  0  0  0  0  0  0  0  0
   39.2794   27.8525   32.2520 H   0  0  0  0  0  0  0  0  0  0  0  0
   39.6877   24.8049   32.7361 H   0  0  0  0  0  0  0  0  0  0  0  0
   37.5940   24.7369   36.7149 H   0  0  0  0  0  0  0  0  0  0  0  0
   38.2888   22.7287   37.9033 H   0  0  0  0  0  0  0  0  0  0  0  0
   41.5787   21.1398   37.6199 H   0  0  0  0  0  0  0  0  0  0  0  0
   39.9683   21.0804   38.3851 H   0  0  0  0  0  0  0  0  0  0  0  0
  1  5  1  0
  2  1  1  0
  2  3  1  0
  3  4  1  0
  5 17  1  0
  5  4  1  0
  6  7  2  0
  8 12  1  0
  8  7  1  0
  9  8  2  0
 10  9  1  0
 10 11  2  0
 11  6  1  0
 12 16  1  0
 13 14  1  0
 13 12  1  0
 14 15  1  0
 15 16  1  0
 16  1  1  0
 17 18  1  0
 18 19  2  0
 20 19  1  0
 20 21  1  0
 22 20  2  0
 23 17  1  0
 23 22  1  0
 24 23  2  0
  1 25  1  1
  2 26  1  0
  2 27  1  0
  3 28  1  0
  3 29  1  0
  4 30  1  0
  4 31  1  0
  5 32  1  6
  6 33  1  0
  7 34  1  0
 10 35  1  0
 13 36  1  0
 13 37  1  0
 14 38  1  0
 14 39  1  0
 15 40  1  0
 15 41  1  0
 16 42  1  1
 18 43  1  0
 19 44  1  0
 21 45  1  0
 21 46  1  0
M  ISO  8  25  13  26  13  27  13  28  13  29  13  30  13  31  13  32  13
M  ISO  8  33  14  34  14  35  14  36  13  37  13  38  13  39  13  40  13
M  ISO  4  41  13  42  13  43  14  44  14
M  END
>  <minimizedAffinity>  (1) 
-5.94171

>  <minimizedRMSD>  (1) 
4.66194439

$$$$
