
     RDKit          3D

 46 50  0  0  1  0  0  0  0  0999 V2000
   37.9330   25.3790   32.9100 C   0  0  2  0  0  0  0  0  0  0  0  0
   37.3500   26.5810   32.1720 C   0  0  0  0  0  0  0  0  0  0  0  0
   37.4360   26.0470   30.7440 C   0  0  0  0  0  0  0  0  0  0  0  0
   37.0040   24.6470   30.8930 C   0  0  0  0  0  0  0  0  0  0  0  0
   37.0700   24.3040   32.3850 C   0  0  1  0  0  0  0  0  0  0  0  0
   39.8450   22.1500   36.3540 C   0  0  0  0  0  0  0  0  0  0  0  0
   39.0870   23.3200   36.1270 C   0  0  0  0  0  0  0  0  0  0  0  0
   39.7060   24.3470   35.3790 C   0  0  0  0  0  0  0  0  0  0  0  0
   40.9910   24.1830   34.9080 N   0  0  0  0  0  0  0  0  0  0  0  0
   41.6530   23.0180   35.1750 C   0  0  0  0  0  0  0  0  0  0  0  0
   41.1040   22.0260   35.8760 N   0  0  0  0  0  0  0  0  0  0  0  0
   39.0330   25.5450   35.1030 N   0  0  0  0  0  0  0  0  0  0  0  0
   39.4040   26.9170   35.4690 C   0  0  0  0  0  0  0  0  0  0  0  0
   38.0090   27.4050   35.8640 C   0  0  0  0  0  0  0  0  0  0  0  0
   37.3430   27.0980   34.5380 C   0  0  0  0  0  0  0  0  0  0  0  0
   37.8080   25.6480   34.3850 C   0  0  1  0  0  0  0  0  0  0  0  0
   37.5470   22.9420   32.5140 N   0  0  0  0  0  0  0  0  0  0  0  0
   38.6850   22.2760   32.7550 C   0  0  0  0  0  0  0  0  0  0  0  0
   38.4860   20.9690   32.8040 N   0  0  0  0  0  0  0  0  0  0  0  0
   37.1630   20.7640   32.5870 C   0  0  0  0  0  0  0  0  0  0  0  0
   36.5100   19.5490   32.5510 C   0  0  0  0  0  0  0  0  0  0  0  0
   35.1840   19.5420   32.3190 N   0  0  0  0  0  0  0  0  0  0  0  0
   34.5910   20.7320   32.1370 C   0  0  0  0  0  0  0  0  0  0  0  0
   35.2270   21.9060   32.1740 N   0  0  0  0  0  0  0  0  0  0  0  0
   36.5670   22.0080   32.4020 C   0  0  0  0  0  0  0  0  0  0  0  0
   38.9968   25.1383   32.7672 H   0  0  0  0  0  0  0  0  0  0  0  0
   36.3125   26.7871   32.4738 H   0  0  0  0  0  0  0  0  0  0  0  0
   37.8594   27.5394   32.3509 H   0  0  0  0  0  0  0  0  0  0  0  0
   38.4653   26.1054   30.3604 H   0  0  0  0  0  0  0  0  0  0  0  0
   36.8259   26.6173   30.0281 H   0  0  0  0  0  0  0  0  0  0  0  0
   35.9738   24.5302   30.5255 H   0  0  0  0  0  0  0  0  0  0  0  0
   37.6528   23.9760   30.3109 H   0  0  0  0  0  0  0  0  0  0  0  0
   36.1297   24.2905   32.9557 H   0  0  0  0  0  0  0  0  0  0  0  0
   39.4029   21.3240   36.9305 H   0  0  0  0  0  0  0  0  0  0  0  0
   38.0630   23.4268   36.5142 H   0  0  0  0  0  0  0  0  0  0  0  0
   42.6785   22.8939   34.7969 H   0  0  0  0  0  0  0  0  0  0  0  0
   40.1121   26.9487   36.3102 H   0  0  0  0  0  0  0  0  0  0  0  0
   39.9240   27.5030   34.6969 H   0  0  0  0  0  0  0  0  0  0  0  0
   37.5791   26.8297   36.6972 H   0  0  0  0  0  0  0  0  0  0  0  0
   37.9284   28.4373   36.2354 H   0  0  0  0  0  0  0  0  0  0  0  0
   36.2475   27.1787   34.5953 H   0  0  0  0  0  0  0  0  0  0  0  0
   37.5967   27.7726   33.7070 H   0  0  0  0  0  0  0  0  0  0  0  0
   37.1165   24.8953   34.7915 H   0  0  0  0  0  0  0  0  0  0  0  0
   39.6642   22.7572   32.8949 H   0  0  0  0  0  0  0  0  0  0  0  0
   37.0595   18.6091   32.7080 H   0  0  0  0  0  0  0  0  0  0  0  0
   33.5080   20.7412   31.9443 H   0  0  0  0  0  0  0  0  0  0  0  0
  1 16  1  0
  2  1  1  0
  3  4  1  0
  3  2  1  0
  4  5  1  0
  5 17  1  0
  5  1  1  0
  7  6  2  0
  8  7  1  0
  9 10  1  0
  9  8  2  0
 10 11  2  0
 11  6  1  0
 12  8  1  0
 12 13  1  0
 13 14  1  0
 15 14  1  0
 16 15  1  0
 16 12  1  0
 17 18  1  0
 18 19  2  0
 20 19  1  0
 21 20  2  0
 22 21  1  0
 23 24  1  0
 23 22  2  0
 24 25  2  0
 25 17  1  0
 25 20  1  0
  1 26  1  6
  2 27  1  0
  2 28  1  0
  3 29  1  0
  3 30  1  0
  4 31  1  0
  4 32  1  0
  5 33  1  1
  6 34  1  0
  7 35  1  0
 10 36  1  0
 13 37  1  0
 13 38  1  0
 14 39  1  0
 14 40  1  0
 15 41  1  0
 15 42  1  0
 16 43  1  1
 18 44  1  0
 21 45  1  0
 23 46  1  0
M  ISO  8  26  13  27  13  28  13  29  13  30  13  31  13  32  13  33  13
M  ISO  8  34  14  35  14  36  14  37  13  38  13  39  13  40  13  41  13
M  ISO  5  42  13  43  13  44  14  45  14  46  14
M  END
>  <minimizedAffinity>  (1) 
-5.60514212

>  <minimizedRMSD>  (1) 
1.72884262

$$$$
