
     RDKit          3D

 48 51  0  0  1  0  0  0  0  0999 V2000
   38.3820   26.2700   32.9220 C   0  0  2  0  0  0  0  0  0  0  0  0
   39.2510   25.7530   31.7740 C   0  0  0  0  0  0  0  0  0  0  0  0
   38.2560   25.8330   30.6350 C   0  0  0  0  0  0  0  0  0  0  0  0
   37.5030   27.0610   30.9050 C   0  0  0  0  0  0  0  0  0  0  0  0
   37.8730   27.5170   32.3240 C   0  0  1  0  0  0  0  0  0  0  0  0
   37.4090   23.8980   37.3170 C   0  0  0  0  0  0  0  0  0  0  0  0
   38.2240   24.8380   36.6440 C   0  0  0  0  0  0  0  0  0  0  0  0
   38.8680   24.3840   35.4700 C   0  0  0  0  0  0  0  0  0  0  0  0
   38.6790   23.0860   35.0480 N   0  0  0  0  0  0  0  0  0  0  0  0
   37.8770   22.2420   35.7540 C   0  0  0  0  0  0  0  0  0  0  0  0
   37.2510   22.6330   36.8670 N   0  0  0  0  0  0  0  0  0  0  0  0
   39.7010   25.2230   34.7160 N   0  0  0  0  0  0  0  0  0  0  0  0
   41.1190   25.0630   34.3800 C   0  0  0  0  0  0  0  0  0  0  0  0
   41.5330   26.5260   34.6150 C   0  0  0  0  0  0  0  0  0  0  0  0
   40.5580   27.1370   33.6280 C   0  0  0  0  0  0  0  0  0  0  0  0
   39.2840   26.4460   34.1120 C   0  0  1  0  0  0  0  0  0  0  0  0
   34.3630   29.5480   33.7670 C   0  0  0  0  0  0  0  0  0  0  0  0
   34.6050   29.2670   32.4290 C   0  0  0  0  0  0  0  0  0  0  0  0
   35.7460   28.5850   31.9870 C   0  0  0  0  0  0  0  0  0  0  0  0
   36.6910   28.1660   32.9320 C   0  0  0  0  0  0  0  0  0  0  0  0
   36.4660   28.4360   34.2670 C   0  0  0  0  0  0  0  0  0  0  0  0
   35.3390   29.1030   34.6470 C   0  0  0  0  0  0  0  0  0  0  0  0
   32.9310   30.4000   34.2860 S   0  0  0  0  0  0  0  0  0  0  0  0
   32.8310   31.7690   33.6450 O   0  0  0  0  0  0  0  0  0  0  0  0
   33.0280   30.6470   35.7630 O   0  0  0  0  0  0  0  0  0  0  0  0
   37.5562   25.6423   33.2882 H   0  0  0  0  0  0  0  0  0  0  0  0
   40.1240   26.3992   31.5997 H   0  0  0  0  0  0  0  0  0  0  0  0
   39.6900   24.7576   31.9369 H   0  0  0  0  0  0  0  0  0  0  0  0
   37.5896   24.9579   30.6363 H   0  0  0  0  0  0  0  0  0  0  0  0
   38.7428   25.8441   29.6486 H   0  0  0  0  0  0  0  0  0  0  0  0
   37.7757   27.8384   30.1761 H   0  0  0  0  0  0  0  0  0  0  0  0
   36.4208   26.8821   30.8218 H   0  0  0  0  0  0  0  0  0  0  0  0
   38.6409   28.2957   32.4425 H   0  0  0  0  0  0  0  0  0  0  0  0
   36.8874   24.2059   38.2352 H   0  0  0  0  0  0  0  0  0  0  0  0
   38.3499   25.8663   37.0139 H   0  0  0  0  0  0  0  0  0  0  0  0
   37.7410   21.2101   35.3980 H   0  0  0  0  0  0  0  0  0  0  0  0
   41.2714   24.7446   33.3382 H   0  0  0  0  0  0  0  0  0  0  0  0
   41.6749   24.2976   34.9414 H   0  0  0  0  0  0  0  0  0  0  0  0
   41.3523   26.8565   35.6485 H   0  0  0  0  0  0  0  0  0  0  0  0
   42.5970   26.7706   34.4808 H   0  0  0  0  0  0  0  0  0  0  0  0
   40.8022   26.8751   32.5879 H   0  0  0  0  0  0  0  0  0  0  0  0
   40.5265   28.2363   33.6056 H   0  0  0  0  0  0  0  0  0  0  0  0
   38.7105   27.0152   34.8583 H   0  0  0  0  0  0  0  0  0  0  0  0
   33.8671   29.5949   31.6820 H   0  0  0  0  0  0  0  0  0  0  0  0
   35.8971   28.3821   30.9165 H   0  0  0  0  0  0  0  0  0  0  0  0
   37.1958   28.1131   35.0241 H   0  0  0  0  0  0  0  0  0  0  0  0
   35.1945   29.3008   35.7194 H   0  0  0  0  0  0  0  0  0  0  0  0
   31.8497   29.6342   33.9378 H   0  0  0  0  0  0  0  0  0  0  0  0
  1 16  1  0
  2  1  1  0
  3  4  1  0
  3  2  1  0
  4  5  1  0
  5  1  1  0
  5 20  1  0
  7  6  2  0
  8  7  1  0
  9  8  2  0
  9 10  1  0
 10 11  2  0
 11  6  1  0
 12  8  1  0
 13 14  1  0
 13 12  1  0
 15 16  1  0
 15 14  1  0
 16 12  1  0
 17 23  1  0
 17 22  2  0
 18 17  1  0
 19 18  2  0
 19 20  1  0
 20 21  2  0
 21 22  1  0
 23 25  2  0
 24 23  2  0
  1 26  1  1
  2 27  1  0
  2 28  1  0
  3 29  1  0
  3 30  1  0
  4 31  1  0
  4 32  1  0
  5 33  1  6
  6 34  1  0
  7 35  1  0
 10 36  1  0
 13 37  1  0
 13 38  1  0
 14 39  1  0
 14 40  1  0
 15 41  1  0
 15 42  1  0
 16 43  1  1
 18 44  1  0
 19 45  1  0
 21 46  1  0
 22 47  1  0
 23 48  1  0
M  ISO  8  26  13  27  13  28  13  29  13  30  13  31  13  32  13  33  13
M  ISO  8  34  14  35  14  36  14  37  13  38  13  39  13  40  13  41  13
M  ISO  7  42  13  43  13  44  14  45  14  46  14  47  14  48  11
M  END
>  <minimizedAffinity>  (1) 
-5.62543201

>  <minimizedRMSD>  (1) 
7.0993886

$$$$
