
     RDKit          3D

 42 45  0  0  1  0  0  0  0  0999 V2000
   39.8370   22.4190   36.9290 C   0  0  0  0  0  0  0  0  0  0  0  0
   39.1050   23.5420   36.5110 C   0  0  0  0  0  0  0  0  0  0  0  0
   39.7100   24.4680   35.6600 C   0  0  0  0  0  0  0  0  0  0  0  0
   41.0060   24.2410   35.2620 N   0  0  0  0  0  0  0  0  0  0  0  0
   41.6690   23.1320   35.7000 C   0  0  0  0  0  0  0  0  0  0  0  0
   41.1070   22.2350   36.5140 N   0  0  0  0  0  0  0  0  0  0  0  0
   39.0470   25.6090   35.2010 N   0  0  0  0  0  0  0  0  0  0  0  0
   39.3910   27.0140   35.3840 C   0  0  0  0  0  0  0  0  0  0  0  0
   37.9780   27.5410   35.6470 C   0  0  0  0  0  0  0  0  0  0  0  0
   37.3630   27.0350   34.3560 C   0  0  0  0  0  0  0  0  0  0  0  0
   37.8400   25.5860   34.4200 C   0  0  1  0  0  0  0  0  0  0  0  0
   38.0260   25.1300   33.0020 C   0  0  2  0  0  0  0  0  0  0  0  0
   38.6670   26.2470   32.2110 C   0  0  0  0  0  0  0  0  0  0  0  0
   38.5670   25.6630   30.8020 C   0  0  0  0  0  0  0  0  0  0  0  0
   37.1660   25.1550   30.8110 C   0  0  0  0  0  0  0  0  0  0  0  0
   36.7980   24.8530   32.2290 C   0  0  1  0  0  0  0  0  0  0  0  0
   36.5800   23.3920   32.2430 N   0  0  0  0  0  0  0  0  0  0  0  0
   37.2090   22.4890   32.9770 N   0  0  0  0  0  0  0  0  0  0  0  0
   36.7050   21.2620   32.6670 C   0  0  0  0  0  0  0  0  0  0  0  0
   35.7170   21.4340   31.6910 C   0  0  0  0  0  0  0  0  0  0  0  0
   35.6710   22.7920   31.4530 C   0  0  0  0  0  0  0  0  0  0  0  0
   39.3707   21.6831   37.6006 H   0  0  0  0  0  0  0  0  0  0  0  0
   38.0689   23.6898   36.8496 H   0  0  0  0  0  0  0  0  0  0  0  0
   42.7059   22.9706   35.3701 H   0  0  0  0  0  0  0  0  0  0  0  0
   40.0617   27.1714   36.2416 H   0  0  0  0  0  0  0  0  0  0  0  0
   39.9401   27.4902   34.5583 H   0  0  0  0  0  0  0  0  0  0  0  0
   37.5181   27.0912   36.5393 H   0  0  0  0  0  0  0  0  0  0  0  0
   37.8795   28.6164   35.8565 H   0  0  0  0  0  0  0  0  0  0  0  0
   37.7594   27.5618   33.4754 H   0  0  0  0  0  0  0  0  0  0  0  0
   36.2756   27.1727   34.2627 H   0  0  0  0  0  0  0  0  0  0  0  0
   37.1437   24.8787   34.8943 H   0  0  0  0  0  0  0  0  0  0  0  0
   38.6033   24.2002   33.1129 H   0  0  0  0  0  0  0  0  0  0  0  0
   38.1051   27.1881   32.3040 H   0  0  0  0  0  0  0  0  0  0  0  0
   39.6844   26.5171   32.5302 H   0  0  0  0  0  0  0  0  0  0  0  0
   39.2918   24.8500   30.6481 H   0  0  0  0  0  0  0  0  0  0  0  0
   38.7879   26.3775   29.9954 H   0  0  0  0  0  0  0  0  0  0  0  0
   36.4882   25.9194   30.4032 H   0  0  0  0  0  0  0  0  0  0  0  0
   37.0815   24.2502   30.1912 H   0  0  0  0  0  0  0  0  0  0  0  0
   35.9325   25.4112   32.6156 H   0  0  0  0  0  0  0  0  0  0  0  0
   37.0195   20.3040   33.1067 H   0  0  0  0  0  0  0  0  0  0  0  0
   35.1068   20.6524   31.2148 H   0  0  0  0  0  0  0  0  0  0  0  0
   35.0047   23.2981   30.7390 H   0  0  0  0  0  0  0  0  0  0  0  0
  2  1  2  0
  3  2  1  0
  4  3  2  0
  4  5  1  0
  5  6  2  0
  6  1  1  0
  7  8  1  0
  7  3  1  0
  8  9  1  0
 10 11  1  0
 10  9  1  0
 11  7  1  0
 12 11  1  0
 13 12  1  0
 14 15  1  0
 14 13  1  0
 15 16  1  0
 16 17  1  0
 16 12  1  0
 17 18  1  0
 19 18  2  0
 20 19  1  0
 21 20  2  0
 21 17  1  0
  1 22  1  0
  2 23  1  0
  5 24  1  0
  8 25  1  0
  8 26  1  0
  9 27  1  0
  9 28  1  0
 10 29  1  0
 10 30  1  0
 11 31  1  1
 12 32  1  1
 13 33  1  0
 13 34  1  0
 14 35  1  0
 14 36  1  0
 15 37  1  0
 15 38  1  0
 16 39  1  1
 19 40  1  0
 20 41  1  0
 21 42  1  0
M  ISO  8  22  14  23  14  24  14  25  13  26  13  27  13  28  13  29  13
M  ISO  8  30  13  31  13  32  13  33  13  34  13  35  13  36  13  37  13
M  ISO  5  38  13  39  13  40  14  41  14  42  14
M  END
>  <minimizedAffinity>  (1) 
-5.2159133

>  <minimizedRMSD>  (1) 
2.06173706

$$$$
