
     RDKit          3D

 40 43  0  0  1  0  0  0  0  0999 V2000
   38.7530   22.2600   36.0200 C   0  0  0  0  0  0  0  0  0  0  0  0
   38.2610   23.5040   35.6190 C   0  0  0  0  0  0  0  0  0  0  0  0
   39.1790   24.5470   35.3960 C   0  0  0  0  0  0  0  0  0  0  0  0
   40.5110   24.2970   35.5820 N   0  0  0  0  0  0  0  0  0  0  0  0
   40.9280   23.0620   35.9740 C   0  0  0  0  0  0  0  0  0  0  0  0
   40.0630   22.0470   36.1950 N   0  0  0  0  0  0  0  0  0  0  0  0
   38.7500   25.8210   34.9910 N   0  0  0  0  0  0  0  0  0  0  0  0
   38.9500   27.1050   35.6720 C   0  0  0  0  0  0  0  0  0  0  0  0
   37.5560   27.6840   35.4200 C   0  0  0  0  0  0  0  0  0  0  0  0
   37.5850   27.5610   33.9010 C   0  0  0  0  0  0  0  0  0  0  0  0
   38.0150   26.0920   33.7980 C   0  0  1  0  0  0  0  0  0  0  0  0
   38.8190   25.9790   32.5420 C   0  0  2  0  0  0  0  0  0  0  0  0
   38.7690   27.2620   31.7660 C   0  0  0  0  0  0  0  0  0  0  0  0
   39.4090   26.8450   30.4580 C   0  0  0  0  0  0  0  0  0  0  0  0
   38.9510   25.4630   30.2480 C   0  0  0  0  0  0  0  0  0  0  0  0
   38.3360   24.9890   31.5560 C   0  0  2  0  0  0  0  0  0  0  0  0
   36.8840   24.9130   31.3830 C   0  0  0  0  0  0  0  0  0  0  0  0
   36.1790   23.8120   31.7770 N   0  0  0  0  0  0  0  0  0  0  0  0
   34.9220   24.0620   31.4840 O   0  0  0  0  0  0  0  0  0  0  0  0
   34.8130   25.2600   30.9310 C   0  0  0  0  0  0  0  0  0  0  0  0
   36.0480   25.8250   30.8530 N   0  0  0  0  0  0  0  0  0  0  0  0
   38.0469   21.4351   36.1963 H   0  0  0  0  0  0  0  0  0  0  0  0
   37.1816   23.6647   35.4808 H   0  0  0  0  0  0  0  0  0  0  0  0
   42.0042   22.8841   36.1156 H   0  0  0  0  0  0  0  0  0  0  0  0
   39.1647   26.9816   36.7438 H   0  0  0  0  0  0  0  0  0  0  0  0
   39.7998   27.7125   35.3274 H   0  0  0  0  0  0  0  0  0  0  0  0
   36.7588   27.0796   35.8773 H   0  0  0  0  0  0  0  0  0  0  0  0
   37.3527   28.6833   35.8323 H   0  0  0  0  0  0  0  0  0  0  0  0
   36.5959   27.7354   33.4524 H   0  0  0  0  0  0  0  0  0  0  0  0
   38.2269   28.2838   33.3761 H   0  0  0  0  0  0  0  0  0  0  0  0
   37.1973   25.3592   33.7311 H   0  0  0  0  0  0  0  0  0  0  0  0
   39.8101   25.6907   32.9222 H   0  0  0  0  0  0  0  0  0  0  0  0
   37.7335   27.6020   31.6169 H   0  0  0  0  0  0  0  0  0  0  0  0
   39.2686   28.1073   32.2618 H   0  0  0  0  0  0  0  0  0  0  0  0
   39.0735   27.4949   29.6364 H   0  0  0  0  0  0  0  0  0  0  0  0
   40.5059   26.9225   30.4856 H   0  0  0  0  0  0  0  0  0  0  0  0
   38.1993   25.4330   29.4455 H   0  0  0  0  0  0  0  0  0  0  0  0
   39.7892   24.8145   29.9531 H   0  0  0  0  0  0  0  0  0  0  0  0
   38.6187   23.9809   31.8934 H   0  0  0  0  0  0  0  0  0  0  0  0
   33.8755   25.7235   30.5898 H   0  0  0  0  0  0  0  0  0  0  0  0
  1  6  2  0
  2  1  1  0
  3  4  1  0
  3  2  2  0
  4  5  2  0
  5  6  1  0
  7  3  1  0
  7  8  1  0
  9  8  1  0
 10  9  1  0
 11 10  1  0
 11  7  1  0
 12 11  1  0
 13 12  1  0
 14 13  1  0
 15 14  1  0
 15 16  1  0
 16 12  1  0
 17 16  1  0
 17 18  2  0
 19 18  1  0
 20 19  1  0
 21 20  2  0
 21 17  1  0
  1 22  1  0
  2 23  1  0
  5 24  1  0
  8 25  1  0
  8 26  1  0
  9 27  1  0
  9 28  1  0
 10 29  1  0
 10 30  1  0
 11 31  1  6
 12 32  1  1
 13 33  1  0
 13 34  1  0
 14 35  1  0
 14 36  1  0
 15 37  1  0
 15 38  1  0
 16 39  1  1
 20 40  1  0
M  ISO  8  22  14  23  14  24  14  25  13  26  13  27  13  28  13  29  13
M  ISO  8  30  13  31  13  32  13  33  13  34  13  35  13  36  13  37  13
M  ISO  3  38  13  39  13  40  14
M  END
>  <minimizedAffinity>  (1) 
-5.12868786

>  <minimizedRMSD>  (1) 
2.50809288

$$$$
