
     RDKit          3D

 44 46  0  0  1  0  0  0  0  0999 V2000
   39.7330   22.2230   36.4770 C   0  0  0  0  0  0  0  0  0  0  0  0
   39.0370   23.3650   36.0610 C   0  0  0  0  0  0  0  0  0  0  0  0
   39.7640   24.4240   35.4760 C   0  0  0  0  0  0  0  0  0  0  0  0
   41.1280   24.2880   35.3380 N   0  0  0  0  0  0  0  0  0  0  0  0
   41.7380   23.1410   35.7690 C   0  0  0  0  0  0  0  0  0  0  0  0
   41.0570   22.1310   36.3250 N   0  0  0  0  0  0  0  0  0  0  0  0
   39.1310   25.5990   35.0340 N   0  0  0  0  0  0  0  0  0  0  0  0
   39.3420   26.9680   35.4630 C   0  0  0  0  0  0  0  0  0  0  0  0
   37.8780   27.4030   35.5050 C   0  0  0  0  0  0  0  0  0  0  0  0
   37.5410   27.0530   34.0610 C   0  0  0  0  0  0  0  0  0  0  0  0
   38.1160   25.6440   34.0330 C   0  0  1  0  0  0  0  0  0  0  0  0
   38.5720   25.3850   32.6400 C   0  0  2  0  0  0  0  0  0  0  0  0
   38.2030   26.5000   31.7190 C   0  0  0  0  0  0  0  0  0  0  0  0
   38.5320   25.9350   30.3790 C   0  0  0  0  0  0  0  0  0  0  0  0
   38.2550   24.4800   30.4870 C   0  0  0  0  0  0  0  0  0  0  0  0
   38.0680   24.1850   31.9600 C   0  0  2  0  0  0  0  0  0  0  0  0
   36.6740   23.7510   32.2220 C   0  0  0  0  0  0  0  0  0  0  0  0
   36.7550   22.2850   32.6380 C   0  0  0  0  0  0  0  0  0  0  0  0
   35.7880   23.7810   31.0020 C   0  0  0  0  0  0  0  0  0  0  0  0
   39.1811   21.3893   36.9358 H   0  0  0  0  0  0  0  0  0  0  0  0
   37.9466   23.4351   36.1875 H   0  0  0  0  0  0  0  0  0  0  0  0
   42.8278   23.0454   35.6544 H   0  0  0  0  0  0  0  0  0  0  0  0
   39.8229   27.0262   36.4506 H   0  0  0  0  0  0  0  0  0  0  0  0
   40.0090   27.5749   34.8331 H   0  0  0  0  0  0  0  0  0  0  0  0
   37.2866   26.8222   36.2281 H   0  0  0  0  0  0  0  0  0  0  0  0
   37.6800   28.4380   35.8206 H   0  0  0  0  0  0  0  0  0  0  0  0
   36.4571   27.0625   33.8739 H   0  0  0  0  0  0  0  0  0  0  0  0
   37.9293   27.7437   33.2980 H   0  0  0  0  0  0  0  0  0  0  0  0
   37.4028   24.8417   34.2732 H   0  0  0  0  0  0  0  0  0  0  0  0
   39.6510   25.2600   32.8136 H   0  0  0  0  0  0  0  0  0  0  0  0
   37.1327   26.7417   31.7965 H   0  0  0  0  0  0  0  0  0  0  0  0
   38.7278   27.4415   31.9384 H   0  0  0  0  0  0  0  0  0  0  0  0
   39.5910   26.1085   30.1374 H   0  0  0  0  0  0  0  0  0  0  0  0
   37.9413   26.4062   29.5796 H   0  0  0  0  0  0  0  0  0  0  0  0
   37.3416   24.2249   29.9296 H   0  0  0  0  0  0  0  0  0  0  0  0
   39.0789   23.8863   30.0644 H   0  0  0  0  0  0  0  0  0  0  0  0
   38.6316   23.3279   32.3571 H   0  0  0  0  0  0  0  0  0  0  0  0
   36.2475   24.4330   32.9723 H   0  0  0  0  0  0  0  0  0  0  0  0
   36.7589   22.2150   33.7358 H   0  0  0  0  0  0  0  0  0  0  0  0
   35.8855   21.7421   32.2390 H   0  0  0  0  0  0  0  0  0  0  0  0
   37.6790   21.8412   32.2390 H   0  0  0  0  0  0  0  0  0  0  0  0
   34.7341   23.8167   31.3150 H   0  0  0  0  0  0  0  0  0  0  0  0
   36.0222   24.6717   30.4006 H   0  0  0  0  0  0  0  0  0  0  0  0
   35.9614   22.8765   30.4006 H   0  0  0  0  0  0  0  0  0  0  0  0
  2  1  2  0
  3  2  1  0
  4  3  2  0
  4  5  1  0
  5  6  2  0
  6  1  1  0
  7  8  1  0
  7  3  1  0
  8  9  1  0
 10  9  1  0
 11 10  1  0
 11  7  1  0
 12 11  1  0
 13 12  1  0
 14 15  1  0
 14 13  1  0
 15 16  1  0
 16 17  1  0
 16 12  1  0
 17 18  1  0
 19 17  1  0
  1 20  1  0
  2 21  1  0
  5 22  1  0
  8 23  1  0
  8 24  1  0
  9 25  1  0
  9 26  1  0
 10 27  1  0
 10 28  1  0
 11 29  1  1
 12 30  1  1
 13 31  1  0
 13 32  1  0
 14 33  1  0
 14 34  1  0
 15 35  1  0
 15 36  1  0
 16 37  1  1
 17 38  1  0
 18 39  1  0
 18 40  1  0
 18 41  1  0
 19 42  1  0
 19 43  1  0
 19 44  1  0
M  ISO  8  20  14  21  14  22  14  23  13  24  13  25  13  26  13  27  13
M  ISO  8  28  13  29  13  30  13  31  13  32  13  33  13  34  13  35  13
M  ISO  8  36  13  37  13  38   8  39   8  40   8  41   8  42   8  43   8
M  ISO  1  44   8
M  END
>  <minimizedAffinity>  (1) 
-4.52949953

>  <minimizedRMSD>  (1) 
1.50145233

$$$$
