
     RDKit          3D

 40 42  0  0  1  0  0  0  0  0999 V2000
   39.6460   22.7830   37.0440 C   0  0  0  0  0  0  0  0  0  0  0  0
   38.9450   23.2770   38.1680 C   0  0  0  0  0  0  0  0  0  0  0  0
   37.9560   24.2260   37.9330 C   0  0  0  0  0  0  0  0  0  0  0  0
   37.6970   24.6430   36.6510 N   0  0  0  0  0  0  0  0  0  0  0  0
   38.4070   24.1300   35.6100 C   0  0  0  0  0  0  0  0  0  0  0  0
   39.3630   23.2160   35.8130 N   0  0  0  0  0  0  0  0  0  0  0  0
   38.1030   24.5910   34.2900 N   0  0  0  0  0  0  0  0  0  0  0  0
   38.0300   23.5710   33.2810 C   0  0  0  0  0  0  0  0  0  0  0  0
   37.0170   23.8710   32.2000 C   0  0  0  0  0  0  0  0  0  0  0  0
   37.0410   25.3290   31.8040 C   0  0  0  0  0  0  0  0  0  0  0  0
   36.7760   26.1550   33.0420 C   0  0  0  0  0  0  0  0  0  0  0  0
   37.8930   25.9860   34.0410 C   0  0  2  0  0  0  0  0  0  0  0  0
   39.0300   26.6810   33.5460 N   0  0  0  0  0  0  0  0  0  0  0  0
   39.8910   27.0670   34.6180 C   0  0  0  0  0  0  0  0  0  0  0  0
   41.3450   26.8840   34.3380 C   0  0  0  0  0  0  0  0  0  0  0  0
   41.7850   27.2480   32.9590 C   0  0  0  0  0  0  0  0  0  0  0  0
   40.6880   27.1660   31.9400 C   0  0  0  0  0  0  0  0  0  0  0  0
   39.6970   26.1050   32.4260 C   0  0  0  0  0  0  0  0  0  0  0  0
   40.4361   22.0309   37.1857 H   0  0  0  0  0  0  0  0  0  0  0  0
   39.1722   22.9256   39.1853 H   0  0  0  0  0  0  0  0  0  0  0  0
   37.3817   24.6422   38.7738 H   0  0  0  0  0  0  0  0  0  0  0  0
   39.0206   23.4710   32.8132 H   0  0  0  0  0  0  0  0  0  0  0  0
   37.7109   22.6431   33.7781 H   0  0  0  0  0  0  0  0  0  0  0  0
   37.2458   23.2573   31.3162 H   0  0  0  0  0  0  0  0  0  0  0  0
   36.0162   23.6376   32.5922 H   0  0  0  0  0  0  0  0  0  0  0  0
   38.0261   25.5863   31.3876 H   0  0  0  0  0  0  0  0  0  0  0  0
   36.2752   25.5297   31.0402 H   0  0  0  0  0  0  0  0  0  0  0  0
   36.7005   27.2155   32.7599 H   0  0  0  0  0  0  0  0  0  0  0  0
   35.8354   25.8157   33.5005 H   0  0  0  0  0  0  0  0  0  0  0  0
   37.6520   26.4228   35.0214 H   0  0  0  0  0  0  0  0  0  0  0  0
   39.7139   28.1306   34.8354 H   0  0  0  0  0  0  0  0  0  0  0  0
   39.6498   26.4096   35.4663 H   0  0  0  0  0  0  0  0  0  0  0  0
   41.9079   27.5069   35.0487 H   0  0  0  0  0  0  0  0  0  0  0  0
   41.5391   25.8063   34.4421 H   0  0  0  0  0  0  0  0  0  0  0  0
   42.1677   28.2791   32.9764 H   0  0  0  0  0  0  0  0  0  0  0  0
   42.5564   26.5217   32.6632 H   0  0  0  0  0  0  0  0  0  0  0  0
   41.1020   26.8757   30.9631 H   0  0  0  0  0  0  0  0  0  0  0  0
   40.1907   28.1401   31.8224 H   0  0  0  0  0  0  0  0  0  0  0  0
   38.9745   25.8636   31.6325 H   0  0  0  0  0  0  0  0  0  0  0  0
   40.2066   25.1683   32.6960 H   0  0  0  0  0  0  0  0  0  0  0  0
  1  2  2  0
  3  2  1  0
  4  3  2  0
  5  6  2  0
  5  4  1  0
  6  1  1  0
  7  5  1  0
  8  7  1  0
  9  8  1  0
 10  9  1  0
 10 11  1  0
 11 12  1  0
 12  7  1  0
 13 12  1  0
 13 14  1  0
 15 14  1  0
 16 15  1  0
 17 18  1  0
 17 16  1  0
 18 13  1  0
  1 19  1  0
  2 20  1  0
  3 21  1  0
  8 22  1  0
  8 23  1  0
  9 24  1  0
  9 25  1  0
 10 26  1  0
 10 27  1  0
 11 28  1  0
 11 29  1  0
 12 30  1  1
 14 31  1  0
 14 32  1  0
 15 33  1  0
 15 34  1  0
 16 35  1  0
 16 36  1  0
 17 37  1  0
 17 38  1  0
 18 39  1  0
 18 40  1  0
M  ISO  8  19  14  20  14  21  14  22  13  23  13  24  13  25  13  26  13
M  ISO  8  27  13  28  13  29  13  30  13  31  13  32  13  33  13  34  13
M  ISO  6  35  13  36  13  37  13  38  13  39  13  40  13
M  END
>  <minimizedAffinity>  (1) 
-4.80152464

>  <minimizedRMSD>  (1) 
1.81681025

$$$$
