
     RDKit          3D

 32 34  0  0  1  0  0  0  0  0999 V2000
   39.5270   22.0310   36.1660 C   0  0  0  0  0  0  0  0  0  0  0  0
   39.2870   22.9000   37.2440 C   0  0  0  0  0  0  0  0  0  0  0  0
   38.5220   24.0290   36.9950 C   0  0  0  0  0  0  0  0  0  0  0  0
   38.0420   24.2390   35.7320 N   0  0  0  0  0  0  0  0  0  0  0  0
   38.2990   23.3750   34.7270 C   0  0  0  0  0  0  0  0  0  0  0  0
   39.0360   22.2790   34.9470 N   0  0  0  0  0  0  0  0  0  0  0  0
   37.7750   23.6440   33.4330 N   0  0  0  0  0  0  0  0  0  0  0  0
   37.1920   22.5350   32.7310 C   0  0  0  0  0  0  0  0  0  0  0  0
   36.0590   22.9010   31.8230 C   0  0  0  0  0  0  0  0  0  0  0  0
   36.2750   24.2270   31.1220 C   0  0  0  0  0  0  0  0  0  0  0  0
   36.5470   25.2920   32.1620 C   0  0  0  0  0  0  0  0  0  0  0  0
   37.8410   24.9690   32.8810 C   0  0  1  0  0  0  0  0  0  0  0  0
   38.0620   25.9840   33.8730 N   0  0  0  0  0  0  0  0  0  0  0  0
   39.2420   26.4160   34.3470 N   0  0  0  0  0  0  0  0  0  0  0  0
   39.0560   27.3710   35.2620 C   0  0  0  0  0  0  0  0  0  0  0  0
   37.7030   27.5910   35.4080 C   0  0  0  0  0  0  0  0  0  0  0  0
   37.1050   26.7060   34.5250 C   0  0  0  0  0  0  0  0  0  0  0  0
   40.1321   21.1268   36.3284 H   0  0  0  0  0  0  0  0  0  0  0  0
   39.6903   22.6925   38.2461 H   0  0  0  0  0  0  0  0  0  0  0  0
   38.3044   24.7450   37.8012 H   0  0  0  0  0  0  0  0  0  0  0  0
   37.9780   22.0603   32.1254 H   0  0  0  0  0  0  0  0  0  0  0  0
   36.7750   21.8645   33.4968 H   0  0  0  0  0  0  0  0  0  0  0  0
   35.9501   22.1144   31.0618 H   0  0  0  0  0  0  0  0  0  0  0  0
   35.1549   22.9965   32.4423 H   0  0  0  0  0  0  0  0  0  0  0  0
   37.1346   24.1486   30.4401 H   0  0  0  0  0  0  0  0  0  0  0  0
   35.3789   24.4925   30.5419 H   0  0  0  0  0  0  0  0  0  0  0  0
   36.6343   26.2722   31.6704 H   0  0  0  0  0  0  0  0  0  0  0  0
   35.7196   25.3204   32.8862 H   0  0  0  0  0  0  0  0  0  0  0  0
   38.6981   24.9716   32.1915 H   0  0  0  0  0  0  0  0  0  0  0  0
   39.8524   27.8962   35.8097 H   0  0  0  0  0  0  0  0  0  0  0  0
   37.2077   28.3099   36.0772 H   0  0  0  0  0  0  0  0  0  0  0  0
   36.0207   26.6012   34.3724 H   0  0  0  0  0  0  0  0  0  0  0  0
  1  2  2  0
  3  2  1  0
  4  3  2  0
  5  6  2  0
  5  4  1  0
  6  1  1  0
  7  5  1  0
  8  7  1  0
  9  8  1  0
 10  9  1  0
 10 11  1  0
 11 12  1  0
 12  7  1  0
 12 13  1  0
 13 14  1  0
 13 17  1  0
 14 15  2  0
 15 16  1  0
 17 16  2  0
  1 18  1  0
  2 19  1  0
  3 20  1  0
  8 21  1  0
  8 22  1  0
  9 23  1  0
  9 24  1  0
 10 25  1  0
 10 26  1  0
 11 27  1  0
 11 28  1  0
 12 29  1  6
 15 30  1  0
 16 31  1  0
 17 32  1  0
M  ISO  8  18  14  19  14  20  14  21  13  22  13  23  13  24  13  25  13
M  ISO  7  26  13  27  13  28  13  29  13  30  14  31  14  32  14
M  END
>  <minimizedAffinity>  (1) 
-4.70445251

>  <minimizedRMSD>  (1) 
3.00537443

$$$$
