
     RDKit          3D

 39 42  0  0  1  0  0  0  0  0999 V2000
   37.6370   21.8380   33.8720 C   0  0  0  0  0  0  0  0  0  0  0  0
   38.1250   22.1190   35.1630 C   0  0  0  0  0  0  0  0  0  0  0  0
   38.3630   23.4430   35.4920 C   0  0  0  0  0  0  0  0  0  0  0  0
   38.1140   24.4090   34.5500 N   0  0  0  0  0  0  0  0  0  0  0  0
   37.6490   24.1000   33.3280 C   0  0  0  0  0  0  0  0  0  0  0  0
   37.4140   22.8290   32.9970 N   0  0  0  0  0  0  0  0  0  0  0  0
   37.4080   25.1430   32.3890 N   0  0  0  0  0  0  0  0  0  0  0  0
   36.1640   25.0690   31.6590 C   0  0  0  0  0  0  0  0  0  0  0  0
   35.6060   26.4010   31.2640 C   0  0  0  0  0  0  0  0  0  0  0  0
   36.6650   27.4210   30.9160 C   0  0  0  0  0  0  0  0  0  0  0  0
   37.6490   27.5200   32.0560 C   0  0  0  0  0  0  0  0  0  0  0  0
   38.3680   26.1970   32.2020 C   0  0  1  0  0  0  0  0  0  0  0  0
   39.3560   26.2070   33.2270 N   0  0  0  0  0  0  0  0  0  0  0  0
   39.3540   26.9090   34.3760 C   0  0  0  0  0  0  0  0  0  0  0  0
   40.4700   26.6560   35.0990 N   0  0  0  0  0  0  0  0  0  0  0  0
   41.1810   25.7710   34.3720 C   0  0  0  0  0  0  0  0  0  0  0  0
   42.3920   25.1820   34.6410 C   0  0  0  0  0  0  0  0  0  0  0  0
   43.0860   25.3800   35.6760 O   0  0  0  0  0  0  0  0  0  0  0  0
   42.9350   24.3120   33.7680 N   0  0  0  0  0  0  0  0  0  0  0  0
   42.2710   24.0370   32.6400 C   0  0  0  0  0  0  0  0  0  0  0  0
   42.7450   23.1360   31.6450 N   0  0  0  0  0  0  0  0  0  0  0  0
   41.0870   24.6220   32.3900 N   0  0  0  0  0  0  0  0  0  0  0  0
   40.4940   25.4900   33.2080 C   0  0  0  0  0  0  0  0  0  0  0  0
   37.4372   20.7967   33.5792 H   0  0  0  0  0  0  0  0  0  0  0  0
   38.3112   21.3122   35.8871 H   0  0  0  0  0  0  0  0  0  0  0  0
   38.7437   23.7145   36.4877 H   0  0  0  0  0  0  0  0  0  0  0  0
   36.3345   24.4812   30.7450 H   0  0  0  0  0  0  0  0  0  0  0  0
   35.4286   24.6045   32.3324 H   0  0  0  0  0  0  0  0  0  0  0  0
   34.9573   26.2601   30.3869 H   0  0  0  0  0  0  0  0  0  0  0  0
   35.0556   26.7909   32.1330 H   0  0  0  0  0  0  0  0  0  0  0  0
   37.1908   27.1088   30.0017 H   0  0  0  0  0  0  0  0  0  0  0  0
   36.1944   28.4007   30.7466 H   0  0  0  0  0  0  0  0  0  0  0  0
   38.3791   28.3153   31.8450 H   0  0  0  0  0  0  0  0  0  0  0  0
   37.1154   27.7579   32.9880 H   0  0  0  0  0  0  0  0  0  0  0  0
   38.9231   26.0133   31.2703 H   0  0  0  0  0  0  0  0  0  0  0  0
   38.5527   27.5961   34.6857 H   0  0  0  0  0  0  0  0  0  0  0  0
   43.8430   23.8675   33.9650 H   0  0  0  0  0  0  0  0  0  0  0  0
   42.1866   22.9657   30.7964 H   0  0  0  0  0  0  0  0  0  0  0  0
   43.6463   22.6544   31.7737 H   0  0  0  0  0  0  0  0  0  0  0  0
  1  2  2  0
  2  3  1  0
  4  3  2  0
  5  4  1  0
  6  5  2  0
  6  1  1  0
  7  5  1  0
  8  7  1  0
  9  8  1  0
 10  9  1  0
 10 11  1  0
 11 12  1  0
 12  7  1  0
 12 13  1  0
 13 14  1  0
 14 15  2  0
 16 17  1  0
 16 15  1  0
 17 18  2  0
 19 17  1  0
 20 19  1  0
 21 20  1  0
 22 20  2  0
 22 23  1  0
 23 13  1  0
 23 16  2  0
  1 24  1  0
  2 25  1  0
  3 26  1  0
  8 27  1  0
  8 28  1  0
  9 29  1  0
  9 30  1  0
 10 31  1  0
 10 32  1  0
 11 33  1  0
 11 34  1  0
 12 35  1  6
 14 36  1  0
 19 37  1  0
 21 38  1  0
 21 39  1  0
M  ISO  8  24  14  25  14  26  14  27  13  28  13  29  13  30  13  31  13
M  ISO  6  32  13  33  13  34  13  35  13  36  14  37   9
M  END
>  <minimizedAffinity>  (1) 
-4.64580631

>  <minimizedRMSD>  (1) 
4.76706123

$$$$
