
     RDKit          3D

 39 41  0  0  1  0  0  0  0  0999 V2000
   38.6160   23.4290   38.5710 C   0  0  0  0  0  0  0  0  0  0  0  0
   37.5280   23.3910   37.6930 C   0  0  0  0  0  0  0  0  0  0  0  0
   37.7480   22.8570   36.4230 C   0  0  0  0  0  0  0  0  0  0  0  0
   38.9950   22.3970   36.0850 N   0  0  0  0  0  0  0  0  0  0  0  0
   40.0120   22.4630   36.9880 C   0  0  0  0  0  0  0  0  0  0  0  0
   39.8380   22.9720   38.2250 N   0  0  0  0  0  0  0  0  0  0  0  0
   41.3120   21.9860   36.6010 N   0  0  0  0  0  0  0  0  0  0  0  0
   41.9600   21.1250   37.5450 C   0  0  0  0  0  0  0  0  0  0  0  0
   42.8860   20.1380   36.9290 C   0  0  0  0  0  0  0  0  0  0  0  0
   43.5820   20.6510   35.7070 C   0  0  0  0  0  0  0  0  0  0  0  0
   42.5280   21.1400   34.7220 C   0  0  0  0  0  0  0  0  0  0  0  0
   41.8830   22.3880   35.3210 C   0  0  1  0  0  0  0  0  0  0  0  0
   40.9240   23.0280   34.4870 N   0  0  0  0  0  0  0  0  0  0  0  0
   40.2280   24.0620   35.2730 C   0  0  0  0  0  0  0  0  0  0  0  0
   39.0990   24.6680   34.4270 C   0  0  0  0  0  0  0  0  0  0  0  0
   38.0880   23.6440   34.3060 N   0  0  0  0  0  0  0  0  0  0  0  0
   38.6940   22.5490   33.5710 C   0  0  0  0  0  0  0  0  0  0  0  0
   39.9030   21.9990   34.2290 C   0  0  0  0  0  0  0  0  0  0  0  0
   38.4708   23.8458   39.5786 H   0  0  0  0  0  0  0  0  0  0  0  0
   36.5384   23.7671   37.9918 H   0  0  0  0  0  0  0  0  0  0  0  0
   36.9245   22.8051   35.6956 H   0  0  0  0  0  0  0  0  0  0  0  0
   42.5356   21.7495   38.2440 H   0  0  0  0  0  0  0  0  0  0  0  0
   41.1678   20.5483   38.0449 H   0  0  0  0  0  0  0  0  0  0  0  0
   43.6477   19.8638   37.6738 H   0  0  0  0  0  0  0  0  0  0  0  0
   42.2777   19.2765   36.6161 H   0  0  0  0  0  0  0  0  0  0  0  0
   44.2486   21.4822   35.9807 H   0  0  0  0  0  0  0  0  0  0  0  0
   44.1829   19.8506   35.2506 H   0  0  0  0  0  0  0  0  0  0  0  0
   41.7669   20.3607   34.5689 H   0  0  0  0  0  0  0  0  0  0  0  0
   42.9851   21.3698   33.7482 H   0  0  0  0  0  0  0  0  0  0  0  0
   42.6562   23.1611   35.4418 H   0  0  0  0  0  0  0  0  0  0  0  0
   39.8041   23.6096   36.1817 H   0  0  0  0  0  0  0  0  0  0  0  0
   40.9401   24.8509   35.5567 H   0  0  0  0  0  0  0  0  0  0  0  0
   38.6838   25.5560   34.9261 H   0  0  0  0  0  0  0  0  0  0  0  0
   39.4659   24.9859   33.4399 H   0  0  0  0  0  0  0  0  0  0  0  0
   37.7918   23.3248   35.2394 H   0  0  0  0  0  0  0  0  0  0  0  0
   38.9753   22.9127   32.5717 H   0  0  0  0  0  0  0  0  0  0  0  0
   37.9518   21.7385   33.5234 H   0  0  0  0  0  0  0  0  0  0  0  0
   39.6079   21.5472   35.1875 H   0  0  0  0  0  0  0  0  0  0  0  0
   40.3436   21.2552   33.5489 H   0  0  0  0  0  0  0  0  0  0  0  0
  2  1  2  0
  3  2  1  0
  4  3  2  0
  4  5  1  0
  5  6  2  0
  6  1  1  0
  7  5  1  0
  7  8  1  0
  9  8  1  0
 10  9  1  0
 11 12  1  0
 11 10  1  0
 12  7  1  0
 13 14  1  0
 13 12  1  0
 15 14  1  0
 16 15  1  0
 17 18  1  0
 17 16  1  0
 18 13  1  0
  1 19  1  0
  2 20  1  0
  3 21  1  0
  8 22  1  0
  8 23  1  0
  9 24  1  0
  9 25  1  0
 10 26  1  0
 10 27  1  0
 11 28  1  0
 11 29  1  0
 12 30  1  1
 14 31  1  0
 14 32  1  0
 15 33  1  0
 15 34  1  0
 16 35  1  0
 17 36  1  0
 17 37  1  0
 18 38  1  0
 18 39  1  0
M  ISO  8  19  14  20  14  21  14  22  13  23  13  24  13  25  13  26  13
M  ISO  8  27  13  28  13  29  13  30  13  31  13  32  13  33  13  34  13
M  ISO  5  35   5  36  13  37  13  38  13  39  13
M  END
>  <minimizedAffinity>  (1) 
-4.4283762

>  <minimizedRMSD>  (1) 
5.76543188

$$$$
