
     RDKit          3D

 32 34  0  0  1  0  0  0  0  0999 V2000
   39.4800   22.0540   36.2000 C   0  0  0  0  0  0  0  0  0  0  0  0
   39.2690   22.9310   37.2720 C   0  0  0  0  0  0  0  0  0  0  0  0
   38.5460   24.0880   37.0180 C   0  0  0  0  0  0  0  0  0  0  0  0
   38.0870   24.3030   35.7520 N   0  0  0  0  0  0  0  0  0  0  0  0
   38.3080   23.4390   34.7500 C   0  0  0  0  0  0  0  0  0  0  0  0
   39.0010   22.3240   34.9860 N   0  0  0  0  0  0  0  0  0  0  0  0
   37.8010   23.7200   33.4500 N   0  0  0  0  0  0  0  0  0  0  0  0
   37.2010   22.6250   32.7430 C   0  0  0  0  0  0  0  0  0  0  0  0
   36.0710   23.0170   31.8390 C   0  0  0  0  0  0  0  0  0  0  0  0
   36.3320   24.3250   31.1320 C   0  0  0  0  0  0  0  0  0  0  0  0
   36.6180   25.3910   32.1720 C   0  0  0  0  0  0  0  0  0  0  0  0
   37.9010   25.0410   32.9000 C   0  0  1  0  0  0  0  0  0  0  0  0
   38.0920   26.0570   33.9130 N   0  0  0  0  0  0  0  0  0  0  0  0
   37.0660   26.7150   34.5210 C   0  0  0  0  0  0  0  0  0  0  0  0
   37.6470   27.5880   35.4080 C   0  0  0  0  0  0  0  0  0  0  0  0
   39.0040   27.4720   35.3490 N   0  0  0  0  0  0  0  0  0  0  0  0
   39.2470   26.5270   34.4240 C   0  0  0  0  0  0  0  0  0  0  0  0
   40.0503   21.1276   36.3630 H   0  0  0  0  0  0  0  0  0  0  0  0
   39.6611   22.7111   38.2759 H   0  0  0  0  0  0  0  0  0  0  0  0
   38.3477   24.8149   37.8194 H   0  0  0  0  0  0  0  0  0  0  0  0
   37.9784   22.1422   32.1326 H   0  0  0  0  0  0  0  0  0  0  0  0
   36.7761   21.9545   33.5045 H   0  0  0  0  0  0  0  0  0  0  0  0
   35.9313   22.2286   31.0847 H   0  0  0  0  0  0  0  0  0  0  0  0
   35.1712   23.1427   32.4592 H   0  0  0  0  0  0  0  0  0  0  0  0
   37.1990   24.2179   30.4635 H   0  0  0  0  0  0  0  0  0  0  0  0
   35.4534   24.6101   30.5347 H   0  0  0  0  0  0  0  0  0  0  0  0
   36.7293   26.3675   31.6779 H   0  0  0  0  0  0  0  0  0  0  0  0
   35.7861   25.4415   32.8899 H   0  0  0  0  0  0  0  0  0  0  0  0
   38.7728   25.0278   32.2293 H   0  0  0  0  0  0  0  0  0  0  0  0
   35.9902   26.5755   34.3386 H   0  0  0  0  0  0  0  0  0  0  0  0
   37.0993   28.2775   36.0673 H   0  0  0  0  0  0  0  0  0  0  0  0
   40.2491   26.1851   34.1258 H   0  0  0  0  0  0  0  0  0  0  0  0
  1  2  2  0
  3  2  1  0
  4  3  2  0
  5  6  2  0
  5  4  1  0
  6  1  1  0
  7  5  1  0
  8  7  1  0
  9  8  1  0
 10  9  1  0
 10 11  1  0
 11 12  1  0
 12  7  1  0
 12 13  1  0
 13 17  1  0
 13 14  1  0
 14 15  2  0
 16 15  1  0
 17 16  2  0
  1 18  1  0
  2 19  1  0
  3 20  1  0
  8 21  1  0
  8 22  1  0
  9 23  1  0
  9 24  1  0
 10 25  1  0
 10 26  1  0
 11 27  1  0
 11 28  1  0
 12 29  1  6
 14 30  1  0
 15 31  1  0
 17 32  1  0
M  ISO  8  18  14  19  14  20  14  21  13  22  13  23  13  24  13  25  13
M  ISO  7  26  13  27  13  28  13  29  13  30  14  31  14  32  14
M  END
>  <minimizedAffinity>  (1) 
-4.55877447

>  <minimizedRMSD>  (1) 
2.92173028

$$$$
