
     RDKit          3D

 34 35  0  0  1  0  0  0  0  0999 V2000
   39.6830   22.7910   37.7040 C   0  0  0  0  0  0  0  0  0  0  0  0
   38.9050   23.4390   38.6960 C   0  0  0  0  0  0  0  0  0  0  0  0
   37.9130   24.3330   38.2690 C   0  0  0  0  0  0  0  0  0  0  0  0
   37.7540   24.5280   36.9190 N   0  0  0  0  0  0  0  0  0  0  0  0
   38.5170   23.8900   36.0200 C   0  0  0  0  0  0  0  0  0  0  0  0
   39.4740   23.0300   36.4010 N   0  0  0  0  0  0  0  0  0  0  0  0
   38.2950   24.1430   34.6290 N   0  0  0  0  0  0  0  0  0  0  0  0
   38.2230   22.9630   33.7790 C   0  0  0  0  0  0  0  0  0  0  0  0
   37.4130   23.1730   32.5510 C   0  0  0  0  0  0  0  0  0  0  0  0
   37.4650   24.5780   31.9950 C   0  0  0  0  0  0  0  0  0  0  0  0
   37.1010   25.5370   33.0920 C   0  0  0  0  0  0  0  0  0  0  0  0
   38.1620   25.5160   34.1730 C   0  0  2  0  0  0  0  0  0  0  0  0
   39.4630   26.1070   33.7390 C   0  0  0  0  0  0  0  0  0  0  0  0
   39.2230   27.1880   32.7260 C   0  0  0  0  0  0  0  0  0  0  0  0
   40.1320   26.7080   34.9460 C   0  0  0  0  0  0  0  0  0  0  0  0
   40.4684   22.0829   38.0069 H   0  0  0  0  0  0  0  0  0  0  0  0
   39.0740   23.2467   39.7658 H   0  0  0  0  0  0  0  0  0  0  0  0
   37.2796   24.8635   38.9952 H   0  0  0  0  0  0  0  0  0  0  0  0
   39.2445   22.6847   33.4804 H   0  0  0  0  0  0  0  0  0  0  0  0
   37.7318   22.1702   34.3623 H   0  0  0  0  0  0  0  0  0  0  0  0
   37.7796   22.4837   31.7762 H   0  0  0  0  0  0  0  0  0  0  0  0
   36.3660   22.9880   32.8329 H   0  0  0  0  0  0  0  0  0  0  0  0
   38.4803   24.7965   31.6326 H   0  0  0  0  0  0  0  0  0  0  0  0
   36.7601   24.6784   31.1566 H   0  0  0  0  0  0  0  0  0  0  0  0
   37.0241   26.5528   32.6770 H   0  0  0  0  0  0  0  0  0  0  0  0
   36.1363   25.2375   33.5276 H   0  0  0  0  0  0  0  0  0  0  0  0
   37.8457   26.1617   35.0055 H   0  0  0  0  0  0  0  0  0  0  0  0
   40.0950   25.3271   33.2892 H   0  0  0  0  0  0  0  0  0  0  0  0
   39.0126   28.1355   33.2437 H   0  0  0  0  0  0  0  0  0  0  0  0
   40.1170   27.3051   32.0959 H   0  0  0  0  0  0  0  0  0  0  0  0
   38.3634   26.9158   32.0959 H   0  0  0  0  0  0  0  0  0  0  0  0
   39.6763   26.2986   35.8597 H   0  0  0  0  0  0  0  0  0  0  0  0
   41.2045   26.4642   34.9302 H   0  0  0  0  0  0  0  0  0  0  0  0
   40.0041   27.8004   34.9302 H   0  0  0  0  0  0  0  0  0  0  0  0
  1  2  2  0
  3  2  1  0
  4  3  2  0
  5  6  2  0
  5  4  1  0
  6  1  1  0
  7  5  1  0
  8  7  1  0
  9  8  1  0
 10  9  1  0
 10 11  1  0
 11 12  1  0
 12  7  1  0
 13 12  1  0
 13 15  1  0
 14 13  1  0
  1 16  1  0
  2 17  1  0
  3 18  1  0
  8 19  1  0
  8 20  1  0
  9 21  1  0
  9 22  1  0
 10 23  1  0
 10 24  1  0
 11 25  1  0
 11 26  1  0
 12 27  1  1
 13 28  1  0
 14 29  1  0
 14 30  1  0
 14 31  1  0
 15 32  1  0
 15 33  1  0
 15 34  1  0
M  ISO  8  16  14  17  14  18  14  19  13  20  13  21  13  22  13  23  13
M  ISO  8  24  13  25  13  26  13  27  13  28   8  29   8  30   8  31   8
M  ISO  3  32   8  33   8  34   8
M  END
>  <minimizedAffinity>  (1) 
-4.44902277

>  <minimizedRMSD>  (1) 
2.06919742

$$$$
