
     RDKit          3D

 26 27  0  0  1  0  0  0  0  0999 V2000
   39.6710   22.7910   37.2000 C   0  0  0  0  0  0  0  0  0  0  0  0
   39.0590   22.9220   38.4510 C   0  0  0  0  0  0  0  0  0  0  0  0
   38.1700   23.9960   38.6400 C   0  0  0  0  0  0  0  0  0  0  0  0
   37.9510   24.8550   37.5950 N   0  0  0  0  0  0  0  0  0  0  0  0
   38.5790   24.6710   36.4040 C   0  0  0  0  0  0  0  0  0  0  0  0
   39.4210   23.6570   36.2170 N   0  0  0  0  0  0  0  0  0  0  0  0
   38.3060   25.6030   35.3520 N   0  0  0  0  0  0  0  0  0  0  0  0
   38.0730   25.0190   34.0600 C   0  0  0  0  0  0  0  0  0  0  0  0
   37.1920   25.8590   33.1830 C   0  0  0  0  0  0  0  0  0  0  0  0
   37.3590   27.3370   33.3610 C   0  0  0  0  0  0  0  0  0  0  0  0
   37.1630   27.6440   34.8350 C   0  0  0  0  0  0  0  0  0  0  0  0
   38.2820   27.0310   35.6300 C   0  0  2  0  0  0  0  0  0  0  0  0
   39.5070   27.5590   35.2000 O   0  0  0  0  0  0  0  0  0  0  0  0
   40.3700   21.9600   37.0241 H   0  0  0  0  0  0  0  0  0  0  0  0
   39.2663   22.2078   39.2615 H   0  0  0  0  0  0  0  0  0  0  0  0
   37.6623   24.1428   39.6047 H   0  0  0  0  0  0  0  0  0  0  0  0
   39.0419   24.8851   33.5568 H   0  0  0  0  0  0  0  0  0  0  0  0
   37.5563   24.0615   34.2219 H   0  0  0  0  0  0  0  0  0  0  0  0
   36.1451   25.6034   33.4035 H   0  0  0  0  0  0  0  0  0  0  0  0
   37.4824   25.6360   32.1457 H   0  0  0  0  0  0  0  0  0  0  0  0
   38.3675   27.6418   33.0447 H   0  0  0  0  0  0  0  0  0  0  0  0
   36.6272   27.8860   32.7502 H   0  0  0  0  0  0  0  0  0  0  0  0
   37.1613   28.7337   34.9851 H   0  0  0  0  0  0  0  0  0  0  0  0
   36.2032   27.2249   35.1713 H   0  0  0  0  0  0  0  0  0  0  0  0
   38.1297   27.2362   36.6999 H   0  0  0  0  0  0  0  0  0  0  0  0
   40.0584   27.7967   35.9871 H   0  0  0  0  0  0  0  0  0  0  0  0
  1  2  2  0
  2  3  1  0
  4  3  2  0
  5  4  1  0
  6  5  2  0
  6  1  1  0
  7 12  1  0
  7  5  1  0
  8  7  1  0
  9 10  1  0
  9  8  1  0
 10 11  1  0
 11 12  1  0
 13 12  1  0
  1 14  1  0
  2 15  1  0
  3 16  1  0
  8 17  1  0
  8 18  1  0
  9 19  1  0
  9 20  1  0
 10 21  1  0
 10 22  1  0
 11 23  1  0
 11 24  1  0
 12 25  1  1
 13 26  1  0
M  ISO  8  14  14  15  14  16  14  17  13  18  13  19  13  20  13  21  13
M  ISO  5  22  13  23  13  24  13  25  13  26   3
M  END
>  <minimizedAffinity>  (1) 
-4.2415638

>  <minimizedRMSD>  (1) 
0.305643082

$$$$
