
     RDKit          3D

 29 30  0  0  1  0  0  0  0  0999 V2000
   39.5880   22.7740   37.4100 C   0  0  0  0  0  0  0  0  0  0  0  0
   38.9210   23.2580   38.5710 C   0  0  0  0  0  0  0  0  0  0  0  0
   38.0650   24.3520   38.4340 C   0  0  0  0  0  0  0  0  0  0  0  0
   37.9460   24.8640   37.1890 N   0  0  0  0  0  0  0  0  0  0  0  0
   38.5820   24.3980   36.1020 C   0  0  0  0  0  0  0  0  0  0  0  0
   39.4150   23.3410   36.2010 N   0  0  0  0  0  0  0  0  0  0  0  0
   38.3820   25.0230   34.8280 N   0  0  0  0  0  0  0  0  0  0  0  0
   38.1230   24.1450   33.7270 C   0  0  0  0  0  0  0  0  0  0  0  0
   37.2860   24.7510   32.6580 C   0  0  0  0  0  0  0  0  0  0  0  0
   37.5000   26.2270   32.4700 C   0  0  0  0  0  0  0  0  0  0  0  0
   37.3520   26.9240   33.7970 C   0  0  0  0  0  0  0  0  0  0  0  0
   38.4560   26.4620   34.7260 C   0  0  1  0  0  0  0  0  0  0  0  0
   38.4260   27.1500   36.0360 C   0  0  0  0  0  0  0  0  0  0  0  0
   37.6760   28.3400   35.8340 O   0  0  0  0  0  0  0  0  0  0  0  0
   40.2645   21.9116   37.5034 H   0  0  0  0  0  0  0  0  0  0  0  0
   39.0762   22.7822   39.5505 H   0  0  0  0  0  0  0  0  0  0  0  0
   37.5184   24.7734   39.2906 H   0  0  0  0  0  0  0  0  0  0  0  0
   39.0863   23.8483   33.2865 H   0  0  0  0  0  0  0  0  0  0  0  0
   37.5601   23.2886   34.1267 H   0  0  0  0  0  0  0  0  0  0  0  0
   37.5186   24.2451   31.7093 H   0  0  0  0  0  0  0  0  0  0  0  0
   36.2378   24.6202   32.9650 H   0  0  0  0  0  0  0  0  0  0  0  0
   38.5102   26.4042   32.0724 H   0  0  0  0  0  0  0  0  0  0  0  0
   36.7556   26.6202   31.7620 H   0  0  0  0  0  0  0  0  0  0  0  0
   37.4243   28.0120   33.6516 H   0  0  0  0  0  0  0  0  0  0  0  0
   36.3729   26.6812   34.2357 H   0  0  0  0  0  0  0  0  0  0  0  0
   39.4347   26.7389   34.3070 H   0  0  0  0  0  0  0  0  0  0  0  0
   37.9395   26.5147   36.7908 H   0  0  0  0  0  0  0  0  0  0  0  0
   39.4405   27.3690   36.4004 H   0  0  0  0  0  0  0  0  0  0  0  0
   37.4311   28.7286   36.7110 H   0  0  0  0  0  0  0  0  0  0  0  0
  1  2  2  0
  3  2  1  0
  4  3  2  0
  5  6  2  0
  5  4  1  0
  6  1  1  0
  7  5  1  0
  8  7  1  0
  9  8  1  0
 10  9  1  0
 10 11  1  0
 11 12  1  0
 12  7  1  0
 12 13  1  0
 14 13  1  0
  1 15  1  0
  2 16  1  0
  3 17  1  0
  8 18  1  0
  8 19  1  0
  9 20  1  0
  9 21  1  0
 10 22  1  0
 10 23  1  0
 11 24  1  0
 11 25  1  0
 12 26  1  6
 13 27  1  0
 13 28  1  0
 14 29  1  0
M  ISO  8  15  14  16  14  17  14  18  13  19  13  20  13  21  13  22  13
M  ISO  7  23  13  24  13  25  13  26  13  27   8  28   8  29   3
M  END
>  <minimizedAffinity>  (1) 
-4.42174816

>  <minimizedRMSD>  (1) 
0.359240562

$$$$
