
     RDKit          3D

 45 48  0  0  1  0  0  0  0  0999 V2000
   39.9150   22.8100   37.8720 C   0  0  0  0  0  0  0  0  0  0  0  0
   38.8450   23.3350   38.6620 C   0  0  0  0  0  0  0  0  0  0  0  0
   37.7170   23.8550   37.9980 C   0  0  0  0  0  0  0  0  0  0  0  0
   37.7830   23.7940   36.6610 N   0  0  0  0  0  0  0  0  0  0  0  0
   38.7680   23.3100   35.9110 C   0  0  0  0  0  0  0  0  0  0  0  0
   39.8410   22.8150   36.5330 N   0  0  0  0  0  0  0  0  0  0  0  0
   38.6720   23.3300   34.4910 N   0  0  0  0  0  0  0  0  0  0  0  0
   39.0010   22.1020   33.8260 C   0  0  0  0  0  0  0  0  0  0  0  0
   38.2640   21.8990   32.5550 C   0  0  0  0  0  0  0  0  0  0  0  0
   38.0080   23.1840   31.7940 C   0  0  0  0  0  0  0  0  0  0  0  0
   37.3120   24.1630   32.7170 C   0  0  0  0  0  0  0  0  0  0  0  0
   38.2640   24.5350   33.8140 C   0  0  1  0  0  0  0  0  0  0  0  0
   37.8120   25.5870   34.7450 C   0  0  0  0  0  0  0  0  0  0  0  0
   37.8410   26.9350   34.1080 C   0  0  2  0  0  0  0  0  0  0  0  0
   37.1490   28.0840   34.7590 C   0  0  0  0  0  0  0  0  0  0  0  0
   36.5900   27.4920   33.4570 C   0  0  1  0  0  0  0  0  0  0  0  0
   36.7750   28.3500   32.2560 C   0  0  0  0  0  0  0  0  0  0  0  0
   35.9640   29.4550   31.9980 C   0  0  0  0  0  0  0  0  0  0  0  0
   36.1250   30.2540   30.8930 C   0  0  0  0  0  0  0  0  0  0  0  0
   37.1600   29.9050   30.0210 C   0  0  0  0  0  0  0  0  0  0  0  0
   37.9950   28.8110   30.2380 C   0  0  0  0  0  0  0  0  0  0  0  0
   37.7890   28.0340   31.3740 C   0  0  0  0  0  0  0  0  0  0  0  0
   40.8069   22.3983   38.3670 H   0  0  0  0  0  0  0  0  0  0  0  0
   38.9014   23.3328   39.7605 H   0  0  0  0  0  0  0  0  0  0  0  0
   36.8531   24.2764   38.5328 H   0  0  0  0  0  0  0  0  0  0  0  0
   40.0789   22.1033   33.6066 H   0  0  0  0  0  0  0  0  0  0  0  0
   38.7124   21.2825   34.5006 H   0  0  0  0  0  0  0  0  0  0  0  0
   38.8530   21.2262   31.9144 H   0  0  0  0  0  0  0  0  0  0  0  0
   37.2827   21.4747   32.8138 H   0  0  0  0  0  0  0  0  0  0  0  0
   38.9636   23.6102   31.4547 H   0  0  0  0  0  0  0  0  0  0  0  0
   37.3762   22.9812   30.9166 H   0  0  0  0  0  0  0  0  0  0  0  0
   37.0228   25.0630   32.1546 H   0  0  0  0  0  0  0  0  0  0  0  0
   36.4060   23.7053   33.1408 H   0  0  0  0  0  0  0  0  0  0  0  0
   39.1248   25.0208   33.3313 H   0  0  0  0  0  0  0  0  0  0  0  0
   36.7825   25.3644   35.0622 H   0  0  0  0  0  0  0  0  0  0  0  0
   38.4953   25.5996   35.6069 H   0  0  0  0  0  0  0  0  0  0  0  0
   38.8702   26.7509   33.7663 H   0  0  0  0  0  0  0  0  0  0  0  0
   36.6097   27.9358   35.7062 H   0  0  0  0  0  0  0  0  0  0  0  0
   37.4526   29.0886   35.0885 H   0  0  0  0  0  0  0  0  0  0  0  0
   35.6373   27.0605   33.1162 H   0  0  0  0  0  0  0  0  0  0  0  0
   35.1612   29.6967   32.7101 H   0  0  0  0  0  0  0  0  0  0  0  0
   35.4751   31.1212   30.7044 H   0  0  0  0  0  0  0  0  0  0  0  0
   37.3224   30.5210   29.1242 H   0  0  0  0  0  0  0  0  0  0  0  0
   38.7987   28.5670   29.5277 H   0  0  0  0  0  0  0  0  0  0  0  0
   38.4357   27.1659   31.5697 H   0  0  0  0  0  0  0  0  0  0  0  0
  1  2  2  0
  3  2  1  0
  4  3  2  0
  5  6  2  0
  5  4  1  0
  6  1  1  0
  7  5  1  0
  8  7  1  0
  9  8  1  0
 10  9  1  0
 10 11  1  0
 11 12  1  0
 12  7  1  0
 12 13  1  0
 14 13  1  0
 14 15  1  0
 16 14  1  0
 16 15  1  0
 17 16  1  0
 18 17  2  0
 19 18  1  0
 20 21  1  0
 20 19  2  0
 21 22  2  0
 22 17  1  0
  1 23  1  0
  2 24  1  0
  3 25  1  0
  8 26  1  0
  8 27  1  0
  9 28  1  0
  9 29  1  0
 10 30  1  0
 10 31  1  0
 11 32  1  0
 11 33  1  0
 12 34  1  6
 13 35  1  0
 13 36  1  0
 14 37  1  6
 15 38  1  0
 15 39  1  0
 16 40  1  1
 18 41  1  0
 19 42  1  0
 20 43  1  0
 21 44  1  0
 22 45  1  0
M  ISO  8  23  14  24  14  25  14  26  13  27  13  28  13  29  13  30  13
M  ISO  8  31  13  32  13  33  13  34  13  35   8  36   8  37  13  38  13
M  ISO  7  39  13  40  13  41  14  42  14  43  14  44  14  45  14
M  END
>  <minimizedAffinity>  (1) 
-5.49902344

>  <minimizedRMSD>  (1) 
0.34226051

$$$$
