
     RDKit          3D

 50 53  0  0  1  0  0  0  0  0999 V2000
   40.0530   22.7730   37.8720 C   0  0  0  0  0  0  0  0  0  0  0  0
   38.9440   23.2220   38.6540 C   0  0  0  0  0  0  0  0  0  0  0  0
   37.7610   23.5830   37.9810 C   0  0  0  0  0  0  0  0  0  0  0  0
   37.8190   23.4580   36.6480 N   0  0  0  0  0  0  0  0  0  0  0  0
   38.8400   23.0440   35.9060 C   0  0  0  0  0  0  0  0  0  0  0  0
   39.9670   22.6990   36.5370 N   0  0  0  0  0  0  0  0  0  0  0  0
   38.7320   22.9780   34.4920 N   0  0  0  0  0  0  0  0  0  0  0  0
   39.1720   21.7570   33.8890 C   0  0  0  0  0  0  0  0  0  0  0  0
   38.4880   21.4400   32.6150 C   0  0  0  0  0  0  0  0  0  0  0  0
   38.1190   22.6560   31.7990 C   0  0  0  0  0  0  0  0  0  0  0  0
   37.3260   23.5980   32.6700 C   0  0  0  0  0  0  0  0  0  0  0  0
   38.1990   24.1120   33.7660 C   0  0  1  0  0  0  0  0  0  0  0  0
   37.6370   25.1480   34.6450 C   0  0  0  0  0  0  0  0  0  0  0  0
   38.4280   26.4020   34.5580 C   0  0  2  0  0  0  0  0  0  0  0  0
   38.1820   27.5540   35.4650 C   0  0  0  0  0  0  0  0  0  0  0  0
   37.9030   27.6400   33.9510 C   0  0  2  0  0  0  0  0  0  0  0  0
   36.6780   28.0500   33.5780 N   0  0  0  0  0  0  0  0  0  0  0  0
   35.7340   28.8940   34.0490 C   0  0  0  0  0  0  0  0  0  0  0  0
   35.5900   30.1500   33.1740 C   0  0  0  0  0  0  0  0  0  0  0  0
   35.3700   29.7520   31.7290 C   0  0  0  0  0  0  0  0  0  0  0  0
   36.4080   28.7300   31.3140 C   0  0  0  0  0  0  0  0  0  0  0  0
   36.2540   27.5520   32.2810 C   0  0  0  0  0  0  0  0  0  0  0  0
   40.9890   22.4845   38.3726 H   0  0  0  0  0  0  0  0  0  0  0  0
   39.0127   23.2838   39.7501 H   0  0  0  0  0  0  0  0  0  0  0  0
   36.8625   23.9386   38.5066 H   0  0  0  0  0  0  0  0  0  0  0  0
   40.2515   21.8363   33.6928 H   0  0  0  0  0  0  0  0  0  0  0  0
   38.9307   20.9467   34.5927 H   0  0  0  0  0  0  0  0  0  0  0  0
   39.1557   20.8076   32.0115 H   0  0  0  0  0  0  0  0  0  0  0  0
   37.5472   20.9330   32.8755 H   0  0  0  0  0  0  0  0  0  0  0  0
   39.0327   23.1573   31.4472 H   0  0  0  0  0  0  0  0  0  0  0  0
   37.5191   22.3555   30.9274 H   0  0  0  0  0  0  0  0  0  0  0  0
   36.9632   24.4410   32.0637 H   0  0  0  0  0  0  0  0  0  0  0  0
   36.4678   23.0636   33.1034 H   0  0  0  0  0  0  0  0  0  0  0  0
   39.0036   24.6799   33.2760 H   0  0  0  0  0  0  0  0  0  0  0  0
   36.6000   25.3543   34.3415 H   0  0  0  0  0  0  0  0  0  0  0  0
   37.6680   24.7838   35.6825 H   0  0  0  0  0  0  0  0  0  0  0  0
   39.2996   25.7655   34.3453 H   0  0  0  0  0  0  0  0  0  0  0  0
   37.3483   27.5273   36.1821 H   0  0  0  0  0  0  0  0  0  0  0  0
   38.7784   28.1273   36.1900 H   0  0  0  0  0  0  0  0  0  0  0  0
   38.2157   28.1329   33.0187 H   0  0  0  0  0  0  0  0  0  0  0  0
   34.7686   28.3673   34.0745 H   0  0  0  0  0  0  0  0  0  0  0  0
   36.0405   29.2163   35.0551 H   0  0  0  0  0  0  0  0  0  0  0  0
   34.7309   30.7412   33.5239 H   0  0  0  0  0  0  0  0  0  0  0  0
   36.5097   30.7489   33.2477 H   0  0  0  0  0  0  0  0  0  0  0  0
   34.3655   29.3175   31.6189 H   0  0  0  0  0  0  0  0  0  0  0  0
   35.4612   30.6423   31.0894 H   0  0  0  0  0  0  0  0  0  0  0  0
   36.2279   28.4012   30.2799 H   0  0  0  0  0  0  0  0  0  0  0  0
   37.4237   29.1506   31.3513 H   0  0  0  0  0  0  0  0  0  0  0  0
   35.2051   27.2230   32.3207 H   0  0  0  0  0  0  0  0  0  0  0  0
   36.8524   26.6853   31.9635 H   0  0  0  0  0  0  0  0  0  0  0  0
  1  2  2  0
  3  2  1  0
  4  3  2  0
  5  6  2  0
  5  4  1  0
  6  1  1  0
  7  5  1  0
  8  7  1  0
  9  8  1  0
 10  9  1  0
 10 11  1  0
 11 12  1  0
 12  7  1  0
 12 13  1  0
 14 13  1  0
 14 15  1  0
 16 14  1  0
 16 15  1  0
 17 16  1  0
 17 18  1  0
 19 18  1  0
 20 19  1  0
 21 20  1  0
 21 22  1  0
 22 17  1  0
  1 23  1  0
  2 24  1  0
  3 25  1  0
  8 26  1  0
  8 27  1  0
  9 28  1  0
  9 29  1  0
 10 30  1  0
 10 31  1  0
 11 32  1  0
 11 33  1  0
 12 34  1  6
 13 35  1  0
 13 36  1  0
 14 37  1  6
 15 38  1  0
 15 39  1  0
 16 40  1  6
 18 41  1  0
 18 42  1  0
 19 43  1  0
 19 44  1  0
 20 45  1  0
 20 46  1  0
 21 47  1  0
 21 48  1  0
 22 49  1  0
 22 50  1  0
M  ISO  8  23  14  24  14  25  14  26  13  27  13  28  13  29  13  30  13
M  ISO  8  31  13  32  13  33  13  34  13  35   8  36   8  37  13  38  13
M  ISO  8  39  13  40  13  41  13  42  13  43  13  44  13  45  13  46  13
M  ISO  4  47  13  48  13  49  13  50  13
M  END
>  <minimizedAffinity>  (1) 
-5.1154356

>  <minimizedRMSD>  (1) 
1.42088628

$$$$
