
     RDKit          3D

 41 43  0  0  1  0  0  0  0  0999 V2000
   40.0180   22.7550   37.8390 C   0  0  0  0  0  0  0  0  0  0  0  0
   38.9180   23.2590   38.6010 C   0  0  0  0  0  0  0  0  0  0  0  0
   37.7560   23.6670   37.9180 C   0  0  0  0  0  0  0  0  0  0  0  0
   37.8220   23.5300   36.5840 N   0  0  0  0  0  0  0  0  0  0  0  0
   38.8340   23.0660   35.8590 C   0  0  0  0  0  0  0  0  0  0  0  0
   39.9360   22.6780   36.5100 N   0  0  0  0  0  0  0  0  0  0  0  0
   38.7350   22.9900   34.4470 N   0  0  0  0  0  0  0  0  0  0  0  0
   39.1140   21.7380   33.8660 C   0  0  0  0  0  0  0  0  0  0  0  0
   38.4570   21.4460   32.5690 C   0  0  0  0  0  0  0  0  0  0  0  0
   38.1450   22.6740   31.7390 C   0  0  0  0  0  0  0  0  0  0  0  0
   37.3990   23.6500   32.5880 C   0  0  0  0  0  0  0  0  0  0  0  0
   38.2760   24.1360   33.6980 C   0  0  1  0  0  0  0  0  0  0  0  0
   37.7170   25.1870   34.5710 C   0  0  0  0  0  0  0  0  0  0  0  0
   38.6410   26.3650   34.6230 C   0  0  2  0  0  0  0  0  0  0  0  0
   38.7260   27.2480   35.8080 C   0  0  0  0  0  0  0  0  0  0  0  0
   38.0740   27.7610   34.5030 C   0  0  2  0  0  0  0  0  0  0  0  0
   36.6320   28.0650   34.6920 C   0  0  0  0  0  0  0  0  0  0  0  0
   36.0970   28.6640   33.4070 C   0  0  0  0  0  0  0  0  0  0  0  0
   40.9356   22.4295   38.3510 H   0  0  0  0  0  0  0  0  0  0  0  0
   38.9782   23.3266   39.6973 H   0  0  0  0  0  0  0  0  0  0  0  0
   36.8694   24.0643   38.4338 H   0  0  0  0  0  0  0  0  0  0  0  0
   40.2024   21.7469   33.7071 H   0  0  0  0  0  0  0  0  0  0  0  0
   38.7920   20.9539   34.5670 H   0  0  0  0  0  0  0  0  0  0  0  0
   39.1231   20.7948   31.9841 H   0  0  0  0  0  0  0  0  0  0  0  0
   37.4932   20.9706   32.8036 H   0  0  0  0  0  0  0  0  0  0  0  0
   39.0819   23.1304   31.3868 H   0  0  0  0  0  0  0  0  0  0  0  0
   37.5348   22.3922   30.8683 H   0  0  0  0  0  0  0  0  0  0  0  0
   37.0851   24.5046   31.9707 H   0  0  0  0  0  0  0  0  0  0  0  0
   36.5149   23.1549   33.0161 H   0  0  0  0  0  0  0  0  0  0  0  0
   39.1152   24.6633   33.2208 H   0  0  0  0  0  0  0  0  0  0  0  0
   36.7422   25.5075   34.1747 H   0  0  0  0  0  0  0  0  0  0  0  0
   37.5959   24.7819   35.5865 H   0  0  0  0  0  0  0  0  0  0  0  0
   39.3901   25.7768   34.0727 H   0  0  0  0  0  0  0  0  0  0  0  0
   38.1030   27.0448   36.6915 H   0  0  0  0  0  0  0  0  0  0  0  0
   39.5386   27.5974   36.4619 H   0  0  0  0  0  0  0  0  0  0  0  0
   38.2018   28.5336   33.7305 H   0  0  0  0  0  0  0  0  0  0  0  0
   36.0850   27.1400   34.9266 H   0  0  0  0  0  0  0  0  0  0  0  0
   36.5010   28.7740   35.5227 H   0  0  0  0  0  0  0  0  0  0  0  0
   35.3817   29.4649   33.6457 H   0  0  0  0  0  0  0  0  0  0  0  0
   36.9303   29.0793   32.8212 H   0  0  0  0  0  0  0  0  0  0  0  0
   35.5906   27.8827   32.8212 H   0  0  0  0  0  0  0  0  0  0  0  0
  1  2  2  0
  3  2  1  0
  4  3  2  0
  5  6  2  0
  5  4  1  0
  6  1  1  0
  7  5  1  0
  8  7  1  0
  9  8  1  0
 10  9  1  0
 10 11  1  0
 11 12  1  0
 12  7  1  0
 12 13  1  0
 13 14  1  0
 14 15  1  0
 16 14  1  0
 16 17  1  0
 16 15  1  0
 18 17  1  0
  1 19  1  0
  2 20  1  0
  3 21  1  0
  8 22  1  0
  8 23  1  0
  9 24  1  0
  9 25  1  0
 10 26  1  0
 10 27  1  0
 11 28  1  0
 11 29  1  0
 12 30  1  6
 13 31  1  0
 13 32  1  0
 14 33  1  6
 15 34  1  0
 15 35  1  0
 16 36  1  6
 17 37  1  0
 17 38  1  0
 18 39  1  0
 18 40  1  0
 18 41  1  0
M  ISO  8  19  14  20  14  21  14  22  13  23  13  24  13  25  13  26  13
M  ISO  8  27  13  28  13  29  13  30  13  31   8  32   8  33  13  34  13
M  ISO  7  35  13  36  13  37   8  38   8  39   8  40   8  41   8
M  END
>  <minimizedAffinity>  (1) 
-4.58056688

>  <minimizedRMSD>  (1) 
1.17854643

$$$$
