
     RDKit          3D

 44 46  0  0  1  0  0  0  0  0999 V2000
   40.0390   22.7880   37.8620 C   0  0  0  0  0  0  0  0  0  0  0  0
   38.9210   23.2260   38.6390 C   0  0  0  0  0  0  0  0  0  0  0  0
   37.7400   23.5940   37.9710 C   0  0  0  0  0  0  0  0  0  0  0  0
   37.8060   23.4890   36.6380 N   0  0  0  0  0  0  0  0  0  0  0  0
   38.8290   23.0860   35.8950 C   0  0  0  0  0  0  0  0  0  0  0  0
   39.9520   22.7350   36.5320 N   0  0  0  0  0  0  0  0  0  0  0  0
   38.7250   23.0370   34.4810 N   0  0  0  0  0  0  0  0  0  0  0  0
   39.1390   21.8070   33.8810 C   0  0  0  0  0  0  0  0  0  0  0  0
   38.4910   21.5090   32.5820 C   0  0  0  0  0  0  0  0  0  0  0  0
   38.1130   22.7190   31.7820 C   0  0  0  0  0  0  0  0  0  0  0  0
   37.3620   23.6830   32.6350 C   0  0  0  0  0  0  0  0  0  0  0  0
   38.2280   24.1820   33.7610 C   0  0  1  0  0  0  0  0  0  0  0  0
   37.6100   25.1860   34.6520 C   0  0  0  0  0  0  0  0  0  0  0  0
   38.3610   26.4680   34.6110 C   0  0  2  0  0  0  0  0  0  0  0  0
   38.1850   27.5110   35.6480 C   0  0  0  0  0  0  0  0  0  0  0  0
   37.7590   27.7500   34.1860 C   0  0  2  0  0  0  0  0  0  0  0  0
   36.3610   28.0970   33.9840 C   0  0  0  0  0  0  0  0  0  0  0  0
   35.9040   29.4690   34.3520 C   0  0  0  0  0  0  0  0  0  0  0  0
   36.0160   27.9250   32.5140 C   0  0  0  0  0  0  0  0  0  0  0  0
   40.9733   22.4940   38.3626 H   0  0  0  0  0  0  0  0  0  0  0  0
   38.9839   23.2739   39.7362 H   0  0  0  0  0  0  0  0  0  0  0  0
   36.8385   23.9388   38.4986 H   0  0  0  0  0  0  0  0  0  0  0  0
   40.2263   21.8518   33.7204 H   0  0  0  0  0  0  0  0  0  0  0  0
   38.8392   21.0051   34.5718 H   0  0  0  0  0  0  0  0  0  0  0  0
   39.1870   20.9044   31.9819 H   0  0  0  0  0  0  0  0  0  0  0  0
   37.5533   20.9830   32.8144 H   0  0  0  0  0  0  0  0  0  0  0  0
   39.0246   23.2032   31.4019 H   0  0  0  0  0  0  0  0  0  0  0  0
   37.4750   22.4096   30.9411 H   0  0  0  0  0  0  0  0  0  0  0  0
   37.0420   24.5368   32.0196 H   0  0  0  0  0  0  0  0  0  0  0  0
   36.4866   23.1713   33.0614 H   0  0  0  0  0  0  0  0  0  0  0  0
   39.0540   24.7509   33.3092 H   0  0  0  0  0  0  0  0  0  0  0  0
   36.5741   25.3653   34.3282 H   0  0  0  0  0  0  0  0  0  0  0  0
   37.6303   24.8005   35.6820 H   0  0  0  0  0  0  0  0  0  0  0  0
   39.2162   25.8804   34.2459 H   0  0  0  0  0  0  0  0  0  0  0  0
   37.4248   27.3885   36.4336 H   0  0  0  0  0  0  0  0  0  0  0  0
   38.8403   28.0210   36.3695 H   0  0  0  0  0  0  0  0  0  0  0  0
   37.9809   28.3762   33.3093 H   0  0  0  0  0  0  0  0  0  0  0  0
   35.8486   27.4172   34.6807 H   0  0  0  0  0  0  0  0  0  0  0  0
   35.8725   29.5635   35.4475 H   0  0  0  0  0  0  0  0  0  0  0  0
   36.6034   30.2113   33.9399 H   0  0  0  0  0  0  0  0  0  0  0  0
   34.8992   29.6436   33.9399 H   0  0  0  0  0  0  0  0  0  0  0  0
   35.0350   27.4359   32.4224 H   0  0  0  0  0  0  0  0  0  0  0  0
   35.9809   28.9111   32.0278 H   0  0  0  0  0  0  0  0  0  0  0  0
   36.7824   27.3035   32.0278 H   0  0  0  0  0  0  0  0  0  0  0  0
  1  2  2  0
  3  2  1  0
  4  3  2  0
  5  6  2  0
  5  4  1  0
  6  1  1  0
  7  5  1  0
  8  7  1  0
  9  8  1  0
 10  9  1  0
 10 11  1  0
 11 12  1  0
 12  7  1  0
 12 13  1  0
 14 13  1  0
 14 15  1  0
 16 14  1  0
 16 15  1  0
 17 16  1  0
 17 18  1  0
 19 17  1  0
  1 20  1  0
  2 21  1  0
  3 22  1  0
  8 23  1  0
  8 24  1  0
  9 25  1  0
  9 26  1  0
 10 27  1  0
 10 28  1  0
 11 29  1  0
 11 30  1  0
 12 31  1  6
 13 32  1  0
 13 33  1  0
 14 34  1  6
 15 35  1  0
 15 36  1  0
 16 37  1  6
 17 38  1  0
 18 39  1  0
 18 40  1  0
 18 41  1  0
 19 42  1  0
 19 43  1  0
 19 44  1  0
M  ISO  8  20  14  21  14  22  14  23  13  24  13  25  13  26  13  27  13
M  ISO  8  28  13  29  13  30  13  31  13  32   8  33   8  34  13  35  13
M  ISO  8  36  13  37  13  38   8  39   8  40   8  41   8  42   8  43   8
M  ISO  1  44   8
M  END
>  <minimizedAffinity>  (1) 
-4.71346569

>  <minimizedRMSD>  (1) 
1.0923686

$$$$
