
     RDKit          3D

 16 17  0  0  0  0  0  0  0  0999 V2000
   39.9950   22.7200   37.5360 C   0  0  0  0  0  0  0  0  0  0  0  0
   39.2180   23.3840   38.5100 C   0  0  0  0  0  0  0  0  0  0  0  0
   37.8420   23.5260   38.2800 C   0  0  0  0  0  0  0  0  0  0  0  0
   37.3300   23.0090   37.1190 N   0  0  0  0  0  0  0  0  0  0  0  0
   38.1060   22.3820   36.2150 C   0  0  0  0  0  0  0  0  0  0  0  0
   39.4310   22.2330   36.4130 N   0  0  0  0  0  0  0  0  0  0  0  0
   37.3940   21.8820   35.0150 C   0  0  0  0  0  0  0  0  0  0  0  0
   37.8070   22.1820   33.7180 C   0  0  0  0  0  0  0  0  0  0  0  0
   36.4780   21.2430   32.7590 S   0  0  0  0  0  0  0  0  0  0  0  0
   35.6460   20.6470   34.3750 C   0  0  0  0  0  0  0  0  0  0  0  0
   36.3380   21.1340   35.2680 N   0  0  0  0  0  0  0  0  0  0  0  0
   41.0765   22.5984   37.6960 H   0  0  0  0  0  0  0  0  0  0  0  0
   39.6803   23.7800   39.4262 H   0  0  0  0  0  0  0  0  0  0  0  0
   37.1944   24.0361   39.0083 H   0  0  0  0  0  0  0  0  0  0  0  0
   38.6541   22.7855   33.3598 H   0  0  0  0  0  0  0  0  0  0  0  0
   34.7530   20.0136   34.4815 H   0  0  0  0  0  0  0  0  0  0  0  0
  1  2  2  0
  3  2  1  0
  4  3  2  0
  5  6  2  0
  5  4  1  0
  6  1  1  0
  7 11  1  0
  7  5  1  0
  8  7  2  0
  9  8  1  0
  9 10  1  0
 10 11  2  0
  1 12  1  0
  2 13  1  0
  3 14  1  0
  8 15  1  0
 10 16  1  0
M  ISO  5  12  14  13  14  14  14  15  14  16  14
M  END
>  <minimizedAffinity>  (1) 
-3.46519327

>  <minimizedRMSD>  (1) 
0.977663398

$$$$
