
     RDKit          3D

 22 23  0  0  0  0  0  0  0  0999 V2000
   39.9960   22.7490   37.7820 C   0  0  0  0  0  0  0  0  0  0  0  0
   39.1470   23.3850   38.7060 C   0  0  0  0  0  0  0  0  0  0  0  0
   37.8440   23.7000   38.2970 C   0  0  0  0  0  0  0  0  0  0  0  0
   37.4530   23.3760   37.0160 N   0  0  0  0  0  0  0  0  0  0  0  0
   38.3190   22.7650   36.1760 C   0  0  0  0  0  0  0  0  0  0  0  0
   39.5640   22.4550   36.5470 N   0  0  0  0  0  0  0  0  0  0  0  0
   37.7470   22.4810   34.8300 C   0  0  0  0  0  0  0  0  0  0  0  0
   38.0450   23.2750   33.7170 C   0  0  0  0  0  0  0  0  0  0  0  0
   37.0160   22.3650   32.4300 S   0  0  0  0  0  0  0  0  0  0  0  0
   36.4080   21.0970   33.7190 C   0  0  0  0  0  0  0  0  0  0  0  0
   36.9510   21.4510   34.7530 N   0  0  0  0  0  0  0  0  0  0  0  0
   35.4860   20.0350   33.2630 C   0  0  0  0  0  0  0  0  0  0  0  0
   34.6780   20.4810   32.0670 C   0  0  0  0  0  0  0  0  0  0  0  0
   41.0241   22.4904   38.0754 H   0  0  0  0  0  0  0  0  0  0  0  0
   39.4958   23.6281   39.7205 H   0  0  0  0  0  0  0  0  0  0  0  0
   37.1458   24.1971   38.9864 H   0  0  0  0  0  0  0  0  0  0  0  0
   38.6870   24.1632   33.6226 H   0  0  0  0  0  0  0  0  0  0  0  0
   36.0726   19.1463   32.9871 H   0  0  0  0  0  0  0  0  0  0  0  0
   34.7906   19.8051   34.0837 H   0  0  0  0  0  0  0  0  0  0  0  0
   33.7631   20.9860   32.4103 H   0  0  0  0  0  0  0  0  0  0  0  0
   35.2753   21.1772   31.4599 H   0  0  0  0  0  0  0  0  0  0  0  0
   34.4073   19.6046   31.4599 H   0  0  0  0  0  0  0  0  0  0  0  0
  1  2  2  0
  3  2  1  0
  4  3  2  0
  5  6  2  0
  5  4  1  0
  6  1  1  0
  7  5  1  0
  8  7  2  0
  9  8  1  0
  9 10  1  0
 10 11  2  0
 11  7  1  0
 12 10  1  0
 13 12  1  0
  1 14  1  0
  2 15  1  0
  3 16  1  0
  8 17  1  0
 12 18  1  0
 12 19  1  0
 13 20  1  0
 13 21  1  0
 13 22  1  0
M  ISO  8  14  14  15  14  16  14  17  14  18   8  19   8  20   8  21   8
M  ISO  1  22   8
M  END
>  <minimizedAffinity>  (1) 
-4.07392311

>  <minimizedRMSD>  (1) 
0.914588988

$$$$
