
     RDKit          3D

 28 29  0  0  0  0  0  0  0  0999 V2000
   36.9540   24.0050   32.4240 C   0  0  0  0  0  0  0  0  0  0  0  0
   36.4380   25.1610   31.8400 C   0  0  0  0  0  0  0  0  0  0  0  0
   37.1590   26.4330   33.0140 S   0  0  0  0  0  0  0  0  0  0  0  0
   38.0190   25.0740   34.0580 C   0  0  0  0  0  0  0  0  0  0  0  0
   37.7070   24.0400   33.4900 N   0  0  0  0  0  0  0  0  0  0  0  0
   37.2380   20.7450   30.6630 C   0  0  0  0  0  0  0  0  0  0  0  0
   35.9980   20.1640   30.9770 C   0  0  0  0  0  0  0  0  0  0  0  0
   35.1060   20.8830   31.7700 C   0  0  0  0  0  0  0  0  0  0  0  0
   35.4990   22.1210   32.1950 N   0  0  0  0  0  0  0  0  0  0  0  0
   36.6860   22.6450   31.8780 C   0  0  0  0  0  0  0  0  0  0  0  0
   37.5780   21.9800   31.1120 N   0  0  0  0  0  0  0  0  0  0  0  0
   38.8040   25.5260   35.2210 C   0  0  0  0  0  0  0  0  0  0  0  0
   40.1590   24.8860   35.1220 C   0  0  0  0  0  0  0  0  0  0  0  0
   38.1850   25.0870   36.5350 C   0  0  0  0  0  0  0  0  0  0  0  0
   38.9290   27.0280   35.2770 C   0  0  0  0  0  0  0  0  0  0  0  0
   35.7984   25.2888   30.9543 H   0  0  0  0  0  0  0  0  0  0  0  0
   37.9502   20.1858   30.0385 H   0  0  0  0  0  0  0  0  0  0  0  0
   35.7368   19.1625   30.6046 H   0  0  0  0  0  0  0  0  0  0  0  0
   34.1237   20.4702   32.0433 H   0  0  0  0  0  0  0  0  0  0  0  0
   40.5516   24.7005   36.1327 H   0  0  0  0  0  0  0  0  0  0  0  0
   40.0753   23.9322   34.5804 H   0  0  0  0  0  0  0  0  0  0  0  0
   40.8425   25.5565   34.5804 H   0  0  0  0  0  0  0  0  0  0  0  0
   38.7680   25.5005   37.3712 H   0  0  0  0  0  0  0  0  0  0  0  0
   37.1496   25.4538   36.5932 H   0  0  0  0  0  0  0  0  0  0  0  0
   38.1887   23.9885   36.5932 H   0  0  0  0  0  0  0  0  0  0  0  0
   38.9562   27.3548   36.3270 H   0  0  0  0  0  0  0  0  0  0  0  0
   39.8560   27.3379   34.7724 H   0  0  0  0  0  0  0  0  0  0  0  0
   38.0659   27.4868   34.7724 H   0  0  0  0  0  0  0  0  0  0  0  0
  1  5  1  0
  2  1  2  0
  2  3  1  0
  3  4  1  0
  4 12  1  0
  5  4  2  0
  6  7  2  0
  6 11  1  0
  7  8  1  0
  8  9  2  0
 10  9  1  0
 10  1  1  0
 11 10  2  0
 12 15  1  0
 12 14  1  0
 13 12  1  0
  2 16  1  0
  6 17  1  0
  7 18  1  0
  8 19  1  0
 13 20  1  0
 13 21  1  0
 13 22  1  0
 14 23  1  0
 14 24  1  0
 14 25  1  0
 15 26  1  0
 15 27  1  0
 15 28  1  0
M  ISO  8  16  14  17  14  18  14  19  14  20   8  21   8  22   8  23   8
M  ISO  5  24   8  25   8  26   8  27   8  28   8
M  END
>  <minimizedAffinity>  (1) 
-3.93784738

>  <minimizedRMSD>  (1) 
6.47221136

$$$$
