
     RDKit          3D

 18 19  0  0  0  0  0  0  0  0999 V2000
   39.9980   22.7130   37.7080 C   0  0  0  0  0  0  0  0  0  0  0  0
   38.9770   23.3190   38.4860 C   0  0  0  0  0  0  0  0  0  0  0  0
   37.7010   23.4360   37.9360 C   0  0  0  0  0  0  0  0  0  0  0  0
   37.5100   22.9570   36.6670 N   0  0  0  0  0  0  0  0  0  0  0  0
   38.5040   22.3890   35.9630 C   0  0  0  0  0  0  0  0  0  0  0  0
   39.7370   22.2640   36.4680 N   0  0  0  0  0  0  0  0  0  0  0  0
   38.1080   21.9270   34.6020 C   0  0  0  0  0  0  0  0  0  0  0  0
   39.0110   21.9050   33.5300 C   0  0  0  0  0  0  0  0  0  0  0  0
   37.8700   21.2380   32.1960 S   0  0  0  0  0  0  0  0  0  0  0  0
   36.3940   21.1380   33.4240 C   0  0  0  0  0  0  0  0  0  0  0  0
   36.8650   21.5440   34.4820 N   0  0  0  0  0  0  0  0  0  0  0  0
   35.1580   20.6620   32.9310 N   0  0  0  0  0  0  0  0  0  0  0  0
   41.0114   22.6099   38.1232 H   0  0  0  0  0  0  0  0  0  0  0  0
   39.1878   23.6882   39.5005 H   0  0  0  0  0  0  0  0  0  0  0  0
   36.8772   23.8965   38.5010 H   0  0  0  0  0  0  0  0  0  0  0  0
   40.0717   22.1927   33.4840 H   0  0  0  0  0  0  0  0  0  0  0  0
   34.3446   20.5944   33.5592 H   0  0  0  0  0  0  0  0  0  0  0  0
   35.0706   20.3827   31.9435 H   0  0  0  0  0  0  0  0  0  0  0  0
  1  2  2  0
  3  2  1  0
  4  3  2  0
  5  6  2  0
  5  4  1  0
  6  1  1  0
  7  5  1  0
  8  7  2  0
  9 10  1  0
  9  8  1  0
 10 11  2  0
 11  7  1  0
 12 10  1  0
  1 13  1  0
  2 14  1  0
  3 15  1  0
  8 16  1  0
 12 17  1  0
 12 18  1  0
M  ISO  4  13  14  14  14  15  14  16  14
M  END
>  <minimizedAffinity>  (1) 
-3.67772102

>  <minimizedRMSD>  (1) 
0.954874396

$$$$
