
     RDKit          3D

 32 34  0  0  0  0  0  0  0  0999 V2000
   38.7960   22.4630   34.5440 C   0  0  0  0  0  0  0  0  0  0  0  0
   39.8740   21.9990   33.7960 C   0  0  0  0  0  0  0  0  0  0  0  0
   39.0330   21.8480   32.1320 S   0  0  0  0  0  0  0  0  0  0  0  0
   37.3640   22.4630   32.8370 C   0  0  0  0  0  0  0  0  0  0  0  0
   37.6320   22.6590   34.0150 N   0  0  0  0  0  0  0  0  0  0  0  0
   40.0100   22.8030   38.0460 C   0  0  0  0  0  0  0  0  0  0  0  0
   38.8780   23.4080   38.6550 C   0  0  0  0  0  0  0  0  0  0  0  0
   37.7690   23.6730   37.8690 C   0  0  0  0  0  0  0  0  0  0  0  0
   37.8070   23.3390   36.5350 N   0  0  0  0  0  0  0  0  0  0  0  0
   38.9000   22.7660   35.9970 C   0  0  0  0  0  0  0  0  0  0  0  0
   40.0070   22.4910   36.7320 N   0  0  0  0  0  0  0  0  0  0  0  0
   36.1870   22.5780   31.9390 C   0  0  0  0  0  0  0  0  0  0  0  0
   35.2760   21.3890   32.0770 C   0  0  0  0  0  0  0  0  0  0  0  0
   35.3110   20.7330   33.4210 C   0  0  0  0  0  0  0  0  0  0  0  0
   35.5530   19.2510   33.1730 C   0  0  0  0  0  0  0  0  0  0  0  0
   35.1160   19.0890   31.7340 C   0  0  0  0  0  0  0  0  0  0  0  0
   35.7340   20.3320   31.0850 C   0  0  0  0  0  0  0  0  0  0  0  0
   40.9109   21.7850   34.0943 H   0  0  0  0  0  0  0  0  0  0  0  0
   40.9012   22.5857   38.6531 H   0  0  0  0  0  0  0  0  0  0  0  0
   38.8823   23.6600   39.7257 H   0  0  0  0  0  0  0  0  0  0  0  0
   36.8739   24.1421   38.3035 H   0  0  0  0  0  0  0  0  0  0  0  0
   36.5357   22.6433   30.8978 H   0  0  0  0  0  0  0  0  0  0  0  0
   35.6241   23.4809   32.2182 H   0  0  0  0  0  0  0  0  0  0  0  0
   34.2563   21.7654   31.9080 H   0  0  0  0  0  0  0  0  0  0  0  0
   36.1255   21.1545   34.0284 H   0  0  0  0  0  0  0  0  0  0  0  0
   34.3705   20.8962   33.9676 H   0  0  0  0  0  0  0  0  0  0  0  0
   36.6154   18.9945   33.2979 H   0  0  0  0  0  0  0  0  0  0  0  0
   35.0159   18.5940   33.8729 H   0  0  0  0  0  0  0  0  0  0  0  0
   35.5175   18.1643   31.2939 H   0  0  0  0  0  0  0  0  0  0  0  0
   34.0268   19.0090   31.6024 H   0  0  0  0  0  0  0  0  0  0  0  0
   36.8308   20.2655   31.0338 H   0  0  0  0  0  0  0  0  0  0  0  0
   35.4374   20.5108   30.0410 H   0  0  0  0  0  0  0  0  0  0  0  0
  1 10  1  0
  2  1  2  0
  3  4  1  0
  3  2  1  0
  4  5  2  0
  5  1  1  0
  6  7  2  0
  8  7  1  0
  9  8  2  0
 10  9  1  0
 10 11  2  0
 11  6  1  0
 12 13  1  0
 12  4  1  0
 13 14  1  0
 15 14  1  0
 16 15  1  0
 17 16  1  0
 17 13  1  0
  2 18  1  0
  6 19  1  0
  7 20  1  0
  8 21  1  0
 12 22  1  0
 12 23  1  0
 13 24  1  0
 14 25  1  0
 14 26  1  0
 15 27  1  0
 15 28  1  0
 16 29  1  0
 16 30  1  0
 17 31  1  0
 17 32  1  0
M  ISO  8  18  14  19  14  20  14  21  14  22   8  23   8  24  13  25  13
M  ISO  7  26  13  27  13  28  13  29  13  30  13  31  13  32  13
M  END
>  <minimizedAffinity>  (1) 
-4.7358017

>  <minimizedRMSD>  (1) 
1.8916229

$$$$
