
     RDKit          3D

 29 31  0  0  0  0  0  0  0  0999 V2000
   37.8790   22.6090   34.5800 C   0  0  0  0  0  0  0  0  0  0  0  0
   38.2790   23.4250   33.5180 C   0  0  0  0  0  0  0  0  0  0  0  0
   37.2060   22.6870   32.1680 S   0  0  0  0  0  0  0  0  0  0  0  0
   36.4500   21.4230   33.3730 C   0  0  0  0  0  0  0  0  0  0  0  0
   37.0000   21.6690   34.4460 N   0  0  0  0  0  0  0  0  0  0  0  0
   40.1040   22.5960   37.5560 C   0  0  0  0  0  0  0  0  0  0  0  0
   39.2480   23.1600   38.5280 C   0  0  0  0  0  0  0  0  0  0  0  0
   37.9480   23.5230   38.1450 C   0  0  0  0  0  0  0  0  0  0  0  0
   37.5680   23.3160   36.8490 N   0  0  0  0  0  0  0  0  0  0  0  0
   38.4410   22.7660   35.9530 C   0  0  0  0  0  0  0  0  0  0  0  0
   39.6960   22.4030   36.2770 N   0  0  0  0  0  0  0  0  0  0  0  0
   35.4320   20.4700   32.8650 C   0  0  0  0  0  0  0  0  0  0  0  0
   35.9900   19.1600   32.4720 C   0  0  0  0  0  0  0  0  0  0  0  0
   37.2450   19.0420   31.9180 C   0  0  0  0  0  0  0  0  0  0  0  0
   37.7080   17.7920   31.5730 C   0  0  0  0  0  0  0  0  0  0  0  0
   36.9150   16.6690   31.7830 C   0  0  0  0  0  0  0  0  0  0  0  0
   35.6440   16.7480   32.3390 C   0  0  0  0  0  0  0  0  0  0  0  0
   35.2200   18.0250   32.6700 C   0  0  0  0  0  0  0  0  0  0  0  0
   39.0045   24.2511   33.4841 H   0  0  0  0  0  0  0  0  0  0  0  0
   41.1256   22.3065   37.8432 H   0  0  0  0  0  0  0  0  0  0  0  0
   39.5928   23.3111   39.5616 H   0  0  0  0  0  0  0  0  0  0  0  0
   37.2503   23.9644   38.8719 H   0  0  0  0  0  0  0  0  0  0  0  0
   34.6844   20.3063   33.6552 H   0  0  0  0  0  0  0  0  0  0  0  0
   34.9948   20.9180   31.9605 H   0  0  0  0  0  0  0  0  0  0  0  0
   37.8685   19.9332   31.7535 H   0  0  0  0  0  0  0  0  0  0  0  0
   38.7086   17.6813   31.1297 H   0  0  0  0  0  0  0  0  0  0  0  0
   37.3084   15.6819   31.4985 H   0  0  0  0  0  0  0  0  0  0  0  0
   35.0181   15.8588   32.5048 H   0  0  0  0  0  0  0  0  0  0  0  0
   34.2202   18.1440   33.1130 H   0  0  0  0  0  0  0  0  0  0  0  0
  1 10  1  0
  2  1  2  0
  3  4  1  0
  3  2  1  0
  4  5  2  0
  5  1  1  0
  6  7  2  0
  8  7  1  0
  9  8  2  0
 10 11  2  0
 10  9  1  0
 11  6  1  0
 12  4  1  0
 13 18  1  0
 13 12  1  0
 14 13  2  0
 15 16  2  0
 15 14  1  0
 16 17  1  0
 17 18  2  0
  2 19  1  0
  6 20  1  0
  7 21  1  0
  8 22  1  0
 12 23  1  0
 12 24  1  0
 14 25  1  0
 15 26  1  0
 16 27  1  0
 17 28  1  0
 18 29  1  0
M  ISO  8  19  14  20  14  21  14  22  14  23   8  24   8  25  14  26  14
M  ISO  3  27  14  28  14  29  14
M  END
>  <minimizedAffinity>  (1) 
-4.91182137

>  <minimizedRMSD>  (1) 
0.349375933

$$$$
