
     RDKit          3D

 34 36  0  0  0  0  0  0  0  0999 V2000
   37.7890   22.2340   35.3850 C   0  0  0  0  0  0  0  0  0  0  0  0
   37.2050   22.5550   36.6120 C   0  0  0  0  0  0  0  0  0  0  0  0
   38.7040   23.3840   37.4040 S   0  0  0  0  0  0  0  0  0  0  0  0
   39.7760   23.0940   35.8610 C   0  0  0  0  0  0  0  0  0  0  0  0
   39.0180   22.5190   35.0910 N   0  0  0  0  0  0  0  0  0  0  0  0
   35.3090   20.1740   33.5040 C   0  0  0  0  0  0  0  0  0  0  0  0
   35.8160   20.3430   32.1730 C   0  0  0  0  0  0  0  0  0  0  0  0
   36.9570   21.1330   31.9710 C   0  0  0  0  0  0  0  0  0  0  0  0
   37.5210   21.7000   33.0680 N   0  0  0  0  0  0  0  0  0  0  0  0
   37.0310   21.5300   34.3100 C   0  0  0  0  0  0  0  0  0  0  0  0
   35.9270   20.7740   34.5610 N   0  0  0  0  0  0  0  0  0  0  0  0
   41.1770   23.5620   35.8940 C   0  0  0  0  0  0  0  0  0  0  0  0
   42.0220   22.8780   36.8220 N   0  0  0  0  0  0  0  0  0  0  0  0
   41.7530   21.5260   37.0820 C   0  0  0  0  0  0  0  0  0  0  0  0
   42.6720   20.5080   36.4940 C   0  0  0  0  0  0  0  0  0  0  0  0
   44.0300   20.9720   36.1280 C   0  0  0  0  0  0  0  0  0  0  0  0
   43.9090   22.3340   35.4800 C   0  0  0  0  0  0  0  0  0  0  0  0
   43.3920   23.2400   36.5990 C   0  0  0  0  0  0  0  0  0  0  0  0
   36.1894   22.3796   36.9965 H   0  0  0  0  0  0  0  0  0  0  0  0
   34.4150   19.5558   33.6733 H   0  0  0  0  0  0  0  0  0  0  0  0
   35.3160   19.8589   31.3211 H   0  0  0  0  0  0  0  0  0  0  0  0
   37.3772   21.2867   30.9661 H   0  0  0  0  0  0  0  0  0  0  0  0
   41.6027   23.4351   34.8877 H   0  0  0  0  0  0  0  0  0  0  0  0
   41.1426   24.6103   36.2255 H   0  0  0  0  0  0  0  0  0  0  0  0
   41.7705   21.3921   38.1737 H   0  0  0  0  0  0  0  0  0  0  0  0
   40.7842   21.3380   36.5961 H   0  0  0  0  0  0  0  0  0  0  0  0
   42.7834   19.6960   37.2276 H   0  0  0  0  0  0  0  0  0  0  0  0
   42.2030   20.2081   35.5453 H   0  0  0  0  0  0  0  0  0  0  0  0
   44.6542   21.0439   37.0309 H   0  0  0  0  0  0  0  0  0  0  0  0
   44.4979   20.2613   35.4310 H   0  0  0  0  0  0  0  0  0  0  0  0
   44.8878   22.6817   35.1179 H   0  0  0  0  0  0  0  0  0  0  0  0
   43.2430   22.3254   34.6046 H   0  0  0  0  0  0  0  0  0  0  0  0
   43.9796   23.0834   37.5156 H   0  0  0  0  0  0  0  0  0  0  0  0
   43.4811   24.3009   36.3224 H   0  0  0  0  0  0  0  0  0  0  0  0
  1  2  2  0
  2  3  1  0
  4 12  1  0
  4  3  1  0
  5  1  1  0
  5  4  2  0
  6 11  2  0
  7  6  1  0
  8  7  2  0
  8  9  1  0
  9 10  2  0
 10 11  1  0
 10  1  1  0
 12 13  1  0
 13 14  1  0
 15 14  1  0
 16 15  1  0
 17 16  1  0
 17 18  1  0
 18 13  1  0
  2 19  1  0
  6 20  1  0
  7 21  1  0
  8 22  1  0
 12 23  1  0
 12 24  1  0
 14 25  1  0
 14 26  1  0
 15 27  1  0
 15 28  1  0
 16 29  1  0
 16 30  1  0
 17 31  1  0
 17 32  1  0
 18 33  1  0
 18 34  1  0
M  ISO  8  19  14  20  14  21  14  22  14  23   8  24   8  25  13  26  13
M  ISO  8  27  13  28  13  29  13  30  13  31  13  32  13  33  13  34  13
M  END
>  <minimizedAffinity>  (1) 
-3.92702317

>  <minimizedRMSD>  (1) 
7.54430389

$$$$
