
     RDKit          3D

 20 21  0  0  0  0  0  0  0  0999 V2000
   37.8060   22.4720   34.7100 C   0  0  0  0  0  0  0  0  0  0  0  0
   38.1460   23.2150   33.6010 C   0  0  0  0  0  0  0  0  0  0  0  0
   37.0850   22.3420   32.3280 S   0  0  0  0  0  0  0  0  0  0  0  0
   36.4010   21.1350   33.6070 C   0  0  0  0  0  0  0  0  0  0  0  0
   36.9630   21.4930   34.6300 N   0  0  0  0  0  0  0  0  0  0  0  0
   40.0330   22.6620   37.6840 C   0  0  0  0  0  0  0  0  0  0  0  0
   39.1580   23.3000   38.6130 C   0  0  0  0  0  0  0  0  0  0  0  0
   37.8780   23.6350   38.2060 C   0  0  0  0  0  0  0  0  0  0  0  0
   37.5000   23.3380   36.9250 N   0  0  0  0  0  0  0  0  0  0  0  0
   38.3690   22.7270   36.0730 C   0  0  0  0  0  0  0  0  0  0  0  0
   39.6220   22.3840   36.4240 N   0  0  0  0  0  0  0  0  0  0  0  0
   35.4260   20.1160   33.1430 C   0  0  0  0  0  0  0  0  0  0  0  0
   36.2960   19.1900   31.8930 S   0  0  0  0  0  0  0  0  0  0  0  0
   38.8345   24.0663   33.4948 H   0  0  0  0  0  0  0  0  0  0  0  0
   41.0532   22.3928   37.9949 H   0  0  0  0  0  0  0  0  0  0  0  0
   39.4951   23.5221   39.6362 H   0  0  0  0  0  0  0  0  0  0  0  0
   37.1798   24.1293   38.8975 H   0  0  0  0  0  0  0  0  0  0  0  0
   35.1266   19.4597   33.9734 H   0  0  0  0  0  0  0  0  0  0  0  0
   34.5025   20.5709   32.7555 H   0  0  0  0  0  0  0  0  0  0  0  0
   37.1392   18.2926   32.4935 H   0  0  0  0  0  0  0  0  0  0  0  0
  1 10  1  0
  2  1  2  0
  3  2  1  0
  3  4  1  0
  4  5  2  0
  5  1  1  0
  6  7  2  0
  8  7  1  0
  9  8  2  0
 10 11  2  0
 10  9  1  0
 11  6  1  0
 12  4  1  0
 13 12  1  0
  2 14  1  0
  6 15  1  0
  7 16  1  0
  8 17  1  0
 12 18  1  0
 12 19  1  0
 13 20  1  0
M  ISO  7  14  14  15  14  16  14  17  14  18   8  19   8  20  11
M  END
>  <minimizedAffinity>  (1) 
-3.70062041

>  <minimizedRMSD>  (1) 
0.252443433

$$$$
