
     RDKit          3D

 17 18  0  0  0  0  0  0  0  0999 V2000
   37.0480   21.8790   33.6930 C   0  0  0  0  0  0  0  0  0  0  0  0
   36.0670   20.8870   33.8710 C   0  0  0  0  0  0  0  0  0  0  0  0
   35.2000   20.6380   32.7880 C   0  0  0  0  0  0  0  0  0  0  0  0
   35.3680   21.3660   31.6540 N   0  0  0  0  0  0  0  0  0  0  0  0
   36.3200   22.3080   31.5220 C   0  0  0  0  0  0  0  0  0  0  0  0
   37.1650   22.5640   32.5520 N   0  0  0  0  0  0  0  0  0  0  0  0
   37.9930   22.2070   34.7630 C   0  0  0  0  0  0  0  0  0  0  0  0
   39.3750   22.1500   34.6860 C   0  0  0  0  0  0  0  0  0  0  0  0
   40.0810   22.4980   35.8010 C   0  0  0  0  0  0  0  0  0  0  0  0
   39.4000   22.8770   36.9170 C   0  0  0  0  0  0  0  0  0  0  0  0
   37.6160   22.7420   36.3790 S   0  0  0  0  0  0  0  0  0  0  0  0
   35.9801   20.3293   34.8151 H   0  0  0  0  0  0  0  0  0  0  0  0
   34.4100   19.8759   32.8593 H   0  0  0  0  0  0  0  0  0  0  0  0
   36.4128   22.8694   30.5806 H   0  0  0  0  0  0  0  0  0  0  0  0
   39.8835   21.8365   33.7623 H   0  0  0  0  0  0  0  0  0  0  0  0
   41.1807   22.4727   35.7978 H   0  0  0  0  0  0  0  0  0  0  0  0
   39.8008   23.1862   37.8936 H   0  0  0  0  0  0  0  0  0  0  0  0
  1  2  2  0
  1  7  1  0
  3  2  1  0
  4  3  2  0
  5  4  1  0
  5  6  2  0
  6  1  1  0
  7 11  1  0
  8  7  2  0
  8  9  1  0
  9 10  2  0
 11 10  1  0
  2 12  1  0
  3 13  1  0
  5 14  1  0
  8 15  1  0
  9 16  1  0
 10 17  1  0
M  ISO  6  12  14  13  14  14  14  15  14  16  14  17  14
M  END
>  <minimizedAffinity>  (1) 
-2.93469691

>  <minimizedRMSD>  (1) 
5.21456909

$$$$
