
     RDKit          3D

 35 38  0  0  0  0  0  0  0  0999 V2000
   35.3400   20.5260   32.9320 C   0  0  0  0  0  0  0  0  0  0  0  0
   35.7440   19.2000   32.5370 N   0  0  0  0  0  0  0  0  0  0  0  0
   36.9220   18.8660   31.9480 C   0  0  0  0  0  0  0  0  0  0  0  0
   36.9070   17.5490   31.7480 N   0  0  0  0  0  0  0  0  0  0  0  0
   35.7330   17.0470   32.2030 C   0  0  0  0  0  0  0  0  0  0  0  0
   35.0340   18.0990   32.6870 N   0  0  0  0  0  0  0  0  0  0  0  0
   35.5490   15.6400   32.0630 N   0  0  0  0  0  0  0  0  0  0  0  0
   34.9220   15.1010   33.1440 C   0  0  0  0  0  0  0  0  0  0  0  0
   34.6700   13.7340   33.1600 C   0  0  0  0  0  0  0  0  0  0  0  0
   35.0570   12.9510   32.0870 C   0  0  0  0  0  0  0  0  0  0  0  0
   34.8450   11.7090   32.0650 O   0  0  0  0  0  0  0  0  0  0  0  0
   35.6790   13.5550   31.0390 N   0  0  0  0  0  0  0  0  0  0  0  0
   35.9190   14.8750   31.0320 C   0  0  0  0  0  0  0  0  0  0  0  0
   36.4830   15.5210   30.1200 O   0  0  0  0  0  0  0  0  0  0  0  0
   38.0240   22.4670   34.5590 C   0  0  0  0  0  0  0  0  0  0  0  0
   38.5960   23.0710   33.4500 C   0  0  0  0  0  0  0  0  0  0  0  0
   37.4800   22.3500   32.1200 S   0  0  0  0  0  0  0  0  0  0  0  0
   36.4740   21.3750   33.3900 C   0  0  0  0  0  0  0  0  0  0  0  0
   37.0180   21.6730   34.4470 N   0  0  0  0  0  0  0  0  0  0  0  0
   40.1200   22.6150   37.6270 C   0  0  0  0  0  0  0  0  0  0  0  0
   39.2120   23.1860   38.5520 C   0  0  0  0  0  0  0  0  0  0  0  0
   37.9360   23.4910   38.0850 C   0  0  0  0  0  0  0  0  0  0  0  0
   37.6020   23.2380   36.7850 N   0  0  0  0  0  0  0  0  0  0  0  0
   38.5280   22.6870   35.9510 C   0  0  0  0  0  0  0  0  0  0  0  0
   39.7660   22.3740   36.3410 N   0  0  0  0  0  0  0  0  0  0  0  0
   34.6143   20.4395   33.7541 H   0  0  0  0  0  0  0  0  0  0  0  0
   34.9062   21.0121   32.0457 H   0  0  0  0  0  0  0  0  0  0  0  0
   37.7375   19.5557   31.6849 H   0  0  0  0  0  0  0  0  0  0  0  0
   34.6200   15.7358   33.9901 H   0  0  0  0  0  0  0  0  0  0  0  0
   34.1645   13.2763   34.0231 H   0  0  0  0  0  0  0  0  0  0  0  0
   35.9725   12.9859   30.2322 H   0  0  0  0  0  0  0  0  0  0  0  0
   39.4469   23.7637   33.3718 H   0  0  0  0  0  0  0  0  0  0  0  0
   41.1370   22.3610   37.9603 H   0  0  0  0  0  0  0  0  0  0  0  0
   39.5024   23.3803   39.5950 H   0  0  0  0  0  0  0  0  0  0  0  0
   37.1951   23.9369   38.7649 H   0  0  0  0  0  0  0  0  0  0  0  0
  1 18  1  0
  2  6  1  0
  2  1  1  0
  3  2  1  0
  4  3  2  0
  4  5  1  0
  5  6  2  0
  7  5  1  0
  7  8  1  0
  8  9  2  0
 10  9  1  0
 11 10  2  0
 12 10  1  0
 13 12  1  0
 13  7  1  0
 14 13  2  0
 15 24  1  0
 16 15  2  0
 17 18  1  0
 17 16  1  0
 18 19  2  0
 19 15  1  0
 20 21  2  0
 22 21  1  0
 23 22  2  0
 24 25  2  0
 24 23  1  0
 25 20  1  0
  1 26  1  0
  1 27  1  0
  3 28  1  0
  8 29  1  0
  9 30  1  0
 12 31  1  0
 16 32  1  0
 20 33  1  0
 21 34  1  0
 22 35  1  0
M  ISO  8  26   8  27   8  28  14  29  14  30  14  31   9  32  14  33  14
M  ISO  2  34  14  35  14
M  END
>  <minimizedAffinity>  (1) 
-5.15370941

>  <minimizedRMSD>  (1) 
0.332177699

$$$$
