
     RDKit          3D

 38 41  0  0  0  0  0  0  0  0999 V2000
   35.6940   20.7430   32.4970 C   0  0  0  0  0  0  0  0  0  0  0  0
   35.8950   19.3310   32.3560 N   0  0  0  0  0  0  0  0  0  0  0  0
   36.9630   18.7430   31.7700 C   0  0  0  0  0  0  0  0  0  0  0  0
   36.7730   17.4110   31.8400 N   0  0  0  0  0  0  0  0  0  0  0  0
   35.5910   17.1680   32.4690 C   0  0  0  0  0  0  0  0  0  0  0  0
   35.0740   18.3820   32.7740 N   0  0  0  0  0  0  0  0  0  0  0  0
   35.2760   15.7970   32.6060 N   0  0  0  0  0  0  0  0  0  0  0  0
   34.5430   15.4200   33.6820 C   0  0  0  0  0  0  0  0  0  0  0  0
   34.2000   14.1050   33.8800 C   0  0  0  0  0  0  0  0  0  0  0  0
   33.4000   13.6020   35.0280 C   0  0  0  0  0  0  0  0  0  0  0  0
   34.6230   13.1580   32.9460 C   0  0  0  0  0  0  0  0  0  0  0  0
   34.3830   11.9180   33.0000 O   0  0  0  0  0  0  0  0  0  0  0  0
   35.3560   13.5680   31.8820 N   0  0  0  0  0  0  0  0  0  0  0  0
   35.6910   14.8790   31.6950 C   0  0  0  0  0  0  0  0  0  0  0  0
   36.3730   15.2240   30.6940 O   0  0  0  0  0  0  0  0  0  0  0  0
   38.3570   22.3960   34.4630 C   0  0  0  0  0  0  0  0  0  0  0  0
   39.2050   22.7900   33.4400 C   0  0  0  0  0  0  0  0  0  0  0  0
   38.2340   22.1280   31.9760 S   0  0  0  0  0  0  0  0  0  0  0  0
   36.8710   21.4510   33.0970 C   0  0  0  0  0  0  0  0  0  0  0  0
   37.2570   21.7580   34.2170 N   0  0  0  0  0  0  0  0  0  0  0  0
   39.9720   22.7330   37.7970 C   0  0  0  0  0  0  0  0  0  0  0  0
   38.9020   23.2690   38.5550 C   0  0  0  0  0  0  0  0  0  0  0  0
   37.7030   23.4880   37.9180 C   0  0  0  0  0  0  0  0  0  0  0  0
   37.5720   23.1870   36.5770 N   0  0  0  0  0  0  0  0  0  0  0  0
   38.6430   22.6720   35.8980 C   0  0  0  0  0  0  0  0  0  0  0  0
   39.8390   22.4370   36.4720 N   0  0  0  0  0  0  0  0  0  0  0  0
   34.8197   20.9086   33.1437 H   0  0  0  0  0  0  0  0  0  0  0  0
   35.5457   21.1540   31.4875 H   0  0  0  0  0  0  0  0  0  0  0  0
   37.8256   19.2565   31.3203 H   0  0  0  0  0  0  0  0  0  0  0  0
   34.2177   16.1794   34.4082 H   0  0  0  0  0  0  0  0  0  0  0  0
   33.8806   13.9042   35.9702 H   0  0  0  0  0  0  0  0  0  0  0  0
   32.3857   14.0252   34.9815 H   0  0  0  0  0  0  0  0  0  0  0  0
   33.3419   12.5045   34.9815 H   0  0  0  0  0  0  0  0  0  0  0  0
   35.6700   12.8695   31.1933 H   0  0  0  0  0  0  0  0  0  0  0  0
   40.1626   23.3302   33.4754 H   0  0  0  0  0  0  0  0  0  0  0  0
   40.9377   22.5502   38.2910 H   0  0  0  0  0  0  0  0  0  0  0  0
   39.0266   23.5033   39.6225 H   0  0  0  0  0  0  0  0  0  0  0  0
   36.8501   23.9021   38.4758 H   0  0  0  0  0  0  0  0  0  0  0  0
  1 19  1  0
  2  1  1  0
  2  6  1  0
  3  4  2  0
  3  2  1  0
  4  5  1  0
  5  7  1  0
  5  6  2  0
  7  8  1  0
  8  9  2  0
  9 10  1  0
 11 12  2  0
 11  9  1  0
 13 11  1  0
 14 13  1  0
 14  7  1  0
 15 14  2  0
 16 25  1  0
 17 16  2  0
 18 19  1  0
 18 17  1  0
 19 20  2  0
 20 16  1  0
 21 22  2  0
 23 22  1  0
 24 23  2  0
 25 26  2  0
 25 24  1  0
 26 21  1  0
  1 27  1  0
  1 28  1  0
  3 29  1  0
  8 30  1  0
 10 31  1  0
 10 32  1  0
 10 33  1  0
 13 34  1  0
 17 35  1  0
 21 36  1  0
 22 37  1  0
 23 38  1  0
M  ISO  8  27   8  28   8  29  14  30  14  31   8  32   8  33   8  34   9
M  ISO  4  35  14  36  14  37  14  38  14
M  END
>  <minimizedAffinity>  (1) 
-5.33423471

>  <minimizedRMSD>  (1) 
0.961229861

$$$$
