
     RDKit          3D

 40 43  0  0  0  0  0  0  0  0999 V2000
   35.2850   20.3810   32.8830 C   0  0  0  0  0  0  0  0  0  0  0  0
   35.7840   19.0850   32.5150 N   0  0  0  0  0  0  0  0  0  0  0  0
   36.9430   18.8310   31.8820 C   0  0  0  0  0  0  0  0  0  0  0  0
   37.0540   17.5160   31.7170 N   0  0  0  0  0  0  0  0  0  0  0  0
   35.9560   16.9080   32.2510 C   0  0  0  0  0  0  0  0  0  0  0  0
   35.2200   17.9180   32.7200 N   0  0  0  0  0  0  0  0  0  0  0  0
   35.7090   15.5040   32.2700 N   0  0  0  0  0  0  0  0  0  0  0  0
   36.6890   14.6890   32.9650 C   0  0  0  0  0  0  0  0  0  0  0  0
   36.3130   13.2420   33.0360 C   0  0  0  0  0  0  0  0  0  0  0  0
   34.8530   13.1640   33.3440 C   0  0  0  0  0  0  0  0  0  0  0  0
   34.0690   13.6680   32.1660 C   0  0  0  0  0  0  0  0  0  0  0  0
   34.5450   14.9720   31.6250 C   0  0  0  0  0  0  0  0  0  0  0  0
   37.8550   22.4970   34.4710 C   0  0  0  0  0  0  0  0  0  0  0  0
   38.3020   23.2060   33.3780 C   0  0  0  0  0  0  0  0  0  0  0  0
   37.1980   22.4530   32.0660 S   0  0  0  0  0  0  0  0  0  0  0  0
   36.3500   21.3120   33.3230 C   0  0  0  0  0  0  0  0  0  0  0  0
   36.9180   21.6090   34.3680 N   0  0  0  0  0  0  0  0  0  0  0  0
   40.0540   22.5980   37.4720 C   0  0  0  0  0  0  0  0  0  0  0  0
   39.1760   23.1560   38.4360 C   0  0  0  0  0  0  0  0  0  0  0  0
   37.8890   23.4700   38.0260 C   0  0  0  0  0  0  0  0  0  0  0  0
   37.5100   23.2360   36.7260 N   0  0  0  0  0  0  0  0  0  0  0  0
   38.4090   22.6960   35.8540 C   0  0  0  0  0  0  0  0  0  0  0  0
   39.6650   22.3730   36.1900 N   0  0  0  0  0  0  0  0  0  0  0  0
   34.5658   20.2581   33.7062 H   0  0  0  0  0  0  0  0  0  0  0  0
   34.8175   20.8179   31.9883 H   0  0  0  0  0  0  0  0  0  0  0  0
   37.6756   19.5839   31.5557 H   0  0  0  0  0  0  0  0  0  0  0  0
   37.6508   14.7743   32.4380 H   0  0  0  0  0  0  0  0  0  0  0  0
   36.7479   15.0612   33.9984 H   0  0  0  0  0  0  0  0  0  0  0  0
   36.5186   12.7542   32.0717 H   0  0  0  0  0  0  0  0  0  0  0  0
   36.8978   12.7308   33.8149 H   0  0  0  0  0  0  0  0  0  0  0  0
   34.5762   12.1194   33.5497 H   0  0  0  0  0  0  0  0  0  0  0  0
   34.6293   13.7813   34.2266 H   0  0  0  0  0  0  0  0  0  0  0  0
   34.1328   12.9183   31.3636 H   0  0  0  0  0  0  0  0  0  0  0  0
   33.0398   13.8303   32.5189 H   0  0  0  0  0  0  0  0  0  0  0  0
   34.7777   14.8351   30.5587 H   0  0  0  0  0  0  0  0  0  0  0  0
   33.7353   15.6946   31.8046 H   0  0  0  0  0  0  0  0  0  0  0  0
   39.0766   23.9830   33.2992 H   0  0  0  0  0  0  0  0  0  0  0  0
   41.0805   22.3397   37.7713 H   0  0  0  0  0  0  0  0  0  0  0  0
   39.5039   23.3332   39.4709 H   0  0  0  0  0  0  0  0  0  0  0  0
   37.1736   23.9051   38.7393 H   0  0  0  0  0  0  0  0  0  0  0  0
  1 16  1  0
  2  6  1  0
  2  1  1  0
  3  2  1  0
  4  3  2  0
  4  5  1  0
  5  7  1  0
  5  6  2  0
  7  8  1  0
  8  9  1  0
  9 10  1  0
 11 10  1  0
 12 11  1  0
 12  7  1  0
 13 22  1  0
 14 13  2  0
 15 16  1  0
 15 14  1  0
 16 17  2  0
 17 13  1  0
 18 19  2  0
 20 19  1  0
 21 20  2  0
 22 23  2  0
 22 21  1  0
 23 18  1  0
  1 24  1  0
  1 25  1  0
  3 26  1  0
  8 27  1  0
  8 28  1  0
  9 29  1  0
  9 30  1  0
 10 31  1  0
 10 32  1  0
 11 33  1  0
 11 34  1  0
 12 35  1  0
 12 36  1  0
 14 37  1  0
 18 38  1  0
 19 39  1  0
 20 40  1  0
M  ISO  8  24   8  25   8  26  14  27  13  28  13  29  13  30  13  31  13
M  ISO  8  32  13  33  13  34  13  35  13  36  13  37  14  38  14  39  14
M  ISO  1  40  14
M  END
>  <minimizedAffinity>  (1) 
-5.09626722

>  <minimizedRMSD>  (1) 
0.104377642

$$$$
