
     RDKit          3D

 37 40  0  0  0  0  0  0  0  0999 V2000
   37.9180   22.5040   34.5900 C   0  0  0  0  0  0  0  0  0  0  0  0
   38.3940   23.1940   33.4950 C   0  0  0  0  0  0  0  0  0  0  0  0
   37.2810   22.4520   32.1840 S   0  0  0  0  0  0  0  0  0  0  0  0
   36.3980   21.3460   33.4380 C   0  0  0  0  0  0  0  0  0  0  0  0
   36.9630   21.6350   34.4930 N   0  0  0  0  0  0  0  0  0  0  0  0
   40.1130   22.5870   37.5920 C   0  0  0  0  0  0  0  0  0  0  0  0
   39.2440   23.1710   38.5500 C   0  0  0  0  0  0  0  0  0  0  0  0
   37.9640   23.5050   38.1330 C   0  0  0  0  0  0  0  0  0  0  0  0
   37.5730   23.2720   36.8360 N   0  0  0  0  0  0  0  0  0  0  0  0
   38.4690   22.7060   35.9730 C   0  0  0  0  0  0  0  0  0  0  0  0
   39.7150   22.3620   36.3160 N   0  0  0  0  0  0  0  0  0  0  0  0
   35.3120   20.4340   33.0000 C   0  0  0  0  0  0  0  0  0  0  0  0
   35.7890   19.1530   32.5590 N   0  0  0  0  0  0  0  0  0  0  0  0
   36.8860   18.9400   31.7880 C   0  0  0  0  0  0  0  0  0  0  0  0
   36.9950   17.6100   31.5950 N   0  0  0  0  0  0  0  0  0  0  0  0
   35.9800   17.0060   32.2370 C   0  0  0  0  0  0  0  0  0  0  0  0
   35.2570   17.9660   32.8180 N   0  0  0  0  0  0  0  0  0  0  0  0
   35.7630   15.5990   32.2600 N   0  0  0  0  0  0  0  0  0  0  0  0
   34.7380   14.9030   31.5020 C   0  0  0  0  0  0  0  0  0  0  0  0
   34.2010   13.9490   32.5500 C   0  0  0  0  0  0  0  0  0  0  0  0
   35.3520   13.7420   33.5120 C   0  0  0  0  0  0  0  0  0  0  0  0
   36.5000   14.6070   33.0230 C   0  0  0  0  0  0  0  0  0  0  0  0
   39.1877   23.9515   33.4155 H   0  0  0  0  0  0  0  0  0  0  0  0
   41.1344   22.3102   37.8923 H   0  0  0  0  0  0  0  0  0  0  0  0
   39.5730   23.3519   39.5839 H   0  0  0  0  0  0  0  0  0  0  0  0
   37.2580   23.9588   38.8441 H   0  0  0  0  0  0  0  0  0  0  0  0
   34.6246   20.2787   33.8446 H   0  0  0  0  0  0  0  0  0  0  0  0
   34.8138   20.9091   32.1420 H   0  0  0  0  0  0  0  0  0  0  0  0
   37.5627   19.7119   31.3927 H   0  0  0  0  0  0  0  0  0  0  0  0
   33.9588   15.5937   31.1473 H   0  0  0  0  0  0  0  0  0  0  0  0
   35.1043   14.4129   30.5878 H   0  0  0  0  0  0  0  0  0  0  0  0
   33.3371   14.3899   33.0688 H   0  0  0  0  0  0  0  0  0  0  0  0
   33.8526   13.0029   32.1102 H   0  0  0  0  0  0  0  0  0  0  0  0
   35.0556   14.0459   34.5268 H   0  0  0  0  0  0  0  0  0  0  0  0
   35.6467   12.6829   33.5495 H   0  0  0  0  0  0  0  0  0  0  0  0
   37.1969   14.0396   32.3887 H   0  0  0  0  0  0  0  0  0  0  0  0
   37.1414   15.0168   33.8171 H   0  0  0  0  0  0  0  0  0  0  0  0
  1 10  1  0
  2  1  2  0
  3  4  1  0
  3  2  1  0
  4  5  2  0
  5  1  1  0
  6  7  2  0
  8  7  1  0
  9  8  2  0
 10 11  2  0
 10  9  1  0
 11  6  1  0
 12  4  1  0
 13 17  1  0
 13 12  1  0
 14 13  1  0
 15 14  2  0
 15 16  1  0
 16 18  1  0
 16 17  2  0
 18 22  1  0
 19 18  1  0
 19 20  1  0
 20 21  1  0
 22 21  1  0
  2 23  1  0
  6 24  1  0
  7 25  1  0
  8 26  1  0
 12 27  1  0
 12 28  1  0
 14 29  1  0
 19 30  1  0
 19 31  1  0
 20 32  1  0
 20 33  1  0
 21 34  1  0
 21 35  1  0
 22 36  1  0
 22 37  1  0
M  ISO  8  23  14  24  14  25  14  26  14  27   8  28   8  29  14  30  13
M  ISO  7  31  13  32  13  33  13  34  13  35  13  36  13  37  13
M  END
>  <minimizedAffinity>  (1) 
-5.07686663

>  <minimizedRMSD>  (1) 
0.0957458764

$$$$
