
     RDKit          3D

 32 35  0  0  0  0  0  0  0  0999 V2000
   38.0370   22.5290   34.4780 C   0  0  0  0  0  0  0  0  0  0  0  0
   38.6240   23.1570   33.3840 C   0  0  0  0  0  0  0  0  0  0  0  0
   37.5500   22.4660   32.0140 S   0  0  0  0  0  0  0  0  0  0  0  0
   36.5150   21.4540   33.2480 C   0  0  0  0  0  0  0  0  0  0  0  0
   37.0340   21.7330   34.3130 N   0  0  0  0  0  0  0  0  0  0  0  0
   40.0670   22.6250   37.5880 C   0  0  0  0  0  0  0  0  0  0  0  0
   39.1250   23.1710   38.5030 C   0  0  0  0  0  0  0  0  0  0  0  0
   37.8680   23.4760   38.0230 C   0  0  0  0  0  0  0  0  0  0  0  0
   37.5710   23.2470   36.7090 N   0  0  0  0  0  0  0  0  0  0  0  0
   38.5070   22.7240   35.8800 C   0  0  0  0  0  0  0  0  0  0  0  0
   39.7460   22.4080   36.2840 N   0  0  0  0  0  0  0  0  0  0  0  0
   35.3950   20.6100   32.7370 C   0  0  0  0  0  0  0  0  0  0  0  0
   35.7810   19.2530   32.4690 N   0  0  0  0  0  0  0  0  0  0  0  0
   36.9430   18.8770   31.8980 C   0  0  0  0  0  0  0  0  0  0  0  0
   36.9500   17.5400   31.8060 N   0  0  0  0  0  0  0  0  0  0  0  0
   35.7760   17.0810   32.3260 C   0  0  0  0  0  0  0  0  0  0  0  0
   35.0970   18.1600   32.7170 N   0  0  0  0  0  0  0  0  0  0  0  0
   35.4080   15.6550   32.4050 C   0  0  0  0  0  0  0  0  0  0  0  0
   34.7620   14.9330   33.3080 C   0  0  0  0  0  0  0  0  0  0  0  0
   34.5510   13.5990   33.1300 C   0  0  0  0  0  0  0  0  0  0  0  0
   35.0930   13.0730   31.8840 C   0  0  0  0  0  0  0  0  0  0  0  0
   35.8600   14.6060   31.1010 S   0  0  0  0  0  0  0  0  0  0  0  0
   39.4721   23.8560   33.3373 H   0  0  0  0  0  0  0  0  0  0  0  0
   41.0773   22.3726   37.9425 H   0  0  0  0  0  0  0  0  0  0  0  0
   39.3894   23.3441   39.5566 H   0  0  0  0  0  0  0  0  0  0  0  0
   37.1083   23.9016   38.6951 H   0  0  0  0  0  0  0  0  0  0  0  0
   34.5926   20.6023   33.4894 H   0  0  0  0  0  0  0  0  0  0  0  0
   35.0660   21.0488   31.7835 H   0  0  0  0  0  0  0  0  0  0  0  0
   37.7462   19.5509   31.5653 H   0  0  0  0  0  0  0  0  0  0  0  0
   34.3882   15.4205   34.2205 H   0  0  0  0  0  0  0  0  0  0  0  0
   34.0185   12.9742   33.8622 H   0  0  0  0  0  0  0  0  0  0  0  0
   35.0623   12.0432   31.4985 H   0  0  0  0  0  0  0  0  0  0  0  0
  1 10  1  0
  2  1  2  0
  3  4  1  0
  3  2  1  0
  4  5  2  0
  5  1  1  0
  6  7  2  0
  8  7  1  0
  9  8  2  0
 10 11  2  0
 10  9  1  0
 11  6  1  0
 12  4  1  0
 13 17  1  0
 13 12  1  0
 14 13  1  0
 15 14  2  0
 15 16  1  0
 16 18  1  0
 16 17  2  0
 18 19  2  0
 20 19  1  0
 21 20  2  0
 22 21  1  0
 22 18  1  0
  2 23  1  0
  6 24  1  0
  7 25  1  0
  8 26  1  0
 12 27  1  0
 12 28  1  0
 14 29  1  0
 19 30  1  0
 20 31  1  0
 21 32  1  0
M  ISO  8  23  14  24  14  25  14  26  14  27   8  28   8  29  14  30  14
M  ISO  2  31  14  32  14
M  END
>  <minimizedAffinity>  (1) 
-4.77245951

>  <minimizedRMSD>  (1) 
0.392817318

$$$$
