
     RDKit          3D

 33 36  0  0  0  0  0  0  0  0999 V2000
   35.3220   20.4420   32.9490 C   0  0  0  0  0  0  0  0  0  0  0  0
   37.9280   22.5150   34.5680 C   0  0  0  0  0  0  0  0  0  0  0  0
   38.4060   23.2020   33.4690 C   0  0  0  0  0  0  0  0  0  0  0  0
   37.2990   22.4600   32.1520 S   0  0  0  0  0  0  0  0  0  0  0  0
   36.4100   21.3540   33.4100 C   0  0  0  0  0  0  0  0  0  0  0  0
   36.9710   21.6450   34.4700 N   0  0  0  0  0  0  0  0  0  0  0  0
   40.0930   22.5810   37.5860 C   0  0  0  0  0  0  0  0  0  0  0  0
   39.2150   23.1730   38.5350 C   0  0  0  0  0  0  0  0  0  0  0  0
   37.9500   23.5160   38.1080 C   0  0  0  0  0  0  0  0  0  0  0  0
   37.5820   23.2820   36.8130 N   0  0  0  0  0  0  0  0  0  0  0  0
   38.4660   22.7130   35.9550 C   0  0  0  0  0  0  0  0  0  0  0  0
   39.7090   22.3570   36.3030 N   0  0  0  0  0  0  0  0  0  0  0  0
   35.8010   19.1440   32.5630 N   0  0  0  0  0  0  0  0  0  0  0  0
   36.9560   18.8850   31.9150 C   0  0  0  0  0  0  0  0  0  0  0  0
   37.0340   17.5620   31.7420 N   0  0  0  0  0  0  0  0  0  0  0  0
   35.9390   16.9800   32.2750 C   0  0  0  0  0  0  0  0  0  0  0  0
   35.2030   17.9900   32.7710 N   0  0  0  0  0  0  0  0  0  0  0  0
   35.6590   15.5480   32.2840 C   0  0  0  0  0  0  0  0  0  0  0  0
   36.5160   14.6450   32.9190 C   0  0  0  0  0  0  0  0  0  0  0  0
   36.1970   13.3010   32.8940 C   0  0  0  0  0  0  0  0  0  0  0  0
   35.0810   12.8770   32.2670 N   0  0  0  0  0  0  0  0  0  0  0  0
   34.2600   13.7700   31.6540 C   0  0  0  0  0  0  0  0  0  0  0  0
   34.5540   15.0830   31.6690 N   0  0  0  0  0  0  0  0  0  0  0  0
   34.5979   20.3188   33.7679 H   0  0  0  0  0  0  0  0  0  0  0  0
   34.8641   20.9005   32.0601 H   0  0  0  0  0  0  0  0  0  0  0  0
   39.2001   23.9592   33.3905 H   0  0  0  0  0  0  0  0  0  0  0  0
   41.1087   22.2974   37.8991 H   0  0  0  0  0  0  0  0  0  0  0  0
   39.5338   23.3509   39.5727 H   0  0  0  0  0  0  0  0  0  0  0  0
   37.2382   23.9772   38.8084 H   0  0  0  0  0  0  0  0  0  0  0  0
   37.6986   19.6279   31.5884 H   0  0  0  0  0  0  0  0  0  0  0  0
   37.4254   14.9969   33.4280 H   0  0  0  0  0  0  0  0  0  0  0  0
   36.8569   12.5728   33.3882 H   0  0  0  0  0  0  0  0  0  0  0  0
   33.3515   13.4179   31.1435 H   0  0  0  0  0  0  0  0  0  0  0  0
  1  5  1  0
  2 11  1  0
  3  2  2  0
  4  5  1  0
  4  3  1  0
  5  6  2  0
  6  2  1  0
  7  8  2  0
  9  8  1  0
 10  9  2  0
 11 12  2  0
 11 10  1  0
 12  7  1  0
 13 17  1  0
 13  1  1  0
 14 13  1  0
 15 14  2  0
 15 16  1  0
 16 18  1  0
 16 17  2  0
 18 19  2  0
 20 19  1  0
 21 20  2  0
 22 23  2  0
 22 21  1  0
 23 18  1  0
  1 24  1  0
  1 25  1  0
  3 26  1  0
  7 27  1  0
  8 28  1  0
  9 29  1  0
 14 30  1  0
 19 31  1  0
 20 32  1  0
 22 33  1  0
M  ISO  8  24   8  25   8  26  14  27  14  28  14  29  14  30  14  31  14
M  ISO  2  32  14  33  14
M  END
>  <minimizedAffinity>  (1) 
-4.89410782

>  <minimizedRMSD>  (1) 
0.079385221

$$$$
