
     RDKit          3D

 26 28  0  0  0  0  0  0  0  0999 V2000
   37.9680   22.5180   34.5270 C   0  0  0  0  0  0  0  0  0  0  0  0
   38.4850   23.1800   33.4360 C   0  0  0  0  0  0  0  0  0  0  0  0
   37.3850   22.4670   32.1010 S   0  0  0  0  0  0  0  0  0  0  0  0
   36.4420   21.3980   33.3460 C   0  0  0  0  0  0  0  0  0  0  0  0
   36.9900   21.6800   34.4040 N   0  0  0  0  0  0  0  0  0  0  0  0
   40.0890   22.5800   37.5800 C   0  0  0  0  0  0  0  0  0  0  0  0
   39.2140   23.1720   38.5160 C   0  0  0  0  0  0  0  0  0  0  0  0
   37.9430   23.5230   38.0650 C   0  0  0  0  0  0  0  0  0  0  0  0
   37.5870   23.2890   36.7580 N   0  0  0  0  0  0  0  0  0  0  0  0
   38.4920   22.7140   35.9210 C   0  0  0  0  0  0  0  0  0  0  0  0
   39.7250   22.3530   36.2860 N   0  0  0  0  0  0  0  0  0  0  0  0
   35.3300   20.5080   32.8800 C   0  0  0  0  0  0  0  0  0  0  0  0
   35.7840   19.1840   32.5390 N   0  0  0  0  0  0  0  0  0  0  0  0
   36.9290   18.8780   31.9010 C   0  0  0  0  0  0  0  0  0  0  0  0
   37.0030   17.5530   31.7630 N   0  0  0  0  0  0  0  0  0  0  0  0
   35.8850   17.0120   32.3230 C   0  0  0  0  0  0  0  0  0  0  0  0
   35.1590   18.0570   32.7900 N   0  0  0  0  0  0  0  0  0  0  0  0
   35.5120   15.6630   32.4230 O   0  0  0  0  0  0  0  0  0  0  0  0
   39.3033   23.9121   33.3690 H   0  0  0  0  0  0  0  0  0  0  0  0
   41.0994   22.2919   37.9059 H   0  0  0  0  0  0  0  0  0  0  0  0
   39.5222   23.3488   39.5570 H   0  0  0  0  0  0  0  0  0  0  0  0
   37.2239   23.9878   38.7556 H   0  0  0  0  0  0  0  0  0  0  0  0
   34.5830   20.4279   33.6835 H   0  0  0  0  0  0  0  0  0  0  0  0
   34.9031   20.9574   31.9713 H   0  0  0  0  0  0  0  0  0  0  0  0
   37.6802   19.6013   31.5510 H   0  0  0  0  0  0  0  0  0  0  0  0
   34.6597   15.4163   32.8622 H   0  0  0  0  0  0  0  0  0  0  0  0
  1 10  1  0
  2  1  2  0
  3  4  1  0
  3  2  1  0
  4  5  2  0
  5  1  1  0
  6  7  2  0
  8  7  1  0
  9  8  2  0
 10 11  2  0
 10  9  1  0
 11  6  1  0
 12  4  1  0
 13 17  1  0
 13 12  1  0
 14 13  1  0
 15 14  2  0
 15 16  1  0
 16 18  1  0
 16 17  2  0
  2 19  1  0
  6 20  1  0
  7 21  1  0
  8 22  1  0
 12 23  1  0
 12 24  1  0
 14 25  1  0
 18 26  1  0
M  ISO  8  19  14  20  14  21  14  22  14  23   8  24   8  25  14  26   3
M  END
>  <minimizedAffinity>  (1) 
-4.42472553

>  <minimizedRMSD>  (1) 
0.108104751

$$$$
