
     RDKit          3D

 28 30  0  0  0  0  0  0  0  0999 V2000
   37.9480   22.5270   34.5470 C   0  0  0  0  0  0  0  0  0  0  0  0
   38.4430   23.2210   33.4460 C   0  0  0  0  0  0  0  0  0  0  0  0
   37.3290   22.4990   32.1180 S   0  0  0  0  0  0  0  0  0  0  0  0
   36.4270   21.4010   33.3720 C   0  0  0  0  0  0  0  0  0  0  0  0
   36.9880   21.6820   34.4150 N   0  0  0  0  0  0  0  0  0  0  0  0
   40.0920   22.5700   37.5760 C   0  0  0  0  0  0  0  0  0  0  0  0
   39.2260   23.1690   38.5180 C   0  0  0  0  0  0  0  0  0  0  0  0
   37.9650   23.5250   38.0790 C   0  0  0  0  0  0  0  0  0  0  0  0
   37.5910   23.2960   36.7700 N   0  0  0  0  0  0  0  0  0  0  0  0
   38.4870   22.7140   35.9250 C   0  0  0  0  0  0  0  0  0  0  0  0
   39.7160   22.3490   36.2940 N   0  0  0  0  0  0  0  0  0  0  0  0
   35.3280   20.5070   32.8910 C   0  0  0  0  0  0  0  0  0  0  0  0
   35.7700   19.1920   32.5560 N   0  0  0  0  0  0  0  0  0  0  0  0
   36.9320   18.9010   31.9080 C   0  0  0  0  0  0  0  0  0  0  0  0
   37.0060   17.5720   31.7710 N   0  0  0  0  0  0  0  0  0  0  0  0
   35.9130   17.0160   32.3230 C   0  0  0  0  0  0  0  0  0  0  0  0
   35.1850   18.0330   32.7900 N   0  0  0  0  0  0  0  0  0  0  0  0
   35.5270   15.5680   32.4260 C   0  0  0  0  0  0  0  0  0  0  0  0
   39.2466   23.9688   33.3753 H   0  0  0  0  0  0  0  0  0  0  0  0
   41.1027   22.2741   37.8937 H   0  0  0  0  0  0  0  0  0  0  0  0
   39.5421   23.3445   39.5569 H   0  0  0  0  0  0  0  0  0  0  0  0
   37.2552   23.9935   38.7766 H   0  0  0  0  0  0  0  0  0  0  0  0
   34.5706   20.4282   33.6848 H   0  0  0  0  0  0  0  0  0  0  0  0
   34.9237   20.9566   31.9721 H   0  0  0  0  0  0  0  0  0  0  0  0
   37.6781   19.6300   31.5588 H   0  0  0  0  0  0  0  0  0  0  0  0
   35.4511   15.2833   33.4858 H   0  0  0  0  0  0  0  0  0  0  0  0
   34.5558   15.4115   31.9338 H   0  0  0  0  0  0  0  0  0  0  0  0
   36.2915   14.9488   31.9338 H   0  0  0  0  0  0  0  0  0  0  0  0
  1 10  1  0
  2  1  2  0
  3  4  1  0
  3  2  1  0
  4  5  2  0
  5  1  1  0
  6  7  2  0
  8  7  1  0
  9  8  2  0
 10 11  2  0
 10  9  1  0
 11  6  1  0
 12  4  1  0
 13 17  1  0
 13 12  1  0
 14 13  1  0
 15 14  2  0
 15 16  1  0
 16 18  1  0
 16 17  2  0
  2 19  1  0
  6 20  1  0
  7 21  1  0
  8 22  1  0
 12 23  1  0
 12 24  1  0
 14 25  1  0
 18 26  1  0
 18 27  1  0
 18 28  1  0
M  ISO  8  19  14  20  14  21  14  22  14  23   8  24   8  25  14  26   8
M  ISO  2  27   8  28   8
M  END
>  <minimizedAffinity>  (1) 
-4.51632833

>  <minimizedRMSD>  (1) 
0.086274907

$$$$
