
     RDKit          3D

 43 46  0  0  0  0  0  0  0  0999 V2000
   35.3140   20.6390   32.4260 C   0  0  0  0  0  0  0  0  0  0  0  0
   35.7230   19.2830   32.3000 N   0  0  0  0  0  0  0  0  0  0  0  0
   36.8830   18.9040   31.7250 C   0  0  0  0  0  0  0  0  0  0  0  0
   36.9760   17.5720   31.7500 N   0  0  0  0  0  0  0  0  0  0  0  0
   35.8480   17.0870   32.3560 C   0  0  0  0  0  0  0  0  0  0  0  0
   35.1210   18.1770   32.6710 N   0  0  0  0  0  0  0  0  0  0  0  0
   38.0300   19.4760   31.1130 N   0  0  0  0  0  0  0  0  0  0  0  0
   39.2540   19.6880   31.9050 C   0  0  0  0  0  0  0  0  0  0  0  0
   40.4140   20.0810   31.0620 C   0  0  0  0  0  0  0  0  0  0  0  0
   40.1810   19.9710   29.5870 C   0  0  0  0  0  0  0  0  0  0  0  0
   38.8750   20.4650   29.0950 C   0  0  0  0  0  0  0  0  0  0  0  0
   37.7400   19.7380   29.7160 C   0  0  0  0  0  0  0  0  0  0  0  0
   35.5120   15.6550   32.6030 C   0  0  0  0  0  0  0  0  0  0  0  0
   36.6540   15.0040   33.0390 F   0  0  0  0  0  0  0  0  0  0  0  0
   34.5750   15.6210   33.6020 F   0  0  0  0  0  0  0  0  0  0  0  0
   34.9930   15.0490   31.4630 F   0  0  0  0  0  0  0  0  0  0  0  0
   37.8610   22.6560   34.1810 C   0  0  0  0  0  0  0  0  0  0  0  0
   38.1770   23.5310   33.1760 C   0  0  0  0  0  0  0  0  0  0  0  0
   37.0160   22.8900   31.8550 S   0  0  0  0  0  0  0  0  0  0  0  0
   36.3470   21.5440   32.9840 C   0  0  0  0  0  0  0  0  0  0  0  0
   36.9860   21.7470   34.0100 N   0  0  0  0  0  0  0  0  0  0  0  0
   40.1800   22.3500   37.0770 C   0  0  0  0  0  0  0  0  0  0  0  0
   39.3900   22.9590   38.0980 C   0  0  0  0  0  0  0  0  0  0  0  0
   38.1430   23.4330   37.7700 C   0  0  0  0  0  0  0  0  0  0  0  0
   37.6950   23.3070   36.4750 N   0  0  0  0  0  0  0  0  0  0  0  0
   38.5050   22.7090   35.5340 C   0  0  0  0  0  0  0  0  0  0  0  0
   39.7200   22.2330   35.7960 N   0  0  0  0  0  0  0  0  0  0  0  0
   34.4349   20.6726   33.0864 H   0  0  0  0  0  0  0  0  0  0  0  0
   35.1015   20.9973   31.4079 H   0  0  0  0  0  0  0  0  0  0  0  0
   39.0656   20.4844   32.6400 H   0  0  0  0  0  0  0  0  0  0  0  0
   39.5041   18.7364   32.3968 H   0  0  0  0  0  0  0  0  0  0  0  0
   40.6661   21.1267   31.2921 H   0  0  0  0  0  0  0  0  0  0  0  0
   41.2250   19.3776   31.3018 H   0  0  0  0  0  0  0  0  0  0  0  0
   40.9703   20.5441   29.0785 H   0  0  0  0  0  0  0  0  0  0  0  0
   40.1915   18.8935   29.3659 H   0  0  0  0  0  0  0  0  0  0  0  0
   38.7861   21.5349   29.3346 H   0  0  0  0  0  0  0  0  0  0  0  0
   38.8340   20.2978   28.0086 H   0  0  0  0  0  0  0  0  0  0  0  0
   36.8291   20.3501   29.6406 H   0  0  0  0  0  0  0  0  0  0  0  0
   37.5893   18.7832   29.1910 H   0  0  0  0  0  0  0  0  0  0  0  0
   38.8975   24.3619   33.1522 H   0  0  0  0  0  0  0  0  0  0  0  0
   41.1803   21.9668   37.3269 H   0  0  0  0  0  0  0  0  0  0  0  0
   39.7717   23.0469   39.1259 H   0  0  0  0  0  0  0  0  0  0  0  0
   37.5098   23.9079   38.5339 H   0  0  0  0  0  0  0  0  0  0  0  0
  1 20  1  0
  2  1  1  0
  2  6  1  0
  3  4  2  0
  3  2  1  0
  4  5  1  0
  5 13  1  0
  5  6  2  0
  7  3  1  0
  7  8  1  0
  9  8  1  0
 10  9  1  0
 11 10  1  0
 11 12  1  0
 12  7  1  0
 13 14  1  0
 13 15  1  0
 16 13  1  0
 17 26  1  0
 18 17  2  0
 19 20  1  0
 19 18  1  0
 20 21  2  0
 21 17  1  0
 22 23  2  0
 24 23  1  0
 25 24  2  0
 26 27  2  0
 26 25  1  0
 27 22  1  0
  1 28  1  0
  1 29  1  0
  8 30  1  0
  8 31  1  0
  9 32  1  0
  9 33  1  0
 10 34  1  0
 10 35  1  0
 11 36  1  0
 11 37  1  0
 12 38  1  0
 12 39  1  0
 18 40  1  0
 22 41  1  0
 23 42  1  0
 24 43  1  0
M  ISO  8  28   8  29   8  30  13  31  13  32  13  33  13  34  13  35  13
M  ISO  8  36  13  37  13  38  13  39  13  40  14  41  14  42  14  43  14
M  END
>  <minimizedAffinity>  (1) 
-5.20029163

>  <minimizedRMSD>  (1) 
0.328031242

$$$$
