
     RDKit          3D

 44 47  0  0  0  0  0  0  0  0999 V2000
   35.1200   20.6660   32.3350 C   0  0  0  0  0  0  0  0  0  0  0  0
   37.8080   22.5550   34.0180 C   0  0  0  0  0  0  0  0  0  0  0  0
   38.1200   23.4140   32.9840 C   0  0  0  0  0  0  0  0  0  0  0  0
   36.8970   22.8250   31.7350 S   0  0  0  0  0  0  0  0  0  0  0  0
   36.1960   21.5120   32.8700 C   0  0  0  0  0  0  0  0  0  0  0  0
   36.8880   21.6880   33.8790 N   0  0  0  0  0  0  0  0  0  0  0  0
   40.2230   22.2460   36.8180 C   0  0  0  0  0  0  0  0  0  0  0  0
   39.4700   22.8560   37.8680 C   0  0  0  0  0  0  0  0  0  0  0  0
   38.2000   23.3330   37.5860 C   0  0  0  0  0  0  0  0  0  0  0  0
   37.7090   23.2060   36.3100 N   0  0  0  0  0  0  0  0  0  0  0  0
   38.4910   22.6070   35.3420 C   0  0  0  0  0  0  0  0  0  0  0  0
   39.7210   22.1280   35.5570 N   0  0  0  0  0  0  0  0  0  0  0  0
   35.5000   19.3020   32.1190 N   0  0  0  0  0  0  0  0  0  0  0  0
   36.4410   18.8950   31.2410 C   0  0  0  0  0  0  0  0  0  0  0  0
   36.5240   17.5940   31.3510 N   0  0  0  0  0  0  0  0  0  0  0  0
   35.6570   17.1160   32.2730 C   0  0  0  0  0  0  0  0  0  0  0  0
   35.0460   18.1990   32.7240 N   0  0  0  0  0  0  0  0  0  0  0  0
   37.3190   19.4740   30.1940 C   0  0  0  0  0  0  0  0  0  0  0  0
   38.7240   19.6000   30.7210 C   0  0  0  0  0  0  0  0  0  0  0  0
   39.7000   19.9390   29.6150 C   0  0  0  0  0  0  0  0  0  0  0  0
   38.9790   20.4070   28.3760 C   0  0  0  0  0  0  0  0  0  0  0  0
   38.1480   19.2570   27.8730 C   0  0  0  0  0  0  0  0  0  0  0  0
   37.5410   18.5070   29.0010 C   0  0  0  0  0  0  0  0  0  0  0  0
   35.4150   15.6820   32.6350 C   0  0  0  0  0  0  0  0  0  0  0  0
   36.6150   15.1240   33.0270 F   0  0  0  0  0  0  0  0  0  0  0  0
   34.5400   15.6850   33.6780 F   0  0  0  0  0  0  0  0  0  0  0  0
   34.8550   14.9840   31.5680 F   0  0  0  0  0  0  0  0  0  0  0  0
   34.2816   20.6823   33.0470 H   0  0  0  0  0  0  0  0  0  0  0  0
   34.8511   21.0795   31.3518 H   0  0  0  0  0  0  0  0  0  0  0  0
   38.8740   24.2126   32.9228 H   0  0  0  0  0  0  0  0  0  0  0  0
   41.2315   21.8628   37.0328 H   0  0  0  0  0  0  0  0  0  0  0  0
   39.8904   22.9452   38.8806 H   0  0  0  0  0  0  0  0  0  0  0  0
   37.5941   23.8064   38.3727 H   0  0  0  0  0  0  0  0  0  0  0  0
   36.8287   20.4150   29.9039 H   0  0  0  0  0  0  0  0  0  0  0  0
   38.7518   20.3963   31.4794 H   0  0  0  0  0  0  0  0  0  0  0  0
   39.0178   18.6343   31.1582 H   0  0  0  0  0  0  0  0  0  0  0  0
   40.3724   20.7374   29.9620 H   0  0  0  0  0  0  0  0  0  0  0  0
   40.2710   19.0328   29.3644 H   0  0  0  0  0  0  0  0  0  0  0  0
   38.3298   21.2609   28.6195 H   0  0  0  0  0  0  0  0  0  0  0  0
   39.6980   20.7296   27.6085 H   0  0  0  0  0  0  0  0  0  0  0  0
   37.3470   19.6470   27.2277 H   0  0  0  0  0  0  0  0  0  0  0  0
   38.7995   18.5742   27.3079 H   0  0  0  0  0  0  0  0  0  0  0  0
   36.5758   18.0844   28.6851 H   0  0  0  0  0  0  0  0  0  0  0  0
   38.2119   17.6905   29.3062 H   0  0  0  0  0  0  0  0  0  0  0  0
  1  5  1  0
  2 11  1  0
  3  2  2  0
  4  5  1  0
  4  3  1  0
  5  6  2  0
  6  2  1  0
  7  8  2  0
  9  8  1  0
 10  9  2  0
 11 12  2  0
 11 10  1  0
 12  7  1  0
 13  1  1  0
 13 17  1  0
 14 15  2  0
 14 13  1  0
 15 16  1  0
 16 24  1  0
 16 17  2  0
 18 19  1  0
 18 14  1  0
 20 19  1  0
 21 20  1  0
 22 21  1  0
 22 23  1  0
 23 18  1  0
 24 25  1  0
 24 26  1  0
 27 24  1  0
  1 28  1  0
  1 29  1  0
  3 30  1  0
  7 31  1  0
  8 32  1  0
  9 33  1  0
 18 34  1  0
 19 35  1  0
 19 36  1  0
 20 37  1  0
 20 38  1  0
 21 39  1  0
 21 40  1  0
 22 41  1  0
 22 42  1  0
 23 43  1  0
 23 44  1  0
M  ISO  8  28   8  29   8  30  14  31  14  32  14  33  14  34  13  35  13
M  ISO  8  36  13  37  13  38  13  39  13  40  13  41  13  42  13  43  13
M  ISO  1  44  13
M  END
>  <minimizedAffinity>  (1) 
-5.07174921

>  <minimizedRMSD>  (1) 
0.923373401

$$$$
