
     RDKit          3D

 38 41  0  0  0  0  0  0  0  0999 V2000
   35.2790   20.6530   32.4930 C   0  0  0  0  0  0  0  0  0  0  0  0
   37.8560   22.6650   34.1860 C   0  0  0  0  0  0  0  0  0  0  0  0
   38.0750   23.6140   33.2130 C   0  0  0  0  0  0  0  0  0  0  0  0
   36.8540   23.0000   31.9350 S   0  0  0  0  0  0  0  0  0  0  0  0
   36.3080   21.5670   33.0190 C   0  0  0  0  0  0  0  0  0  0  0  0
   37.0070   21.7290   34.0250 N   0  0  0  0  0  0  0  0  0  0  0  0
   40.3630   22.1960   36.8910 C   0  0  0  0  0  0  0  0  0  0  0  0
   39.6920   22.8290   37.9810 C   0  0  0  0  0  0  0  0  0  0  0  0
   38.4410   23.3750   37.7480 C   0  0  0  0  0  0  0  0  0  0  0  0
   37.8890   23.2950   36.4970 N   0  0  0  0  0  0  0  0  0  0  0  0
   38.5930   22.6690   35.4900 C   0  0  0  0  0  0  0  0  0  0  0  0
   39.8030   22.1260   35.6600 N   0  0  0  0  0  0  0  0  0  0  0  0
   35.7100   19.3030   32.3290 N   0  0  0  0  0  0  0  0  0  0  0  0
   36.8690   18.9550   31.7330 C   0  0  0  0  0  0  0  0  0  0  0  0
   36.9820   17.6250   31.7350 N   0  0  0  0  0  0  0  0  0  0  0  0
   35.8680   17.1100   32.3480 C   0  0  0  0  0  0  0  0  0  0  0  0
   35.1280   18.1790   32.6890 N   0  0  0  0  0  0  0  0  0  0  0  0
   38.0170   19.5790   31.0930 C   0  0  0  0  0  0  0  0  0  0  0  0
   39.1740   19.7050   31.8740 C   0  0  0  0  0  0  0  0  0  0  0  0
   40.2400   20.3120   31.2690 C   0  0  0  0  0  0  0  0  0  0  0  0
   40.1530   20.7680   29.9540 C   0  0  0  0  0  0  0  0  0  0  0  0
   38.9880   20.6170   29.2320 C   0  0  0  0  0  0  0  0  0  0  0  0
   37.8700   20.0150   29.7710 C   0  0  0  0  0  0  0  0  0  0  0  0
   35.5530   15.6680   32.5730 C   0  0  0  0  0  0  0  0  0  0  0  0
   36.6970   15.0370   33.0330 F   0  0  0  0  0  0  0  0  0  0  0  0
   34.5950   15.6080   33.5480 F   0  0  0  0  0  0  0  0  0  0  0  0
   35.0750   15.0700   31.4130 F   0  0  0  0  0  0  0  0  0  0  0  0
   34.4272   20.6588   33.1889 H   0  0  0  0  0  0  0  0  0  0  0  0
   35.0196   21.0210   31.4894 H   0  0  0  0  0  0  0  0  0  0  0  0
   38.7608   24.4738   33.1929 H   0  0  0  0  0  0  0  0  0  0  0  0
   41.3574   21.7552   37.0550 H   0  0  0  0  0  0  0  0  0  0  0  0
   40.1556   22.8814   38.9772 H   0  0  0  0  0  0  0  0  0  0  0  0
   37.8934   23.8704   38.5633 H   0  0  0  0  0  0  0  0  0  0  0  0
   39.2218   19.3382   32.9099 H   0  0  0  0  0  0  0  0  0  0  0  0
   41.1788   20.4423   31.8273 H   0  0  0  0  0  0  0  0  0  0  0  0
   41.0231   21.2533   29.4877 H   0  0  0  0  0  0  0  0  0  0  0  0
   38.9490   20.9871   28.1969 H   0  0  0  0  0  0  0  0  0  0  0  0
   36.9351   19.8874   29.2056 H   0  0  0  0  0  0  0  0  0  0  0  0
  1  5  1  0
  2 11  1  0
  3  2  2  0
  4  5  1  0
  4  3  1  0
  5  6  2  0
  6  2  1  0
  7  8  2  0
  9  8  1  0
 10  9  2  0
 11 12  2  0
 11 10  1  0
 12  7  1  0
 13  1  1  0
 13 17  1  0
 14 15  2  0
 14 13  1  0
 15 16  1  0
 16 24  1  0
 16 17  2  0
 18 14  1  0
 18 19  2  0
 20 19  1  0
 21 20  2  0
 22 23  2  0
 22 21  1  0
 23 18  1  0
 24 25  1  0
 24 26  1  0
 27 24  1  0
  1 28  1  0
  1 29  1  0
  3 30  1  0
  7 31  1  0
  8 32  1  0
  9 33  1  0
 19 34  1  0
 20 35  1  0
 21 36  1  0
 22 37  1  0
 23 38  1  0
M  ISO  8  28   8  29   8  30  14  31  14  32  14  33  14  34  14  35  14
M  ISO  3  36  14  37  14  38  14
M  END
>  <minimizedAffinity>  (1) 
-5.02935219

>  <minimizedRMSD>  (1) 
0.639155924

$$$$
