
     RDKit          3D

 36 39  0  0  0  0  0  0  0  0999 V2000
   35.2810   20.6510   32.5100 C   0  0  0  0  0  0  0  0  0  0  0  0
   37.8740   22.6640   34.1920 C   0  0  0  0  0  0  0  0  0  0  0  0
   38.0840   23.6070   33.2190 C   0  0  0  0  0  0  0  0  0  0  0  0
   36.8640   23.0050   31.9520 S   0  0  0  0  0  0  0  0  0  0  0  0
   36.3180   21.5650   33.0420 C   0  0  0  0  0  0  0  0  0  0  0  0
   37.0220   21.7280   34.0370 N   0  0  0  0  0  0  0  0  0  0  0  0
   40.3690   22.1990   36.9150 C   0  0  0  0  0  0  0  0  0  0  0  0
   39.6850   22.8360   37.9960 C   0  0  0  0  0  0  0  0  0  0  0  0
   38.4370   23.3850   37.7640 C   0  0  0  0  0  0  0  0  0  0  0  0
   37.8980   23.2970   36.5010 N   0  0  0  0  0  0  0  0  0  0  0  0
   38.6090   22.6680   35.5010 C   0  0  0  0  0  0  0  0  0  0  0  0
   39.8120   22.1240   35.6690 N   0  0  0  0  0  0  0  0  0  0  0  0
   35.7120   19.3050   32.3440 N   0  0  0  0  0  0  0  0  0  0  0  0
   36.8730   18.9590   31.7510 C   0  0  0  0  0  0  0  0  0  0  0  0
   36.9910   17.6220   31.7420 N   0  0  0  0  0  0  0  0  0  0  0  0
   35.8700   17.1110   32.3490 C   0  0  0  0  0  0  0  0  0  0  0  0
   35.1280   18.1770   32.6940 N   0  0  0  0  0  0  0  0  0  0  0  0
   38.0140   19.6010   31.1250 C   0  0  0  0  0  0  0  0  0  0  0  0
   37.8860   20.0130   29.7900 C   0  0  0  0  0  0  0  0  0  0  0  0
   39.0210   20.6300   29.2930 C   0  0  0  0  0  0  0  0  0  0  0  0
   40.1070   20.7840   30.0720 N   0  0  0  0  0  0  0  0  0  0  0  0
   40.1770   20.3680   31.3500 C   0  0  0  0  0  0  0  0  0  0  0  0
   39.1090   19.7490   31.9320 N   0  0  0  0  0  0  0  0  0  0  0  0
   35.5520   15.6710   32.5690 C   0  0  0  0  0  0  0  0  0  0  0  0
   36.6990   15.0400   33.0300 F   0  0  0  0  0  0  0  0  0  0  0  0
   34.5930   15.6090   33.5450 F   0  0  0  0  0  0  0  0  0  0  0  0
   35.0710   15.0710   31.4120 F   0  0  0  0  0  0  0  0  0  0  0  0
   34.4287   20.6559   33.2054 H   0  0  0  0  0  0  0  0  0  0  0  0
   35.0196   21.0224   31.5081 H   0  0  0  0  0  0  0  0  0  0  0  0
   38.7711   24.4657   33.1952 H   0  0  0  0  0  0  0  0  0  0  0  0
   41.3628   21.7606   37.0890 H   0  0  0  0  0  0  0  0  0  0  0  0
   40.1429   22.8887   38.9948 H   0  0  0  0  0  0  0  0  0  0  0  0
   37.8851   23.8831   38.5747 H   0  0  0  0  0  0  0  0  0  0  0  0
   36.9727   19.8606   29.1962 H   0  0  0  0  0  0  0  0  0  0  0  0
   39.0351   20.9963   28.2559 H   0  0  0  0  0  0  0  0  0  0  0  0
   41.0992   20.5276   31.9280 H   0  0  0  0  0  0  0  0  0  0  0  0
  1  5  1  0
  2 11  1  0
  3  2  2  0
  4  5  1  0
  4  3  1  0
  5  6  2  0
  6  2  1  0
  7  8  2  0
  9  8  1  0
 10  9  2  0
 11 12  2  0
 11 10  1  0
 12  7  1  0
 13  1  1  0
 13 17  1  0
 14 13  1  0
 15 14  2  0
 15 16  1  0
 16 24  1  0
 16 17  2  0
 18 14  1  0
 18 23  1  0
 19 18  2  0
 20 19  1  0
 20 21  2  0
 21 22  1  0
 22 23  2  0
 24 25  1  0
 24 26  1  0
 27 24  1  0
  1 28  1  0
  1 29  1  0
  3 30  1  0
  7 31  1  0
  8 32  1  0
  9 33  1  0
 19 34  1  0
 20 35  1  0
 22 36  1  0
M  ISO  8  28   8  29   8  30  14  31  14  32  14  33  14  34  14  35  14
M  ISO  1  36  14
M  END
>  <minimizedAffinity>  (1) 
-4.98189068

>  <minimizedRMSD>  (1) 
0.472841471

$$$$
