
     RDKit          3D

 40 42  0  0  0  0  0  0  0  0999 V2000
   35.3560   20.6700   32.3350 C   0  0  0  0  0  0  0  0  0  0  0  0
   37.8410   22.6700   34.1740 C   0  0  0  0  0  0  0  0  0  0  0  0
   38.0680   23.6050   33.2030 C   0  0  0  0  0  0  0  0  0  0  0  0
   36.9030   23.0000   31.9070 S   0  0  0  0  0  0  0  0  0  0  0  0
   36.3350   21.5700   32.9410 C   0  0  0  0  0  0  0  0  0  0  0  0
   37.0050   21.7390   33.9700 N   0  0  0  0  0  0  0  0  0  0  0  0
   40.1890   22.3010   37.0210 C   0  0  0  0  0  0  0  0  0  0  0  0
   39.4230   22.9100   38.0640 C   0  0  0  0  0  0  0  0  0  0  0  0
   38.1650   23.4090   37.7670 C   0  0  0  0  0  0  0  0  0  0  0  0
   37.6940   23.3050   36.4810 N   0  0  0  0  0  0  0  0  0  0  0  0
   38.4900   22.7030   35.5190 C   0  0  0  0  0  0  0  0  0  0  0  0
   39.7060   22.2050   35.7480 N   0  0  0  0  0  0  0  0  0  0  0  0
   35.7710   19.3130   32.1890 N   0  0  0  0  0  0  0  0  0  0  0  0
   36.9420   18.9030   31.6450 C   0  0  0  0  0  0  0  0  0  0  0  0
   36.9180   17.6230   31.8060 N   0  0  0  0  0  0  0  0  0  0  0  0
   35.8150   17.1330   32.4030 C   0  0  0  0  0  0  0  0  0  0  0  0
   35.1230   18.2210   32.6290 N   0  0  0  0  0  0  0  0  0  0  0  0
   35.4810   15.7010   32.6430 C   0  0  0  0  0  0  0  0  0  0  0  0
   36.6260   15.0430   33.0400 F   0  0  0  0  0  0  0  0  0  0  0  0
   34.5630   15.7030   33.6510 F   0  0  0  0  0  0  0  0  0  0  0  0
   34.9050   15.1150   31.5100 F   0  0  0  0  0  0  0  0  0  0  0  0
   38.1120   19.4170   30.9420 C   0  0  0  0  0  0  0  0  0  0  0  0
   39.1870   19.7550   31.9380 C   0  0  0  0  0  0  0  0  0  0  0  0
   37.9450   20.2440   29.7400 C   0  0  0  0  0  0  0  0  0  0  0  0
   38.8720   18.2270   30.2150 C   0  0  0  0  0  0  0  0  0  0  0  0
   34.4525   20.6815   32.9623 H   0  0  0  0  0  0  0  0  0  0  0  0
   35.1947   21.0459   31.3139 H   0  0  0  0  0  0  0  0  0  0  0  0
   38.7489   24.4689   33.1964 H   0  0  0  0  0  0  0  0  0  0  0  0
   41.1882   21.9017   37.2495 H   0  0  0  0  0  0  0  0  0  0  0  0
   39.8259   22.9811   39.0851 H   0  0  0  0  0  0  0  0  0  0  0  0
   37.5527   23.8813   38.5493 H   0  0  0  0  0  0  0  0  0  0  0  0
   38.7939   19.6314   32.9579 H   0  0  0  0  0  0  0  0  0  0  0  0
   40.0461   19.0836   31.7923 H   0  0  0  0  0  0  0  0  0  0  0  0
   39.5073   20.7972   31.7923 H   0  0  0  0  0  0  0  0  0  0  0  0
   37.7353   21.2825   30.0357 H   0  0  0  0  0  0  0  0  0  0  0  0
   38.8677   20.2122   29.1420 H   0  0  0  0  0  0  0  0  0  0  0  0
   37.1069   19.8567   29.1420 H   0  0  0  0  0  0  0  0  0  0  0  0
   39.3030   17.5522   30.9692 H   0  0  0  0  0  0  0  0  0  0  0  0
   38.1628   17.6689   29.5861 H   0  0  0  0  0  0  0  0  0  0  0  0
   39.6766   18.6357   29.5861 H   0  0  0  0  0  0  0  0  0  0  0  0
  1  5  1  0
  2 11  1  0
  3  2  2  0
  4  5  1  0
  4  3  1  0
  5  6  2  0
  6  2  1  0
  7  8  2  0
  9  8  1  0
 10  9  2  0
 11 12  2  0
 11 10  1  0
 12  7  1  0
 13  1  1  0
 13 17  1  0
 14 15  2  0
 14 13  1  0
 15 16  1  0
 16 17  2  0
 16 18  1  0
 18 19  1  0
 18 20  1  0
 21 18  1  0
 22 14  1  0
 22 23  1  0
 24 22  1  0
 25 22  1  0
  1 26  1  0
  1 27  1  0
  3 28  1  0
  7 29  1  0
  8 30  1  0
  9 31  1  0
 23 32  1  0
 23 33  1  0
 23 34  1  0
 24 35  1  0
 24 36  1  0
 24 37  1  0
 25 38  1  0
 25 39  1  0
 25 40  1  0
M  ISO  8  26   8  27   8  28  14  29  14  30  14  31  14  32   8  33   8
M  ISO  7  34   8  35   8  36   8  37   8  38   8  39   8  40   8
M  END
>  <minimizedAffinity>  (1) 
-4.80821228

>  <minimizedRMSD>  (1) 
0.36446172

$$$$
