
     RDKit          3D

 29 31  0  0  0  0  0  0  0  0999 V2000
   37.7400   22.7730   33.7870 C   0  0  0  0  0  0  0  0  0  0  0  0
   37.9840   23.6980   32.8080 C   0  0  0  0  0  0  0  0  0  0  0  0
   36.7230   23.1590   31.5460 S   0  0  0  0  0  0  0  0  0  0  0  0
   36.1070   21.7490   32.6430 C   0  0  0  0  0  0  0  0  0  0  0  0
   36.8320   21.8800   33.6350 N   0  0  0  0  0  0  0  0  0  0  0  0
   40.2490   22.1120   36.4580 C   0  0  0  0  0  0  0  0  0  0  0  0
   39.6460   22.7820   37.5460 C   0  0  0  0  0  0  0  0  0  0  0  0
   38.4430   23.4140   37.3370 C   0  0  0  0  0  0  0  0  0  0  0  0
   37.8700   23.3780   36.0940 N   0  0  0  0  0  0  0  0  0  0  0  0
   38.4820   22.7240   35.0740 C   0  0  0  0  0  0  0  0  0  0  0  0
   39.6550   22.0920   35.2250 N   0  0  0  0  0  0  0  0  0  0  0  0
   35.0120   20.8690   32.1650 C   0  0  0  0  0  0  0  0  0  0  0  0
   35.4540   19.5370   31.8780 N   0  0  0  0  0  0  0  0  0  0  0  0
   36.2940   19.1640   30.8800 C   0  0  0  0  0  0  0  0  0  0  0  0
   36.4710   17.8410   30.9320 N   0  0  0  0  0  0  0  0  0  0  0  0
   35.7320   17.3560   31.9810 C   0  0  0  0  0  0  0  0  0  0  0  0
   35.1430   18.4220   32.5120 N   0  0  0  0  0  0  0  0  0  0  0  0
   35.6330   15.9280   32.4080 C   0  0  0  0  0  0  0  0  0  0  0  0
   36.8650   15.5330   32.9120 F   0  0  0  0  0  0  0  0  0  0  0  0
   34.7300   15.8790   33.4480 F   0  0  0  0  0  0  0  0  0  0  0  0
   35.2100   15.1130   31.3820 F   0  0  0  0  0  0  0  0  0  0  0  0
   36.9100   19.9620   29.9230 O   0  0  0  0  0  0  0  0  0  0  0  0
   38.7131   24.5210   32.7755 H   0  0  0  0  0  0  0  0  0  0  0  0
   41.2107   21.5985   36.6041 H   0  0  0  0  0  0  0  0  0  0  0  0
   40.1268   22.7976   38.5352 H   0  0  0  0  0  0  0  0  0  0  0  0
   37.9448   23.9444   38.1619 H   0  0  0  0  0  0  0  0  0  0  0  0
   34.2350   20.8214   32.9422 H   0  0  0  0  0  0  0  0  0  0  0  0
   34.6274   21.2988   31.2283 H   0  0  0  0  0  0  0  0  0  0  0  0
   36.7531   20.9395   29.9181 H   0  0  0  0  0  0  0  0  0  0  0  0
  1 10  1  0
  2  1  2  0
  3  4  1  0
  3  2  1  0
  4  5  2  0
  5  1  1  0
  6  7  2  0
  8  7  1  0
  9  8  2  0
 10 11  2  0
 10  9  1  0
 11  6  1  0
 12  4  1  0
 13 12  1  0
 13 17  1  0
 14 15  2  0
 14 13  1  0
 15 16  1  0
 16 18  1  0
 16 17  2  0
 18 19  1  0
 18 20  1  0
 21 18  1  0
 22 14  1  0
  2 23  1  0
  6 24  1  0
  7 25  1  0
  8 26  1  0
 12 27  1  0
 12 28  1  0
 22 29  1  0
M  ISO  7  23  14  24  14  25  14  26  14  27   8  28   8  29   3
M  END
>  <minimizedAffinity>  (1) 
-4.68107843

>  <minimizedRMSD>  (1) 
0.913536727

$$$$
