
     RDKit          3D

 38 41  0  0  0  0  0  0  0  0999 V2000
   35.1340   20.5550   32.3980 C   0  0  0  0  0  0  0  0  0  0  0  0
   35.5560   19.1920   32.2240 N   0  0  0  0  0  0  0  0  0  0  0  0
   36.6110   18.8330   31.4890 C   0  0  0  0  0  0  0  0  0  0  0  0
   36.7350   17.5060   31.5260 N   0  0  0  0  0  0  0  0  0  0  0  0
   35.7250   17.0080   32.3100 C   0  0  0  0  0  0  0  0  0  0  0  0
   35.0410   18.0800   32.7050 N   0  0  0  0  0  0  0  0  0  0  0  0
   37.6160   19.4260   30.6990 N   0  0  0  0  0  0  0  0  0  0  0  0
   38.7900   19.9500   31.1120 N   0  0  0  0  0  0  0  0  0  0  0  0
   39.4660   20.4150   30.0480 C   0  0  0  0  0  0  0  0  0  0  0  0
   38.7300   20.2000   28.8920 C   0  0  0  0  0  0  0  0  0  0  0  0
   37.5570   19.5700   29.3290 C   0  0  0  0  0  0  0  0  0  0  0  0
   35.4600   15.5720   32.6400 C   0  0  0  0  0  0  0  0  0  0  0  0
   36.6370   14.9940   33.0570 F   0  0  0  0  0  0  0  0  0  0  0  0
   34.5380   15.5520   33.6490 F   0  0  0  0  0  0  0  0  0  0  0  0
   34.9440   14.9050   31.5270 F   0  0  0  0  0  0  0  0  0  0  0  0
   37.9380   22.5890   33.6770 C   0  0  0  0  0  0  0  0  0  0  0  0
   37.9680   23.5610   32.6980 C   0  0  0  0  0  0  0  0  0  0  0  0
   36.5690   22.9500   31.6390 S   0  0  0  0  0  0  0  0  0  0  0  0
   36.2390   21.4790   32.7740 C   0  0  0  0  0  0  0  0  0  0  0  0
   37.0940   21.6330   33.6500 N   0  0  0  0  0  0  0  0  0  0  0  0
   40.9220   22.3040   35.8740 C   0  0  0  0  0  0  0  0  0  0  0  0
   40.3450   22.6790   37.1340 C   0  0  0  0  0  0  0  0  0  0  0  0
   39.0090   23.0000   37.1730 C   0  0  0  0  0  0  0  0  0  0  0  0
   38.2690   22.9540   36.0140 N   0  0  0  0  0  0  0  0  0  0  0  0
   38.8920   22.5850   34.8370 C   0  0  0  0  0  0  0  0  0  0  0  0
   40.1710   22.2670   34.7500 N   0  0  0  0  0  0  0  0  0  0  0  0
   38.3450   23.3920   38.4120 C   0  0  0  0  0  0  0  0  0  0  0  0
   38.0220   24.5760   38.6890 O   0  0  0  0  0  0  0  0  0  0  0  0
   38.0400   22.4410   39.3490 O   0  0  0  0  0  0  0  0  0  0  0  0
   34.3717   20.5843   33.1905 H   0  0  0  0  0  0  0  0  0  0  0  0
   34.7438   20.8975   31.4283 H   0  0  0  0  0  0  0  0  0  0  0  0
   40.4552   20.8945   30.0877 H   0  0  0  0  0  0  0  0  0  0  0  0
   39.0060   20.4653   27.8608 H   0  0  0  0  0  0  0  0  0  0  0  0
   36.7265   19.2442   28.6855 H   0  0  0  0  0  0  0  0  0  0  0  0
   38.6241   24.4360   32.5799 H   0  0  0  0  0  0  0  0  0  0  0  0
   41.9894   22.0433   35.8222 H   0  0  0  0  0  0  0  0  0  0  0  0
   40.9578   22.7088   38.0470 H   0  0  0  0  0  0  0  0  0  0  0  0
   37.5896   22.7023   40.1910 H   0  0  0  0  0  0  0  0  0  0  0  0
  1 19  1  0
  2  1  1  0
  2  6  1  0
  3  4  2  0
  3  2  1  0
  4  5  1  0
  5 12  1  0
  5  6  2  0
  7  8  1  0
  7  3  1  0
  9  8  2  0
 10 11  2  0
 10  9  1  0
 11  7  1  0
 12 13  1  0
 12 14  1  0
 15 12  1  0
 16 25  1  0
 17 16  2  0
 18 17  1  0
 18 19  1  0
 19 20  2  0
 20 16  1  0
 21 22  2  0
 22 23  1  0
 23 27  1  0
 24 23  2  0
 25 24  1  0
 26 25  2  0
 26 21  1  0
 27 28  2  0
 27 29  1  0
  1 30  1  0
  1 31  1  0
  9 32  1  0
 10 33  1  0
 11 34  1  0
 17 35  1  0
 21 36  1  0
 22 37  1  0
 29 38  1  0
M  ISO  8  30   8  31   8  32  14  33  14  34  14  35  14  36  14  37  14
M  ISO  1  38   3
M  END
>  <minimizedAffinity>  (1) 
-5.92598867

>  <minimizedRMSD>  (1) 
0.706535339

$$$$
