
     RDKit          3D

 42 46  0  0  0  0  0  0  0  0999 V2000
   37.9350   21.6570   31.8060 C   0  0  0  0  0  0  0  0  0  0  0  0
   38.3850   22.9080   31.4340 C   0  0  0  0  0  0  0  0  0  0  0  0
   39.1320   22.4710   29.7920 S   0  0  0  0  0  0  0  0  0  0  0  0
   38.6670   20.6560   29.9610 C   0  0  0  0  0  0  0  0  0  0  0  0
   38.1040   20.6350   31.0590 N   0  0  0  0  0  0  0  0  0  0  0  0
   35.5670   20.5580   34.4500 C   0  0  0  0  0  0  0  0  0  0  0  0
   36.1760   21.1470   35.5970 C   0  0  0  0  0  0  0  0  0  0  0  0
   37.3440   21.8790   35.4280 C   0  0  0  0  0  0  0  0  0  0  0  0
   37.8700   22.0110   34.1730 N   0  0  0  0  0  0  0  0  0  0  0  0
   37.2220   21.4090   33.1030 C   0  0  0  0  0  0  0  0  0  0  0  0
   36.1080   20.7020   33.2090 N   0  0  0  0  0  0  0  0  0  0  0  0
   38.0140   22.4980   36.5200 N   0  0  0  0  0  0  0  0  0  0  0  0
   39.3040   22.2020   36.5740 N   0  0  0  0  0  0  0  0  0  0  0  0
   39.8930   22.8020   37.6110 C   0  0  0  0  0  0  0  0  0  0  0  0
   38.9020   23.5220   38.2480 C   0  0  0  0  0  0  0  0  0  0  0  0
   37.7290   23.3140   37.5420 C   0  0  0  0  0  0  0  0  0  0  0  0
   39.0450   19.7450   28.8470 C   0  0  0  0  0  0  0  0  0  0  0  0
   37.9190   19.1060   28.2170 N   0  0  0  0  0  0  0  0  0  0  0  0
   37.2410   18.0910   28.7580 C   0  0  0  0  0  0  0  0  0  0  0  0
   36.2660   17.7240   27.9380 N   0  0  0  0  0  0  0  0  0  0  0  0
   36.3230   18.5410   26.8240 C   0  0  0  0  0  0  0  0  0  0  0  0
   37.3490   19.3580   27.0550 N   0  0  0  0  0  0  0  0  0  0  0  0
   37.2580   17.3070   29.9270 N   0  0  0  0  0  0  0  0  0  0  0  0
   36.6920   17.5860   31.1210 N   0  0  0  0  0  0  0  0  0  0  0  0
   36.9360   16.5790   31.9790 C   0  0  0  0  0  0  0  0  0  0  0  0
   37.6890   15.5920   31.3430 C   0  0  0  0  0  0  0  0  0  0  0  0
   37.8770   16.0790   30.0470 C   0  0  0  0  0  0  0  0  0  0  0  0
   35.4200   18.4960   25.6340 C   0  0  0  0  0  0  0  0  0  0  0  0
   34.5870   17.4070   25.7470 F   0  0  0  0  0  0  0  0  0  0  0  0
   34.6840   19.6490   25.6420 F   0  0  0  0  0  0  0  0  0  0  0  0
   36.1670   18.4430   24.4550 F   0  0  0  0  0  0  0  0  0  0  0  0
   38.3202   23.8747   31.9549 H   0  0  0  0  0  0  0  0  0  0  0  0
   34.6416   19.9756   34.5703 H   0  0  0  0  0  0  0  0  0  0  0  0
   35.7299   21.0241   36.5949 H   0  0  0  0  0  0  0  0  0  0  0  0
   40.9525   22.7361   37.8993 H   0  0  0  0  0  0  0  0  0  0  0  0
   39.0217   24.1440   39.1473 H   0  0  0  0  0  0  0  0  0  0  0  0
   36.7432   23.7413   37.7780 H   0  0  0  0  0  0  0  0  0  0  0  0
   39.5829   20.3302   28.0866 H   0  0  0  0  0  0  0  0  0  0  0  0
   39.6675   18.9479   29.2795 H   0  0  0  0  0  0  0  0  0  0  0  0
   36.5936   16.5399   33.0236 H   0  0  0  0  0  0  0  0  0  0  0  0
   38.0527   14.6441   31.7663 H   0  0  0  0  0  0  0  0  0  0  0  0
   38.4311   15.5647   29.2479 H   0  0  0  0  0  0  0  0  0  0  0  0
  1 10  1  0
  2  1  2  0
  3  4  1  0
  3  2  1  0
  4  5  2  0
  5  1  1  0
  6  7  2  0
  8  7  1  0
  8 12  1  0
  9  8  2  0
 10 11  2  0
 10  9  1  0
 11  6  1  0
 12 13  1  0
 12 16  1  0
 13 14  2  0
 14 15  1  0
 16 15  2  0
 17  4  1  0
 18 19  1  0
 18 17  1  0
 19 23  1  0
 20 19  2  0
 21 22  2  0
 21 20  1  0
 22 18  1  0
 23 27  1  0
 23 24  1  0
 24 25  2  0
 26 25  1  0
 27 26  2  0
 28 30  1  0
 28 29  1  0
 28 21  1  0
 31 28  1  0
  2 32  1  0
  6 33  1  0
  7 34  1  0
 14 35  1  0
 15 36  1  0
 16 37  1  0
 17 38  1  0
 17 39  1  0
 25 40  1  0
 26 41  1  0
 27 42  1  0
M  ISO  8  32  14  33  14  34  14  35  14  36  14  37  14  38   8  39   8
M  ISO  3  40  14  41  14  42  14
M  END
>  <minimizedAffinity>  (1) 
-5.5676918

>  <minimizedRMSD>  (1) 
4.81185293

$$$$
