
     RDKit          3D

 43 47  0  0  0  0  0  0  0  0999 V2000
   41.9070   25.4110   32.6800 C   0  0  0  0  0  0  0  0  0  0  0  0
   41.8050   26.2510   31.5940 C   0  0  0  0  0  0  0  0  0  0  0  0
   40.0360   26.7510   31.7810 S   0  0  0  0  0  0  0  0  0  0  0  0
   39.7990   25.7010   33.3170 C   0  0  0  0  0  0  0  0  0  0  0  0
   40.9130   25.1980   33.4540 N   0  0  0  0  0  0  0  0  0  0  0  0
   45.4310   24.2350   32.9150 C   0  0  0  0  0  0  0  0  0  0  0  0
   45.2840   23.2040   33.8870 C   0  0  0  0  0  0  0  0  0  0  0  0
   44.0350   22.9590   34.4040 C   0  0  0  0  0  0  0  0  0  0  0  0
   42.9780   23.7080   33.9740 N   0  0  0  0  0  0  0  0  0  0  0  0
   43.1730   24.6910   33.0340 C   0  0  0  0  0  0  0  0  0  0  0  0
   44.3620   24.9750   32.4960 N   0  0  0  0  0  0  0  0  0  0  0  0
   43.7410   21.9370   35.4010 C   0  0  0  0  0  0  0  0  0  0  0  0
   44.5390   20.8440   35.6150 C   0  0  0  0  0  0  0  0  0  0  0  0
   44.2970   19.8540   36.5480 C   0  0  0  0  0  0  0  0  0  0  0  0
   43.1900   19.9790   37.3030 N   0  0  0  0  0  0  0  0  0  0  0  0
   42.3930   21.0310   37.1190 C   0  0  0  0  0  0  0  0  0  0  0  0
   42.6470   21.9840   36.2050 N   0  0  0  0  0  0  0  0  0  0  0  0
   38.4700   25.7010   33.9650 C   0  0  0  0  0  0  0  0  0  0  0  0
   38.3470   24.7960   35.0750 N   0  0  0  0  0  0  0  0  0  0  0  0
   38.1960   23.4770   34.9360 C   0  0  0  0  0  0  0  0  0  0  0  0
   38.1140   22.9280   36.1370 N   0  0  0  0  0  0  0  0  0  0  0  0
   38.2140   23.9260   37.0750 C   0  0  0  0  0  0  0  0  0  0  0  0
   38.3540   25.0420   36.3650 N   0  0  0  0  0  0  0  0  0  0  0  0
   38.1030   22.5200   33.9090 N   0  0  0  0  0  0  0  0  0  0  0  0
   39.1110   21.9120   33.2480 N   0  0  0  0  0  0  0  0  0  0  0  0
   38.6010   21.0620   32.3380 C   0  0  0  0  0  0  0  0  0  0  0  0
   37.2130   21.0970   32.3840 C   0  0  0  0  0  0  0  0  0  0  0  0
   36.9210   22.0320   33.3900 C   0  0  0  0  0  0  0  0  0  0  0  0
   38.1710   23.7640   38.5660 C   0  0  0  0  0  0  0  0  0  0  0  0
   37.1940   22.8400   38.8840 F   0  0  0  0  0  0  0  0  0  0  0  0
   39.3920   23.2890   38.9540 F   0  0  0  0  0  0  0  0  0  0  0  0
   37.9330   24.9930   39.1840 F   0  0  0  0  0  0  0  0  0  0  0  0
   42.5529   26.5385   30.8404 H   0  0  0  0  0  0  0  0  0  0  0  0
   46.4261   24.4395   32.4931 H   0  0  0  0  0  0  0  0  0  0  0  0
   46.1531   22.6159   34.2169 H   0  0  0  0  0  0  0  0  0  0  0  0
   45.4429   20.7471   34.9957 H   0  0  0  0  0  0  0  0  0  0  0  0
   44.9800   19.0002   36.6685 H   0  0  0  0  0  0  0  0  0  0  0  0
   41.4901   21.1236   37.7404 H   0  0  0  0  0  0  0  0  0  0  0  0
   38.2648   26.7190   34.3276 H   0  0  0  0  0  0  0  0  0  0  0  0
   37.7515   25.3618   33.2043 H   0  0  0  0  0  0  0  0  0  0  0  0
   39.1949   20.4329   31.6586 H   0  0  0  0  0  0  0  0  0  0  0  0
   36.5032   20.5222   31.7709 H   0  0  0  0  0  0  0  0  0  0  0  0
   35.9119   22.3281   33.7127 H   0  0  0  0  0  0  0  0  0  0  0  0
  1 10  1  0
  1  5  1  0
  2  3  1  0
  2  1  2  0
  3  4  1  0
  4  5  2  0
  4 18  1  0
  6  7  2  0
  7  8  1  0
  8 12  1  0
  9  8  2  0
 10  9  1  0
 11  6  1  0
 11 10  2  0
 12 13  2  0
 12 17  1  0
 13 14  1  0
 14 15  2  0
 16 15  1  0
 17 16  2  0
 18 19  1  0
 19 23  1  0
 20 19  1  0
 20 21  2  0
 21 22  1  0
 22 29  1  0
 23 22  2  0
 24 20  1  0
 25 24  1  0
 26 27  1  0
 26 25  2  0
 27 28  2  0
 28 24  1  0
 29 30  1  0
 29 31  1  0
 29 32  1  0
  2 33  1  0
  6 34  1  0
  7 35  1  0
 13 36  1  0
 14 37  1  0
 16 38  1  0
 18 39  1  0
 18 40  1  0
 26 41  1  0
 27 42  1  0
 28 43  1  0
M  ISO  8  33  14  34  14  35  14  36  14  37  14  38  14  39   8  40   8
M  ISO  3  41  14  42  14  43  14
M  END
>  <minimizedAffinity>  (1) 
-5.29557657

>  <minimizedRMSD>  (1) 
7.16923809

$$$$
