
     RDKit          3D

 45 49  0  0  0  0  0  0  0  0999 V2000
   37.7729   23.0153   34.3389 C   0  0  0  0  0  0  0  0  0  0  0  0
   37.4006   21.7636   33.8781 C   0  0  0  0  0  0  0  0  0  0  0  0
   36.9130   21.6433   32.5789 C   0  0  0  0  0  0  0  0  0  0  0  0
   36.8107   22.7665   31.7803 C   0  0  0  0  0  0  0  0  0  0  0  0
   37.1873   23.9831   32.2697 C   0  0  0  0  0  0  0  0  0  0  0  0
   37.6766   24.1626   33.5461 C   0  0  0  0  0  0  0  0  0  0  0  0
   40.1028   22.8542   37.1507 C   0  0  0  0  0  0  0  0  0  0  0  0
   39.3123   23.2067   38.2573 C   0  0  0  0  0  0  0  0  0  0  0  0
   37.9504   23.5049   38.0258 C   0  0  0  0  0  0  0  0  0  0  0  0
   37.4733   23.4378   36.7586 N   0  0  0  0  0  0  0  0  0  0  0  0
   38.2801   23.0902   35.7132 C   0  0  0  0  0  0  0  0  0  0  0  0
   39.5844   22.8025   35.9205 N   0  0  0  0  0  0  0  0  0  0  0  0
   38.0684   25.4273   34.0547 N   0  0  0  0  0  0  0  0  0  0  0  0
   39.3809   26.0374   33.8726 C   0  0  0  0  0  0  0  0  0  0  0  0
   39.7479   26.5887   35.2439 C   0  0  0  0  0  0  0  0  0  0  0  0
   38.4109   26.9009   35.8901 C   0  0  0  0  0  0  0  0  0  0  0  0
   37.4155   26.4519   34.8357 C   0  0  1  0  0  0  0  0  0  0  0  0
   37.4946   20.9007   34.5341 H   0  0  0  0  0  0  0  0  0  0  0  0
   36.6461   20.6308   32.3009 H   0  0  0  0  0  0  0  0  0  0  0  0
   36.4242   22.5775   30.7935 H   0  0  0  0  0  0  0  0  0  0  0  0
   37.0971   24.8513   31.6221 H   0  0  0  0  0  0  0  0  0  0  0  0
   41.1413   22.6156   37.2490 H   0  0  0  0  0  0  0  0  0  0  0  0
   39.7664   23.2370   39.2308 H   0  0  0  0  0  0  0  0  0  0  0  0
   37.3344   23.7764   38.8655 H   0  0  0  0  0  0  0  0  0  0  0  0
   40.1421   25.2633   33.6284 H   0  0  0  0  0  0  0  0  0  0  0  0
   39.4103   26.7688   33.0693 H   0  0  0  0  0  0  0  0  0  0  0  0
   40.4254   27.4389   35.1708 H   0  0  0  0  0  0  0  0  0  0  0  0
   40.2622   25.8111   35.8566 H   0  0  0  0  0  0  0  0  0  0  0  0
   38.3455   27.9875   36.0560 H   0  0  0  0  0  0  0  0  0  0  0  0
   38.2974   26.3302   36.8333 H   0  0  0  0  0  0  0  0  0  0  0  0
   36.6131   25.9134   35.3949 H   0  0  0  0  0  0  0  0  0  0  0  0
   36.8817   27.5256   34.0544 N   0  0  0  0  0  0  0  0  0  0  0  0
   36.6757   28.7786   34.5507 C   0  0  0  0  0  0  0  0  0  0  0  0
   36.1635   29.5550   33.5590 N   0  0  0  0  0  0  0  0  0  0  0  0
   36.0542   28.8065   32.4776 C   0  0  0  0  0  0  0  0  0  0  0  0
   35.6238   28.9817   31.1903 C   0  0  0  0  0  0  0  0  0  0  0  0
   35.1392   30.2473   30.7593 N   0  0  0  0  0  0  0  0  0  0  0  0
   35.6142   28.0265   30.2492 N   0  0  0  0  0  0  0  0  0  0  0  0
   36.0581   26.7749   30.5576 C   0  0  0  0  0  0  0  0  0  0  0  0
   36.4876   26.5702   31.8137 N   0  0  0  0  0  0  0  0  0  0  0  0
   36.4943   27.5264   32.7465 C   0  0  0  0  0  0  0  0  0  0  0  0
   36.8436   29.1959   35.5147 H   0  0  0  0  0  0  0  0  0  0  0  0
   35.2074   31.1206   30.2162 H   0  0  0  0  0  0  0  0  0  0  0  0
   35.8241   30.6862   30.0884 H   0  0  0  0  0  0  0  0  0  0  0  0
   36.1325   25.8809   29.9583 H   0  0  0  0  0  0  0  0  0  0  0  0
  1 11  1  0
  2  1  2  0
  3  2  1  0
  4  5  1  0
  4  3  2  0
  5  6  2  0
  6 13  1  0
  6  1  1  0
  7  8  2  0
  9  8  1  0
 10  9  2  0
 11 12  2  0
 11 10  1  0
 12  7  1  0
 13 17  1  0
 14 13  1  0
 14 15  1  0
 15 16  1  0
 17 16  1  0
  2 18  1  0
  3 19  1  0
  4 20  1  0
  5 21  1  0
  7 22  1  0
  8 23  1  0
  9 24  1  0
 14 25  1  0
 14 26  1  0
 15 27  1  0
 15 28  1  0
 16 29  1  0
 16 30  1  0
 17 31  1  1
 32 33  1  0
 33 34  2  0
 34 35  1  0
 35 36  2  0
 36 37  1  0
 36 38  1  0
 38 39  2  0
 39 40  1  0
 40 41  2  0
 41 32  1  0
 41 35  1  0
 33 42  1  0
 37 43  1  0
 37 44  1  0
 39 45  1  0
 17 32  1  0
M  END
>  <DihAtoms>  (1) 
12,16,31,32

>  <DihDeg>  (1) 
84.68073795947956

$$$$
