
     RDKit          3D

 27 29  0  0  0  0  0  0  0  0999 V2000
   38.7900   23.5570   37.2390 C   0  0  0  0  0  0  0  0  0  0  0  0
   39.9030   22.7100   37.0390 C   0  0  0  0  0  0  0  0  0  0  0  0
   40.3440   22.5460   35.7040 C   0  0  0  0  0  0  0  0  0  0  0  0
   39.6840   23.1970   34.7230 N   0  0  0  0  0  0  0  0  0  0  0  0
   38.6220   23.9990   34.9600 C   0  0  0  0  0  0  0  0  0  0  0  0
   38.1760   24.1790   36.2120 N   0  0  0  0  0  0  0  0  0  0  0  0
   37.9510   24.6740   33.8790 C   0  0  0  0  0  0  0  0  0  0  0  0
   37.6830   24.1820   32.5970 C   0  0  0  0  0  0  0  0  0  0  0  0
   37.0360   25.1510   31.9110 N   0  0  0  0  0  0  0  0  0  0  0  0
   36.8700   26.2440   32.6830 C   0  0  0  0  0  0  0  0  0  0  0  0
   36.2820   27.4740   32.4500 C   0  0  0  0  0  0  0  0  0  0  0  0
   36.2700   28.4190   33.4740 C   0  0  0  0  0  0  0  0  0  0  0  0
   36.8290   28.1800   34.7330 C   0  0  0  0  0  0  0  0  0  0  0  0
   37.4020   26.9320   34.9020 C   0  0  0  0  0  0  0  0  0  0  0  0
   37.4350   25.9630   33.9110 C   0  0  0  0  0  0  0  0  0  0  0  0
   38.2760   23.7700   38.6390 C   0  0  0  0  0  0  0  0  0  0  0  0
   39.3090   23.7360   39.5640 F   0  0  0  0  0  0  0  0  0  0  0  0
   37.6800   25.0040   38.7380 F   0  0  0  0  0  0  0  0  0  0  0  0
   37.3500   22.7880   38.9210 F   0  0  0  0  0  0  0  0  0  0  0  0
   40.4017   22.2035   37.8785 H   0  0  0  0  0  0  0  0  0  0  0  0
   41.2052   21.9025   35.4713 H   0  0  0  0  0  0  0  0  0  0  0  0
   37.9506   23.1856   32.2156 H   0  0  0  0  0  0  0  0  0  0  0  0
   36.7151   25.0662   30.9359 H   0  0  0  0  0  0  0  0  0  0  0  0
   35.8314   27.7024   31.4729 H   0  0  0  0  0  0  0  0  0  0  0  0
   35.8004   29.3953   33.2835 H   0  0  0  0  0  0  0  0  0  0  0  0
   36.8143   28.9330   35.5347 H   0  0  0  0  0  0  0  0  0  0  0  0
   37.8561   26.6958   35.8757 H   0  0  0  0  0  0  0  0  0  0  0  0
  1 16  1  0
  2  1  2  0
  3  2  1  0
  4  5  1  0
  4  3  2  0
  5  6  2  0
  6  1  1  0
  7 15  1  0
  7  5  1  0
  8  7  2  0
  9  8  1  0
  9 10  1  0
 10 15  2  0
 11 10  1  0
 11 12  2  0
 12 13  1  0
 13 14  2  0
 15 14  1  0
 16 18  1  0
 16 19  1  0
 16 17  1  0
  2 20  1  0
  3 21  1  0
  8 22  1  0
  9 23  1  0
 11 24  1  0
 12 25  1  0
 13 26  1  0
 14 27  1  0
M  ISO  8  20  14  21  14  22  14  23   9  24  14  25  14  26  14  27  14
M  END
>  <minimizedAffinity>  (1) 
-5.7571063

>  <minimizedRMSD>  (1) 
2.29223204

$$$$
