
     RDKit          3D

 42 45  0  0  1  0  0  0  0  0999 V2000
   38.1910   25.4230   34.0750 N   0  0  0  0  0  0  0  0  0  0  0  0
   39.5250   26.0480   33.9610 C   0  0  0  0  0  0  0  0  0  0  0  0
   39.8160   26.6050   35.3390 C   0  0  0  0  0  0  0  0  0  0  0  0
   38.4250   26.9060   35.9250 C   0  0  0  0  0  0  0  0  0  0  0  0
   37.5150   26.4710   34.8130 C   0  0  1  0  0  0  0  0  0  0  0  0
   37.8670   23.0150   34.3690 C   0  0  0  0  0  0  0  0  0  0  0  0
   37.5130   21.7670   33.9000 C   0  0  0  0  0  0  0  0  0  0  0  0
   37.1040   21.6390   32.5840 C   0  0  0  0  0  0  0  0  0  0  0  0
   37.0540   22.7500   31.7560 C   0  0  0  0  0  0  0  0  0  0  0  0
   37.4130   23.9570   32.2700 C   0  0  0  0  0  0  0  0  0  0  0  0
   37.8270   24.1560   33.5610 C   0  0  0  0  0  0  0  0  0  0  0  0
   40.0680   22.8650   37.3000 C   0  0  0  0  0  0  0  0  0  0  0  0
   39.2380   23.2300   38.3550 C   0  0  0  0  0  0  0  0  0  0  0  0
   37.8910   23.5320   38.0500 C   0  0  0  0  0  0  0  0  0  0  0  0
   37.4630   23.4570   36.7640 N   0  0  0  0  0  0  0  0  0  0  0  0
   38.2990   23.1010   35.7720 C   0  0  0  0  0  0  0  0  0  0  0  0
   39.6030   22.8060   36.0490 N   0  0  0  0  0  0  0  0  0  0  0  0
   36.9630   27.5370   33.9840 C   0  0  0  0  0  0  0  0  0  0  0  0
   36.1460   28.5740   34.3710 C   0  0  0  0  0  0  0  0  0  0  0  0
   35.6290   29.5500   33.5580 C   0  0  0  0  0  0  0  0  0  0  0  0
   35.9400   29.5200   32.2120 C   0  0  0  0  0  0  0  0  0  0  0  0
   36.7620   28.4930   31.7650 C   0  0  0  0  0  0  0  0  0  0  0  0
   37.2490   27.5410   32.6350 C   0  0  0  0  0  0  0  0  0  0  0  0
   40.2800   25.2992   33.6793 H   0  0  0  0  0  0  0  0  0  0  0  0
   39.5508   26.8283   33.1861 H   0  0  0  0  0  0  0  0  0  0  0  0
   40.3472   25.8645   35.9551 H   0  0  0  0  0  0  0  0  0  0  0  0
   40.4615   27.4951   35.3064 H   0  0  0  0  0  0  0  0  0  0  0  0
   38.2430   26.3243   36.8407 H   0  0  0  0  0  0  0  0  0  0  0  0
   38.2882   27.9557   36.2241 H   0  0  0  0  0  0  0  0  0  0  0  0
   36.5915   26.0756   35.2611 H   0  0  0  0  0  0  0  0  0  0  0  0
   37.5551   20.8885   34.5607 H   0  0  0  0  0  0  0  0  0  0  0  0
   36.8173   20.6515   32.1932 H   0  0  0  0  0  0  0  0  0  0  0  0
   36.7317   22.6575   30.7084 H   0  0  0  0  0  0  0  0  0  0  0  0
   37.3680   24.8320   31.6048 H   0  0  0  0  0  0  0  0  0  0  0  0
   41.1222   22.6215   37.4987 H   0  0  0  0  0  0  0  0  0  0  0  0
   39.6153   23.2817   39.3870 H   0  0  0  0  0  0  0  0  0  0  0  0
   37.1946   23.8257   38.8492 H   0  0  0  0  0  0  0  0  0  0  0  0
   35.8814   28.6254   35.4375 H   0  0  0  0  0  0  0  0  0  0  0  0
   34.9814   30.3389   33.9682 H   0  0  0  0  0  0  0  0  0  0  0  0
   35.5510   30.2813   31.5198 H   0  0  0  0  0  0  0  0  0  0  0  0
   37.0286   28.4386   30.6992 H   0  0  0  0  0  0  0  0  0  0  0  0
   37.8963   26.7471   32.2342 H   0  0  0  0  0  0  0  0  0  0  0  0
  1  5  1  0
  2  1  1  0
  2  3  1  0
  3  4  1  0
  5  4  1  0
  6 16  1  0
  7  6  2  0
  8  7  1  0
  9 10  1  0
  9  8  2  0
 10 11  2  0
 11  1  1  0
 11  6  1  0
 12 13  2  0
 14 13  1  0
 15 14  2  0
 16 17  2  0
 16 15  1  0
 17 12  1  0
 18 19  2  0
 18  5  1  0
 20 19  1  0
 21 20  2  0
 22 21  1  0
 22 23  2  0
 23 18  1  0
  2 24  1  0
  2 25  1  0
  3 26  1  0
  3 27  1  0
  4 28  1  0
  4 29  1  0
  5 30  1  1
  7 31  1  0
  8 32  1  0
  9 33  1  0
 10 34  1  0
 12 35  1  0
 13 36  1  0
 14 37  1  0
 19 38  1  0
 20 39  1  0
 21 40  1  0
 22 41  1  0
 23 42  1  0
M  ISO  8  24  13  25  13  26  13  27  13  28  13  29  13  30  13  31  14
M  ISO  8  32  14  33  14  34  14  35  14  36  14  37  14  38  14  39  14
M  ISO  3  40  14  41  14  42  14
M  END
>  <minimizedAffinity>  (1) 
-6.19385719

>  <minimizedRMSD>  (1) 
0.477583885

$$$$
