
     RDKit          3D

 43 46  0  0  1  0  0  0  0  0999 V2000
   38.2150   25.3000   34.0700 N   0  0  0  0  0  0  0  0  0  0  0  0
   39.5760   25.8010   33.8640 C   0  0  0  0  0  0  0  0  0  0  0  0
   39.9370   26.4390   35.2020 C   0  0  0  0  0  0  0  0  0  0  0  0
   38.5870   26.8890   35.7820 C   0  0  0  0  0  0  0  0  0  0  0  0
   37.5910   26.4100   34.7510 C   0  0  1  0  0  0  0  0  0  0  0  0
   37.7400   22.9260   34.5320 C   0  0  0  0  0  0  0  0  0  0  0  0
   37.2940   21.6790   34.1630 C   0  0  0  0  0  0  0  0  0  0  0  0
   36.8280   21.4780   32.8820 C   0  0  0  0  0  0  0  0  0  0  0  0
   36.8170   22.5390   31.9830 C   0  0  0  0  0  0  0  0  0  0  0  0
   37.2700   23.7640   32.3880 C   0  0  0  0  0  0  0  0  0  0  0  0
   37.7430   24.0140   33.6550 C   0  0  0  0  0  0  0  0  0  0  0  0
   40.0160   22.8460   37.4100 C   0  0  0  0  0  0  0  0  0  0  0  0
   39.2430   23.3310   38.4590 C   0  0  0  0  0  0  0  0  0  0  0  0
   37.9160   23.6910   38.1760 C   0  0  0  0  0  0  0  0  0  0  0  0
   37.4470   23.5560   36.9100 N   0  0  0  0  0  0  0  0  0  0  0  0
   38.2270   23.0810   35.9140 C   0  0  0  0  0  0  0  0  0  0  0  0
   39.5100   22.7290   36.1790 N   0  0  0  0  0  0  0  0  0  0  0  0
   37.0830   27.4310   33.8960 N   0  0  0  0  0  0  0  0  0  0  0  0
   36.1320   28.3370   34.1930 C   0  0  0  0  0  0  0  0  0  0  0  0
   35.6880   29.2990   33.3160 C   0  0  0  0  0  0  0  0  0  0  0  0
   36.2550   29.3270   32.0680 C   0  0  0  0  0  0  0  0  0  0  0  0
   35.8060   30.3150   31.1540 N   0  0  0  0  0  0  0  0  0  0  0  0
   37.2100   28.4400   31.7300 N   0  0  0  0  0  0  0  0  0  0  0  0
   37.5930   27.5280   32.6430 C   0  0  0  0  0  0  0  0  0  0  0  0
   38.5000   26.7050   32.2860 O   0  0  0  0  0  0  0  0  0  0  0  0
   40.2645   24.9772   33.6245 H   0  0  0  0  0  0  0  0  0  0  0  0
   39.6459   26.5076   33.0238 H   0  0  0  0  0  0  0  0  0  0  0  0
   40.4218   25.7072   35.8649 H   0  0  0  0  0  0  0  0  0  0  0  0
   40.6474   27.2718   35.0934 H   0  0  0  0  0  0  0  0  0  0  0  0
   38.4008   26.4184   36.7587 H   0  0  0  0  0  0  0  0  0  0  0  0
   38.5345   27.9730   35.9614 H   0  0  0  0  0  0  0  0  0  0  0  0
   36.6648   26.0765   35.2418 H   0  0  0  0  0  0  0  0  0  0  0  0
   37.3090   20.8487   34.8844 H   0  0  0  0  0  0  0  0  0  0  0  0
   36.4674   20.4859   32.5728 H   0  0  0  0  0  0  0  0  0  0  0  0
   36.4478   22.3943   30.9570 H   0  0  0  0  0  0  0  0  0  0  0  0
   37.2554   24.5916   31.6635 H   0  0  0  0  0  0  0  0  0  0  0  0
   41.0601   22.5542   37.5964 H   0  0  0  0  0  0  0  0  0  0  0  0
   39.6562   23.4290   39.4737 H   0  0  0  0  0  0  0  0  0  0  0  0
   37.2633   24.0784   38.9722 H   0  0  0  0  0  0  0  0  0  0  0  0
   35.6835   28.3058   35.1969 H   0  0  0  0  0  0  0  0  0  0  0  0
   34.9077   30.0185   33.6049 H   0  0  0  0  0  0  0  0  0  0  0  0
   36.2111   30.3638   30.2083 H   0  0  0  0  0  0  0  0  0  0  0  0
   35.0750   30.9835   31.4362 H   0  0  0  0  0  0  0  0  0  0  0  0
  1  5  1  0
  2  1  1  0
  2  3  1  0
  3  4  1  0
  5  4  1  0
  6 16  1  0
  7  6  2  0
  8  7  1  0
  9 10  1  0
  9  8  2  0
 10 11  2  0
 11  1  1  0
 11  6  1  0
 12 13  2  0
 14 13  1  0
 15 14  2  0
 16 17  2  0
 16 15  1  0
 17 12  1  0
 18 19  1  0
 18  5  1  0
 20 19  2  0
 21 20  1  0
 22 21  1  0
 23 21  2  0
 23 24  1  0
 24 18  1  0
 25 24  2  0
  2 26  1  0
  2 27  1  0
  3 28  1  0
  3 29  1  0
  4 30  1  0
  4 31  1  0
  5 32  1  1
  7 33  1  0
  8 34  1  0
  9 35  1  0
 10 36  1  0
 12 37  1  0
 13 38  1  0
 14 39  1  0
 19 40  1  0
 20 41  1  0
 22 42  1  0
 22 43  1  0
M  ISO  8  26  13  27  13  28  13  29  13  30  13  31  13  32  13  33  14
M  ISO  8  34  14  35  14  36  14  37  14  38  14  39  14  40  14  41  14
M  END
>  <minimizedAffinity>  (1) 
-6.106462

>  <minimizedRMSD>  (1) 
0.788289189

$$$$
