
     RDKit          3D

 41 44  0  0  1  0  0  0  0  0999 V2000
   37.7670   22.9110   34.5310 C   0  0  0  0  0  0  0  0  0  0  0  0
   37.3660   21.6510   34.1580 C   0  0  0  0  0  0  0  0  0  0  0  0
   36.9100   21.4460   32.8670 C   0  0  0  0  0  0  0  0  0  0  0  0
   36.8650   22.5080   31.9790 C   0  0  0  0  0  0  0  0  0  0  0  0
   37.2740   23.7530   32.3890 C   0  0  0  0  0  0  0  0  0  0  0  0
   37.7380   24.0110   33.6650 C   0  0  0  0  0  0  0  0  0  0  0  0
   38.1640   25.3010   34.0990 N   0  0  0  0  0  0  0  0  0  0  0  0
   39.5270   25.8200   33.9360 C   0  0  0  0  0  0  0  0  0  0  0  0
   39.8360   26.4820   35.2640 C   0  0  0  0  0  0  0  0  0  0  0  0
   38.4670   26.8870   35.8320 C   0  0  0  0  0  0  0  0  0  0  0  0
   37.5040   26.3940   34.7550 C   0  0  1  0  0  0  0  0  0  0  0  0
   37.0000   27.4530   33.8910 C   0  0  0  0  0  0  0  0  0  0  0  0
   36.2120   28.4840   34.4170 C   0  0  0  0  0  0  0  0  0  0  0  0
   35.6790   29.5350   33.7000 C   0  0  0  0  0  0  0  0  0  0  0  0
   35.9420   29.5810   32.3500 C   0  0  0  0  0  0  0  0  0  0  0  0
   36.7150   28.5710   31.8260 C   0  0  0  0  0  0  0  0  0  0  0  0
   37.2080   27.5690   32.5750 N   0  0  0  0  0  0  0  0  0  0  0  0
   39.9940   22.8540   37.4500 C   0  0  0  0  0  0  0  0  0  0  0  0
   39.1950   23.3320   38.4840 C   0  0  0  0  0  0  0  0  0  0  0  0
   37.8780   23.6790   38.1800 C   0  0  0  0  0  0  0  0  0  0  0  0
   37.4340   23.5390   36.9080 N   0  0  0  0  0  0  0  0  0  0  0  0
   38.2440   23.0680   35.9210 C   0  0  0  0  0  0  0  0  0  0  0  0
   39.5140   22.7300   36.2040 N   0  0  0  0  0  0  0  0  0  0  0  0
   37.4067   20.8174   34.8745 H   0  0  0  0  0  0  0  0  0  0  0  0
   36.5850   20.4447   32.5481 H   0  0  0  0  0  0  0  0  0  0  0  0
   36.5037   22.3549   30.9514 H   0  0  0  0  0  0  0  0  0  0  0  0
   37.2303   24.5832   31.6687 H   0  0  0  0  0  0  0  0  0  0  0  0
   40.2341   25.0019   33.7344 H   0  0  0  0  0  0  0  0  0  0  0  0
   39.6135   26.5162   33.0888 H   0  0  0  0  0  0  0  0  0  0  0  0
   40.3420   25.7766   35.9396 H   0  0  0  0  0  0  0  0  0  0  0  0
   40.5086   27.3449   35.1499 H   0  0  0  0  0  0  0  0  0  0  0  0
   38.2738   26.3917   36.7950 H   0  0  0  0  0  0  0  0  0  0  0  0
   38.3792   27.9637   36.0394 H   0  0  0  0  0  0  0  0  0  0  0  0
   36.5622   26.0291   35.1908 H   0  0  0  0  0  0  0  0  0  0  0  0
   35.9995   28.4532   35.4958 H   0  0  0  0  0  0  0  0  0  0  0  0
   35.0669   30.3072   34.1889 H   0  0  0  0  0  0  0  0  0  0  0  0
   35.5507   30.3910   31.7169 H   0  0  0  0  0  0  0  0  0  0  0  0
   36.9392   28.5836   30.7492 H   0  0  0  0  0  0  0  0  0  0  0  0
   41.0370   22.5731   37.6581 H   0  0  0  0  0  0  0  0  0  0  0  0
   39.5881   23.4329   39.5064 H   0  0  0  0  0  0  0  0  0  0  0  0
   37.2083   24.0617   38.9642 H   0  0  0  0  0  0  0  0  0  0  0  0
  1 22  1  0
  2  1  2  0
  3  2  1  0
  4  5  1  0
  4  3  2  0
  5  6  2  0
  6  7  1  0
  6  1  1  0
  7 11  1  0
  8  7  1  0
  8  9  1  0
  9 10  1  0
 11 10  1  0
 12 13  2  0
 12 11  1  0
 14 13  1  0
 15 14  2  0
 16 15  1  0
 16 17  2  0
 17 12  1  0
 18 19  2  0
 20 19  1  0
 21 20  2  0
 22 23  2  0
 22 21  1  0
 23 18  1  0
  2 24  1  0
  3 25  1  0
  4 26  1  0
  5 27  1  0
  8 28  1  0
  8 29  1  0
  9 30  1  0
  9 31  1  0
 10 32  1  0
 10 33  1  0
 11 34  1  1
 13 35  1  0
 14 36  1  0
 15 37  1  0
 16 38  1  0
 18 39  1  0
 19 40  1  0
 20 41  1  0
M  ISO  8  24  14  25  14  26  14  27  14  28  13  29  13  30  13  31  13
M  ISO  8  32  13  33  13  34  13  35  14  36  14  37  14  38  14  39  14
M  ISO  2  40  14  41  14
M  END
>  <minimizedAffinity>  (1) 
-5.97413158

>  <minimizedRMSD>  (1) 
0.62016207

$$$$
