
     RDKit          3D

 39 42  0  0  1  0  0  0  0  0999 V2000
   37.8950   22.9670   34.3310 C   0  0  0  0  0  0  0  0  0  0  0  0
   37.6080   21.7090   33.8500 C   0  0  0  0  0  0  0  0  0  0  0  0
   37.2140   21.5620   32.5370 C   0  0  0  0  0  0  0  0  0  0  0  0
   37.1120   22.6720   31.7200 C   0  0  0  0  0  0  0  0  0  0  0  0
   37.4050   23.9180   32.2240 C   0  0  0  0  0  0  0  0  0  0  0  0
   37.8020   24.1110   33.5290 C   0  0  0  0  0  0  0  0  0  0  0  0
   38.1100   25.4090   34.0600 N   0  0  0  0  0  0  0  0  0  0  0  0
   39.3910   26.0960   33.8920 C   0  0  0  0  0  0  0  0  0  0  0  0
   39.6840   26.6500   35.2930 C   0  0  0  0  0  0  0  0  0  0  0  0
   38.2990   26.8740   35.9080 C   0  0  0  0  0  0  0  0  0  0  0  0
   37.3600   26.3720   34.8420 C   0  0  1  0  0  0  0  0  0  0  0  0
   36.7630   27.4100   34.0610 N   0  0  0  0  0  0  0  0  0  0  0  0
   36.3250   28.5570   34.5280 N   0  0  0  0  0  0  0  0  0  0  0  0
   35.8200   29.3080   33.5160 C   0  0  0  0  0  0  0  0  0  0  0  0
   35.9710   28.5410   32.3570 C   0  0  0  0  0  0  0  0  0  0  0  0
   36.5710   27.3430   32.7250 C   0  0  0  0  0  0  0  0  0  0  0  0
   40.0630   22.9190   37.2850 C   0  0  0  0  0  0  0  0  0  0  0  0
   39.1990   23.2350   38.3360 C   0  0  0  0  0  0  0  0  0  0  0  0
   37.8550   23.4670   38.0200 C   0  0  0  0  0  0  0  0  0  0  0  0
   37.4490   23.3770   36.7280 N   0  0  0  0  0  0  0  0  0  0  0  0
   38.3100   23.0690   35.7340 C   0  0  0  0  0  0  0  0  0  0  0  0
   39.6220   22.8410   36.0300 N   0  0  0  0  0  0  0  0  0  0  0  0
   37.6922   20.8305   34.5066 H   0  0  0  0  0  0  0  0  0  0  0  0
   36.9812   20.5628   32.1403 H   0  0  0  0  0  0  0  0  0  0  0  0
   36.7980   22.5597   30.6718 H   0  0  0  0  0  0  0  0  0  0  0  0
   37.3192   24.7917   31.5612 H   0  0  0  0  0  0  0  0  0  0  0  0
   40.1757   25.3935   33.5745 H   0  0  0  0  0  0  0  0  0  0  0  0
   39.3608   26.8778   33.1187 H   0  0  0  0  0  0  0  0  0  0  0  0
   40.2612   25.9252   35.8859 H   0  0  0  0  0  0  0  0  0  0  0  0
   40.2851   27.5708   35.2639 H   0  0  0  0  0  0  0  0  0  0  0  0
   38.1832   26.2981   36.8380 H   0  0  0  0  0  0  0  0  0  0  0  0
   38.1154   27.9230   36.1836 H   0  0  0  0  0  0  0  0  0  0  0  0
   36.4827   25.8928   35.3010 H   0  0  0  0  0  0  0  0  0  0  0  0
   35.3817   30.3140   33.5924 H   0  0  0  0  0  0  0  0  0  0  0  0
   35.6699   28.8325   31.3400 H   0  0  0  0  0  0  0  0  0  0  0  0
   36.8367   26.5069   32.0613 H   0  0  0  0  0  0  0  0  0  0  0  0
   41.1259   22.7313   37.4970 H   0  0  0  0  0  0  0  0  0  0  0  0
   39.5609   23.2992   39.3728 H   0  0  0  0  0  0  0  0  0  0  0  0
   37.1345   23.7200   38.8117 H   0  0  0  0  0  0  0  0  0  0  0  0
  1 21  1  0
  2  1  2  0
  3  2  1  0
  4  5  1  0
  4  3  2  0
  5  6  2  0
  6  7  1  0
  6  1  1  0
  7 11  1  0
  8  7  1  0
  8  9  1  0
  9 10  1  0
 11 10  1  0
 12 13  1  0
 12 11  1  0
 14 13  2  0
 15 16  2  0
 15 14  1  0
 16 12  1  0
 17 18  2  0
 19 18  1  0
 20 19  2  0
 21 22  2  0
 21 20  1  0
 22 17  1  0
  2 23  1  0
  3 24  1  0
  4 25  1  0
  5 26  1  0
  8 27  1  0
  8 28  1  0
  9 29  1  0
  9 30  1  0
 10 31  1  0
 10 32  1  0
 11 33  1  1
 14 34  1  0
 15 35  1  0
 16 36  1  0
 17 37  1  0
 18 38  1  0
 19 39  1  0
M  ISO  8  23  14  24  14  25  14  26  14  27  13  28  13  29  13  30  13
M  ISO  8  31  13  32  13  33  13  34  14  35  14  36  14  37  14  38  14
M  ISO  1  39  14
M  END
>  <minimizedAffinity>  (1) 
-5.58400154

>  <minimizedRMSD>  (1) 
0.248683989

$$$$
