
     RDKit          3D

 44 47  0  0  1  0  0  0  0  0999 V2000
   37.7710   22.9460   34.5530 C   0  0  0  0  0  0  0  0  0  0  0  0
   37.4080   21.6750   34.1670 C   0  0  0  0  0  0  0  0  0  0  0  0
   36.9750   21.4800   32.8560 C   0  0  0  0  0  0  0  0  0  0  0  0
   36.9190   22.5550   31.9770 C   0  0  0  0  0  0  0  0  0  0  0  0
   37.2920   23.7860   32.4190 C   0  0  0  0  0  0  0  0  0  0  0  0
   37.7290   24.0510   33.6980 C   0  0  0  0  0  0  0  0  0  0  0  0
   38.1170   25.3410   34.1550 N   0  0  0  0  0  0  0  0  0  0  0  0
   39.4630   25.9070   34.0070 C   0  0  0  0  0  0  0  0  0  0  0  0
   39.7490   26.5630   35.3460 C   0  0  0  0  0  0  0  0  0  0  0  0
   38.3650   26.9240   35.9160 C   0  0  0  0  0  0  0  0  0  0  0  0
   37.4270   26.4080   34.8320 C   0  0  1  0  0  0  0  0  0  0  0  0
   36.8990   27.4210   34.0640 N   0  0  0  0  0  0  0  0  0  0  0  0
   36.4390   28.6130   34.6020 C   0  0  0  0  0  0  0  0  0  0  0  0
   35.4570   29.0600   33.5060 C   0  0  0  0  0  0  0  0  0  0  0  0
   36.1030   28.5490   32.2390 C   0  0  0  0  0  0  0  0  0  0  0  0
   37.1130   27.4920   32.6860 C   0  0  0  0  0  0  0  0  0  0  0  0
   39.9700   22.8980   37.4930 C   0  0  0  0  0  0  0  0  0  0  0  0
   39.1550   23.3520   38.5270 C   0  0  0  0  0  0  0  0  0  0  0  0
   37.8310   23.6810   38.2160 C   0  0  0  0  0  0  0  0  0  0  0  0
   37.4040   23.5450   36.9370 N   0  0  0  0  0  0  0  0  0  0  0  0
   38.2240   23.1000   35.9580 C   0  0  0  0  0  0  0  0  0  0  0  0
   39.5050   22.7800   36.2420 N   0  0  0  0  0  0  0  0  0  0  0  0
   37.4584   20.8347   34.8751 H   0  0  0  0  0  0  0  0  0  0  0  0
   36.6780   20.4763   32.5178 H   0  0  0  0  0  0  0  0  0  0  0  0
   36.5786   22.4126   30.9407 H   0  0  0  0  0  0  0  0  0  0  0  0
   37.2414   24.6245   31.7088 H   0  0  0  0  0  0  0  0  0  0  0  0
   40.1970   25.1149   33.7975 H   0  0  0  0  0  0  0  0  0  0  0  0
   39.5279   26.6183   33.1704 H   0  0  0  0  0  0  0  0  0  0  0  0
   40.2725   25.8642   36.0150 H   0  0  0  0  0  0  0  0  0  0  0  0
   40.3971   27.4459   35.2437 H   0  0  0  0  0  0  0  0  0  0  0  0
   38.1838   26.4167   36.8751 H   0  0  0  0  0  0  0  0  0  0  0  0
   38.2423   27.9953   36.1333 H   0  0  0  0  0  0  0  0  0  0  0  0
   36.5032   25.9749   35.2432 H   0  0  0  0  0  0  0  0  0  0  0  0
   35.9285   28.4536   35.5632 H   0  0  0  0  0  0  0  0  0  0  0  0
   37.2278   29.3437   34.8341 H   0  0  0  0  0  0  0  0  0  0  0  0
   34.4659   28.6065   33.6547 H   0  0  0  0  0  0  0  0  0  0  0  0
   35.2848   30.1464   33.4962 H   0  0  0  0  0  0  0  0  0  0  0  0
   36.6135   29.3683   31.7115 H   0  0  0  0  0  0  0  0  0  0  0  0
   35.3593   28.1314   31.5443 H   0  0  0  0  0  0  0  0  0  0  0  0
   36.9126   26.5239   32.2037 H   0  0  0  0  0  0  0  0  0  0  0  0
   38.1506   27.7415   32.4193 H   0  0  0  0  0  0  0  0  0  0  0  0
   41.0154   22.6312   37.7074 H   0  0  0  0  0  0  0  0  0  0  0  0
   39.5390   23.4487   39.5532 H   0  0  0  0  0  0  0  0  0  0  0  0
   37.1474   24.0444   38.9975 H   0  0  0  0  0  0  0  0  0  0  0  0
  1 21  1  0
  2  1  2  0
  3  2  1  0
  4  5  1  0
  4  3  2  0
  5  6  2  0
  6  7  1  0
  6  1  1  0
  7 11  1  0
  8  7  1  0
  8  9  1  0
  9 10  1  0
 11 10  1  0
 12 13  1  0
 12 11  1  0
 14 13  1  0
 15 16  1  0
 15 14  1  0
 16 12  1  0
 17 18  2  0
 19 18  1  0
 20 19  2  0
 21 22  2  0
 21 20  1  0
 22 17  1  0
  2 23  1  0
  3 24  1  0
  4 25  1  0
  5 26  1  0
  8 27  1  0
  8 28  1  0
  9 29  1  0
  9 30  1  0
 10 31  1  0
 10 32  1  0
 11 33  1  1
 13 34  1  0
 13 35  1  0
 14 36  1  0
 14 37  1  0
 15 38  1  0
 15 39  1  0
 16 40  1  0
 16 41  1  0
 17 42  1  0
 18 43  1  0
 19 44  1  0
M  ISO  8  23  14  24  14  25  14  26  14  27  13  28  13  29  13  30  13
M  ISO  8  31  13  32  13  33  13  34  13  35  13  36  13  37  13  38  13
M  ISO  6  39  13  40  13  41  13  42  14  43  14  44  14
M  END
>  <minimizedAffinity>  (1) 
-5.59845638

>  <minimizedRMSD>  (1) 
0.501750648

$$$$
