
     RDKit          3D

 45 48  0  0  1  0  0  0  0  0999 V2000
   37.9110   23.0190   34.3050 C   0  0  0  0  0  0  0  0  0  0  0  0
   37.5640   21.7590   33.8630 C   0  0  0  0  0  0  0  0  0  0  0  0
   37.1950   21.5950   32.5400 C   0  0  0  0  0  0  0  0  0  0  0  0
   37.1790   22.6810   31.6870 C   0  0  0  0  0  0  0  0  0  0  0  0
   37.5310   23.9050   32.1730 C   0  0  0  0  0  0  0  0  0  0  0  0
   37.9080   24.1440   33.4750 C   0  0  0  0  0  0  0  0  0  0  0  0
   38.2690   25.4320   33.9700 N   0  0  0  0  0  0  0  0  0  0  0  0
   39.6380   25.9470   34.0180 C   0  0  0  0  0  0  0  0  0  0  0  0
   39.7650   26.5590   35.4080 C   0  0  0  0  0  0  0  0  0  0  0  0
   38.3350   26.9970   35.7380 C   0  0  0  0  0  0  0  0  0  0  0  0
   37.5440   26.5370   34.5280 C   0  0  1  0  0  0  0  0  0  0  0  0
   37.1980   27.5850   33.6330 N   0  0  0  0  0  0  0  0  0  0  0  0
   36.5240   27.0000   32.4890 C   0  0  0  0  0  0  0  0  0  0  0  0
   35.3690   27.8470   32.0080 C   0  0  0  0  0  0  0  0  0  0  0  0
   35.7840   29.1700   32.0040 O   0  0  0  0  0  0  0  0  0  0  0  0
   35.7790   29.5660   33.3330 C   0  0  0  0  0  0  0  0  0  0  0  0
   36.2370   28.4580   34.2720 C   0  0  0  0  0  0  0  0  0  0  0  0
   39.9940   22.8410   37.3240 C   0  0  0  0  0  0  0  0  0  0  0  0
   39.1360   23.3090   38.3300 C   0  0  0  0  0  0  0  0  0  0  0  0
   37.8280   23.6910   37.9690 C   0  0  0  0  0  0  0  0  0  0  0  0
   37.4550   23.5900   36.6720 N   0  0  0  0  0  0  0  0  0  0  0  0
   38.2990   23.1370   35.7290 C   0  0  0  0  0  0  0  0  0  0  0  0
   39.5700   22.7630   36.0600 N   0  0  0  0  0  0  0  0  0  0  0  0
   37.5805   20.9003   34.5503 H   0  0  0  0  0  0  0  0  0  0  0  0
   36.9141   20.5990   32.1671 H   0  0  0  0  0  0  0  0  0  0  0  0
   36.8872   22.5604   30.6333 H   0  0  0  0  0  0  0  0  0  0  0  0
   37.5125   24.7580   31.4788 H   0  0  0  0  0  0  0  0  0  0  0  0
   40.3651   25.1326   33.8835 H   0  0  0  0  0  0  0  0  0  0  0  0
   39.8397   26.6759   33.2192 H   0  0  0  0  0  0  0  0  0  0  0  0
   40.1257   25.8151   36.1336 H   0  0  0  0  0  0  0  0  0  0  0  0
   40.4867   27.3882   35.4466 H   0  0  0  0  0  0  0  0  0  0  0  0
   37.9741   26.5075   36.6546 H   0  0  0  0  0  0  0  0  0  0  0  0
   38.2471   28.0773   35.9258 H   0  0  0  0  0  0  0  0  0  0  0  0
   36.5394   26.1901   34.8117 H   0  0  0  0  0  0  0  0  0  0  0  0
   37.2489   26.8920   31.6687 H   0  0  0  0  0  0  0  0  0  0  0  0
   36.1196   26.0252   32.7994 H   0  0  0  0  0  0  0  0  0  0  0  0
   35.0803   27.5427   30.9911 H   0  0  0  0  0  0  0  0  0  0  0  0
   34.4991   27.7201   32.6691 H   0  0  0  0  0  0  0  0  0  0  0  0
   36.4539   30.4271   33.4473 H   0  0  0  0  0  0  0  0  0  0  0  0
   34.7443   29.8257   33.6011 H   0  0  0  0  0  0  0  0  0  0  0  0
   35.3628   27.8644   34.5777 H   0  0  0  0  0  0  0  0  0  0  0  0
   36.7194   28.9225   35.1446 H   0  0  0  0  0  0  0  0  0  0  0  0
   41.0204   22.5370   37.5772 H   0  0  0  0  0  0  0  0  0  0  0  0
   39.4752   23.3762   39.3742 H   0  0  0  0  0  0  0  0  0  0  0  0
   37.1238   24.0641   38.7272 H   0  0  0  0  0  0  0  0  0  0  0  0
  1 22  1  0
  2  1  2  0
  3  2  1  0
  4  5  1  0
  4  3  2  0
  5  6  2  0
  6  7  1  0
  6  1  1  0
  7  8  1  0
  7 11  1  0
  8  9  1  0
  9 10  1  0
 11 10  1  0
 12 17  1  0
 12 11  1  0
 13 12  1  0
 14 13  1  0
 15 14  1  0
 15 16  1  0
 16 17  1  0
 18 19  2  0
 20 19  1  0
 21 20  2  0
 22 23  2  0
 22 21  1  0
 23 18  1  0
  2 24  1  0
  3 25  1  0
  4 26  1  0
  5 27  1  0
  8 28  1  0
  8 29  1  0
  9 30  1  0
  9 31  1  0
 10 32  1  0
 10 33  1  0
 11 34  1  1
 13 35  1  0
 13 36  1  0
 14 37  1  0
 14 38  1  0
 16 39  1  0
 16 40  1  0
 17 41  1  0
 17 42  1  0
 18 43  1  0
 19 44  1  0
 20 45  1  0
M  ISO  8  24  14  25  14  26  14  27  14  28  13  29  13  30  13  31  13
M  ISO  8  32  13  33  13  34  13  35  13  36  13  37  13  38  13  39  13
M  ISO  6  40  13  41  13  42  13  43  14  44  14  45  14
M  END
>  <minimizedAffinity>  (1) 
-5.54860783

>  <minimizedRMSD>  (1) 
0.996532798

$$$$
