
     RDKit          3D

 38 40  0  0  1  0  0  0  0  0999 V2000
   37.8160   22.9430   34.3880 C   0  0  0  0  0  0  0  0  0  0  0  0
   37.4280   21.6800   33.9680 C   0  0  0  0  0  0  0  0  0  0  0  0
   36.9820   21.4920   32.6730 C   0  0  0  0  0  0  0  0  0  0  0  0
   36.9290   22.5790   31.8040 C   0  0  0  0  0  0  0  0  0  0  0  0
   37.3220   23.8170   32.2510 C   0  0  0  0  0  0  0  0  0  0  0  0
   37.7740   24.0450   33.5410 C   0  0  0  0  0  0  0  0  0  0  0  0
   38.1780   25.3360   33.9920 N   0  0  0  0  0  0  0  0  0  0  0  0
   39.5260   25.8860   33.8880 C   0  0  0  0  0  0  0  0  0  0  0  0
   39.7800   26.5180   35.2570 C   0  0  0  0  0  0  0  0  0  0  0  0
   38.3760   26.9190   35.7470 C   0  0  0  0  0  0  0  0  0  0  0  0
   37.4800   26.4340   34.6380 C   0  0  1  0  0  0  0  0  0  0  0  0
   37.1140   27.5290   33.6640 C   0  0  0  0  0  0  0  0  0  0  0  0
   36.2060   28.4960   34.3980 C   0  0  0  0  0  0  0  0  0  0  0  0
   40.0350   22.8540   37.2920 C   0  0  0  0  0  0  0  0  0  0  0  0
   39.2170   23.2960   38.3440 C   0  0  0  0  0  0  0  0  0  0  0  0
   37.8950   23.6230   38.0400 C   0  0  0  0  0  0  0  0  0  0  0  0
   37.4510   23.5060   36.7580 N   0  0  0  0  0  0  0  0  0  0  0  0
   38.2790   23.0740   35.7720 C   0  0  0  0  0  0  0  0  0  0  0  0
   39.5620   22.7530   36.0450 N   0  0  0  0  0  0  0  0  0  0  0  0
   37.4749   20.8292   34.6637 H   0  0  0  0  0  0  0  0  0  0  0  0
   36.6719   20.4932   32.3322 H   0  0  0  0  0  0  0  0  0  0  0  0
   36.5761   22.4476   30.7705 H   0  0  0  0  0  0  0  0  0  0  0  0
   37.2758   24.6661   31.5532 H   0  0  0  0  0  0  0  0  0  0  0  0
   40.2574   25.0901   33.6840 H   0  0  0  0  0  0  0  0  0  0  0  0
   39.6235   26.6096   33.0653 H   0  0  0  0  0  0  0  0  0  0  0  0
   40.2415   25.7926   35.9432 H   0  0  0  0  0  0  0  0  0  0  0  0
   40.4718   27.3718   35.2079 H   0  0  0  0  0  0  0  0  0  0  0  0
   38.1323   26.4228   36.6980 H   0  0  0  0  0  0  0  0  0  0  0  0
   38.2769   27.9965   35.9451 H   0  0  0  0  0  0  0  0  0  0  0  0
   36.5159   26.0971   35.0466 H   0  0  0  0  0  0  0  0  0  0  0  0
   36.5882   27.1022   32.7972 H   0  0  0  0  0  0  0  0  0  0  0  0
   38.0149   28.0418   33.2960 H   0  0  0  0  0  0  0  0  0  0  0  0
   36.3301   28.3638   35.4830 H   0  0  0  0  0  0  0  0  0  0  0  0
   36.4693   29.5277   34.1218 H   0  0  0  0  0  0  0  0  0  0  0  0
   35.1598   28.2981   34.1218 H   0  0  0  0  0  0  0  0  0  0  0  0
   41.0821   22.5864   37.4967 H   0  0  0  0  0  0  0  0  0  0  0  0
   39.6040   23.3814   39.3701 H   0  0  0  0  0  0  0  0  0  0  0  0
   37.2156   23.9732   38.8311 H   0  0  0  0  0  0  0  0  0  0  0  0
  1 18  1  0
  2  1  2  0
  3  2  1  0
  4  5  1  0
  4  3  2  0
  5  6  2  0
  6  7  1  0
  6  1  1  0
  7 11  1  0
  8  7  1  0
  8  9  1  0
  9 10  1  0
 11 10  1  0
 12 13  1  0
 12 11  1  0
 14 15  2  0
 16 15  1  0
 17 16  2  0
 18 19  2  0
 18 17  1  0
 19 14  1  0
  2 20  1  0
  3 21  1  0
  4 22  1  0
  5 23  1  0
  8 24  1  0
  8 25  1  0
  9 26  1  0
  9 27  1  0
 10 28  1  0
 10 29  1  0
 11 30  1  1
 12 31  1  0
 12 32  1  0
 13 33  1  0
 13 34  1  0
 13 35  1  0
 14 36  1  0
 15 37  1  0
 16 38  1  0
M  ISO  8  20  14  21  14  22  14  23  14  24  13  25  13  26  13  27  13
M  ISO  8  28  13  29  13  30  13  31   8  32   8  33   8  34   8  35   8
M  ISO  3  36  14  37  14  38  14
M  END
>  <minimizedAffinity>  (1) 
-5.06356478

>  <minimizedRMSD>  (1) 
0.225918457

$$$$
