
     RDKit          3D

 38 41  0  0  1  0  0  0  0  0999 V2000
   37.8970   22.9690   34.3220 C   0  0  0  0  0  0  0  0  0  0  0  0
   37.6090   21.7080   33.8430 C   0  0  0  0  0  0  0  0  0  0  0  0
   37.2150   21.5460   32.5340 C   0  0  0  0  0  0  0  0  0  0  0  0
   37.1100   22.6660   31.7030 C   0  0  0  0  0  0  0  0  0  0  0  0
   37.4040   23.8960   32.2200 C   0  0  0  0  0  0  0  0  0  0  0  0
   37.8040   24.0940   33.5290 C   0  0  0  0  0  0  0  0  0  0  0  0
   38.1080   25.3970   34.0490 N   0  0  0  0  0  0  0  0  0  0  0  0
   39.4040   26.0840   33.9130 C   0  0  0  0  0  0  0  0  0  0  0  0
   39.6540   26.6670   35.2910 C   0  0  0  0  0  0  0  0  0  0  0  0
   38.2500   26.8720   35.8940 C   0  0  0  0  0  0  0  0  0  0  0  0
   37.3480   26.3850   34.7990 C   0  0  1  0  0  0  0  0  0  0  0  0
   36.8100   27.4750   33.9430 C   0  0  0  0  0  0  0  0  0  0  0  0
   36.8360   27.5020   32.5040 C   0  0  0  0  0  0  0  0  0  0  0  0
   36.0250   29.1030   32.1470 S   0  0  0  0  0  0  0  0  0  0  0  0
   35.7880   29.4630   34.0010 C   0  0  0  0  0  0  0  0  0  0  0  0
   36.2660   28.4980   34.6160 N   0  0  0  0  0  0  0  0  0  0  0  0
   40.0690   22.9220   37.2770 C   0  0  0  0  0  0  0  0  0  0  0  0
   39.2070   23.2440   38.3200 C   0  0  0  0  0  0  0  0  0  0  0  0
   37.8590   23.4810   38.0080 C   0  0  0  0  0  0  0  0  0  0  0  0
   37.4470   23.3890   36.7170 N   0  0  0  0  0  0  0  0  0  0  0  0
   38.3140   23.0740   35.7280 C   0  0  0  0  0  0  0  0  0  0  0  0
   39.6240   22.8420   36.0190 N   0  0  0  0  0  0  0  0  0  0  0  0
   37.6940   20.8339   34.5054 H   0  0  0  0  0  0  0  0  0  0  0  0
   36.9845   20.5434   32.1446 H   0  0  0  0  0  0  0  0  0  0  0  0
   36.7969   22.5587   30.6540 H   0  0  0  0  0  0  0  0  0  0  0  0
   37.3182   24.7732   31.5618 H   0  0  0  0  0  0  0  0  0  0  0  0
   40.1972   25.3728   33.6391 H   0  0  0  0  0  0  0  0  0  0  0  0
   39.3976   26.8496   33.1232 H   0  0  0  0  0  0  0  0  0  0  0  0
   40.2415   25.9693   35.9059 H   0  0  0  0  0  0  0  0  0  0  0  0
   40.2273   27.6048   35.2468 H   0  0  0  0  0  0  0  0  0  0  0  0
   38.1204   26.2761   36.8095 H   0  0  0  0  0  0  0  0  0  0  0  0
   38.0509   27.9113   36.1944 H   0  0  0  0  0  0  0  0  0  0  0  0
   36.4413   25.9344   35.2289 H   0  0  0  0  0  0  0  0  0  0  0  0
   37.2380   26.7558   31.8028 H   0  0  0  0  0  0  0  0  0  0  0  0
   35.3180   30.3546   34.4417 H   0  0  0  0  0  0  0  0  0  0  0  0
   41.1310   22.7306   37.4901 H   0  0  0  0  0  0  0  0  0  0  0  0
   39.5700   23.3108   39.3562 H   0  0  0  0  0  0  0  0  0  0  0  0
   37.1427   23.7389   38.8020 H   0  0  0  0  0  0  0  0  0  0  0  0
  1 21  1  0
  2  1  2  0
  3  2  1  0
  4  5  1  0
  4  3  2  0
  5  6  2  0
  6  7  1  0
  6  1  1  0
  7 11  1  0
  8  7  1  0
  8  9  1  0
  9 10  1  0
 11 10  1  0
 12 16  1  0
 12 11  1  0
 13 12  2  0
 14 13  1  0
 14 15  1  0
 15 16  2  0
 17 18  2  0
 19 18  1  0
 20 19  2  0
 21 22  2  0
 21 20  1  0
 22 17  1  0
  2 23  1  0
  3 24  1  0
  4 25  1  0
  5 26  1  0
  8 27  1  0
  8 28  1  0
  9 29  1  0
  9 30  1  0
 10 31  1  0
 10 32  1  0
 11 33  1  1
 13 34  1  0
 15 35  1  0
 17 36  1  0
 18 37  1  0
 19 38  1  0
M  ISO  8  23  14  24  14  25  14  26  14  27  13  28  13  29  13  30  13
M  ISO  8  31  13  32  13  33  13  34  14  35  14  36  14  37  14  38  14
M  END
>  <minimizedAffinity>  (1) 
-5.50692701

>  <minimizedRMSD>  (1) 
0.317645967

$$$$
