
     RDKit          3D

 39 42  0  0  1  0  0  0  0  0999 V2000
   37.7700   22.9160   34.4110 C   0  0  0  0  0  0  0  0  0  0  0  0
   37.2170   21.7020   34.0690 C   0  0  0  0  0  0  0  0  0  0  0  0
   36.7310   21.5100   32.7950 C   0  0  0  0  0  0  0  0  0  0  0  0
   36.8080   22.5480   31.8710 C   0  0  0  0  0  0  0  0  0  0  0  0
   37.3620   23.7370   32.2460 C   0  0  0  0  0  0  0  0  0  0  0  0
   37.8630   23.9830   33.5110 C   0  0  0  0  0  0  0  0  0  0  0  0
   38.4420   25.2280   33.8960 N   0  0  0  0  0  0  0  0  0  0  0  0
   39.8600   25.5700   33.7840 C   0  0  0  0  0  0  0  0  0  0  0  0
   40.1700   26.2590   35.1190 C   0  0  0  0  0  0  0  0  0  0  0  0
   38.8490   26.8710   35.5560 C   0  0  0  0  0  0  0  0  0  0  0  0
   37.8790   26.4420   34.4680 C   0  0  1  0  0  0  0  0  0  0  0  0
   37.6030   27.5010   33.4510 C   0  0  0  0  0  0  0  0  0  0  0  0
   36.3430   28.2900   33.7380 C   0  0  0  0  0  0  0  0  0  0  0  0
   36.4180   27.3190   32.5560 C   0  0  0  0  0  0  0  0  0  0  0  0
   40.0340   22.6940   37.2910 C   0  0  0  0  0  0  0  0  0  0  0  0
   39.2950   23.2800   38.3350 C   0  0  0  0  0  0  0  0  0  0  0  0
   38.0160   23.7490   38.0390 C   0  0  0  0  0  0  0  0  0  0  0  0
   37.5300   23.6290   36.7710 N   0  0  0  0  0  0  0  0  0  0  0  0
   38.2730   23.0600   35.7970 C   0  0  0  0  0  0  0  0  0  0  0  0
   39.5130   22.5990   36.0620 N   0  0  0  0  0  0  0  0  0  0  0  0
   37.1638   20.8902   34.8094 H   0  0  0  0  0  0  0  0  0  0  0  0
   36.2860   20.5452   32.5102 H   0  0  0  0  0  0  0  0  0  0  0  0
   36.4260   22.4111   30.8486 H   0  0  0  0  0  0  0  0  0  0  0  0
   37.4129   24.5445   31.5008 H   0  0  0  0  0  0  0  0  0  0  0  0
   40.4734   24.6659   33.6567 H   0  0  0  0  0  0  0  0  0  0  0  0
   40.0795   26.2054   32.9133 H   0  0  0  0  0  0  0  0  0  0  0  0
   40.5219   25.5267   35.8605 H   0  0  0  0  0  0  0  0  0  0  0  0
   40.9651   27.0129   35.0224 H   0  0  0  0  0  0  0  0  0  0  0  0
   38.5392   26.4781   36.5356 H   0  0  0  0  0  0  0  0  0  0  0  0
   38.9025   27.9633   35.6744 H   0  0  0  0  0  0  0  0  0  0  0  0
   36.8815   26.2557   34.8925 H   0  0  0  0  0  0  0  0  0  0  0  0
   38.6605   27.7283   33.2511 H   0  0  0  0  0  0  0  0  0  0  0  0
   35.7258   28.0468   34.6154 H   0  0  0  0  0  0  0  0  0  0  0  0
   36.0955   29.3543   33.8646 H   0  0  0  0  0  0  0  0  0  0  0  0
   36.4415   27.7063   31.5267 H   0  0  0  0  0  0  0  0  0  0  0  0
   35.8234   26.4574   32.2182 H   0  0  0  0  0  0  0  0  0  0  0  0
   41.0467   22.3114   37.4862 H   0  0  0  0  0  0  0  0  0  0  0  0
   39.7119   23.3651   39.3494 H   0  0  0  0  0  0  0  0  0  0  0  0
   37.4020   24.2136   38.8246 H   0  0  0  0  0  0  0  0  0  0  0  0
  1 19  1  0
  2  1  2  0
  3  2  1  0
  4  5  1  0
  4  3  2  0
  5  6  2  0
  6  7  1  0
  6  1  1  0
  7 11  1  0
  8  7  1  0
  8  9  1  0
  9 10  1  0
 11 10  1  0
 12 13  1  0
 12 11  1  0
 14 12  1  0
 14 13  1  0
 15 16  2  0
 17 16  1  0
 18 17  2  0
 19 20  2  0
 19 18  1  0
 20 15  1  0
  2 21  1  0
  3 22  1  0
  4 23  1  0
  5 24  1  0
  8 25  1  0
  8 26  1  0
  9 27  1  0
  9 28  1  0
 10 29  1  0
 10 30  1  0
 11 31  1  1
 12 32  1  0
 13 33  1  0
 13 34  1  0
 14 35  1  0
 14 36  1  0
 15 37  1  0
 16 38  1  0
 17 39  1  0
M  ISO  8  21  14  22  14  23  14  24  14  25  13  26  13  27  13  28  13
M  ISO  8  29  13  30  13  31  13  32  13  33  13  34  13  35  13  36  13
M  ISO  3  37  14  38  14  39  14
M  END
>  <minimizedAffinity>  (1) 
-5.19552708

>  <minimizedRMSD>  (1) 
0.49933058

$$$$
