
     RDKit          3D

 27 29  0  0  0  0  0  0  0  0999 V2000
   41.5320   22.5290   36.7250 C   0  0  0  0  0  0  0  0  0  0  0  0
   41.8630   21.2080   37.0210 C   0  0  0  0  0  0  0  0  0  0  0  0
   43.1280   20.7330   36.7310 C   0  0  0  0  0  0  0  0  0  0  0  0
   44.0270   21.6090   36.1460 N   0  0  0  0  0  0  0  0  0  0  0  0
   43.6720   22.8660   35.8780 C   0  0  0  0  0  0  0  0  0  0  0  0
   42.4590   23.3340   36.1530 N   0  0  0  0  0  0  0  0  0  0  0  0
   43.4600   19.3420   37.0490 C   0  0  0  0  0  0  0  0  0  0  0  0
   44.7540   18.8270   36.9770 C   0  0  0  0  0  0  0  0  0  0  0  0
   44.6320   17.5270   37.3450 N   0  0  0  0  0  0  0  0  0  0  0  0
   43.3290   17.3090   37.6140 C   0  0  0  0  0  0  0  0  0  0  0  0
   42.5860   18.3820   37.4470 N   0  0  0  0  0  0  0  0  0  0  0  0
   40.2230   23.0540   37.0170 C   0  0  0  0  0  0  0  0  0  0  0  0
   39.5750   22.9660   38.2300 C   0  0  0  0  0  0  0  0  0  0  0  0
   38.3190   23.4770   38.4830 C   0  0  0  0  0  0  0  0  0  0  0  0
   37.6430   24.1310   37.4570 C   0  0  0  0  0  0  0  0  0  0  0  0
   38.2390   24.2490   36.2240 C   0  0  0  0  0  0  0  0  0  0  0  0
   39.4960   23.7120   36.0470 C   0  0  0  0  0  0  0  0  0  0  0  0
   41.1184   20.5443   37.4848 H   0  0  0  0  0  0  0  0  0  0  0  0
   44.4082   23.5385   35.4135 H   0  0  0  0  0  0  0  0  0  0  0  0
   45.6721   19.3583   36.6857 H   0  0  0  0  0  0  0  0  0  0  0  0
   42.9293   16.3370   37.9387 H   0  0  0  0  0  0  0  0  0  0  0  0
   41.5696   18.4733   37.5868 H   0  0  0  0  0  0  0  0  0  0  0  0
   40.0949   22.4532   39.0527 H   0  0  0  0  0  0  0  0  0  0  0  0
   37.8602   23.3697   39.4770 H   0  0  0  0  0  0  0  0  0  0  0  0
   36.6408   24.5497   37.6313 H   0  0  0  0  0  0  0  0  0  0  0  0
   37.7244   24.7605   35.3972 H   0  0  0  0  0  0  0  0  0  0  0  0
   39.9559   23.8165   35.0532 H   0  0  0  0  0  0  0  0  0  0  0  0
  1 12  1  0
  1  2  2  0
  3  2  1  0
  3  7  1  0
  4  3  2  0
  5  4  1  0
  5  6  2  0
  6  1  1  0
  7 11  1  0
  8  7  2  0
  8  9  1  0
  9 10  2  0
 11 10  1  0
 12 13  2  0
 13 14  1  0
 15 14  2  0
 16 15  1  0
 17 16  2  0
 17 12  1  0
  2 18  1  0
  5 19  1  0
  8 20  1  0
 10 21  1  0
 11 22  1  0
 13 23  1  0
 14 24  1  0
 15 25  1  0
 16 26  1  0
 17 27  1  0
M  ISO  8  18  14  19  14  20  14  21  14  22   9  23  14  24  14  25  14
M  ISO  2  26  14  27  14
M  END
>  <minimizedAffinity>  (1) 
-4.61474657

>  <minimizedRMSD>  (1) 
6.18294811

$$$$
