
     RDKit          3D

 39 42  0  0  1  0  0  0  0  0999 V2000
   38.1320   25.0860   33.9440 C   0  0  0  0  0  0  0  0  0  0  0  0
   37.9320   24.8250   35.2760 C   0  0  0  0  0  0  0  0  0  0  0  0
   38.2520   25.7930   36.2170 C   0  0  0  0  0  0  0  0  0  0  0  0
   38.7690   27.0130   35.7970 C   0  0  0  0  0  0  0  0  0  0  0  0
   38.9530   27.2330   34.4590 C   0  0  0  0  0  0  0  0  0  0  0  0
   38.6460   26.2920   33.5000 C   0  0  0  0  0  0  0  0  0  0  0  0
   38.8530   26.5430   32.1020 N   0  0  0  0  0  0  0  0  0  0  0  0
   40.0180   26.1080   31.3340 C   0  0  0  0  0  0  0  0  0  0  0  0
   40.4010   27.3390   30.5100 C   0  0  0  0  0  0  0  0  0  0  0  0
   39.0840   28.0770   30.3010 C   0  0  0  0  0  0  0  0  0  0  0  0
   38.1030   27.2160   31.0670 C   0  0  2  0  0  0  0  0  0  0  0  0
   36.9390   27.9650   31.5110 C   0  0  0  0  0  0  0  0  0  0  0  0
   35.7010   27.5180   31.8560 C   0  0  0  0  0  0  0  0  0  0  0  0
   34.8910   28.5110   32.2130 N   0  0  0  0  0  0  0  0  0  0  0  0
   35.6470   29.6390   32.0900 C   0  0  0  0  0  0  0  0  0  0  0  0
   36.8880   29.3210   31.6660 N   0  0  0  0  0  0  0  0  0  0  0  0
   36.1880   23.2240   31.4590 C   0  0  0  0  0  0  0  0  0  0  0  0
   36.9880   22.1140   31.1760 C   0  0  0  0  0  0  0  0  0  0  0  0
   38.2200   22.0050   31.8540 C   0  0  0  0  0  0  0  0  0  0  0  0
   38.5710   22.9700   32.7400 N   0  0  0  0  0  0  0  0  0  0  0  0
   37.7750   24.0260   32.9880 C   0  0  0  0  0  0  0  0  0  0  0  0
   36.5800   24.1480   32.3420 N   0  0  0  0  0  0  0  0  0  0  0  0
   37.5212   23.8559   35.5954 H   0  0  0  0  0  0  0  0  0  0  0  0
   38.0976   25.5963   37.2882 H   0  0  0  0  0  0  0  0  0  0  0  0
   39.0268   27.7912   36.5304 H   0  0  0  0  0  0  0  0  0  0  0  0
   39.3630   28.2011   34.1354 H   0  0  0  0  0  0  0  0  0  0  0  0
   40.8401   25.8148   32.0035 H   0  0  0  0  0  0  0  0  0  0  0  0
   39.8070   25.2289   30.7074 H   0  0  0  0  0  0  0  0  0  0  0  0
   41.1172   27.9680   31.0590 H   0  0  0  0  0  0  0  0  0  0  0  0
   40.8894   27.0739   29.5607 H   0  0  0  0  0  0  0  0  0  0  0  0
   39.1282   29.0949   30.7157 H   0  0  0  0  0  0  0  0  0  0  0  0
   38.8181   28.2097   29.2419 H   0  0  0  0  0  0  0  0  0  0  0  0
   37.6471   26.4473   30.4257 H   0  0  0  0  0  0  0  0  0  0  0  0
   35.4045   26.4588   31.8414 H   0  0  0  0  0  0  0  0  0  0  0  0
   35.2965   30.6593   32.3050 H   0  0  0  0  0  0  0  0  0  0  0  0
   37.6582   29.9820   31.4908 H   0  0  0  0  0  0  0  0  0  0  0  0
   35.2210   23.3393   30.9475 H   0  0  0  0  0  0  0  0  0  0  0  0
   36.6683   21.3520   30.4500 H   0  0  0  0  0  0  0  0  0  0  0  0
   38.8863   21.1500   31.6669 H   0  0  0  0  0  0  0  0  0  0  0  0
  1  2  2  0
  2  3  1  0
  4  3  2  0
  5  4  1  0
  6  1  1  0
  6  5  2  0
  7  6  1  0
  8  7  1  0
  9  8  1  0
 10  9  1  0
 10 11  1  0
 11 12  1  0
 11  7  1  0
 12 16  1  0
 12 13  2  0
 13 14  1  0
 15 14  2  0
 16 15  1  0
 17 22  2  0
 18 17  1  0
 18 19  2  0
 19 20  1  0
 20 21  2  0
 21  1  1  0
 22 21  1  0
  2 23  1  0
  3 24  1  0
  4 25  1  0
  5 26  1  0
  8 27  1  0
  8 28  1  0
  9 29  1  0
  9 30  1  0
 10 31  1  0
 10 32  1  0
 11 33  1  6
 13 34  1  0
 15 35  1  0
 16 36  1  0
 17 37  1  0
 18 38  1  0
 19 39  1  0
M  ISO  8  23  14  24  14  25  14  26  14  27  13  28  13  29  13  30  13
M  ISO  8  31  13  32  13  33  13  34  14  35  14  36   9  37  14  38  14
M  ISO  1  39  14
M  END
>  <minimizedAffinity>  (1) 
-4.63588762

>  <minimizedRMSD>  (1) 
4.88215065

$$$$
