
     RDKit          3D

 28 29  0  0  0  0  0  0  0  0999 V2000
   38.3100   23.8980   37.0040 C   0  0  0  0  0  0  0  0  0  0  0  0
   38.6530   22.7510   36.2770 C   0  0  0  0  0  0  0  0  0  0  0  0
   38.7370   22.8620   34.8750 C   0  0  0  0  0  0  0  0  0  0  0  0
   38.4770   24.0890   34.3310 N   0  0  0  0  0  0  0  0  0  0  0  0
   38.1500   25.1690   35.0680 C   0  0  0  0  0  0  0  0  0  0  0  0
   38.0680   25.0710   36.4000 N   0  0  0  0  0  0  0  0  0  0  0  0
   37.9010   26.3950   34.3910 N   0  0  0  0  0  0  0  0  0  0  0  0
   36.7540   27.1660   34.7820 C   0  0  0  0  0  0  0  0  0  0  0  0
   36.4620   28.3240   33.8960 C   0  0  0  0  0  0  0  0  0  0  0  0
   36.8560   28.1900   32.4690 C   0  0  0  0  0  0  0  0  0  0  0  0
   37.8170   27.1040   32.1440 C   0  0  0  0  0  0  0  0  0  0  0  0
   38.7570   26.8820   33.3360 C   0  0  0  0  0  0  0  0  0  0  0  0
   38.2090   23.8200   38.5080 C   0  0  0  0  0  0  0  0  0  0  0  0
   39.4570   23.4890   39.0660 F   0  0  0  0  0  0  0  0  0  0  0  0
   37.8420   25.0420   39.0260 F   0  0  0  0  0  0  0  0  0  0  0  0
   37.2940   22.8550   38.8430 F   0  0  0  0  0  0  0  0  0  0  0  0
   38.8503   21.7950   36.7840 H   0  0  0  0  0  0  0  0  0  0  0  0
   39.0003   21.9991   34.2456 H   0  0  0  0  0  0  0  0  0  0  0  0
   35.8767   26.5024   34.7814 H   0  0  0  0  0  0  0  0  0  0  0  0
   36.9776   27.5797   35.7764 H   0  0  0  0  0  0  0  0  0  0  0  0
   35.3769   28.5016   33.9267 H   0  0  0  0  0  0  0  0  0  0  0  0
   37.0745   29.1492   34.2883 H   0  0  0  0  0  0  0  0  0  0  0  0
   35.9409   28.0118   31.8853 H   0  0  0  0  0  0  0  0  0  0  0  0
   37.3807   29.1251   32.2236 H   0  0  0  0  0  0  0  0  0  0  0  0
   37.2649   26.1760   31.9342 H   0  0  0  0  0  0  0  0  0  0  0  0
   38.4061   27.3871   31.2592 H   0  0  0  0  0  0  0  0  0  0  0  0
   39.5289   26.1385   33.0883 H   0  0  0  0  0  0  0  0  0  0  0  0
   39.2900   27.8005   33.6228 H   0  0  0  0  0  0  0  0  0  0  0  0
  1 13  1  0
  2  1  2  0
  3  2  1  0
  4  3  2  0
  4  5  1  0
  5  6  2  0
  6  1  1  0
  7  8  1  0
  7  5  1  0
  9  8  1  0
 10  9  1  0
 11 10  1  0
 11 12  1  0
 12  7  1  0
 13 16  1  0
 13 15  1  0
 13 14  1  0
  2 17  1  0
  3 18  1  0
  8 19  1  0
  8 20  1  0
  9 21  1  0
  9 22  1  0
 10 23  1  0
 10 24  1  0
 11 25  1  0
 11 26  1  0
 12 27  1  0
 12 28  1  0
M  ISO  8  17  14  18  14  19  13  20  13  21  13  22  13  23  13  24  13
M  ISO  4  25  13  26  13  27  13  28  13
M  END
>  <minimizedAffinity>  (1) 
-5.31533527

>  <minimizedRMSD>  (1) 
0.404642582

$$$$
