
     RDKit          3D

 30 32  0  0  0  0  0  0  0  0999 V2000
   41.2340   22.6270   36.6750 C   0  0  0  0  0  0  0  0  0  0  0  0
   41.6410   21.3180   36.9430 C   0  0  0  0  0  0  0  0  0  0  0  0
   42.9590   20.9450   36.7340 C   0  0  0  0  0  0  0  0  0  0  0  0
   43.8130   21.9040   36.2630 N   0  0  0  0  0  0  0  0  0  0  0  0
   43.4050   23.1530   36.0120 C   0  0  0  0  0  0  0  0  0  0  0  0
   42.1240   23.5140   36.2160 N   0  0  0  0  0  0  0  0  0  0  0  0
   43.3460   19.5760   37.0240 C   0  0  0  0  0  0  0  0  0  0  0  0
   44.6550   19.0970   36.8840 C   0  0  0  0  0  0  0  0  0  0  0  0
   44.6040   17.7890   37.2480 N   0  0  0  0  0  0  0  0  0  0  0  0
   43.3320   17.5100   37.5860 C   0  0  0  0  0  0  0  0  0  0  0  0
   42.5660   18.5740   37.4570 N   0  0  0  0  0  0  0  0  0  0  0  0
   39.8840   23.0240   36.8850 N   0  0  0  0  0  0  0  0  0  0  0  0
   38.9920   23.3040   35.8050 C   0  0  0  0  0  0  0  0  0  0  0  0
   38.0280   24.3680   36.2850 C   0  0  0  0  0  0  0  0  0  0  0  0
   37.2840   24.0010   37.3680 O   0  0  0  0  0  0  0  0  0  0  0  0
   37.9300   23.2950   38.3570 C   0  0  0  0  0  0  0  0  0  0  0  0
   39.3910   23.1510   38.2300 C   0  0  0  0  0  0  0  0  0  0  0  0
   40.9148   20.5829   37.3202 H   0  0  0  0  0  0  0  0  0  0  0  0
   44.1248   23.8941   35.6343 H   0  0  0  0  0  0  0  0  0  0  0  0
   45.5382   19.6611   36.5497 H   0  0  0  0  0  0  0  0  0  0  0  0
   42.9787   16.5249   37.9248 H   0  0  0  0  0  0  0  0  0  0  0  0
   41.5561   18.6268   37.6523 H   0  0  0  0  0  0  0  0  0  0  0  0
   38.4406   22.3940   35.5260 H   0  0  0  0  0  0  0  0  0  0  0  0
   39.5465   23.6500   34.9202 H   0  0  0  0  0  0  0  0  0  0  0  0
   38.6079   25.2636   36.5524 H   0  0  0  0  0  0  0  0  0  0  0  0
   37.3207   24.5482   35.4620 H   0  0  0  0  0  0  0  0  0  0  0  0
   37.7282   23.8016   39.3123 H   0  0  0  0  0  0  0  0  0  0  0  0
   37.5343   22.2714   38.2826 H   0  0  0  0  0  0  0  0  0  0  0  0
   39.6932   22.2527   38.7884 H   0  0  0  0  0  0  0  0  0  0  0  0
   39.8227   24.0828   38.6242 H   0  0  0  0  0  0  0  0  0  0  0  0
  1 12  1  0
  1  2  2  0
  3  2  1  0
  3  7  1  0
  4  3  2  0
  5  6  2  0
  5  4  1  0
  6  1  1  0
  7 11  1  0
  8  7  2  0
  8  9  1  0
  9 10  2  0
 11 10  1  0
 12 17  1  0
 13 14  1  0
 13 12  1  0
 14 15  1  0
 15 16  1  0
 17 16  1  0
  2 18  1  0
  5 19  1  0
  8 20  1  0
 10 21  1  0
 11 22  1  0
 13 23  1  0
 13 24  1  0
 14 25  1  0
 14 26  1  0
 16 27  1  0
 16 28  1  0
 17 29  1  0
 17 30  1  0
M  ISO  8  18  14  19  14  20  14  21  14  22   9  23  13  24  13  25  13
M  ISO  5  26  13  27  13  28  13  29  13  30  13
M  END
>  <minimizedAffinity>  (1) 
-4.19089603

>  <minimizedRMSD>  (1) 
6.15030479

$$$$
