
     RDKit          3D

 22 24  0  0  0  0  0  0  0  0999 V2000
   41.0260   22.5400   36.9870 C   0  0  0  0  0  0  0  0  0  0  0  0
   41.4890   21.2390   37.2030 C   0  0  0  0  0  0  0  0  0  0  0  0
   42.7930   20.9440   36.8400 C   0  0  0  0  0  0  0  0  0  0  0  0
   43.5450   21.9460   36.2930 N   0  0  0  0  0  0  0  0  0  0  0  0
   43.0740   23.1790   36.0990 C   0  0  0  0  0  0  0  0  0  0  0  0
   41.8260   23.4850   36.4400 N   0  0  0  0  0  0  0  0  0  0  0  0
   43.3030   19.5880   37.0560 C   0  0  0  0  0  0  0  0  0  0  0  0
   44.6180   19.2070   36.8390 C   0  0  0  0  0  0  0  0  0  0  0  0
   44.6670   17.8780   37.1580 N   0  0  0  0  0  0  0  0  0  0  0  0
   43.4320   17.5010   37.5440 C   0  0  0  0  0  0  0  0  0  0  0  0
   42.5870   18.5190   37.4920 N   0  0  0  0  0  0  0  0  0  0  0  0
   39.6560   22.8550   37.3680 C   0  0  0  0  0  0  0  0  0  0  0  0
   38.6180   22.7670   36.5190 N   0  0  0  0  0  0  0  0  0  0  0  0
   37.5370   23.1100   37.1490 O   0  0  0  0  0  0  0  0  0  0  0  0
   37.8430   23.4210   38.3870 C   0  0  0  0  0  0  0  0  0  0  0  0
   39.1650   23.2630   38.5270 N   0  0  0  0  0  0  0  0  0  0  0  0
   40.8375   20.4724   37.6479 H   0  0  0  0  0  0  0  0  0  0  0  0
   43.7227   23.9478   35.6538 H   0  0  0  0  0  0  0  0  0  0  0  0
   45.4459   19.8391   36.4855 H   0  0  0  0  0  0  0  0  0  0  0  0
   43.1619   16.4827   37.8603 H   0  0  0  0  0  0  0  0  0  0  0  0
   41.5859   18.5035   37.7340 H   0  0  0  0  0  0  0  0  0  0  0  0
   37.1412   23.7512   39.1671 H   0  0  0  0  0  0  0  0  0  0  0  0
  1  2  2  0
  1 12  1  0
  3  7  1  0
  3  2  1  0
  4  3  2  0
  5  4  1  0
  5  6  2  0
  6  1  1  0
  7 11  1  0
  8  7  2  0
  8  9  1  0
  9 10  2  0
 11 10  1  0
 12 16  1  0
 13 14  1  0
 13 12  2  0
 14 15  1  0
 15 16  2  0
  2 17  1  0
  5 18  1  0
  8 19  1  0
 10 20  1  0
 11 21  1  0
 15 22  1  0
M  ISO  6  17  14  18  14  19  14  20  14  21   9  22  14
M  END
>  <minimizedAffinity>  (1) 
-4.15840054

>  <minimizedRMSD>  (1) 
5.84713936

$$$$
