
     RDKit          3D

 19 20  0  0  0  0  0  0  0  0999 V2000
   42.3560   20.6640   36.9490 C   0  0  0  0  0  0  0  0  0  0  0  0
   41.2630   21.3390   37.4960 C   0  0  0  0  0  0  0  0  0  0  0  0
   40.6320   22.3010   36.7140 C   0  0  0  0  0  0  0  0  0  0  0  0
   41.1160   22.5410   35.4410 N   0  0  0  0  0  0  0  0  0  0  0  0
   42.1660   21.8670   34.9650 C   0  0  0  0  0  0  0  0  0  0  0  0
   42.7720   20.9460   35.7100 N   0  0  0  0  0  0  0  0  0  0  0  0
   39.4780   23.0260   37.2670 C   0  0  0  0  0  0  0  0  0  0  0  0
   38.7190   23.9470   36.5440 C   0  0  0  0  0  0  0  0  0  0  0  0
   37.7660   24.3770   37.4110 N   0  0  0  0  0  0  0  0  0  0  0  0
   37.9720   23.7320   38.5770 C   0  0  0  0  0  0  0  0  0  0  0  0
   38.9970   22.9080   38.5250 N   0  0  0  0  0  0  0  0  0  0  0  0
   42.9130   19.7030   37.8560 N   0  0  0  0  0  0  0  0  0  0  0  0
   40.9115   21.1168   38.5144 H   0  0  0  0  0  0  0  0  0  0  0  0
   42.5328   22.0748   33.9490 H   0  0  0  0  0  0  0  0  0  0  0  0
   38.8616   24.2575   35.4984 H   0  0  0  0  0  0  0  0  0  0  0  0
   37.3515   23.8784   39.4734 H   0  0  0  0  0  0  0  0  0  0  0  0
   39.3549   22.3044   39.2789 H   0  0  0  0  0  0  0  0  0  0  0  0
   43.7256   19.1374   37.5719 H   0  0  0  0  0  0  0  0  0  0  0  0
   42.5005   19.5784   38.7915 H   0  0  0  0  0  0  0  0  0  0  0  0
  1  2  2  0
  1 12  1  0
  3  7  1  0
  3  2  1  0
  4  3  2  0
  5  4  1  0
  5  6  2  0
  6  1  1  0
  7 11  1  0
  8  7  2  0
  8  9  1  0
  9 10  2  0
 11 10  1  0
  2 13  1  0
  5 14  1  0
  8 15  1  0
 10 16  1  0
 11 17  1  0
 12 18  1  0
 12 19  1  0
M  ISO  5  13  14  14  14  15  14  16  14  17   9
M  END
>  <minimizedAffinity>  (1) 
-4.09024858

>  <minimizedRMSD>  (1) 
0.322460502

$$$$
