
     RDKit          3D

 23 25  0  0  0  0  0  0  0  0999 V2000
   41.2560   22.2810   36.6750 C   0  0  0  0  0  0  0  0  0  0  0  0
   42.1780   23.3250   36.6180 C   0  0  0  0  0  0  0  0  0  0  0  0
   43.5330   23.0940   36.4810 C   0  0  0  0  0  0  0  0  0  0  0  0
   43.8990   21.7830   36.4080 N   0  0  0  0  0  0  0  0  0  0  0  0
   43.0230   20.7790   36.4620 C   0  0  0  0  0  0  0  0  0  0  0  0
   41.7230   21.0200   36.5930 N   0  0  0  0  0  0  0  0  0  0  0  0
   44.4400   24.2260   36.4270 C   0  0  0  0  0  0  0  0  0  0  0  0
   45.8340   24.0690   36.5080 C   0  0  0  0  0  0  0  0  0  0  0  0
   46.3320   25.3480   36.4220 N   0  0  0  0  0  0  0  0  0  0  0  0
   45.2810   26.1770   36.3000 C   0  0  0  0  0  0  0  0  0  0  0  0
   44.1220   25.5260   36.3000 N   0  0  0  0  0  0  0  0  0  0  0  0
   39.8040   22.5580   36.8220 C   0  0  0  0  0  0  0  0  0  0  0  0
   39.3310   23.1680   37.9510 C   0  0  0  0  0  0  0  0  0  0  0  0
   37.5140   23.2840   37.6550 S   0  0  0  0  0  0  0  0  0  0  0  0
   37.7390   22.4410   35.9670 C   0  0  0  0  0  0  0  0  0  0  0  0
   38.8640   22.2700   35.9440 N   0  0  0  0  0  0  0  0  0  0  0  0
   41.8164   24.3618   36.6840 H   0  0  0  0  0  0  0  0  0  0  0  0
   43.3804   19.7407   36.3974 H   0  0  0  0  0  0  0  0  0  0  0  0
   46.4004   23.1323   36.6161 H   0  0  0  0  0  0  0  0  0  0  0  0
   45.3698   27.2697   36.2104 H   0  0  0  0  0  0  0  0  0  0  0  0
   43.1789   25.9321   36.2196 H   0  0  0  0  0  0  0  0  0  0  0  0
   39.8999   23.5090   38.8285 H   0  0  0  0  0  0  0  0  0  0  0  0
   36.9816   22.1856   35.2113 H   0  0  0  0  0  0  0  0  0  0  0  0
  1 12  1  0
  2  1  2  0
  3  2  1  0
  4  5  1  0
  4  3  2  0
  5  6  2  0
  6  1  1  0
  7  3  1  0
  7  8  2  0
  9  8  1  0
 10 11  1  0
 10  9  2  0
 11  7  1  0
 12 13  2  0
 14 13  1  0
 15 14  1  0
 16 15  2  0
 16 12  1  0
  2 17  1  0
  5 18  1  0
  8 19  1  0
 10 20  1  0
 11 21  1  0
 13 22  1  0
 15 23  1  0
M  ISO  7  17  14  18  14  19  14  20  14  21   9  22  14  23  14
M  END
>  <minimizedAffinity>  (1) 
-3.83030677

>  <minimizedRMSD>  (1) 
5.83241034

$$$$
