
     RDKit          3D

 26 27  0  0  0  0  0  0  0  0999 V2000
   42.5480   20.6390   36.3910 C   0  0  0  0  0  0  0  0  0  0  0  0
   41.5790   21.3360   37.1150 C   0  0  0  0  0  0  0  0  0  0  0  0
   40.6800   22.1440   36.4340 C   0  0  0  0  0  0  0  0  0  0  0  0
   40.7870   22.2200   35.0650 N   0  0  0  0  0  0  0  0  0  0  0  0
   41.7300   21.5350   34.4100 C   0  0  0  0  0  0  0  0  0  0  0  0
   42.6030   20.7530   35.0610 N   0  0  0  0  0  0  0  0  0  0  0  0
   39.6650   22.8720   37.2000 C   0  0  0  0  0  0  0  0  0  0  0  0
   38.8310   23.8520   36.6330 C   0  0  0  0  0  0  0  0  0  0  0  0
   38.0430   24.2800   37.6610 N   0  0  0  0  0  0  0  0  0  0  0  0
   38.4080   23.5810   38.7520 C   0  0  0  0  0  0  0  0  0  0  0  0
   39.3830   22.7230   38.5090 N   0  0  0  0  0  0  0  0  0  0  0  0
   43.5390   19.7580   37.0630 C   0  0  0  0  0  0  0  0  0  0  0  0
   43.1260   18.3280   36.9940 C   0  0  0  0  0  0  0  0  0  0  0  0
   44.8620   19.9250   36.3240 C   0  0  0  0  0  0  0  0  0  0  0  0
   41.5290   21.2458   38.2102 H   0  0  0  0  0  0  0  0  0  0  0  0
   41.7908   21.6147   33.3146 H   0  0  0  0  0  0  0  0  0  0  0  0
   38.8171   24.1978   35.5889 H   0  0  0  0  0  0  0  0  0  0  0  0
   37.9438   23.7104   39.7408 H   0  0  0  0  0  0  0  0  0  0  0  0
   39.8309   22.0790   39.1765 H   0  0  0  0  0  0  0  0  0  0  0  0
   43.6211   20.0360   38.1241 H   0  0  0  0  0  0  0  0  0  0  0  0
   43.0110   17.9300   38.0130 H   0  0  0  0  0  0  0  0  0  0  0  0
   42.1682   18.2484   36.4590 H   0  0  0  0  0  0  0  0  0  0  0  0
   43.8939   17.7500   36.4590 H   0  0  0  0  0  0  0  0  0  0  0  0
   45.6789   20.0281   37.0534 H   0  0  0  0  0  0  0  0  0  0  0  0
   45.0433   19.0426   35.6927 H   0  0  0  0  0  0  0  0  0  0  0  0
   44.8183   20.8248   35.6927 H   0  0  0  0  0  0  0  0  0  0  0  0
  1 12  1  0
  1  2  2  0
  3  2  1  0
  3  7  1  0
  4  3  2  0
  5  6  2  0
  5  4  1  0
  6  1  1  0
  7 11  1  0
  8  7  2  0
  8  9  1  0
  9 10  2  0
 11 10  1  0
 13 12  1  0
 14 12  1  0
  2 15  1  0
  5 16  1  0
  8 17  1  0
 10 18  1  0
 11 19  1  0
 12 20  1  0
 13 21  1  0
 13 22  1  0
 13 23  1  0
 14 24  1  0
 14 25  1  0
 14 26  1  0
M  ISO  8  15  14  16  14  17  14  18  14  19   9  20   8  21   8  22   8
M  ISO  4  23   8  24   8  25   8  26   8
M  END
>  <minimizedAffinity>  (1) 
-3.94472694

>  <minimizedRMSD>  (1) 
0.647163033

$$$$
