
     RDKit          3D

 20 21  0  0  0  0  0  0  0  0999 V2000
   42.9990   20.8780   36.6190 C   0  0  0  0  0  0  0  0  0  0  0  0
   41.6920   21.1770   37.0160 C   0  0  0  0  0  0  0  0  0  0  0  0
   41.2950   22.5020   36.9370 C   0  0  0  0  0  0  0  0  0  0  0  0
   42.1880   23.4590   36.4770 N   0  0  0  0  0  0  0  0  0  0  0  0
   43.4210   23.1100   36.1140 C   0  0  0  0  0  0  0  0  0  0  0  0
   43.8390   21.8280   36.1780 N   0  0  0  0  0  0  0  0  0  0  0  0
   39.9360   22.8740   37.3400 C   0  0  0  0  0  0  0  0  0  0  0  0
   38.9540   23.3660   36.4700 C   0  0  0  0  0  0  0  0  0  0  0  0
   37.8540   23.5810   37.2440 N   0  0  0  0  0  0  0  0  0  0  0  0
   38.1940   23.2260   38.5070 C   0  0  0  0  0  0  0  0  0  0  0  0
   39.4360   22.7980   38.5970 N   0  0  0  0  0  0  0  0  0  0  0  0
   43.5070   19.4820   36.6710 C   0  0  0  0  0  0  0  0  0  0  0  0
   43.3580   18.9340   35.4050 F   0  0  0  0  0  0  0  0  0  0  0  0
   44.8360   19.5560   37.0550 F   0  0  0  0  0  0  0  0  0  0  0  0
   42.7890   18.6870   37.5190 F   0  0  0  0  0  0  0  0  0  0  0  0
   41.0084   20.3938   37.3756 H   0  0  0  0  0  0  0  0  0  0  0  0
   44.1146   23.8841   35.7538 H   0  0  0  0  0  0  0  0  0  0  0  0
   39.0511   23.5418   35.3885 H   0  0  0  0  0  0  0  0  0  0  0  0
   37.5070   23.2886   39.3638 H   0  0  0  0  0  0  0  0  0  0  0  0
   39.9243   22.4739   39.4440 H   0  0  0  0  0  0  0  0  0  0  0  0
  1 12  1  0
  1  2  2  0
  3  2  1  0
  3  7  1  0
  4  3  2  0
  5  6  2  0
  5  4  1  0
  6  1  1  0
  7 11  1  0
  8  9  1  0
  8  7  2  0
  9 10  2  0
 10 11  1  0
 12 14  1  0
 12 15  1  0
 13 12  1  0
  2 16  1  0
  5 17  1  0
  8 18  1  0
 10 19  1  0
 11 20  1  0
M  ISO  5  16  14  17  14  18  14  19  14  20   9
M  END
>  <minimizedAffinity>  (1) 
-3.97628665

>  <minimizedRMSD>  (1) 
1.56405282

$$$$
