
     RDKit          3D

 26 27  0  0  0  0  0  0  0  0999 V2000
   38.1610   23.8350   36.9500 C   0  0  0  0  0  0  0  0  0  0  0  0
   38.2310   22.6430   36.1970 C   0  0  0  0  0  0  0  0  0  0  0  0
   38.1670   22.7280   34.7940 C   0  0  0  0  0  0  0  0  0  0  0  0
   38.0380   23.9750   34.2500 N   0  0  0  0  0  0  0  0  0  0  0  0
   37.9750   25.0850   35.0090 C   0  0  0  0  0  0  0  0  0  0  0  0
   38.0350   25.0240   36.3400 N   0  0  0  0  0  0  0  0  0  0  0  0
   37.8420   26.3510   34.3720 N   0  0  0  0  0  0  0  0  0  0  0  0
   37.4580   27.5530   35.0520 C   0  0  0  0  0  0  0  0  0  0  0  0
   36.3390   28.2880   34.3530 C   0  0  0  0  0  0  0  0  0  0  0  0
   36.2270   27.9060   33.0150 O   0  0  0  0  0  0  0  0  0  0  0  0
   37.4850   27.7770   32.4460 C   0  0  0  0  0  0  0  0  0  0  0  0
   38.0940   26.4960   32.9510 C   0  0  0  0  0  0  0  0  0  0  0  0
   38.2290   23.7500   38.4380 C   0  0  0  0  0  0  0  0  0  0  0  0
   39.5130   23.4010   38.8670 F   0  0  0  0  0  0  0  0  0  0  0  0
   37.9560   24.9970   38.9860 F   0  0  0  0  0  0  0  0  0  0  0  0
   37.3160   22.8280   38.8960 F   0  0  0  0  0  0  0  0  0  0  0  0
   38.3334   21.6683   36.6965 H   0  0  0  0  0  0  0  0  0  0  0  0
   38.2186   21.8291   34.1620 H   0  0  0  0  0  0  0  0  0  0  0  0
   37.1264   27.2917   36.0678 H   0  0  0  0  0  0  0  0  0  0  0  0
   38.3332   28.2191   35.0676 H   0  0  0  0  0  0  0  0  0  0  0  0
   35.3919   28.0675   34.8671 H   0  0  0  0  0  0  0  0  0  0  0  0
   36.5634   29.3644   34.3846 H   0  0  0  0  0  0  0  0  0  0  0  0
   38.1156   28.6302   32.7365 H   0  0  0  0  0  0  0  0  0  0  0  0
   37.4084   27.7576   31.3488 H   0  0  0  0  0  0  0  0  0  0  0  0
   37.6494   25.6452   32.4139 H   0  0  0  0  0  0  0  0  0  0  0  0
   39.1801   26.5210   32.7785 H   0  0  0  0  0  0  0  0  0  0  0  0
  1 13  1  0
  2  1  2  0
  3  2  1  0
  4  3  2  0
  4  5  1  0
  5  6  2  0
  6  1  1  0
  7  5  1  0
  7  8  1  0
  9  8  1  0
 10  9  1  0
 11 12  1  0
 11 10  1  0
 12  7  1  0
 13 14  1  0
 13 16  1  0
 13 15  1  0
  2 17  1  0
  3 18  1  0
  8 19  1  0
  8 20  1  0
  9 21  1  0
  9 22  1  0
 11 23  1  0
 11 24  1  0
 12 25  1  0
 12 26  1  0
M  ISO  8  17  14  18  14  19  13  20  13  21  13  22  13  23  13  24  13
M  ISO  2  25  13  26  13
M  END
>  <minimizedAffinity>  (1) 
-5.16871929

>  <minimizedRMSD>  (1) 
0.348163575

$$$$
