
     RDKit          3D

 42 46  0  0  0  0  0  0  0  0999 V2000
   38.7530   23.8600   35.9440 C   0  0  0  0  0  0  0  0  0  0  0  0
   40.0240   23.3210   35.7880 C   0  0  0  0  0  0  0  0  0  0  0  0
   40.7260   22.7730   36.8140 C   0  0  0  0  0  0  0  0  0  0  0  0
   40.0810   22.7950   38.0200 N   0  0  0  0  0  0  0  0  0  0  0  0
   38.8620   23.3130   38.1710 C   0  0  0  0  0  0  0  0  0  0  0  0
   38.1920   23.8410   37.1640 N   0  0  0  0  0  0  0  0  0  0  0  0
   38.1680   24.3980   34.7250 N   0  0  0  0  0  0  0  0  0  0  0  0
   38.0220   23.6260   33.6320 C   0  0  0  0  0  0  0  0  0  0  0  0
   37.4520   24.4460   32.6990 N   0  0  0  0  0  0  0  0  0  0  0  0
   37.2680   25.6830   33.2440 C   0  0  0  0  0  0  0  0  0  0  0  0
   36.7570   26.9070   32.8370 C   0  0  0  0  0  0  0  0  0  0  0  0
   36.7120   27.9840   33.6470 N   0  0  0  0  0  0  0  0  0  0  0  0
   37.1750   27.8930   34.9050 C   0  0  0  0  0  0  0  0  0  0  0  0
   37.6780   26.7090   35.3210 N   0  0  0  0  0  0  0  0  0  0  0  0
   37.7330   25.6340   34.5450 C   0  0  0  0  0  0  0  0  0  0  0  0
   42.0480   22.2200   36.6080 C   0  0  0  0  0  0  0  0  0  0  0  0
   42.3210   20.8610   36.6310 C   0  0  0  0  0  0  0  0  0  0  0  0
   43.6480   20.7500   36.4030 N   0  0  0  0  0  0  0  0  0  0  0  0
   44.1290   22.0120   36.2520 C   0  0  0  0  0  0  0  0  0  0  0  0
   43.1740   22.9130   36.3740 N   0  0  0  0  0  0  0  0  0  0  0  0
   43.5360   24.2940   36.2380 C   0  0  0  0  0  0  0  0  0  0  0  0
   44.2420   24.8950   37.4370 C   0  0  0  0  0  0  0  0  0  0  0  0
   45.4580   25.5620   36.9040 C   0  0  0  0  0  0  0  0  0  0  0  0
   46.5720   25.6240   37.7250 C   0  0  0  0  0  0  0  0  0  0  0  0
   47.7510   26.2180   37.3360 C   0  0  0  0  0  0  0  0  0  0  0  0
   47.7740   26.7510   36.0880 N   0  0  0  0  0  0  0  0  0  0  0  0
   46.7160   26.7060   35.2740 C   0  0  0  0  0  0  0  0  0  0  0  0
   45.5760   26.1150   35.6930 N   0  0  0  0  0  0  0  0  0  0  0  0
   40.4827   23.3388   34.7884 H   0  0  0  0  0  0  0  0  0  0  0  0
   38.3989   23.2999   39.1687 H   0  0  0  0  0  0  0  0  0  0  0  0
   38.3002   22.5682   33.5154 H   0  0  0  0  0  0  0  0  0  0  0  0
   36.3726   27.0028   31.8108 H   0  0  0  0  0  0  0  0  0  0  0  0
   37.1455   28.7609   35.5802 H   0  0  0  0  0  0  0  0  0  0  0  0
   41.6055   20.0427   36.7999 H   0  0  0  0  0  0  0  0  0  0  0  0
   45.1838   22.2520   36.0528 H   0  0  0  0  0  0  0  0  0  0  0  0
   44.2026   24.3874   35.3680 H   0  0  0  0  0  0  0  0  0  0  0  0
   42.5923   24.8486   36.1286 H   0  0  0  0  0  0  0  0  0  0  0  0
   43.5913   25.6284   37.9358 H   0  0  0  0  0  0  0  0  0  0  0  0
   44.4974   24.1264   38.1813 H   0  0  0  0  0  0  0  0  0  0  0  0
   46.5118   25.1800   38.7296 H   0  0  0  0  0  0  0  0  0  0  0  0
   48.6268   26.2586   38.0003 H   0  0  0  0  0  0  0  0  0  0  0  0
   46.7727   27.1477   34.2682 H   0  0  0  0  0  0  0  0  0  0  0  0
  1  6  1  0
  2  1  2  0
  2  3  1  0
  3  4  2  0
  4  5  1  0
  6  5  2  0
  7  1  1  0
  8  7  1  0
  9 10  1  0
  9  8  2  0
 10 15  2  0
 11 10  1  0
 11 12  2  0
 12 13  1  0
 13 14  2  0
 15  7  1  0
 15 14  1  0
 16 17  2  0
 16  3  1  0
 18 17  1  0
 19 20  1  0
 19 18  2  0
 20 16  1  0
 21 20  1  0
 21 22  1  0
 23 22  1  0
 23 24  2  0
 25 24  1  0
 26 25  2  0
 27 28  2  0
 27 26  1  0
 28 23  1  0
  2 29  1  0
  5 30  1  0
  8 31  1  0
 11 32  1  0
 13 33  1  0
 17 34  1  0
 19 35  1  0
 21 36  1  0
 21 37  1  0
 22 38  1  0
 22 39  1  0
 24 40  1  0
 25 41  1  0
 27 42  1  0
M  ISO  8  29  14  30  14  31  14  32  14  33  14  34  14  35  14  36   8
M  ISO  6  37   8  38   8  39   8  40  14  41  14  42  14
M  END
>  <minimizedAffinity>  (1) 
-5.69089794

>  <minimizedRMSD>  (1) 
1.3532865

$$$$
