
     RDKit          3D

 44 48  0  0  0  0  0  0  0  0999 V2000
   39.7820   24.2130   36.0340 C   0  0  0  0  0  0  0  0  0  0  0  0
   38.6650   23.9760   36.8270 C   0  0  0  0  0  0  0  0  0  0  0  0
   39.0070   22.9280   37.6190 N   0  0  0  0  0  0  0  0  0  0  0  0
   40.2780   22.5750   37.2920 C   0  0  0  0  0  0  0  0  0  0  0  0
   40.7640   23.3400   36.3360 N   0  0  0  0  0  0  0  0  0  0  0  0
   38.7870   26.5220   33.2630 C   0  0  0  0  0  0  0  0  0  0  0  0
   38.7710   25.5260   34.2280 C   0  0  0  0  0  0  0  0  0  0  0  0
   39.8370   25.2610   35.0380 C   0  0  0  0  0  0  0  0  0  0  0  0
   40.9290   26.0580   34.8240 N   0  0  0  0  0  0  0  0  0  0  0  0
   40.9400   27.0170   33.8920 C   0  0  0  0  0  0  0  0  0  0  0  0
   39.8980   27.2610   33.1140 N   0  0  0  0  0  0  0  0  0  0  0  0
   37.5520   26.6450   32.5030 N   0  0  0  0  0  0  0  0  0  0  0  0
   37.0350   27.8630   32.2100 C   0  0  0  0  0  0  0  0  0  0  0  0
   35.9060   27.5980   31.5060 N   0  0  0  0  0  0  0  0  0  0  0  0
   35.7590   26.2420   31.3850 C   0  0  0  0  0  0  0  0  0  0  0  0
   34.8450   25.3820   30.8000 C   0  0  0  0  0  0  0  0  0  0  0  0
   34.9790   24.0390   30.8540 N   0  0  0  0  0  0  0  0  0  0  0  0
   36.0340   23.4980   31.4940 C   0  0  0  0  0  0  0  0  0  0  0  0
   36.9340   24.3360   32.0690 N   0  0  0  0  0  0  0  0  0  0  0  0
   36.8240   25.6450   32.0300 C   0  0  0  0  0  0  0  0  0  0  0  0
   42.0970   23.0950   35.8780 C   0  0  0  0  0  0  0  0  0  0  0  0
   43.1480   24.0070   36.4550 C   0  0  0  0  0  0  0  0  0  0  0  0
   44.5100   23.4660   36.3830 C   0  0  0  0  0  0  0  0  0  0  0  0
   45.5010   24.2910   36.8950 C   0  0  0  0  0  0  0  0  0  0  0  0
   46.8370   23.9470   36.9120 C   0  0  0  0  0  0  0  0  0  0  0  0
   47.1860   22.7190   36.3880 C   0  0  0  0  0  0  0  0  0  0  0  0
   46.2230   21.8510   35.8610 C   0  0  0  0  0  0  0  0  0  0  0  0
   44.8950   22.2500   35.8700 C   0  0  0  0  0  0  0  0  0  0  0  0
   37.7094   24.5207   36.8152 H   0  0  0  0  0  0  0  0  0  0  0  0
   40.8324   21.7522   37.7669 H   0  0  0  0  0  0  0  0  0  0  0  0
   37.8587   24.9229   34.3458 H   0  0  0  0  0  0  0  0  0  0  0  0
   41.8482   27.6250   33.7677 H   0  0  0  0  0  0  0  0  0  0  0  0
   37.4409   28.8483   32.4826 H   0  0  0  0  0  0  0  0  0  0  0  0
   33.9787   25.8077   30.2724 H   0  0  0  0  0  0  0  0  0  0  0  0
   36.1626   22.4069   31.5491 H   0  0  0  0  0  0  0  0  0  0  0  0
   42.3626   22.0602   36.1398 H   0  0  0  0  0  0  0  0  0  0  0  0
   42.0885   23.2839   34.7944 H   0  0  0  0  0  0  0  0  0  0  0  0
   43.1233   24.9574   35.9017 H   0  0  0  0  0  0  0  0  0  0  0  0
   42.9106   24.1326   37.5217 H   0  0  0  0  0  0  0  0  0  0  0  0
   45.2071   25.2674   37.3077 H   0  0  0  0  0  0  0  0  0  0  0  0
   47.5957   24.6263   37.3278 H   0  0  0  0  0  0  0  0  0  0  0  0
   48.2434   22.4160   36.3845 H   0  0  0  0  0  0  0  0  0  0  0  0
   46.5132   20.8734   35.4486 H   0  0  0  0  0  0  0  0  0  0  0  0
   44.1301   21.5764   35.4561 H   0  0  0  0  0  0  0  0  0  0  0  0
  1  5  1  0
  1  2  2  0
  2  3  1  0
  4  3  2  0
  5  4  1  0
  6  7  2  0
  7  8  1  0
  8  1  1  0
  9  8  2  0
 10  9  1  0
 11  6  1  0
 11 10  2  0
 12  6  1  0
 13 12  1  0
 14 13  2  0
 15 14  1  0
 15 20  2  0
 16 17  2  0
 16 15  1  0
 17 18  1  0
 18 19  2  0
 20 19  1  0
 20 12  1  0
 21  5  1  0
 21 22  1  0
 23 22  1  0
 23 24  2  0
 24 25  1  0
 26 25  2  0
 27 28  2  0
 27 26  1  0
 28 23  1  0
  2 29  1  0
  4 30  1  0
  7 31  1  0
 10 32  1  0
 13 33  1  0
 16 34  1  0
 18 35  1  0
 21 36  1  0
 21 37  1  0
 22 38  1  0
 22 39  1  0
 24 40  1  0
 25 41  1  0
 26 42  1  0
 27 43  1  0
 28 44  1  0
M  ISO  8  29  14  30  14  31  14  32  14  33  14  34  14  35  14  36   8
M  ISO  8  37   8  38   8  39   8  40  14  41  14  42  14  43  14  44  14
M  END
>  <minimizedAffinity>  (1) 
-5.67784405

>  <minimizedRMSD>  (1) 
4.10389709

$$$$
