
     RDKit          3D

 45 50  0  0  0  0  0  0  0  0999 V2000
   41.5840   22.3210   36.7570 C   0  0  0  0  0  0  0  0  0  0  0  0
   41.8180   20.9810   37.0150 C   0  0  0  0  0  0  0  0  0  0  0  0
   43.1450   20.7970   36.8180 N   0  0  0  0  0  0  0  0  0  0  0  0
   43.6640   21.9990   36.4550 C   0  0  0  0  0  0  0  0  0  0  0  0
   42.7300   22.9320   36.4130 N   0  0  0  0  0  0  0  0  0  0  0  0
   38.4120   24.0730   35.8280 C   0  0  0  0  0  0  0  0  0  0  0  0
   39.6660   23.4770   35.7650 C   0  0  0  0  0  0  0  0  0  0  0  0
   40.2800   22.9350   36.8530 C   0  0  0  0  0  0  0  0  0  0  0  0
   39.5560   23.0290   38.0160 N   0  0  0  0  0  0  0  0  0  0  0  0
   38.3570   23.6000   38.0740 C   0  0  0  0  0  0  0  0  0  0  0  0
   37.7740   24.1210   37.0100 N   0  0  0  0  0  0  0  0  0  0  0  0
   37.9330   24.5900   34.5560 N   0  0  0  0  0  0  0  0  0  0  0  0
   37.9340   23.8140   33.4480 C   0  0  0  0  0  0  0  0  0  0  0  0
   37.4260   24.6160   32.4670 N   0  0  0  0  0  0  0  0  0  0  0  0
   37.1330   25.8460   32.9950 C   0  0  0  0  0  0  0  0  0  0  0  0
   36.6150   27.0360   32.5320 C   0  0  0  0  0  0  0  0  0  0  0  0
   36.4340   28.1140   33.3180 N   0  0  0  0  0  0  0  0  0  0  0  0
   36.7720   28.0350   34.6250 C   0  0  0  0  0  0  0  0  0  0  0  0
   37.2800   26.8750   35.0940 N   0  0  0  0  0  0  0  0  0  0  0  0
   37.4630   25.8100   34.3330 C   0  0  0  0  0  0  0  0  0  0  0  0
   43.1220   24.2680   36.0430 C   0  0  0  0  0  0  0  0  0  0  0  0
   44.2500   24.8520   36.8600 C   0  0  0  0  0  0  0  0  0  0  0  0
   45.0370   25.7240   35.9760 N   0  0  0  0  0  0  0  0  0  0  0  0
   44.6160   26.2000   34.7930 C   0  0  0  0  0  0  0  0  0  0  0  0
   45.5810   26.9760   34.2240 N   0  0  0  0  0  0  0  0  0  0  0  0
   46.6220   26.9770   35.0790 C   0  0  0  0  0  0  0  0  0  0  0  0
   47.8630   27.5910   35.0240 C   0  0  0  0  0  0  0  0  0  0  0  0
   48.7090   27.4020   36.0510 N   0  0  0  0  0  0  0  0  0  0  0  0
   48.3600   26.6360   37.1110 C   0  0  0  0  0  0  0  0  0  0  0  0
   47.1520   26.0220   37.1950 N   0  0  0  0  0  0  0  0  0  0  0  0
   46.2810   26.2000   36.1650 C   0  0  0  0  0  0  0  0  0  0  0  0
   41.0797   20.2236   37.3171 H   0  0  0  0  0  0  0  0  0  0  0  0
   44.7257   22.1728   36.2256 H   0  0  0  0  0  0  0  0  0  0  0  0
   40.1844   23.4416   34.7954 H   0  0  0  0  0  0  0  0  0  0  0  0
   37.8331   23.6398   39.0404 H   0  0  0  0  0  0  0  0  0  0  0  0
   38.2692   22.7702   33.3577 H   0  0  0  0  0  0  0  0  0  0  0  0
   36.3363   27.1086   31.4704 H   0  0  0  0  0  0  0  0  0  0  0  0
   36.6359   28.8984   35.2928 H   0  0  0  0  0  0  0  0  0  0  0  0
   43.4370   24.2516   34.9892 H   0  0  0  0  0  0  0  0  0  0  0  0
   42.2461   24.9074   36.2274 H   0  0  0  0  0  0  0  0  0  0  0  0
   43.8422   25.4373   37.6973 H   0  0  0  0  0  0  0  0  0  0  0  0
   44.8812   24.0514   37.2731 H   0  0  0  0  0  0  0  0  0  0  0  0
   43.6321   25.9930   34.3467 H   0  0  0  0  0  0  0  0  0  0  0  0
   48.1476   28.2153   34.1642 H   0  0  0  0  0  0  0  0  0  0  0  0
   49.0799   26.5065   37.9326 H   0  0  0  0  0  0  0  0  0  0  0  0
  1  8  1  0
  1  2  2  0
  3  2  1  0
  4  3  2  0
  5  4  1  0
  5  1  1  0
  6 11  1  0
  7  6  2  0
  7  8  1  0
  8  9  2  0
  9 10  1  0
 11 10  2  0
 12  6  1  0
 13 12  1  0
 14 15  1  0
 14 13  2  0
 15 20  2  0
 16 15  1  0
 16 17  2  0
 17 18  1  0
 18 19  2  0
 20 12  1  0
 20 19  1  0
 21  5  1  0
 21 22  1  0
 23 31  1  0
 23 22  1  0
 24 23  1  0
 25 24  2  0
 25 26  1  0
 26 31  2  0
 27 26  1  0
 27 28  2  0
 28 29  1  0
 29 30  2  0
 31 30  1  0
  2 32  1  0
  4 33  1  0
  7 34  1  0
 10 35  1  0
 13 36  1  0
 16 37  1  0
 18 38  1  0
 21 39  1  0
 21 40  1  0
 22 41  1  0
 22 42  1  0
 24 43  1  0
 27 44  1  0
 29 45  1  0
M  ISO  8  32  14  33  14  34  14  35  14  36  14  37  14  38  14  39   8
M  ISO  6  40   8  41   8  42   8  43  14  44  14  45  14
M  END
>  <minimizedAffinity>  (1) 
-5.95956182

>  <minimizedRMSD>  (1) 
0.911018431

$$$$
