
     RDKit          3D

 47 51  0  0  0  0  0  0  0  0999 V2000
   41.3850   22.1170   36.7820 C   0  0  0  0  0  0  0  0  0  0  0  0
   41.6070   20.8950   37.4160 C   0  0  0  0  0  0  0  0  0  0  0  0
   42.8750   20.5420   37.0790 N   0  0  0  0  0  0  0  0  0  0  0  0
   43.3610   21.5230   36.2820 C   0  0  0  0  0  0  0  0  0  0  0  0
   42.4760   22.4810   36.0930 N   0  0  0  0  0  0  0  0  0  0  0  0
   38.3520   24.0980   35.8520 C   0  0  0  0  0  0  0  0  0  0  0  0
   39.5490   23.3950   35.7870 C   0  0  0  0  0  0  0  0  0  0  0  0
   40.1420   22.8430   36.8860 C   0  0  0  0  0  0  0  0  0  0  0  0
   39.4610   23.0400   38.0560 N   0  0  0  0  0  0  0  0  0  0  0  0
   38.3090   23.7180   38.1170 C   0  0  0  0  0  0  0  0  0  0  0  0
   37.7480   24.2460   37.0420 N   0  0  0  0  0  0  0  0  0  0  0  0
   37.8940   24.6030   34.5650 N   0  0  0  0  0  0  0  0  0  0  0  0
   37.9060   23.8420   33.4640 C   0  0  0  0  0  0  0  0  0  0  0  0
   37.4170   24.6540   32.4880 N   0  0  0  0  0  0  0  0  0  0  0  0
   37.1210   25.8750   32.9990 C   0  0  0  0  0  0  0  0  0  0  0  0
   36.6170   27.0630   32.5280 C   0  0  0  0  0  0  0  0  0  0  0  0
   36.4270   28.1450   33.3110 N   0  0  0  0  0  0  0  0  0  0  0  0
   36.7440   28.0690   34.6240 C   0  0  0  0  0  0  0  0  0  0  0  0
   37.2400   26.9060   35.1000 N   0  0  0  0  0  0  0  0  0  0  0  0
   37.4300   25.8440   34.3460 C   0  0  0  0  0  0  0  0  0  0  0  0
   42.8400   23.6070   35.2580 C   0  0  0  0  0  0  0  0  0  0  0  0
   44.2760   23.6050   34.8030 C   0  0  0  0  0  0  0  0  0  0  0  0
   45.1000   23.9980   35.9460 N   0  0  0  0  0  0  0  0  0  0  0  0
   44.6790   24.8890   36.8720 C   0  0  0  0  0  0  0  0  0  0  0  0
   45.4480   25.2670   37.9540 C   0  0  0  0  0  0  0  0  0  0  0  0
   44.8840   26.2640   38.9220 C   0  0  0  0  0  0  0  0  0  0  0  0
   46.7080   24.7150   38.1070 C   0  0  0  0  0  0  0  0  0  0  0  0
   47.4100   25.0590   39.0920 O   0  0  0  0  0  0  0  0  0  0  0  0
   47.1010   23.8330   37.1720 N   0  0  0  0  0  0  0  0  0  0  0  0
   46.3360   23.4750   36.1200 C   0  0  0  0  0  0  0  0  0  0  0  0
   46.8050   22.6340   35.2980 O   0  0  0  0  0  0  0  0  0  0  0  0
   40.9054   20.3362   38.0529 H   0  0  0  0  0  0  0  0  0  0  0  0
   44.3708   21.5205   35.8458 H   0  0  0  0  0  0  0  0  0  0  0  0
   40.0392   23.2784   34.8092 H   0  0  0  0  0  0  0  0  0  0  0  0
   37.8133   23.8400   39.0914 H   0  0  0  0  0  0  0  0  0  0  0  0
   38.2363   22.7970   33.3697 H   0  0  0  0  0  0  0  0  0  0  0  0
   36.3560   27.1354   31.4619 H   0  0  0  0  0  0  0  0  0  0  0  0
   36.6012   28.9339   35.2885 H   0  0  0  0  0  0  0  0  0  0  0  0
   42.1964   23.5963   34.3660 H   0  0  0  0  0  0  0  0  0  0  0  0
   42.7062   24.5098   35.8721 H   0  0  0  0  0  0  0  0  0  0  0  0
   44.5609   22.5984   34.4631 H   0  0  0  0  0  0  0  0  0  0  0  0
   44.4178   24.3032   33.9649 H   0  0  0  0  0  0  0  0  0  0  0  0
   43.6788   25.3324   36.7578 H   0  0  0  0  0  0  0  0  0  0  0  0
   45.0757   25.9251   39.9508 H   0  0  0  0  0  0  0  0  0  0  0  0
   45.3630   27.2413   38.7626 H   0  0  0  0  0  0  0  0  0  0  0  0
   43.7996   26.3569   38.7626 H   0  0  0  0  0  0  0  0  0  0  0  0
   48.0349   23.4083   37.2634 H   0  0  0  0  0  0  0  0  0  0  0  0
  1  8  1  0
  1  2  2  0
  3  2  1  0
  4  3  2  0
  5  4  1  0
  5  1  1  0
  6 11  1  0
  7  6  2  0
  7  8  1  0
  8  9  2  0
  9 10  1  0
 11 10  2  0
 12  6  1  0
 13 12  1  0
 14 15  1  0
 14 13  2  0
 15 20  2  0
 16 15  1  0
 16 17  2  0
 17 18  1  0
 18 19  2  0
 20 12  1  0
 20 19  1  0
 21  5  1  0
 22 21  1  0
 22 23  1  0
 23 30  1  0
 23 24  1  0
 24 25  2  0
 25 27  1  0
 25 26  1  0
 27 28  2  0
 29 27  1  0
 30 29  1  0
 31 30  2  0
  2 32  1  0
  4 33  1  0
  7 34  1  0
 10 35  1  0
 13 36  1  0
 16 37  1  0
 18 38  1  0
 21 39  1  0
 21 40  1  0
 22 41  1  0
 22 42  1  0
 24 43  1  0
 26 44  1  0
 26 45  1  0
 26 46  1  0
 29 47  1  0
M  ISO  8  32  14  33  14  34  14  35  14  36  14  37  14  38  14  39   8
M  ISO  8  40   8  41   8  42   8  43  14  44   8  45   8  46   8  47   9
M  END
>  <minimizedAffinity>  (1) 
-6.21245813

>  <minimizedRMSD>  (1) 
2.53619242

$$$$
