
     RDKit          3D

 46 50  0  0  0  0  0  0  0  0999 V2000
   38.7790   23.8310   35.9380 C   0  0  0  0  0  0  0  0  0  0  0  0
   40.0420   23.2760   35.7670 C   0  0  0  0  0  0  0  0  0  0  0  0
   40.7510   22.7280   36.7960 C   0  0  0  0  0  0  0  0  0  0  0  0
   40.1190   22.7690   38.0100 N   0  0  0  0  0  0  0  0  0  0  0  0
   38.9070   23.3040   38.1720 C   0  0  0  0  0  0  0  0  0  0  0  0
   38.2300   23.8310   37.1610 N   0  0  0  0  0  0  0  0  0  0  0  0
   38.1930   24.3630   34.7170 N   0  0  0  0  0  0  0  0  0  0  0  0
   38.0530   23.5960   33.6110 C   0  0  0  0  0  0  0  0  0  0  0  0
   37.4850   24.4180   32.6890 N   0  0  0  0  0  0  0  0  0  0  0  0
   37.2960   25.6480   33.2460 C   0  0  0  0  0  0  0  0  0  0  0  0
   36.7780   26.8640   32.8310 C   0  0  0  0  0  0  0  0  0  0  0  0
   36.7150   27.9520   33.6370 N   0  0  0  0  0  0  0  0  0  0  0  0
   37.1750   27.8590   34.9040 C   0  0  0  0  0  0  0  0  0  0  0  0
   37.6850   26.6680   35.3190 N   0  0  0  0  0  0  0  0  0  0  0  0
   37.7510   25.6000   34.5370 C   0  0  0  0  0  0  0  0  0  0  0  0
   42.0510   22.1570   36.5840 C   0  0  0  0  0  0  0  0  0  0  0  0
   42.3110   20.7850   36.6290 C   0  0  0  0  0  0  0  0  0  0  0  0
   43.6390   20.6580   36.3810 N   0  0  0  0  0  0  0  0  0  0  0  0
   44.1420   21.9080   36.1970 C   0  0  0  0  0  0  0  0  0  0  0  0
   43.1820   22.8140   36.3190 N   0  0  0  0  0  0  0  0  0  0  0  0
   43.5620   24.2000   36.1360 C   0  0  0  0  0  0  0  0  0  0  0  0
   44.2740   24.8270   37.3080 C   0  0  0  0  0  0  0  0  0  0  0  0
   45.6340   25.1170   36.9790 N   0  0  0  0  0  0  0  0  0  0  0  0
   45.7570   26.1360   35.9550 C   0  0  0  0  0  0  0  0  0  0  0  0
   47.2750   26.3240   35.9030 C   0  0  0  0  0  0  0  0  0  0  0  0
   47.6660   26.1560   37.3490 C   0  0  0  0  0  0  0  0  0  0  0  0
   46.4270   25.6350   38.0760 C   0  0  0  0  0  0  0  0  0  0  0  0
   40.4879   23.2787   34.7614 H   0  0  0  0  0  0  0  0  0  0  0  0
   38.4558   23.3079   39.1752 H   0  0  0  0  0  0  0  0  0  0  0  0
   38.3362   22.5405   33.4856 H   0  0  0  0  0  0  0  0  0  0  0  0
   36.4009   26.9505   31.8013 H   0  0  0  0  0  0  0  0  0  0  0  0
   37.1381   28.7240   35.5825 H   0  0  0  0  0  0  0  0  0  0  0  0
   41.5904   19.9772   36.8245 H   0  0  0  0  0  0  0  0  0  0  0  0
   45.1958   22.1351   35.9780 H   0  0  0  0  0  0  0  0  0  0  0  0
   44.2272   24.2586   35.2619 H   0  0  0  0  0  0  0  0  0  0  0  0
   42.6243   24.7613   36.0106 H   0  0  0  0  0  0  0  0  0  0  0  0
   43.7624   25.7611   37.5832 H   0  0  0  0  0  0  0  0  0  0  0  0
   44.2579   24.1195   38.1501 H   0  0  0  0  0  0  0  0  0  0  0  0
   45.3607   25.7874   34.9899 H   0  0  0  0  0  0  0  0  0  0  0  0
   45.1950   27.0578   36.1658 H   0  0  0  0  0  0  0  0  0  0  0  0
   47.7501   25.5601   35.2700 H   0  0  0  0  0  0  0  0  0  0  0  0
   47.5863   27.2861   35.4702 H   0  0  0  0  0  0  0  0  0  0  0  0
   48.4907   25.4336   37.4381 H   0  0  0  0  0  0  0  0  0  0  0  0
   48.0100   27.1073   37.7811 H   0  0  0  0  0  0  0  0  0  0  0  0
   45.9013   26.4454   38.6022 H   0  0  0  0  0  0  0  0  0  0  0  0
   46.6484   24.8909   38.8553 H   0  0  0  0  0  0  0  0  0  0  0  0
  1  6  1  0
  2  1  2  0
  2  3  1  0
  3  4  2  0
  4  5  1  0
  6  5  2  0
  7  1  1  0
  8  7  1  0
  9 10  1  0
  9  8  2  0
 10 15  2  0
 11 10  1  0
 11 12  2  0
 12 13  1  0
 13 14  2  0
 15  7  1  0
 15 14  1  0
 16 17  2  0
 16  3  1  0
 18 17  1  0
 19 20  1  0
 19 18  2  0
 20 16  1  0
 21 20  1  0
 21 22  1  0
 23 22  1  0
 23 27  1  0
 24 23  1  0
 25 24  1  0
 25 26  1  0
 26 27  1  0
  2 28  1  0
  5 29  1  0
  8 30  1  0
 11 31  1  0
 13 32  1  0
 17 33  1  0
 19 34  1  0
 21 35  1  0
 21 36  1  0
 22 37  1  0
 22 38  1  0
 24 39  1  0
 24 40  1  0
 25 41  1  0
 25 42  1  0
 26 43  1  0
 26 44  1  0
 27 45  1  0
 27 46  1  0
M  ISO  8  28  14  29  14  30  14  31  14  32  14  33  14  34  14  35   8
M  ISO  8  36   8  37   8  38   8  39  13  40  13  41  13  42  13  43  13
M  ISO  3  44  13  45  13  46  13
M  END
>  <minimizedAffinity>  (1) 
-5.44547796

>  <minimizedRMSD>  (1) 
1.15597308

$$$$
