
     RDKit          3D

 47 51  0  0  0  0  0  0  0  0999 V2000
   38.6880   23.8890   35.9580 C   0  0  0  0  0  0  0  0  0  0  0  0
   39.9430   23.3170   35.8130 C   0  0  0  0  0  0  0  0  0  0  0  0
   40.6260   22.7580   36.8510 C   0  0  0  0  0  0  0  0  0  0  0  0
   39.9670   22.8100   38.0550 N   0  0  0  0  0  0  0  0  0  0  0  0
   38.7580   23.3630   38.1920 C   0  0  0  0  0  0  0  0  0  0  0  0
   38.1130   23.8970   37.1720 N   0  0  0  0  0  0  0  0  0  0  0  0
   38.1280   24.4300   34.7290 N   0  0  0  0  0  0  0  0  0  0  0  0
   38.0100   23.6590   33.6280 C   0  0  0  0  0  0  0  0  0  0  0  0
   37.4580   24.4800   32.6910 N   0  0  0  0  0  0  0  0  0  0  0  0
   37.2570   25.7150   33.2390 C   0  0  0  0  0  0  0  0  0  0  0  0
   36.7470   26.9310   32.8050 C   0  0  0  0  0  0  0  0  0  0  0  0
   36.6800   28.0110   33.6250 N   0  0  0  0  0  0  0  0  0  0  0  0
   37.1150   27.9170   34.8910 C   0  0  0  0  0  0  0  0  0  0  0  0
   37.6120   26.7340   35.3120 N   0  0  0  0  0  0  0  0  0  0  0  0
   37.6890   25.6660   34.5380 C   0  0  0  0  0  0  0  0  0  0  0  0
   41.9340   22.1690   36.6670 C   0  0  0  0  0  0  0  0  0  0  0  0
   42.1710   20.8060   36.7230 C   0  0  0  0  0  0  0  0  0  0  0  0
   43.4980   20.6570   36.5060 N   0  0  0  0  0  0  0  0  0  0  0  0
   44.0150   21.9020   36.3290 C   0  0  0  0  0  0  0  0  0  0  0  0
   43.0770   22.8320   36.4250 N   0  0  0  0  0  0  0  0  0  0  0  0
   43.4710   24.2140   36.2600 C   0  0  0  0  0  0  0  0  0  0  0  0
   44.4570   24.7190   37.2810 C   0  0  0  0  0  0  0  0  0  0  0  0
   45.1360   25.9260   36.6550 C   0  0  0  0  0  0  0  0  0  0  0  0
   46.6230   25.7930   36.6600 C   0  0  0  0  0  0  0  0  0  0  0  0
   47.0950   26.6020   35.4500 C   0  0  0  0  0  0  0  0  0  0  0  0
   45.8380   27.1180   34.7820 C   0  0  0  0  0  0  0  0  0  0  0  0
   44.7740   26.1030   35.2100 C   0  0  0  0  0  0  0  0  0  0  0  0
   40.4076   23.3145   34.8159 H   0  0  0  0  0  0  0  0  0  0  0  0
   38.2860   23.3734   39.1856 H   0  0  0  0  0  0  0  0  0  0  0  0
   38.2957   22.6030   33.5126 H   0  0  0  0  0  0  0  0  0  0  0  0
   36.3877   27.0219   31.7693 H   0  0  0  0  0  0  0  0  0  0  0  0
   37.0679   28.7820   35.5689 H   0  0  0  0  0  0  0  0  0  0  0  0
   41.4339   20.0102   36.9058 H   0  0  0  0  0  0  0  0  0  0  0  0
   45.0769   22.1102   36.1313 H   0  0  0  0  0  0  0  0  0  0  0  0
   43.9245   24.3234   35.2638 H   0  0  0  0  0  0  0  0  0  0  0  0
   42.5576   24.8128   36.3909 H   0  0  0  0  0  0  0  0  0  0  0  0
   43.9343   25.0116   38.2036 H   0  0  0  0  0  0  0  0  0  0  0  0
   45.1884   23.9426   37.5497 H   0  0  0  0  0  0  0  0  0  0  0  0
   44.7940   26.7760   37.2637 H   0  0  0  0  0  0  0  0  0  0  0  0
   47.0452   26.2041   37.5889 H   0  0  0  0  0  0  0  0  0  0  0  0
   46.9449   24.7425   36.6067 H   0  0  0  0  0  0  0  0  0  0  0  0
   47.7285   27.4409   35.7738 H   0  0  0  0  0  0  0  0  0  0  0  0
   47.6957   25.9884   34.7625 H   0  0  0  0  0  0  0  0  0  0  0  0
   45.9506   27.1341   33.6879 H   0  0  0  0  0  0  0  0  0  0  0  0
   45.5896   28.1507   35.0681 H   0  0  0  0  0  0  0  0  0  0  0  0
   43.7571   26.5055   35.0918 H   0  0  0  0  0  0  0  0  0  0  0  0
   44.7621   25.1736   34.6218 H   0  0  0  0  0  0  0  0  0  0  0  0
  1  6  1  0
  2  1  2  0
  2  3  1  0
  3  4  2  0
  4  5  1  0
  6  5  2  0
  7  1  1  0
  8  7  1  0
  9 10  1  0
  9  8  2  0
 10 15  2  0
 11 10  1  0
 11 12  2  0
 12 13  1  0
 13 14  2  0
 15  7  1  0
 15 14  1  0
 16 17  2  0
 16  3  1  0
 18 17  1  0
 19 20  1  0
 19 18  2  0
 20 16  1  0
 21 20  1  0
 21 22  1  0
 23 24  1  0
 23 22  1  0
 25 24  1  0
 26 27  1  0
 26 25  1  0
 27 23  1  0
  2 28  1  0
  5 29  1  0
  8 30  1  0
 11 31  1  0
 13 32  1  0
 17 33  1  0
 19 34  1  0
 21 35  1  0
 21 36  1  0
 22 37  1  0
 22 38  1  0
 23 39  1  0
 24 40  1  0
 24 41  1  0
 25 42  1  0
 25 43  1  0
 26 44  1  0
 26 45  1  0
 27 46  1  0
 27 47  1  0
M  ISO  8  28  14  29  14  30  14  31  14  32  14  33  14  34  14  35   8
M  ISO  8  36   8  37   8  38   8  39  13  40  13  41  13  42  13  43  13
M  ISO  4  44  13  45  13  46  13  47  13
M  END
>  <minimizedAffinity>  (1) 
-5.54204035

>  <minimizedRMSD>  (1) 
0.56378305

$$$$
