
     RDKit          3D

 49 53  0  0  0  0  0  0  0  0999 V2000
   38.6100   23.9150   35.8690 C   0  0  0  0  0  0  0  0  0  0  0  0
   39.8840   23.3750   35.7370 C   0  0  0  0  0  0  0  0  0  0  0  0
   40.5540   22.8370   36.7760 C   0  0  0  0  0  0  0  0  0  0  0  0
   39.8820   22.8610   37.9830 N   0  0  0  0  0  0  0  0  0  0  0  0
   38.6560   23.3820   38.1030 C   0  0  0  0  0  0  0  0  0  0  0  0
   38.0120   23.9060   37.0790 N   0  0  0  0  0  0  0  0  0  0  0  0
   38.0580   24.4520   34.6310 N   0  0  0  0  0  0  0  0  0  0  0  0
   37.9620   23.6970   33.5260 C   0  0  0  0  0  0  0  0  0  0  0  0
   37.4170   24.5160   32.5890 N   0  0  0  0  0  0  0  0  0  0  0  0
   37.1910   25.7530   33.1320 C   0  0  0  0  0  0  0  0  0  0  0  0
   36.6820   26.9610   32.7130 C   0  0  0  0  0  0  0  0  0  0  0  0
   36.5930   28.0280   33.5270 N   0  0  0  0  0  0  0  0  0  0  0  0
   37.0040   27.9470   34.7960 C   0  0  0  0  0  0  0  0  0  0  0  0
   37.5100   26.7580   35.2260 N   0  0  0  0  0  0  0  0  0  0  0  0
   37.6080   25.6950   34.4430 C   0  0  0  0  0  0  0  0  0  0  0  0
   41.8810   22.2750   36.6140 C   0  0  0  0  0  0  0  0  0  0  0  0
   42.1460   20.9110   36.7190 C   0  0  0  0  0  0  0  0  0  0  0  0
   43.4810   20.7880   36.5080 N   0  0  0  0  0  0  0  0  0  0  0  0
   43.9590   22.0440   36.2880 C   0  0  0  0  0  0  0  0  0  0  0  0
   43.0080   22.9410   36.3500 N   0  0  0  0  0  0  0  0  0  0  0  0
   43.3620   24.3230   36.1260 C   0  0  0  0  0  0  0  0  0  0  0  0
   44.3830   24.8910   37.0780 C   0  0  0  0  0  0  0  0  0  0  0  0
   45.1680   25.8430   36.3370 N   0  0  0  0  0  0  0  0  0  0  0  0
   46.5250   25.3890   36.0980 C   0  0  0  0  0  0  0  0  0  0  0  0
   47.2830   26.6120   35.6140 C   0  0  0  0  0  0  0  0  0  0  0  0
   46.6710   27.2240   34.3800 C   0  0  0  0  0  0  0  0  0  0  0  0
   45.1790   27.4580   34.6230 C   0  0  0  0  0  0  0  0  0  0  0  0
   44.6250   26.0990   35.0140 C   0  0  0  0  0  0  0  0  0  0  0  0
   40.3638   23.3870   34.7472 H   0  0  0  0  0  0  0  0  0  0  0  0
   38.1687   23.3729   39.0892 H   0  0  0  0  0  0  0  0  0  0  0  0
   38.2595   22.6449   33.4052 H   0  0  0  0  0  0  0  0  0  0  0  0
   36.3350   27.0575   31.6736 H   0  0  0  0  0  0  0  0  0  0  0  0
   36.9358   28.8126   35.4713 H   0  0  0  0  0  0  0  0  0  0  0  0
   41.4265   20.1057   36.9283 H   0  0  0  0  0  0  0  0  0  0  0  0
   45.0146   22.2761   36.0834 H   0  0  0  0  0  0  0  0  0  0  0  0
   43.7642   24.4093   35.1058 H   0  0  0  0  0  0  0  0  0  0  0  0
   42.4409   24.9021   36.2883 H   0  0  0  0  0  0  0  0  0  0  0  0
   43.8787   25.3903   37.9184 H   0  0  0  0  0  0  0  0  0  0  0  0
   45.0198   24.0946   37.4905 H   0  0  0  0  0  0  0  0  0  0  0  0
   46.9705   25.0034   37.0269 H   0  0  0  0  0  0  0  0  0  0  0  0
   46.5581   24.5713   35.3630 H   0  0  0  0  0  0  0  0  0  0  0  0
   47.2856   27.3648   36.4161 H   0  0  0  0  0  0  0  0  0  0  0  0
   48.3026   26.2905   35.3551 H   0  0  0  0  0  0  0  0  0  0  0  0
   46.8025   26.5421   33.5270 H   0  0  0  0  0  0  0  0  0  0  0  0
   47.1645   28.1818   34.1583 H   0  0  0  0  0  0  0  0  0  0  0  0
   45.0291   28.1846   35.4352 H   0  0  0  0  0  0  0  0  0  0  0  0
   44.6758   27.8688   33.7353 H   0  0  0  0  0  0  0  0  0  0  0  0
   43.5257   26.1229   35.0444 H   0  0  0  0  0  0  0  0  0  0  0  0
   44.9012   25.3152   34.2933 H   0  0  0  0  0  0  0  0  0  0  0  0
  1  6  1  0
  2  1  2  0
  2  3  1  0
  3  4  2  0
  4  5  1  0
  6  5  2  0
  7  1  1  0
  8  7  1  0
  9 10  1  0
  9  8  2  0
 10 15  2  0
 11 10  1  0
 11 12  2  0
 12 13  1  0
 13 14  2  0
 15  7  1  0
 15 14  1  0
 16 17  2  0
 16  3  1  0
 18 17  1  0
 19 20  1  0
 19 18  2  0
 20 16  1  0
 21 20  1  0
 21 22  1  0
 23 22  1  0
 24 23  1  0
 25 24  1  0
 26 27  1  0
 26 25  1  0
 27 28  1  0
 28 23  1  0
  2 29  1  0
  5 30  1  0
  8 31  1  0
 11 32  1  0
 13 33  1  0
 17 34  1  0
 19 35  1  0
 21 36  1  0
 21 37  1  0
 22 38  1  0
 22 39  1  0
 24 40  1  0
 24 41  1  0
 25 42  1  0
 25 43  1  0
 26 44  1  0
 26 45  1  0
 27 46  1  0
 27 47  1  0
 28 48  1  0
 28 49  1  0
M  ISO  8  29  14  30  14  31  14  32  14  33  14  34  14  35  14  36   8
M  ISO  8  37   8  38   8  39   8  40  13  41  13  42  13  43  13  44  13
M  ISO  5  45  13  46  13  47  13  48  13  49  13
M  END
>  <minimizedAffinity>  (1) 
-5.49426317

>  <minimizedRMSD>  (1) 
0.845408022

$$$$
