
     RDKit          3D

 44 48  0  0  0  0  0  0  0  0999 V2000
   41.5140   22.0850   36.8660 C   0  0  0  0  0  0  0  0  0  0  0  0
   41.7690   20.8760   37.4900 C   0  0  0  0  0  0  0  0  0  0  0  0
   43.0350   20.5390   37.1470 N   0  0  0  0  0  0  0  0  0  0  0  0
   43.5070   21.5320   36.3390 C   0  0  0  0  0  0  0  0  0  0  0  0
   42.5980   22.4750   36.1600 N   0  0  0  0  0  0  0  0  0  0  0  0
   38.4610   24.0450   35.9650 C   0  0  0  0  0  0  0  0  0  0  0  0
   39.6650   23.3520   35.8950 C   0  0  0  0  0  0  0  0  0  0  0  0
   40.2620   22.7980   36.9750 C   0  0  0  0  0  0  0  0  0  0  0  0
   39.5850   22.9730   38.1540 N   0  0  0  0  0  0  0  0  0  0  0  0
   38.4310   23.6360   38.2230 C   0  0  0  0  0  0  0  0  0  0  0  0
   37.8570   24.1730   37.1620 N   0  0  0  0  0  0  0  0  0  0  0  0
   37.9860   24.5640   34.6940 N   0  0  0  0  0  0  0  0  0  0  0  0
   37.9700   23.7840   33.5900 C   0  0  0  0  0  0  0  0  0  0  0  0
   37.4720   24.5910   32.6100 N   0  0  0  0  0  0  0  0  0  0  0  0
   37.2040   25.8140   33.1310 C   0  0  0  0  0  0  0  0  0  0  0  0
   36.7000   27.0200   32.6550 C   0  0  0  0  0  0  0  0  0  0  0  0
   36.5440   28.1070   33.4550 N   0  0  0  0  0  0  0  0  0  0  0  0
   36.8810   28.0300   34.7460 C   0  0  0  0  0  0  0  0  0  0  0  0
   37.3760   26.8570   35.2240 N   0  0  0  0  0  0  0  0  0  0  0  0
   37.5340   25.7910   34.4640 C   0  0  0  0  0  0  0  0  0  0  0  0
   42.9430   23.5910   35.3320 C   0  0  0  0  0  0  0  0  0  0  0  0
   43.6470   24.7270   36.0420 C   0  0  0  0  0  0  0  0  0  0  0  0
   44.0620   25.7910   35.1000 C   0  0  0  0  0  0  0  0  0  0  0  0
   45.2600   26.3900   35.4290 C   0  0  0  0  0  0  0  0  0  0  0  0
   45.8090   27.4140   34.6570 C   0  0  0  0  0  0  0  0  0  0  0  0
   45.0860   27.7940   33.5420 C   0  0  0  0  0  0  0  0  0  0  0  0
   43.9020   27.1920   33.2290 C   0  0  0  0  0  0  0  0  0  0  0  0
   43.3530   26.1740   33.9960 C   0  0  0  0  0  0  0  0  0  0  0  0
   41.0831   20.3053   38.1333 H   0  0  0  0  0  0  0  0  0  0  0  0
   44.5130   21.5461   35.8944 H   0  0  0  0  0  0  0  0  0  0  0  0
   40.1547   23.2497   34.9153 H   0  0  0  0  0  0  0  0  0  0  0  0
   37.9380   23.7398   39.2008 H   0  0  0  0  0  0  0  0  0  0  0  0
   38.2873   22.7344   33.5020 H   0  0  0  0  0  0  0  0  0  0  0  0
   36.4181   27.0962   31.5945 H   0  0  0  0  0  0  0  0  0  0  0  0
   36.7603   28.8991   35.4094 H   0  0  0  0  0  0  0  0  0  0  0  0
   42.0162   23.9873   34.8916 H   0  0  0  0  0  0  0  0  0  0  0  0
   43.6556   23.2089   34.5862 H   0  0  0  0  0  0  0  0  0  0  0  0
   42.9635   25.1586   36.7880 H   0  0  0  0  0  0  0  0  0  0  0  0
   44.5510   24.3228   36.5211 H   0  0  0  0  0  0  0  0  0  0  0  0
   45.7982   26.0504   36.3262 H   0  0  0  0  0  0  0  0  0  0  0  0
   46.7638   27.8922   34.9208 H   0  0  0  0  0  0  0  0  0  0  0  0
   45.4718   28.5959   32.8954 H   0  0  0  0  0  0  0  0  0  0  0  0
   43.3606   27.5273   32.3321 H   0  0  0  0  0  0  0  0  0  0  0  0
   42.3969   25.7000   33.7293 H   0  0  0  0  0  0  0  0  0  0  0  0
  1  8  1  0
  1  2  2  0
  3  2  1  0
  4  3  2  0
  5  4  1  0
  5  1  1  0
  6 11  1  0
  7  6  2  0
  7  8  1  0
  8  9  2  0
  9 10  1  0
 11 10  2  0
 12  6  1  0
 13 12  1  0
 14 15  1  0
 14 13  2  0
 15 20  2  0
 16 15  1  0
 16 17  2  0
 17 18  1  0
 18 19  2  0
 20 12  1  0
 20 19  1  0
 21 22  1  0
 21  5  1  0
 23 24  2  0
 23 22  1  0
 25 24  1  0
 26 25  2  0
 27 26  1  0
 27 28  2  0
 28 23  1  0
  2 29  1  0
  4 30  1  0
  7 31  1  0
 10 32  1  0
 13 33  1  0
 16 34  1  0
 18 35  1  0
 21 36  1  0
 21 37  1  0
 22 38  1  0
 22 39  1  0
 24 40  1  0
 25 41  1  0
 26 42  1  0
 27 43  1  0
 28 44  1  0
M  ISO  8  29  14  30  14  31  14  32  14  33  14  34  14  35  14  36   8
M  ISO  8  37   8  38   8  39   8  40  14  41  14  42  14  43  14  44  14
M  END
>  <minimizedAffinity>  (1) 
-5.44602156

>  <minimizedRMSD>  (1) 
1.22501051

$$$$
