
     RDKit          3D

 41 45  0  0  0  0  0  0  0  0999 V2000
   38.6260   23.9150   35.9250 C   0  0  0  0  0  0  0  0  0  0  0  0
   39.8960   23.3590   35.7890 C   0  0  0  0  0  0  0  0  0  0  0  0
   40.5750   22.8000   36.8240 C   0  0  0  0  0  0  0  0  0  0  0  0
   39.9030   22.8270   38.0210 N   0  0  0  0  0  0  0  0  0  0  0  0
   38.6880   23.3590   38.1500 C   0  0  0  0  0  0  0  0  0  0  0  0
   38.0400   23.9000   37.1330 N   0  0  0  0  0  0  0  0  0  0  0  0
   38.0710   24.4630   34.6960 N   0  0  0  0  0  0  0  0  0  0  0  0
   37.9440   23.7020   33.5900 C   0  0  0  0  0  0  0  0  0  0  0  0
   37.4000   24.5350   32.6620 N   0  0  0  0  0  0  0  0  0  0  0  0
   37.2120   25.7580   33.2120 C   0  0  0  0  0  0  0  0  0  0  0  0
   36.7150   26.9870   32.7930 C   0  0  0  0  0  0  0  0  0  0  0  0
   36.6540   28.0610   33.6020 N   0  0  0  0  0  0  0  0  0  0  0  0
   37.0880   27.9610   34.8680 C   0  0  0  0  0  0  0  0  0  0  0  0
   37.5780   26.7710   35.2950 N   0  0  0  0  0  0  0  0  0  0  0  0
   37.6460   25.7100   34.5230 C   0  0  0  0  0  0  0  0  0  0  0  0
   41.8900   22.2340   36.6440 C   0  0  0  0  0  0  0  0  0  0  0  0
   42.1570   20.8780   36.7490 C   0  0  0  0  0  0  0  0  0  0  0  0
   43.4860   20.7480   36.5160 N   0  0  0  0  0  0  0  0  0  0  0  0
   43.9750   22.0080   36.2810 C   0  0  0  0  0  0  0  0  0  0  0  0
   43.0130   22.9090   36.3560 N   0  0  0  0  0  0  0  0  0  0  0  0
   43.3780   24.2890   36.1300 C   0  0  0  0  0  0  0  0  0  0  0  0
   44.3570   24.8540   37.1250 C   0  0  0  0  0  0  0  0  0  0  0  0
   45.3540   25.6630   36.3710 C   0  0  0  0  0  0  0  0  0  0  0  0
   46.7190   25.7560   36.4920 C   0  0  0  0  0  0  0  0  0  0  0  0
   47.2210   26.6530   35.5550 C   0  0  0  0  0  0  0  0  0  0  0  0
   46.0880   27.0700   34.8930 C   0  0  0  0  0  0  0  0  0  0  0  0
   45.0330   26.4890   35.3800 O   0  0  0  0  0  0  0  0  0  0  0  0
   40.3711   23.3734   34.7970 H   0  0  0  0  0  0  0  0  0  0  0  0
   38.2068   23.3475   39.1391 H   0  0  0  0  0  0  0  0  0  0  0  0
   38.2188   22.6441   33.4659 H   0  0  0  0  0  0  0  0  0  0  0  0
   36.3569   27.0857   31.7576 H   0  0  0  0  0  0  0  0  0  0  0  0
   37.0470   28.8267   35.5454 H   0  0  0  0  0  0  0  0  0  0  0  0
   41.4400   20.0748   36.9744 H   0  0  0  0  0  0  0  0  0  0  0  0
   45.0279   22.2370   36.0597 H   0  0  0  0  0  0  0  0  0  0  0  0
   43.8259   24.3649   35.1282 H   0  0  0  0  0  0  0  0  0  0  0  0
   42.4537   24.8755   36.2375 H   0  0  0  0  0  0  0  0  0  0  0  0
   43.8288   25.4911   37.8497 H   0  0  0  0  0  0  0  0  0  0  0  0
   44.8565   24.0437   37.6762 H   0  0  0  0  0  0  0  0  0  0  0  0
   47.3263   25.2021   37.2230 H   0  0  0  0  0  0  0  0  0  0  0  0
   48.2651   26.9547   35.3849 H   0  0  0  0  0  0  0  0  0  0  0  0
   46.0776   27.7951   34.0659 H   0  0  0  0  0  0  0  0  0  0  0  0
  1  6  1  0
  2  1  2  0
  2  3  1  0
  3  4  2  0
  4  5  1  0
  6  5  2  0
  7  1  1  0
  8  7  1  0
  9 10  1  0
  9  8  2  0
 10 15  2  0
 11 10  1  0
 11 12  2  0
 12 13  1  0
 13 14  2  0
 15  7  1  0
 15 14  1  0
 16 17  2  0
 16  3  1  0
 18 17  1  0
 19 20  1  0
 19 18  2  0
 20 16  1  0
 21 20  1  0
 21 22  1  0
 23 24  2  0
 23 22  1  0
 25 24  1  0
 26 27  1  0
 26 25  2  0
 27 23  1  0
  2 28  1  0
  5 29  1  0
  8 30  1  0
 11 31  1  0
 13 32  1  0
 17 33  1  0
 19 34  1  0
 21 35  1  0
 21 36  1  0
 22 37  1  0
 22 38  1  0
 24 39  1  0
 25 40  1  0
 26 41  1  0
M  ISO  8  28  14  29  14  30  14  31  14  32  14  33  14  34  14  35   8
M  ISO  6  36   8  37   8  38   8  39  14  40  14  41  14
M  END
>  <minimizedAffinity>  (1) 
-5.50576258

>  <minimizedRMSD>  (1) 
0.940990448

$$$$
