
     RDKit          3D

 45 49  0  0  0  0  0  0  0  0999 V2000
   38.5390   24.1500   36.6390 C   0  0  0  0  0  0  0  0  0  0  0  0
   37.9040   24.1930   37.8730 C   0  0  0  0  0  0  0  0  0  0  0  0
   38.6410   23.4030   38.6870 N   0  0  0  0  0  0  0  0  0  0  0  0
   39.6680   22.9180   37.9470 C   0  0  0  0  0  0  0  0  0  0  0  0
   39.6240   23.3590   36.7040 N   0  0  0  0  0  0  0  0  0  0  0  0
   37.7470   25.0120   33.0870 C   0  0  0  0  0  0  0  0  0  0  0  0
   38.1890   24.3530   34.2290 C   0  0  0  0  0  0  0  0  0  0  0  0
   38.0670   24.8670   35.4740 C   0  0  0  0  0  0  0  0  0  0  0  0
   37.4700   26.0960   35.5200 N   0  0  0  0  0  0  0  0  0  0  0  0
   37.0420   26.7410   34.4280 C   0  0  0  0  0  0  0  0  0  0  0  0
   37.1710   26.2180   33.2210 N   0  0  0  0  0  0  0  0  0  0  0  0
   37.9720   24.2880   31.8440 N   0  0  0  0  0  0  0  0  0  0  0  0
   37.4440   23.0570   31.6510 C   0  0  0  0  0  0  0  0  0  0  0  0
   37.8590   22.7020   30.4010 N   0  0  0  0  0  0  0  0  0  0  0  0
   38.6150   23.7000   29.8670 C   0  0  0  0  0  0  0  0  0  0  0  0
   39.2940   23.9390   28.6890 C   0  0  0  0  0  0  0  0  0  0  0  0
   39.9800   25.0680   28.4440 N   0  0  0  0  0  0  0  0  0  0  0  0
   40.0190   26.0330   29.3840 C   0  0  0  0  0  0  0  0  0  0  0  0
   39.3560   25.8120   30.5470 N   0  0  0  0  0  0  0  0  0  0  0  0
   38.6790   24.7160   30.8090 C   0  0  0  0  0  0  0  0  0  0  0  0
   40.6540   22.9300   35.7840 C   0  0  0  0  0  0  0  0  0  0  0  0
   41.6760   23.9820   35.4600 C   0  0  0  0  0  0  0  0  0  0  0  0
   43.0350   23.5720   35.6410 N   0  0  0  0  0  0  0  0  0  0  0  0
   43.3400   22.2550   35.7140 C   0  0  0  0  0  0  0  0  0  0  0  0
   44.5940   21.7270   35.8850 C   0  0  0  0  0  0  0  0  0  0  0  0
   45.6310   22.6420   35.9920 C   0  0  0  0  0  0  0  0  0  0  0  0
   46.9620   22.1650   36.1710 N   0  0  0  0  0  0  0  0  0  0  0  0
   45.3590   23.9610   35.9230 N   0  0  0  0  0  0  0  0  0  0  0  0
   44.0970   24.3950   35.7530 C   0  0  0  0  0  0  0  0  0  0  0  0
   43.8780   25.6340   35.6930 O   0  0  0  0  0  0  0  0  0  0  0  0
   36.9932   24.7519   38.1338 H   0  0  0  0  0  0  0  0  0  0  0  0
   40.4427   22.2402   38.3349 H   0  0  0  0  0  0  0  0  0  0  0  0
   38.6607   23.3659   34.1142 H   0  0  0  0  0  0  0  0  0  0  0  0
   36.5719   27.7294   34.5377 H   0  0  0  0  0  0  0  0  0  0  0  0
   36.8209   22.4743   32.3453 H   0  0  0  0  0  0  0  0  0  0  0  0
   39.2722   23.1635   27.9091 H   0  0  0  0  0  0  0  0  0  0  0  0
   40.5705   26.9695   29.2139 H   0  0  0  0  0  0  0  0  0  0  0  0
   41.1755   22.0696   36.2287 H   0  0  0  0  0  0  0  0  0  0  0  0
   40.1474   22.6839   34.8391 H   0  0  0  0  0  0  0  0  0  0  0  0
   41.4910   24.8507   36.1090 H   0  0  0  0  0  0  0  0  0  0  0  0
   41.5600   24.2084   34.3898 H   0  0  0  0  0  0  0  0  0  0  0  0
   42.5056   21.5434   35.6283 H   0  0  0  0  0  0  0  0  0  0  0  0
   44.7673   20.6419   35.9344 H   0  0  0  0  0  0  0  0  0  0  0  0
   47.7419   22.8329   36.2520 H   0  0  0  0  0  0  0  0  0  0  0  0
   47.1440   21.1524   36.2194 H   0  0  0  0  0  0  0  0  0  0  0  0
  1  5  1  0
  1  2  2  0
  2  3  1  0
  4  3  2  0
  5  4  1  0
  6 11  1  0
  6  7  2  0
  7  8  1  0
  8  9  2  0
  8  1  1  0
 10  9  1  0
 11 10  2  0
 12  6  1  0
 13 12  1  0
 14 13  2  0
 15 14  1  0
 15 20  2  0
 16 15  1  0
 17 16  2  0
 17 18  1  0
 18 19  2  0
 19 20  1  0
 20 12  1  0
 21  5  1  0
 22 23  1  0
 22 21  1  0
 23 24  1  0
 23 29  1  0
 24 25  2  0
 25 26  1  0
 26 27  1  0
 28 26  2  0
 29 28  1  0
 30 29  2  0
  2 31  1  0
  4 32  1  0
  7 33  1  0
 10 34  1  0
 13 35  1  0
 16 36  1  0
 18 37  1  0
 21 38  1  0
 21 39  1  0
 22 40  1  0
 22 41  1  0
 24 42  1  0
 25 43  1  0
 27 44  1  0
 27 45  1  0
M  ISO  8  31  14  32  14  33  14  34  14  35  14  36  14  37  14  38   8
M  ISO  5  39   8  40   8  41   8  42  14  43  14
M  END
>  <minimizedAffinity>  (1) 
-5.17609358

>  <minimizedRMSD>  (1) 
4.58336496

$$$$
