
     RDKit          3D

 33 36  0  0  0  0  0  0  0  0999 V2000
   41.6040   21.5070   37.3700 C   0  0  0  0  0  0  0  0  0  0  0  0
   41.2870   22.8230   37.0020 C   0  0  0  0  0  0  0  0  0  0  0  0
   41.6490   23.2110   35.6990 C   0  0  0  0  0  0  0  0  0  0  0  0
   42.2640   22.3230   34.8940 N   0  0  0  0  0  0  0  0  0  0  0  0
   42.5540   21.0620   35.2830 C   0  0  0  0  0  0  0  0  0  0  0  0
   42.2110   20.6660   36.5450 N   0  0  0  0  0  0  0  0  0  0  0  0
   41.3590   24.5400   35.2280 N   0  0  0  0  0  0  0  0  0  0  0  0
   40.1090   24.9300   34.9800 C   0  0  0  0  0  0  0  0  0  0  0  0
   40.1500   26.2150   34.5510 C   0  0  0  0  0  0  0  0  0  0  0  0
   41.4310   26.5750   34.5510 N   0  0  0  0  0  0  0  0  0  0  0  0
   42.1980   25.5410   34.9710 C   0  0  0  0  0  0  0  0  0  0  0  0
   38.8870   26.8940   34.2030 C   0  0  0  0  0  0  0  0  0  0  0  0
   37.9440   27.2820   35.1300 C   0  0  0  0  0  0  0  0  0  0  0  0
   36.7670   27.9130   34.8230 C   0  0  0  0  0  0  0  0  0  0  0  0
   36.4620   28.1990   33.5110 C   0  0  0  0  0  0  0  0  0  0  0  0
   37.3630   27.8340   32.5510 C   0  0  0  0  0  0  0  0  0  0  0  0
   37.0310   28.1320   31.2550 C   0  0  0  0  0  0  0  0  0  0  0  0
   37.8730   27.8060   30.2140 C   0  0  0  0  0  0  0  0  0  0  0  0
   39.0670   27.1650   30.5380 C   0  0  0  0  0  0  0  0  0  0  0  0
   39.3410   26.8950   31.8510 C   0  0  0  0  0  0  0  0  0  0  0  0
   38.5280   27.2040   32.9140 C   0  0  0  0  0  0  0  0  0  0  0  0
   41.3392   21.1606   38.3799 H   0  0  0  0  0  0  0  0  0  0  0  0
   40.7831   23.5136   37.6942 H   0  0  0  0  0  0  0  0  0  0  0  0
   43.0575   20.3662   34.5957 H   0  0  0  0  0  0  0  0  0  0  0  0
   39.2037   24.3171   35.1020 H   0  0  0  0  0  0  0  0  0  0  0  0
   43.2927   25.5304   35.0781 H   0  0  0  0  0  0  0  0  0  0  0  0
   38.1504   27.0706   36.1896 H   0  0  0  0  0  0  0  0  0  0  0  0
   36.0663   28.1909   35.6241 H   0  0  0  0  0  0  0  0  0  0  0  0
   35.5226   28.7053   33.2443 H   0  0  0  0  0  0  0  0  0  0  0  0
   36.0782   28.6390   31.0427 H   0  0  0  0  0  0  0  0  0  0  0  0
   37.6135   28.0418   29.1714 H   0  0  0  0  0  0  0  0  0  0  0  0
   39.7791   26.8801   29.7495 H   0  0  0  0  0  0  0  0  0  0  0  0
   40.2916   26.3883   32.0738 H   0  0  0  0  0  0  0  0  0  0  0  0
  2  1  2  0
  3  2  1  0
  4  5  1  0
  4  3  2  0
  5  6  2  0
  6  1  1  0
  7  3  1  0
  8  7  1  0
  9 10  1  0
  9  8  2  0
 10 11  2  0
 11  7  1  0
 12  9  1  0
 12 13  2  0
 14 13  1  0
 15 14  2  0
 16 21  2  0
 16 15  1  0
 17 16  1  0
 18 19  1  0
 18 17  2  0
 19 20  2  0
 20 21  1  0
 21 12  1  0
  1 22  1  0
  2 23  1  0
  5 24  1  0
  8 25  1  0
 11 26  1  0
 13 27  1  0
 14 28  1  0
 15 29  1  0
 17 30  1  0
 18 31  1  0
 19 32  1  0
 20 33  1  0
M  ISO  8  22  14  23  14  24  14  25  14  26  14  27  14  28  14  29  14
M  ISO  4  30  14  31  14  32  14  33  14
M  END
>  <minimizedAffinity>  (1) 
-5.42580414

>  <minimizedRMSD>  (1) 
3.71372581

$$$$
