
     RDKit          3D

 23 25  0  0  0  0  0  0  0  0999 V2000
   40.1870   22.3040   37.5610 C   0  0  0  0  0  0  0  0  0  0  0  0
   39.4790   23.3330   36.8990 C   0  0  0  0  0  0  0  0  0  0  0  0
   40.1450   23.9820   35.8730 C   0  0  0  0  0  0  0  0  0  0  0  0
   41.4200   23.6070   35.5570 N   0  0  0  0  0  0  0  0  0  0  0  0
   42.0560   22.6150   36.2200 C   0  0  0  0  0  0  0  0  0  0  0  0
   41.4240   21.9660   37.2290 N   0  0  0  0  0  0  0  0  0  0  0  0
   39.5200   25.0490   35.1230 N   0  0  0  0  0  0  0  0  0  0  0  0
   38.5180   24.7810   34.2810 C   0  0  0  0  0  0  0  0  0  0  0  0
   38.1640   25.9860   33.7420 C   0  0  0  0  0  0  0  0  0  0  0  0
   38.9480   26.9320   34.2640 N   0  0  0  0  0  0  0  0  0  0  0  0
   39.8140   26.3590   35.1410 C   0  0  0  0  0  0  0  0  0  0  0  0
   37.0920   26.1000   32.7660 C   0  0  0  0  0  0  0  0  0  0  0  0
   36.5880   24.8500   32.1480 C   0  0  0  0  0  0  0  0  0  0  0  0
   35.2350   25.4290   30.9700 S   0  0  0  0  0  0  0  0  0  0  0  0
   35.5930   27.2050   31.5180 C   0  0  0  0  0  0  0  0  0  0  0  0
   36.4170   27.0990   32.2650 N   0  0  0  0  0  0  0  0  0  0  0  0
   39.6925   21.7641   38.3820 H   0  0  0  0  0  0  0  0  0  0  0  0
   38.4518   23.6042   37.1842 H   0  0  0  0  0  0  0  0  0  0  0  0
   43.0828   22.3353   35.9418 H   0  0  0  0  0  0  0  0  0  0  0  0
   38.0722   23.7984   34.0669 H   0  0  0  0  0  0  0  0  0  0  0  0
   40.5897   26.8611   35.7378 H   0  0  0  0  0  0  0  0  0  0  0  0
   36.9263   23.8200   32.3343 H   0  0  0  0  0  0  0  0  0  0  0  0
   35.1024   28.1293   31.1789 H   0  0  0  0  0  0  0  0  0  0  0  0
  2  1  2  0
  3  2  1  0
  4  3  2  0
  4  5  1  0
  5  6  2  0
  6  1  1  0
  7 11  1  0
  7  3  1  0
  8  7  1  0
  9 10  1  0
  9  8  2  0
 10 11  2  0
 12  9  1  0
 13 12  2  0
 14 15  1  0
 14 13  1  0
 15 16  2  0
 16 12  1  0
  1 17  1  0
  2 18  1  0
  5 19  1  0
  8 20  1  0
 11 21  1  0
 13 22  1  0
 15 23  1  0
M  ISO  7  17  14  18  14  19  14  20  14  21  14  22  14  23  14
M  END
>  <minimizedAffinity>  (1) 
-4.03032875

>  <minimizedRMSD>  (1) 
2.92893791

$$$$
