
     RDKit          3D

 22 24  0  0  0  0  0  0  0  0999 V2000
   39.2830   22.8590   37.8440 C   0  0  0  0  0  0  0  0  0  0  0  0
   38.8770   23.9250   37.0140 C   0  0  0  0  0  0  0  0  0  0  0  0
   39.7330   24.2600   35.9760 C   0  0  0  0  0  0  0  0  0  0  0  0
   40.8960   23.5680   35.8050 N   0  0  0  0  0  0  0  0  0  0  0  0
   41.2510   22.5500   36.6240 C   0  0  0  0  0  0  0  0  0  0  0  0
   40.4350   22.1960   37.6490 N   0  0  0  0  0  0  0  0  0  0  0  0
   39.4110   25.3380   35.0670 N   0  0  0  0  0  0  0  0  0  0  0  0
   38.3980   25.1830   34.1780 C   0  0  0  0  0  0  0  0  0  0  0  0
   38.3680   26.3760   33.4850 C   0  0  0  0  0  0  0  0  0  0  0  0
   39.3210   27.1870   33.9530 N   0  0  0  0  0  0  0  0  0  0  0  0
   39.9860   26.5380   34.9540 C   0  0  0  0  0  0  0  0  0  0  0  0
   37.4040   26.6240   32.4190 C   0  0  0  0  0  0  0  0  0  0  0  0
   36.4390   25.7120   32.1330 N   0  0  0  0  0  0  0  0  0  0  0  0
   35.7060   26.1390   31.1620 O   0  0  0  0  0  0  0  0  0  0  0  0
   36.1360   27.3220   30.7640 C   0  0  0  0  0  0  0  0  0  0  0  0
   37.2050   27.6330   31.5510 N   0  0  0  0  0  0  0  0  0  0  0  0
   38.6336   22.5602   38.6801 H   0  0  0  0  0  0  0  0  0  0  0  0
   37.9316   24.4619   37.1814 H   0  0  0  0  0  0  0  0  0  0  0  0
   42.1964   22.0124   36.4594 H   0  0  0  0  0  0  0  0  0  0  0  0
   37.7484   24.3060   34.0408 H   0  0  0  0  0  0  0  0  0  0  0  0
   40.8266   26.9259   35.5480 H   0  0  0  0  0  0  0  0  0  0  0  0
   35.7142   27.9368   29.9553 H   0  0  0  0  0  0  0  0  0  0  0  0
  2  1  2  0
  3  2  1  0
  4  3  2  0
  4  5  1  0
  5  6  2  0
  6  1  1  0
  7  3  1  0
  8  7  1  0
  9 10  1  0
  9  8  2  0
 10 11  2  0
 11  7  1  0
 12  9  1  0
 13 12  2  0
 14 13  1  0
 15 14  1  0
 15 16  2  0
 16 12  1  0
  1 17  1  0
  2 18  1  0
  5 19  1  0
  8 20  1  0
 11 21  1  0
 15 22  1  0
M  ISO  6  17  14  18  14  19  14  20  14  21  14  22  14
M  END
>  <minimizedAffinity>  (1) 
-3.94049239

>  <minimizedRMSD>  (1) 
3.40824151

$$$$
