
     RDKit          3D

 30 33  0  0  0  0  0  0  0  0999 V2000
   41.1380   21.7050   37.5300 C   0  0  0  0  0  0  0  0  0  0  0  0
   40.8880   22.9230   36.8900 C   0  0  0  0  0  0  0  0  0  0  0  0
   41.6870   23.2630   35.7860 C   0  0  0  0  0  0  0  0  0  0  0  0
   42.6510   22.3950   35.4080 N   0  0  0  0  0  0  0  0  0  0  0  0
   42.8750   21.2200   36.0420 C   0  0  0  0  0  0  0  0  0  0  0  0
   42.1110   20.8800   37.1080 N   0  0  0  0  0  0  0  0  0  0  0  0
   41.4910   24.4910   35.0820 N   0  0  0  0  0  0  0  0  0  0  0  0
   40.3810   24.6730   34.3350 C   0  0  0  0  0  0  0  0  0  0  0  0
   40.5070   25.9350   33.8070 C   0  0  0  0  0  0  0  0  0  0  0  0
   41.6720   26.4750   34.2380 N   0  0  0  0  0  0  0  0  0  0  0  0
   42.2840   25.5660   35.0370 C   0  0  0  0  0  0  0  0  0  0  0  0
   39.5820   26.6020   32.9390 N   0  0  0  0  0  0  0  0  0  0  0  0
   39.7490   26.7470   31.6000 C   0  0  0  0  0  0  0  0  0  0  0  0
   38.6750   27.4290   31.1170 N   0  0  0  0  0  0  0  0  0  0  0  0
   37.8560   27.6980   32.1540 C   0  0  0  0  0  0  0  0  0  0  0  0
   36.6380   28.3510   32.2830 C   0  0  0  0  0  0  0  0  0  0  0  0
   36.0430   28.4680   33.4770 N   0  0  0  0  0  0  0  0  0  0  0  0
   36.6150   27.9520   34.5900 C   0  0  0  0  0  0  0  0  0  0  0  0
   37.8120   27.3150   34.4480 N   0  0  0  0  0  0  0  0  0  0  0  0
   38.4360   27.1780   33.2720 C   0  0  0  0  0  0  0  0  0  0  0  0
   36.0720   28.8780   31.0880 N   0  0  0  0  0  0  0  0  0  0  0  0
   40.5254   21.4163   38.3968 H   0  0  0  0  0  0  0  0  0  0  0  0
   40.0901   23.5942   37.2404 H   0  0  0  0  0  0  0  0  0  0  0  0
   43.6717   20.5460   35.6941 H   0  0  0  0  0  0  0  0  0  0  0  0
   39.5542   23.9638   34.1822 H   0  0  0  0  0  0  0  0  0  0  0  0
   43.2490   25.6898   35.5502 H   0  0  0  0  0  0  0  0  0  0  0  0
   40.6011   26.3787   31.0099 H   0  0  0  0  0  0  0  0  0  0  0  0
   36.1314   28.0433   35.5738 H   0  0  0  0  0  0  0  0  0  0  0  0
   35.1694   29.3732   31.1204 H   0  0  0  0  0  0  0  0  0  0  0  0
   36.5650   28.7642   30.1909 H   0  0  0  0  0  0  0  0  0  0  0  0
  2  1  2  0
  3  2  1  0
  4  3  2  0
  4  5  1  0
  5  6  2  0
  6  1  1  0
  7  3  1  0
  8  7  1  0
  9 10  1  0
  9  8  2  0
 10 11  2  0
 11  7  1  0
 12 20  1  0
 12  9  1  0
 13 12  1  0
 14 13  2  0
 14 15  1  0
 15 16  2  0
 15 20  1  0
 16 17  1  0
 17 18  2  0
 19 18  1  0
 20 19  2  0
 21 16  1  0
  1 22  1  0
  2 23  1  0
  5 24  1  0
  8 25  1  0
 11 26  1  0
 13 27  1  0
 18 28  1  0
 21 29  1  0
 21 30  1  0
M  ISO  7  22  14  23  14  24  14  25  14  26  14  27  14  28  14
M  END
>  <minimizedAffinity>  (1) 
-4.48286724

>  <minimizedRMSD>  (1) 
4.56215

$$$$
