
     RDKit          3D

 24 26  0  0  0  0  0  0  0  0999 V2000
   41.8690   21.3230   37.3300 C   0  0  0  0  0  0  0  0  0  0  0  0
   41.4280   22.6170   37.0080 C   0  0  0  0  0  0  0  0  0  0  0  0
   41.6340   23.0690   35.7020 C   0  0  0  0  0  0  0  0  0  0  0  0
   42.2450   22.2420   34.8140 N   0  0  0  0  0  0  0  0  0  0  0  0
   42.6550   20.9990   35.1700 C   0  0  0  0  0  0  0  0  0  0  0  0
   42.4690   20.5400   36.4220 N   0  0  0  0  0  0  0  0  0  0  0  0
   41.2130   24.3780   35.2940 N   0  0  0  0  0  0  0  0  0  0  0  0
   39.9140   24.6770   35.1690 C   0  0  0  0  0  0  0  0  0  0  0  0
   39.8750   25.9770   34.7740 C   0  0  0  0  0  0  0  0  0  0  0  0
   41.1210   26.4470   34.6640 N   0  0  0  0  0  0  0  0  0  0  0  0
   41.9900   25.4370   34.9940 C   0  0  0  0  0  0  0  0  0  0  0  0
   38.6730   26.7590   34.5040 C   0  0  0  0  0  0  0  0  0  0  0  0
   37.8940   27.4690   35.4010 C   0  0  0  0  0  0  0  0  0  0  0  0
   36.8610   28.0680   34.7780 N   0  0  0  0  0  0  0  0  0  0  0  0
   36.9650   27.7520   33.4730 C   0  0  0  0  0  0  0  0  0  0  0  0
   38.0500   26.9730   33.3370 N   0  0  0  0  0  0  0  0  0  0  0  0
   41.7186   20.9430   38.3513 H   0  0  0  0  0  0  0  0  0  0  0  0
   40.9368   23.2534   37.7589 H   0  0  0  0  0  0  0  0  0  0  0  0
   43.1467   20.3565   34.4248 H   0  0  0  0  0  0  0  0  0  0  0  0
   39.0577   24.0103   35.3484 H   0  0  0  0  0  0  0  0  0  0  0  0
   43.0889   25.4826   35.0101 H   0  0  0  0  0  0  0  0  0  0  0  0
   38.0925   27.5354   36.4809 H   0  0  0  0  0  0  0  0  0  0  0  0
   36.2871   28.0725   32.6682 H   0  0  0  0  0  0  0  0  0  0  0  0
   38.3675   26.5840   32.4377 H   0  0  0  0  0  0  0  0  0  0  0  0
  2  1  2  0
  3  2  1  0
  4  5  1  0
  4  3  2  0
  5  6  2  0
  6  1  1  0
  7  3  1  0
  8  7  1  0
  9  8  2  0
 10  9  1  0
 10 11  2  0
 11  7  1  0
 12  9  1  0
 12 13  2  0
 14 13  1  0
 15 14  2  0
 16 15  1  0
 16 12  1  0
  1 17  1  0
  2 18  1  0
  5 19  1  0
  8 20  1  0
 11 21  1  0
 13 22  1  0
 15 23  1  0
 16 24  1  0
M  ISO  8  17  14  18  14  19  14  20  14  21  14  22  14  23  14  24   9
M  END
>  <minimizedAffinity>  (1) 
-3.68127322

>  <minimizedRMSD>  (1) 
2.5104897

$$$$
