
     RDKit          3D

 32 35  0  0  0  0  0  0  0  0999 V2000
   37.8640   23.5290   38.3750 C   0  0  0  0  0  0  0  0  0  0  0  0
   37.4850   23.4410   37.0220 C   0  0  0  0  0  0  0  0  0  0  0  0
   38.4540   23.0150   36.1000 C   0  0  0  0  0  0  0  0  0  0  0  0
   39.6640   22.7260   36.5860 N   0  0  0  0  0  0  0  0  0  0  0  0
   40.0250   22.8110   37.8740 C   0  0  0  0  0  0  0  0  0  0  0  0
   39.0930   23.2210   38.7700 N   0  0  0  0  0  0  0  0  0  0  0  0
   38.1440   22.9010   34.7140 N   0  0  0  0  0  0  0  0  0  0  0  0
   37.3280   21.9410   34.2670 C   0  0  0  0  0  0  0  0  0  0  0  0
   37.2610   22.1340   32.9080 C   0  0  0  0  0  0  0  0  0  0  0  0
   38.0350   23.2010   32.5680 N   0  0  0  0  0  0  0  0  0  0  0  0
   38.5840   23.6750   33.7050 C   0  0  0  0  0  0  0  0  0  0  0  0
   39.4620   24.7890   33.8000 N   0  0  0  0  0  0  0  0  0  0  0  0
   39.2420   26.1090   33.6560 C   0  0  0  0  0  0  0  0  0  0  0  0
   40.3540   26.8230   33.8290 N   0  0  0  0  0  0  0  0  0  0  0  0
   41.3330   25.9370   34.0950 C   0  0  0  0  0  0  0  0  0  0  0  0
   42.6610   26.1050   34.3540 C   0  0  0  0  0  0  0  0  0  0  0  0
   43.4320   25.0220   34.5920 N   0  0  0  0  0  0  0  0  0  0  0  0
   42.8650   23.7930   34.5700 C   0  0  0  0  0  0  0  0  0  0  0  0
   41.5450   23.5760   34.3170 N   0  0  0  0  0  0  0  0  0  0  0  0
   40.7860   24.6630   34.0800 C   0  0  0  0  0  0  0  0  0  0  0  0
   36.5000   21.3380   32.0060 N   0  0  0  0  0  0  0  0  0  0  0  0
   43.2290   27.4210   34.3700 N   0  0  0  0  0  0  0  0  0  0  0  0
   37.1259   23.8600   39.1205 H   0  0  0  0  0  0  0  0  0  0  0  0
   36.4653   23.6971   36.6987 H   0  0  0  0  0  0  0  0  0  0  0  0
   41.0459   22.5560   38.1946 H   0  0  0  0  0  0  0  0  0  0  0  0
   36.8203   21.1650   34.8586 H   0  0  0  0  0  0  0  0  0  0  0  0
   38.2602   26.5469   33.4230 H   0  0  0  0  0  0  0  0  0  0  0  0
   43.5063   22.9214   34.7675 H   0  0  0  0  0  0  0  0  0  0  0  0
   36.5060   21.5528   30.9987 H   0  0  0  0  0  0  0  0  0  0  0  0
   35.9434   20.5472   32.3607 H   0  0  0  0  0  0  0  0  0  0  0  0
   44.2324   27.5465   34.5658 H   0  0  0  0  0  0  0  0  0  0  0  0
   42.6337   28.2411   34.1857 H   0  0  0  0  0  0  0  0  0  0  0  0
  1  6  2  0
  2  1  1  0
  3  4  1  0
  3  2  2  0
  4  5  2  0
  5  6  1  0
  7  3  1  0
  8  7  1  0
  9  8  2  0
 10  9  1  0
 10 11  2  0
 11 12  1  0
 11  7  1  0
 12 20  1  0
 13 12  1  0
 13 14  2  0
 14 15  1  0
 15 16  2  0
 16 22  1  0
 16 17  1  0
 18 17  2  0
 19 18  1  0
 20 15  1  0
 20 19  2  0
 21  9  1  0
  1 23  1  0
  2 24  1  0
  5 25  1  0
  8 26  1  0
 13 27  1  0
 18 28  1  0
 21 29  1  0
 21 30  1  0
 22 31  1  0
 22 32  1  0
M  ISO  6  23  14  24  14  25  14  26  14  27  14  28  14
M  END
>  <minimizedAffinity>  (1) 
-5.61232233

>  <minimizedRMSD>  (1) 
3.3795352

$$$$
