
     RDKit          3D

 33 36  0  0  0  0  0  0  0  0999 V2000
   40.3080   24.4810   35.1810 C   0  0  0  0  0  0  0  0  0  0  0  0
   39.6060   24.6890   33.9670 C   0  0  0  0  0  0  0  0  0  0  0  0
   38.3110   24.1440   33.8820 C   0  0  0  0  0  0  0  0  0  0  0  0
   37.8430   23.4690   34.9610 N   0  0  0  0  0  0  0  0  0  0  0  0
   38.5310   23.2870   36.0990 C   0  0  0  0  0  0  0  0  0  0  0  0
   39.7880   23.8120   36.1910 N   0  0  0  0  0  0  0  0  0  0  0  0
   37.5280   24.3090   32.7070 N   0  0  0  0  0  0  0  0  0  0  0  0
   37.0350   25.5260   32.3810 C   0  0  0  0  0  0  0  0  0  0  0  0
   36.3380   25.3190   31.2170 C   0  0  0  0  0  0  0  0  0  0  0  0
   36.4220   24.0240   30.8760 N   0  0  0  0  0  0  0  0  0  0  0  0
   37.1730   23.3780   31.8110 C   0  0  0  0  0  0  0  0  0  0  0  0
   37.4770   21.9660   31.7610 C   0  0  0  0  0  0  0  0  0  0  0  0
   38.6390   21.2580   31.5660 C   0  0  0  0  0  0  0  0  0  0  0  0
   38.4660   19.9360   31.6050 N   0  0  0  0  0  0  0  0  0  0  0  0
   37.1670   19.7080   31.8290 C   0  0  0  0  0  0  0  0  0  0  0  0
   36.4890   18.5140   31.9540 C   0  0  0  0  0  0  0  0  0  0  0  0
   35.1350   18.5690   32.1840 C   0  0  0  0  0  0  0  0  0  0  0  0
   34.4480   19.7590   32.2940 C   0  0  0  0  0  0  0  0  0  0  0  0
   35.1860   20.8980   32.1600 C   0  0  0  0  0  0  0  0  0  0  0  0
   36.5620   20.9390   31.9240 C   0  0  0  0  0  0  0  0  0  0  0  0
   35.6520   26.3350   30.4960 N   0  0  0  0  0  0  0  0  0  0  0  0
   41.3229   24.8925   35.2839 H   0  0  0  0  0  0  0  0  0  0  0  0
   40.0518   25.2492   33.1319 H   0  0  0  0  0  0  0  0  0  0  0  0
   38.0921   22.7276   36.9384 H   0  0  0  0  0  0  0  0  0  0  0  0
   37.1642   26.4717   32.9277 H   0  0  0  0  0  0  0  0  0  0  0  0
   39.6154   21.7347   31.3947 H   0  0  0  0  0  0  0  0  0  0  0  0
   39.1983   19.2217   31.4847 H   0  0  0  0  0  0  0  0  0  0  0  0
   37.0136   17.5506   31.8725 H   0  0  0  0  0  0  0  0  0  0  0  0
   34.5775   17.6260   32.2843 H   0  0  0  0  0  0  0  0  0  0  0  0
   33.3642   19.7883   32.4796 H   0  0  0  0  0  0  0  0  0  0  0  0
   34.6567   21.8586   32.2443 H   0  0  0  0  0  0  0  0  0  0  0  0
   35.1498   26.1007   29.6278 H   0  0  0  0  0  0  0  0  0  0  0  0
   35.6573   27.3051   30.8421 H   0  0  0  0  0  0  0  0  0  0  0  0
  1  6  2  0
  2  1  1  0
  3  2  2  0
  3  4  1  0
  4  5  2  0
  5  6  1  0
  7  3  1  0
  8  7  1  0
  9  8  2  0
 10  9  1  0
 10 11  2  0
 11  7  1  0
 12 11  1  0
 12 20  1  0
 13 14  1  0
 13 12  2  0
 14 15  1  0
 15 20  2  0
 15 16  1  0
 16 17  2  0
 17 18  1  0
 19 18  2  0
 20 19  1  0
 21  9  1  0
  1 22  1  0
  2 23  1  0
  5 24  1  0
  8 25  1  0
 13 26  1  0
 14 27  1  0
 16 28  1  0
 17 29  1  0
 18 30  1  0
 19 31  1  0
 21 32  1  0
 21 33  1  0
M  ISO  8  22  14  23  14  24  14  25  14  26  14  27   9  28  14  29  14
M  ISO  2  30  14  31  14
M  END
>  <minimizedAffinity>  (1) 
-5.45300579

>  <minimizedRMSD>  (1) 
6.91566849

$$$$
