
     RDKit          3D

 32 34  0  0  0  0  0  0  0  0999 V2000
   40.3440   22.3740   37.7890 C   0  0  0  0  0  0  0  0  0  0  0  0
   39.7460   23.3320   36.9670 C   0  0  0  0  0  0  0  0  0  0  0  0
   40.1390   23.3850   35.6400 C   0  0  0  0  0  0  0  0  0  0  0  0
   41.0720   22.5020   35.2500 N   0  0  0  0  0  0  0  0  0  0  0  0
   41.6560   21.5760   36.0230 C   0  0  0  0  0  0  0  0  0  0  0  0
   41.2690   21.5270   37.3230 N   0  0  0  0  0  0  0  0  0  0  0  0
   39.5840   24.3320   34.7220 N   0  0  0  0  0  0  0  0  0  0  0  0
   38.3210   24.2120   34.3050 C   0  0  0  0  0  0  0  0  0  0  0  0
   38.1500   25.2840   33.4460 C   0  0  0  0  0  0  0  0  0  0  0  0
   39.2950   26.0000   33.3770 N   0  0  0  0  0  0  0  0  0  0  0  0
   40.2050   25.4080   34.1780 C   0  0  0  0  0  0  0  0  0  0  0  0
   41.5460   25.8290   34.4060 N   0  0  0  0  0  0  0  0  0  0  0  0
   42.3180   25.0440   35.1800 C   0  0  0  0  0  0  0  0  0  0  0  0
   43.6070   25.4790   35.3800 C   0  0  0  0  0  0  0  0  0  0  0  0
   44.4890   24.6340   36.2330 C   0  0  0  0  0  0  0  0  0  0  0  0
   44.1530   26.6460   34.8500 C   0  0  0  0  0  0  0  0  0  0  0  0
   45.3150   27.0250   35.0380 O   0  0  0  0  0  0  0  0  0  0  0  0
   43.2570   27.3360   34.0890 N   0  0  0  0  0  0  0  0  0  0  0  0
   41.9830   26.9740   33.8500 C   0  0  0  0  0  0  0  0  0  0  0  0
   41.2430   27.6910   33.1300 O   0  0  0  0  0  0  0  0  0  0  0  0
   36.9220   25.5520   32.7610 N   0  0  0  0  0  0  0  0  0  0  0  0
   40.0469   22.3144   38.8464 H   0  0  0  0  0  0  0  0  0  0  0  0
   38.9864   24.0230   37.3614 H   0  0  0  0  0  0  0  0  0  0  0  0
   42.4143   20.8872   35.6222 H   0  0  0  0  0  0  0  0  0  0  0  0
   37.5869   23.4404   34.5802 H   0  0  0  0  0  0  0  0  0  0  0  0
   41.9409   24.1115   35.6253 H   0  0  0  0  0  0  0  0  0  0  0  0
   44.2773   24.8368   37.2932 H   0  0  0  0  0  0  0  0  0  0  0  0
   44.2991   23.5721   36.0178 H   0  0  0  0  0  0  0  0  0  0  0  0
   45.5418   24.8692   36.0178 H   0  0  0  0  0  0  0  0  0  0  0  0
   43.5842   28.2126   33.6585 H   0  0  0  0  0  0  0  0  0  0  0  0
   36.8497   26.3648   32.1325 H   0  0  0  0  0  0  0  0  0  0  0  0
   36.1107   24.9321   32.8966 H   0  0  0  0  0  0  0  0  0  0  0  0
  2  1  2  0
  3  2  1  0
  4  3  2  0
  4  5  1  0
  5  6  2  0
  6  1  1  0
  7  3  1  0
  8  7  1  0
  9  8  2  0
 10  9  1  0
 10 11  2  0
 11 12  1  0
 11  7  1  0
 12 13  1  0
 13 14  2  0
 14 15  1  0
 16 17  2  0
 16 14  1  0
 18 16  1  0
 19 18  1  0
 19 12  1  0
 20 19  2  0
 21  9  1  0
  1 22  1  0
  2 23  1  0
  5 24  1  0
  8 25  1  0
 13 26  1  0
 15 27  1  0
 15 28  1  0
 15 29  1  0
 18 30  1  0
 21 31  1  0
 21 32  1  0
M  ISO  8  22  14  23  14  24  14  25  14  26  14  27   8  28   8  29   8
M  ISO  1  30   9
M  END
>  <minimizedAffinity>  (1) 
-5.23703957

>  <minimizedRMSD>  (1) 
1.10252368

$$$$
