
     RDKit          3D

 35 38  0  0  0  0  0  0  0  0999 V2000
   41.2020   21.7940   37.4410 C   0  0  0  0  0  0  0  0  0  0  0  0
   41.4490   23.0290   36.7870 C   0  0  0  0  0  0  0  0  0  0  0  0
   42.6690   23.1060   36.0960 C   0  0  0  0  0  0  0  0  0  0  0  0
   43.4970   22.0270   36.1030 N   0  0  0  0  0  0  0  0  0  0  0  0
   43.2330   20.8730   36.7330 C   0  0  0  0  0  0  0  0  0  0  0  0
   42.0520   20.7740   37.4120 N   0  0  0  0  0  0  0  0  0  0  0  0
   43.0400   24.3150   35.4030 N   0  0  0  0  0  0  0  0  0  0  0  0
   42.3780   24.6580   34.2780 C   0  0  0  0  0  0  0  0  0  0  0  0
   42.9570   25.8160   33.8550 C   0  0  0  0  0  0  0  0  0  0  0  0
   43.9240   26.1290   34.7100 N   0  0  0  0  0  0  0  0  0  0  0  0
   44.0060   25.1990   35.7080 C   0  0  0  0  0  0  0  0  0  0  0  0
   44.9290   25.1540   36.8170 C   0  0  0  0  0  0  0  0  0  0  0  0
   44.6940   25.7260   38.0480 C   0  0  0  0  0  0  0  0  0  0  0  0
   45.5260   25.6860   39.1420 C   0  0  0  0  0  0  0  0  0  0  0  0
   46.7290   25.0200   39.0520 C   0  0  0  0  0  0  0  0  0  0  0  0
   47.0330   24.4280   37.8630 C   0  0  0  0  0  0  0  0  0  0  0  0
   48.2350   23.7600   37.7970 C   0  0  0  0  0  0  0  0  0  0  0  0
   48.6220   23.1250   36.6400 C   0  0  0  0  0  0  0  0  0  0  0  0
   47.7750   23.1720   35.5530 C   0  0  0  0  0  0  0  0  0  0  0  0
   46.5880   23.8550   35.6830 C   0  0  0  0  0  0  0  0  0  0  0  0
   46.1470   24.5090   36.8100 C   0  0  0  0  0  0  0  0  0  0  0  0
   42.5900   26.5690   32.7200 N   0  0  0  0  0  0  0  0  0  0  0  0
   40.2613   21.6759   37.9988 H   0  0  0  0  0  0  0  0  0  0  0  0
   40.7359   23.8659   36.8191 H   0  0  0  0  0  0  0  0  0  0  0  0
   43.9439   20.0341   36.7039 H   0  0  0  0  0  0  0  0  0  0  0  0
   41.5465   24.1167   33.8030 H   0  0  0  0  0  0  0  0  0  0  0  0
   43.7452   26.2695   38.1678 H   0  0  0  0  0  0  0  0  0  0  0  0
   45.2341   26.1809   40.0800 H   0  0  0  0  0  0  0  0  0  0  0  0
   47.4180   24.9682   39.9079 H   0  0  0  0  0  0  0  0  0  0  0  0
   48.8925   23.7339   38.6785 H   0  0  0  0  0  0  0  0  0  0  0  0
   49.5831   22.5930   36.5833 H   0  0  0  0  0  0  0  0  0  0  0  0
   48.0412   22.6768   34.6075 H   0  0  0  0  0  0  0  0  0  0  0  0
   45.9292   23.8806   34.8025 H   0  0  0  0  0  0  0  0  0  0  0  0
   43.0980   27.4351   32.4903 H   0  0  0  0  0  0  0  0  0  0  0  0
   41.8141   26.2527   32.1210 H   0  0  0  0  0  0  0  0  0  0  0  0
  2  1  2  0
  3  4  2  0
  3  2  1  0
  4  5  1  0
  5  6  2  0
  6  1  1  0
  7 11  1  0
  7  3  1  0
  8  7  1  0
  9  8  2  0
  9 10  1  0
 10 11  2  0
 11 12  1  0
 12 13  2  0
 13 14  1  0
 15 14  2  0
 16 15  1  0
 17 16  2  0
 18 17  1  0
 19 20  1  0
 19 18  2  0
 20 21  2  0
 21 12  1  0
 21 16  1  0
 22  9  1  0
  1 23  1  0
  2 24  1  0
  5 25  1  0
  8 26  1  0
 13 27  1  0
 14 28  1  0
 15 29  1  0
 17 30  1  0
 18 31  1  0
 19 32  1  0
 20 33  1  0
 22 34  1  0
 22 35  1  0
M  ISO  8  23  14  24  14  25  14  26  14  27  14  28  14  29  14  30  14
M  ISO  3  31  14  32  14  33  14
M  END
>  <minimizedAffinity>  (1) 
-5.51124811

>  <minimizedRMSD>  (1) 
4.96910095

$$$$
