
     RDKit          3D

 26 28  0  0  0  0  0  0  0  0999 V2000
   37.8110   23.5280   38.3500 C   0  0  0  0  0  0  0  0  0  0  0  0
   37.5020   23.5130   36.9880 C   0  0  0  0  0  0  0  0  0  0  0  0
   38.5140   23.1510   36.0910 C   0  0  0  0  0  0  0  0  0  0  0  0
   39.7070   22.8450   36.6100 N   0  0  0  0  0  0  0  0  0  0  0  0
   40.0180   22.8550   37.9130 C   0  0  0  0  0  0  0  0  0  0  0  0
   39.0190   23.2120   38.7900 N   0  0  0  0  0  0  0  0  0  0  0  0
   38.2730   23.1140   34.6820 N   0  0  0  0  0  0  0  0  0  0  0  0
   37.4790   22.1860   34.1510 C   0  0  0  0  0  0  0  0  0  0  0  0
   37.4860   22.4660   32.7960 C   0  0  0  0  0  0  0  0  0  0  0  0
   38.2680   23.5310   32.5560 N   0  0  0  0  0  0  0  0  0  0  0  0
   38.7780   23.9590   33.7390 C   0  0  0  0  0  0  0  0  0  0  0  0
   39.6600   25.0570   33.9870 N   0  0  0  0  0  0  0  0  0  0  0  0
   40.8640   24.7940   34.5450 C   0  0  0  0  0  0  0  0  0  0  0  0
   41.4860   26.0390   34.6620 C   0  0  0  0  0  0  0  0  0  0  0  0
   40.6830   26.9860   34.1940 N   0  0  0  0  0  0  0  0  0  0  0  0
   39.5620   26.3870   33.7800 C   0  0  0  0  0  0  0  0  0  0  0  0
   36.7530   21.7090   31.8240 N   0  0  0  0  0  0  0  0  0  0  0  0
   37.0322   23.8090   39.0742 H   0  0  0  0  0  0  0  0  0  0  0  0
   36.4955   23.7772   36.6315 H   0  0  0  0  0  0  0  0  0  0  0  0
   41.0256   22.5900   38.2659 H   0  0  0  0  0  0  0  0  0  0  0  0
   36.9403   21.3803   34.6712 H   0  0  0  0  0  0  0  0  0  0  0  0
   41.2654   23.8138   34.8417 H   0  0  0  0  0  0  0  0  0  0  0  0
   42.4896   26.2088   35.0790 H   0  0  0  0  0  0  0  0  0  0  0  0
   38.6940   26.8989   33.3389 H   0  0  0  0  0  0  0  0  0  0  0  0
   36.7990   21.9679   30.8281 H   0  0  0  0  0  0  0  0  0  0  0  0
   36.1803   20.9062   32.1215 H   0  0  0  0  0  0  0  0  0  0  0  0
  1  6  2  0
  2  1  1  0
  3  4  1  0
  3  2  2  0
  4  5  2  0
  5  6  1  0
  7  3  1  0
  8  7  1  0
  9  8  2  0
 10  9  1  0
 10 11  2  0
 11 12  1  0
 11  7  1  0
 12 13  1  0
 13 14  2  0
 15 14  1  0
 16 12  1  0
 16 15  2  0
 17  9  1  0
  1 18  1  0
  2 19  1  0
  5 20  1  0
  8 21  1  0
 13 22  1  0
 14 23  1  0
 16 24  1  0
 17 25  1  0
 17 26  1  0
M  ISO  7  18  14  19  14  20  14  21  14  22  14  23  14  24  14
M  END
>  <minimizedAffinity>  (1) 
-4.5159564

>  <minimizedRMSD>  (1) 
3.39317083

$$$$
