
     RDKit          3D

 24 26  0  0  0  0  0  0  0  0999 V2000
   37.7840   23.3960   38.4230 C   0  0  0  0  0  0  0  0  0  0  0  0
   37.4530   23.3970   37.0630 C   0  0  0  0  0  0  0  0  0  0  0  0
   38.4500   23.1360   36.1380 C   0  0  0  0  0  0  0  0  0  0  0  0
   39.6690   22.9000   36.6340 N   0  0  0  0  0  0  0  0  0  0  0  0
   40.0150   22.8940   37.9220 C   0  0  0  0  0  0  0  0  0  0  0  0
   39.0220   23.1530   38.8240 N   0  0  0  0  0  0  0  0  0  0  0  0
   38.1930   23.1170   34.7340 N   0  0  0  0  0  0  0  0  0  0  0  0
   37.4640   22.1380   34.1800 C   0  0  0  0  0  0  0  0  0  0  0  0
   37.4240   22.4370   32.8420 C   0  0  0  0  0  0  0  0  0  0  0  0
   38.1210   23.5750   32.6210 N   0  0  0  0  0  0  0  0  0  0  0  0
   38.6090   24.0100   33.8050 C   0  0  0  0  0  0  0  0  0  0  0  0
   39.4200   25.1780   34.1320 C   0  0  0  0  0  0  0  0  0  0  0  0
   39.0260   26.4060   34.5420 N   0  0  0  0  0  0  0  0  0  0  0  0
   40.1040   27.1460   34.7190 O   0  0  0  0  0  0  0  0  0  0  0  0
   41.1540   26.4360   34.4370 C   0  0  0  0  0  0  0  0  0  0  0  0
   40.7830   25.1840   34.0600 N   0  0  0  0  0  0  0  0  0  0  0  0
   36.7600   21.6730   31.8560 N   0  0  0  0  0  0  0  0  0  0  0  0
   37.0032   23.6003   39.1703 H   0  0  0  0  0  0  0  0  0  0  0  0
   36.4227   23.6008   36.7359 H   0  0  0  0  0  0  0  0  0  0  0  0
   41.0476   22.6908   38.2419 H   0  0  0  0  0  0  0  0  0  0  0  0
   36.9987   21.2806   34.6883 H   0  0  0  0  0  0  0  0  0  0  0  0
   42.1921   26.7953   34.4948 H   0  0  0  0  0  0  0  0  0  0  0  0
   36.7819   21.9728   30.8709 H   0  0  0  0  0  0  0  0  0  0  0  0
   36.2541   20.8163   32.1224 H   0  0  0  0  0  0  0  0  0  0  0  0
  1  6  2  0
  2  1  1  0
  3  4  1  0
  3  2  2  0
  4  5  2  0
  5  6  1  0
  7  3  1  0
  8  7  1  0
  9  8  2  0
 10  9  1  0
 10 11  2  0
 11 12  1  0
 11  7  1  0
 12 13  2  0
 13 14  1  0
 15 14  1  0
 16 12  1  0
 16 15  2  0
 17  9  1  0
  1 18  1  0
  2 19  1  0
  5 20  1  0
  8 21  1  0
 15 22  1  0
 17 23  1  0
 17 24  1  0
M  ISO  5  18  14  19  14  20  14  21  14  22  14
M  END
>  <minimizedAffinity>  (1) 
-4.25063848

>  <minimizedRMSD>  (1) 
3.46973705

$$$$
