
     RDKit          3D

 32 34  0  0  0  0  0  0  0  0999 V2000
   37.8640   24.0920   38.2380 C   0  0  0  0  0  0  0  0  0  0  0  0
   37.7050   24.1860   36.8420 C   0  0  0  0  0  0  0  0  0  0  0  0
   38.6790   23.5670   36.0380 C   0  0  0  0  0  0  0  0  0  0  0  0
   39.6940   22.9290   36.6670 N   0  0  0  0  0  0  0  0  0  0  0  0
   39.8210   22.8540   38.0020 C   0  0  0  0  0  0  0  0  0  0  0  0
   38.8750   23.4550   38.7880 N   0  0  0  0  0  0  0  0  0  0  0  0
   38.5990   23.6100   34.6180 N   0  0  0  0  0  0  0  0  0  0  0  0
   37.6500   22.9330   33.9660 C   0  0  0  0  0  0  0  0  0  0  0  0
   37.8580   23.1890   32.6400 C   0  0  0  0  0  0  0  0  0  0  0  0
   38.9330   24.0190   32.5180 N   0  0  0  0  0  0  0  0  0  0  0  0
   39.3870   24.2760   33.7570 C   0  0  0  0  0  0  0  0  0  0  0  0
   40.5450   25.1370   34.0930 C   0  0  0  0  0  0  0  0  0  0  0  0
   41.6260   25.0930   33.0190 C   0  0  0  0  0  0  0  0  0  0  0  0
   42.0390   26.5250   32.7690 C   0  0  0  0  0  0  0  0  0  0  0  0
   41.4510   27.3180   33.8980 C   0  0  0  0  0  0  0  0  0  0  0  0
   40.1680   26.6110   34.1970 C   0  0  0  0  0  0  0  0  0  0  0  0
   37.0600   22.6580   31.5760 N   0  0  0  0  0  0  0  0  0  0  0  0
   37.1173   24.5675   38.8909 H   0  0  0  0  0  0  0  0  0  0  0  0
   36.8532   24.7221   36.3981 H   0  0  0  0  0  0  0  0  0  0  0  0
   40.6691   22.3198   38.4552 H   0  0  0  0  0  0  0  0  0  0  0  0
   36.8643   22.3008   34.4052 H   0  0  0  0  0  0  0  0  0  0  0  0
   40.9013   24.7396   35.0549 H   0  0  0  0  0  0  0  0  0  0  0  0
   42.4868   24.5047   33.3697 H   0  0  0  0  0  0  0  0  0  0  0  0
   41.2541   24.6192   32.0986 H   0  0  0  0  0  0  0  0  0  0  0  0
   43.1354   26.6137   32.7678 H   0  0  0  0  0  0  0  0  0  0  0  0
   41.6858   26.8855   31.7916 H   0  0  0  0  0  0  0  0  0  0  0  0
   42.1175   27.3082   34.7731 H   0  0  0  0  0  0  0  0  0  0  0  0
   41.3044   28.3780   33.6434 H   0  0  0  0  0  0  0  0  0  0  0  0
   39.3936   26.8722   33.4607 H   0  0  0  0  0  0  0  0  0  0  0  0
   39.7481   26.8790   35.1778 H   0  0  0  0  0  0  0  0  0  0  0  0
   37.2797   22.8974   30.5986 H   0  0  0  0  0  0  0  0  0  0  0  0
   36.2663   22.0367   31.7881 H   0  0  0  0  0  0  0  0  0  0  0  0
  1  6  2  0
  2  1  1  0
  3  4  1  0
  3  2  2  0
  4  5  2  0
  5  6  1  0
  7  3  1  0
  8  7  1  0
  9  8  2  0
 10  9  1  0
 10 11  2  0
 11 12  1  0
 11  7  1  0
 12 16  1  0
 13 12  1  0
 14 13  1  0
 14 15  1  0
 15 16  1  0
 17  9  1  0
  1 18  1  0
  2 19  1  0
  5 20  1  0
  8 21  1  0
 12 22  1  0
 13 23  1  0
 13 24  1  0
 14 25  1  0
 14 26  1  0
 15 27  1  0
 15 28  1  0
 16 29  1  0
 16 30  1  0
 17 31  1  0
 17 32  1  0
M  ISO  8  18  14  19  14  20  14  21  14  22  13  23  13  24  13  25  13
M  ISO  5  26  13  27  13  28  13  29  13  30  13
M  END
>  <minimizedAffinity>  (1) 
-4.24775934

>  <minimizedRMSD>  (1) 
2.99197149

$$$$
