
     RDKit          3D

 26 27  0  0  0  0  0  0  0  0999 V2000
   40.8750   22.0050   37.4060 C   0  0  0  0  0  0  0  0  0  0  0  0
   40.2790   23.2140   37.0410 C   0  0  0  0  0  0  0  0  0  0  0  0
   40.4310   23.6640   35.7390 C   0  0  0  0  0  0  0  0  0  0  0  0
   41.1600   22.8870   34.9010 N   0  0  0  0  0  0  0  0  0  0  0  0
   41.7340   21.7250   35.2430 C   0  0  0  0  0  0  0  0  0  0  0  0
   41.5780   21.2930   36.5220 N   0  0  0  0  0  0  0  0  0  0  0  0
   39.8460   24.8990   35.2830 N   0  0  0  0  0  0  0  0  0  0  0  0
   38.5150   24.9830   35.1480 C   0  0  0  0  0  0  0  0  0  0  0  0
   38.3050   26.2690   34.7030 C   0  0  0  0  0  0  0  0  0  0  0  0
   39.5080   26.9000   34.5900 N   0  0  0  0  0  0  0  0  0  0  0  0
   40.4750   26.0390   34.9530 C   0  0  0  0  0  0  0  0  0  0  0  0
   41.8640   26.1880   35.0110 N   0  0  0  0  0  0  0  0  0  0  0  0
   42.5250   26.8230   33.9260 C   0  0  0  0  0  0  0  0  0  0  0  0
   42.0190   27.8090   33.2740 N   0  0  0  0  0  0  0  0  0  0  0  0
   43.8220   26.4000   33.4830 N   0  0  0  0  0  0  0  0  0  0  0  0
   41.0820   28.1550   33.5560 H   0  0  0  0  0  0  0  0  0  0  0  0
   37.0270   26.8360   34.4140 N   0  0  0  0  0  0  0  0  0  0  0  0
   40.7638   21.6343   38.4357 H   0  0  0  0  0  0  0  0  0  0  0  0
   39.7004   23.7975   37.7723 H   0  0  0  0  0  0  0  0  0  0  0  0
   42.3123   21.1403   34.5124 H   0  0  0  0  0  0  0  0  0  0  0  0
   37.7639   24.2043   35.3468 H   0  0  0  0  0  0  0  0  0  0  0  0
   42.3965   25.8447   35.8231 H   0  0  0  0  0  0  0  0  0  0  0  0
   44.2780   26.8789   32.6933 H   0  0  0  0  0  0  0  0  0  0  0  0
   44.2974   25.6174   33.9546 H   0  0  0  0  0  0  0  0  0  0  0  0
   36.9581   27.8093   34.0842 H   0  0  0  0  0  0  0  0  0  0  0  0
   36.1739   26.2717   34.5353 H   0  0  0  0  0  0  0  0  0  0  0  0
  2  1  2  0
  3  2  1  0
  4  5  1  0
  4  3  2  0
  5  6  2  0
  6  1  1  0
  7  3  1  0
  8  7  1  0
  9  8  2  0
 10  9  1  0
 10 11  2  0
 11 12  1  0
 11  7  1  0
 13 12  1  0
 14 16  1  0
 14 13  2  0
 15 13  1  0
 17  9  1  0
  1 18  1  0
  2 19  1  0
  5 20  1  0
  8 21  1  0
 12 22  1  0
 15 23  1  0
 15 24  1  0
 17 25  1  0
 17 26  1  0
M  ISO  4  18  14  19  14  20  14  21  14
M  END
>  <minimizedAffinity>  (1) 
-4.11887741

>  <minimizedRMSD>  (1) 
0.22470589

$$$$
