
     RDKit          3D

 16 16  0  0  0  0  0  0  0  0999 V2000
   38.2080   24.1460   37.0070 C   0  0  0  0  0  0  0  0  0  0  0  0
   38.2610   23.1020   36.0690 C   0  0  0  0  0  0  0  0  0  0  0  0
   38.1800   23.4590   34.6990 C   0  0  0  0  0  0  0  0  0  0  0  0
   38.0590   24.7670   34.3920 N   0  0  0  0  0  0  0  0  0  0  0  0
   38.0130   25.7390   35.3380 C   0  0  0  0  0  0  0  0  0  0  0  0
   38.0870   25.4380   36.6400 N   0  0  0  0  0  0  0  0  0  0  0  0
   38.2900   23.8100   38.4770 C   0  0  0  0  0  0  0  0  0  0  0  0
   39.5490   23.3410   38.8190 F   0  0  0  0  0  0  0  0  0  0  0  0
   38.0450   24.9400   39.2220 F   0  0  0  0  0  0  0  0  0  0  0  0
   37.3170   22.8620   38.7680 F   0  0  0  0  0  0  0  0  0  0  0  0
   37.8790   27.1430   34.8810 C   0  0  0  0  0  0  0  0  0  0  0  0
   38.3910   27.3280   33.5980 F   0  0  0  0  0  0  0  0  0  0  0  0
   38.5360   27.9450   35.7950 F   0  0  0  0  0  0  0  0  0  0  0  0
   36.5180   27.4670   34.9030 F   0  0  0  0  0  0  0  0  0  0  0  0
   38.3610   22.0527   36.3835 H   0  0  0  0  0  0  0  0  0  0  0  0
   38.2148   22.6927   33.9106 H   0  0  0  0  0  0  0  0  0  0  0  0
  1  7  1  0
  2  1  2  0
  3  2  1  0
  4  3  2  0
  4  5  1  0
  5  6  2  0
  6  1  1  0
  7 10  1  0
  7  8  1  0
  7  9  1  0
 11 14  1  0
 11  5  1  0
 11 13  1  0
 12 11  1  0
  2 15  1  0
  3 16  1  0
M  ISO  2  15  14  16  14
M  END
>  <minimizedAffinity>  (1) 
-4.8349371

>  <minimizedRMSD>  (1) 
0.40032813

$$$$
