
     RDKit          3D

 47 49  0  0  0  0  0  0  0  0999 V2000
   38.1170   23.8200   34.6760 N   0  0  0  0  0  0  0  0  0  0  0  0
   37.8010   22.7770   33.9120 C   0  0  0  0  0  0  0  0  0  0  0  0
   37.5660   23.3020   32.6710 C   0  0  0  0  0  0  0  0  0  0  0  0
   37.7400   24.6220   32.7090 N   0  0  0  0  0  0  0  0  0  0  0  0
   38.0940   24.9870   33.9810 C   0  0  0  0  0  0  0  0  0  0  0  0
   37.9410   23.8900   38.3950 C   0  0  0  0  0  0  0  0  0  0  0  0
   37.5380   24.1100   37.0570 C   0  0  0  0  0  0  0  0  0  0  0  0
   38.4230   23.6440   36.0520 C   0  0  0  0  0  0  0  0  0  0  0  0
   39.5170   23.0590   36.4910 N   0  0  0  0  0  0  0  0  0  0  0  0
   39.9360   22.8300   37.7270 C   0  0  0  0  0  0  0  0  0  0  0  0
   39.0940   23.2740   38.7010 N   0  0  0  0  0  0  0  0  0  0  0  0
   37.1910   22.5600   31.5300 N   0  0  0  0  0  0  0  0  0  0  0  0
   38.3630   26.3640   34.3760 C   0  0  0  0  0  0  0  0  0  0  0  0
   37.1430   26.9960   35.0560 C   0  0  0  0  0  0  0  0  0  0  0  0
   38.4630   27.2150   33.0840 C   0  0  0  0  0  0  0  0  0  0  0  0
   39.5850   26.6520   35.1310 C   0  0  0  0  0  0  0  0  0  0  0  0
   40.8560   26.8800   34.3600 C   0  0  0  0  0  0  0  0  0  0  0  0
   41.9180   25.8350   34.7620 C   0  0  0  0  0  0  0  0  0  0  0  0
   41.6530   24.4950   34.1310 C   0  0  0  0  0  0  0  0  0  0  0  0
   42.0940   24.6300   32.6700 C   0  0  0  0  0  0  0  0  0  0  0  0
   41.9260   26.0700   32.2490 C   0  0  0  0  0  0  0  0  0  0  0  0
   40.6860   26.7070   32.8520 C   0  0  0  0  0  0  0  0  0  0  0  0
   37.7416   21.7208   34.2135 H   0  0  0  0  0  0  0  0  0  0  0  0
   37.2888   24.2347   39.2109 H   0  0  0  0  0  0  0  0  0  0  0  0
   36.5919   24.6139   36.8103 H   0  0  0  0  0  0  0  0  0  0  0  0
   40.8865   22.3226   37.9484 H   0  0  0  0  0  0  0  0  0  0  0  0
   37.0794   21.5381   31.5940 H   0  0  0  0  0  0  0  0  0  0  0  0
   37.0290   23.0406   30.6335 H   0  0  0  0  0  0  0  0  0  0  0  0
   37.2597   26.9356   36.1481 H   0  0  0  0  0  0  0  0  0  0  0  0
   37.0601   28.0504   34.7539 H   0  0  0  0  0  0  0  0  0  0  0  0
   36.2338   26.4555   34.7539 H   0  0  0  0  0  0  0  0  0  0  0  0
   38.5875   28.2747   33.3516 H   0  0  0  0  0  0  0  0  0  0  0  0
   39.3282   26.8823   32.4918 H   0  0  0  0  0  0  0  0  0  0  0  0
   37.5442   27.0919   32.4918 H   0  0  0  0  0  0  0  0  0  0  0  0
   39.3961   27.5583   35.7251 H   0  0  0  0  0  0  0  0  0  0  0  0
   39.7745   25.7337   35.7062 H   0  0  0  0  0  0  0  0  0  0  0  0
   41.1503   27.9135   34.5950 H   0  0  0  0  0  0  0  0  0  0  0  0
   42.9074   26.1909   34.4389 H   0  0  0  0  0  0  0  0  0  0  0  0
   41.8786   25.7114   35.8543 H   0  0  0  0  0  0  0  0  0  0  0  0
   42.2358   23.7110   34.6366 H   0  0  0  0  0  0  0  0  0  0  0  0
   40.5932   24.2114   34.2105 H   0  0  0  0  0  0  0  0  0  0  0  0
   43.1494   24.3358   32.5725 H   0  0  0  0  0  0  0  0  0  0  0  0
   41.4823   23.9769   32.0302 H   0  0  0  0  0  0  0  0  0  0  0  0
   42.8095   26.6388   32.5743 H   0  0  0  0  0  0  0  0  0  0  0  0
   41.8156   26.0895   31.1547 H   0  0  0  0  0  0  0  0  0  0  0  0
   40.5235   27.6921   32.3902 H   0  0  0  0  0  0  0  0  0  0  0  0
   39.8214   26.0537   32.6630 H   0  0  0  0  0  0  0  0  0  0  0  0
  1  8  1  0
  2  1  1  0
  3  4  1  0
  3  2  2  0
  4  5  2  0
  5 13  1  0
  5  1  1  0
  6 11  2  0
  7  6  1  0
  8  9  1  0
  8  7  2  0
  9 10  2  0
 10 11  1  0
 12  3  1  0
 13 14  1  0
 13 16  1  0
 15 13  1  0
 17 18  1  0
 17 16  1  0
 19 18  1  0
 20 19  1  0
 21 20  1  0
 21 22  1  0
 22 17  1  0
  2 23  1  0
  6 24  1  0
  7 25  1  0
 10 26  1  0
 12 27  1  0
 12 28  1  0
 14 29  1  0
 14 30  1  0
 14 31  1  0
 15 32  1  0
 15 33  1  0
 15 34  1  0
 16 35  1  0
 16 36  1  0
 17 37  1  0
 18 38  1  0
 18 39  1  0
 19 40  1  0
 19 41  1  0
 20 42  1  0
 20 43  1  0
 21 44  1  0
 21 45  1  0
 22 46  1  0
 22 47  1  0
M  ISO  8  23  14  24  14  25  14  26  14  29   8  30   8  31   8  32   8
M  ISO  8  33   8  34   8  35   8  36   8  37  13  38  13  39  13  40  13
M  ISO  7  41  13  42  13  43  13  44  13  45  13  46  13  47  13
M  END
>  <minimizedAffinity>  (1) 
-5.15806437

>  <minimizedRMSD>  (1) 
1.43065596

$$$$
