
     RDKit          3D

 39 41  0  0  0  0  0  0  0  0999 V2000
   38.3830   26.3640   34.3920 C   0  0  0  0  0  0  0  0  0  0  0  0
   38.1250   23.8280   34.7240 N   0  0  0  0  0  0  0  0  0  0  0  0
   37.8280   22.7710   33.9670 C   0  0  0  0  0  0  0  0  0  0  0  0
   37.6300   23.2790   32.7150 C   0  0  0  0  0  0  0  0  0  0  0  0
   37.8090   24.6150   32.7420 N   0  0  0  0  0  0  0  0  0  0  0  0
   38.1280   24.9770   34.0340 C   0  0  0  0  0  0  0  0  0  0  0  0
   37.8600   23.9500   38.4410 C   0  0  0  0  0  0  0  0  0  0  0  0
   37.4940   24.1640   37.0870 C   0  0  0  0  0  0  0  0  0  0  0  0
   38.3980   23.6660   36.1190 C   0  0  0  0  0  0  0  0  0  0  0  0
   39.4890   23.0530   36.5610 N   0  0  0  0  0  0  0  0  0  0  0  0
   39.8490   22.8450   37.8300 C   0  0  0  0  0  0  0  0  0  0  0  0
   38.9980   23.3130   38.7840 N   0  0  0  0  0  0  0  0  0  0  0  0
   37.2880   22.5340   31.5540 N   0  0  0  0  0  0  0  0  0  0  0  0
   37.1230   27.0320   34.9280 C   0  0  0  0  0  0  0  0  0  0  0  0
   38.6740   27.1780   33.1120 C   0  0  0  0  0  0  0  0  0  0  0  0
   39.5390   26.6400   35.2870 C   0  0  0  0  0  0  0  0  0  0  0  0
   40.8230   26.4590   34.5690 C   0  0  0  0  0  0  0  0  0  0  0  0
   41.4870   27.3310   33.7280 C   0  0  0  0  0  0  0  0  0  0  0  0
   42.6900   26.9300   33.1680 C   0  0  0  0  0  0  0  0  0  0  0  0
   43.1980   25.7160   33.4410 N   0  0  0  0  0  0  0  0  0  0  0  0
   42.5450   24.8720   34.2620 C   0  0  0  0  0  0  0  0  0  0  0  0
   41.3640   25.2380   34.8250 N   0  0  0  0  0  0  0  0  0  0  0  0
   37.7578   21.7195   34.2823 H   0  0  0  0  0  0  0  0  0  0  0  0
   37.1940   24.3155   39.2366 H   0  0  0  0  0  0  0  0  0  0  0  0
   36.5660   24.6842   36.8074 H   0  0  0  0  0  0  0  0  0  0  0  0
   40.7822   22.3240   38.0903 H   0  0  0  0  0  0  0  0  0  0  0  0
   37.1682   21.5128   31.6142 H   0  0  0  0  0  0  0  0  0  0  0  0
   37.1599   23.0153   30.6524 H   0  0  0  0  0  0  0  0  0  0  0  0
   37.1421   27.0219   36.0278 H   0  0  0  0  0  0  0  0  0  0  0  0
   37.0793   28.0717   34.5716 H   0  0  0  0  0  0  0  0  0  0  0  0
   36.2379   26.4847   34.5716 H   0  0  0  0  0  0  0  0  0  0  0  0
   39.0324   28.1805   33.3886 H   0  0  0  0  0  0  0  0  0  0  0  0
   39.4441   26.6643   32.5179 H   0  0  0  0  0  0  0  0  0  0  0  0
   37.7527   27.2689   32.5179 H   0  0  0  0  0  0  0  0  0  0  0  0
   39.4731   27.6762   35.6502 H   0  0  0  0  0  0  0  0  0  0  0  0
   39.5062   25.9331   36.1292 H   0  0  0  0  0  0  0  0  0  0  0  0
   41.0692   28.3243   33.5070 H   0  0  0  0  0  0  0  0  0  0  0  0
   43.2328   27.6103   32.4953 H   0  0  0  0  0  0  0  0  0  0  0  0
   42.9700   23.8807   34.4781 H   0  0  0  0  0  0  0  0  0  0  0  0
  1 14  1  0
  1 16  1  0
  2  9  1  0
  3  2  1  0
  4  5  1  0
  4  3  2  0
  5  6  2  0
  6  1  1  0
  6  2  1  0
  7 12  2  0
  8  7  1  0
  9 10  1  0
  9  8  2  0
 10 11  2  0
 11 12  1  0
 13  4  1  0
 15  1  1  0
 17 22  1  0
 17 16  1  0
 18 17  2  0
 19 20  2  0
 19 18  1  0
 20 21  1  0
 21 22  2  0
  3 23  1  0
  7 24  1  0
  8 25  1  0
 11 26  1  0
 13 27  1  0
 13 28  1  0
 14 29  1  0
 14 30  1  0
 14 31  1  0
 15 32  1  0
 15 33  1  0
 15 34  1  0
 16 35  1  0
 16 36  1  0
 18 37  1  0
 19 38  1  0
 21 39  1  0
M  ISO  8  23  14  24  14  25  14  26  14  29   8  30   8  31   8  32   8
M  ISO  7  33   8  34   8  35   8  36   8  37  14  38  14  39  14
M  END
>  <minimizedAffinity>  (1) 
-5.15634203

>  <minimizedRMSD>  (1) 
1.62057304

$$$$
