
     RDKit          3D

 36 38  0  0  0  0  0  0  0  0999 V2000
   38.1270   23.8300   34.7140 N   0  0  0  0  0  0  0  0  0  0  0  0
   37.8510   22.7730   33.9460 C   0  0  0  0  0  0  0  0  0  0  0  0
   37.6160   23.3010   32.7010 C   0  0  0  0  0  0  0  0  0  0  0  0
   37.7540   24.6360   32.7490 N   0  0  0  0  0  0  0  0  0  0  0  0
   38.0840   25.0000   34.0380 C   0  0  0  0  0  0  0  0  0  0  0  0
   37.8860   23.9150   38.4280 C   0  0  0  0  0  0  0  0  0  0  0  0
   37.5140   24.1130   37.0840 C   0  0  0  0  0  0  0  0  0  0  0  0
   38.4220   23.6680   36.0910 C   0  0  0  0  0  0  0  0  0  0  0  0
   39.5290   23.1090   36.5450 N   0  0  0  0  0  0  0  0  0  0  0  0
   39.9150   22.9030   37.8000 C   0  0  0  0  0  0  0  0  0  0  0  0
   39.0530   23.3270   38.7560 N   0  0  0  0  0  0  0  0  0  0  0  0
   37.2710   22.5530   31.5570 N   0  0  0  0  0  0  0  0  0  0  0  0
   38.2970   26.3940   34.4000 C   0  0  0  0  0  0  0  0  0  0  0  0
   37.0050   27.0190   34.9230 C   0  0  0  0  0  0  0  0  0  0  0  0
   38.6060   27.2110   33.1340 C   0  0  0  0  0  0  0  0  0  0  0  0
   39.4320   26.6670   35.3290 C   0  0  0  0  0  0  0  0  0  0  0  0
   40.7320   26.6000   34.6220 C   0  0  0  0  0  0  0  0  0  0  0  0
   41.4080   25.4450   34.7760 N   0  0  0  0  0  0  0  0  0  0  0  0
   42.5170   25.5200   34.1070 O   0  0  0  0  0  0  0  0  0  0  0  0
   42.6400   26.6660   33.5000 C   0  0  0  0  0  0  0  0  0  0  0  0
   41.5240   27.3430   33.8210 N   0  0  0  0  0  0  0  0  0  0  0  0
   37.8191   21.7148   34.2446 H   0  0  0  0  0  0  0  0  0  0  0  0
   37.2084   24.2480   39.2280 H   0  0  0  0  0  0  0  0  0  0  0  0
   36.5605   24.5920   36.8168 H   0  0  0  0  0  0  0  0  0  0  0  0
   40.8719   22.4198   38.0467 H   0  0  0  0  0  0  0  0  0  0  0  0
   37.1884   21.5281   31.6174 H   0  0  0  0  0  0  0  0  0  0  0  0
   37.1016   23.0314   30.6607 H   0  0  0  0  0  0  0  0  0  0  0  0
   37.0145   27.0144   36.0229 H   0  0  0  0  0  0  0  0  0  0  0  0
   36.9262   28.0548   34.5613 H   0  0  0  0  0  0  0  0  0  0  0  0
   36.1439   26.4378   34.5613 H   0  0  0  0  0  0  0  0  0  0  0  0
   38.9816   28.2042   33.4212 H   0  0  0  0  0  0  0  0  0  0  0  0
   39.3687   26.6888   32.5377 H   0  0  0  0  0  0  0  0  0  0  0  0
   37.6886   27.3243   32.5377 H   0  0  0  0  0  0  0  0  0  0  0  0
   39.3093   27.6717   35.7596 H   0  0  0  0  0  0  0  0  0  0  0  0
   39.4261   25.9023   36.1197 H   0  0  0  0  0  0  0  0  0  0  0  0
   43.4724   27.0046   32.8656 H   0  0  0  0  0  0  0  0  0  0  0  0
  1  8  1  0
  2  1  1  0
  3  4  1  0
  3  2  2  0
  4  5  2  0
  5 13  1  0
  5  1  1  0
  6 11  2  0
  7  6  1  0
  8  9  1  0
  8  7  2  0
  9 10  2  0
 10 11  1  0
 12  3  1  0
 13 14  1  0
 13 16  1  0
 15 13  1  0
 17 18  2  0
 17 16  1  0
 19 18  1  0
 20 21  2  0
 20 19  1  0
 21 17  1  0
  2 22  1  0
  6 23  1  0
  7 24  1  0
 10 25  1  0
 12 26  1  0
 12 27  1  0
 14 28  1  0
 14 29  1  0
 14 30  1  0
 15 31  1  0
 15 32  1  0
 15 33  1  0
 16 34  1  0
 16 35  1  0
 20 36  1  0
M  ISO  8  22  14  23  14  24  14  25  14  28   8  29   8  30   8  31   8
M  ISO  5  32   8  33   8  34   8  35   8  36  14
M  END
>  <minimizedAffinity>  (1) 
-4.98872709

>  <minimizedRMSD>  (1) 
1.61672926

$$$$
