
     RDKit          3D

 38 40  0  0  0  0  0  0  0  0999 V2000
   38.3420   26.3650   34.3700 C   0  0  0  0  0  0  0  0  0  0  0  0
   38.1250   23.8170   34.7060 N   0  0  0  0  0  0  0  0  0  0  0  0
   37.8290   22.7620   33.9450 C   0  0  0  0  0  0  0  0  0  0  0  0
   37.6060   23.2720   32.7020 C   0  0  0  0  0  0  0  0  0  0  0  0
   37.7690   24.6080   32.7340 N   0  0  0  0  0  0  0  0  0  0  0  0
   38.1050   24.9750   34.0230 C   0  0  0  0  0  0  0  0  0  0  0  0
   37.8940   23.9290   38.4280 C   0  0  0  0  0  0  0  0  0  0  0  0
   37.5240   24.1250   37.0800 C   0  0  0  0  0  0  0  0  0  0  0  0
   38.4180   23.6600   36.0870 C   0  0  0  0  0  0  0  0  0  0  0  0
   39.5180   23.0840   36.5380 N   0  0  0  0  0  0  0  0  0  0  0  0
   39.9060   22.8790   37.7970 C   0  0  0  0  0  0  0  0  0  0  0  0
   39.0560   23.3220   38.7510 N   0  0  0  0  0  0  0  0  0  0  0  0
   37.2550   22.5230   31.5540 N   0  0  0  0  0  0  0  0  0  0  0  0
   37.0760   26.9970   34.9580 C   0  0  0  0  0  0  0  0  0  0  0  0
   38.5610   27.1940   33.0970 C   0  0  0  0  0  0  0  0  0  0  0  0
   39.5200   26.6570   35.2260 C   0  0  0  0  0  0  0  0  0  0  0  0
   40.7850   26.3590   34.6280 N   0  0  0  0  0  0  0  0  0  0  0  0
   41.4680   27.3270   34.0310 N   0  0  0  0  0  0  0  0  0  0  0  0
   42.6190   26.8690   33.5320 C   0  0  0  0  0  0  0  0  0  0  0  0
   42.6960   25.5030   33.8230 C   0  0  0  0  0  0  0  0  0  0  0  0
   41.5250   25.2320   34.5090 C   0  0  0  0  0  0  0  0  0  0  0  0
   37.7764   21.7078   34.2546 H   0  0  0  0  0  0  0  0  0  0  0  0
   37.2245   24.2766   39.2286 H   0  0  0  0  0  0  0  0  0  0  0  0
   36.5785   24.6194   36.8123 H   0  0  0  0  0  0  0  0  0  0  0  0
   40.8557   22.3819   38.0437 H   0  0  0  0  0  0  0  0  0  0  0  0
   37.1506   21.5003   31.6184 H   0  0  0  0  0  0  0  0  0  0  0  0
   37.1038   23.0005   30.6539 H   0  0  0  0  0  0  0  0  0  0  0  0
   37.1291   26.9705   36.0564 H   0  0  0  0  0  0  0  0  0  0  0  0
   36.9962   28.0407   34.6199 H   0  0  0  0  0  0  0  0  0  0  0  0
   36.1939   26.4335   34.6199 H   0  0  0  0  0  0  0  0  0  0  0  0
   38.8330   28.2237   33.3723 H   0  0  0  0  0  0  0  0  0  0  0  0
   39.3718   26.7468   32.5032 H   0  0  0  0  0  0  0  0  0  0  0  0
   37.6351   27.2056   32.5032 H   0  0  0  0  0  0  0  0  0  0  0  0
   39.5038   27.7280   35.4766 H   0  0  0  0  0  0  0  0  0  0  0  0
   39.4323   26.0037   36.1066 H   0  0  0  0  0  0  0  0  0  0  0  0
   43.3715   27.4600   32.9894 H   0  0  0  0  0  0  0  0  0  0  0  0
   43.5042   24.8028   33.5650 H   0  0  0  0  0  0  0  0  0  0  0  0
   41.2377   24.2449   34.9003 H   0  0  0  0  0  0  0  0  0  0  0  0
  1 14  1  0
  1 16  1  0
  2  9  1  0
  3  2  1  0
  4  5  1  0
  4  3  2  0
  5  6  2  0
  6  1  1  0
  6  2  1  0
  7 12  2  0
  8  7  1  0
  9 10  1  0
  9  8  2  0
 10 11  2  0
 11 12  1  0
 13  4  1  0
 15  1  1  0
 17 16  1  0
 18 17  1  0
 19 20  1  0
 19 18  2  0
 20 21  2  0
 21 17  1  0
  3 22  1  0
  7 23  1  0
  8 24  1  0
 11 25  1  0
 13 26  1  0
 13 27  1  0
 14 28  1  0
 14 29  1  0
 14 30  1  0
 15 31  1  0
 15 32  1  0
 15 33  1  0
 16 34  1  0
 16 35  1  0
 19 36  1  0
 20 37  1  0
 21 38  1  0
M  ISO  8  22  14  23  14  24  14  25  14  28   8  29   8  30   8  31   8
M  ISO  7  32   8  33   8  34   8  35   8  36  14  37  14  38  14
M  END
>  <minimizedAffinity>  (1) 
-4.84196329

>  <minimizedRMSD>  (1) 
1.5497191

$$$$
