
     RDKit          3D

 20 21  0  0  0  0  0  0  0  0999 V2000
   38.0890   24.2220   38.5150 C   0  0  0  0  0  0  0  0  0  0  0  0
   37.7700   24.6890   37.2220 C   0  0  0  0  0  0  0  0  0  0  0  0
   38.4490   24.1320   36.1520 C   0  0  0  0  0  0  0  0  0  0  0  0
   39.3740   23.1770   36.3910 N   0  0  0  0  0  0  0  0  0  0  0  0
   39.6680   22.7400   37.6480 C   0  0  0  0  0  0  0  0  0  0  0  0
   39.0170   23.2740   38.6830 N   0  0  0  0  0  0  0  0  0  0  0  0
   40.6460   21.7350   37.8690 N   0  0  0  0  0  0  0  0  0  0  0  0
   38.1610   24.5750   34.7920 C   0  0  0  0  0  0  0  0  0  0  0  0
   38.5170   23.7640   33.7330 C   0  0  0  0  0  0  0  0  0  0  0  0
   38.2570   24.1600   32.4390 C   0  0  0  0  0  0  0  0  0  0  0  0
   37.6470   25.3550   32.2440 N   0  0  0  0  0  0  0  0  0  0  0  0
   37.3060   26.1370   33.2990 C   0  0  0  0  0  0  0  0  0  0  0  0
   37.5670   25.7400   34.5750 N   0  0  0  0  0  0  0  0  0  0  0  0
   37.5708   24.6406   39.3904 H   0  0  0  0  0  0  0  0  0  0  0  0
   37.0086   25.4682   37.0698 H   0  0  0  0  0  0  0  0  0  0  0  0
   40.8526   21.4194   38.8274 H   0  0  0  0  0  0  0  0  0  0  0  0
   41.1489   21.3215   37.0709 H   0  0  0  0  0  0  0  0  0  0  0  0
   39.0096   22.7989   33.9227 H   0  0  0  0  0  0  0  0  0  0  0  0
   38.5370   23.5234   31.5868 H   0  0  0  0  0  0  0  0  0  0  0  0
   36.8125   27.1039   33.1212 H   0  0  0  0  0  0  0  0  0  0  0  0
  1  6  2  0
  2  1  1  0
  3  4  1  0
  3  2  2  0
  4  5  2  0
  5  7  1  0
  5  6  1  0
  8  3  1  0
  9  8  2  0
 10  9  1  0
 11 10  2  0
 11 12  1  0
 12 13  2  0
 13  8  1  0
  1 14  1  0
  2 15  1  0
  7 16  1  0
  7 17  1  0
  9 18  1  0
 10 19  1  0
 12 20  1  0
M  ISO  5  14  14  15  14  18  14  19  14  20  14
M  END
>  <minimizedAffinity>  (1) 
-4.28057575

>  <minimizedRMSD>  (1) 
5.07710981

$$$$
