
     RDKit          3D

 26 28  0  0  0  0  0  0  0  0999 V2000
   44.3790   23.3020   36.2370 C   0  0  0  0  0  0  0  0  0  0  0  0
   43.3990   24.2870   36.1040 C   0  0  0  0  0  0  0  0  0  0  0  0
   42.4030   24.0880   35.1600 C   0  0  0  0  0  0  0  0  0  0  0  0
   42.4160   22.9540   34.4080 N   0  0  0  0  0  0  0  0  0  0  0  0
   43.3850   22.0150   34.5640 C   0  0  0  0  0  0  0  0  0  0  0  0
   44.3390   22.2100   35.4700 N   0  0  0  0  0  0  0  0  0  0  0  0
   43.3990   20.8230   33.7730 N   0  0  0  0  0  0  0  0  0  0  0  0
   41.3930   25.0800   35.0080 N   0  0  0  0  0  0  0  0  0  0  0  0
   41.3870   26.3120   34.4660 C   0  0  0  0  0  0  0  0  0  0  0  0
   40.1240   26.8080   34.6050 N   0  0  0  0  0  0  0  0  0  0  0  0
   39.3670   25.8820   35.2260 C   0  0  0  0  0  0  0  0  0  0  0  0
   38.0340   25.9770   35.5610 C   0  0  0  0  0  0  0  0  0  0  0  0
   37.3300   26.9870   35.3140 O   0  0  0  0  0  0  0  0  0  0  0  0
   37.5130   24.8890   36.1870 N   0  0  0  0  0  0  0  0  0  0  0  0
   38.2650   23.7930   36.4580 C   0  0  0  0  0  0  0  0  0  0  0  0
   37.6300   22.7020   37.1180 N   0  0  0  0  0  0  0  0  0  0  0  0
   39.5460   23.7720   36.1060 N   0  0  0  0  0  0  0  0  0  0  0  0
   40.1660   24.7850   35.4840 C   0  0  0  0  0  0  0  0  0  0  0  0
   45.1854   23.4257   36.9748 H   0  0  0  0  0  0  0  0  0  0  0  0
   43.4163   25.1925   36.7283 H   0  0  0  0  0  0  0  0  0  0  0  0
   44.1434   20.1241   33.9080 H   0  0  0  0  0  0  0  0  0  0  0  0
   42.6646   20.6637   33.0685 H   0  0  0  0  0  0  0  0  0  0  0  0
   42.2412   26.8234   33.9983 H   0  0  0  0  0  0  0  0  0  0  0  0
   36.5207   24.8968   36.4630 H   0  0  0  0  0  0  0  0  0  0  0  0
   38.1671   21.8520   37.3412 H   0  0  0  0  0  0  0  0  0  0  0  0
   36.6337   22.7632   37.3720 H   0  0  0  0  0  0  0  0  0  0  0  0
  2  1  2  0
  3  2  1  0
  4  5  1  0
  4  3  2  0
  5  6  2  0
  6  1  1  0
  7  5  1  0
  8  3  1  0
  8 18  1  0
  9 10  2  0
  9  8  1  0
 10 11  1  0
 11 18  2  0
 11 12  1  0
 12 14  1  0
 13 12  2  0
 14 15  1  0
 15 16  1  0
 17 15  2  0
 18 17  1  0
  1 19  1  0
  2 20  1  0
  7 21  1  0
  7 22  1  0
  9 23  1  0
 14 24  1  0
 16 25  1  0
 16 26  1  0
M  ISO  4  19  14  20  14  23  14  24   9
M  END
>  <minimizedAffinity>  (1) 
-4.22541428

>  <minimizedRMSD>  (1) 
6.08140993

$$$$
