
     RDKit          3D

 18 19  0  0  0  0  0  0  0  0999 V2000
   38.0450   24.1920   38.3990 C   0  0  0  0  0  0  0  0  0  0  0  0
   37.7560   24.6040   37.1030 C   0  0  0  0  0  0  0  0  0  0  0  0
   38.4460   24.0480   36.0410 C   0  0  0  0  0  0  0  0  0  0  0  0
   39.3810   23.1180   36.3310 N   0  0  0  0  0  0  0  0  0  0  0  0
   39.6700   22.7110   37.5850 C   0  0  0  0  0  0  0  0  0  0  0  0
   38.9810   23.2730   38.5730 N   0  0  0  0  0  0  0  0  0  0  0  0
   40.6640   21.7250   37.8560 N   0  0  0  0  0  0  0  0  0  0  0  0
   38.2050   24.4230   34.6540 C   0  0  0  0  0  0  0  0  0  0  0  0
   38.5970   23.5640   33.6100 C   0  0  0  0  0  0  0  0  0  0  0  0
   38.0790   24.4760   32.0380 S   0  0  0  0  0  0  0  0  0  0  0  0
   37.4210   25.8700   33.1320 C   0  0  0  0  0  0  0  0  0  0  0  0
   37.6370   25.5230   34.2170 N   0  0  0  0  0  0  0  0  0  0  0  0
   37.5086   24.6196   39.2589 H   0  0  0  0  0  0  0  0  0  0  0  0
   36.9840   25.3668   36.9235 H   0  0  0  0  0  0  0  0  0  0  0  0
   40.8559   21.4405   38.8272 H   0  0  0  0  0  0  0  0  0  0  0  0
   41.1900   21.2973   37.0806 H   0  0  0  0  0  0  0  0  0  0  0  0
   39.0920   22.5850   33.6908 H   0  0  0  0  0  0  0  0  0  0  0  0
   36.9391   26.8049   32.8100 H   0  0  0  0  0  0  0  0  0  0  0  0
  1  6  2  0
  2  1  1  0
  3  4  1  0
  3  2  2  0
  4  5  2  0
  5  7  1  0
  5  6  1  0
  8  3  1  0
  9  8  2  0
 10 11  1  0
 10  9  1  0
 11 12  2  0
 12  8  1  0
  1 13  1  0
  2 14  1  0
  7 15  1  0
  7 16  1  0
  9 17  1  0
 11 18  1  0
M  ISO  4  13  14  14  14  17  14  18  14
M  END
>  <minimizedAffinity>  (1) 
-4.10118341

>  <minimizedRMSD>  (1) 
4.77928734

$$$$
