
     RDKit          3D

 20 21  0  0  0  0  0  0  0  0999 V2000
   38.6100   23.5300   38.5020 C   0  0  0  0  0  0  0  0  0  0  0  0
   37.9980   24.3620   37.5640 C   0  0  0  0  0  0  0  0  0  0  0  0
   38.5120   24.4150   36.2800 C   0  0  0  0  0  0  0  0  0  0  0  0
   39.5900   23.6620   35.9740 N   0  0  0  0  0  0  0  0  0  0  0  0
   40.1820   22.8480   36.9030 C   0  0  0  0  0  0  0  0  0  0  0  0
   39.6800   22.8030   38.1400 N   0  0  0  0  0  0  0  0  0  0  0  0
   41.3200   22.0530   36.5790 N   0  0  0  0  0  0  0  0  0  0  0  0
   37.9650   25.2430   35.2120 C   0  0  0  0  0  0  0  0  0  0  0  0
   37.9020   24.8440   33.8930 C   0  0  0  0  0  0  0  0  0  0  0  0
   37.3860   25.6170   32.8730 C   0  0  0  0  0  0  0  0  0  0  0  0
   36.9100   26.8370   33.1490 N   0  0  0  0  0  0  0  0  0  0  0  0
   36.9660   27.2390   34.4340 C   0  0  0  0  0  0  0  0  0  0  0  0
   37.4690   26.4790   35.4230 N   0  0  0  0  0  0  0  0  0  0  0  0
   38.2198   23.4699   39.5287 H   0  0  0  0  0  0  0  0  0  0  0  0
   37.1212   24.9660   37.8404 H   0  0  0  0  0  0  0  0  0  0  0  0
   41.7471   21.4488   37.2956 H   0  0  0  0  0  0  0  0  0  0  0  0
   41.7152   22.0827   35.6283 H   0  0  0  0  0  0  0  0  0  0  0  0
   38.2877   23.8459   33.6380 H   0  0  0  0  0  0  0  0  0  0  0  0
   37.3661   25.2338   31.8421 H   0  0  0  0  0  0  0  0  0  0  0  0
   36.5813   28.2381   34.6865 H   0  0  0  0  0  0  0  0  0  0  0  0
  2  1  2  0
  3  2  1  0
  4  3  2  0
  4  5  1  0
  5  6  2  0
  6  1  1  0
  7  5  1  0
  8 13  1  0
  8  3  1  0
  9  8  2  0
 10 11  2  0
 10  9  1  0
 11 12  1  0
 12 13  2  0
  1 14  1  0
  2 15  1  0
  7 16  1  0
  7 17  1  0
  9 18  1  0
 10 19  1  0
 12 20  1  0
M  ISO  5  14  14  15  14  18  14  19  14  20  14
M  END
>  <minimizedAffinity>  (1) 
-3.91573286

>  <minimizedRMSD>  (1) 
4.57996893

$$$$
