
     RDKit          3D

 25 26  0  0  0  0  0  0  0  0999 V2000
   39.8960   21.8900   33.6840 C   0  0  0  0  0  0  0  0  0  0  0  0
   39.7720   22.3200   35.0050 C   0  0  0  0  0  0  0  0  0  0  0  0
   38.4970   22.3530   35.5490 C   0  0  0  0  0  0  0  0  0  0  0  0
   37.4380   21.9720   34.7880 N   0  0  0  0  0  0  0  0  0  0  0  0
   37.5880   21.5580   33.5040 C   0  0  0  0  0  0  0  0  0  0  0  0
   38.8120   21.5250   32.9780 N   0  0  0  0  0  0  0  0  0  0  0  0
   36.4870   21.1560   32.6930 N   0  0  0  0  0  0  0  0  0  0  0  0
   38.2020   22.7790   36.9170 C   0  0  0  0  0  0  0  0  0  0  0  0
   37.6910   24.2200   36.9990 C   0  0  0  0  0  0  0  0  0  0  0  0
   37.9150   24.5220   38.4610 C   0  0  0  0  0  0  0  0  0  0  0  0
   39.0000   23.6160   38.9480 C   0  0  0  0  0  0  0  0  0  0  0  0
   39.4930   22.9170   37.6980 C   0  0  0  0  0  0  0  0  0  0  0  0
   40.8904   21.8492   33.2155 H   0  0  0  0  0  0  0  0  0  0  0  0
   40.6517   22.6213   35.5926 H   0  0  0  0  0  0  0  0  0  0  0  0
   36.6470   20.8487   31.7230 H   0  0  0  0  0  0  0  0  0  0  0  0
   35.5314   21.1728   33.0769 H   0  0  0  0  0  0  0  0  0  0  0  0
   37.4795   22.0354   37.2844 H   0  0  0  0  0  0  0  0  0  0  0  0
   38.2745   24.8929   36.3534 H   0  0  0  0  0  0  0  0  0  0  0  0
   36.6522   24.3527   36.6624 H   0  0  0  0  0  0  0  0  0  0  0  0
   38.2190   25.5719   38.5850 H   0  0  0  0  0  0  0  0  0  0  0  0
   36.9905   24.3613   39.0350 H   0  0  0  0  0  0  0  0  0  0  0  0
   39.8100   24.1946   39.4161 H   0  0  0  0  0  0  0  0  0  0  0  0
   38.6457   22.9092   39.7128 H   0  0  0  0  0  0  0  0  0  0  0  0
   39.9317   21.9354   37.9303 H   0  0  0  0  0  0  0  0  0  0  0  0
   40.2917   23.4524   37.1637 H   0  0  0  0  0  0  0  0  0  0  0  0
  1  2  2  0
  2  3  1  0
  3  8  1  0
  4  3  2  0
  5  4  1  0
  6  5  2  0
  6  1  1  0
  7  5  1  0
  8  9  1  0
  8 12  1  0
  9 10  1  0
 10 11  1  0
 12 11  1  0
  1 13  1  0
  2 14  1  0
  7 15  1  0
  7 16  1  0
  8 17  1  0
  9 18  1  0
  9 19  1  0
 10 20  1  0
 10 21  1  0
 11 22  1  0
 11 23  1  0
 12 24  1  0
 12 25  1  0
M  ISO  8  13  14  14  14  17  13  18  13  19  13  20  13  21  13  22  13
M  ISO  3  23  13  24  13  25  13
M  END
>  <minimizedAffinity>  (1) 
-3.64240956

>  <minimizedRMSD>  (1) 
3.28386283

$$$$
