
     RDKit          3D

 47 49  0  0  1  0  0  0  0  0999 V2000
   36.2450   28.9360   33.1870 C   0  0  0  0  0  0  0  0  0  0  0  0
   36.6940   28.0970   32.2020 C   0  0  0  0  0  0  0  0  0  0  0  0
   37.2410   26.8710   32.5740 C   0  0  0  0  0  0  0  0  0  0  0  0
   37.3240   26.5170   33.9080 C   0  0  0  0  0  0  0  0  0  0  0  0
   36.8760   27.3510   34.8980 C   0  0  0  0  0  0  0  0  0  0  0  0
   36.3320   28.5690   34.5430 C   0  0  0  0  0  0  0  0  0  0  0  0
   37.9440   25.1850   34.1110 C   0  0  0  0  0  0  0  0  0  0  0  0
   39.3990   25.2470   34.4740 C   0  0  2  0  0  0  0  0  0  0  0  0
   41.3990   22.9350   36.4960 C   0  0  0  0  0  0  0  0  0  0  0  0
   40.5020   22.5530   37.5420 C   0  0  0  0  0  0  0  0  0  0  0  0
   39.2100   23.1030   37.5320 C   0  0  0  0  0  0  0  0  0  0  0  0
   38.8940   23.9730   36.5190 N   0  0  0  0  0  0  0  0  0  0  0  0
   39.7580   24.3120   35.5520 C   0  0  0  0  0  0  0  0  0  0  0  0
   41.0110   23.7980   35.5330 N   0  0  0  0  0  0  0  0  0  0  0  0
   39.6970   26.6640   34.9560 C   0  0  0  0  0  0  0  0  0  0  0  0
   35.5410   30.4680   32.7260 S   0  0  0  0  0  0  0  0  0  0  0  0
   36.4640   31.0980   31.6840 O   0  0  0  0  0  0  0  0  0  0  0  0
   35.4330   31.3840   33.8920 O   0  0  0  0  0  0  0  0  0  0  0  0
   32.7360   30.9770   34.2740 N   0  0  0  0  0  0  0  0  0  0  0  0
   32.8840   29.5520   34.2310 C   0  0  0  0  0  0  0  0  0  0  0  0
   33.1870   29.1150   32.8350 C   0  0  0  0  0  0  0  0  0  0  0  0
   33.9530   30.1770   32.0310 C   0  0  0  0  0  0  0  0  0  0  0  0
   33.1790   31.4500   31.9510 C   0  0  0  0  0  0  0  0  0  0  0  0
   32.1680   31.5310   33.0800 C   0  0  0  0  0  0  0  0  0  0  0  0
   36.6244   28.3843   31.1425 H   0  0  0  0  0  0  0  0  0  0  0  0
   37.6093   26.1800   31.8014 H   0  0  0  0  0  0  0  0  0  0  0  0
   36.9483   27.0559   35.9552 H   0  0  0  0  0  0  0  0  0  0  0  0
   35.9657   29.2543   35.3216 H   0  0  0  0  0  0  0  0  0  0  0  0
   37.4055   24.6708   34.9207 H   0  0  0  0  0  0  0  0  0  0  0  0
   37.8736   24.6478   33.1537 H   0  0  0  0  0  0  0  0  0  0  0  0
   39.9837   24.9694   33.5846 H   0  0  0  0  0  0  0  0  0  0  0  0
   42.4178   22.5206   36.4757 H   0  0  0  0  0  0  0  0  0  0  0  0
   40.8140   21.8509   38.3292 H   0  0  0  0  0  0  0  0  0  0  0  0
   38.4762   22.8452   38.3098 H   0  0  0  0  0  0  0  0  0  0  0  0
   39.7012   26.6839   36.0558 H   0  0  0  0  0  0  0  0  0  0  0  0
   40.6812   26.9799   34.5798 H   0  0  0  0  0  0  0  0  0  0  0  0
   38.9234   27.3496   34.5798 H   0  0  0  0  0  0  0  0  0  0  0  0
   32.1246   31.2171   35.0673 H   0  0  0  0  0  0  0  0  0  0  0  0
   33.7078   29.2505   34.8946 H   0  0  0  0  0  0  0  0  0  0  0  0
   31.9476   29.0801   34.5634 H   0  0  0  0  0  0  0  0  0  0  0  0
   33.7958   28.1998   32.8777 H   0  0  0  0  0  0  0  0  0  0  0  0
   32.2269   28.9435   32.3262 H   0  0  0  0  0  0  0  0  0  0  0  0
   34.0873   29.7903   31.0100 H   0  0  0  0  0  0  0  0  0  0  0  0
   33.8728   32.3004   32.0250 H   0  0  0  0  0  0  0  0  0  0  0  0
   32.6426   31.4797   30.9911 H   0  0  0  0  0  0  0  0  0  0  0  0
   31.8994   32.5830   33.2562 H   0  0  0  0  0  0  0  0  0  0  0  0
   31.2673   30.9623   32.8057 H   0  0  0  0  0  0  0  0  0  0  0  0
  1  6  2  0
  2  3  2  0
  2  1  1  0
  3  4  1  0
  4  7  1  0
  4  5  2  0
  6  5  1  0
  7  8  1  0
  8 15  1  0
  8 13  1  0
  9 10  2  0
 11 10  1  0
 12 11  2  0
 13 12  1  0
 14 13  2  0
 14  9  1  0
 16  1  1  0
 16 18  2  0
 17 16  2  0
 20 19  1  0
 21 20  1  0
 22 16  1  0
 22 21  1  0
 23 22  1  0
 23 24  1  0
 24 19  1  0
  2 25  1  0
  3 26  1  0
  5 27  1  0
  6 28  1  0
  7 29  1  0
  7 30  1  0
  8 31  1  6
  9 32  1  0
 10 33  1  0
 11 34  1  0
 15 35  1  0
 15 36  1  0
 15 37  1  0
 19 38  1  0
 20 39  1  0
 20 40  1  0
 21 41  1  0
 21 42  1  0
 22 43  1  0
 23 44  1  0
 23 45  1  0
 24 46  1  0
 24 47  1  0
M  ISO  8  25  14  26  14  27  14  28  14  29   8  30   8  31   8  32  14
M  ISO  8  33  14  34  14  35   8  36   8  37   8  38   5  39  13  40  13
M  ISO  7  41  13  42  13  43  13  44  13  45  13  46  13  47  13
M  END
>  <minimizedAffinity>  (1) 
-4.99455118

>  <minimizedRMSD>  (1) 
2.33675838

$$$$
