
     RDKit          3D

 32 35  0  0  0  0  0  0  0  0999 V2000
   38.5610   25.2820   35.3280 C   0  0  0  0  0  0  0  0  0  0  0  0
   39.2240   26.4770   35.1210 C   0  0  0  0  0  0  0  0  0  0  0  0
   38.9870   27.0740   33.8980 C   0  0  0  0  0  0  0  0  0  0  0  0
   38.1540   26.5320   32.9450 C   0  0  0  0  0  0  0  0  0  0  0  0
   37.5070   25.3190   33.2030 C   0  0  0  0  0  0  0  0  0  0  0  0
   37.7430   24.7410   34.3990 N   0  0  0  0  0  0  0  0  0  0  0  0
   36.6360   24.7350   32.2300 N   0  0  0  0  0  0  0  0  0  0  0  0
   35.8100   25.3990   31.4040 C   0  0  0  0  0  0  0  0  0  0  0  0
   35.1800   24.4740   30.6590 N   0  0  0  0  0  0  0  0  0  0  0  0
   35.6110   23.2530   31.0170 C   0  0  0  0  0  0  0  0  0  0  0  0
   35.3510   21.9540   30.6360 C   0  0  0  0  0  0  0  0  0  0  0  0
   35.9600   20.8970   31.2000 N   0  0  0  0  0  0  0  0  0  0  0  0
   36.8670   21.0690   32.1780 C   0  0  0  0  0  0  0  0  0  0  0  0
   37.1600   22.3250   32.5920 N   0  0  0  0  0  0  0  0  0  0  0  0
   36.5560   23.3960   32.0360 C   0  0  0  0  0  0  0  0  0  0  0  0
   38.2440   24.2610   38.8860 C   0  0  0  0  0  0  0  0  0  0  0  0
   38.0370   24.9800   37.7010 C   0  0  0  0  0  0  0  0  0  0  0  0
   38.7390   24.5720   36.5760 C   0  0  0  0  0  0  0  0  0  0  0  0
   39.5770   23.5160   36.6800 N   0  0  0  0  0  0  0  0  0  0  0  0
   39.7610   22.8320   37.8420 C   0  0  0  0  0  0  0  0  0  0  0  0
   39.0800   23.2280   38.9300 N   0  0  0  0  0  0  0  0  0  0  0  0
   40.6490   21.7250   37.9180 N   0  0  0  0  0  0  0  0  0  0  0  0
   39.8914   26.9201   35.8748 H   0  0  0  0  0  0  0  0  0  0  0  0
   39.4876   28.0278   33.6749 H   0  0  0  0  0  0  0  0  0  0  0  0
   37.9983   27.0496   31.9869 H   0  0  0  0  0  0  0  0  0  0  0  0
   35.6752   26.4893   31.3481 H   0  0  0  0  0  0  0  0  0  0  0  0
   34.6153   21.7753   29.8380 H   0  0  0  0  0  0  0  0  0  0  0  0
   37.3643   20.2011   32.6357 H   0  0  0  0  0  0  0  0  0  0  0  0
   37.7043   24.5571   39.7976 H   0  0  0  0  0  0  0  0  0  0  0  0
   37.3451   25.8343   37.6643 H   0  0  0  0  0  0  0  0  0  0  0  0
   40.7714   21.2232   38.8091 H   0  0  0  0  0  0  0  0  0  0  0  0
   41.1702   21.4245   37.0820 H   0  0  0  0  0  0  0  0  0  0  0  0
  1 18  1  0
  2  1  2  0
  3  2  1  0
  4  5  1  0
  4  3  2  0
  5  6  2  0
  6  1  1  0
  7  5  1  0
  8  7  1  0
  9 10  1  0
  9  8  2  0
 10 15  2  0
 11 10  1  0
 11 12  2  0
 12 13  1  0
 13 14  2  0
 15  7  1  0
 15 14  1  0
 16 21  2  0
 17 16  1  0
 18 19  1  0
 18 17  2  0
 19 20  2  0
 20 22  1  0
 20 21  1  0
  2 23  1  0
  3 24  1  0
  4 25  1  0
  8 26  1  0
 11 27  1  0
 13 28  1  0
 16 29  1  0
 17 30  1  0
 22 31  1  0
 22 32  1  0
M  ISO  8  23  14  24  14  25  14  26  14  27  14  28  14  29  14  30  14
M  END
>  <minimizedAffinity>  (1) 
-5.92983389

>  <minimizedRMSD>  (1) 
1.67635322

$$$$
