
     RDKit          3D

 28 30  0  0  0  0  0  0  0  0999 V2000
   38.7110   25.3750   35.1210 C   0  0  0  0  0  0  0  0  0  0  0  0
   39.6820   26.3630   34.9300 C   0  0  0  0  0  0  0  0  0  0  0  0
   39.5500   27.0230   33.7090 C   0  0  0  0  0  0  0  0  0  0  0  0
   38.5750   26.7460   32.7810 C   0  0  0  0  0  0  0  0  0  0  0  0
   37.6490   25.7500   33.0480 C   0  0  0  0  0  0  0  0  0  0  0  0
   37.7630   25.1050   34.2210 N   0  0  0  0  0  0  0  0  0  0  0  0
   37.9950   24.1730   38.5750 C   0  0  0  0  0  0  0  0  0  0  0  0
   37.9100   24.9460   37.4020 C   0  0  0  0  0  0  0  0  0  0  0  0
   38.7470   24.6140   36.3650 C   0  0  0  0  0  0  0  0  0  0  0  0
   39.6030   23.5740   36.5150 N   0  0  0  0  0  0  0  0  0  0  0  0
   39.6820   22.8340   37.6440 C   0  0  0  0  0  0  0  0  0  0  0  0
   38.8540   23.1630   38.6690 N   0  0  0  0  0  0  0  0  0  0  0  0
   40.5790   21.7500   37.7890 N   0  0  0  0  0  0  0  0  0  0  0  0
   36.5860   25.3990   32.1130 C   0  0  0  0  0  0  0  0  0  0  0  0
   35.8140   26.2750   31.3870 C   0  0  0  0  0  0  0  0  0  0  0  0
   34.9490   25.5230   30.6450 N   0  0  0  0  0  0  0  0  0  0  0  0
   35.2360   24.2440   30.9570 C   0  0  0  0  0  0  0  0  0  0  0  0
   36.2430   24.1220   31.8610 N   0  0  0  0  0  0  0  0  0  0  0  0
   40.4667   26.5949   35.6651 H   0  0  0  0  0  0  0  0  0  0  0  0
   40.2735   27.8173   33.4731 H   0  0  0  0  0  0  0  0  0  0  0  0
   38.5300   27.3085   31.8368 H   0  0  0  0  0  0  0  0  0  0  0  0
   37.3405   24.4083   39.4272 H   0  0  0  0  0  0  0  0  0  0  0  0
   37.2012   25.7831   37.3190 H   0  0  0  0  0  0  0  0  0  0  0  0
   40.6027   21.2154   38.6691 H   0  0  0  0  0  0  0  0  0  0  0  0
   41.2085   21.4953   37.0145 H   0  0  0  0  0  0  0  0  0  0  0  0
   35.8806   27.3729   31.4012 H   0  0  0  0  0  0  0  0  0  0  0  0
   34.7069   23.3830   30.5225 H   0  0  0  0  0  0  0  0  0  0  0  0
   36.6462   23.2611   32.2574 H   0  0  0  0  0  0  0  0  0  0  0  0
  1  9  1  0
  2  1  2  0
  3  2  1  0
  4  5  1  0
  4  3  2  0
  5  6  2  0
  6  1  1  0
  7 12  2  0
  8  7  1  0
  9 10  1  0
  9  8  2  0
 10 11  2  0
 11 13  1  0
 11 12  1  0
 14  5  1  0
 15 14  2  0
 16 17  2  0
 16 15  1  0
 17 18  1  0
 18 14  1  0
  2 19  1  0
  3 20  1  0
  4 21  1  0
  7 22  1  0
  8 23  1  0
 13 24  1  0
 13 25  1  0
 15 26  1  0
 17 27  1  0
 18 28  1  0
M  ISO  8  19  14  20  14  21  14  22  14  23  14  26  14  27  14  28   9
M  END
>  <minimizedAffinity>  (1) 
-5.71935415

>  <minimizedRMSD>  (1) 
1.3061552

$$$$
