
     RDKit          3D

 29 31  0  0  0  0  0  0  0  0999 V2000
   38.9380   25.3730   35.2240 C   0  0  0  0  0  0  0  0  0  0  0  0
   39.9460   26.3030   35.0370 C   0  0  0  0  0  0  0  0  0  0  0  0
   39.8900   27.0290   33.8680 C   0  0  0  0  0  0  0  0  0  0  0  0
   38.8910   26.8510   32.9250 C   0  0  0  0  0  0  0  0  0  0  0  0
   37.9060   25.9050   33.1630 C   0  0  0  0  0  0  0  0  0  0  0  0
   37.9820   25.2140   34.3040 N   0  0  0  0  0  0  0  0  0  0  0  0
   38.0320   24.0620   38.5810 C   0  0  0  0  0  0  0  0  0  0  0  0
   38.0220   24.8620   37.4310 C   0  0  0  0  0  0  0  0  0  0  0  0
   38.9210   24.5700   36.4230 C   0  0  0  0  0  0  0  0  0  0  0  0
   39.7670   23.5310   36.5910 N   0  0  0  0  0  0  0  0  0  0  0  0
   39.7770   22.7600   37.7010 C   0  0  0  0  0  0  0  0  0  0  0  0
   38.9010   23.0410   38.6880 N   0  0  0  0  0  0  0  0  0  0  0  0
   40.6700   21.6800   37.8550 N   0  0  0  0  0  0  0  0  0  0  0  0
   36.8020   25.6200   32.2560 C   0  0  0  0  0  0  0  0  0  0  0  0
   36.4540   24.3470   31.8570 C   0  0  0  0  0  0  0  0  0  0  0  0
   35.4160   24.0480   31.0000 C   0  0  0  0  0  0  0  0  0  0  0  0
   34.7010   25.1020   30.5310 N   0  0  0  0  0  0  0  0  0  0  0  0
   35.0180   26.3720   30.9070 C   0  0  0  0  0  0  0  0  0  0  0  0
   36.0340   26.6010   31.7390 N   0  0  0  0  0  0  0  0  0  0  0  0
   40.7446   26.4533   35.7783 H   0  0  0  0  0  0  0  0  0  0  0  0
   40.6699   27.7804   33.6754 H   0  0  0  0  0  0  0  0  0  0  0  0
   38.8795   27.4503   32.0027 H   0  0  0  0  0  0  0  0  0  0  0  0
   37.3267   24.2696   39.3993 H   0  0  0  0  0  0  0  0  0  0  0  0
   37.3170   25.7006   37.3330 H   0  0  0  0  0  0  0  0  0  0  0  0
   40.6496   21.1134   38.7149 H   0  0  0  0  0  0  0  0  0  0  0  0
   41.3429   21.4575   37.1076 H   0  0  0  0  0  0  0  0  0  0  0  0
   37.0476   23.5089   32.2510 H   0  0  0  0  0  0  0  0  0  0  0  0
   35.1805   23.0127   30.7124 H   0  0  0  0  0  0  0  0  0  0  0  0
   34.4298   27.2172   30.5203 H   0  0  0  0  0  0  0  0  0  0  0  0
  1  9  1  0
  2  1  2  0
  3  2  1  0
  4  5  1  0
  4  3  2  0
  5  6  2  0
  6  1  1  0
  7 12  2  0
  8  7  1  0
  9 10  1  0
  9  8  2  0
 10 11  2  0
 11 13  1  0
 11 12  1  0
 14  5  1  0
 15 14  2  0
 16 15  1  0
 17 18  1  0
 17 16  2  0
 18 19  2  0
 19 14  1  0
  2 20  1  0
  3 21  1  0
  4 22  1  0
  7 23  1  0
  8 24  1  0
 13 25  1  0
 13 26  1  0
 15 27  1  0
 16 28  1  0
 18 29  1  0
M  ISO  8  20  14  21  14  22  14  23  14  24  14  27  14  28  14  29  14
M  END
>  <minimizedAffinity>  (1) 
-5.53900385

>  <minimizedRMSD>  (1) 
1.4209491

$$$$
