
     RDKit          3D

 28 29  0  0  0  0  0  0  0  0999 V2000
   38.1830   25.6930   35.5770 C   0  0  0  0  0  0  0  0  0  0  0  0
   38.2130   26.9850   36.0780 C   0  0  0  0  0  0  0  0  0  0  0  0
   37.6710   27.9490   35.2490 C   0  0  0  0  0  0  0  0  0  0  0  0
   37.1380   27.6590   34.0160 C   0  0  0  0  0  0  0  0  0  0  0  0
   37.1330   26.3420   33.5590 C   0  0  0  0  0  0  0  0  0  0  0  0
   37.6630   25.4100   34.3730 N   0  0  0  0  0  0  0  0  0  0  0  0
   36.5730   26.0590   32.2840 N   0  0  0  0  0  0  0  0  0  0  0  0
   36.0180   27.0980   31.4890 C   0  0  0  0  0  0  0  0  0  0  0  0
   35.3220   28.0250   32.0470 N   0  0  0  0  0  0  0  0  0  0  0  0
   36.2290   27.1060   30.0810 N   0  0  0  0  0  0  0  0  0  0  0  0
   35.1400   28.0570   33.0680 H   0  0  0  0  0  0  0  0  0  0  0  0
   38.7330   23.2940   38.3640 C   0  0  0  0  0  0  0  0  0  0  0  0
   38.1770   24.3460   37.6260 C   0  0  0  0  0  0  0  0  0  0  0  0
   38.7220   24.6180   36.3730 C   0  0  0  0  0  0  0  0  0  0  0  0
   39.7430   23.8660   35.9420 N   0  0  0  0  0  0  0  0  0  0  0  0
   40.2720   22.8480   36.6660 C   0  0  0  0  0  0  0  0  0  0  0  0
   39.7440   22.5810   37.8830 N   0  0  0  0  0  0  0  0  0  0  0  0
   41.3500   22.0590   36.2010 N   0  0  0  0  0  0  0  0  0  0  0  0
   38.6374   27.2257   37.0639 H   0  0  0  0  0  0  0  0  0  0  0  0
   37.6661   28.9944   35.5913 H   0  0  0  0  0  0  0  0  0  0  0  0
   36.7174   28.4620   33.3928 H   0  0  0  0  0  0  0  0  0  0  0  0
   36.5693   25.0909   31.9324 H   0  0  0  0  0  0  0  0  0  0  0  0
   36.7871   26.3613   29.6396 H   0  0  0  0  0  0  0  0  0  0  0  0
   35.8236   27.8565   29.5037 H   0  0  0  0  0  0  0  0  0  0  0  0
   38.3258   23.0548   39.3575 H   0  0  0  0  0  0  0  0  0  0  0  0
   37.3384   24.9376   38.0220 H   0  0  0  0  0  0  0  0  0  0  0  0
   41.7193   21.2957   36.7857 H   0  0  0  0  0  0  0  0  0  0  0  0
   41.7656   22.2477   35.2777 H   0  0  0  0  0  0  0  0  0  0  0  0
  1  2  2  0
  1 14  1  0
  3  2  1  0
  4  3  2  0
  5  4  1  0
  5  6  2  0
  6  1  1  0
  7  5  1  0
  8  9  2  0
  8  7  1  0
  9 11  1  0
 10  8  1  0
 13 12  2  0
 14 13  1  0
 15 14  2  0
 15 16  1  0
 16 17  2  0
 17 12  1  0
 18 16  1  0
  2 19  1  0
  3 20  1  0
  4 21  1  0
  7 22  1  0
 10 23  1  0
 10 24  1  0
 12 25  1  0
 13 26  1  0
 18 27  1  0
 18 28  1  0
M  ISO  5  19  14  20  14  21  14  25  14  26  14
M  END
>  <minimizedAffinity>  (1) 
-5.58966112

>  <minimizedRMSD>  (1) 
0.252517253

$$$$
