
     RDKit          3D

 31 33  0  0  0  0  0  0  0  0999 V2000
   40.2370   24.8540   34.9390 C   0  0  0  0  0  0  0  0  0  0  0  0
   40.8870   26.0820   34.9900 C   0  0  0  0  0  0  0  0  0  0  0  0
   40.3460   27.0760   34.2110 C   0  0  0  0  0  0  0  0  0  0  0  0
   39.2310   26.8800   33.4230 C   0  0  0  0  0  0  0  0  0  0  0  0
   38.6200   25.6350   33.4080 C   0  0  0  0  0  0  0  0  0  0  0  0
   39.1580   24.6590   34.1790 N   0  0  0  0  0  0  0  0  0  0  0  0
   37.4770   25.4670   32.5880 N   0  0  0  0  0  0  0  0  0  0  0  0
   36.8570   24.2920   32.3690 C   0  0  0  0  0  0  0  0  0  0  0  0
   35.7390   24.1920   31.5550 C   0  0  0  0  0  0  0  0  0  0  0  0
   35.2290   25.3170   30.9400 C   0  0  0  0  0  0  0  0  0  0  0  0
   34.2130   25.2810   30.1890 O   0  0  0  0  0  0  0  0  0  0  0  0
   35.8490   26.4930   31.1600 N   0  0  0  0  0  0  0  0  0  0  0  0
   36.9330   26.5140   31.9660 C   0  0  0  0  0  0  0  0  0  0  0  0
   37.4740   27.6440   32.1360 O   0  0  0  0  0  0  0  0  0  0  0  0
   40.4340   22.0840   37.4220 C   0  0  0  0  0  0  0  0  0  0  0  0
   39.9140   23.1510   36.6740 C   0  0  0  0  0  0  0  0  0  0  0  0
   40.7410   23.7510   35.7290 C   0  0  0  0  0  0  0  0  0  0  0  0
   41.9910   23.2770   35.5810 N   0  0  0  0  0  0  0  0  0  0  0  0
   42.4780   22.2490   36.3100 C   0  0  0  0  0  0  0  0  0  0  0  0
   41.6810   21.6660   37.2250 N   0  0  0  0  0  0  0  0  0  0  0  0
   43.8070   21.7760   36.1250 N   0  0  0  0  0  0  0  0  0  0  0  0
   41.7776   26.2472   35.6142 H   0  0  0  0  0  0  0  0  0  0  0  0
   40.8212   28.0681   34.2159 H   0  0  0  0  0  0  0  0  0  0  0  0
   38.8304   27.7028   32.8126 H   0  0  0  0  0  0  0  0  0  0  0  0
   37.2493   23.3840   32.8504 H   0  0  0  0  0  0  0  0  0  0  0  0
   35.2582   23.2150   31.3994 H   0  0  0  0  0  0  0  0  0  0  0  0
   35.5033   27.3589   30.7223 H   0  0  0  0  0  0  0  0  0  0  0  0
   39.8054   21.5894   38.1772 H   0  0  0  0  0  0  0  0  0  0  0  0
   38.8835   23.5028   36.8298 H   0  0  0  0  0  0  0  0  0  0  0  0
   44.1578   20.9908   36.6918 H   0  0  0  0  0  0  0  0  0  0  0  0
   44.4184   22.2188   35.4242 H   0  0  0  0  0  0  0  0  0  0  0  0
  1  2  2  0
  1 17  1  0
  3  2  1  0
  4  3  2  0
  5  4  1  0
  5  6  2  0
  6  1  1  0
  7  5  1  0
  8  7  1  0
  9  8  2  0
 10 12  1  0
 10  9  1  0
 11 10  2  0
 12 13  1  0
 13 14  2  0
 13  7  1  0
 16 15  2  0
 17 16  1  0
 18 17  2  0
 18 19  1  0
 19 20  2  0
 20 15  1  0
 21 19  1  0
  2 22  1  0
  3 23  1  0
  4 24  1  0
  8 25  1  0
  9 26  1  0
 12 27  1  0
 15 28  1  0
 16 29  1  0
 21 30  1  0
 21 31  1  0
M  ISO  8  22  14  23  14  24  14  25  14  26  14  27   9  28  14  29  14
M  END
>  <minimizedAffinity>  (1) 
-5.45105362

>  <minimizedRMSD>  (1) 
2.07156706

$$$$
