
     RDKit          3D

 28 30  0  0  0  0  0  0  0  0999 V2000
   38.1490   25.6930   35.6090 C   0  0  0  0  0  0  0  0  0  0  0  0
   38.2580   27.0140   36.0450 C   0  0  0  0  0  0  0  0  0  0  0  0
   37.7280   27.9590   35.1740 C   0  0  0  0  0  0  0  0  0  0  0  0
   37.1360   27.6230   33.9640 C   0  0  0  0  0  0  0  0  0  0  0  0
   37.0650   26.2890   33.6010 C   0  0  0  0  0  0  0  0  0  0  0  0
   37.5740   25.3800   34.4370 N   0  0  0  0  0  0  0  0  0  0  0  0
   38.6710   23.3690   38.4620 C   0  0  0  0  0  0  0  0  0  0  0  0
   38.1230   24.3970   37.6890 C   0  0  0  0  0  0  0  0  0  0  0  0
   38.6740   24.6430   36.4540 C   0  0  0  0  0  0  0  0  0  0  0  0
   39.7190   23.8820   36.0430 N   0  0  0  0  0  0  0  0  0  0  0  0
   40.2430   22.8890   36.7970 C   0  0  0  0  0  0  0  0  0  0  0  0
   39.7060   22.6460   38.0070 N   0  0  0  0  0  0  0  0  0  0  0  0
   41.3390   22.0980   36.3550 N   0  0  0  0  0  0  0  0  0  0  0  0
   36.4500   25.9000   32.3360 C   0  0  0  0  0  0  0  0  0  0  0  0
   36.2150   24.6000   31.9450 C   0  0  0  0  0  0  0  0  0  0  0  0
   35.6240   24.7300   30.6910 C   0  0  0  0  0  0  0  0  0  0  0  0
   35.5180   26.0510   30.3640 N   0  0  0  0  0  0  0  0  0  0  0  0
   36.0300   26.7560   31.3860 N   0  0  0  0  0  0  0  0  0  0  0  0
   38.7264   27.2862   37.0024 H   0  0  0  0  0  0  0  0  0  0  0  0
   37.7800   29.0209   35.4562 H   0  0  0  0  0  0  0  0  0  0  0  0
   36.7300   28.4041   33.3044 H   0  0  0  0  0  0  0  0  0  0  0  0
   38.2492   23.1504   39.4541 H   0  0  0  0  0  0  0  0  0  0  0  0
   37.2749   24.9921   38.0587 H   0  0  0  0  0  0  0  0  0  0  0  0
   41.7107   21.3502   36.9580 H   0  0  0  0  0  0  0  0  0  0  0  0
   41.7611   22.2729   35.4319 H   0  0  0  0  0  0  0  0  0  0  0  0
   36.4415   23.6749   32.4953 H   0  0  0  0  0  0  0  0  0  0  0  0
   35.2922   23.8934   30.0585 H   0  0  0  0  0  0  0  0  0  0  0  0
   35.1196   26.4354   29.4954 H   0  0  0  0  0  0  0  0  0  0  0  0
  1  2  2  0
  1  9  1  0
  3  2  1  0
  4  3  2  0
  5  4  1  0
  5  6  2  0
  6  1  1  0
  8  7  2  0
  9  8  1  0
 10  9  2  0
 10 11  1  0
 11 12  2  0
 12  7  1  0
 13 11  1  0
 14  5  1  0
 15 14  1  0
 16 15  2  0
 17 16  1  0
 17 18  1  0
 18 14  2  0
  2 19  1  0
  3 20  1  0
  4 21  1  0
  7 22  1  0
  8 23  1  0
 13 24  1  0
 13 25  1  0
 15 26  1  0
 16 27  1  0
 17 28  1  0
M  ISO  8  19  14  20  14  21  14  22  14  23  14  26  14  27  14  28   9
M  END
>  <minimizedAffinity>  (1) 
-5.35750961

>  <minimizedRMSD>  (1) 
0.33671245

$$$$
