
     RDKit          3D

 24 25  0  0  0  0  0  0  0  0999 V2000
   38.6410   23.4260   38.4570 C   0  0  0  0  0  0  0  0  0  0  0  0
   38.0900   24.4240   37.6450 C   0  0  0  0  0  0  0  0  0  0  0  0
   38.6560   24.6320   36.3940 C   0  0  0  0  0  0  0  0  0  0  0  0
   39.7060   23.8640   36.0250 N   0  0  0  0  0  0  0  0  0  0  0  0
   40.2230   22.9050   36.8250 C   0  0  0  0  0  0  0  0  0  0  0  0
   39.6740   22.7030   38.0390 N   0  0  0  0  0  0  0  0  0  0  0  0
   41.3290   22.1100   36.4130 N   0  0  0  0  0  0  0  0  0  0  0  0
   38.1100   25.6600   35.5240 C   0  0  0  0  0  0  0  0  0  0  0  0
   38.0850   26.9700   35.9610 C   0  0  0  0  0  0  0  0  0  0  0  0
   37.5440   27.8660   35.0520 C   0  0  0  0  0  0  0  0  0  0  0  0
   37.0690   27.4930   33.8180 C   0  0  0  0  0  0  0  0  0  0  0  0
   37.1200   26.1450   33.4250 C   0  0  0  0  0  0  0  0  0  0  0  0
   37.6490   25.3010   34.3250 N   0  0  0  0  0  0  0  0  0  0  0  0
   36.6340   25.6440   32.1150 C   0  0  0  0  0  0  0  0  0  0  0  0
   38.2136   23.2381   39.4530 H   0  0  0  0  0  0  0  0  0  0  0  0
   37.2348   25.0252   37.9873 H   0  0  0  0  0  0  0  0  0  0  0  0
   41.7047   21.3854   37.0412 H   0  0  0  0  0  0  0  0  0  0  0  0
   41.7538   22.2592   35.4866 H   0  0  0  0  0  0  0  0  0  0  0  0
   38.4627   27.2766   36.9476 H   0  0  0  0  0  0  0  0  0  0  0  0
   37.4925   28.9283   35.3327 H   0  0  0  0  0  0  0  0  0  0  0  0
   36.6491   28.2491   33.1382 H   0  0  0  0  0  0  0  0  0  0  0  0
   35.8767   24.8633   32.2791 H   0  0  0  0  0  0  0  0  0  0  0  0
   36.1879   26.4741   31.5476 H   0  0  0  0  0  0  0  0  0  0  0  0
   37.4773   25.2234   31.5476 H   0  0  0  0  0  0  0  0  0  0  0  0
  2  1  2  0
  3  2  1  0
  4  3  2  0
  4  5  1  0
  5  6  2  0
  6  1  1  0
  7  5  1  0
  8  9  2  0
  8  3  1  0
 10  9  1  0
 11 10  2  0
 12 11  1  0
 12 13  2  0
 13  8  1  0
 14 12  1  0
  1 15  1  0
  2 16  1  0
  7 17  1  0
  7 18  1  0
  9 19  1  0
 10 20  1  0
 11 21  1  0
 14 22  1  0
 14 23  1  0
 14 24  1  0
M  ISO  8  15  14  16  14  19  14  20  14  21  14  22   8  23   8  24   8
M  END
>  <minimizedAffinity>  (1) 
-4.49584389

>  <minimizedRMSD>  (1) 
0.0217830017

$$$$
