
     RDKit          3D

 23 24  0  0  0  0  0  0  0  0999 V2000
   38.1020   25.6590   35.5240 C   0  0  0  0  0  0  0  0  0  0  0  0
   38.0980   26.9850   35.9720 C   0  0  0  0  0  0  0  0  0  0  0  0
   37.5580   27.8690   35.0530 C   0  0  0  0  0  0  0  0  0  0  0  0
   37.0700   27.4950   33.8210 C   0  0  0  0  0  0  0  0  0  0  0  0
   37.1060   26.1600   33.4450 C   0  0  0  0  0  0  0  0  0  0  0  0
   37.6280   25.2800   34.3220 N   0  0  0  0  0  0  0  0  0  0  0  0
   36.6040   25.7600   32.1740 N   0  0  0  0  0  0  0  0  0  0  0  0
   38.6410   23.4240   38.4560 C   0  0  0  0  0  0  0  0  0  0  0  0
   38.0970   24.4150   37.6380 C   0  0  0  0  0  0  0  0  0  0  0  0
   38.6450   24.6350   36.3980 C   0  0  0  0  0  0  0  0  0  0  0  0
   39.6960   23.8710   36.0290 N   0  0  0  0  0  0  0  0  0  0  0  0
   40.2260   22.9070   36.8250 C   0  0  0  0  0  0  0  0  0  0  0  0
   39.6760   22.7050   38.0370 N   0  0  0  0  0  0  0  0  0  0  0  0
   41.3340   22.1170   36.4050 N   0  0  0  0  0  0  0  0  0  0  0  0
   38.4846   27.2936   36.9545 H   0  0  0  0  0  0  0  0  0  0  0  0
   37.5164   28.9344   35.3236 H   0  0  0  0  0  0  0  0  0  0  0  0
   36.6538   28.2506   33.1385 H   0  0  0  0  0  0  0  0  0  0  0  0
   36.6323   24.7681   31.8981 H   0  0  0  0  0  0  0  0  0  0  0  0
   36.2126   26.4626   31.5305 H   0  0  0  0  0  0  0  0  0  0  0  0
   38.2111   23.2377   39.4512 H   0  0  0  0  0  0  0  0  0  0  0  0
   37.2399   25.0126   37.9820 H   0  0  0  0  0  0  0  0  0  0  0  0
   41.7160   21.3924   37.0294 H   0  0  0  0  0  0  0  0  0  0  0  0
   41.7534   22.2703   35.4768 H   0  0  0  0  0  0  0  0  0  0  0  0
  1  2  2  0
  1 10  1  0
  3  2  1  0
  4  3  2  0
  5  4  1  0
  5  6  2  0
  6  1  1  0
  7  5  1  0
  9  8  2  0
 10  9  1  0
 11 10  2  0
 11 12  1  0
 12 13  2  0
 13  8  1  0
 14 12  1  0
  2 15  1  0
  3 16  1  0
  4 17  1  0
  7 18  1  0
  7 19  1  0
  8 20  1  0
  9 21  1  0
 14 22  1  0
 14 23  1  0
M  ISO  5  15  14  16  14  17  14  20  14  21  14
M  END
>  <minimizedAffinity>  (1) 
-4.48474789

>  <minimizedRMSD>  (1) 
0.0296680238

$$$$
