
     RDKit          3D

 14 14  0  0  0  0  0  0  0  0999 V2000
   38.1640   23.9770   36.9860 C   0  0  0  0  0  0  0  0  0  0  0  0
   38.3010   22.8490   36.1550 C   0  0  0  0  0  0  0  0  0  0  0  0
   38.2560   23.0570   34.7640 C   0  0  0  0  0  0  0  0  0  0  0  0
   38.0840   24.3230   34.3080 N   0  0  0  0  0  0  0  0  0  0  0  0
   37.9550   25.3810   35.1430 C   0  0  0  0  0  0  0  0  0  0  0  0
   37.9950   25.2070   36.4800 N   0  0  0  0  0  0  0  0  0  0  0  0
   38.2050   23.8020   38.4700 C   0  0  0  0  0  0  0  0  0  0  0  0
   39.4930   23.4190   38.8880 F   0  0  0  0  0  0  0  0  0  0  0  0
   37.9420   24.9990   39.1040 F   0  0  0  0  0  0  0  0  0  0  0  0
   37.3020   22.8390   38.8520 F   0  0  0  0  0  0  0  0  0  0  0  0
   37.7850   26.6130   34.5240 O   0  0  0  0  0  0  0  0  0  0  0  0
   38.4381   21.8426   36.5772 H   0  0  0  0  0  0  0  0  0  0  0  0
   38.3577   22.2144   34.0642 H   0  0  0  0  0  0  0  0  0  0  0  0
   37.6839   27.4320   35.0709 H   0  0  0  0  0  0  0  0  0  0  0  0
  1  7  1  0
  2  1  2  0
  3  2  1  0
  4  3  2  0
  4  5  1  0
  5  6  2  0
  6  1  1  0
  7 10  1  0
  7  8  1  0
  7  9  1  0
 11  5  1  0
  2 12  1  0
  3 13  1  0
 11 14  1  0
M  ISO  3  12  14  13  14  14   3
M  END
>  <minimizedAffinity>  (1) 
-3.94693542

>  <minimizedRMSD>  (1) 
0.0340934508

$$$$
