
     RDKit          3D

 44 47  0  0  1  0  0  0  0  0999 V2000
   36.9870   25.7480   32.2380 C   0  0  1  0  0  0  0  0  0  0  0  0
   36.5270   24.3110   32.1970 C   0  0  0  0  0  0  0  0  0  0  0  0
   35.4590   24.2290   31.1140 C   0  0  0  0  0  0  0  0  0  0  0  0
   35.1260   25.6130   30.7090 C   0  0  0  0  0  0  0  0  0  0  0  0
   35.7620   26.4800   31.7680 C   0  0  2  0  0  0  0  0  0  0  0  0
   38.2530   25.5920   35.6850 C   0  0  0  0  0  0  0  0  0  0  0  0
   38.2360   26.9090   36.1480 C   0  0  0  0  0  0  0  0  0  0  0  0
   37.7710   27.8430   35.2350 C   0  0  0  0  0  0  0  0  0  0  0  0
   37.3560   27.5150   33.9710 C   0  0  0  0  0  0  0  0  0  0  0  0
   37.3920   26.2030   33.5640 C   0  0  0  0  0  0  0  0  0  0  0  0
   37.8460   25.2920   34.4550 N   0  0  0  0  0  0  0  0  0  0  0  0
   38.6540   23.3210   38.5880 C   0  0  0  0  0  0  0  0  0  0  0  0
   38.1430   24.3540   37.7820 C   0  0  0  0  0  0  0  0  0  0  0  0
   38.7330   24.5440   36.5510 C   0  0  0  0  0  0  0  0  0  0  0  0
   39.7610   23.7440   36.1750 N   0  0  0  0  0  0  0  0  0  0  0  0
   40.2480   22.7490   36.9570 C   0  0  0  0  0  0  0  0  0  0  0  0
   39.6750   22.5560   38.1680 N   0  0  0  0  0  0  0  0  0  0  0  0
   41.3100   21.9200   36.5680 N   0  0  0  0  0  0  0  0  0  0  0  0
   36.0130   27.8420   31.2300 C   0  0  0  0  0  0  0  0  0  0  0  0
   36.9430   28.0950   30.2130 C   0  0  0  0  0  0  0  0  0  0  0  0
   37.2050   29.3360   29.6980 C   0  0  0  0  0  0  0  0  0  0  0  0
   36.5160   30.4160   30.2020 C   0  0  0  0  0  0  0  0  0  0  0  0
   35.5950   30.2420   31.1950 C   0  0  0  0  0  0  0  0  0  0  0  0
   35.3510   28.9720   31.6980 C   0  0  0  0  0  0  0  0  0  0  0  0
   37.8886   25.9117   31.6294 H   0  0  0  0  0  0  0  0  0  0  0  0
   37.3701   23.6491   31.9500 H   0  0  0  0  0  0  0  0  0  0  0  0
   36.1297   23.9927   33.1721 H   0  0  0  0  0  0  0  0  0  0  0  0
   35.8433   23.6674   30.2498 H   0  0  0  0  0  0  0  0  0  0  0  0
   34.5650   23.7109   31.4912 H   0  0  0  0  0  0  0  0  0  0  0  0
   35.5453   25.8396   29.7176 H   0  0  0  0  0  0  0  0  0  0  0  0
   34.0410   25.7763   30.6308 H   0  0  0  0  0  0  0  0  0  0  0  0
   35.1100   26.6479   32.6379 H   0  0  0  0  0  0  0  0  0  0  0  0
   38.5665   27.1847   37.1603 H   0  0  0  0  0  0  0  0  0  0  0  0
   37.7334   28.8991   35.5403 H   0  0  0  0  0  0  0  0  0  0  0  0
   36.9962   28.2971   33.2863 H   0  0  0  0  0  0  0  0  0  0  0  0
   38.2107   23.1367   39.5777 H   0  0  0  0  0  0  0  0  0  0  0  0
   37.3071   24.9842   38.1200 H   0  0  0  0  0  0  0  0  0  0  0  0
   41.6423   21.1779   37.2003 H   0  0  0  0  0  0  0  0  0  0  0  0
   41.7577   22.0532   35.6500 H   0  0  0  0  0  0  0  0  0  0  0  0
   37.4993   27.2400   29.8012 H   0  0  0  0  0  0  0  0  0  0  0  0
   37.9496   29.4673   28.8991 H   0  0  0  0  0  0  0  0  0  0  0  0
   36.7081   31.4230   29.8033 H   0  0  0  0  0  0  0  0  0  0  0  0
   35.0471   31.1076   31.5957 H   0  0  0  0  0  0  0  0  0  0  0  0
   34.6051   28.8544   32.4979 H   0  0  0  0  0  0  0  0  0  0  0  0
  1 10  1  0
  2  1  1  0
  3  2  1  0
  4  3  1  0
  4  5  1  0
  5  1  1  0
  6  7  2  0
  6 14  1  0
  8  7  1  0
  9  8  2  0
 10  9  1  0
 10 11  2  0
 11  6  1  0
 13 12  2  0
 14 13  1  0
 15 14  2  0
 15 16  1  0
 16 17  2  0
 17 12  1  0
 18 16  1  0
 19 24  1  0
 19  5  1  0
 20 19  2  0
 21 22  2  0
 21 20  1  0
 22 23  1  0
 23 24  2  0
  1 25  1  6
  2 26  1  0
  2 27  1  0
  3 28  1  0
  3 29  1  0
  4 30  1  0
  4 31  1  0
  5 32  1  1
  7 33  1  0
  8 34  1  0
  9 35  1  0
 12 36  1  0
 13 37  1  0
 18 38  1  0
 18 39  1  0
 20 40  1  0
 21 41  1  0
 22 42  1  0
 23 43  1  0
 24 44  1  0
M  ISO  8  25  13  26  13  27  13  28  13  29  13  30  13  31  13  32  13
M  ISO  8  33  14  34  14  35  14  36  14  37  14  40  14  41  14  42  14
M  ISO  2  43  14  44  14
M  END
>  <minimizedAffinity>  (1) 
-6.47681141

>  <minimizedRMSD>  (1) 
0.596587062

$$$$
