
     RDKit          3D

 47 50  0  0  1  0  0  0  0  0999 V2000
   37.0280   25.8440   32.2440 C   0  0  1  0  0  0  0  0  0  0  0  0
   36.5280   24.4350   32.1490 C   0  0  0  0  0  0  0  0  0  0  0  0
   35.4460   24.4280   31.0770 C   0  0  0  0  0  0  0  0  0  0  0  0
   35.1030   25.8310   30.7460 C   0  0  0  0  0  0  0  0  0  0  0  0
   35.8800   26.6510   31.7440 C   0  0  2  0  0  0  0  0  0  0  0  0
   38.3110   25.5660   35.6790 C   0  0  0  0  0  0  0  0  0  0  0  0
   38.2390   26.8530   36.2140 C   0  0  0  0  0  0  0  0  0  0  0  0
   37.7330   27.8120   35.3590 C   0  0  0  0  0  0  0  0  0  0  0  0
   37.3280   27.5420   34.0800 C   0  0  0  0  0  0  0  0  0  0  0  0
   37.4200   26.2550   33.6000 C   0  0  0  0  0  0  0  0  0  0  0  0
   37.9120   25.3220   34.4330 N   0  0  0  0  0  0  0  0  0  0  0  0
   38.8360   23.1730   38.4690 C   0  0  0  0  0  0  0  0  0  0  0  0
   38.2820   24.2280   37.7230 C   0  0  0  0  0  0  0  0  0  0  0  0
   38.8350   24.4920   36.4890 C   0  0  0  0  0  0  0  0  0  0  0  0
   39.8730   23.7370   36.0470 N   0  0  0  0  0  0  0  0  0  0  0  0
   40.3980   22.7170   36.7840 C   0  0  0  0  0  0  0  0  0  0  0  0
   39.8570   22.4620   37.9870 N   0  0  0  0  0  0  0  0  0  0  0  0
   41.4750   21.9390   36.3180 N   0  0  0  0  0  0  0  0  0  0  0  0
   36.8980   30.3100   29.6890 C   0  0  0  0  0  0  0  0  0  0  0  0
   37.4650   29.1160   29.2950 C   0  0  0  0  0  0  0  0  0  0  0  0
   37.1720   27.9210   29.9190 C   0  0  0  0  0  0  0  0  0  0  0  0
   36.2850   27.8790   30.9760 C   0  0  0  0  0  0  0  0  0  0  0  0
   35.7170   29.0870   31.3670 C   0  0  0  0  0  0  0  0  0  0  0  0
   36.0020   30.2940   30.7500 C   0  0  0  0  0  0  0  0  0  0  0  0
   37.3730   31.7410   28.7940 S   0  0  0  0  0  0  0  0  0  0  0  0
   38.7220   32.2460   29.1730 O   0  0  0  0  0  0  0  0  0  0  0  0
   37.3970   31.3720   27.3210 O   0  0  0  0  0  0  0  0  0  0  0  0
   37.9542   25.9758   31.6654 H   0  0  0  0  0  0  0  0  0  0  0  0
   37.3483   23.7596   31.8646 H   0  0  0  0  0  0  0  0  0  0  0  0
   36.1314   24.0891   33.1149 H   0  0  0  0  0  0  0  0  0  0  0  0
   35.8178   23.9149   30.1779 H   0  0  0  0  0  0  0  0  0  0  0  0
   34.5545   23.8988   31.4447 H   0  0  0  0  0  0  0  0  0  0  0  0
   35.4101   26.0749   29.7183 H   0  0  0  0  0  0  0  0  0  0  0  0
   34.0209   26.0220   30.7975 H   0  0  0  0  0  0  0  0  0  0  0  0
   35.3165   26.9402   32.6434 H   0  0  0  0  0  0  0  0  0  0  0  0
   38.5611   27.0859   37.2397 H   0  0  0  0  0  0  0  0  0  0  0  0
   37.6513   28.8462   35.7248 H   0  0  0  0  0  0  0  0  0  0  0  0
   36.9327   28.3457   33.4415 H   0  0  0  0  0  0  0  0  0  0  0  0
   38.4237   22.9313   39.4598 H   0  0  0  0  0  0  0  0  0  0  0  0
   37.4394   24.8200   38.1097 H   0  0  0  0  0  0  0  0  0  0  0  0
   41.8483   21.1754   36.8997 H   0  0  0  0  0  0  0  0  0  0  0  0
   41.8895   22.1335   35.3954 H   0  0  0  0  0  0  0  0  0  0  0  0
   38.1749   29.1166   28.4547 H   0  0  0  0  0  0  0  0  0  0  0  0
   37.6495   26.9931   29.5711 H   0  0  0  0  0  0  0  0  0  0  0  0
   35.0069   29.0837   32.2071 H   0  0  0  0  0  0  0  0  0  0  0  0
   35.5266   31.2242   31.0946 H   0  0  0  0  0  0  0  0  0  0  0  0
   36.4744   32.7356   29.0772 H   0  0  0  0  0  0  0  0  0  0  0  0
  1 10  1  0
  2  1  1  0
  3  2  1  0
  4  3  1  0
  4  5  1  0
  5  1  1  0
  6  7  2  0
  6 14  1  0
  8  7  1  0
  9  8  2  0
 10  9  1  0
 10 11  2  0
 11  6  1  0
 13 12  2  0
 14 13  1  0
 15 14  2  0
 15 16  1  0
 16 17  2  0
 17 12  1  0
 18 16  1  0
 19 24  2  0
 20 19  1  0
 20 21  2  0
 21 22  1  0
 22 23  2  0
 22  5  1  0
 24 23  1  0
 25 26  2  0
 25 19  1  0
 27 25  2  0
  1 28  1  6
  2 29  1  0
  2 30  1  0
  3 31  1  0
  3 32  1  0
  4 33  1  0
  4 34  1  0
  5 35  1  1
  7 36  1  0
  8 37  1  0
  9 38  1  0
 12 39  1  0
 13 40  1  0
 18 41  1  0
 18 42  1  0
 20 43  1  0
 21 44  1  0
 23 45  1  0
 24 46  1  0
 25 47  1  0
M  ISO  8  28  13  29  13  30  13  31  13  32  13  33  13  34  13  35  13
M  ISO  8  36  14  37  14  38  14  39  14  40  14  43  14  44  14  45  14
M  ISO  2  46  14  47  11
M  END
>  <minimizedAffinity>  (1) 
-6.41641283

>  <minimizedRMSD>  (1) 
1.23344874

$$$$
