
     RDKit          3D

 41 44  0  0  1  0  0  0  0  0999 V2000
   38.2050   25.6490   35.6370 C   0  0  0  0  0  0  0  0  0  0  0  0
   38.1550   26.9460   36.1370 C   0  0  0  0  0  0  0  0  0  0  0  0
   37.6740   27.8940   35.2550 C   0  0  0  0  0  0  0  0  0  0  0  0
   37.2690   27.5940   33.9710 C   0  0  0  0  0  0  0  0  0  0  0  0
   37.3420   26.2910   33.5330 C   0  0  0  0  0  0  0  0  0  0  0  0
   37.8110   25.3720   34.3970 N   0  0  0  0  0  0  0  0  0  0  0  0
   36.9560   25.8490   32.1900 C   0  0  1  0  0  0  0  0  0  0  0  0
   36.4980   24.4210   32.1210 C   0  0  0  0  0  0  0  0  0  0  0  0
   35.4150   24.3580   31.0510 C   0  0  0  0  0  0  0  0  0  0  0  0
   35.0420   25.7480   30.6880 C   0  0  0  0  0  0  0  0  0  0  0  0
   35.7520   26.6030   31.7030 C   0  0  2  0  0  0  0  0  0  0  0  0
   36.1660   27.8330   30.9330 C   0  0  0  0  0  0  0  0  0  0  0  0
   36.0940   29.1920   30.9990 C   0  0  0  0  0  0  0  0  0  0  0  0
   36.6990   29.7210   29.9240 N   0  0  0  0  0  0  0  0  0  0  0  0
   37.1650   28.6920   29.1600 C   0  0  0  0  0  0  0  0  0  0  0  0
   36.8360   27.5450   29.7820 N   0  0  0  0  0  0  0  0  0  0  0  0
   38.6520   23.3300   38.5100 C   0  0  0  0  0  0  0  0  0  0  0  0
   38.1420   24.3760   37.7260 C   0  0  0  0  0  0  0  0  0  0  0  0
   38.6990   24.5800   36.4810 C   0  0  0  0  0  0  0  0  0  0  0  0
   39.6930   23.7750   36.0870 N   0  0  0  0  0  0  0  0  0  0  0  0
   40.1920   22.7580   36.8450 C   0  0  0  0  0  0  0  0  0  0  0  0
   39.6370   22.5730   38.0540 N   0  0  0  0  0  0  0  0  0  0  0  0
   41.2440   21.9270   36.3840 N   0  0  0  0  0  0  0  0  0  0  0  0
   38.4747   27.1980   37.1589 H   0  0  0  0  0  0  0  0  0  0  0  0
   37.6109   28.9389   35.5930 H   0  0  0  0  0  0  0  0  0  0  0  0
   36.8928   28.3853   33.3060 H   0  0  0  0  0  0  0  0  0  0  0  0
   37.8696   26.0088   31.5985 H   0  0  0  0  0  0  0  0  0  0  0  0
   37.3387   23.7663   31.8480 H   0  0  0  0  0  0  0  0  0  0  0  0
   36.1122   24.0825   33.0939 H   0  0  0  0  0  0  0  0  0  0  0  0
   35.7975   23.8312   30.1643 H   0  0  0  0  0  0  0  0  0  0  0  0
   34.5367   23.8150   31.4301 H   0  0  0  0  0  0  0  0  0  0  0  0
   35.3819   25.9890   29.6700 H   0  0  0  0  0  0  0  0  0  0  0  0
   33.9534   25.9055   30.6949 H   0  0  0  0  0  0  0  0  0  0  0  0
   35.1375   26.8623   32.5778 H   0  0  0  0  0  0  0  0  0  0  0  0
   35.6153   29.7655   31.8064 H   0  0  0  0  0  0  0  0  0  0  0  0
   37.7102   28.7830   28.2090 H   0  0  0  0  0  0  0  0  0  0  0  0
   37.0561   26.5981   29.4415 H   0  0  0  0  0  0  0  0  0  0  0  0
   38.2312   23.1384   39.5081 H   0  0  0  0  0  0  0  0  0  0  0  0
   37.3238   25.0131   38.0928 H   0  0  0  0  0  0  0  0  0  0  0  0
   41.5990   21.1666   36.9812 H   0  0  0  0  0  0  0  0  0  0  0  0
   41.6533   22.0837   35.4519 H   0  0  0  0  0  0  0  0  0  0  0  0
  1  2  2  0
  1 19  1  0
  3  2  1  0
  4  3  2  0
  5  4  1  0
  5  6  2  0
  6  1  1  0
  7  5  1  0
  8  7  1  0
  9  8  1  0
 10  9  1  0
 10 11  1  0
 11  7  1  0
 12 13  2  0
 12 11  1  0
 14 13  1  0
 15 16  1  0
 15 14  2  0
 16 12  1  0
 18 17  2  0
 19 18  1  0
 20 19  2  0
 20 21  1  0
 21 22  2  0
 22 17  1  0
 23 21  1  0
  2 24  1  0
  3 25  1  0
  4 26  1  0
  7 27  1  6
  8 28  1  0
  8 29  1  0
  9 30  1  0
  9 31  1  0
 10 32  1  0
 10 33  1  0
 11 34  1  1
 13 35  1  0
 15 36  1  0
 16 37  1  0
 17 38  1  0
 18 39  1  0
 23 40  1  0
 23 41  1  0
M  ISO  8  24  14  25  14  26  14  27  13  28  13  29  13  30  13  31  13
M  ISO  8  32  13  33  13  34  13  35  14  36  14  37   9  38  14  39  14
M  END
>  <minimizedAffinity>  (1) 
-6.42770052

>  <minimizedRMSD>  (1) 
0.396634102

$$$$
