
     RDKit          3D

 46 49  0  0  1  0  0  0  0  0999 V2000
   38.2660   25.6240   35.6220 C   0  0  0  0  0  0  0  0  0  0  0  0
   38.2270   26.9260   36.0740 C   0  0  0  0  0  0  0  0  0  0  0  0
   37.7410   27.8400   35.1630 C   0  0  0  0  0  0  0  0  0  0  0  0
   37.3220   27.4970   33.8930 C   0  0  0  0  0  0  0  0  0  0  0  0
   37.3850   26.1800   33.4970 C   0  0  0  0  0  0  0  0  0  0  0  0
   37.8600   25.2880   34.3910 N   0  0  0  0  0  0  0  0  0  0  0  0
   36.9850   25.6910   32.1840 C   0  0  1  0  0  0  0  0  0  0  0  0
   36.7220   24.2100   32.1400 C   0  0  0  0  0  0  0  0  0  0  0  0
   35.6480   23.9950   31.0980 C   0  0  0  0  0  0  0  0  0  0  0  0
   35.0160   25.3300   30.8130 C   0  0  0  0  0  0  0  0  0  0  0  0
   35.6560   26.2610   31.7890 C   0  0  2  0  0  0  0  0  0  0  0  0
   35.6370   27.5500   31.2730 N   0  0  0  0  0  0  0  0  0  0  0  0
   35.2180   28.6700   31.9800 C   0  0  0  0  0  0  0  0  0  0  0  0
   36.3190   29.7190   31.8370 C   0  0  0  0  0  0  0  0  0  0  0  0
   37.2830   29.1910   30.8150 C   0  0  0  0  0  0  0  0  0  0  0  0
   36.6480   27.9050   30.3380 C   0  0  0  0  0  0  0  0  0  0  0  0
   38.5880   23.3810   38.5700 C   0  0  0  0  0  0  0  0  0  0  0  0
   38.1210   24.3980   37.7350 C   0  0  0  0  0  0  0  0  0  0  0  0
   38.7460   24.5680   36.4930 C   0  0  0  0  0  0  0  0  0  0  0  0
   39.7600   23.7570   36.1570 N   0  0  0  0  0  0  0  0  0  0  0  0
   40.2060   22.7730   36.9720 C   0  0  0  0  0  0  0  0  0  0  0  0
   39.6080   22.6030   38.1710 N   0  0  0  0  0  0  0  0  0  0  0  0
   41.2660   21.9300   36.6220 N   0  0  0  0  0  0  0  0  0  0  0  0
   38.5579   27.2133   37.0829 H   0  0  0  0  0  0  0  0  0  0  0  0
   37.6842   28.8966   35.4636 H   0  0  0  0  0  0  0  0  0  0  0  0
   36.9422   28.2671   33.2055 H   0  0  0  0  0  0  0  0  0  0  0  0
   37.8252   25.9775   31.5344 H   0  0  0  0  0  0  0  0  0  0  0  0
   37.6379   23.6697   31.8586 H   0  0  0  0  0  0  0  0  0  0  0  0
   36.4032   23.8334   33.1231 H   0  0  0  0  0  0  0  0  0  0  0  0
   36.0937   23.5873   30.1787 H   0  0  0  0  0  0  0  0  0  0  0  0
   34.8945   23.2810   31.4619 H   0  0  0  0  0  0  0  0  0  0  0  0
   35.2237   25.6462   29.7801 H   0  0  0  0  0  0  0  0  0  0  0  0
   33.9209   25.3051   30.9141 H   0  0  0  0  0  0  0  0  0  0  0  0
   35.1040   26.3549   32.7358 H   0  0  0  0  0  0  0  0  0  0  0  0
   34.2749   29.0512   31.5614 H   0  0  0  0  0  0  0  0  0  0  0  0
   35.0404   28.4256   33.0377 H   0  0  0  0  0  0  0  0  0  0  0  0
   35.8916   30.6742   31.4980 H   0  0  0  0  0  0  0  0  0  0  0  0
   36.8206   29.9018   32.7988 H   0  0  0  0  0  0  0  0  0  0  0  0
   37.3981   29.9015   29.9832 H   0  0  0  0  0  0  0  0  0  0  0  0
   38.2914   29.0363   31.2265 H   0  0  0  0  0  0  0  0  0  0  0  0
   36.2029   28.0533   29.3431 H   0  0  0  0  0  0  0  0  0  0  0  0
   37.4017   27.1073   30.2637 H   0  0  0  0  0  0  0  0  0  0  0  0
   38.1216   23.2171   39.5527 H   0  0  0  0  0  0  0  0  0  0  0  0
   37.2874   25.0462   38.0432 H   0  0  0  0  0  0  0  0  0  0  0  0
   41.5742   21.1931   37.2722 H   0  0  0  0  0  0  0  0  0  0  0  0
   41.7383   22.0462   35.7141 H   0  0  0  0  0  0  0  0  0  0  0  0
  1  2  2  0
  1 19  1  0
  3  2  1  0
  4  3  2  0
  5  4  1  0
  5  6  2  0
  6  1  1  0
  7  5  1  0
  8  7  1  0
  9  8  1  0
 10  9  1  0
 10 11  1  0
 11  7  1  0
 12 11  1  0
 12 13  1  0
 14 13  1  0
 15 14  1  0
 16 15  1  0
 16 12  1  0
 18 17  2  0
 19 18  1  0
 20 19  2  0
 20 21  1  0
 21 22  2  0
 22 17  1  0
 23 21  1  0
  2 24  1  0
  3 25  1  0
  4 26  1  0
  7 27  1  6
  8 28  1  0
  8 29  1  0
  9 30  1  0
  9 31  1  0
 10 32  1  0
 10 33  1  0
 11 34  1  1
 13 35  1  0
 13 36  1  0
 14 37  1  0
 14 38  1  0
 15 39  1  0
 15 40  1  0
 16 41  1  0
 16 42  1  0
 17 43  1  0
 18 44  1  0
 23 45  1  0
 23 46  1  0
M  ISO  8  24  14  25  14  26  14  27  13  28  13  29  13  30  13  31  13
M  ISO  8  32  13  33  13  34  13  35  13  36  13  37  13  38  13  39  13
M  ISO  5  40  13  41  13  42  13  43  14  44  14
M  END
>  <minimizedAffinity>  (1) 
-6.21282053

>  <minimizedRMSD>  (1) 
0.402995914

$$$$
