
     RDKit          3D

 44 47  0  0  1  0  0  0  0  0999 V2000
   37.0600   25.9610   32.2480 C   0  0  1  0  0  0  0  0  0  0  0  0
   36.6360   24.5280   32.1060 C   0  0  0  0  0  0  0  0  0  0  0  0
   35.5760   24.5040   31.0140 C   0  0  0  0  0  0  0  0  0  0  0  0
   35.0760   25.8880   30.8080 C   0  0  0  0  0  0  0  0  0  0  0  0
   35.8630   26.7200   31.7950 C   0  0  2  0  0  0  0  0  0  0  0  0
   38.3200   25.5970   35.6860 C   0  0  0  0  0  0  0  0  0  0  0  0
   38.2370   26.8650   36.2570 C   0  0  0  0  0  0  0  0  0  0  0  0
   37.7280   27.8490   35.4240 C   0  0  0  0  0  0  0  0  0  0  0  0
   37.3330   27.6090   34.1400 C   0  0  0  0  0  0  0  0  0  0  0  0
   37.4350   26.3380   33.6230 C   0  0  0  0  0  0  0  0  0  0  0  0
   37.9300   25.3860   34.4340 N   0  0  0  0  0  0  0  0  0  0  0  0
   38.8510   23.1530   38.4230 C   0  0  0  0  0  0  0  0  0  0  0  0
   38.2980   24.2250   37.7050 C   0  0  0  0  0  0  0  0  0  0  0  0
   38.8450   24.5050   36.4710 C   0  0  0  0  0  0  0  0  0  0  0  0
   39.8710   23.7480   36.0130 N   0  0  0  0  0  0  0  0  0  0  0  0
   40.4000   22.7160   36.7110 C   0  0  0  0  0  0  0  0  0  0  0  0
   39.8600   22.4390   37.9310 N   0  0  0  0  0  0  0  0  0  0  0  0
   41.4610   21.9340   36.2410 N   0  0  0  0  0  0  0  0  0  0  0  0
   36.3400   27.8910   30.9620 C   0  0  0  0  0  0  0  0  0  0  0  0
   37.2490   27.9460   29.9250 C   0  0  0  0  0  0  0  0  0  0  0  0
   37.5560   29.1300   29.2990 C   0  0  0  0  0  0  0  0  0  0  0  0
   36.9690   30.3190   29.6800 C   0  0  0  0  0  0  0  0  0  0  0  0
   36.0470   30.2770   30.7280 C   0  0  0  0  0  0  0  0  0  0  0  0
   35.7330   29.0870   31.3640 C   0  0  0  0  0  0  0  0  0  0  0  0
   37.9696   26.1673   31.6649 H   0  0  0  0  0  0  0  0  0  0  0  0
   37.4943   23.9033   31.8178 H   0  0  0  0  0  0  0  0  0  0  0  0
   36.2436   24.1307   33.0537 H   0  0  0  0  0  0  0  0  0  0  0  0
   36.0155   24.1258   30.0792 H   0  0  0  0  0  0  0  0  0  0  0  0
   34.7465   23.8450   31.3100 H   0  0  0  0  0  0  0  0  0  0  0  0
   35.2668   26.2219   29.7774 H   0  0  0  0  0  0  0  0  0  0  0  0
   33.9898   25.9697   30.9613 H   0  0  0  0  0  0  0  0  0  0  0  0
   35.2734   27.0026   32.6796 H   0  0  0  0  0  0  0  0  0  0  0  0
   38.5517   27.0699   37.2909 H   0  0  0  0  0  0  0  0  0  0  0  0
   37.6381   28.8725   35.8168 H   0  0  0  0  0  0  0  0  0  0  0  0
   36.9352   28.4272   33.5217 H   0  0  0  0  0  0  0  0  0  0  0  0
   38.4420   22.8983   39.4119 H   0  0  0  0  0  0  0  0  0  0  0  0
   37.4636   24.8165   38.1098 H   0  0  0  0  0  0  0  0  0  0  0  0
   41.8242   21.1600   36.8154 H   0  0  0  0  0  0  0  0  0  0  0  0
   41.8788   22.1324   35.3207 H   0  0  0  0  0  0  0  0  0  0  0  0
   37.7396   27.0196   29.5916 H   0  0  0  0  0  0  0  0  0  0  0  0
   38.2858   29.1299   28.4760 H   0  0  0  0  0  0  0  0  0  0  0  0
   37.2180   31.2650   29.1769 H   0  0  0  0  0  0  0  0  0  0  0  0
   35.5602   31.2076   31.0551 H   0  0  0  0  0  0  0  0  0  0  0  0
   35.0041   29.0817   32.1878 H   0  0  0  0  0  0  0  0  0  0  0  0
  1 10  1  0
  2  1  1  0
  3  2  1  0
  4  3  1  0
  4  5  1  0
  5  1  1  0
  6  7  2  0
  6 14  1  0
  8  7  1  0
  9  8  2  0
 10  9  1  0
 10 11  2  0
 11  6  1  0
 13 12  2  0
 14 13  1  0
 15 14  2  0
 15 16  1  0
 16 17  2  0
 17 12  1  0
 18 16  1  0
 19 24  1  0
 19  5  1  0
 20 19  2  0
 21 22  2  0
 21 20  1  0
 22 23  1  0
 23 24  2  0
  1 25  1  6
  2 26  1  0
  2 27  1  0
  3 28  1  0
  3 29  1  0
  4 30  1  0
  4 31  1  0
  5 32  1  1
  7 33  1  0
  8 34  1  0
  9 35  1  0
 12 36  1  0
 13 37  1  0
 18 38  1  0
 18 39  1  0
 20 40  1  0
 21 41  1  0
 22 42  1  0
 23 43  1  0
 24 44  1  0
M  ISO  8  25  13  26  13  27  13  28  13  29  13  30  13  31  13  32  13
M  ISO  8  33  14  34  14  35  14  36  14  37  14  40  14  41  14  42  14
M  ISO  2  43  14  44  14
M  END
>  <minimizedAffinity>  (1) 
-6.30872774

>  <minimizedRMSD>  (1) 
0.661148071

$$$$
