
     RDKit          3D

 49 52  0  0  1  0  0  0  0  0999 V2000
   39.2490   25.3300   34.9140 C   0  0  0  0  0  0  0  0  0  0  0  0
   40.1400   26.4040   34.8610 C   0  0  0  0  0  0  0  0  0  0  0  0
   40.2330   27.0170   33.6240 C   0  0  0  0  0  0  0  0  0  0  0  0
   39.5220   26.6190   32.5290 C   0  0  0  0  0  0  0  0  0  0  0  0
   38.6550   25.5540   32.6230 C   0  0  0  0  0  0  0  0  0  0  0  0
   38.5730   24.9680   33.8300 N   0  0  0  0  0  0  0  0  0  0  0  0
   37.8450   25.0270   31.5160 C   0  0  1  0  0  0  0  0  0  0  0  0
   37.9470   23.5080   31.3790 C   0  0  0  0  0  0  0  0  0  0  0  0
   36.6210   23.0440   30.8380 C   0  0  0  0  0  0  0  0  0  0  0  0
   35.6290   24.1290   31.0600 C   0  0  0  0  0  0  0  0  0  0  0  0
   36.3960   25.1730   31.8330 C   0  0  2  0  0  0  0  0  0  0  0  0
   35.8420   26.4670   31.7540 N   0  0  0  0  0  0  0  0  0  0  0  0
   36.1880   27.1800   30.5440 C   0  0  0  0  0  0  0  0  0  0  0  0
   37.2180   28.2370   30.6820 C   0  0  0  0  0  0  0  0  0  0  0  0
   36.8280   29.1700   31.8060 C   0  0  0  0  0  0  0  0  0  0  0  0
   36.8020   28.3480   33.0580 C   0  0  0  0  0  0  0  0  0  0  0  0
   35.7560   27.2840   32.8980 C   0  0  0  0  0  0  0  0  0  0  0  0
   37.9680   24.2910   38.2410 C   0  0  0  0  0  0  0  0  0  0  0  0
   38.1030   25.0150   37.0460 C   0  0  0  0  0  0  0  0  0  0  0  0
   39.0730   24.6150   36.1510 C   0  0  0  0  0  0  0  0  0  0  0  0
   39.8510   23.5480   36.4580 N   0  0  0  0  0  0  0  0  0  0  0  0
   39.7170   22.8490   37.6170 C   0  0  0  0  0  0  0  0  0  0  0  0
   38.7710   23.2420   38.4860 N   0  0  0  0  0  0  0  0  0  0  0  0
   40.5190   21.7480   37.9350 N   0  0  0  0  0  0  0  0  0  0  0  0
   40.7218   26.7363   35.7334 H   0  0  0  0  0  0  0  0  0  0  0  0
   40.9172   27.8717   33.5173 H   0  0  0  0  0  0  0  0  0  0  0  0
   39.6417   27.1487   31.5724 H   0  0  0  0  0  0  0  0  0  0  0  0
   38.2034   25.5704   30.6293 H   0  0  0  0  0  0  0  0  0  0  0  0
   38.7566   23.2416   30.6837 H   0  0  0  0  0  0  0  0  0  0  0  0
   38.1736   23.0332   32.3450 H   0  0  0  0  0  0  0  0  0  0  0  0
   36.3014   22.1326   31.3644 H   0  0  0  0  0  0  0  0  0  0  0  0
   36.7046   22.8164   29.7651 H   0  0  0  0  0  0  0  0  0  0  0  0
   35.2730   24.5352   30.1018 H   0  0  0  0  0  0  0  0  0  0  0  0
   34.7330   23.7803   31.5943 H   0  0  0  0  0  0  0  0  0  0  0  0
   36.2980   24.9960   32.9142 H   0  0  0  0  0  0  0  0  0  0  0  0
   35.2721   27.6515   30.1582 H   0  0  0  0  0  0  0  0  0  0  0  0
   36.6255   26.4269   29.8721 H   0  0  0  0  0  0  0  0  0  0  0  0
   38.1905   27.7753   30.9082 H   0  0  0  0  0  0  0  0  0  0  0  0
   37.2935   28.8033   29.7420 H   0  0  0  0  0  0  0  0  0  0  0  0
   37.5661   29.9802   31.8996 H   0  0  0  0  0  0  0  0  0  0  0  0
   35.8479   29.6316   31.6152 H   0  0  0  0  0  0  0  0  0  0  0  0
   37.7856   27.8823   33.2183 H   0  0  0  0  0  0  0  0  0  0  0  0
   36.5686   28.9833   33.9251 H   0  0  0  0  0  0  0  0  0  0  0  0
   34.7761   27.7833   32.8758 H   0  0  0  0  0  0  0  0  0  0  0  0
   35.9113   26.6022   33.7471 H   0  0  0  0  0  0  0  0  0  0  0  0
   37.2045   24.5826   38.9772 H   0  0  0  0  0  0  0  0  0  0  0  0
   37.4540   25.8764   36.8297 H   0  0  0  0  0  0  0  0  0  0  0  0
   40.3801   21.2498   38.8257 H   0  0  0  0  0  0  0  0  0  0  0  0
   41.2485   21.4355   37.2784 H   0  0  0  0  0  0  0  0  0  0  0  0
  1 20  1  0
  2  1  2  0
  3  2  1  0
  4  5  1  0
  4  3  2  0
  5  6  2  0
  6  1  1  0
  7 11  1  0
  7  5  1  0
  8  7  1  0
  9 10  1  0
  9  8  1  0
 10 11  1  0
 12 11  1  0
 12 17  1  0
 13 14  1  0
 13 12  1  0
 14 15  1  0
 15 16  1  0
 17 16  1  0
 18 23  2  0
 19 18  1  0
 20 21  1  0
 20 19  2  0
 21 22  2  0
 22 24  1  0
 22 23  1  0
  2 25  1  0
  3 26  1  0
  4 27  1  0
  7 28  1  6
  8 29  1  0
  8 30  1  0
  9 31  1  0
  9 32  1  0
 10 33  1  0
 10 34  1  0
 11 35  1  1
 13 36  1  0
 13 37  1  0
 14 38  1  0
 14 39  1  0
 15 40  1  0
 15 41  1  0
 16 42  1  0
 16 43  1  0
 17 44  1  0
 17 45  1  0
 18 46  1  0
 19 47  1  0
 24 48  1  0
 24 49  1  0
M  ISO  8  25  14  26  14  27  14  28  13  29  13  30  13  31  13  32  13
M  ISO  8  33  13  34  13  35  13  36  13  37  13  38  13  39  13  40  13
M  ISO  7  41  13  42  13  43  13  44  13  45  13  46  14  47  14
M  END
>  <minimizedAffinity>  (1) 
-5.9093585

>  <minimizedRMSD>  (1) 
1.78331196

$$$$
