
     RDKit          3D

 43 45  0  0  1  0  0  0  0  0999 V2000
   38.2240   25.6050   35.6580 C   0  0  0  0  0  0  0  0  0  0  0  0
   38.1490   26.9170   36.1300 C   0  0  0  0  0  0  0  0  0  0  0  0
   37.6670   27.8380   35.2220 C   0  0  0  0  0  0  0  0  0  0  0  0
   37.2880   27.5020   33.9490 C   0  0  0  0  0  0  0  0  0  0  0  0
   37.3770   26.1990   33.5220 C   0  0  0  0  0  0  0  0  0  0  0  0
   37.8500   25.3030   34.4180 N   0  0  0  0  0  0  0  0  0  0  0  0
   37.0170   25.7190   32.1750 C   0  0  1  0  0  0  0  0  0  0  0  0
   36.5400   24.3000   32.1470 C   0  0  0  0  0  0  0  0  0  0  0  0
   35.3880   24.2210   31.1590 C   0  0  0  0  0  0  0  0  0  0  0  0
   35.0500   25.5970   30.7150 C   0  0  0  0  0  0  0  0  0  0  0  0
   35.8990   26.4880   31.6110 C   0  0  2  0  0  0  0  0  0  0  0  0
   36.3330   27.5850   30.6370 C   0  0  0  0  0  0  0  0  0  0  0  0
   37.8490   27.3980   30.4560 C   0  0  0  0  0  0  0  0  0  0  0  0
   36.2140   28.9580   31.2600 C   0  0  0  0  0  0  0  0  0  0  0  0
   38.6520   23.3630   38.5780 C   0  0  0  0  0  0  0  0  0  0  0  0
   38.1370   24.3820   37.7640 C   0  0  0  0  0  0  0  0  0  0  0  0
   38.7170   24.5700   36.5270 C   0  0  0  0  0  0  0  0  0  0  0  0
   39.7340   23.7730   36.1720 N   0  0  0  0  0  0  0  0  0  0  0  0
   40.2350   22.7850   36.9590 C   0  0  0  0  0  0  0  0  0  0  0  0
   39.6620   22.6090   38.1680 N   0  0  0  0  0  0  0  0  0  0  0  0
   41.3050   21.9610   36.5600 N   0  0  0  0  0  0  0  0  0  0  0  0
   38.4517   27.1959   37.1501 H   0  0  0  0  0  0  0  0  0  0  0  0
   37.5834   28.8893   35.5346 H   0  0  0  0  0  0  0  0  0  0  0  0
   36.9112   28.2780   33.2664 H   0  0  0  0  0  0  0  0  0  0  0  0
   37.9506   25.8295   31.6039 H   0  0  0  0  0  0  0  0  0  0  0  0
   37.3561   23.6364   31.8252 H   0  0  0  0  0  0  0  0  0  0  0  0
   36.2123   23.9831   33.1481 H   0  0  0  0  0  0  0  0  0  0  0  0
   35.6850   23.6139   30.2911 H   0  0  0  0  0  0  0  0  0  0  0  0
   34.5139   23.7549   31.6372 H   0  0  0  0  0  0  0  0  0  0  0  0
   35.3121   25.7425   29.6566 H   0  0  0  0  0  0  0  0  0  0  0  0
   33.9750   25.8167   30.7933 H   0  0  0  0  0  0  0  0  0  0  0  0
   35.3880   26.8990   32.4942 H   0  0  0  0  0  0  0  0  0  0  0  0
   35.7222   27.5172   29.7247 H   0  0  0  0  0  0  0  0  0  0  0  0
   38.3315   27.3385   31.4427 H   0  0  0  0  0  0  0  0  0  0  0  0
   38.0399   26.4695   29.8979 H   0  0  0  0  0  0  0  0  0  0  0  0
   38.2598   28.2523   29.8979 H   0  0  0  0  0  0  0  0  0  0  0  0
   36.2220   28.8653   32.3561 H   0  0  0  0  0  0  0  0  0  0  0  0
   37.0615   29.5812   30.9385 H   0  0  0  0  0  0  0  0  0  0  0  0
   35.2719   29.4261   30.9385 H   0  0  0  0  0  0  0  0  0  0  0  0
   38.2117   23.1870   39.5705 H   0  0  0  0  0  0  0  0  0  0  0  0
   37.2990   25.0100   38.1006 H   0  0  0  0  0  0  0  0  0  0  0  0
   41.6510   21.2244   37.1914 H   0  0  0  0  0  0  0  0  0  0  0  0
   41.7417   22.0949   35.6368 H   0  0  0  0  0  0  0  0  0  0  0  0
  1  2  2  0
  1 17  1  0
  3  2  1  0
  4  3  2  0
  5  4  1  0
  5  6  2  0
  6  1  1  0
  7  5  1  0
  8  7  1  0
  9  8  1  0
 10  9  1  0
 10 11  1  0
 11  7  1  0
 12 14  1  0
 12 11  1  0
 13 12  1  0
 16 15  2  0
 17 16  1  0
 18 17  2  0
 18 19  1  0
 19 20  2  0
 20 15  1  0
 21 19  1  0
  2 22  1  0
  3 23  1  0
  4 24  1  0
  7 25  1  6
  8 26  1  0
  8 27  1  0
  9 28  1  0
  9 29  1  0
 10 30  1  0
 10 31  1  0
 11 32  1  1
 12 33  1  0
 13 34  1  0
 13 35  1  0
 13 36  1  0
 14 37  1  0
 14 38  1  0
 14 39  1  0
 15 40  1  0
 16 41  1  0
 21 42  1  0
 21 43  1  0
M  ISO  8  22  14  23  14  24  14  25  13  26  13  27  13  28  13  29  13
M  ISO  8  30  13  31  13  32  13  33   8  34   8  35   8  36   8  37   8
M  ISO  4  38   8  39   8  40  14  41  14
M  END
>  <minimizedAffinity>  (1) 
-5.88700533

>  <minimizedRMSD>  (1) 
0.400912166

$$$$
