
     RDKit          3D

 37 39  0  0  1  0  0  0  0  0999 V2000
   38.4230   25.6030   35.6720 C   0  0  0  0  0  0  0  0  0  0  0  0
   38.2760   26.8300   36.3150 C   0  0  0  0  0  0  0  0  0  0  0  0
   37.7180   27.8190   35.5480 C   0  0  0  0  0  0  0  0  0  0  0  0
   37.3280   27.6450   34.2560 C   0  0  0  0  0  0  0  0  0  0  0  0
   37.4940   26.4070   33.6540 C   0  0  0  0  0  0  0  0  0  0  0  0
   38.0410   25.4410   34.4110 N   0  0  0  0  0  0  0  0  0  0  0  0
   37.1320   26.0700   32.2670 C   0  0  1  0  0  0  0  0  0  0  0  0
   36.6650   24.6510   32.0870 C   0  0  0  0  0  0  0  0  0  0  0  0
   35.6600   24.6650   30.9710 C   0  0  0  0  0  0  0  0  0  0  0  0
   35.0730   26.0420   30.8870 C   0  0  0  0  0  0  0  0  0  0  0  0
   36.0020   26.8590   31.7980 C   0  0  2  0  0  0  0  0  0  0  0  0
   36.4280   27.9680   30.7930 C   0  0  0  0  0  0  0  0  0  0  0  0
   35.5950   29.0700   30.9870 F   0  0  0  0  0  0  0  0  0  0  0  0
   36.4760   27.5830   29.4980 F   0  0  0  0  0  0  0  0  0  0  0  0
   37.6970   28.4170   31.1240 F   0  0  0  0  0  0  0  0  0  0  0  0
   39.0240   23.0360   38.3000 C   0  0  0  0  0  0  0  0  0  0  0  0
   38.4590   24.1220   37.6280 C   0  0  0  0  0  0  0  0  0  0  0  0
   38.9940   24.4810   36.3880 C   0  0  0  0  0  0  0  0  0  0  0  0
   40.0240   23.7780   35.8860 N   0  0  0  0  0  0  0  0  0  0  0  0
   40.5610   22.7190   36.5610 C   0  0  0  0  0  0  0  0  0  0  0  0
   40.0380   22.3750   37.7640 N   0  0  0  0  0  0  0  0  0  0  0  0
   41.6420   21.9900   36.0220 N   0  0  0  0  0  0  0  0  0  0  0  0
   38.5842   26.9925   37.3584 H   0  0  0  0  0  0  0  0  0  0  0  0
   37.5772   28.8106   36.0029 H   0  0  0  0  0  0  0  0  0  0  0  0
   36.8845   28.4799   33.6936 H   0  0  0  0  0  0  0  0  0  0  0  0
   38.0631   26.2607   31.7131 H   0  0  0  0  0  0  0  0  0  0  0  0
   37.5141   24.0030   31.8242 H   0  0  0  0  0  0  0  0  0  0  0  0
   36.2207   24.2603   33.0143 H   0  0  0  0  0  0  0  0  0  0  0  0
   36.1544   24.4123   30.0214 H   0  0  0  0  0  0  0  0  0  0  0  0
   34.8686   23.9255   31.1628 H   0  0  0  0  0  0  0  0  0  0  0  0
   35.0956   26.4209   29.8546 H   0  0  0  0  0  0  0  0  0  0  0  0
   34.0159   26.0859   31.1881 H   0  0  0  0  0  0  0  0  0  0  0  0
   35.5489   27.2263   32.7306 H   0  0  0  0  0  0  0  0  0  0  0  0
   38.6251   22.7288   39.2780 H   0  0  0  0  0  0  0  0  0  0  0  0
   37.6162   24.6794   38.0627 H   0  0  0  0  0  0  0  0  0  0  0  0
   42.0366   21.1936   36.5425 H   0  0  0  0  0  0  0  0  0  0  0  0
   42.0365   22.2542   35.1080 H   0  0  0  0  0  0  0  0  0  0  0  0
  1  2  2  0
  1 18  1  0
  3  2  1  0
  4  3  2  0
  5  4  1  0
  5  6  2  0
  6  1  1  0
  7  5  1  0
  8  7  1  0
  9  8  1  0
 10  9  1  0
 10 11  1  0
 11  7  1  0
 12 13  1  0
 12 15  1  0
 12 11  1  0
 14 12  1  0
 17 16  2  0
 18 17  1  0
 19 18  2  0
 19 20  1  0
 20 21  2  0
 21 16  1  0
 22 20  1  0
  2 23  1  0
  3 24  1  0
  4 25  1  0
  7 26  1  6
  8 27  1  0
  8 28  1  0
  9 29  1  0
  9 30  1  0
 10 31  1  0
 10 32  1  0
 11 33  1  1
 16 34  1  0
 17 35  1  0
 22 36  1  0
 22 37  1  0
M  ISO  8  23  14  24  14  25  14  26  13  27  13  28  13  29  13  30  13
M  ISO  5  31  13  32  13  33  13  34  14  35  14
M  END
>  <minimizedAffinity>  (1) 
-5.44580841

>  <minimizedRMSD>  (1) 
0.696760237

$$$$
