
     RDKit          3D

 25 27  0  0  0  0  0  0  0  0999 V2000
   42.3030   24.0620   34.8510 C   0  0  0  0  0  0  0  0  0  0  0  0
   41.9470   24.6400   33.6830 N   0  0  0  0  0  0  0  0  0  0  0  0
   42.6090   25.7160   33.2430 C   0  0  0  0  0  0  0  0  0  0  0  0
   43.6320   26.2690   33.9110 N   0  0  0  0  0  0  0  0  0  0  0  0
   44.0220   25.7380   35.0670 C   0  0  0  0  0  0  0  0  0  0  0  0
   45.0760   26.3310   35.7270 C   0  0  0  0  0  0  0  0  0  0  0  0
   45.5170   25.8160   36.9280 C   0  0  0  0  0  0  0  0  0  0  0  0
   44.8810   24.7060   37.4430 C   0  0  0  0  0  0  0  0  0  0  0  0
   43.8340   24.1310   36.7710 C   0  0  0  0  0  0  0  0  0  0  0  0
   43.3650   24.6130   35.5720 C   0  0  0  0  0  0  0  0  0  0  0  0
   41.5930   22.6340   35.6470 S   0  0  0  0  0  0  0  0  0  0  0  0
   39.2140   23.9960   35.9070 C   0  0  0  0  0  0  0  0  0  0  0  0
   40.1450   23.1800   36.5590 C   0  0  0  0  0  0  0  0  0  0  0  0
   39.9240   22.8220   37.8830 C   0  0  0  0  0  0  0  0  0  0  0  0
   38.7940   23.2860   38.4940 N   0  0  0  0  0  0  0  0  0  0  0  0
   37.9150   24.0670   37.8470 C   0  0  0  0  0  0  0  0  0  0  0  0
   38.1000   24.4390   36.5490 N   0  0  0  0  0  0  0  0  0  0  0  0
   42.2999   26.1682   32.2890 H   0  0  0  0  0  0  0  0  0  0  0  0
   45.5663   27.2161   35.2956 H   0  0  0  0  0  0  0  0  0  0  0  0
   46.3580   26.2806   37.4636 H   0  0  0  0  0  0  0  0  0  0  0  0
   45.2163   24.2792   38.3997 H   0  0  0  0  0  0  0  0  0  0  0  0
   43.3485   23.2467   37.2095 H   0  0  0  0  0  0  0  0  0  0  0  0
   39.3858   24.2835   34.8592 H   0  0  0  0  0  0  0  0  0  0  0  0
   40.6382   22.1835   38.4235 H   0  0  0  0  0  0  0  0  0  0  0  0
   37.0188   24.4172   38.3801 H   0  0  0  0  0  0  0  0  0  0  0  0
  1 10  1  0
  1 11  1  0
  2  1  2  0
  3  2  1  0
  3  4  2  0
  4  5  1  0
  5 10  2  0
  5  6  1  0
  6  7  2  0
  7  8  1  0
  9  8  2  0
 10  9  1  0
 11 13  1  0
 12 17  2  0
 12 13  1  0
 13 14  2  0
 14 15  1  0
 16 15  2  0
 17 16  1  0
  3 18  1  0
  6 19  1  0
  7 20  1  0
  8 21  1  0
  9 22  1  0
 12 23  1  0
 14 24  1  0
 16 25  1  0
M  ISO  8  18  14  19  14  20  14  21  14  22  14  23  14  24  14  25  14
M  END
>  <minimizedAffinity>  (1) 
-4.27239084

>  <minimizedRMSD>  (1) 
4.65171194

$$$$
