
     RDKit          3D

 21 22  0  0  0  0  0  0  0  0999 V2000
   40.9690   24.0280   35.4670 C   0  0  0  0  0  0  0  0  0  0  0  0
   42.1370   23.4820   35.9990 C   0  0  0  0  0  0  0  0  0  0  0  0
   42.0170   22.4870   36.9720 C   0  0  0  0  0  0  0  0  0  0  0  0
   40.7560   22.1080   37.3470 N   0  0  0  0  0  0  0  0  0  0  0  0
   39.6530   22.6520   36.8180 C   0  0  0  0  0  0  0  0  0  0  0  0
   39.7510   23.6190   35.8710 N   0  0  0  0  0  0  0  0  0  0  0  0
   43.7210   24.0640   35.4250 S   0  0  0  0  0  0  0  0  0  0  0  0
   44.7940   24.5500   36.7610 C   0  0  0  0  0  0  0  0  0  0  0  0
   46.0540   23.9930   36.6460 C   0  0  0  0  0  0  0  0  0  0  0  0
   47.0440   24.2540   37.5990 C   0  0  0  0  0  0  0  0  0  0  0  0
   46.7190   25.0870   38.6610 C   0  0  0  0  0  0  0  0  0  0  0  0
   45.4560   25.6430   38.7750 C   0  0  0  0  0  0  0  0  0  0  0  0
   44.4890   25.3760   37.8240 C   0  0  0  0  0  0  0  0  0  0  0  0
   41.0444   24.8117   34.6988 H   0  0  0  0  0  0  0  0  0  0  0  0
   42.9069   22.0230   37.4224 H   0  0  0  0  0  0  0  0  0  0  0  0
   38.6615   22.3131   37.1529 H   0  0  0  0  0  0  0  0  0  0  0  0
   46.2811   23.3358   35.7937 H   0  0  0  0  0  0  0  0  0  0  0  0
   48.0479   23.8133   37.5099 H   0  0  0  0  0  0  0  0  0  0  0  0
   47.4782   25.3092   39.4254 H   0  0  0  0  0  0  0  0  0  0  0  0
   45.2212   26.2997   39.6257 H   0  0  0  0  0  0  0  0  0  0  0  0
   43.4856   25.8178   37.9135 H   0  0  0  0  0  0  0  0  0  0  0  0
  1  6  2  0
  1  2  1  0
  2  3  2  0
  3  4  1  0
  5  4  2  0
  6  5  1  0
  7  2  1  0
  7  8  1  0
  8 13  1  0
  9  8  2  0
  9 10  1  0
 10 11  2  0
 11 12  1  0
 13 12  2  0
  1 14  1  0
  3 15  1  0
  5 16  1  0
  9 17  1  0
 10 18  1  0
 11 19  1  0
 12 20  1  0
 13 21  1  0
M  ISO  8  14  14  15  14  16  14  17  14  18  14  19  14  20  14  21  14
M  END
>  <minimizedAffinity>  (1) 
-3.85302496

>  <minimizedRMSD>  (1) 
5.38421297

$$$$
