
     RDKit          3D

 26 27  0  0  0  0  0  0  0  0999 V2000
   37.7510   23.1000   36.4770 C   0  0  0  0  0  0  0  0  0  0  0  0
   38.9480   22.5660   35.9650 C   0  0  0  0  0  0  0  0  0  0  0  0
   40.0570   22.4430   36.8120 C   0  0  0  0  0  0  0  0  0  0  0  0
   39.9020   22.8580   38.1070 N   0  0  0  0  0  0  0  0  0  0  0  0
   38.7620   23.3630   38.5810 C   0  0  0  0  0  0  0  0  0  0  0  0
   37.6790   23.4860   37.7650 N   0  0  0  0  0  0  0  0  0  0  0  0
   38.9880   22.0670   34.2430 S   0  0  0  0  0  0  0  0  0  0  0  0
   35.4000   22.6490   31.6310 N   0  0  0  0  0  0  0  0  0  0  0  0
   36.7150   22.9030   31.1080 C   0  0  0  0  0  0  0  0  0  0  0  0
   37.5890   23.3710   32.2670 C   0  0  0  0  0  0  0  0  0  0  0  0
   37.4380   22.4150   33.4110 C   0  0  0  0  0  0  0  0  0  0  0  0
   36.7770   21.1200   32.9810 C   0  0  0  0  0  0  0  0  0  0  0  0
   35.3920   21.4490   32.4360 C   0  0  0  0  0  0  0  0  0  0  0  0
   36.8721   23.2023   35.8235 H   0  0  0  0  0  0  0  0  0  0  0  0
   41.0111   22.0307   36.4519 H   0  0  0  0  0  0  0  0  0  0  0  0
   38.6968   23.6804   39.6322 H   0  0  0  0  0  0  0  0  0  0  0  0
   34.7411   22.5347   30.8476 H   0  0  0  0  0  0  0  0  0  0  0  0
   37.1302   21.9819   30.6731 H   0  0  0  0  0  0  0  0  0  0  0  0
   36.6761   23.6688   30.3193 H   0  0  0  0  0  0  0  0  0  0  0  0
   38.6411   23.3996   31.9470 H   0  0  0  0  0  0  0  0  0  0  0  0
   37.2792   24.3784   32.5820 H   0  0  0  0  0  0  0  0  0  0  0  0
   36.7824   22.9232   34.1334 H   0  0  0  0  0  0  0  0  0  0  0  0
   37.3798   20.6365   32.1981 H   0  0  0  0  0  0  0  0  0  0  0  0
   36.6949   20.4335   33.8365 H   0  0  0  0  0  0  0  0  0  0  0  0
   34.7023   21.5923   33.2809 H   0  0  0  0  0  0  0  0  0  0  0  0
   35.0697   20.6130   31.7979 H   0  0  0  0  0  0  0  0  0  0  0  0
  1  6  2  0
  2  1  1  0
  2  3  2  0
  3  4  1  0
  4  5  2  0
  6  5  1  0
  7  2  1  0
  8 13  1  0
  9  8  1  0
  9 10  1  0
 10 11  1  0
 11  7  1  0
 12 11  1  0
 13 12  1  0
  1 14  1  0
  3 15  1  0
  5 16  1  0
  8 17  1  0
  9 18  1  0
  9 19  1  0
 10 20  1  0
 10 21  1  0
 11 22  1  0
 12 23  1  0
 12 24  1  0
 13 25  1  0
 13 26  1  0
M  ISO  8  14  14  15  14  16  14  17   5  18  13  19  13  20  13  21  13
M  ISO  5  22  13  23  13  24  13  25  13  26  13
M  END
>  <minimizedAffinity>  (1) 
-3.59205675

>  <minimizedRMSD>  (1) 
6.00384712

$$$$
