
     RDKit          3D

 20 20  0  0  0  0  0  0  0  0999 V2000
   39.0280   22.1780   35.9040 C   0  0  0  0  0  0  0  0  0  0  0  0
   39.9690   22.4600   36.9100 C   0  0  0  0  0  0  0  0  0  0  0  0
   39.5260   23.0970   38.0770 C   0  0  0  0  0  0  0  0  0  0  0  0
   38.2020   23.4260   38.2020 N   0  0  0  0  0  0  0  0  0  0  0  0
   37.3290   23.1340   37.2010 C   0  0  0  0  0  0  0  0  0  0  0  0
   37.7440   22.5220   36.0790 N   0  0  0  0  0  0  0  0  0  0  0  0
   41.6910   22.0190   36.7240 S   0  0  0  0  0  0  0  0  0  0  0  0
   42.6370   23.2730   35.8510 C   0  0  0  0  0  0  0  0  0  0  0  0
   41.7830   24.3620   35.2400 C   0  0  0  0  0  0  0  0  0  0  0  0
   43.7020   23.9000   36.7140 C   0  0  0  0  0  0  0  0  0  0  0  0
   39.3440   21.6771   34.9770 H   0  0  0  0  0  0  0  0  0  0  0  0
   40.2348   23.3307   38.8851 H   0  0  0  0  0  0  0  0  0  0  0  0
   36.2680   23.4026   37.3114 H   0  0  0  0  0  0  0  0  0  0  0  0
   43.1195   22.7231   35.0295 H   0  0  0  0  0  0  0  0  0  0  0  0
   41.3175   24.9556   36.0406 H   0  0  0  0  0  0  0  0  0  0  0  0
   42.4120   25.0154   34.6175 H   0  0  0  0  0  0  0  0  0  0  0  0
   40.9985   23.9069   34.6175 H   0  0  0  0  0  0  0  0  0  0  0  0
   43.4494   23.7513   37.7742 H   0  0  0  0  0  0  0  0  0  0  0  0
   44.6726   23.4292   36.4988 H   0  0  0  0  0  0  0  0  0  0  0  0
   43.7612   24.9771   36.4988 H   0  0  0  0  0  0  0  0  0  0  0  0
  1  6  2  0
  1  2  1  0
  2  3  2  0
  3  4  1  0
  5  4  2  0
  6  5  1  0
  7  2  1  0
  8 10  1  0
  8  7  1  0
  9  8  1  0
  1 11  1  0
  3 12  1  0
  5 13  1  0
  8 14  1  0
  9 15  1  0
  9 16  1  0
  9 17  1  0
 10 18  1  0
 10 19  1  0
 10 20  1  0
M  ISO  8  11  14  12  14  13  14  14   8  15   8  16   8  17   8  18   8
M  ISO  2  19   8  20   8
M  END
>  <minimizedAffinity>  (1) 
-2.9376235

>  <minimizedRMSD>  (1) 
0.496263802

$$$$
