
     RDKit          3D

 18 19  0  0  0  0  0  0  0  0999 V2000
   39.7710   22.5260   36.6720 C   0  0  0  0  0  0  0  0  0  0  0  0
   38.5070   22.6390   36.0840 C   0  0  0  0  0  0  0  0  0  0  0  0
   37.4440   23.0970   36.8630 C   0  0  0  0  0  0  0  0  0  0  0  0
   37.6810   23.4190   38.1760 N   0  0  0  0  0  0  0  0  0  0  0  0
   38.9070   23.2990   38.7070 C   0  0  0  0  0  0  0  0  0  0  0  0
   39.9560   22.8530   37.9630 N   0  0  0  0  0  0  0  0  0  0  0  0
   38.2830   22.2000   34.3670 S   0  0  0  0  0  0  0  0  0  0  0  0
   37.7510   23.7030   33.5430 C   0  0  0  0  0  0  0  0  0  0  0  0
   37.1000   23.4900   32.3360 C   0  0  0  0  0  0  0  0  0  0  0  0
   36.7590   24.7120   31.8350 N   0  0  0  0  0  0  0  0  0  0  0  0
   37.1880   25.6410   32.7090 C   0  0  0  0  0  0  0  0  0  0  0  0
   37.7950   25.0450   33.7560 N   0  0  0  0  0  0  0  0  0  0  0  0
   40.6209   22.1666   36.0732 H   0  0  0  0  0  0  0  0  0  0  0  0
   36.4363   23.1980   36.4336 H   0  0  0  0  0  0  0  0  0  0  0  0
   39.0674   23.5657   39.7621 H   0  0  0  0  0  0  0  0  0  0  0  0
   36.8964   22.5150   31.8692 H   0  0  0  0  0  0  0  0  0  0  0  0
   37.0622   26.7270   32.5875 H   0  0  0  0  0  0  0  0  0  0  0  0
   38.2148   25.5197   34.5680 H   0  0  0  0  0  0  0  0  0  0  0  0
  1  6  2  0
  2  1  1  0
  2  3  2  0
  3  4  1  0
  4  5  2  0
  6  5  1  0
  7  2  1  0
  8 12  1  0
  8  7  1  0
  9  8  2  0
 10  9  1  0
 10 11  2  0
 11 12  1  0
  1 13  1  0
  3 14  1  0
  5 15  1  0
  9 16  1  0
 11 17  1  0
 12 18  1  0
M  ISO  6  13  14  14  14  15  14  16  14  17  14  18   9
M  END
>  <minimizedAffinity>  (1) 
-3.30234313

>  <minimizedRMSD>  (1) 
5.89520979

$$$$
