
     RDKit          3D

 14 14  0  0  0  0  0  0  0  0999 V2000
   40.2040   25.4130   34.9640 C   0  0  0  0  0  0  0  0  0  0  0  0
   39.3370   24.6010   35.6950 C   0  0  0  0  0  0  0  0  0  0  0  0
   38.2370   25.1800   36.3250 C   0  0  0  0  0  0  0  0  0  0  0  0
   38.0500   26.5390   36.1990 N   0  0  0  0  0  0  0  0  0  0  0  0
   38.9070   27.2800   35.4870 C   0  0  0  0  0  0  0  0  0  0  0  0
   39.9810   26.7530   34.8650 N   0  0  0  0  0  0  0  0  0  0  0  0
   39.6520   22.8400   35.7930 S   0  0  0  0  0  0  0  0  0  0  0  0
   40.6790   22.5300   37.2470 C   0  0  0  0  0  0  0  0  0  0  0  0
   40.1080   22.9790   38.4170 F   0  0  0  0  0  0  0  0  0  0  0  0
   40.9200   21.1500   37.2660 F   0  0  0  0  0  0  0  0  0  0  0  0
   41.9190   23.1580   37.1300 F   0  0  0  0  0  0  0  0  0  0  0  0
   41.0758   24.9671   34.4629 H   0  0  0  0  0  0  0  0  0  0  0  0
   37.5350   24.5666   36.9088 H   0  0  0  0  0  0  0  0  0  0  0  0
   38.7282   28.3623   35.4059 H   0  0  0  0  0  0  0  0  0  0  0  0
  1  2  2  0
  2  7  1  0
  2  3  1  0
  4  3  2  0
  5  4  1  0
  6  1  1  0
  6  5  2  0
  7  8  1  0
  8 10  1  0
  8  9  1  0
 11  8  1  0
  1 12  1  0
  3 13  1  0
  5 14  1  0
M  ISO  3  12  14  13  14  14  14
M  END
>  <minimizedAffinity>  (1) 
-3.31587625

>  <minimizedRMSD>  (1) 
3.8089757

$$$$
