
     RDKit          3D

 24 25  0  0  0  0  0  0  0  0999 V2000
   38.3590   23.7570   36.1310 C   0  0  0  0  0  0  0  0  0  0  0  0
   39.4810   23.0110   36.5000 C   0  0  0  0  0  0  0  0  0  0  0  0
   39.7510   22.8220   37.8670 C   0  0  0  0  0  0  0  0  0  0  0  0
   38.8810   23.3920   38.7510 N   0  0  0  0  0  0  0  0  0  0  0  0
   37.8120   24.1030   38.3730 C   0  0  0  0  0  0  0  0  0  0  0  0
   37.5400   24.2940   37.0520 N   0  0  0  0  0  0  0  0  0  0  0  0
   40.5360   22.3210   35.2130 S   0  0  0  0  0  0  0  0  0  0  0  0
   42.0510   21.8290   36.0440 C   0  0  0  0  0  0  0  0  0  0  0  0
   42.9670   23.0510   36.1010 C   0  0  0  0  0  0  0  0  0  0  0  0
   44.3350   22.4490   35.9790 C   0  0  0  0  0  0  0  0  0  0  0  0
   44.1810   20.9660   36.0100 C   0  0  0  0  0  0  0  0  0  0  0  0
   42.8590   20.7950   35.2620 C   0  0  0  0  0  0  0  0  0  0  0  0
   38.1409   23.9083   35.0635 H   0  0  0  0  0  0  0  0  0  0  0  0
   40.6217   22.2425   38.2077 H   0  0  0  0  0  0  0  0  0  0  0  0
   37.1478   24.5366   39.1351 H   0  0  0  0  0  0  0  0  0  0  0  0
   41.7543   21.4162   37.0195 H   0  0  0  0  0  0  0  0  0  0  0  0
   42.7615   23.7391   35.2677 H   0  0  0  0  0  0  0  0  0  0  0  0
   42.8357   23.6506   37.0138 H   0  0  0  0  0  0  0  0  0  0  0  0
   44.9655   22.7780   36.8182 H   0  0  0  0  0  0  0  0  0  0  0  0
   44.8144   22.7675   35.0416 H   0  0  0  0  0  0  0  0  0  0  0  0
   45.0085   20.4628   35.4883 H   0  0  0  0  0  0  0  0  0  0  0  0
   44.1906   20.5299   37.0198 H   0  0  0  0  0  0  0  0  0  0  0  0
   42.9454   21.0506   34.1956 H   0  0  0  0  0  0  0  0  0  0  0  0
   42.4455   19.7762   35.2303 H   0  0  0  0  0  0  0  0  0  0  0  0
  1  2  2  0
  1  6  1  0
  2  3  1  0
  3  4  2  0
  5  4  1  0
  6  5  2  0
  7  8  1  0
  7  2  1  0
  8  9  1  0
 10 11  1  0
 10  9  1  0
 12 11  1  0
 12  8  1  0
  1 13  1  0
  3 14  1  0
  5 15  1  0
  8 16  1  0
  9 17  1  0
  9 18  1  0
 10 19  1  0
 10 20  1  0
 11 21  1  0
 11 22  1  0
 12 23  1  0
 12 24  1  0
M  ISO  8  13  14  14  14  15  14  16  13  17  13  18  13  19  13  20  13
M  ISO  4  21  13  22  13  23  13  24  13
M  END
>  <minimizedAffinity>  (1) 
-3.22430158

>  <minimizedRMSD>  (1) 
2.6225009

$$$$
