
     RDKit          3D

 35 37  0  0  1  0  0  0  0  0999 V2000
   38.5460   23.9560   37.1480 C   0  0  0  0  0  0  0  0  0  0  0  0
   39.4270   23.0240   36.5700 C   0  0  0  0  0  0  0  0  0  0  0  0
   39.7110   23.1770   35.1870 C   0  0  0  0  0  0  0  0  0  0  0  0
   39.1230   24.1960   34.5240 N   0  0  0  0  0  0  0  0  0  0  0  0
   38.2890   25.0650   35.1030 C   0  0  0  0  0  0  0  0  0  0  0  0
   37.9870   24.9630   36.4130 N   0  0  0  0  0  0  0  0  0  0  0  0
   37.6510   26.1420   34.4240 N   0  0  0  0  0  0  0  0  0  0  0  0
   37.0700   27.2200   35.0040 C   0  0  0  0  0  0  0  0  0  0  0  0
   36.4840   28.1570   34.1990 C   0  0  0  0  0  0  0  0  0  0  0  0
   36.4920   27.9990   32.8360 C   0  0  0  0  0  0  0  0  0  0  0  0
   35.9570   28.8510   32.0900 O   0  0  0  0  0  0  0  0  0  0  0  0
   37.0770   26.9130   32.2470 N   0  0  0  0  0  0  0  0  0  0  0  0
   37.6470   26.0040   33.0730 C   0  0  0  0  0  0  0  0  0  0  0  0
   38.1670   25.0280   32.4600 O   0  0  0  0  0  0  0  0  0  0  0  0
   36.3770   27.7440   30.1040 N   0  0  0  0  0  0  0  0  0  0  0  0
   37.2050   28.6200   29.4020 C   0  0  0  0  0  0  0  0  0  0  0  0
   38.5990   28.2920   29.8630 C   0  0  0  0  0  0  0  0  0  0  0  0
   38.4870   26.8400   30.2470 C   0  0  0  0  0  0  0  0  0  0  0  0
   37.0720   26.7700   30.8060 C   0  0  1  0  0  0  0  0  0  0  0  0
   38.2100   23.8410   38.6040 C   0  0  0  0  0  0  0  0  0  0  0  0
   39.3560   23.5960   39.3570 F   0  0  0  0  0  0  0  0  0  0  0  0
   37.6660   25.0250   39.0510 F   0  0  0  0  0  0  0  0  0  0  0  0
   37.2770   22.8190   38.7660 F   0  0  0  0  0  0  0  0  0  0  0  0
   39.8757   22.2132   37.1626 H   0  0  0  0  0  0  0  0  0  0  0  0
   40.3914   22.4844   34.6699 H   0  0  0  0  0  0  0  0  0  0  0  0
   37.0698   27.3386   36.0976 H   0  0  0  0  0  0  0  0  0  0  0  0
   36.0045   29.0405   34.6456 H   0  0  0  0  0  0  0  0  0  0  0  0
   35.7511   27.2776   29.4320 H   0  0  0  0  0  0  0  0  0  0  0  0
   36.9544   29.6641   29.6410 H   0  0  0  0  0  0  0  0  0  0  0  0
   37.0935   28.5107   28.3131 H   0  0  0  0  0  0  0  0  0  0  0  0
   39.3286   28.4328   29.0519 H   0  0  0  0  0  0  0  0  0  0  0  0
   38.9503   28.9349   30.6835 H   0  0  0  0  0  0  0  0  0  0  0  0
   38.6039   26.1846   29.3713 H   0  0  0  0  0  0  0  0  0  0  0  0
   39.2608   26.5068   30.9542 H   0  0  0  0  0  0  0  0  0  0  0  0
   36.5766   25.7979   30.6659 H   0  0  0  0  0  0  0  0  0  0  0  0
  1 20  1  0
  2  1  2  0
  3  2  1  0
  4  5  1  0
  4  3  2  0
  5  6  2  0
  6  1  1  0
  7  8  1  0
  7  5  1  0
  9  8  2  0
 10  9  1  0
 11 10  2  0
 12 10  1  0
 12 13  1  0
 13  7  1  0
 14 13  2  0
 15 19  1  0
 16 17  1  0
 16 15  1  0
 17 18  1  0
 19 18  1  0
 19 12  1  0
 20 23  1  0
 20 22  1  0
 20 21  1  0
  2 24  1  0
  3 25  1  0
  8 26  1  0
  9 27  1  0
 15 28  1  0
 16 29  1  0
 16 30  1  0
 17 31  1  0
 17 32  1  0
 18 33  1  0
 18 34  1  0
 19 35  1  1
M  ISO  8  24  14  25  14  26  14  27  14  28   5  29  13  30  13  31  13
M  ISO  4  32  13  33  13  34  13  35  13
M  END
>  <minimizedAffinity>  (1) 
-6.65291405

>  <minimizedRMSD>  (1) 
0.525537431

$$$$
