
     RDKit          3D

 26 27  0  0  0  0  0  0  0  0999 V2000
   38.3730   23.7870   37.1030 C   0  0  0  0  0  0  0  0  0  0  0  0
   39.0100   22.7090   36.4350 C   0  0  0  0  0  0  0  0  0  0  0  0
   39.0820   22.7830   35.0270 C   0  0  0  0  0  0  0  0  0  0  0  0
   38.5500   23.8570   34.4040 N   0  0  0  0  0  0  0  0  0  0  0  0
   37.9550   24.8600   35.0640 C   0  0  0  0  0  0  0  0  0  0  0  0
   37.8610   24.8340   36.4120 N   0  0  0  0  0  0  0  0  0  0  0  0
   37.3870   26.0000   34.4430 N   0  0  0  0  0  0  0  0  0  0  0  0
   37.1100   27.1750   35.0280 C   0  0  0  0  0  0  0  0  0  0  0  0
   36.5520   28.1790   34.2640 C   0  0  0  0  0  0  0  0  0  0  0  0
   36.2840   27.9930   32.9470 C   0  0  0  0  0  0  0  0  0  0  0  0
   35.7760   28.8860   32.2240 O   0  0  0  0  0  0  0  0  0  0  0  0
   36.5710   26.8050   32.3850 N   0  0  0  0  0  0  0  0  0  0  0  0
   37.1180   25.8180   33.1270 C   0  0  0  0  0  0  0  0  0  0  0  0
   37.3440   24.7400   32.4760 O   0  0  0  0  0  0  0  0  0  0  0  0
   38.2700   23.7590   38.5920 C   0  0  0  0  0  0  0  0  0  0  0  0
   39.5290   23.5180   39.1770 F   0  0  0  0  0  0  0  0  0  0  0  0
   37.8500   25.0050   39.0500 F   0  0  0  0  0  0  0  0  0  0  0  0
   37.3600   22.7990   38.9630 F   0  0  0  0  0  0  0  0  0  0  0  0
   36.2740   26.6210   30.9560 C   0  0  0  0  0  0  0  0  0  0  0  0
   35.0780   25.9700   30.8120 F   0  0  0  0  0  0  0  0  0  0  0  0
   36.2430   27.8430   30.3060 F   0  0  0  0  0  0  0  0  0  0  0  0
   37.3400   25.8860   30.4300 F   0  0  0  0  0  0  0  0  0  0  0  0
   39.4282   21.8554   36.9886 H   0  0  0  0  0  0  0  0  0  0  0  0
   39.5626   21.9807   34.4479 H   0  0  0  0  0  0  0  0  0  0  0  0
   37.3235   27.3347   36.0952 H   0  0  0  0  0  0  0  0  0  0  0  0
   36.3202   29.1477   34.7309 H   0  0  0  0  0  0  0  0  0  0  0  0
  1 15  1  0
  2  1  2  0
  3  2  1  0
  4  3  2  0
  4  5  1  0
  5  6  2  0
  6  1  1  0
  7  8  1  0
  7  5  1  0
  9  8  2  0
 10  9  1  0
 11 10  2  0
 12 10  1  0
 12 13  1  0
 13  7  1  0
 14 13  2  0
 15 18  1  0
 15 17  1  0
 15 16  1  0
 19 12  1  0
 20 19  1  0
 21 19  1  0
 22 19  1  0
  2 23  1  0
  3 24  1  0
  8 25  1  0
  9 26  1  0
M  ISO  4  23  14  24  14  25  14  26  14
M  END
>  <minimizedAffinity>  (1) 
-6.36855698

>  <minimizedRMSD>  (1) 
0.439966887

$$$$
