
     RDKit          3D

 31 33  0  0  0  0  0  0  0  0999 V2000
   43.5850   23.9480   36.8130 C   0  0  0  0  0  0  0  0  0  0  0  0
   44.4420   24.9630   36.1960 C   0  0  0  0  0  0  0  0  0  0  0  0
   43.9790   25.6970   35.1400 N   0  0  0  0  0  0  0  0  0  0  0  0
   44.7000   26.6480   34.5340 C   0  0  0  0  0  0  0  0  0  0  0  0
   45.9520   26.9730   34.9100 N   0  0  0  0  0  0  0  0  0  0  0  0
   46.4510   26.2770   35.9480 C   0  0  0  0  0  0  0  0  0  0  0  0
   47.7340   26.5740   36.3670 C   0  0  0  0  0  0  0  0  0  0  0  0
   48.2330   25.8490   37.4280 C   0  0  0  0  0  0  0  0  0  0  0  0
   47.5250   24.8490   38.0930 C   0  0  0  0  0  0  0  0  0  0  0  0
   46.2300   24.5630   37.6560 C   0  0  0  0  0  0  0  0  0  0  0  0
   45.7230   25.2830   36.5950 C   0  0  0  0  0  0  0  0  0  0  0  0
   42.6660   23.2180   35.8980 C   0  0  0  0  0  0  0  0  0  0  0  0
   41.6840   21.9410   36.7270 S   0  0  0  0  0  0  0  0  0  0  0  0
   39.0670   22.2650   35.9250 C   0  0  0  0  0  0  0  0  0  0  0  0
   39.9910   22.4680   36.9730 C   0  0  0  0  0  0  0  0  0  0  0  0
   39.5920   23.0680   38.1680 C   0  0  0  0  0  0  0  0  0  0  0  0
   38.2740   23.4560   38.2980 N   0  0  0  0  0  0  0  0  0  0  0  0
   37.4170   23.2460   37.2760 C   0  0  0  0  0  0  0  0  0  0  0  0
   37.7870   22.6710   36.1220 N   0  0  0  0  0  0  0  0  0  0  0  0
   44.2381   23.2055   37.2949 H   0  0  0  0  0  0  0  0  0  0  0  0
   42.9327   24.4971   37.5080 H   0  0  0  0  0  0  0  0  0  0  0  0
   44.2490   27.1895   33.6894 H   0  0  0  0  0  0  0  0  0  0  0  0
   48.3315   27.3555   35.8749 H   0  0  0  0  0  0  0  0  0  0  0  0
   49.2536   26.0736   37.7714 H   0  0  0  0  0  0  0  0  0  0  0  0
   47.9727   24.3022   38.9359 H   0  0  0  0  0  0  0  0  0  0  0  0
   45.6292   23.7827   38.1460 H   0  0  0  0  0  0  0  0  0  0  0  0
   43.2666   22.7389   35.1108 H   0  0  0  0  0  0  0  0  0  0  0  0
   41.9593   23.9569   35.4923 H   0  0  0  0  0  0  0  0  0  0  0  0
   39.3744   21.7933   34.9800 H   0  0  0  0  0  0  0  0  0  0  0  0
   40.3100   23.2277   38.9859 H   0  0  0  0  0  0  0  0  0  0  0  0
   36.3696   23.5602   37.3949 H   0  0  0  0  0  0  0  0  0  0  0  0
  2 11  1  0
  2  1  1  0
  3  2  2  0
  4  5  2  0
  4  3  1  0
  5  6  1  0
  6  7  1  0
  6 11  2  0
  7  8  2  0
  8  9  1  0
 10  9  2  0
 11 10  1  0
 12 13  1  0
 12  1  1  0
 13 15  1  0
 14 19  2  0
 14 15  1  0
 15 16  2  0
 16 17  1  0
 18 17  2  0
 19 18  1  0
  1 20  1  0
  1 21  1  0
  4 22  1  0
  7 23  1  0
  8 24  1  0
  9 25  1  0
 10 26  1  0
 12 27  1  0
 12 28  1  0
 14 29  1  0
 16 30  1  0
 18 31  1  0
M  ISO  8  20   8  21   8  22  14  23  14  24  14  25  14  26  14  27   8
M  ISO  4  28   8  29  14  30  14  31  14
M  END
>  <minimizedAffinity>  (1) 
-4.51705217

>  <minimizedRMSD>  (1) 
1.21304774

$$$$
