
     RDKit          3D

 27 28  0  0  0  0  0  0  0  0999 V2000
   43.2280   22.8210   35.7970 C   0  0  0  0  0  0  0  0  0  0  0  0
   43.3070   24.1900   36.3950 C   0  0  0  0  0  0  0  0  0  0  0  0
   44.6300   24.4320   36.9850 C   0  0  0  0  0  0  0  0  0  0  0  0
   44.6700   25.3530   38.0160 C   0  0  0  0  0  0  0  0  0  0  0  0
   45.8330   25.6960   38.6800 C   0  0  0  0  0  0  0  0  0  0  0  0
   47.0190   25.0950   38.3050 C   0  0  0  0  0  0  0  0  0  0  0  0
   46.9700   24.1790   37.2790 C   0  0  0  0  0  0  0  0  0  0  0  0
   45.8140   23.8300   36.6100 C   0  0  0  0  0  0  0  0  0  0  0  0
   42.1710   21.6970   36.7470 S   0  0  0  0  0  0  0  0  0  0  0  0
   39.6770   22.2100   35.7310 C   0  0  0  0  0  0  0  0  0  0  0  0
   40.5070   22.2910   36.8710 C   0  0  0  0  0  0  0  0  0  0  0  0
   39.9920   22.8370   38.0550 C   0  0  0  0  0  0  0  0  0  0  0  0
   38.6940   23.2720   38.0640 N   0  0  0  0  0  0  0  0  0  0  0  0
   37.9320   23.1790   36.9580 C   0  0  0  0  0  0  0  0  0  0  0  0
   38.4040   22.6570   35.8010 N   0  0  0  0  0  0  0  0  0  0  0  0
   42.8233   22.9060   34.7777 H   0  0  0  0  0  0  0  0  0  0  0  0
   44.2443   22.4002   35.8000 H   0  0  0  0  0  0  0  0  0  0  0  0
   43.1217   24.9369   35.6090 H   0  0  0  0  0  0  0  0  0  0  0  0
   42.5498   24.2694   37.1889 H   0  0  0  0  0  0  0  0  0  0  0  0
   43.7306   25.8362   38.3226 H   0  0  0  0  0  0  0  0  0  0  0  0
   45.8143   26.4357   39.4940 H   0  0  0  0  0  0  0  0  0  0  0  0
   47.9666   25.3393   38.8074 H   0  0  0  0  0  0  0  0  0  0  0  0
   47.9095   23.6954   36.9733 H   0  0  0  0  0  0  0  0  0  0  0  0
   45.8360   23.0894   35.7970 H   0  0  0  0  0  0  0  0  0  0  0  0
   40.0644   21.7860   34.7928 H   0  0  0  0  0  0  0  0  0  0  0  0
   40.6170   22.9142   38.9569 H   0  0  0  0  0  0  0  0  0  0  0  0
   36.8930   23.5384   36.9953 H   0  0  0  0  0  0  0  0  0  0  0  0
  1  2  1  0
  1  9  1  0
  2  3  1  0
  3  4  2  0
  4  5  1  0
  6  5  2  0
  7  6  1  0
  8  3  1  0
  8  7  2  0
  9 11  1  0
 10 15  2  0
 10 11  1  0
 11 12  2  0
 12 13  1  0
 14 13  2  0
 15 14  1  0
  1 16  1  0
  1 17  1  0
  2 18  1  0
  2 19  1  0
  4 20  1  0
  5 21  1  0
  6 22  1  0
  7 23  1  0
  8 24  1  0
 10 25  1  0
 12 26  1  0
 14 27  1  0
M  ISO  8  16   8  17   8  18   8  19   8  20  14  21  14  22  14  23  14
M  ISO  4  24  14  25  14  26  14  27  14
M  END
>  <minimizedAffinity>  (1) 
-4.34571171

>  <minimizedRMSD>  (1) 
1.92437911

$$$$
