
     RDKit          3D

 30 31  0  0  0  0  0  0  0  0999 V2000
   42.5390   23.9650   35.4010 C   0  0  0  0  0  0  0  0  0  0  0  0
   43.3270   23.8140   36.6850 C   0  0  0  0  0  0  0  0  0  0  0  0
   46.8700   26.1960   36.0890 C   0  0  0  0  0  0  0  0  0  0  0  0
   45.8380   26.1950   35.1610 C   0  0  0  0  0  0  0  0  0  0  0  0
   44.7190   25.4230   35.3810 C   0  0  0  0  0  0  0  0  0  0  0  0
   44.5760   24.6360   36.5020 C   0  0  0  0  0  0  0  0  0  0  0  0
   45.6080   24.6310   37.4390 C   0  0  0  0  0  0  0  0  0  0  0  0
   46.7290   25.4130   37.2060 C   0  0  0  0  0  0  0  0  0  0  0  0
   48.3190   27.1550   35.8680 S   0  0  0  0  0  0  0  0  0  0  0  0
   49.2360   26.5120   34.8620 O   0  0  0  0  0  0  0  0  0  0  0  0
   49.0170   27.4500   37.1600 O   0  0  0  0  0  0  0  0  0  0  0  0
   41.1190   22.8680   35.3160 S   0  0  0  0  0  0  0  0  0  0  0  0
   38.8470   24.1990   36.0410 C   0  0  0  0  0  0  0  0  0  0  0  0
   39.8470   23.3250   36.4700 C   0  0  0  0  0  0  0  0  0  0  0  0
   39.8180   22.8410   37.7820 C   0  0  0  0  0  0  0  0  0  0  0  0
   38.7890   23.2540   38.6000 N   0  0  0  0  0  0  0  0  0  0  0  0
   37.8440   24.0980   38.1490 C   0  0  0  0  0  0  0  0  0  0  0  0
   37.8640   24.5670   36.8910 N   0  0  0  0  0  0  0  0  0  0  0  0
   42.1845   25.0037   35.3274 H   0  0  0  0  0  0  0  0  0  0  0  0
   43.2096   23.7002   34.5702 H   0  0  0  0  0  0  0  0  0  0  0  0
   42.7434   24.1895   37.5385 H   0  0  0  0  0  0  0  0  0  0  0  0
   43.5639   22.7599   36.8918 H   0  0  0  0  0  0  0  0  0  0  0  0
   45.9137   26.8095   34.2518 H   0  0  0  0  0  0  0  0  0  0  0  0
   43.9108   25.4354   34.6349 H   0  0  0  0  0  0  0  0  0  0  0  0
   45.5342   24.0167   38.3485 H   0  0  0  0  0  0  0  0  0  0  0  0
   47.5401   25.4050   37.9490 H   0  0  0  0  0  0  0  0  0  0  0  0
   47.9317   28.3700   35.3673 H   0  0  0  0  0  0  0  0  0  0  0  0
   38.8594   24.5876   35.0120 H   0  0  0  0  0  0  0  0  0  0  0  0
   40.5927   22.1519   38.1494 H   0  0  0  0  0  0  0  0  0  0  0  0
   37.0360   24.4114   38.8264 H   0  0  0  0  0  0  0  0  0  0  0  0
  1  2  1  0
  3  8  2  0
  4  5  2  0
  4  3  1  0
  5  6  1  0
  6  2  1  0
  6  7  2  0
  8  7  1  0
  9  3  1  0
  9 11  2  0
 10  9  2  0
 12  1  1  0
 12 14  1  0
 13 14  2  0
 13 18  1  0
 14 15  1  0
 15 16  2  0
 17 16  1  0
 18 17  2  0
  1 19  1  0
  1 20  1  0
  2 21  1  0
  2 22  1  0
  4 23  1  0
  5 24  1  0
  7 25  1  0
  8 26  1  0
  9 27  1  0
 13 28  1  0
 15 29  1  0
 17 30  1  0
M  ISO  8  19   8  20   8  21   8  22   8  23  14  24  14  25  14  26  14
M  ISO  4  27  11  28  14  29  14  30  14
M  END
>  <minimizedAffinity>  (1) 
-4.02359152

>  <minimizedRMSD>  (1) 
2.19876742

$$$$
