
     RDKit          3D

 24 25  0  0  0  0  0  0  0  0999 V2000
   43.0130   24.2740   35.7710 C   0  0  0  0  0  0  0  0  0  0  0  0
   44.5030   24.1510   35.9860 C   0  0  0  0  0  0  0  0  0  0  0  0
   44.9870   24.8430   37.1900 C   0  0  0  0  0  0  0  0  0  0  0  0
   46.1490   24.6210   37.9140 C   0  0  0  0  0  0  0  0  0  0  0  0
   46.2160   25.4760   38.9570 N   0  0  0  0  0  0  0  0  0  0  0  0
   45.1170   26.2330   38.9040 C   0  0  0  0  0  0  0  0  0  0  0  0
   44.3800   25.8510   37.8430 N   0  0  0  0  0  0  0  0  0  0  0  0
   42.0760   22.7970   36.1870 S   0  0  0  0  0  0  0  0  0  0  0  0
   39.5840   23.8490   35.7880 C   0  0  0  0  0  0  0  0  0  0  0  0
   40.4090   23.1890   36.6980 C   0  0  0  0  0  0  0  0  0  0  0  0
   39.9200   22.8560   37.9610 C   0  0  0  0  0  0  0  0  0  0  0  0
   38.6350   23.2020   38.2460 N   0  0  0  0  0  0  0  0  0  0  0  0
   37.8420   23.8380   37.3680 C   0  0  0  0  0  0  0  0  0  0  0  0
   38.3120   24.1650   36.1340 N   0  0  0  0  0  0  0  0  0  0  0  0
   42.6432   25.1023   36.3933 H   0  0  0  0  0  0  0  0  0  0  0  0
   42.8651   24.4458   34.6946 H   0  0  0  0  0  0  0  0  0  0  0  0
   44.7539   23.0837   36.0747 H   0  0  0  0  0  0  0  0  0  0  0  0
   44.9920   24.6275   35.1236 H   0  0  0  0  0  0  0  0  0  0  0  0
   46.9056   23.8596   37.6736 H   0  0  0  0  0  0  0  0  0  0  0  0
   44.8567   27.0355   39.6098 H   0  0  0  0  0  0  0  0  0  0  0  0
   43.4798   26.2708   37.5703 H   0  0  0  0  0  0  0  0  0  0  0  0
   39.9650   24.1130   34.7904 H   0  0  0  0  0  0  0  0  0  0  0  0
   40.5483   22.3342   38.6979 H   0  0  0  0  0  0  0  0  0  0  0  0
   36.8097   24.0951   37.6476 H   0  0  0  0  0  0  0  0  0  0  0  0
  1  2  1  0
  1  8  1  0
  2  3  1  0
  3  7  1  0
  3  4  2  0
  4  5  1  0
  6  5  2  0
  7  6  1  0
  8 10  1  0
  9 14  2  0
  9 10  1  0
 10 11  2  0
 11 12  1  0
 13 12  2  0
 14 13  1  0
  1 15  1  0
  1 16  1  0
  2 17  1  0
  2 18  1  0
  4 19  1  0
  6 20  1  0
  7 21  1  0
  9 22  1  0
 11 23  1  0
 13 24  1  0
M  ISO  8  15   8  16   8  17   8  18   8  19  14  20  14  21   9  22  14
M  ISO  2  23  14  24  14
M  END
>  <minimizedAffinity>  (1) 
-3.69262004

>  <minimizedRMSD>  (1) 
1.74484801

$$$$
