
     RDKit          3D

 25 26  0  0  0  0  0  0  0  0999 V2000
   42.9960   22.4200   36.1080 C   0  0  0  0  0  0  0  0  0  0  0  0
   42.9860   23.9040   36.4080 C   0  0  0  0  0  0  0  0  0  0  0  0
   44.3810   24.2490   36.8600 C   0  0  0  0  0  0  0  0  0  0  0  0
   44.6050   25.2680   37.7620 C   0  0  0  0  0  0  0  0  0  0  0  0
   45.9180   25.5000   38.1090 C   0  0  0  0  0  0  0  0  0  0  0  0
   46.9770   24.8090   37.6330 N   0  0  0  0  0  0  0  0  0  0  0  0
   46.7020   23.8200   36.7500 C   0  0  0  0  0  0  0  0  0  0  0  0
   45.4300   23.5510   36.3780 N   0  0  0  0  0  0  0  0  0  0  0  0
   41.7920   21.5060   37.0770 S   0  0  0  0  0  0  0  0  0  0  0  0
   39.3960   22.2350   35.8970 C   0  0  0  0  0  0  0  0  0  0  0  0
   40.1890   22.3020   37.0480 C   0  0  0  0  0  0  0  0  0  0  0  0
   39.7160   22.9940   38.1670 C   0  0  0  0  0  0  0  0  0  0  0  0
   38.4750   23.5850   38.0810 N   0  0  0  0  0  0  0  0  0  0  0  0
   37.7440   23.4970   36.9560 C   0  0  0  0  0  0  0  0  0  0  0  0
   38.1950   22.8270   35.8660 N   0  0  0  0  0  0  0  0  0  0  0  0
   42.7709   22.2756   35.0410 H   0  0  0  0  0  0  0  0  0  0  0  0
   43.9927   22.0358   36.3705 H   0  0  0  0  0  0  0  0  0  0  0  0
   42.7257   24.4743   35.5041 H   0  0  0  0  0  0  0  0  0  0  0  0
   42.2412   24.1530   37.1783 H   0  0  0  0  0  0  0  0  0  0  0  0
   43.7804   25.8630   38.1815 H   0  0  0  0  0  0  0  0  0  0  0  0
   46.1192   26.3084   38.8274 H   0  0  0  0  0  0  0  0  0  0  0  0
   47.5263   23.2260   36.3286 H   0  0  0  0  0  0  0  0  0  0  0  0
   39.7612   21.6928   35.0123 H   0  0  0  0  0  0  0  0  0  0  0  0
   40.3157   23.0641   39.0865 H   0  0  0  0  0  0  0  0  0  0  0  0
   36.7564   23.9799   36.9185 H   0  0  0  0  0  0  0  0  0  0  0  0
  1  2  1  0
  1  9  1  0
  2  3  1  0
  3  4  2  0
  4  5  1  0
  6  5  2  0
  7  6  1  0
  8  7  2  0
  8  3  1  0
 10 11  2  0
 11  9  1  0
 11 12  1  0
 13 12  2  0
 14 13  1  0
 15 10  1  0
 15 14  2  0
  1 16  1  0
  1 17  1  0
  2 18  1  0
  2 19  1  0
  4 20  1  0
  5 21  1  0
  7 22  1  0
 10 23  1  0
 12 24  1  0
 14 25  1  0
M  ISO  8  16   8  17   8  18   8  19   8  20  14  21  14  22  14  23  14
M  ISO  2  24  14  25  14
M  END
>  <minimizedAffinity>  (1) 
-3.78717232

>  <minimizedRMSD>  (1) 
2.15135908

$$$$
