
     RDKit          3D

 30 31  0  0  0  0  0  0  0  0999 V2000
   44.0730   23.5210   35.7560 C   0  0  0  0  0  0  0  0  0  0  0  0
   43.7030   24.8760   36.3290 C   0  0  0  0  0  0  0  0  0  0  0  0
   44.9190   25.3350   37.0890 C   0  0  0  0  0  0  0  0  0  0  0  0
   45.9870   24.3010   37.1950 C   0  0  0  0  0  0  0  0  0  0  0  0
   46.8950   24.9080   38.2740 C   0  0  0  0  0  0  0  0  0  0  0  0
   46.0600   25.9730   38.9680 C   0  0  0  0  0  0  0  0  0  0  0  0
   44.6220   25.6430   38.5410 C   0  0  0  0  0  0  0  0  0  0  0  0
   43.0010   22.1930   36.3660 S   0  0  0  0  0  0  0  0  0  0  0  0
   40.6960   23.3010   35.3400 C   0  0  0  0  0  0  0  0  0  0  0  0
   41.2990   22.7340   36.4650 C   0  0  0  0  0  0  0  0  0  0  0  0
   40.5670   22.5960   37.6570 C   0  0  0  0  0  0  0  0  0  0  0  0
   39.2620   23.0320   37.6650 N   0  0  0  0  0  0  0  0  0  0  0  0
   38.7250   23.5710   36.5570 C   0  0  0  0  0  0  0  0  0  0  0  0
   39.4070   23.7120   35.4040 N   0  0  0  0  0  0  0  0  0  0  0  0
   43.9892   23.5666   34.6601 H   0  0  0  0  0  0  0  0  0  0  0  0
   45.1011   23.2932   36.0740 H   0  0  0  0  0  0  0  0  0  0  0  0
   43.4646   25.5833   35.5210 H   0  0  0  0  0  0  0  0  0  0  0  0
   42.8148   24.8178   36.9753 H   0  0  0  0  0  0  0  0  0  0  0  0
   45.2363   26.2137   36.5083 H   0  0  0  0  0  0  0  0  0  0  0  0
   45.5771   23.3312   37.5137 H   0  0  0  0  0  0  0  0  0  0  0  0
   46.4999   24.0871   36.2457 H   0  0  0  0  0  0  0  0  0  0  0  0
   47.2046   24.1353   38.9931 H   0  0  0  0  0  0  0  0  0  0  0  0
   47.8120   25.3324   37.8393 H   0  0  0  0  0  0  0  0  0  0  0  0
   46.1697   25.9073   40.0605 H   0  0  0  0  0  0  0  0  0  0  0  0
   46.3615   26.9954   38.6964 H   0  0  0  0  0  0  0  0  0  0  0  0
   43.9424   26.5001   38.6577 H   0  0  0  0  0  0  0  0  0  0  0  0
   44.1096   24.8559   39.1136 H   0  0  0  0  0  0  0  0  0  0  0  0
   41.2657   23.4133   34.4057 H   0  0  0  0  0  0  0  0  0  0  0  0
   41.0230   22.1535   38.5549 H   0  0  0  0  0  0  0  0  0  0  0  0
   37.6801   23.9128   36.5935 H   0  0  0  0  0  0  0  0  0  0  0  0
  1  2  1  0
  1  8  1  0
  2  3  1  0
  3  4  1  0
  3  7  1  0
  4  5  1  0
  5  6  1  0
  7  6  1  0
  8 10  1  0
  9 14  2  0
  9 10  1  0
 10 11  2  0
 11 12  1  0
 13 12  2  0
 14 13  1  0
  1 15  1  0
  1 16  1  0
  2 17  1  0
  2 18  1  0
  3 19  1  0
  4 20  1  0
  4 21  1  0
  5 22  1  0
  5 23  1  0
  6 24  1  0
  6 25  1  0
  7 26  1  0
  7 27  1  0
  9 28  1  0
 11 29  1  0
 13 30  1  0
M  ISO  8  15   8  16   8  17   8  18   8  19  13  20  13  21  13  22  13
M  ISO  8  23  13  24  13  25  13  26  13  27  13  28  14  29  14  30  14
M  END
>  <minimizedAffinity>  (1) 
-3.87689161

>  <minimizedRMSD>  (1) 
2.12604094

$$$$
