
     RDKit          3D

 27 28  0  0  0  0  0  0  0  0999 V2000
   42.2570   23.3660   35.3780 C   0  0  0  0  0  0  0  0  0  0  0  0
   43.2310   23.3040   36.5320 C   0  0  0  0  0  0  0  0  0  0  0  0
   44.2210   24.4200   36.3070 C   0  0  0  0  0  0  0  0  0  0  0  0
   44.1250   25.3760   35.3180 C   0  0  0  0  0  0  0  0  0  0  0  0
   45.1220   26.3440   35.2400 C   0  0  0  0  0  0  0  0  0  0  0  0
   46.1940   26.3860   36.1060 C   0  0  0  0  0  0  0  0  0  0  0  0
   46.2760   25.4180   37.0960 C   0  0  0  0  0  0  0  0  0  0  0  0
   45.2920   24.4460   37.1880 C   0  0  0  0  0  0  0  0  0  0  0  0
   40.9260   22.1680   35.4620 S   0  0  0  0  0  0  0  0  0  0  0  0
   38.3380   22.8360   36.1100 C   0  0  0  0  0  0  0  0  0  0  0  0
   39.6430   22.6760   36.6020 C   0  0  0  0  0  0  0  0  0  0  0  0
   39.9100   22.9130   37.9530 C   0  0  0  0  0  0  0  0  0  0  0  0
   38.8820   23.2970   38.7620 N   0  0  0  0  0  0  0  0  0  0  0  0
   37.6320   23.4430   38.2580 C   0  0  0  0  0  0  0  0  0  0  0  0
   37.3670   23.2150   36.9530 N   0  0  0  0  0  0  0  0  0  0  0  0
   42.8164   23.1930   34.4468 H   0  0  0  0  0  0  0  0  0  0  0  0
   41.7863   24.3594   35.4194 H   0  0  0  0  0  0  0  0  0  0  0  0
   42.7023   23.4496   37.4856 H   0  0  0  0  0  0  0  0  0  0  0  0
   43.7330   22.3264   36.5810 H   0  0  0  0  0  0  0  0  0  0  0  0
   43.2833   25.3737   34.6099 H   0  0  0  0  0  0  0  0  0  0  0  0
   45.0516   27.1091   34.4529 H   0  0  0  0  0  0  0  0  0  0  0  0
   46.9638   27.1664   36.0142 H   0  0  0  0  0  0  0  0  0  0  0  0
   47.1175   25.4216   37.8044 H   0  0  0  0  0  0  0  0  0  0  0  0
   45.3619   23.6805   37.9749 H   0  0  0  0  0  0  0  0  0  0  0  0
   38.1155   22.6531   35.0484 H   0  0  0  0  0  0  0  0  0  0  0  0
   40.9269   22.7924   38.3548 H   0  0  0  0  0  0  0  0  0  0  0  0
   36.8155   23.7540   38.9263 H   0  0  0  0  0  0  0  0  0  0  0  0
  1  9  1  0
  1  2  1  0
  3  2  1  0
  3  8  1  0
  4  3  2  0
  5  4  1  0
  5  6  2  0
  6  7  1  0
  7  8  2  0
  9 11  1  0
 10 11  2  0
 10 15  1  0
 11 12  1  0
 12 13  2  0
 14 13  1  0
 15 14  2  0
  1 16  1  0
  1 17  1  0
  2 18  1  0
  2 19  1  0
  4 20  1  0
  5 21  1  0
  6 22  1  0
  7 23  1  0
  8 24  1  0
 10 25  1  0
 12 26  1  0
 14 27  1  0
M  ISO  8  16   8  17   8  18   8  19   8  20  14  21  14  22  14  23  14
M  ISO  4  24  14  25  14  26  14  27  14
M  END
>  <minimizedAffinity>  (1) 
-3.73617673

>  <minimizedRMSD>  (1) 
1.34237444

$$$$
