
     RDKit          3D

 24 25  0  0  0  0  0  0  0  0999 V2000
   42.7680   22.9270   35.6040 C   0  0  0  0  0  0  0  0  0  0  0  0
   44.2070   22.7780   36.0440 C   0  0  0  0  0  0  0  0  0  0  0  0
   44.7120   24.0770   36.5960 C   0  0  0  0  0  0  0  0  0  0  0  0
   45.9110   24.3590   37.1910 C   0  0  0  0  0  0  0  0  0  0  0  0
   45.9150   25.6930   37.5340 C   0  0  0  0  0  0  0  0  0  0  0  0
   44.7140   26.1670   37.1320 N   0  0  0  0  0  0  0  0  0  0  0  0
   43.9800   25.2040   36.5660 N   0  0  0  0  0  0  0  0  0  0  0  0
   41.6850   21.6470   36.2470 S   0  0  0  0  0  0  0  0  0  0  0  0
   39.0210   22.2660   35.9040 C   0  0  0  0  0  0  0  0  0  0  0  0
   40.1130   22.3100   36.7770 C   0  0  0  0  0  0  0  0  0  0  0  0
   39.9650   22.8720   38.0540 C   0  0  0  0  0  0  0  0  0  0  0  0
   38.7260   23.3670   38.4060 N   0  0  0  0  0  0  0  0  0  0  0  0
   37.7060   23.3020   37.5300 C   0  0  0  0  0  0  0  0  0  0  0  0
   37.8270   22.7620   36.2890 N   0  0  0  0  0  0  0  0  0  0  0  0
   42.3974   23.9029   35.9507 H   0  0  0  0  0  0  0  0  0  0  0  0
   42.7548   22.8407   34.5075 H   0  0  0  0  0  0  0  0  0  0  0  0
   44.2717   22.0023   36.8212 H   0  0  0  0  0  0  0  0  0  0  0  0
   44.8213   22.4908   35.1779 H   0  0  0  0  0  0  0  0  0  0  0  0
   46.7294   23.6449   37.3652 H   0  0  0  0  0  0  0  0  0  0  0  0
   46.7222   26.2529   38.0289 H   0  0  0  0  0  0  0  0  0  0  0  0
   44.4051   27.1429   37.2470 H   0  0  0  0  0  0  0  0  0  0  0  0
   39.1360   21.8264   34.9022 H   0  0  0  0  0  0  0  0  0  0  0  0
   40.8121   22.9167   38.7543 H   0  0  0  0  0  0  0  0  0  0  0  0
   36.7284   23.7051   37.8331 H   0  0  0  0  0  0  0  0  0  0  0  0
  1  2  1  0
  1  8  1  0
  2  3  1  0
  3  4  1  0
  4  5  2  0
  6  5  1  0
  7  3  2  0
  7  6  1  0
  8 10  1  0
  9 14  2  0
  9 10  1  0
 10 11  2  0
 11 12  1  0
 13 12  2  0
 14 13  1  0
  1 15  1  0
  1 16  1  0
  2 17  1  0
  2 18  1  0
  4 19  1  0
  5 20  1  0
  6 21  1  0
  9 22  1  0
 11 23  1  0
 13 24  1  0
M  ISO  8  15   8  16   8  17   8  18   8  19  14  20  14  21   9  22  14
M  ISO  2  23  14  24  14
M  END
>  <minimizedAffinity>  (1) 
-3.62120318

>  <minimizedRMSD>  (1) 
1.33142185

$$$$
