
     RDKit          3D

 26 27  0  0  0  0  0  0  0  0999 V2000
   42.6950   23.0290   35.8810 C   0  0  0  0  0  0  0  0  0  0  0  0
   43.5970   23.9330   36.6850 C   0  0  0  0  0  0  0  0  0  0  0  0
   43.8850   25.1020   35.7770 C   0  0  0  0  0  0  0  0  0  0  0  0
   42.9760   25.5480   34.8180 C   0  0  0  0  0  0  0  0  0  0  0  0
   43.2890   26.6220   34.0120 C   0  0  0  0  0  0  0  0  0  0  0  0
   44.5060   27.2490   34.1650 C   0  0  0  0  0  0  0  0  0  0  0  0
   45.4060   26.8080   35.1140 C   0  0  0  0  0  0  0  0  0  0  0  0
   45.0690   25.7600   35.8800 N   0  0  0  0  0  0  0  0  0  0  0  0
   41.7130   21.8990   36.8720 S   0  0  0  0  0  0  0  0  0  0  0  0
   39.1470   22.2420   35.9450 C   0  0  0  0  0  0  0  0  0  0  0  0
   40.0280   22.4340   37.0080 C   0  0  0  0  0  0  0  0  0  0  0  0
   39.5580   23.0530   38.1710 C   0  0  0  0  0  0  0  0  0  0  0  0
   38.2470   23.4470   38.2210 N   0  0  0  0  0  0  0  0  0  0  0  0
   37.4170   23.2410   37.1620 C   0  0  0  0  0  0  0  0  0  0  0  0
   37.8730   22.6470   36.0480 N   0  0  0  0  0  0  0  0  0  0  0  0
   42.0095   23.6586   35.2947 H   0  0  0  0  0  0  0  0  0  0  0  0
   43.3494   22.4094   35.2502 H   0  0  0  0  0  0  0  0  0  0  0  0
   43.0898   24.2703   37.6009 H   0  0  0  0  0  0  0  0  0  0  0  0
   44.5166   23.4214   37.0053 H   0  0  0  0  0  0  0  0  0  0  0  0
   42.0063   25.0414   34.7042 H   0  0  0  0  0  0  0  0  0  0  0  0
   42.5739   26.9747   33.2542 H   0  0  0  0  0  0  0  0  0  0  0  0
   44.7623   28.1072   33.5264 H   0  0  0  0  0  0  0  0  0  0  0  0
   46.3790   27.3055   35.2394 H   0  0  0  0  0  0  0  0  0  0  0  0
   39.4971   21.7580   35.0213 H   0  0  0  0  0  0  0  0  0  0  0  0
   40.2274   23.2200   39.0278 H   0  0  0  0  0  0  0  0  0  0  0  0
   36.3668   23.5631   37.2194 H   0  0  0  0  0  0  0  0  0  0  0  0
  1  2  1  0
  1  9  1  0
  3  8  1  0
  3  2  1  0
  4  3  2  0
  5  6  2  0
  5  4  1  0
  6  7  1  0
  7  8  2  0
  9 11  1  0
 10 15  2  0
 10 11  1  0
 11 12  2  0
 12 13  1  0
 14 13  2  0
 15 14  1  0
  1 16  1  0
  1 17  1  0
  2 18  1  0
  2 19  1  0
  4 20  1  0
  5 21  1  0
  6 22  1  0
  7 23  1  0
 10 24  1  0
 12 25  1  0
 14 26  1  0
M  ISO  8  16   8  17   8  18   8  19   8  20  14  21  14  22  14  23  14
M  ISO  3  24  14  25  14  26  14
M  END
>  <minimizedAffinity>  (1) 
-3.59660959

>  <minimizedRMSD>  (1) 
0.62188679

$$$$
