
     RDKit          3D

 19 19  0  0  0  0  0  0  0  0999 V2000
   41.6600   22.1550   36.7800 S   0  0  0  0  0  0  0  0  0  0  0  0
   39.0400   22.2320   35.9090 C   0  0  0  0  0  0  0  0  0  0  0  0
   39.9270   22.5270   36.9520 C   0  0  0  0  0  0  0  0  0  0  0  0
   39.4330   23.1210   38.1350 C   0  0  0  0  0  0  0  0  0  0  0  0
   38.0980   23.3820   38.2080 N   0  0  0  0  0  0  0  0  0  0  0  0
   37.2730   23.0850   37.1870 C   0  0  0  0  0  0  0  0  0  0  0  0
   37.7280   22.5150   36.0470 N   0  0  0  0  0  0  0  0  0  0  0  0
   42.5650   23.5080   36.0200 C   0  0  0  0  0  0  0  0  0  0  0  0
   43.9450   23.7140   36.6140 C   0  0  0  0  0  0  0  0  0  0  0  0
   44.2290   25.1210   36.6270 N   0  0  0  0  0  0  0  0  0  0  0  0
   39.4113   21.7717   34.9815 H   0  0  0  0  0  0  0  0  0  0  0  0
   40.1053   23.3650   38.9708 H   0  0  0  0  0  0  0  0  0  0  0  0
   36.2007   23.3115   37.2816 H   0  0  0  0  0  0  0  0  0  0  0  0
   41.9858   24.4337   36.1527 H   0  0  0  0  0  0  0  0  0  0  0  0
   42.7015   23.2535   34.9586 H   0  0  0  0  0  0  0  0  0  0  0  0
   43.9695   23.3209   37.6411 H   0  0  0  0  0  0  0  0  0  0  0  0
   44.6976   23.1828   36.0128 H   0  0  0  0  0  0  0  0  0  0  0  0
   44.2952   25.4489   37.6012 H   0  0  0  0  0  0  0  0  0  0  0  0
   45.1222   25.2954   36.1446 H   0  0  0  0  0  0  0  0  0  0  0  0
  1  3  1  0
  2  7  2  0
  2  3  1  0
  3  4  2  0
  4  5  1  0
  6  5  2  0
  7  6  1  0
  8  9  1  0
  8  1  1  0
  9 10  1  0
  2 11  1  0
  4 12  1  0
  6 13  1  0
  8 14  1  0
  8 15  1  0
  9 16  1  0
  9 17  1  0
 10 18  1  0
 10 19  1  0
M  ISO  8  11  14  12  14  13  14  14   8  15   8  16   8  17   8  18   5
M  ISO  1  19   5
M  END
>  <minimizedAffinity>  (1) 
-2.71258545

>  <minimizedRMSD>  (1) 
0.254739851

$$$$
