
     RDKit          3D

 18 18  0  0  0  0  0  0  0  0999 V2000
   39.0620   22.2350   35.9210 C   0  0  0  0  0  0  0  0  0  0  0  0
   39.9470   22.5320   36.9560 C   0  0  0  0  0  0  0  0  0  0  0  0
   39.4500   23.1200   38.1350 C   0  0  0  0  0  0  0  0  0  0  0  0
   38.1030   23.3710   38.1950 N   0  0  0  0  0  0  0  0  0  0  0  0
   37.2740   23.0740   37.1800 C   0  0  0  0  0  0  0  0  0  0  0  0
   37.7440   22.5060   36.0400 N   0  0  0  0  0  0  0  0  0  0  0  0
   41.6790   22.1630   36.7720 S   0  0  0  0  0  0  0  0  0  0  0  0
   42.5980   23.5540   36.1080 C   0  0  0  0  0  0  0  0  0  0  0  0
   44.0460   23.5750   36.5490 C   0  0  0  0  0  0  0  0  0  0  0  0
   44.2390   24.7400   37.3110 O   0  0  0  0  0  0  0  0  0  0  0  0
   39.4411   21.7747   34.9967 H   0  0  0  0  0  0  0  0  0  0  0  0
   40.1158   23.3682   38.9747 H   0  0  0  0  0  0  0  0  0  0  0  0
   36.2003   23.2940   37.2740 H   0  0  0  0  0  0  0  0  0  0  0  0
   42.1163   24.4841   36.4441 H   0  0  0  0  0  0  0  0  0  0  0  0
   42.5906   23.4585   35.0122 H   0  0  0  0  0  0  0  0  0  0  0  0
   44.2656   22.6865   37.1592 H   0  0  0  0  0  0  0  0  0  0  0  0
   44.7166   23.5670   35.6771 H   0  0  0  0  0  0  0  0  0  0  0  0
   44.2016   24.5143   38.2742 H   0  0  0  0  0  0  0  0  0  0  0  0
  1  6  2  0
  1  2  1  0
  2  3  2  0
  3  4  1  0
  5  4  2  0
  6  5  1  0
  7  2  1  0
  8  9  1  0
  8  7  1  0
  9 10  1  0
  1 11  1  0
  3 12  1  0
  5 13  1  0
  8 14  1  0
  8 15  1  0
  9 16  1  0
  9 17  1  0
 10 18  1  0
M  ISO  8  11  14  12  14  13  14  14   8  15   8  16   8  17   8  18   3
M  END
>  <minimizedAffinity>  (1) 
-2.7367835

>  <minimizedRMSD>  (1) 
0.40734598

$$$$
