
     RDKit          3D

 38 41  0  0  0  0  0  0  0  0999 V2000
   40.0750   22.0600   35.6910 C   0  0  0  0  0  0  0  0  0  0  0  0
   39.2400   23.2100   36.0690 C   0  0  0  0  0  0  0  0  0  0  0  0
   38.1120   23.0720   36.8900 C   0  0  0  0  0  0  0  0  0  0  0  0
   37.5350   24.2720   37.0750 N   0  0  0  0  0  0  0  0  0  0  0  0
   38.2170   25.2100   36.4210 C   0  0  0  0  0  0  0  0  0  0  0  0
   38.1160   26.5730   36.2400 C   0  0  0  0  0  0  0  0  0  0  0  0
   39.0010   27.3280   35.4750 C   0  0  0  0  0  0  0  0  0  0  0  0
   40.0460   26.6180   34.8690 C   0  0  0  0  0  0  0  0  0  0  0  0
   40.1950   25.2430   35.0190 C   0  0  0  0  0  0  0  0  0  0  0  0
   39.2650   24.5650   35.8000 C   0  0  0  0  0  0  0  0  0  0  0  0
   41.4150   22.0480   36.3490 C   0  0  0  0  0  0  0  0  0  0  0  0
   42.7910   22.3540   35.1990 S   0  0  0  0  0  0  0  0  0  0  0  0
   43.8000   24.3480   36.8270 C   0  0  0  0  0  0  0  0  0  0  0  0
   44.1190   23.2220   36.0280 C   0  0  0  0  0  0  0  0  0  0  0  0
   45.4610   22.8190   35.9090 C   0  0  0  0  0  0  0  0  0  0  0  0
   46.4010   23.5420   36.5780 N   0  0  0  0  0  0  0  0  0  0  0  0
   46.0710   24.6000   37.3230 C   0  0  0  0  0  0  0  0  0  0  0  0
   44.7970   24.9950   37.4460 N   0  0  0  0  0  0  0  0  0  0  0  0
   47.1490   25.3550   38.0340 C   0  0  0  0  0  0  0  0  0  0  0  0
   47.9860   26.3380   37.2520 C   0  0  0  0  0  0  0  0  0  0  0  0
   48.5700   25.0650   37.8460 C   0  0  0  0  0  0  0  0  0  0  0  0
   39.5432   21.1384   35.9698 H   0  0  0  0  0  0  0  0  0  0  0  0
   40.2501   22.1328   34.6075 H   0  0  0  0  0  0  0  0  0  0  0  0
   37.7531   22.1245   37.3183 H   0  0  0  0  0  0  0  0  0  0  0  0
   36.6901   24.4409   37.6393 H   0  0  0  0  0  0  0  0  0  0  0  0
   37.2832   27.0974   36.7313 H   0  0  0  0  0  0  0  0  0  0  0  0
   38.8868   28.4153   35.3538 H   0  0  0  0  0  0  0  0  0  0  0  0
   40.7738   27.1669   34.2533 H   0  0  0  0  0  0  0  0  0  0  0  0
   41.0244   24.7074   34.5339 H   0  0  0  0  0  0  0  0  0  0  0  0
   41.4292   22.8282   37.1243 H   0  0  0  0  0  0  0  0  0  0  0  0
   41.5609   21.0412   36.7675 H   0  0  0  0  0  0  0  0  0  0  0  0
   42.7581   24.6832   36.9366 H   0  0  0  0  0  0  0  0  0  0  0  0
   45.7417   21.9495   35.2965 H   0  0  0  0  0  0  0  0  0  0  0  0
   46.5079   25.3962   38.9269 H   0  0  0  0  0  0  0  0  0  0  0  0
   48.2383   27.3188   37.6813 H   0  0  0  0  0  0  0  0  0  0  0  0
   47.9408   26.7966   36.2532 H   0  0  0  0  0  0  0  0  0  0  0  0
   48.8785   24.2427   37.1837 H   0  0  0  0  0  0  0  0  0  0  0  0
   49.4094   24.8405   38.5205 H   0  0  0  0  0  0  0  0  0  0  0  0
  1  2  1  0
  1 11  1  0
  2  3  2  0
  3  4  1  0
  5  4  1  0
  6  5  2  0
  7  6  1  0
  8  9  1  0
  8  7  2  0
  9 10  2  0
 10  2  1  0
 10  5  1  0
 12 14  1  0
 12 11  1  0
 13 18  2  0
 14 13  1  0
 15 14  2  0
 15 16  1  0
 16 17  2  0
 17 18  1  0
 17 19  1  0
 20 21  1  0
 20 19  1  0
 21 19  1  0
  1 22  1  0
  1 23  1  0
  3 24  1  0
  4 25  1  0
  6 26  1  0
  7 27  1  0
  8 28  1  0
  9 29  1  0
 11 30  1  0
 11 31  1  0
 13 32  1  0
 15 33  1  0
 19 34  1  0
 20 35  1  0
 20 36  1  0
 21 37  1  0
 21 38  1  0
M  ISO  8  22   8  23   8  24  14  25   9  26  14  27  14  28  14  29  14
M  ISO  8  30   8  31   8  32  14  33  14  34  13  35  13  36  13  37  13
M  ISO  1  38  13
M  END
>  <minimizedAffinity>  (1) 
-4.93290901

>  <minimizedRMSD>  (1) 
7.38201714

$$$$
