
     RDKit          3D

 37 39  0  0  0  0  0  0  0  0999 V2000
   44.0570   23.4300   34.7630 C   0  0  0  0  0  0  0  0  0  0  0  0
   45.1450   23.6110   35.7310 C   0  0  0  0  0  0  0  0  0  0  0  0
   46.3520   22.9180   35.6360 C   0  0  0  0  0  0  0  0  0  0  0  0
   47.1710   23.2700   36.6440 N   0  0  0  0  0  0  0  0  0  0  0  0
   46.5620   24.1720   37.4140 C   0  0  0  0  0  0  0  0  0  0  0  0
   46.8730   24.8880   38.5590 C   0  0  0  0  0  0  0  0  0  0  0  0
   46.0200   25.7940   39.1700 C   0  0  0  0  0  0  0  0  0  0  0  0
   44.7780   25.9700   38.5660 C   0  0  0  0  0  0  0  0  0  0  0  0
   44.3950   25.2820   37.4100 C   0  0  0  0  0  0  0  0  0  0  0  0
   45.3250   24.3890   36.8680 C   0  0  0  0  0  0  0  0  0  0  0  0
   43.9120   22.0220   34.2770 C   0  0  0  0  0  0  0  0  0  0  0  0
   42.1880   21.5190   34.0670 S   0  0  0  0  0  0  0  0  0  0  0  0
   40.0980   22.9170   35.2100 C   0  0  0  0  0  0  0  0  0  0  0  0
   41.1920   22.0510   35.4420 C   0  0  0  0  0  0  0  0  0  0  0  0
   41.4510   21.6430   36.7580 C   0  0  0  0  0  0  0  0  0  0  0  0
   40.6480   22.0900   37.7560 N   0  0  0  0  0  0  0  0  0  0  0  0
   39.6140   22.9140   37.4940 C   0  0  0  0  0  0  0  0  0  0  0  0
   39.3440   23.3220   36.2320 N   0  0  0  0  0  0  0  0  0  0  0  0
   38.8220   23.3230   38.6800 C   0  0  0  0  0  0  0  0  0  0  0  0
   37.8760   24.4620   38.3400 C   0  0  0  0  0  0  0  0  0  0  0  0
   43.1132   23.7313   35.2410 H   0  0  0  0  0  0  0  0  0  0  0  0
   44.3001   24.0490   33.8868 H   0  0  0  0  0  0  0  0  0  0  0  0
   46.5987   22.1888   34.8502 H   0  0  0  0  0  0  0  0  0  0  0  0
   48.1201   22.9003   36.7968 H   0  0  0  0  0  0  0  0  0  0  0  0
   47.8619   24.7268   39.0130 H   0  0  0  0  0  0  0  0  0  0  0  0
   46.3078   26.3421   40.0793 H   0  0  0  0  0  0  0  0  0  0  0  0
   44.0685   26.6796   39.0166 H   0  0  0  0  0  0  0  0  0  0  0  0
   43.4084   25.4361   36.9487 H   0  0  0  0  0  0  0  0  0  0  0  0
   44.4237   21.9317   33.3075 H   0  0  0  0  0  0  0  0  0  0  0  0
   44.3554   21.3643   35.0392 H   0  0  0  0  0  0  0  0  0  0  0  0
   39.8699   23.2555   34.1885 H   0  0  0  0  0  0  0  0  0  0  0  0
   42.2930   20.9703   36.9782 H   0  0  0  0  0  0  0  0  0  0  0  0
   38.2355   22.4625   39.0344 H   0  0  0  0  0  0  0  0  0  0  0  0
   39.5156   23.6666   39.4616 H   0  0  0  0  0  0  0  0  0  0  0  0
   37.4994   24.9155   39.2687 H   0  0  0  0  0  0  0  0  0  0  0  0
   38.4127   25.2215   37.7525 H   0  0  0  0  0  0  0  0  0  0  0  0
   37.0309   24.0738   37.7525 H   0  0  0  0  0  0  0  0  0  0  0  0
  1  2  1  0
  2 10  1  0
  3  2  2  0
  3  4  1  0
  4  5  1  0
  5  6  2  0
  6  7  1  0
  8  7  2  0
  9  8  1  0
 10  9  2  0
 10  5  1  0
 11  1  1  0
 12 11  1  0
 12 14  1  0
 13 14  2  0
 13 18  1  0
 14 15  1  0
 15 16  2  0
 17 16  1  0
 17 19  1  0
 18 17  2  0
 20 19  1  0
  1 21  1  0
  1 22  1  0
  3 23  1  0
  4 24  1  0
  6 25  1  0
  7 26  1  0
  8 27  1  0
  9 28  1  0
 11 29  1  0
 11 30  1  0
 13 31  1  0
 15 32  1  0
 19 33  1  0
 19 34  1  0
 20 35  1  0
 20 36  1  0
 20 37  1  0
M  ISO  8  21   8  22   8  23  14  24   9  25  14  26  14  27  14  28  14
M  ISO  8  29   8  30   8  31  14  32  14  33   8  34   8  35   8  36   8
M  ISO  1  37   8
M  END
>  <minimizedAffinity>  (1) 
-5.01547241

>  <minimizedRMSD>  (1) 
1.83016694

$$$$
