
     RDKit          3D

 37 40  0  0  1  0  0  0  0  0999 V2000
   39.5720   21.9600   35.2630 C   0  0  0  0  0  0  0  0  0  0  0  0
   39.3840   22.6420   36.4990 C   0  0  0  0  0  0  0  0  0  0  0  0
   38.5720   23.7690   36.4870 C   0  0  0  0  0  0  0  0  0  0  0  0
   38.0150   24.1440   35.3120 N   0  0  0  0  0  0  0  0  0  0  0  0
   38.2100   23.4830   34.1630 C   0  0  0  0  0  0  0  0  0  0  0  0
   38.9820   22.4000   34.1370 N   0  0  0  0  0  0  0  0  0  0  0  0
   37.5680   23.9800   32.9920 N   0  0  0  0  0  0  0  0  0  0  0  0
   37.2950   25.4000   32.8730 C   0  0  0  0  0  0  0  0  0  0  0  0
   36.1870   25.6600   31.9150 C   0  0  0  0  0  0  0  0  0  0  0  0
   35.4680   24.5220   31.6120 O   0  0  0  0  0  0  0  0  0  0  0  0
   36.3390   23.6730   30.8940 C   0  0  0  0  0  0  0  0  0  0  0  0
   37.2090   23.0290   31.9530 C   0  0  2  0  0  0  0  0  0  0  0  0
   36.5720   21.8140   32.5230 C   0  0  0  0  0  0  0  0  0  0  0  0
   35.8630   21.7720   33.6970 C   0  0  0  0  0  0  0  0  0  0  0  0
   35.4370   20.5120   33.8950 N   0  0  0  0  0  0  0  0  0  0  0  0
   35.8490   19.7290   32.8780 C   0  0  0  0  0  0  0  0  0  0  0  0
   35.6740   18.3670   32.6080 C   0  0  0  0  0  0  0  0  0  0  0  0
   36.2500   17.8900   31.4410 C   0  0  0  0  0  0  0  0  0  0  0  0
   36.9650   18.6940   30.5700 C   0  0  0  0  0  0  0  0  0  0  0  0
   37.1120   20.0260   30.8750 C   0  0  0  0  0  0  0  0  0  0  0  0
   36.5470   20.5240   32.0310 C   0  0  0  0  0  0  0  0  0  0  0  0
   40.2073   21.0627   35.2287 H   0  0  0  0  0  0  0  0  0  0  0  0
   39.8622   22.2907   37.4252 H   0  0  0  0  0  0  0  0  0  0  0  0
   38.3867   24.3413   37.4079 H   0  0  0  0  0  0  0  0  0  0  0  0
   37.0145   25.7948   33.8607 H   0  0  0  0  0  0  0  0  0  0  0  0
   38.2017   25.8972   32.4978 H   0  0  0  0  0  0  0  0  0  0  0  0
   35.5045   26.4000   32.3585 H   0  0  0  0  0  0  0  0  0  0  0  0
   36.6350   26.0290   30.9806 H   0  0  0  0  0  0  0  0  0  0  0  0
   35.7698   22.9098   30.3431 H   0  0  0  0  0  0  0  0  0  0  0  0
   36.9311   24.2210   30.1462 H   0  0  0  0  0  0  0  0  0  0  0  0
   38.1393   22.7072   31.4620 H   0  0  0  0  0  0  0  0  0  0  0  0
   35.6747   22.6259   34.3644 H   0  0  0  0  0  0  0  0  0  0  0  0
   34.8805   20.1936   34.7011 H   0  0  0  0  0  0  0  0  0  0  0  0
   35.1094   17.7100   33.2859 H   0  0  0  0  0  0  0  0  0  0  0  0
   36.1337   16.8240   31.1958 H   0  0  0  0  0  0  0  0  0  0  0  0
   37.4061   18.2757   29.6533 H   0  0  0  0  0  0  0  0  0  0  0  0
   37.6756   20.6897   30.2028 H   0  0  0  0  0  0  0  0  0  0  0  0
  1  2  2  0
  3  2  1  0
  4  3  2  0
  5  4  1  0
  6  5  2  0
  6  1  1  0
  7  5  1  0
  8  7  1  0
  9  8  1  0
 10  9  1  0
 11 10  1  0
 11 12  1  0
 12 13  1  0
 12  7  1  0
 13 14  2  0
 14 15  1  0
 16 15  1  0
 17 16  2  0
 18 17  1  0
 19 20  1  0
 19 18  2  0
 20 21  2  0
 21 13  1  0
 21 16  1  0
  1 22  1  0
  2 23  1  0
  3 24  1  0
  8 25  1  0
  8 26  1  0
  9 27  1  0
  9 28  1  0
 11 29  1  0
 11 30  1  0
 12 31  1  6
 14 32  1  0
 15 33  1  0
 17 34  1  0
 18 35  1  0
 19 36  1  0
 20 37  1  0
M  ISO  8  22  14  23  14  24  14  25  13  26  13  27  13  28  13  29  13
M  ISO  8  30  13  31  13  32  14  33   9  34  14  35  14  36  14  37  14
M  END
>  <minimizedAffinity>  (1) 
-4.82416344

>  <minimizedRMSD>  (1) 
2.23571801

$$$$
