
     RDKit          3D

 36 38  0  0  1  0  0  0  0  0999 V2000
   39.9800   23.0740   36.9910 C   0  0  0  0  0  0  0  0  0  0  0  0
   39.0670   22.9940   38.0590 C   0  0  0  0  0  0  0  0  0  0  0  0
   37.9310   23.7890   37.9690 C   0  0  0  0  0  0  0  0  0  0  0  0
   37.7380   24.5900   36.8980 N   0  0  0  0  0  0  0  0  0  0  0  0
   38.6500   24.6340   35.8890 C   0  0  0  0  0  0  0  0  0  0  0  0
   39.7620   23.8750   35.9460 N   0  0  0  0  0  0  0  0  0  0  0  0
   38.3960   25.4910   34.7900 N   0  0  0  0  0  0  0  0  0  0  0  0
   37.6300   26.6880   34.9870 C   0  0  0  0  0  0  0  0  0  0  0  0
   36.9230   27.1290   33.7330 C   0  0  0  0  0  0  0  0  0  0  0  0
   36.9770   26.1600   32.7320 O   0  0  0  0  0  0  0  0  0  0  0  0
   38.3280   26.0090   32.4010 C   0  0  0  0  0  0  0  0  0  0  0  0
   38.9100   25.1490   33.4940 C   0  0  2  0  0  0  0  0  0  0  0  0
   38.5830   23.7690   33.1720 N   0  0  0  0  0  0  0  0  0  0  0  0
   37.3840   23.1590   33.2330 C   0  0  0  0  0  0  0  0  0  0  0  0
   37.2470   21.8420   32.8920 C   0  0  0  0  0  0  0  0  0  0  0  0
   35.8850   21.2320   32.9840 C   0  0  0  0  0  0  0  0  0  0  0  0
   38.3090   21.0720   32.4730 C   0  0  0  0  0  0  0  0  0  0  0  0
   38.1120   19.8690   32.1750 O   0  0  0  0  0  0  0  0  0  0  0  0
   39.4930   21.6990   32.4200 N   0  0  0  0  0  0  0  0  0  0  0  0
   39.6190   22.9860   32.7540 C   0  0  0  0  0  0  0  0  0  0  0  0
   40.7890   23.4820   32.6670 O   0  0  0  0  0  0  0  0  0  0  0  0
   40.8940   22.4625   37.0182 H   0  0  0  0  0  0  0  0  0  0  0  0
   39.2439   22.3351   38.9219 H   0  0  0  0  0  0  0  0  0  0  0  0
   37.1833   23.7662   38.7755 H   0  0  0  0  0  0  0  0  0  0  0  0
   36.8793   26.5024   35.7693 H   0  0  0  0  0  0  0  0  0  0  0  0
   38.3263   27.4880   35.2788 H   0  0  0  0  0  0  0  0  0  0  0  0
   35.8690   27.3326   33.9730 H   0  0  0  0  0  0  0  0  0  0  0  0
   37.4286   28.0313   33.3586 H   0  0  0  0  0  0  0  0  0  0  0  0
   38.4327   25.5143   31.4241 H   0  0  0  0  0  0  0  0  0  0  0  0
   38.8426   26.9781   32.3229 H   0  0  0  0  0  0  0  0  0  0  0  0
   39.9976   25.3064   33.5429 H   0  0  0  0  0  0  0  0  0  0  0  0
   36.5022   23.7284   33.5619 H   0  0  0  0  0  0  0  0  0  0  0  0
   35.6092   21.1085   34.0417 H   0  0  0  0  0  0  0  0  0  0  0  0
   35.1548   21.8891   32.4890 H   0  0  0  0  0  0  0  0  0  0  0  0
   35.8890   20.2497   32.4890 H   0  0  0  0  0  0  0  0  0  0  0  0
   40.3256   21.1754   32.1143 H   0  0  0  0  0  0  0  0  0  0  0  0
  1  2  2  0
  3  2  1  0
  4  3  2  0
  5  6  2  0
  5  4  1  0
  6  1  1  0
  7  8  1  0
  7  5  1  0
  9  8  1  0
 10  9  1  0
 11 10  1  0
 11 12  1  0
 12  7  1  0
 13 14  1  0
 13 12  1  0
 15 16  1  0
 15 14  2  0
 17 15  1  0
 18 17  2  0
 19 17  1  0
 19 20  1  0
 20 13  1  0
 21 20  2  0
  1 22  1  0
  2 23  1  0
  3 24  1  0
  8 25  1  0
  8 26  1  0
  9 27  1  0
  9 28  1  0
 11 29  1  0
 11 30  1  0
 12 31  1  1
 14 32  1  0
 16 33  1  0
 16 34  1  0
 16 35  1  0
 19 36  1  0
M  ISO  8  22  14  23  14  24  14  25  13  26  13  27  13  28  13  29  13
M  ISO  7  30  13  31  13  32  14  33   8  34   8  35   8  36   9
M  END
>  <minimizedAffinity>  (1) 
-4.71862411

>  <minimizedRMSD>  (1) 
1.43052197

$$$$
