
     RDKit          3D

 36 38  0  0  1  0  0  0  0  0999 V2000
   39.7900   22.9720   37.2660 C   0  0  0  0  0  0  0  0  0  0  0  0
   38.9740   23.1280   38.4230 C   0  0  0  0  0  0  0  0  0  0  0  0
   37.9320   24.0720   38.3580 C   0  0  0  0  0  0  0  0  0  0  0  0
   37.7920   24.7520   37.2000 N   0  0  0  0  0  0  0  0  0  0  0  0
   38.5810   24.5770   36.1310 C   0  0  0  0  0  0  0  0  0  0  0  0
   39.5710   23.6930   36.1670 N   0  0  0  0  0  0  0  0  0  0  0  0
   38.3100   25.3740   34.9780 N   0  0  0  0  0  0  0  0  0  0  0  0
   37.7930   26.7230   35.1640 C   0  0  0  0  0  0  0  0  0  0  0  0
   37.0820   27.1860   33.9310 C   0  0  0  0  0  0  0  0  0  0  0  0
   36.8700   26.1830   33.0150 O   0  0  0  0  0  0  0  0  0  0  0  0
   38.1410   25.7380   32.5900 C   0  0  0  0  0  0  0  0  0  0  0  0
   38.5690   24.7810   33.6660 C   0  0  2  0  0  0  0  0  0  0  0  0
   38.0350   23.4020   33.5530 C   0  0  0  0  0  0  0  0  0  0  0  0
   39.0910   22.3920   33.1650 C   0  0  0  0  0  0  0  0  0  0  0  0
   38.2080   21.1810   32.8030 C   0  0  0  0  0  0  0  0  0  0  0  0
   37.2490   21.8660   31.8380 C   0  0  0  0  0  0  0  0  0  0  0  0
   36.9370   23.1840   32.5540 C   0  0  0  0  0  0  0  0  0  0  0  0
   40.6147   22.2442   37.2799 H   0  0  0  0  0  0  0  0  0  0  0  0
   39.1512   22.5340   39.3317 H   0  0  0  0  0  0  0  0  0  0  0  0
   37.2618   24.2479   39.2123 H   0  0  0  0  0  0  0  0  0  0  0  0
   37.0905   26.7280   36.0105 H   0  0  0  0  0  0  0  0  0  0  0  0
   38.6345   27.4020   35.3658 H   0  0  0  0  0  0  0  0  0  0  0  0
   36.1069   27.6012   34.2257 H   0  0  0  0  0  0  0  0  0  0  0  0
   37.7243   27.9371   33.4480 H   0  0  0  0  0  0  0  0  0  0  0  0
   38.0719   25.2279   31.6179 H   0  0  0  0  0  0  0  0  0  0  0  0
   38.8538   26.5639   32.4497 H   0  0  0  0  0  0  0  0  0  0  0  0
   39.6503   24.6329   33.5287 H   0  0  0  0  0  0  0  0  0  0  0  0
   37.6421   23.2619   34.5708 H   0  0  0  0  0  0  0  0  0  0  0  0
   39.6824   22.7346   32.3031 H   0  0  0  0  0  0  0  0  0  0  0  0
   39.8415   22.1935   33.9443 H   0  0  0  0  0  0  0  0  0  0  0  0
   38.7843   20.3817   32.3141 H   0  0  0  0  0  0  0  0  0  0  0  0
   37.7366   20.6677   33.6541 H   0  0  0  0  0  0  0  0  0  0  0  0
   36.3374   21.2677   31.6928 H   0  0  0  0  0  0  0  0  0  0  0  0
   37.6679   22.0046   30.8304 H   0  0  0  0  0  0  0  0  0  0  0  0
   36.9129   24.0121   31.8304 H   0  0  0  0  0  0  0  0  0  0  0  0
   35.9549   23.1433   33.0478 H   0  0  0  0  0  0  0  0  0  0  0  0
  1  2  2  0
  3  2  1  0
  4  3  2  0
  5  6  2  0
  5  4  1  0
  6  1  1  0
  7  8  1  0
  7  5  1  0
  9  8  1  0
 10  9  1  0
 11 10  1  0
 11 12  1  0
 12  7  1  0
 13 12  1  0
 14 13  1  0
 15 14  1  0
 16 17  1  0
 16 15  1  0
 17 13  1  0
  1 18  1  0
  2 19  1  0
  3 20  1  0
  8 21  1  0
  8 22  1  0
  9 23  1  0
  9 24  1  0
 11 25  1  0
 11 26  1  0
 12 27  1  6
 13 28  1  0
 14 29  1  0
 14 30  1  0
 15 31  1  0
 15 32  1  0
 16 33  1  0
 16 34  1  0
 17 35  1  0
 17 36  1  0
M  ISO  8  18  14  19  14  20  14  21  13  22  13  23  13  24  13  25  13
M  ISO  8  26  13  27  13  28  13  29  13  30  13  31  13  32  13  33  13
M  ISO  3  34  13  35  13  36  13
M  END
>  <minimizedAffinity>  (1) 
-4.41619921

>  <minimizedRMSD>  (1) 
0.909253478

$$$$
