
     RDKit          3D

 33 35  0  0  1  0  0  0  0  0999 V2000
   40.1500   23.0630   36.8880 C   0  0  0  0  0  0  0  0  0  0  0  0
   39.3370   22.9240   38.0450 C   0  0  0  0  0  0  0  0  0  0  0  0
   38.2150   23.7410   38.1260 C   0  0  0  0  0  0  0  0  0  0  0  0
   37.9800   24.6020   37.1090 N   0  0  0  0  0  0  0  0  0  0  0  0
   38.7710   24.7050   36.0310 C   0  0  0  0  0  0  0  0  0  0  0  0
   39.8480   23.9340   35.9310 N   0  0  0  0  0  0  0  0  0  0  0  0
   38.4170   25.6450   35.0310 N   0  0  0  0  0  0  0  0  0  0  0  0
   37.6610   26.8370   35.3900 C   0  0  0  0  0  0  0  0  0  0  0  0
   36.9330   27.3960   34.2200 C   0  0  0  0  0  0  0  0  0  0  0  0
   36.8460   26.4910   33.1770 O   0  0  0  0  0  0  0  0  0  0  0  0
   38.1290   26.2940   32.6810 C   0  0  0  0  0  0  0  0  0  0  0  0
   38.8280   25.3850   33.6660 C   0  0  2  0  0  0  0  0  0  0  0  0
   38.7850   24.0080   33.2810 N   0  0  0  0  0  0  0  0  0  0  0  0
   37.6160   23.3100   33.3790 C   0  0  0  0  0  0  0  0  0  0  0  0
   37.4310   22.0010   33.0510 C   0  0  0  0  0  0  0  0  0  0  0  0
   38.5230   21.3090   32.5710 C   0  0  0  0  0  0  0  0  0  0  0  0
   38.3650   20.0980   32.2630 O   0  0  0  0  0  0  0  0  0  0  0  0
   39.6850   21.9800   32.4660 N   0  0  0  0  0  0  0  0  0  0  0  0
   39.8260   23.2730   32.8010 C   0  0  0  0  0  0  0  0  0  0  0  0
   40.9210   23.8780   32.6950 O   0  0  0  0  0  0  0  0  0  0  0  0
   41.0480   22.4366   36.7823 H   0  0  0  0  0  0  0  0  0  0  0  0
   39.5837   22.2040   38.8392 H   0  0  0  0  0  0  0  0  0  0  0  0
   37.5381   23.6890   38.9915 H   0  0  0  0  0  0  0  0  0  0  0  0
   36.9329   26.5759   36.1721 H   0  0  0  0  0  0  0  0  0  0  0  0
   38.3688   27.5979   35.7507 H   0  0  0  0  0  0  0  0  0  0  0  0
   35.9159   27.6725   34.5348 H   0  0  0  0  0  0  0  0  0  0  0  0
   37.4932   28.2720   33.8610 H   0  0  0  0  0  0  0  0  0  0  0  0
   38.0857   25.8200   31.6893 H   0  0  0  0  0  0  0  0  0  0  0  0
   38.6649   27.2478   32.5664 H   0  0  0  0  0  0  0  0  0  0  0  0
   39.8986   25.6359   33.6367 H   0  0  0  0  0  0  0  0  0  0  0  0
   36.7402   23.8565   33.7589 H   0  0  0  0  0  0  0  0  0  0  0  0
   36.4504   21.5156   33.1644 H   0  0  0  0  0  0  0  0  0  0  0  0
   40.5094   21.4754   32.1101 H   0  0  0  0  0  0  0  0  0  0  0  0
  1  2  2  0
  2  3  1  0
  4  3  2  0
  5  4  1  0
  6  5  2  0
  6  1  1  0
  7  8  1  0
  7  5  1  0
  9  8  1  0
 10  9  1  0
 11 10  1  0
 11 12  1  0
 12  7  1  0
 13 14  1  0
 13 12  1  0
 15 14  2  0
 16 15  1  0
 17 16  2  0
 18 16  1  0
 18 19  1  0
 19 13  1  0
 20 19  2  0
  1 21  1  0
  2 22  1  0
  3 23  1  0
  8 24  1  0
  8 25  1  0
  9 26  1  0
  9 27  1  0
 11 28  1  0
 11 29  1  0
 12 30  1  1
 14 31  1  0
 15 32  1  0
 18 33  1  0
M  ISO  8  21  14  22  14  23  14  24  13  25  13  26  13  27  13  28  13
M  ISO  5  29  13  30  13  31  14  32  14  33   9
M  END
>  <minimizedAffinity>  (1) 
-4.49069071

>  <minimizedRMSD>  (1) 
1.5481993

$$$$
