
     RDKit          3D

 29 31  0  0  1  0  0  0  0  0999 V2000
   39.6650   22.8870   37.5730 C   0  0  0  0  0  0  0  0  0  0  0  0
   38.8890   23.2840   38.6800 C   0  0  0  0  0  0  0  0  0  0  0  0
   37.9120   24.2500   38.4520 C   0  0  0  0  0  0  0  0  0  0  0  0
   37.7730   24.7380   37.1960 N   0  0  0  0  0  0  0  0  0  0  0  0
   38.5300   24.3370   36.1620 C   0  0  0  0  0  0  0  0  0  0  0  0
   39.4700   23.4140   36.3680 N   0  0  0  0  0  0  0  0  0  0  0  0
   38.2910   24.9190   34.8950 N   0  0  0  0  0  0  0  0  0  0  0  0
   37.7690   26.2520   34.8100 C   0  0  0  0  0  0  0  0  0  0  0  0
   37.1200   26.5080   33.4860 C   0  0  0  0  0  0  0  0  0  0  0  0
   36.8250   25.3310   32.8210 O   0  0  0  0  0  0  0  0  0  0  0  0
   38.0520   24.7470   32.4570 C   0  0  0  0  0  0  0  0  0  0  0  0
   38.5940   24.1200   33.7150 C   0  0  1  0  0  0  0  0  0  0  0  0
   40.0600   24.0870   33.6620 N   0  0  0  0  0  0  0  0  0  0  0  0
   40.8520   23.0230   33.4880 C   0  0  0  0  0  0  0  0  0  0  0  0
   42.1320   23.4390   33.5030 N   0  0  0  0  0  0  0  0  0  0  0  0
   42.1610   24.7740   33.6870 C   0  0  0  0  0  0  0  0  0  0  0  0
   40.8720   25.1480   33.7820 N   0  0  0  0  0  0  0  0  0  0  0  0
   40.4477   22.1260   37.7084 H   0  0  0  0  0  0  0  0  0  0  0  0
   39.0476   22.8508   39.6786 H   0  0  0  0  0  0  0  0  0  0  0  0
   37.2699   24.6074   39.2705 H   0  0  0  0  0  0  0  0  0  0  0  0
   37.0234   26.3945   35.6061 H   0  0  0  0  0  0  0  0  0  0  0  0
   38.6062   26.9564   34.9239 H   0  0  0  0  0  0  0  0  0  0  0  0
   36.1873   27.0679   33.6492 H   0  0  0  0  0  0  0  0  0  0  0  0
   37.8238   27.0831   32.8663 H   0  0  0  0  0  0  0  0  0  0  0  0
   37.8975   23.9812   31.6826 H   0  0  0  0  0  0  0  0  0  0  0  0
   38.7481   25.4904   32.0414 H   0  0  0  0  0  0  0  0  0  0  0  0
   38.1369   23.1216   33.7799 H   0  0  0  0  0  0  0  0  0  0  0  0
   40.5145   21.9845   33.3552 H   0  0  0  0  0  0  0  0  0  0  0  0
   43.0493   25.4201   33.7468 H   0  0  0  0  0  0  0  0  0  0  0  0
  1  2  2  0
  3  2  1  0
  4  3  2  0
  5  6  2  0
  5  4  1  0
  6  1  1  0
  7  5  1  0
  8  7  1  0
  9  8  1  0
 10  9  1  0
 11 10  1  0
 11 12  1  0
 12  7  1  0
 13 12  1  0
 13 17  1  0
 14 15  2  0
 14 13  1  0
 15 16  1  0
 16 17  2  0
  1 18  1  0
  2 19  1  0
  3 20  1  0
  8 21  1  0
  8 22  1  0
  9 23  1  0
  9 24  1  0
 11 25  1  0
 11 26  1  0
 12 27  1  1
 14 28  1  0
 16 29  1  0
M  ISO  8  18  14  19  14  20  14  21  13  22  13  23  13  24  13  25  13
M  ISO  4  26  13  27  13  28  14  29  14
M  END
>  <minimizedAffinity>  (1) 
-4.14703035

>  <minimizedRMSD>  (1) 
0.376177967

$$$$
