
     RDKit          3D

 35 36  0  0  1  0  0  0  0  0999 V2000
   39.9940   23.0750   36.6700 C   0  0  0  0  0  0  0  0  0  0  0  0
   39.2550   22.9580   37.8500 C   0  0  0  0  0  0  0  0  0  0  0  0
   38.2330   23.8700   38.0610 C   0  0  0  0  0  0  0  0  0  0  0  0
   38.0020   24.8170   37.1330 N   0  0  0  0  0  0  0  0  0  0  0  0
   38.7150   24.9200   36.0090 C   0  0  0  0  0  0  0  0  0  0  0  0
   39.6720   24.0430   35.8390 N   0  0  0  0  0  0  0  0  0  0  0  0
   38.4240   25.9310   35.0620 N   0  0  0  0  0  0  0  0  0  0  0  0
   37.7680   27.1360   35.5150 C   0  0  0  0  0  0  0  0  0  0  0  0
   36.9010   27.7690   34.4770 C   0  0  0  0  0  0  0  0  0  0  0  0
   36.6630   26.9030   33.4080 O   0  0  0  0  0  0  0  0  0  0  0  0
   37.8530   26.6370   32.7790 C   0  0  0  0  0  0  0  0  0  0  0  0
   38.7400   25.8010   33.7030 C   0  0  1  0  0  0  0  0  0  0  0  0
   40.1240   26.0620   33.2080 C   0  0  0  0  0  0  0  0  0  0  0  0
   40.9800   24.8280   33.0380 C   0  0  0  0  0  0  0  0  0  0  0  0
   40.8870   26.8470   34.3400 C   0  0  0  0  0  0  0  0  0  0  0  0
   40.1980   27.0100   32.0480 C   0  0  0  0  0  0  0  0  0  0  0  0
   40.8171   22.3814   36.4434 H   0  0  0  0  0  0  0  0  0  0  0  0
   39.4764   22.1703   38.5852 H   0  0  0  0  0  0  0  0  0  0  0  0
   37.6200   23.8206   38.9730 H   0  0  0  0  0  0  0  0  0  0  0  0
   37.1432   26.8861   36.3852 H   0  0  0  0  0  0  0  0  0  0  0  0
   38.5578   27.8606   35.7624 H   0  0  0  0  0  0  0  0  0  0  0  0
   35.9392   28.0440   34.9346 H   0  0  0  0  0  0  0  0  0  0  0  0
   37.4207   28.6581   34.0903 H   0  0  0  0  0  0  0  0  0  0  0  0
   37.6608   26.0788   31.8509 H   0  0  0  0  0  0  0  0  0  0  0  0
   38.3610   27.5826   32.5385 H   0  0  0  0  0  0  0  0  0  0  0  0
   38.5776   24.7140   33.6574 H   0  0  0  0  0  0  0  0  0  0  0  0
   41.2541   24.4328   34.0273 H   0  0  0  0  0  0  0  0  0  0  0  0
   40.4164   24.0646   32.4815 H   0  0  0  0  0  0  0  0  0  0  0  0
   41.8924   25.0885   32.4815 H   0  0  0  0  0  0  0  0  0  0  0  0
   40.5450   26.4952   35.3245 H   0  0  0  0  0  0  0  0  0  0  0  0
   41.9685   26.6711   34.2431 H   0  0  0  0  0  0  0  0  0  0  0  0
   40.6804   27.9231   34.2431 H   0  0  0  0  0  0  0  0  0  0  0  0
   40.2785   28.0414   32.4219 H   0  0  0  0  0  0  0  0  0  0  0  0
   41.0803   26.7720   31.4357 H   0  0  0  0  0  0  0  0  0  0  0  0
   39.2895   26.9118   31.4357 H   0  0  0  0  0  0  0  0  0  0  0  0
  1  2  2  0
  2  3  1  0
  4  3  2  0
  5  4  1  0
  6  5  2  0
  6  1  1  0
  7  8  1  0
  7  5  1  0
  9  8  1  0
 10  9  1  0
 11 10  1  0
 11 12  1  0
 12  7  1  0
 13 12  1  0
 13 15  1  0
 14 13  1  0
 16 13  1  0
  1 17  1  0
  2 18  1  0
  3 19  1  0
  8 20  1  0
  8 21  1  0
  9 22  1  0
  9 23  1  0
 11 24  1  0
 11 25  1  0
 12 26  1  6
 14 27  1  0
 14 28  1  0
 14 29  1  0
 15 30  1  0
 15 31  1  0
 15 32  1  0
 16 33  1  0
 16 34  1  0
 16 35  1  0
M  ISO  8  17  14  18  14  19  14  20  13  21  13  22  13  23  13  24  13
M  ISO  8  25  13  26  13  27   8  28   8  29   8  30   8  31   8  32   8
M  ISO  3  33   8  34   8  35   8
M  END
>  <minimizedAffinity>  (1) 
-4.30689478

>  <minimizedRMSD>  (1) 
1.64784634

$$$$
