
     RDKit          3D

 30 32  0  0  0  0  0  0  0  0999 V2000
   38.6350   24.1890   36.5630 C   0  0  0  0  0  0  0  0  0  0  0  0
   39.8120   23.6290   36.0190 C   0  0  0  0  0  0  0  0  0  0  0  0
   40.2840   24.1910   34.8100 C   0  0  0  0  0  0  0  0  0  0  0  0
   39.5940   25.2120   34.2560 N   0  0  0  0  0  0  0  0  0  0  0  0
   38.4710   25.7170   34.8110 C   0  0  0  0  0  0  0  0  0  0  0  0
   37.9990   25.2130   35.9490 N   0  0  0  0  0  0  0  0  0  0  0  0
   37.7260   26.7900   34.2490 N   0  0  0  0  0  0  0  0  0  0  0  0
   36.8320   27.5530   34.8930 C   0  0  0  0  0  0  0  0  0  0  0  0
   36.1860   28.5540   34.2000 C   0  0  0  0  0  0  0  0  0  0  0  0
   36.4520   28.7640   32.8860 C   0  0  0  0  0  0  0  0  0  0  0  0
   35.8810   29.6710   32.2160 O   0  0  0  0  0  0  0  0  0  0  0  0
   37.3530   27.9850   32.2610 N   0  0  0  0  0  0  0  0  0  0  0  0
   37.9850   27.0040   32.9440 C   0  0  0  0  0  0  0  0  0  0  0  0
   38.8220   26.3330   32.2400 O   0  0  0  0  0  0  0  0  0  0  0  0
   37.6170   28.2270   30.8700 C   0  0  0  0  0  0  0  0  0  0  0  0
   36.9110   28.2010   29.6860 C   0  0  0  0  0  0  0  0  0  0  0  0
   37.7480   28.5370   28.6840 N   0  0  0  0  0  0  0  0  0  0  0  0
   38.9470   28.7650   29.2400 C   0  0  0  0  0  0  0  0  0  0  0  0
   38.8850   28.5820   30.5680 N   0  0  0  0  0  0  0  0  0  0  0  0
   38.0980   23.6260   37.8400 C   0  0  0  0  0  0  0  0  0  0  0  0
   39.0700   22.9320   38.5520 F   0  0  0  0  0  0  0  0  0  0  0  0
   37.6590   24.6570   38.6520 F   0  0  0  0  0  0  0  0  0  0  0  0
   37.0230   22.7920   37.5390 F   0  0  0  0  0  0  0  0  0  0  0  0
   40.3359   22.7965   36.5115 H   0  0  0  0  0  0  0  0  0  0  0  0
   41.1951   23.8044   34.3301 H   0  0  0  0  0  0  0  0  0  0  0  0
   36.6171   27.3829   35.9583 H   0  0  0  0  0  0  0  0  0  0  0  0
   35.4493   29.1874   34.7159 H   0  0  0  0  0  0  0  0  0  0  0  0
   35.8458   27.9489   29.5774 H   0  0  0  0  0  0  0  0  0  0  0  0
   39.8511   29.0596   28.6870 H   0  0  0  0  0  0  0  0  0  0  0  0
   39.6621   28.6921   31.2350 H   0  0  0  0  0  0  0  0  0  0  0  0
  1 20  1  0
  2  1  2  0
  3  2  1  0
  4  3  2  0
  4  5  1  0
  5  6  2  0
  6  1  1  0
  7  5  1  0
  7  8  1  0
  9  8  2  0
 10  9  1  0
 11 10  2  0
 12 10  1  0
 12 13  1  0
 13  7  1  0
 14 13  2  0
 15 12  1  0
 16 15  2  0
 17 18  2  0
 17 16  1  0
 18 19  1  0
 19 15  1  0
 20 21  1  0
 20 22  1  0
 23 20  1  0
  2 24  1  0
  3 25  1  0
  8 26  1  0
  9 27  1  0
 16 28  1  0
 18 29  1  0
 19 30  1  0
M  ISO  7  24  14  25  14  26  14  27  14  28  14  29  14  30   9
M  END
>  <minimizedAffinity>  (1) 
-5.48372984

>  <minimizedRMSD>  (1) 
1.77358258

$$$$
