
     RDKit          3D

 25 26  0  0  1  0  0  0  0  0999 V2000
   39.6650   22.8570   37.5430 C   0  0  0  0  0  0  0  0  0  0  0  0
   38.8910   23.2870   38.6590 C   0  0  0  0  0  0  0  0  0  0  0  0
   37.9310   24.2710   38.4250 C   0  0  0  0  0  0  0  0  0  0  0  0
   37.8080   24.7400   37.1610 N   0  0  0  0  0  0  0  0  0  0  0  0
   38.5550   24.3110   36.1310 C   0  0  0  0  0  0  0  0  0  0  0  0
   39.4750   23.3750   36.3280 N   0  0  0  0  0  0  0  0  0  0  0  0
   38.3170   24.8940   34.8600 N   0  0  0  0  0  0  0  0  0  0  0  0
   37.8200   26.2560   34.7640 C   0  0  0  0  0  0  0  0  0  0  0  0
   37.1190   26.4980   33.4720 C   0  0  0  0  0  0  0  0  0  0  0  0
   36.8190   25.3230   32.8080 O   0  0  0  0  0  0  0  0  0  0  0  0
   38.0200   24.7240   32.4270 C   0  0  0  0  0  0  0  0  0  0  0  0
   38.5820   24.0940   33.6770 C   0  0  1  0  0  0  0  0  0  0  0  0
   40.0290   23.9640   33.5530 N   0  0  0  0  0  0  0  0  0  0  0  0
   40.4338   22.0833   37.6855 H   0  0  0  0  0  0  0  0  0  0  0  0
   39.0440   22.8613   39.6617 H   0  0  0  0  0  0  0  0  0  0  0  0
   37.2963   24.6525   39.2384 H   0  0  0  0  0  0  0  0  0  0  0  0
   37.1170   26.4378   35.5903 H   0  0  0  0  0  0  0  0  0  0  0  0
   38.6803   26.9392   34.8201 H   0  0  0  0  0  0  0  0  0  0  0  0
   36.1827   27.0389   33.6738 H   0  0  0  0  0  0  0  0  0  0  0  0
   37.7922   27.0844   32.8294 H   0  0  0  0  0  0  0  0  0  0  0  0
   37.8385   23.9566   31.6600 H   0  0  0  0  0  0  0  0  0  0  0  0
   38.7177   25.4565   31.9949 H   0  0  0  0  0  0  0  0  0  0  0  0
   38.0946   23.1141   33.7876 H   0  0  0  0  0  0  0  0  0  0  0  0
   40.4520   23.9260   34.4914 H   0  0  0  0  0  0  0  0  0  0  0  0
   40.2533   23.0995   33.0400 H   0  0  0  0  0  0  0  0  0  0  0  0
  1  2  2  0
  3  2  1  0
  4  3  2  0
  5  6  2  0
  5  4  1  0
  6  1  1  0
  7  5  1  0
  8  7  1  0
  9  8  1  0
 10  9  1  0
 11 10  1  0
 11 12  1  0
 12  7  1  0
 13 12  1  0
  1 14  1  0
  2 15  1  0
  3 16  1  0
  8 17  1  0
  8 18  1  0
  9 19  1  0
  9 20  1  0
 11 21  1  0
 11 22  1  0
 12 23  1  1
 13 24  1  0
 13 25  1  0
M  ISO  8  14  14  15  14  16  14  17  13  18  13  19  13  20  13  21  13
M  ISO  4  22  13  23  13  24   5  25   5
M  END
>  <minimizedAffinity>  (1) 
-3.93214893

>  <minimizedRMSD>  (1) 
0.0961774513

$$$$
