
     RDKit          3D

 26 27  0  0  1  0  0  0  0  0999 V2000
   39.9020   22.9500   37.5740 C   0  0  0  0  0  0  0  0  0  0  0  0
   38.9660   23.2270   38.6130 C   0  0  0  0  0  0  0  0  0  0  0  0
   37.8460   24.0050   38.2770 C   0  0  0  0  0  0  0  0  0  0  0  0
   37.7360   24.4330   36.9930 N   0  0  0  0  0  0  0  0  0  0  0  0
   38.6520   24.1430   36.0430 C   0  0  0  0  0  0  0  0  0  0  0  0
   39.7180   23.4100   36.3380 N   0  0  0  0  0  0  0  0  0  0  0  0
   38.4080   24.6550   34.7410 N   0  0  0  0  0  0  0  0  0  0  0  0
   37.7250   25.9330   34.5840 C   0  0  0  0  0  0  0  0  0  0  0  0
   37.1090   26.0440   33.2300 C   0  0  0  0  0  0  0  0  0  0  0  0
   37.0780   24.8450   32.5510 O   0  0  0  0  0  0  0  0  0  0  0  0
   38.4370   24.5140   32.3060 C   0  0  0  0  0  0  0  0  0  0  0  0
   38.8630   23.8540   33.6100 C   0  0  2  0  0  0  0  0  0  0  0  0
   38.2110   22.4810   33.6210 C   0  0  0  0  0  0  0  0  0  0  0  0
   37.8840   22.1860   32.2990 F   0  0  0  0  0  0  0  0  0  0  0  0
   37.1200   22.4070   34.4460 F   0  0  0  0  0  0  0  0  0  0  0  0
   39.1620   21.5700   34.0730 F   0  0  0  0  0  0  0  0  0  0  0  0
   40.7930   22.3449   37.7975 H   0  0  0  0  0  0  0  0  0  0  0  0
   39.1147   22.8474   39.6347 H   0  0  0  0  0  0  0  0  0  0  0  0
   37.0838   24.2590   39.0284 H   0  0  0  0  0  0  0  0  0  0  0  0
   36.9364   26.0161   35.3464 H   0  0  0  0  0  0  0  0  0  0  0  0
   38.4609   26.7419   34.7029 H   0  0  0  0  0  0  0  0  0  0  0  0
   36.0776   26.4091   33.3433 H   0  0  0  0  0  0  0  0  0  0  0  0
   37.7289   26.7378   32.6431 H   0  0  0  0  0  0  0  0  0  0  0  0
   38.5288   23.8166   31.4603 H   0  0  0  0  0  0  0  0  0  0  0  0
   39.0551   25.3827   32.0350 H   0  0  0  0  0  0  0  0  0  0  0  0
   39.9568   23.7689   33.6893 H   0  0  0  0  0  0  0  0  0  0  0  0
  1  2  2  0
  3  2  1  0
  4  3  2  0
  5  6  2  0
  5  4  1  0
  6  1  1  0
  7  5  1  0
  8  7  1  0
  9  8  1  0
 10  9  1  0
 11 10  1  0
 11 12  1  0
 12 13  1  0
 12  7  1  0
 13 16  1  0
 13 15  1  0
 14 13  1  0
  1 17  1  0
  2 18  1  0
  3 19  1  0
  8 20  1  0
  8 21  1  0
  9 22  1  0
  9 23  1  0
 11 24  1  0
 11 25  1  0
 12 26  1  6
M  ISO  8  17  14  18  14  19  14  20  13  21  13  22  13  23  13  24  13
M  ISO  2  25  13  26  13
M  END
>  <minimizedAffinity>  (1) 
-4.1185503

>  <minimizedRMSD>  (1) 
0.419523925

$$$$
