
     RDKit          3D

 41 43  0  0  1  0  0  0  0  0999 V2000
   39.8810   22.9740   37.6780 C   0  0  0  0  0  0  0  0  0  0  0  0
   38.9320   23.1940   38.7040 C   0  0  0  0  0  0  0  0  0  0  0  0
   37.8210   23.9680   38.3730 C   0  0  0  0  0  0  0  0  0  0  0  0
   37.7380   24.4430   37.1040 N   0  0  0  0  0  0  0  0  0  0  0  0
   38.6770   24.2040   36.1540 C   0  0  0  0  0  0  0  0  0  0  0  0
   39.7330   23.4760   36.4490 N   0  0  0  0  0  0  0  0  0  0  0  0
   38.4730   24.7530   34.8570 N   0  0  0  0  0  0  0  0  0  0  0  0
   37.7610   26.0380   34.7550 C   0  0  0  0  0  0  0  0  0  0  0  0
   37.1110   26.1780   33.4140 C   0  0  0  0  0  0  0  0  0  0  0  0
   37.0890   24.9930   32.6910 O   0  0  0  0  0  0  0  0  0  0  0  0
   38.4160   24.7140   32.4340 C   0  0  0  0  0  0  0  0  0  0  0  0
   38.9420   24.0030   33.7420 C   0  0  1  0  0  0  0  0  0  0  0  0
   40.3060   23.9310   33.4050 N   0  0  0  0  0  0  0  0  0  0  0  0
   41.0650   25.1000   33.8280 C   0  0  0  0  0  0  0  0  0  0  0  0
   42.4630   24.5370   34.1240 C   0  0  0  0  0  0  0  0  0  0  0  0
   43.0400   24.1260   32.7770 C   0  0  0  0  0  0  0  0  0  0  0  0
   42.1120   23.2960   31.9750 C   0  0  0  0  0  0  0  0  0  0  0  0
   40.6460   23.7160   32.0470 C   0  0  0  0  0  0  0  0  0  0  0  0
   38.2350   22.6460   33.6650 C   0  0  0  0  0  0  0  0  0  0  0  0
   38.0350   22.4080   32.3240 F   0  0  0  0  0  0  0  0  0  0  0  0
   37.2220   22.4760   34.5170 F   0  0  0  0  0  0  0  0  0  0  0  0
   39.2530   21.7040   34.0450 F   0  0  0  0  0  0  0  0  0  0  0  0
   40.7720   22.3683   37.9001 H   0  0  0  0  0  0  0  0  0  0  0  0
   39.0643   22.7752   39.7125 H   0  0  0  0  0  0  0  0  0  0  0  0
   37.0384   24.1864   39.1145 H   0  0  0  0  0  0  0  0  0  0  0  0
   36.9891   26.0861   35.5372 H   0  0  0  0  0  0  0  0  0  0  0  0
   38.4861   26.8551   34.8834 H   0  0  0  0  0  0  0  0  0  0  0  0
   36.0750   26.5171   33.5612 H   0  0  0  0  0  0  0  0  0  0  0  0
   37.7045   26.9023   32.8368 H   0  0  0  0  0  0  0  0  0  0  0  0
   38.5098   24.0454   31.5656 H   0  0  0  0  0  0  0  0  0  0  0  0
   38.9913   25.6207   32.1955 H   0  0  0  0  0  0  0  0  0  0  0  0
   41.1064   25.8522   33.0265 H   0  0  0  0  0  0  0  0  0  0  0  0
   40.6175   25.6089   34.6945 H   0  0  0  0  0  0  0  0  0  0  0  0
   43.0943   25.3066   34.5921 H   0  0  0  0  0  0  0  0  0  0  0  0
   42.4172   23.6868   34.8205 H   0  0  0  0  0  0  0  0  0  0  0  0
   43.2781   25.0356   32.2061 H   0  0  0  0  0  0  0  0  0  0  0  0
   43.9347   23.5178   32.9759 H   0  0  0  0  0  0  0  0  0  0  0  0
   42.1877   22.2580   32.3312 H   0  0  0  0  0  0  0  0  0  0  0  0
   42.4167   23.4203   30.9254 H   0  0  0  0  0  0  0  0  0  0  0  0
   40.4976   24.6444   31.4759 H   0  0  0  0  0  0  0  0  0  0  0  0
   40.0073   22.9295   31.6186 H   0  0  0  0  0  0  0  0  0  0  0  0
  1  2  2  0
  3  2  1  0
  4  3  2  0
  5  6  2  0
  5  4  1  0
  6  1  1  0
  7  5  1  0
  8  7  1  0
  9  8  1  0
 10  9  1  0
 11 10  1  0
 11 12  1  0
 12 19  1  1
 12  7  1  0
 13 12  1  0
 13 14  1  0
 14 15  1  0
 16 15  1  0
 17 18  1  0
 17 16  1  0
 18 13  1  0
 19 22  1  0
 19 21  1  0
 20 19  1  0
  1 23  1  0
  2 24  1  0
  3 25  1  0
  8 26  1  0
  8 27  1  0
  9 28  1  0
  9 29  1  0
 11 30  1  0
 11 31  1  0
 14 32  1  0
 14 33  1  0
 15 34  1  0
 15 35  1  0
 16 36  1  0
 16 37  1  0
 17 38  1  0
 17 39  1  0
 18 40  1  0
 18 41  1  0
M  ISO  8  23  14  24  14  25  14  26  13  27  13  28  13  29  13  30  13
M  ISO  8  31  13  32  13  33  13  34  13  35  13  36  13  37  13  38  13
M  ISO  3  39  13  40  13  41  13
M  END
>  <minimizedAffinity>  (1) 
-4.43407393

>  <minimizedRMSD>  (1) 
0.804729104

$$$$
