
     RDKit          3D

 32 34  0  0  1  0  0  0  0  0999 V2000
   39.8800   22.9590   37.6360 C   0  0  0  0  0  0  0  0  0  0  0  0
   38.9350   23.2540   38.6760 C   0  0  0  0  0  0  0  0  0  0  0  0
   37.8350   24.0350   38.3280 C   0  0  0  0  0  0  0  0  0  0  0  0
   37.7430   24.4550   37.0420 N   0  0  0  0  0  0  0  0  0  0  0  0
   38.6680   24.1480   36.0900 C   0  0  0  0  0  0  0  0  0  0  0  0
   39.7150   23.4130   36.3910 N   0  0  0  0  0  0  0  0  0  0  0  0
   38.4410   24.6440   34.7710 N   0  0  0  0  0  0  0  0  0  0  0  0
   37.7200   25.9160   34.6340 C   0  0  0  0  0  0  0  0  0  0  0  0
   37.1200   26.0460   33.2690 C   0  0  0  0  0  0  0  0  0  0  0  0
   37.0310   24.8260   32.6170 O   0  0  0  0  0  0  0  0  0  0  0  0
   38.3460   24.5010   32.3540 C   0  0  0  0  0  0  0  0  0  0  0  0
   38.8710   23.8480   33.6890 C   0  0  1  0  0  0  0  0  0  0  0  0
   40.2530   23.6980   33.3230 N   0  0  0  0  0  0  0  0  0  0  0  0
   40.7430   23.3350   32.1310 C   0  0  0  0  0  0  0  0  0  0  0  0
   42.1080   23.3060   32.1690 N   0  0  0  0  0  0  0  0  0  0  0  0
   42.4150   23.6640   33.4220 C   0  0  0  0  0  0  0  0  0  0  0  0
   41.3020   23.9020   34.1220 N   0  0  0  0  0  0  0  0  0  0  0  0
   38.1270   22.4930   33.6820 C   0  0  0  0  0  0  0  0  0  0  0  0
   37.9310   22.2010   32.3490 F   0  0  0  0  0  0  0  0  0  0  0  0
   37.1270   22.3960   34.5450 F   0  0  0  0  0  0  0  0  0  0  0  0
   39.1370   21.5500   34.0930 F   0  0  0  0  0  0  0  0  0  0  0  0
   40.7614   22.3440   37.8705 H   0  0  0  0  0  0  0  0  0  0  0  0
   39.0733   22.8802   39.7013 H   0  0  0  0  0  0  0  0  0  0  0  0
   37.0682   24.3015   39.0703 H   0  0  0  0  0  0  0  0  0  0  0  0
   36.9178   25.9579   35.3854 H   0  0  0  0  0  0  0  0  0  0  0  0
   38.4316   26.7411   34.7849 H   0  0  0  0  0  0  0  0  0  0  0  0
   36.1098   26.4706   33.3652 H   0  0  0  0  0  0  0  0  0  0  0  0
   37.7744   26.6997   32.6737 H   0  0  0  0  0  0  0  0  0  0  0  0
   38.4097   23.7855   31.5209 H   0  0  0  0  0  0  0  0  0  0  0  0
   38.9403   25.3779   32.0576 H   0  0  0  0  0  0  0  0  0  0  0  0
   40.1334   23.0945   31.2475 H   0  0  0  0  0  0  0  0  0  0  0  0
   43.4374   23.7499   33.8186 H   0  0  0  0  0  0  0  0  0  0  0  0
  1  2  2  0
  3  2  1  0
  4  3  2  0
  5  6  2  0
  5  4  1  0
  6  1  1  0
  7  5  1  0
  8  7  1  0
  9  8  1  0
 10  9  1  0
 11 10  1  0
 11 12  1  0
 12 18  1  1
 12  7  1  0
 13 12  1  0
 13 17  1  0
 14 15  2  0
 14 13  1  0
 15 16  1  0
 16 17  2  0
 18 21  1  0
 18 20  1  0
 19 18  1  0
  1 22  1  0
  2 23  1  0
  3 24  1  0
  8 25  1  0
  8 26  1  0
  9 27  1  0
  9 28  1  0
 11 29  1  0
 11 30  1  0
 14 31  1  0
 16 32  1  0
M  ISO  8  22  14  23  14  24  14  25  13  26  13  27  13  28  13  29  13
M  ISO  3  30  13  31  14  32  14
M  END
>  <minimizedAffinity>  (1) 
-4.35024834

>  <minimizedRMSD>  (1) 
0.246063039

$$$$
