
     RDKit          3D

 33 35  0  0  1  0  0  0  0  0999 V2000
   39.8780   23.0010   37.6650 C   0  0  0  0  0  0  0  0  0  0  0  0
   38.9070   23.2310   38.6760 C   0  0  0  0  0  0  0  0  0  0  0  0
   37.7850   23.9710   38.3090 C   0  0  0  0  0  0  0  0  0  0  0  0
   37.7070   24.4120   37.0280 N   0  0  0  0  0  0  0  0  0  0  0  0
   38.6670   24.1640   36.0950 C   0  0  0  0  0  0  0  0  0  0  0  0
   39.7330   23.4670   36.4210 N   0  0  0  0  0  0  0  0  0  0  0  0
   38.4690   24.6710   34.7790 N   0  0  0  0  0  0  0  0  0  0  0  0
   37.7340   25.9390   34.6320 C   0  0  0  0  0  0  0  0  0  0  0  0
   37.0990   26.0320   33.2750 C   0  0  0  0  0  0  0  0  0  0  0  0
   37.1050   24.8260   32.5910 O   0  0  0  0  0  0  0  0  0  0  0  0
   38.4400   24.5620   32.3580 C   0  0  0  0  0  0  0  0  0  0  0  0
   38.9530   23.9050   33.6950 C   0  0  1  0  0  0  0  0  0  0  0  0
   40.3300   23.7980   33.3620 N   0  0  0  0  0  0  0  0  0  0  0  0
   40.8150   23.0800   32.3400 C   0  0  0  0  0  0  0  0  0  0  0  0
   42.1960   23.2720   32.4000 C   0  0  0  0  0  0  0  0  0  0  0  0
   42.4410   24.0760   33.4340 N   0  0  0  0  0  0  0  0  0  0  0  0
   41.3050   24.4130   34.0430 C   0  0  0  0  0  0  0  0  0  0  0  0
   38.2670   22.5220   33.6510 C   0  0  0  0  0  0  0  0  0  0  0  0
   38.1670   22.2220   32.3080 F   0  0  0  0  0  0  0  0  0  0  0  0
   37.2210   22.3840   34.4520 F   0  0  0  0  0  0  0  0  0  0  0  0
   39.2880   21.6240   34.1260 F   0  0  0  0  0  0  0  0  0  0  0  0
   40.7785   22.4205   37.9142 H   0  0  0  0  0  0  0  0  0  0  0  0
   39.0346   22.8441   39.6978 H   0  0  0  0  0  0  0  0  0  0  0  0
   36.9879   24.1907   39.0344 H   0  0  0  0  0  0  0  0  0  0  0  0
   36.9500   25.9928   35.4017 H   0  0  0  0  0  0  0  0  0  0  0  0
   38.4420   26.7728   34.7482 H   0  0  0  0  0  0  0  0  0  0  0  0
   36.0564   26.3605   33.3975 H   0  0  0  0  0  0  0  0  0  0  0  0
   37.6882   26.7487   32.6841 H   0  0  0  0  0  0  0  0  0  0  0  0
   38.5570   23.8668   31.5136 H   0  0  0  0  0  0  0  0  0  0  0  0
   39.0051   25.4681   32.0942 H   0  0  0  0  0  0  0  0  0  0  0  0
   40.2507   22.4745   31.6155 H   0  0  0  0  0  0  0  0  0  0  0  0
   42.9441   22.8395   31.7194 H   0  0  0  0  0  0  0  0  0  0  0  0
   41.1915   25.0624   34.9235 H   0  0  0  0  0  0  0  0  0  0  0  0
  1  2  2  0
  3  2  1  0
  4  3  2  0
  5  6  2  0
  5  4  1  0
  6  1  1  0
  7  5  1  0
  8  7  1  0
  9  8  1  0
 10  9  1  0
 11 10  1  0
 11 12  1  0
 12 18  1  1
 12  7  1  0
 13 12  1  0
 13 17  1  0
 14 15  2  0
 14 13  1  0
 15 16  1  0
 16 17  2  0
 18 21  1  0
 18 20  1  0
 19 18  1  0
  1 22  1  0
  2 23  1  0
  3 24  1  0
  8 25  1  0
  8 26  1  0
  9 27  1  0
  9 28  1  0
 11 29  1  0
 11 30  1  0
 14 31  1  0
 15 32  1  0
 17 33  1  0
M  ISO  8  22  14  23  14  24  14  25  13  26  13  27  13  28  13  29  13
M  ISO  4  30  13  31  14  32  14  33  14
M  END
>  <minimizedAffinity>  (1) 
-4.32945681

>  <minimizedRMSD>  (1) 
0.296200573

$$$$
