
     RDKit          3D

 33 35  0  0  1  0  0  0  0  0999 V2000
   39.8710   22.9710   37.6240 C   0  0  0  0  0  0  0  0  0  0  0  0
   38.9330   23.2420   38.6540 C   0  0  0  0  0  0  0  0  0  0  0  0
   37.8260   24.0140   38.3080 C   0  0  0  0  0  0  0  0  0  0  0  0
   37.7300   24.4440   37.0240 N   0  0  0  0  0  0  0  0  0  0  0  0
   38.6600   24.1560   36.0710 C   0  0  0  0  0  0  0  0  0  0  0  0
   39.7110   23.4280   36.3790 N   0  0  0  0  0  0  0  0  0  0  0  0
   38.4450   24.6550   34.7550 N   0  0  0  0  0  0  0  0  0  0  0  0
   37.7450   25.9420   34.6140 C   0  0  0  0  0  0  0  0  0  0  0  0
   37.0790   26.0400   33.2710 C   0  0  0  0  0  0  0  0  0  0  0  0
   37.0400   24.8310   32.5970 O   0  0  0  0  0  0  0  0  0  0  0  0
   38.3590   24.5240   32.3380 C   0  0  0  0  0  0  0  0  0  0  0  0
   38.8770   23.8640   33.6690 C   0  0  1  0  0  0  0  0  0  0  0  0
   40.2400   23.7010   33.2980 N   0  0  0  0  0  0  0  0  0  0  0  0
   41.2740   23.9090   34.0950 N   0  0  0  0  0  0  0  0  0  0  0  0
   42.3910   23.6660   33.4290 C   0  0  0  0  0  0  0  0  0  0  0  0
   42.1250   23.2760   32.1330 C   0  0  0  0  0  0  0  0  0  0  0  0
   40.7310   23.3210   32.1160 C   0  0  0  0  0  0  0  0  0  0  0  0
   38.1520   22.5020   33.6540 C   0  0  0  0  0  0  0  0  0  0  0  0
   37.9780   22.2130   32.3160 F   0  0  0  0  0  0  0  0  0  0  0  0
   37.1420   22.3920   34.5050 F   0  0  0  0  0  0  0  0  0  0  0  0
   39.1690   21.5720   34.0750 F   0  0  0  0  0  0  0  0  0  0  0  0
   40.7586   22.3650   37.8585 H   0  0  0  0  0  0  0  0  0  0  0  0
   39.0732   22.8609   39.6763 H   0  0  0  0  0  0  0  0  0  0  0  0
   37.0551   24.2668   39.0509 H   0  0  0  0  0  0  0  0  0  0  0  0
   36.9824   26.0265   35.4022 H   0  0  0  0  0  0  0  0  0  0  0  0
   38.4795   26.7558   34.7047 H   0  0  0  0  0  0  0  0  0  0  0  0
   36.0476   26.3938   33.4162 H   0  0  0  0  0  0  0  0  0  0  0  0
   37.6705   26.7382   32.6605 H   0  0  0  0  0  0  0  0  0  0  0  0
   38.4364   23.8181   31.4979 H   0  0  0  0  0  0  0  0  0  0  0  0
   38.9468   25.4090   32.0529 H   0  0  0  0  0  0  0  0  0  0  0  0
   43.4011   23.7625   33.8538 H   0  0  0  0  0  0  0  0  0  0  0  0
   42.8242   23.0029   31.3290 H   0  0  0  0  0  0  0  0  0  0  0  0
   40.1140   23.0745   31.2393 H   0  0  0  0  0  0  0  0  0  0  0  0
  1  2  2  0
  3  2  1  0
  4  3  2  0
  5  6  2  0
  5  4  1  0
  6  1  1  0
  7  5  1  0
  8  7  1  0
  9  8  1  0
 10  9  1  0
 11 10  1  0
 11 12  1  0
 12 18  1  1
 12  7  1  0
 13 12  1  0
 13 14  1  0
 15 14  2  0
 16 15  1  0
 17 16  2  0
 17 13  1  0
 18 21  1  0
 18 20  1  0
 19 18  1  0
  1 22  1  0
  2 23  1  0
  3 24  1  0
  8 25  1  0
  8 26  1  0
  9 27  1  0
  9 28  1  0
 11 29  1  0
 11 30  1  0
 15 31  1  0
 16 32  1  0
 17 33  1  0
M  ISO  8  22  14  23  14  24  14  25  13  26  13  27  13  28  13  29  13
M  ISO  4  30  13  31  14  32  14  33  14
M  END
>  <minimizedAffinity>  (1) 
-4.33428192

>  <minimizedRMSD>  (1) 
0.0914356858

$$$$
