
     RDKit          3D

 27 28  0  0  1  0  0  0  0  0999 V2000
   39.8900   22.9590   37.5810 C   0  0  0  0  0  0  0  0  0  0  0  0
   38.9500   23.2290   38.6210 C   0  0  0  0  0  0  0  0  0  0  0  0
   37.8420   24.0060   38.2840 C   0  0  0  0  0  0  0  0  0  0  0  0
   37.7440   24.4430   37.0030 N   0  0  0  0  0  0  0  0  0  0  0  0
   38.6700   24.1570   36.0450 C   0  0  0  0  0  0  0  0  0  0  0  0
   39.7210   23.4270   36.3450 N   0  0  0  0  0  0  0  0  0  0  0  0
   38.4440   24.6630   34.7330 N   0  0  0  0  0  0  0  0  0  0  0  0
   37.7230   25.9390   34.6040 C   0  0  0  0  0  0  0  0  0  0  0  0
   37.0940   26.0610   33.2510 C   0  0  0  0  0  0  0  0  0  0  0  0
   37.0280   24.8490   32.5810 O   0  0  0  0  0  0  0  0  0  0  0  0
   38.3480   24.5450   32.3150 C   0  0  0  0  0  0  0  0  0  0  0  0
   38.8800   23.8810   33.6390 C   0  0  2  0  0  0  0  0  0  0  0  0
   38.1490   22.5180   33.6200 C   0  0  0  0  0  0  0  0  0  0  0  0
   37.9920   22.2250   32.2820 F   0  0  0  0  0  0  0  0  0  0  0  0
   37.1360   22.4080   34.4640 F   0  0  0  0  0  0  0  0  0  0  0  0
   39.1640   21.5870   34.0500 F   0  0  0  0  0  0  0  0  0  0  0  0
   40.6090   23.7240   33.2130 S   0  0  0  0  0  0  0  0  0  0  0  0
   40.7770   22.3486   37.8060 H   0  0  0  0  0  0  0  0  0  0  0  0
   39.0930   22.8422   39.6408 H   0  0  0  0  0  0  0  0  0  0  0  0
   37.0740   24.2560   39.0308 H   0  0  0  0  0  0  0  0  0  0  0  0
   36.9375   25.9884   35.3724 H   0  0  0  0  0  0  0  0  0  0  0  0
   38.4397   26.7632   34.7347 H   0  0  0  0  0  0  0  0  0  0  0  0
   36.0732   26.4527   33.3714 H   0  0  0  0  0  0  0  0  0  0  0  0
   37.7212   26.7381   32.6525 H   0  0  0  0  0  0  0  0  0  0  0  0
   38.4219   23.8424   31.4719 H   0  0  0  0  0  0  0  0  0  0  0  0
   38.9308   25.4340   32.0321 H   0  0  0  0  0  0  0  0  0  0  0  0
   41.3572   23.6561   34.3586 H   0  0  0  0  0  0  0  0  0  0  0  0
  1  2  2  0
  3  2  1  0
  4  3  2  0
  5  6  2  0
  5  4  1  0
  6  1  1  0
  7  5  1  0
  8  7  1  0
  9  8  1  0
 10  9  1  0
 11 10  1  0
 11 12  1  0
 12 17  1  6
 12  7  1  0
 13 12  1  0
 13 16  1  0
 13 15  1  0
 14 13  1  0
  1 18  1  0
  2 19  1  0
  3 20  1  0
  8 21  1  0
  8 22  1  0
  9 23  1  0
  9 24  1  0
 11 25  1  0
 11 26  1  0
 17 27  1  0
M  ISO  8  18  14  19  14  20  14  21  13  22  13  23  13  24  13  25  13
M  ISO  2  26  13  27  11
M  END
>  <minimizedAffinity>  (1) 
-4.24367332

>  <minimizedRMSD>  (1) 
0.0285817534

$$$$
