
     RDKit          3D

 28 29  0  0  1  0  0  0  0  0999 V2000
   39.8600   22.9170   37.5020 C   0  0  0  0  0  0  0  0  0  0  0  0
   38.9510   23.2210   38.5480 C   0  0  0  0  0  0  0  0  0  0  0  0
   37.8570   24.0130   38.2100 C   0  0  0  0  0  0  0  0  0  0  0  0
   37.7400   24.4290   36.9260 N   0  0  0  0  0  0  0  0  0  0  0  0
   38.6440   24.1090   35.9560 C   0  0  0  0  0  0  0  0  0  0  0  0
   39.6850   23.3620   36.2560 N   0  0  0  0  0  0  0  0  0  0  0  0
   38.4170   24.5910   34.6400 N   0  0  0  0  0  0  0  0  0  0  0  0
   37.7410   25.8910   34.4900 C   0  0  0  0  0  0  0  0  0  0  0  0
   37.0650   25.9890   33.1560 C   0  0  0  0  0  0  0  0  0  0  0  0
   36.9740   24.7690   32.5040 O   0  0  0  0  0  0  0  0  0  0  0  0
   38.2780   24.4240   32.2260 C   0  0  0  0  0  0  0  0  0  0  0  0
   38.8150   23.7720   33.5570 C   0  0  2  0  0  0  0  0  0  0  0  0
   38.0490   22.4310   33.5760 C   0  0  0  0  0  0  0  0  0  0  0  0
   37.8280   22.1300   32.2490 F   0  0  0  0  0  0  0  0  0  0  0  0
   37.0630   22.3550   34.4580 F   0  0  0  0  0  0  0  0  0  0  0  0
   39.0520   21.4780   33.9790 F   0  0  0  0  0  0  0  0  0  0  0  0
   40.2180   23.6190   33.1640 C   0  0  0  0  0  0  0  0  0  0  0  0
   41.2320   24.2920   33.2420 O   0  0  0  0  0  0  0  0  0  0  0  0
   40.7384   22.2937   37.7254 H   0  0  0  0  0  0  0  0  0  0  0  0
   39.1027   22.8503   39.5725 H   0  0  0  0  0  0  0  0  0  0  0  0
   37.1079   24.2934   38.9651 H   0  0  0  0  0  0  0  0  0  0  0  0
   36.9881   25.9997   35.2846 H   0  0  0  0  0  0  0  0  0  0  0  0
   38.4935   26.6900   34.5633 H   0  0  0  0  0  0  0  0  0  0  0  0
   36.0490   26.3829   33.3060 H   0  0  0  0  0  0  0  0  0  0  0  0
   37.6744   26.6540   32.5263 H   0  0  0  0  0  0  0  0  0  0  0  0
   38.3195   23.7023   31.3969 H   0  0  0  0  0  0  0  0  0  0  0  0
   38.8798   25.2912   31.9164 H   0  0  0  0  0  0  0  0  0  0  0  0
   40.4040   22.6517   32.6744 H   0  0  0  0  0  0  0  0  0  0  0  0
  1  2  2  0
  3  2  1  0
  4  3  2  0
  5  6  2  0
  5  4  1  0
  6  1  1  0
  7  5  1  0
  8  7  1  0
  9  8  1  0
 10  9  1  0
 11 10  1  0
 11 12  1  0
 12 17  1  0
 12 13  1  1
 12  7  1  0
 13 16  1  0
 13 15  1  0
 14 13  1  0
 17 18  2  0
  1 19  1  0
  2 20  1  0
  3 21  1  0
  8 22  1  0
  8 23  1  0
  9 24  1  0
  9 25  1  0
 11 26  1  0
 11 27  1  0
 17 28  1  0
M  ISO  8  19  14  20  14  21  14  22  13  23  13  24  13  25  13  26  13
M  ISO  2  27  13  28   6
M  END
>  <minimizedAffinity>  (1) 
-4.1169138

>  <minimizedRMSD>  (1) 
0.334550202

$$$$
