
     RDKit          3D

 35 37  0  0  0  0  0  0  0  0999 V2000
   38.6630   24.1690   36.6000 C   0  0  0  0  0  0  0  0  0  0  0  0
   39.8930   23.6770   36.1280 C   0  0  0  0  0  0  0  0  0  0  0  0
   40.4260   24.2660   34.9520 C   0  0  0  0  0  0  0  0  0  0  0  0
   39.7250   25.2560   34.3620 N   0  0  0  0  0  0  0  0  0  0  0  0
   38.5580   25.6980   34.8410 C   0  0  0  0  0  0  0  0  0  0  0  0
   38.0350   25.1590   35.9470 N   0  0  0  0  0  0  0  0  0  0  0  0
   37.7770   26.7440   34.2510 N   0  0  0  0  0  0  0  0  0  0  0  0
   36.8090   27.4550   34.8330 C   0  0  0  0  0  0  0  0  0  0  0  0
   36.1610   28.4250   34.1130 C   0  0  0  0  0  0  0  0  0  0  0  0
   36.4980   28.6660   32.8180 C   0  0  0  0  0  0  0  0  0  0  0  0
   35.9220   29.5460   32.1380 O   0  0  0  0  0  0  0  0  0  0  0  0
   37.4700   27.9450   32.2490 N   0  0  0  0  0  0  0  0  0  0  0  0
   38.1080   26.9900   32.9590 C   0  0  0  0  0  0  0  0  0  0  0  0
   39.0150   26.3670   32.3170 O   0  0  0  0  0  0  0  0  0  0  0  0
   37.8100   28.2130   30.8840 C   0  0  0  0  0  0  0  0  0  0  0  0
   38.8330   27.5860   30.2520 N   0  0  0  0  0  0  0  0  0  0  0  0
   38.9260   28.0030   29.0400 O   0  0  0  0  0  0  0  0  0  0  0  0
   37.9800   28.8910   28.8710 C   0  0  0  0  0  0  0  0  0  0  0  0
   37.2670   29.0380   30.0180 N   0  0  0  0  0  0  0  0  0  0  0  0
   37.6550   29.6480   27.7090 N   0  0  0  0  0  0  0  0  0  0  0  0
   37.7190   31.0650   27.7870 C   0  0  0  0  0  0  0  0  0  0  0  0
   38.6210   31.6750   28.4720 N   0  0  0  0  0  0  0  0  0  0  0  0
   36.7590   31.8830   27.0840 N   0  0  0  0  0  0  0  0  0  0  0  0
   39.3230   31.1070   28.9840 H   0  0  0  0  0  0  0  0  0  0  0  0
   38.0670   23.5720   37.8400 C   0  0  0  0  0  0  0  0  0  0  0  0
   39.0240   22.8680   38.5650 F   0  0  0  0  0  0  0  0  0  0  0  0
   37.5970   24.5710   38.6540 F   0  0  0  0  0  0  0  0  0  0  0  0
   37.0200   22.7310   37.4560 F   0  0  0  0  0  0  0  0  0  0  0  0
   40.4219   22.8663   36.6506 H   0  0  0  0  0  0  0  0  0  0  0  0
   41.3842   23.9247   34.5332 H   0  0  0  0  0  0  0  0  0  0  0  0
   36.5337   27.2644   35.8808 H   0  0  0  0  0  0  0  0  0  0  0  0
   35.3616   29.0134   34.5870 H   0  0  0  0  0  0  0  0  0  0  0  0
   37.3804   29.1795   26.8338 H   0  0  0  0  0  0  0  0  0  0  0  0
   36.8134   32.9097   27.1465 H   0  0  0  0  0  0  0  0  0  0  0  0
   36.0198   31.4398   26.5200 H   0  0  0  0  0  0  0  0  0  0  0  0
  1 25  1  0
  2  1  2  0
  3  2  1  0
  4  5  1  0
  4  3  2  0
  5  6  2  0
  6  1  1  0
  7  8  1  0
  7  5  1  0
  9  8  2  0
 10  9  1  0
 11 10  2  0
 12 10  1  0
 12 13  1  0
 13  7  1  0
 14 13  2  0
 15 12  1  0
 16 15  2  0
 17 16  1  0
 18 17  1  0
 18 19  2  0
 19 15  1  0
 20 21  1  0
 20 18  1  0
 21 22  2  0
 22 24  1  0
 23 21  1  0
 25 26  1  0
 25 27  1  0
 28 25  1  0
  2 29  1  0
  3 30  1  0
  8 31  1  0
  9 32  1  0
 20 33  1  0
 23 34  1  0
 23 35  1  0
M  ISO  4  29  14  30  14  31  14  32  14
M  END
>  <minimizedAffinity>  (1) 
-6.72430134

>  <minimizedRMSD>  (1) 
0.269019395

$$$$
