
     RDKit          3D

 41 44  0  0  1  0  0  0  0  0999 V2000
   39.6750   22.9950   37.8510 C   0  0  0  0  0  0  0  0  0  0  0  0
   38.5680   23.0660   38.7580 C   0  0  0  0  0  0  0  0  0  0  0  0
   37.4370   23.7410   38.3210 C   0  0  0  0  0  0  0  0  0  0  0  0
   37.4630   24.2790   37.0780 N   0  0  0  0  0  0  0  0  0  0  0  0
   38.5390   24.1850   36.2570 C   0  0  0  0  0  0  0  0  0  0  0  0
   39.6150   23.5540   36.6430 N   0  0  0  0  0  0  0  0  0  0  0  0
   38.4410   24.7900   34.9730 N   0  0  0  0  0  0  0  0  0  0  0  0
   37.6200   26.0060   34.8390 C   0  0  0  0  0  0  0  0  0  0  0  0
   37.1580   26.1870   33.4150 C   0  0  0  0  0  0  0  0  0  0  0  0
   37.3170   25.0300   32.6570 O   0  0  0  0  0  0  0  0  0  0  0  0
   38.6950   24.8910   32.5540 C   0  0  0  0  0  0  0  0  0  0  0  0
   39.1330   24.1970   33.8850 C   0  0  2  0  0  0  0  0  0  0  0  0
   38.5740   22.7570   33.6600 C   0  0  0  0  0  0  0  0  0  0  0  0
   38.6820   22.5380   32.3070 F   0  0  0  0  0  0  0  0  0  0  0  0
   37.4370   22.4760   34.2820 F   0  0  0  0  0  0  0  0  0  0  0  0
   39.5750   21.9020   34.2220 F   0  0  0  0  0  0  0  0  0  0  0  0
   40.4740   24.2470   33.7290 O   0  0  0  0  0  0  0  0  0  0  0  0
   41.4650   25.0730   34.1040 C   0  0  0  0  0  0  0  0  0  0  0  0
   41.8710   26.3650   33.9260 C   0  0  0  0  0  0  0  0  0  0  0  0
   43.0000   26.6480   34.5800 N   0  0  0  0  0  0  0  0  0  0  0  0
   43.3600   25.5300   35.2110 C   0  0  0  0  0  0  0  0  0  0  0  0
   44.4750   25.3660   36.0130 C   0  0  0  0  0  0  0  0  0  0  0  0
   44.7130   24.1420   36.6000 C   0  0  0  0  0  0  0  0  0  0  0  0
   43.8210   23.1320   36.3570 C   0  0  0  0  0  0  0  0  0  0  0  0
   42.7310   23.3250   35.5610 C   0  0  0  0  0  0  0  0  0  0  0  0
   42.4460   24.5320   34.9480 C   0  0  0  0  0  0  0  0  0  0  0  0
   40.5913   22.4693   38.1577 H   0  0  0  0  0  0  0  0  0  0  0  0
   38.6127   22.6060   39.7562 H   0  0  0  0  0  0  0  0  0  0  0  0
   36.5487   23.8361   38.9628 H   0  0  0  0  0  0  0  0  0  0  0  0
   36.7412   25.9217   35.4951 H   0  0  0  0  0  0  0  0  0  0  0  0
   38.2297   26.8759   35.1247 H   0  0  0  0  0  0  0  0  0  0  0  0
   36.0931   26.4625   33.4209 H   0  0  0  0  0  0  0  0  0  0  0  0
   37.7744   26.9756   32.9588 H   0  0  0  0  0  0  0  0  0  0  0  0
   38.9567   24.2656   31.6877 H   0  0  0  0  0  0  0  0  0  0  0  0
   39.1978   25.8584   32.4078 H   0  0  0  0  0  0  0  0  0  0  0  0
   41.3257   27.0947   33.3094 H   0  0  0  0  0  0  0  0  0  0  0  0
   43.4949   27.5512   34.5943 H   0  0  0  0  0  0  0  0  0  0  0  0
   45.1659   26.2054   36.1808 H   0  0  0  0  0  0  0  0  0  0  0  0
   45.5911   23.9817   37.2429 H   0  0  0  0  0  0  0  0  0  0  0  0
   43.9871   22.1449   36.8132 H   0  0  0  0  0  0  0  0  0  0  0  0
   42.0453   22.4804   35.3984 H   0  0  0  0  0  0  0  0  0  0  0  0
  1  2  2  0
  3  2  1  0
  4  3  2  0
  5  6  2  0
  5  4  1  0
  6  1  1  0
  7  5  1  0
  8  7  1  0
  9  8  1  0
 10  9  1  0
 11 10  1  0
 11 12  1  0
 12 17  1  1
 12  7  1  0
 13 12  1  0
 13 16  1  0
 13 15  1  0
 14 13  1  0
 17 18  1  0
 18 26  1  0
 19 18  2  0
 19 20  1  0
 20 21  1  0
 21 22  2  0
 22 23  1  0
 24 23  2  0
 25 24  1  0
 26 21  1  0
 26 25  2  0
  1 27  1  0
  2 28  1  0
  3 29  1  0
  8 30  1  0
  8 31  1  0
  9 32  1  0
  9 33  1  0
 11 34  1  0
 11 35  1  0
 19 36  1  0
 20 37  1  0
 22 38  1  0
 23 39  1  0
 24 40  1  0
 25 41  1  0
M  ISO  8  27  14  28  14  29  14  30  13  31  13  32  13  33  13  34  13
M  ISO  7  35  13  36  14  37   9  38  14  39  14  40  14  41  14
M  END
>  <minimizedAffinity>  (1) 
-5.56748581

>  <minimizedRMSD>  (1) 
1.28141797

$$$$
