
     RDKit          3D

 35 37  0  0  1  0  0  0  0  0999 V2000
   39.9230   22.9960   37.5900 C   0  0  0  0  0  0  0  0  0  0  0  0
   38.9580   23.1860   38.6330 C   0  0  0  0  0  0  0  0  0  0  0  0
   37.8290   23.9260   38.3200 C   0  0  0  0  0  0  0  0  0  0  0  0
   37.7160   24.4160   37.0600 N   0  0  0  0  0  0  0  0  0  0  0  0
   38.6570   24.2100   36.1050 C   0  0  0  0  0  0  0  0  0  0  0  0
   39.7420   23.5090   36.3770 N   0  0  0  0  0  0  0  0  0  0  0  0
   38.4250   24.7790   34.8130 N   0  0  0  0  0  0  0  0  0  0  0  0
   37.6880   26.0430   34.7480 C   0  0  0  0  0  0  0  0  0  0  0  0
   37.0430   26.2000   33.3950 C   0  0  0  0  0  0  0  0  0  0  0  0
   37.0470   25.0330   32.6560 O   0  0  0  0  0  0  0  0  0  0  0  0
   38.3890   24.7960   32.3990 C   0  0  0  0  0  0  0  0  0  0  0  0
   38.9280   24.0730   33.6840 C   0  0  2  0  0  0  0  0  0  0  0  0
   38.2350   22.6890   33.5900 C   0  0  0  0  0  0  0  0  0  0  0  0
   38.1080   22.4600   32.2390 F   0  0  0  0  0  0  0  0  0  0  0  0
   37.2070   22.5050   34.4050 F   0  0  0  0  0  0  0  0  0  0  0  0
   39.2630   21.7770   34.0040 F   0  0  0  0  0  0  0  0  0  0  0  0
   40.2520   24.0550   33.3540 O   0  0  0  0  0  0  0  0  0  0  0  0
   41.2170   24.9970   33.5820 C   0  0  0  0  0  0  0  0  0  0  0  0
   41.1620   26.2770   33.1100 C   0  0  0  0  0  0  0  0  0  0  0  0
   42.1320   27.2260   33.3380 C   0  0  0  0  0  0  0  0  0  0  0  0
   43.1950   26.8320   34.0820 N   0  0  0  0  0  0  0  0  0  0  0  0
   43.2810   25.5840   34.5600 C   0  0  0  0  0  0  0  0  0  0  0  0
   42.3060   24.6950   34.3090 N   0  0  0  0  0  0  0  0  0  0  0  0
   40.8326   22.4133   37.7978 H   0  0  0  0  0  0  0  0  0  0  0  0
   39.1072   22.7630   39.6374 H   0  0  0  0  0  0  0  0  0  0  0  0
   37.0471   24.1107   39.0714 H   0  0  0  0  0  0  0  0  0  0  0  0
   36.9093   26.0500   35.5249 H   0  0  0  0  0  0  0  0  0  0  0  0
   38.3881   26.8757   34.9108 H   0  0  0  0  0  0  0  0  0  0  0  0
   36.0005   26.5202   33.5388 H   0  0  0  0  0  0  0  0  0  0  0  0
   37.6283   26.9451   32.8362 H   0  0  0  0  0  0  0  0  0  0  0  0
   38.5053   24.1513   31.5153 H   0  0  0  0  0  0  0  0  0  0  0  0
   38.9390   25.7246   32.1864 H   0  0  0  0  0  0  0  0  0  0  0  0
   40.2873   26.5679   32.5098 H   0  0  0  0  0  0  0  0  0  0  0  0
   42.0497   28.2477   32.9388 H   0  0  0  0  0  0  0  0  0  0  0  0
   44.1532   25.2859   35.1603 H   0  0  0  0  0  0  0  0  0  0  0  0
  1  2  2  0
  3  2  1  0
  4  3  2  0
  5  6  2  0
  5  4  1  0
  6  1  1  0
  7  5  1  0
  8  7  1  0
  9  8  1  0
 10  9  1  0
 11 10  1  0
 11 12  1  0
 12 17  1  6
 12  7  1  0
 13 12  1  0
 13 16  1  0
 13 15  1  0
 14 13  1  0
 17 18  1  0
 18 23  2  0
 19 20  2  0
 19 18  1  0
 20 21  1  0
 21 22  2  0
 23 22  1  0
  1 24  1  0
  2 25  1  0
  3 26  1  0
  8 27  1  0
  8 28  1  0
  9 29  1  0
  9 30  1  0
 11 31  1  0
 11 32  1  0
 19 33  1  0
 20 34  1  0
 22 35  1  0
M  ISO  8  24  14  25  14  26  14  27  13  28  13  29  13  30  13  31  13
M  ISO  4  32  13  33  14  34  14  35  14
M  END
>  <minimizedAffinity>  (1) 
-4.63005495

>  <minimizedRMSD>  (1) 
2.45497894

$$$$
