
     RDKit          3D

 40 42  0  0  1  0  0  0  0  0999 V2000
   39.9020   22.9770   37.5960 C   0  0  0  0  0  0  0  0  0  0  0  0
   38.9360   23.2180   38.6280 C   0  0  0  0  0  0  0  0  0  0  0  0
   37.8140   23.9640   38.2840 C   0  0  0  0  0  0  0  0  0  0  0  0
   37.7150   24.4080   37.0040 N   0  0  0  0  0  0  0  0  0  0  0  0
   38.6560   24.1530   36.0660 C   0  0  0  0  0  0  0  0  0  0  0  0
   39.7160   23.4560   36.3670 N   0  0  0  0  0  0  0  0  0  0  0  0
   38.4470   24.6650   34.7570 N   0  0  0  0  0  0  0  0  0  0  0  0
   37.7300   25.9460   34.6130 C   0  0  0  0  0  0  0  0  0  0  0  0
   37.0580   26.0440   33.2750 C   0  0  0  0  0  0  0  0  0  0  0  0
   37.0370   24.8330   32.5880 O   0  0  0  0  0  0  0  0  0  0  0  0
   38.3750   24.5650   32.3260 C   0  0  0  0  0  0  0  0  0  0  0  0
   38.9280   23.9330   33.6430 C   0  0  2  0  0  0  0  0  0  0  0  0
   38.2250   22.5410   33.6180 C   0  0  0  0  0  0  0  0  0  0  0  0
   38.0810   22.2360   32.2820 F   0  0  0  0  0  0  0  0  0  0  0  0
   37.1910   22.3970   34.4370 F   0  0  0  0  0  0  0  0  0  0  0  0
   39.2280   21.6250   34.0670 F   0  0  0  0  0  0  0  0  0  0  0  0
   40.2370   23.8260   33.3150 O   0  0  0  0  0  0  0  0  0  0  0  0
   41.0340   24.9050   33.2640 C   0  0  0  0  0  0  0  0  0  0  0  0
   40.5930   25.9290   34.3210 C   0  0  0  0  0  0  0  0  0  0  0  0
   40.9220   27.2630   33.6470 C   0  0  0  0  0  0  0  0  0  0  0  0
   40.3500   27.0380   32.2910 C   0  0  0  0  0  0  0  0  0  0  0  0
   40.7120   25.6380   31.9580 C   0  0  0  0  0  0  0  0  0  0  0  0
   40.8052   22.3910   37.8214 H   0  0  0  0  0  0  0  0  0  0  0  0
   39.0764   22.8296   39.6475 H   0  0  0  0  0  0  0  0  0  0  0  0
   37.0318   24.1874   39.0245 H   0  0  0  0  0  0  0  0  0  0  0  0
   36.9687   26.0219   35.4033 H   0  0  0  0  0  0  0  0  0  0  0  0
   38.4595   26.7650   34.6973 H   0  0  0  0  0  0  0  0  0  0  0  0
   36.0214   26.3792   33.4268 H   0  0  0  0  0  0  0  0  0  0  0  0
   37.6348   26.7573   32.6680 H   0  0  0  0  0  0  0  0  0  0  0  0
   38.4706   23.8583   31.4885 H   0  0  0  0  0  0  0  0  0  0  0  0
   38.9287   25.4712   32.0392 H   0  0  0  0  0  0  0  0  0  0  0  0
   42.0775   24.5786   33.3851 H   0  0  0  0  0  0  0  0  0  0  0  0
   39.5166   25.8447   34.5314 H   0  0  0  0  0  0  0  0  0  0  0  0
   41.0879   25.7955   35.2943 H   0  0  0  0  0  0  0  0  0  0  0  0
   40.4337   28.1060   34.1577 H   0  0  0  0  0  0  0  0  0  0  0  0
   41.9902   27.5256   33.6532 H   0  0  0  0  0  0  0  0  0  0  0  0
   39.2573   27.1634   32.3051 H   0  0  0  0  0  0  0  0  0  0  0  0
   40.7362   27.7552   31.5517 H   0  0  0  0  0  0  0  0  0  0  0  0
   39.8685   25.1452   31.4523 H   0  0  0  0  0  0  0  0  0  0  0  0
   41.5830   25.6195   31.2864 H   0  0  0  0  0  0  0  0  0  0  0  0
  1  2  2  0
  3  2  1  0
  4  3  2  0
  5  6  2  0
  5  4  1  0
  6  1  1  0
  7  5  1  0
  8  7  1  0
  9  8  1  0
 10  9  1  0
 11 10  1  0
 11 12  1  0
 12 17  1  6
 12  7  1  0
 13 12  1  0
 13 16  1  0
 13 15  1  0
 14 13  1  0
 18 17  1  0
 18 19  1  0
 20 19  1  0
 21 20  1  0
 22 21  1  0
 22 18  1  0
  1 23  1  0
  2 24  1  0
  3 25  1  0
  8 26  1  0
  8 27  1  0
  9 28  1  0
  9 29  1  0
 11 30  1  0
 11 31  1  0
 18 32  1  0
 19 33  1  0
 19 34  1  0
 20 35  1  0
 20 36  1  0
 21 37  1  0
 21 38  1  0
 22 39  1  0
 22 40  1  0
M  ISO  8  23  14  24  14  25  14  26  13  27  13  28  13  29  13  30  13
M  ISO  8  31  13  32  13  33  13  34  13  35  13  36  13  37  13  38  13
M  ISO  2  39  13  40  13
M  END
>  <minimizedAffinity>  (1) 
-4.75745201

>  <minimizedRMSD>  (1) 
0.26949057

$$$$
