
     RDKit          3D

 37 39  0  0  1  0  0  0  0  0999 V2000
   39.9330   23.0240   37.5530 C   0  0  0  0  0  0  0  0  0  0  0  0
   38.9620   23.1540   38.5910 C   0  0  0  0  0  0  0  0  0  0  0  0
   37.8110   23.8710   38.2880 C   0  0  0  0  0  0  0  0  0  0  0  0
   37.6920   24.3900   37.0380 N   0  0  0  0  0  0  0  0  0  0  0  0
   38.6500   24.2370   36.0830 C   0  0  0  0  0  0  0  0  0  0  0  0
   39.7370   23.5660   36.3550 N   0  0  0  0  0  0  0  0  0  0  0  0
   38.4070   24.8330   34.8020 N   0  0  0  0  0  0  0  0  0  0  0  0
   37.6410   26.0770   34.7540 C   0  0  0  0  0  0  0  0  0  0  0  0
   36.9950   26.2430   33.4040 C   0  0  0  0  0  0  0  0  0  0  0  0
   37.0450   25.0940   32.6340 O   0  0  0  0  0  0  0  0  0  0  0  0
   38.3840   24.8930   32.3910 C   0  0  0  0  0  0  0  0  0  0  0  0
   38.9350   24.1570   33.6800 C   0  0  2  0  0  0  0  0  0  0  0  0
   38.2890   22.7750   33.5290 C   0  0  0  0  0  0  0  0  0  0  0  0
   38.1860   22.5450   32.1820 F   0  0  0  0  0  0  0  0  0  0  0  0
   37.2480   22.5340   34.3320 F   0  0  0  0  0  0  0  0  0  0  0  0
   39.3310   21.8650   33.9510 F   0  0  0  0  0  0  0  0  0  0  0  0
   40.2470   24.1500   33.3250 O   0  0  0  0  0  0  0  0  0  0  0  0
   41.2560   25.0040   33.5710 C   0  0  0  0  0  0  0  0  0  0  0  0
   42.4180   24.7210   34.2770 C   0  0  0  0  0  0  0  0  0  0  0  0
   43.3940   25.6680   34.4740 C   0  0  0  0  0  0  0  0  0  0  0  0
   43.2290   26.9290   33.9680 C   0  0  0  0  0  0  0  0  0  0  0  0
   42.0910   27.2880   33.2510 C   0  0  0  0  0  0  0  0  0  0  0  0
   41.1400   26.2910   33.0830 C   0  0  0  0  0  0  0  0  0  0  0  0
   40.8603   22.4652   37.7478 H   0  0  0  0  0  0  0  0  0  0  0  0
   39.1176   22.7075   39.5842 H   0  0  0  0  0  0  0  0  0  0  0  0
   37.0193   24.0142   39.0382 H   0  0  0  0  0  0  0  0  0  0  0  0
   36.8606   26.0524   35.5288 H   0  0  0  0  0  0  0  0  0  0  0  0
   38.3219   26.9227   34.9305 H   0  0  0  0  0  0  0  0  0  0  0  0
   35.9407   26.5199   33.5519 H   0  0  0  0  0  0  0  0  0  0  0  0
   37.5538   27.0232   32.8663 H   0  0  0  0  0  0  0  0  0  0  0  0
   38.5239   24.2648   31.4989 H   0  0  0  0  0  0  0  0  0  0  0  0
   38.9132   25.8382   32.2000 H   0  0  0  0  0  0  0  0  0  0  0  0
   42.5609   23.7114   34.6897 H   0  0  0  0  0  0  0  0  0  0  0  0
   44.3046   25.4136   35.0363 H   0  0  0  0  0  0  0  0  0  0  0  0
   44.0168   27.6789   34.1323 H   0  0  0  0  0  0  0  0  0  0  0  0
   41.9538   28.3001   32.8425 H   0  0  0  0  0  0  0  0  0  0  0  0
   40.2288   26.5439   32.5211 H   0  0  0  0  0  0  0  0  0  0  0  0
  1  2  2  0
  3  2  1  0
  4  3  2  0
  5  6  2  0
  5  4  1  0
  6  1  1  0
  7  5  1  0
  8  7  1  0
  9  8  1  0
 10  9  1  0
 11 10  1  0
 11 12  1  0
 12 17  1  1
 12  7  1  0
 13 12  1  0
 13 16  1  0
 13 15  1  0
 14 13  1  0
 17 18  1  0
 18 19  2  0
 19 20  1  0
 21 20  2  0
 22 21  1  0
 23 22  2  0
 23 18  1  0
  1 24  1  0
  2 25  1  0
  3 26  1  0
  8 27  1  0
  8 28  1  0
  9 29  1  0
  9 30  1  0
 11 31  1  0
 11 32  1  0
 19 33  1  0
 20 34  1  0
 21 35  1  0
 22 36  1  0
 23 37  1  0
M  ISO  8  24  14  25  14  26  14  27  13  28  13  29  13  30  13  31  13
M  ISO  6  32  13  33  14  34  14  35  14  36  14  37  14
M  END
>  <minimizedAffinity>  (1) 
-4.7101922

>  <minimizedRMSD>  (1) 
0.862521172

$$$$
