
     RDKit          3D

 32 34  0  0  1  0  0  0  0  0999 V2000
   39.9170   22.9920   37.6700 C   0  0  0  0  0  0  0  0  0  0  0  0
   38.9520   23.1860   38.7020 C   0  0  0  0  0  0  0  0  0  0  0  0
   37.8200   23.9370   38.3670 C   0  0  0  0  0  0  0  0  0  0  0  0
   37.7210   24.4180   37.1080 N   0  0  0  0  0  0  0  0  0  0  0  0
   38.6850   24.1980   36.1600 C   0  0  0  0  0  0  0  0  0  0  0  0
   39.7550   23.4960   36.4530 N   0  0  0  0  0  0  0  0  0  0  0  0
   38.4550   24.7670   34.8630 N   0  0  0  0  0  0  0  0  0  0  0  0
   37.7300   26.0340   34.7760 C   0  0  0  0  0  0  0  0  0  0  0  0
   37.0930   26.1720   33.4140 C   0  0  0  0  0  0  0  0  0  0  0  0
   37.0990   24.9970   32.6890 O   0  0  0  0  0  0  0  0  0  0  0  0
   38.4290   24.7460   32.4510 C   0  0  0  0  0  0  0  0  0  0  0  0
   38.9620   24.0310   33.7590 C   0  0  2  0  0  0  0  0  0  0  0  0
   38.2770   22.6630   33.6510 C   0  0  0  0  0  0  0  0  0  0  0  0
   38.1640   22.4210   32.3030 F   0  0  0  0  0  0  0  0  0  0  0  0
   37.2370   22.4890   34.4620 F   0  0  0  0  0  0  0  0  0  0  0  0
   39.3090   21.7460   34.0910 F   0  0  0  0  0  0  0  0  0  0  0  0
   40.2890   24.0270   33.4130 O   0  0  0  0  0  0  0  0  0  0  0  0
   41.1640   25.0840   33.3100 C   0  0  0  0  0  0  0  0  0  0  0  0
   41.8420   25.4910   32.2220 N   0  0  0  0  0  0  0  0  0  0  0  0
   42.5520   26.5340   32.6020 O   0  0  0  0  0  0  0  0  0  0  0  0
   42.3340   26.7840   33.8870 C   0  0  0  0  0  0  0  0  0  0  0  0
   41.4580   25.8770   34.3580 N   0  0  0  0  0  0  0  0  0  0  0  0
   40.8225   22.4072   37.8892 H   0  0  0  0  0  0  0  0  0  0  0  0
   39.0905   22.7668   39.7095 H   0  0  0  0  0  0  0  0  0  0  0  0
   37.0313   24.1308   39.1089 H   0  0  0  0  0  0  0  0  0  0  0  0
   36.9473   26.0596   35.5485 H   0  0  0  0  0  0  0  0  0  0  0  0
   38.4345   26.8645   34.9310 H   0  0  0  0  0  0  0  0  0  0  0  0
   36.0501   26.4954   33.5470 H   0  0  0  0  0  0  0  0  0  0  0  0
   37.6849   26.9074   32.8494 H   0  0  0  0  0  0  0  0  0  0  0  0
   38.5462   24.0877   31.5775 H   0  0  0  0  0  0  0  0  0  0  0  0
   38.9869   25.6685   32.2326 H   0  0  0  0  0  0  0  0  0  0  0  0
   42.7925   27.5965   34.4697 H   0  0  0  0  0  0  0  0  0  0  0  0
  1  2  2  0
  3  2  1  0
  4  3  2  0
  5  6  2  0
  5  4  1  0
  6  1  1  0
  7  5  1  0
  8  7  1  0
  9  8  1  0
 10  9  1  0
 11 10  1  0
 11 12  1  0
 12 17  1  6
 12  7  1  0
 13 12  1  0
 13 16  1  0
 13 15  1  0
 14 13  1  0
 18 17  1  0
 18 22  1  0
 19 20  1  0
 19 18  2  0
 20 21  1  0
 21 22  2  0
  1 23  1  0
  2 24  1  0
  3 25  1  0
  8 26  1  0
  8 27  1  0
  9 28  1  0
  9 29  1  0
 11 30  1  0
 11 31  1  0
 21 32  1  0
M  ISO  8  23  14  24  14  25  14  26  13  27  13  28  13  29  13  30  13
M  ISO  2  31  13  32  14
M  END
>  <minimizedAffinity>  (1) 
-4.37347746

>  <minimizedRMSD>  (1) 
2.04267859

$$$$
