
     RDKit          3D

 30 31  0  0  1  0  0  0  0  0999 V2000
   39.8810   22.9590   37.6320 C   0  0  0  0  0  0  0  0  0  0  0  0
   38.9340   23.2570   38.6650 C   0  0  0  0  0  0  0  0  0  0  0  0
   37.8350   24.0280   38.3100 C   0  0  0  0  0  0  0  0  0  0  0  0
   37.7400   24.4400   37.0250 N   0  0  0  0  0  0  0  0  0  0  0  0
   38.6650   24.1320   36.0820 C   0  0  0  0  0  0  0  0  0  0  0  0
   39.7070   23.4080   36.3880 N   0  0  0  0  0  0  0  0  0  0  0  0
   38.4490   24.6270   34.7590 N   0  0  0  0  0  0  0  0  0  0  0  0
   37.7650   25.9240   34.6210 C   0  0  0  0  0  0  0  0  0  0  0  0
   37.0940   26.0260   33.2790 C   0  0  0  0  0  0  0  0  0  0  0  0
   37.0440   24.8210   32.6070 O   0  0  0  0  0  0  0  0  0  0  0  0
   38.3690   24.5000   32.3490 C   0  0  0  0  0  0  0  0  0  0  0  0
   38.9050   23.8390   33.6620 C   0  0  2  0  0  0  0  0  0  0  0  0
   38.1490   22.4800   33.6680 C   0  0  0  0  0  0  0  0  0  0  0  0
   37.9700   22.1900   32.3400 F   0  0  0  0  0  0  0  0  0  0  0  0
   37.1380   22.3840   34.5130 F   0  0  0  0  0  0  0  0  0  0  0  0
   39.1460   21.5460   34.1030 F   0  0  0  0  0  0  0  0  0  0  0  0
   40.2160   23.7510   33.3570 O   0  0  0  0  0  0  0  0  0  0  0  0
   40.9040   24.7910   32.8690 C   0  0  0  0  0  0  0  0  0  0  0  0
   40.7660   22.3500   37.8686 H   0  0  0  0  0  0  0  0  0  0  0  0
   39.0714   22.8914   39.6933 H   0  0  0  0  0  0  0  0  0  0  0  0
   37.0662   24.2952   39.0500 H   0  0  0  0  0  0  0  0  0  0  0  0
   37.0073   26.0196   35.4127 H   0  0  0  0  0  0  0  0  0  0  0  0
   38.5090   26.7294   34.7086 H   0  0  0  0  0  0  0  0  0  0  0  0
   36.0657   26.3870   33.4280 H   0  0  0  0  0  0  0  0  0  0  0  0
   37.6885   26.7196   32.6662 H   0  0  0  0  0  0  0  0  0  0  0  0
   38.4363   23.7937   31.5084 H   0  0  0  0  0  0  0  0  0  0  0  0
   38.9562   25.3877   32.0711 H   0  0  0  0  0  0  0  0  0  0  0  0
   41.3009   25.3910   33.7011 H   0  0  0  0  0  0  0  0  0  0  0  0
   41.7372   24.4226   32.2525 H   0  0  0  0  0  0  0  0  0  0  0  0
   40.2391   25.4137   32.2525 H   0  0  0  0  0  0  0  0  0  0  0  0
  1  2  2  0
  3  2  1  0
  4  3  2  0
  5  6  2  0
  5  4  1  0
  6  1  1  0
  7  5  1  0
  8  7  1  0
  9  8  1  0
 10  9  1  0
 11 10  1  0
 11 12  1  0
 12 17  1  6
 12 13  1  0
 12  7  1  0
 13 16  1  0
 13 15  1  0
 14 13  1  0
 18 17  1  0
  1 19  1  0
  2 20  1  0
  3 21  1  0
  8 22  1  0
  8 23  1  0
  9 24  1  0
  9 25  1  0
 11 26  1  0
 11 27  1  0
 18 28  1  0
 18 29  1  0
 18 30  1  0
M  ISO  8  19  14  20  14  21  14  22  13  23  13  24  13  25  13  26  13
M  ISO  4  27  13  28   8  29   8  30   8
M  END
>  <minimizedAffinity>  (1) 
-4.13945484

>  <minimizedRMSD>  (1) 
0.427524894

$$$$
