
     RDKit          3D

 37 39  0  0  1  0  0  0  0  0999 V2000
   40.7280   23.0350   35.8690 C   0  0  0  0  0  0  0  0  0  0  0  0
   40.0080   22.5080   36.9850 C   0  0  0  0  0  0  0  0  0  0  0  0
   38.8670   23.1840   37.3660 C   0  0  0  0  0  0  0  0  0  0  0  0
   38.5180   24.2880   36.6580 N   0  0  0  0  0  0  0  0  0  0  0  0
   39.2360   24.7520   35.6010 C   0  0  0  0  0  0  0  0  0  0  0  0
   40.3160   24.1270   35.2270 N   0  0  0  0  0  0  0  0  0  0  0  0
   38.7650   25.9170   34.9370 N   0  0  0  0  0  0  0  0  0  0  0  0
   38.0600   26.9300   35.7430 C   0  0  0  0  0  0  0  0  0  0  0  0
   37.0950   27.6980   34.8960 C   0  0  0  0  0  0  0  0  0  0  0  0
   36.9250   27.1820   33.6260 O   0  0  0  0  0  0  0  0  0  0  0  0
   38.1890   27.2620   33.0250 C   0  0  1  0  0  0  0  0  0  0  0  0
   38.9900   26.0590   33.5260 C   0  0  2  0  0  0  0  0  0  0  0  0
   38.1930   27.6290   31.6710 C   0  0  0  0  0  0  0  0  0  0  0  0
   39.1640   27.7960   30.7200 C   0  0  0  0  0  0  0  0  0  0  0  0
   38.9300   28.2340   29.4570 C   0  0  0  0  0  0  0  0  0  0  0  0
   37.4790   28.5240   29.1860 C   0  0  0  0  0  0  0  0  0  0  0  0
   36.6250   28.1670   30.6820 S   0  0  0  0  0  0  0  0  0  0  0  0
   38.2570   24.8730   32.8270 C   0  0  0  0  0  0  0  0  0  0  0  0
   37.9660   25.3330   31.5800 F   0  0  0  0  0  0  0  0  0  0  0  0
   37.3160   24.2440   33.5180 F   0  0  0  0  0  0  0  0  0  0  0  0
   39.2870   23.9060   32.5820 F   0  0  0  0  0  0  0  0  0  0  0  0
   40.1740   26.2790   32.9820 O   0  0  0  0  0  0  0  0  0  0  0  0
   41.2710   26.7520   33.4710 C   0  0  0  0  0  0  0  0  0  0  0  0
   41.5930   27.9340   32.7610 F   0  0  0  0  0  0  0  0  0  0  0  0
   42.3580   25.9150   33.1730 F   0  0  0  0  0  0  0  0  0  0  0  0
   41.4380   27.1350   34.7590 F   0  0  0  0  0  0  0  0  0  0  0  0
   41.6438   22.5272   35.5322 H   0  0  0  0  0  0  0  0  0  0  0  0
   40.3473   21.6060   37.5154 H   0  0  0  0  0  0  0  0  0  0  0  0
   38.2599   22.8392   38.2161 H   0  0  0  0  0  0  0  0  0  0  0  0
   37.5104   26.4288   36.5534 H   0  0  0  0  0  0  0  0  0  0  0  0
   38.7997   27.6289   36.1606 H   0  0  0  0  0  0  0  0  0  0  0  0
   36.1180   27.7008   35.4014 H   0  0  0  0  0  0  0  0  0  0  0  0
   37.5134   28.7081   34.7747 H   0  0  0  0  0  0  0  0  0  0  0  0
   38.7596   28.1471   33.3428 H   0  0  0  0  0  0  0  0  0  0  0  0
   40.2017   27.5596   30.9980 H   0  0  0  0  0  0  0  0  0  0  0  0
   39.7229   28.3641   28.7058 H   0  0  0  0  0  0  0  0  0  0  0  0
   37.0410   28.8857   28.2440 H   0  0  0  0  0  0  0  0  0  0  0  0
  1  2  2  0
  2  3  1  0
  4  3  2  0
  5  4  1  0
  6  5  2  0
  6  1  1  0
  7  5  1  0
  7  8  1  0
  9  8  1  0
 10  9  1  0
 11 12  1  0
 11 10  1  0
 12 22  1  1
 12  7  1  0
 13 11  1  0
 14 13  2  0
 15 14  1  0
 16 15  2  0
 16 17  1  0
 17 13  1  0
 18 20  1  0
 18 12  1  0
 19 18  1  0
 21 18  1  0
 22 23  1  0
 23 26  1  0
 24 23  1  0
 25 23  1  0
  1 27  1  0
  2 28  1  0
  3 29  1  0
  8 30  1  0
  8 31  1  0
  9 32  1  0
  9 33  1  0
 11 34  1  1
 14 35  1  0
 15 36  1  0
 16 37  1  0
M  ISO  8  27  14  28  14  29  14  30  13  31  13  32  13  33  13  34  13
M  ISO  3  35  14  36  14  37  14
M  END
>  <minimizedAffinity>  (1) 
-5.04986238

>  <minimizedRMSD>  (1) 
2.69048071

$$$$
