
     RDKit          3D

 40 42  0  0  1  0  0  0  0  0999 V2000
   39.7530   22.8730   37.6770 C   0  0  0  0  0  0  0  0  0  0  0  0
   38.7650   23.2250   38.6510 C   0  0  0  0  0  0  0  0  0  0  0  0
   37.8730   24.2180   38.3050 C   0  0  0  0  0  0  0  0  0  0  0  0
   38.0000   24.7800   37.0760 N   0  0  0  0  0  0  0  0  0  0  0  0
   38.9570   24.4100   36.1820 C   0  0  0  0  0  0  0  0  0  0  0  0
   39.8050   23.4790   36.4910 N   0  0  0  0  0  0  0  0  0  0  0  0
   38.9850   25.0750   34.9260 N   0  0  0  0  0  0  0  0  0  0  0  0
   38.5550   26.4880   34.8770 C   0  0  0  0  0  0  0  0  0  0  0  0
   38.0290   26.8390   33.5340 C   0  0  0  0  0  0  0  0  0  0  0  0
   37.8460   25.7350   32.7140 O   0  0  0  0  0  0  0  0  0  0  0  0
   39.1460   25.2280   32.5290 C   0  0  1  0  0  0  0  0  0  0  0  0
   39.4190   24.3700   33.7600 C   0  0  2  0  0  0  0  0  0  0  0  0
   39.2310   24.6950   31.2500 N   0  0  0  0  0  0  0  0  0  0  0  0
   39.4760   23.4500   30.8010 C   0  0  0  0  0  0  0  0  0  0  0  0
   39.5630   22.9840   29.5110 C   0  0  0  0  0  0  0  0  0  0  0  0
   39.3770   23.9140   28.5130 C   0  0  0  0  0  0  0  0  0  0  0  0
   39.4350   23.5960   27.3000 O   0  0  0  0  0  0  0  0  0  0  0  0
   39.1270   25.1850   28.8610 N   0  0  0  0  0  0  0  0  0  0  0  0
   39.0630   25.5250   30.1560 C   0  0  0  0  0  0  0  0  0  0  0  0
   38.8190   26.7670   30.3600 O   0  0  0  0  0  0  0  0  0  0  0  0
   38.4560   23.1650   33.5680 C   0  0  0  0  0  0  0  0  0  0  0  0
   37.9710   23.2950   32.3110 F   0  0  0  0  0  0  0  0  0  0  0  0
   37.5940   22.9120   34.5540 F   0  0  0  0  0  0  0  0  0  0  0  0
   39.2970   22.0090   33.4730 F   0  0  0  0  0  0  0  0  0  0  0  0
   40.6810   23.9870   33.5430 O   0  0  0  0  0  0  0  0  0  0  0  0
   41.8050   24.5980   33.7680 C   0  0  0  0  0  0  0  0  0  0  0  0
   42.5130   24.6460   32.5440 F   0  0  0  0  0  0  0  0  0  0  0  0
   42.6450   23.8060   34.5660 F   0  0  0  0  0  0  0  0  0  0  0  0
   41.9260   25.8520   34.2340 F   0  0  0  0  0  0  0  0  0  0  0  0
   40.4846   22.0860   37.9122 H   0  0  0  0  0  0  0  0  0  0  0  0
   38.7194   22.7263   39.6304 H   0  0  0  0  0  0  0  0  0  0  0  0
   37.0857   24.5434   39.0009 H   0  0  0  0  0  0  0  0  0  0  0  0
   37.7656   26.6497   35.6258 H   0  0  0  0  0  0  0  0  0  0  0  0
   39.4253   27.1262   35.0897 H   0  0  0  0  0  0  0  0  0  0  0  0
   37.0609   27.3461   33.6591 H   0  0  0  0  0  0  0  0  0  0  0  0
   38.7746   27.4866   33.0495 H   0  0  0  0  0  0  0  0  0  0  0  0
   39.9807   25.9442   32.5079 H   0  0  0  0  0  0  0  0  0  0  0  0
   39.6295   22.6923   31.5835 H   0  0  0  0  0  0  0  0  0  0  0  0
   39.7697   21.9268   29.2883 H   0  0  0  0  0  0  0  0  0  0  0  0
   38.9842   25.8997   28.1332 H   0  0  0  0  0  0  0  0  0  0  0  0
  1  2  2  0
  3  2  1  0
  4  3  2  0
  5  6  2  0
  5  4  1  0
  6  1  1  0
  7  5  1  0
  8  7  1  0
  9  8  1  0
 10  9  1  0
 11 10  1  0
 11 12  1  0
 12 25  1  1
 12  7  1  0
 13 11  1  0
 14 13  1  0
 15 14  2  0
 16 18  1  0
 16 15  1  0
 17 16  2  0
 18 19  1  0
 19 20  2  0
 19 13  1  0
 21 12  1  0
 21 23  1  0
 22 21  1  0
 24 21  1  0
 25 26  1  0
 26 29  1  0
 26 28  1  0
 27 26  1  0
  1 30  1  0
  2 31  1  0
  3 32  1  0
  8 33  1  0
  8 34  1  0
  9 35  1  0
  9 36  1  0
 11 37  1  6
 14 38  1  0
 15 39  1  0
 18 40  1  0
M  ISO  8  30  14  31  14  32  14  33  13  34  13  35  13  36  13  37  13
M  ISO  3  38  14  39  14  40   9
M  END
>  <minimizedAffinity>  (1) 
-5.05717278

>  <minimizedRMSD>  (1) 
0.986425042

$$$$
