
     RDKit          3D

 46 49  0  0  1  0  0  0  0  0999 V2000
   39.9160   23.1190   37.5140 C   0  0  0  0  0  0  0  0  0  0  0  0
   38.8330   22.9630   38.4460 C   0  0  0  0  0  0  0  0  0  0  0  0
   37.6440   23.5990   38.1450 C   0  0  0  0  0  0  0  0  0  0  0  0
   37.5860   24.3210   36.9970 N   0  0  0  0  0  0  0  0  0  0  0  0
   38.6400   24.4420   36.1420 C   0  0  0  0  0  0  0  0  0  0  0  0
   39.7730   23.8490   36.4070 N   0  0  0  0  0  0  0  0  0  0  0  0
   38.4500   25.2230   34.9700 N   0  0  0  0  0  0  0  0  0  0  0  0
   37.5280   26.3630   35.0480 C   0  0  0  0  0  0  0  0  0  0  0  0
   36.9620   26.6700   33.7280 C   0  0  0  0  0  0  0  0  0  0  0  0
   37.2390   25.6950   32.7560 O   0  0  0  0  0  0  0  0  0  0  0  0
   38.6340   25.7420   32.5950 C   0  0  1  0  0  0  0  0  0  0  0  0
   39.1530   24.8780   33.7660 C   0  0  2  0  0  0  0  0  0  0  0  0
   39.0380   25.4230   31.2640 C   0  0  0  0  0  0  0  0  0  0  0  0
   38.6330   24.2960   30.5250 C   0  0  0  0  0  0  0  0  0  0  0  0
   38.9470   23.9470   29.2300 C   0  0  0  0  0  0  0  0  0  0  0  0
   39.7700   24.7890   28.5160 C   0  0  0  0  0  0  0  0  0  0  0  0
   40.2300   25.9260   29.1380 C   0  0  0  0  0  0  0  0  0  0  0  0
   41.0670   26.7090   28.3780 C   0  0  0  0  0  0  0  0  0  0  0  0
   41.6060   27.8540   28.9140 C   0  0  0  0  0  0  0  0  0  0  0  0
   41.2860   28.1870   30.2200 C   0  0  0  0  0  0  0  0  0  0  0  0
   40.4410   27.3390   30.8950 C   0  0  0  0  0  0  0  0  0  0  0  0
   39.8560   26.1810   30.4410 C   0  0  0  0  0  0  0  0  0  0  0  0
   38.7080   23.4450   33.3810 C   0  0  0  0  0  0  0  0  0  0  0  0
   39.6010   23.0280   32.4670 F   0  0  0  0  0  0  0  0  0  0  0  0
   37.4220   23.2590   33.1310 F   0  0  0  0  0  0  0  0  0  0  0  0
   39.0270   22.6350   34.5260 F   0  0  0  0  0  0  0  0  0  0  0  0
   40.4610   25.0360   33.6510 O   0  0  0  0  0  0  0  0  0  0  0  0
   41.2970   25.8950   34.1240 C   0  0  0  0  0  0  0  0  0  0  0  0
   40.6440   27.1360   34.1850 F   0  0  0  0  0  0  0  0  0  0  0  0
   42.3420   26.1620   33.2140 F   0  0  0  0  0  0  0  0  0  0  0  0
   41.8860   25.7820   35.3230 F   0  0  0  0  0  0  0  0  0  0  0  0
   40.8791   22.6280   37.7172 H   0  0  0  0  0  0  0  0  0  0  0  0
   38.9461   22.3624   39.3606 H   0  0  0  0  0  0  0  0  0  0  0  0
   36.7736   23.5228   38.8132 H   0  0  0  0  0  0  0  0  0  0  0  0
   36.7107   26.1184   35.7424 H   0  0  0  0  0  0  0  0  0  0  0  0
   38.0849   27.2419   35.4048 H   0  0  0  0  0  0  0  0  0  0  0  0
   35.8703   26.7588   33.8300 H   0  0  0  0  0  0  0  0  0  0  0  0
   37.4284   27.6062   33.3873 H   0  0  0  0  0  0  0  0  0  0  0  0
   39.0910   26.7399   32.6686 H   0  0  0  0  0  0  0  0  0  0  0  0
   37.9726   23.5949   31.0564 H   0  0  0  0  0  0  0  0  0  0  0  0
   38.5524   23.0240   28.7801 H   0  0  0  0  0  0  0  0  0  0  0  0
   40.0515   24.5588   27.4778 H   0  0  0  0  0  0  0  0  0  0  0  0
   41.3045   26.4196   27.3437 H   0  0  0  0  0  0  0  0  0  0  0  0
   42.2765   28.4917   28.3192 H   0  0  0  0  0  0  0  0  0  0  0  0
   41.6911   29.0918   30.6966 H   0  0  0  0  0  0  0  0  0  0  0  0
   40.2024   27.6232   31.9305 H   0  0  0  0  0  0  0  0  0  0  0  0
  1  2  2  0
  3  2  1  0
  4  3  2  0
  5  6  2  0
  5  4  1  0
  6  1  1  0
  7  8  1  0
  7  5  1  0
  9  8  1  0
 10  9  1  0
 11 10  1  0
 11 12  1  0
 12 27  1  1
 12  7  1  0
 13 11  1  0
 14 13  2  0
 15 14  1  0
 16 17  1  0
 16 15  2  0
 17 22  2  0
 18 19  2  0
 18 17  1  0
 19 20  1  0
 20 21  2  0
 22 21  1  0
 22 13  1  0
 23 12  1  0
 23 26  1  0
 24 23  1  0
 25 23  1  0
 27 28  1  0
 28 29  1  0
 28 31  1  0
 30 28  1  0
  1 32  1  0
  2 33  1  0
  3 34  1  0
  8 35  1  0
  8 36  1  0
  9 37  1  0
  9 38  1  0
 11 39  1  1
 14 40  1  0
 15 41  1  0
 16 42  1  0
 18 43  1  0
 19 44  1  0
 20 45  1  0
 21 46  1  0
M  ISO  8  32  14  33  14  34  14  35  13  36  13  37  13  38  13  39  13
M  ISO  7  40  14  41  14  42  14  43  14  44  14  45  14  46  14
M  END
>  <minimizedAffinity>  (1) 
-5.27186537

>  <minimizedRMSD>  (1) 
1.42743456

$$$$
