
     RDKit          3D

 43 45  0  0  1  0  0  0  0  0999 V2000
   39.8370   23.0030   37.6800 C   0  0  0  0  0  0  0  0  0  0  0  0
   38.8350   23.0480   38.6990 C   0  0  0  0  0  0  0  0  0  0  0  0
   37.7160   23.8180   38.4430 C   0  0  0  0  0  0  0  0  0  0  0  0
   37.6590   24.4630   37.2560 N   0  0  0  0  0  0  0  0  0  0  0  0
   38.6340   24.3930   36.3130 C   0  0  0  0  0  0  0  0  0  0  0  0
   39.6980   23.6720   36.5370 N   0  0  0  0  0  0  0  0  0  0  0  0
   38.4530   25.1160   35.1060 N   0  0  0  0  0  0  0  0  0  0  0  0
   37.6970   26.3770   35.1590 C   0  0  0  0  0  0  0  0  0  0  0  0
   37.0490   26.6580   33.8450 C   0  0  0  0  0  0  0  0  0  0  0  0
   37.1200   25.5810   32.9500 O   0  0  0  0  0  0  0  0  0  0  0  0
   38.4910   25.4460   32.7300 C   0  0  1  0  0  0  0  0  0  0  0  0
   39.0070   24.5960   33.8840 C   0  0  2  0  0  0  0  0  0  0  0  0
   39.6580   24.8460   28.6970 C   0  0  0  0  0  0  0  0  0  0  0  0
   39.9490   25.9750   29.4290 C   0  0  0  0  0  0  0  0  0  0  0  0
   39.5240   26.1040   30.7340 C   0  0  0  0  0  0  0  0  0  0  0  0
   38.7790   25.1070   31.3950 C   0  0  0  0  0  0  0  0  0  0  0  0
   38.5380   24.0090   30.5730 C   0  0  0  0  0  0  0  0  0  0  0  0
   38.9330   23.8230   29.2700 C   0  0  0  0  0  0  0  0  0  0  0  0
   40.1750   24.6510   27.0530 S   0  0  0  0  0  0  0  0  0  0  0  0
   39.3550   23.6370   26.3200 O   0  0  0  0  0  0  0  0  0  0  0  0
   41.6230   24.2640   26.9450 O   0  0  0  0  0  0  0  0  0  0  0  0
   38.3530   23.2080   33.6360 C   0  0  0  0  0  0  0  0  0  0  0  0
   39.3300   22.4480   33.0900 F   0  0  0  0  0  0  0  0  0  0  0  0
   37.1540   23.2010   33.0490 F   0  0  0  0  0  0  0  0  0  0  0  0
   38.1700   22.6410   34.9380 F   0  0  0  0  0  0  0  0  0  0  0  0
   40.3050   24.5540   33.6450 O   0  0  0  0  0  0  0  0  0  0  0  0
   41.2790   25.3380   33.9410 C   0  0  0  0  0  0  0  0  0  0  0  0
   40.7940   26.6670   33.8770 F   0  0  0  0  0  0  0  0  0  0  0  0
   42.2650   25.3390   32.9330 F   0  0  0  0  0  0  0  0  0  0  0  0
   41.9340   25.3190   35.1260 F   0  0  0  0  0  0  0  0  0  0  0  0
   40.7435   22.4019   37.8440 H   0  0  0  0  0  0  0  0  0  0  0  0
   38.9494   22.4953   39.6432 H   0  0  0  0  0  0  0  0  0  0  0  0
   36.9019   23.9029   39.1778 H   0  0  0  0  0  0  0  0  0  0  0  0
   36.9214   26.3008   35.9353 H   0  0  0  0  0  0  0  0  0  0  0  0
   38.3919   27.1968   35.3935 H   0  0  0  0  0  0  0  0  0  0  0  0
   35.9897   26.8957   34.0219 H   0  0  0  0  0  0  0  0  0  0  0  0
   37.5916   27.4983   33.3873 H   0  0  0  0  0  0  0  0  0  0  0  0
   39.0740   26.3777   32.7744 H   0  0  0  0  0  0  0  0  0  0  0  0
   40.5294   26.7864   28.9656 H   0  0  0  0  0  0  0  0  0  0  0  0
   39.7769   27.0235   31.2822 H   0  0  0  0  0  0  0  0  0  0  0  0
   37.9595   23.1885   31.0227 H   0  0  0  0  0  0  0  0  0  0  0  0
   38.6841   22.9070   28.7141 H   0  0  0  0  0  0  0  0  0  0  0  0
   39.9996   25.8811   26.4760 H   0  0  0  0  0  0  0  0  0  0  0  0
  1  2  2  0
  3  2  1  0
  4  3  2  0
  5  6  2  0
  5  4  1  0
  6  1  1  0
  7  8  1  0
  7  5  1  0
  9  8  1  0
 10  9  1  0
 11 10  1  0
 11 12  1  0
 12 26  1  1
 12  7  1  0
 13 18  2  0
 13 14  1  0
 14 15  2  0
 15 16  1  0
 16 11  1  0
 17 16  2  0
 18 17  1  0
 19 13  1  0
 20 19  2  0
 21 19  2  0
 22 12  1  0
 22 25  1  0
 23 22  1  0
 24 22  1  0
 26 27  1  0
 27 30  1  0
 28 27  1  0
 29 27  1  0
  1 31  1  0
  2 32  1  0
  3 33  1  0
  8 34  1  0
  8 35  1  0
  9 36  1  0
  9 37  1  0
 11 38  1  1
 14 39  1  0
 15 40  1  0
 17 41  1  0
 18 42  1  0
 19 43  1  0
M  ISO  8  31  14  32  14  33  14  34  13  35  13  36  13  37  13  38  13
M  ISO  5  39  14  40  14  41  14  42  14  43  11
M  END
>  <minimizedAffinity>  (1) 
-5.02429295

>  <minimizedRMSD>  (1) 
1.53100681

$$$$
