
     RDKit          3D

 37 39  0  0  1  0  0  0  0  0999 V2000
   39.8900   23.0430   37.5780 C   0  0  0  0  0  0  0  0  0  0  0  0
   38.8760   23.0380   38.5880 C   0  0  0  0  0  0  0  0  0  0  0  0
   37.7360   23.7670   38.3340 C   0  0  0  0  0  0  0  0  0  0  0  0
   37.6600   24.4310   37.1520 N   0  0  0  0  0  0  0  0  0  0  0  0
   38.6510   24.4070   36.2190 C   0  0  0  0  0  0  0  0  0  0  0  0
   39.7330   23.7240   36.4430 N   0  0  0  0  0  0  0  0  0  0  0  0
   38.4530   25.1420   35.0180 N   0  0  0  0  0  0  0  0  0  0  0  0
   37.6550   26.3810   35.0850 C   0  0  0  0  0  0  0  0  0  0  0  0
   37.0020   26.6670   33.7810 C   0  0  0  0  0  0  0  0  0  0  0  0
   37.1010   25.6250   32.8720 O   0  0  0  0  0  0  0  0  0  0  0  0
   38.4730   25.4970   32.6310 C   0  0  1  0  0  0  0  0  0  0  0  0
   39.0210   24.6700   33.7980 C   0  0  2  0  0  0  0  0  0  0  0  0
   38.7910   25.0760   31.3260 N   0  0  0  0  0  0  0  0  0  0  0  0
   39.8930   25.6020   30.7480 N   0  0  0  0  0  0  0  0  0  0  0  0
   40.0680   25.1040   29.5190 C   0  0  0  0  0  0  0  0  0  0  0  0
   39.0630   24.2060   29.2290 C   0  0  0  0  0  0  0  0  0  0  0  0
   38.3230   24.2490   30.3900 C   0  0  0  0  0  0  0  0  0  0  0  0
   38.4080   23.2620   33.5190 C   0  0  0  0  0  0  0  0  0  0  0  0
   39.3200   22.6220   32.7440 F   0  0  0  0  0  0  0  0  0  0  0  0
   37.1260   23.2220   33.1510 F   0  0  0  0  0  0  0  0  0  0  0  0
   38.4850   22.5600   34.7690 F   0  0  0  0  0  0  0  0  0  0  0  0
   40.3280   24.6620   33.5310 O   0  0  0  0  0  0  0  0  0  0  0  0
   41.2800   25.4490   33.9030 C   0  0  0  0  0  0  0  0  0  0  0  0
   40.7950   26.7680   33.8350 F   0  0  0  0  0  0  0  0  0  0  0  0
   42.3220   25.4580   32.9700 F   0  0  0  0  0  0  0  0  0  0  0  0
   41.8730   25.4150   35.1230 F   0  0  0  0  0  0  0  0  0  0  0  0
   40.8169   22.4738   37.7416 H   0  0  0  0  0  0  0  0  0  0  0  0
   39.0019   22.4766   39.5256 H   0  0  0  0  0  0  0  0  0  0  0  0
   36.9143   23.8101   39.0641 H   0  0  0  0  0  0  0  0  0  0  0  0
   36.8804   26.2682   35.8578 H   0  0  0  0  0  0  0  0  0  0  0  0
   38.3267   27.2168   35.3305 H   0  0  0  0  0  0  0  0  0  0  0  0
   35.9363   26.8704   33.9626 H   0  0  0  0  0  0  0  0  0  0  0  0
   37.5228   27.5303   33.3411 H   0  0  0  0  0  0  0  0  0  0  0  0
   38.9890   26.4684   32.6218 H   0  0  0  0  0  0  0  0  0  0  0  0
   40.8915   25.3713   28.8405 H   0  0  0  0  0  0  0  0  0  0  0  0
   38.8968   23.6146   28.3165 H   0  0  0  0  0  0  0  0  0  0  0  0
   37.4141   23.6464   30.5344 H   0  0  0  0  0  0  0  0  0  0  0  0
  1  2  2  0
  3  2  1  0
  4  3  2  0
  5  6  2  0
  5  4  1  0
  6  1  1  0
  7  8  1  0
  7  5  1  0
  9  8  1  0
 10  9  1  0
 11 10  1  0
 11 12  1  0
 12 22  1  1
 12  7  1  0
 13 11  1  0
 14 13  1  0
 15 14  2  0
 16 15  1  0
 16 17  2  0
 17 13  1  0
 18 12  1  0
 18 21  1  0
 19 18  1  0
 20 18  1  0
 22 23  1  0
 23 26  1  0
 24 23  1  0
 25 23  1  0
  1 27  1  0
  2 28  1  0
  3 29  1  0
  8 30  1  0
  8 31  1  0
  9 32  1  0
  9 33  1  0
 11 34  1  1
 15 35  1  0
 16 36  1  0
 17 37  1  0
M  ISO  8  27  14  28  14  29  14  30  13  31  13  32  13  33  13  34  13
M  ISO  3  35  14  36  14  37  14
M  END
>  <minimizedAffinity>  (1) 
-4.70018816

>  <minimizedRMSD>  (1) 
0.962595284

$$$$
