
     RDKit          3D

 37 39  0  0  1  0  0  0  0  0999 V2000
   40.5680   23.0470   36.6300 C   0  0  0  0  0  0  0  0  0  0  0  0
   39.7680   22.7260   37.7660 C   0  0  0  0  0  0  0  0  0  0  0  0
   38.5710   23.4210   37.9160 C   0  0  0  0  0  0  0  0  0  0  0  0
   38.2630   24.3470   36.9710 N   0  0  0  0  0  0  0  0  0  0  0  0
   39.0720   24.6140   35.8990 C   0  0  0  0  0  0  0  0  0  0  0  0
   40.1920   23.9710   35.7480 N   0  0  0  0  0  0  0  0  0  0  0  0
   38.6250   25.6090   34.9810 N   0  0  0  0  0  0  0  0  0  0  0  0
   37.8340   26.7340   35.4880 C   0  0  0  0  0  0  0  0  0  0  0  0
   36.9280   27.2670   34.4360 C   0  0  0  0  0  0  0  0  0  0  0  0
   36.8970   26.5080   33.2610 O   0  0  0  0  0  0  0  0  0  0  0  0
   38.1880   26.5100   32.7970 C   0  0  1  0  0  0  0  0  0  0  0  0
   38.9750   25.4610   33.5950 C   0  0  2  0  0  0  0  0  0  0  0  0
   38.3230   24.1290   33.0950 C   0  0  0  0  0  0  0  0  0  0  0  0
   38.0180   24.3580   31.7900 F   0  0  0  0  0  0  0  0  0  0  0  0
   37.4170   23.5610   33.8770 F   0  0  0  0  0  0  0  0  0  0  0  0
   39.4210   23.2060   33.0080 F   0  0  0  0  0  0  0  0  0  0  0  0
   38.4030   26.5090   31.3340 C   0  0  0  0  0  0  0  0  0  0  0  0
   38.9970   27.7870   30.7970 C   0  0  0  0  0  0  0  0  0  0  0  0
   37.6080   27.5230   30.4570 C   0  0  0  0  0  0  0  0  0  0  0  0
   40.1900   25.6090   33.0950 O   0  0  0  0  0  0  0  0  0  0  0  0
   41.1740   26.3600   33.4640 C   0  0  0  0  0  0  0  0  0  0  0  0
   40.6810   27.6620   33.6930 F   0  0  0  0  0  0  0  0  0  0  0  0
   42.0720   26.5580   32.4000 F   0  0  0  0  0  0  0  0  0  0  0  0
   41.9320   26.1410   34.5700 F   0  0  0  0  0  0  0  0  0  0  0  0
   41.5203   22.5177   36.4784 H   0  0  0  0  0  0  0  0  0  0  0  0
   40.0830   21.9623   38.4923 H   0  0  0  0  0  0  0  0  0  0  0  0
   37.9008   23.2278   38.7666 H   0  0  0  0  0  0  0  0  0  0  0  0
   37.2312   26.3933   36.3427 H   0  0  0  0  0  0  0  0  0  0  0  0
   38.5222   27.5350   35.7959 H   0  0  0  0  0  0  0  0  0  0  0  0
   35.9086   27.3060   34.8474 H   0  0  0  0  0  0  0  0  0  0  0  0
   37.3170   28.2580   34.1594 H   0  0  0  0  0  0  0  0  0  0  0  0
   38.6013   27.5112   32.9888 H   0  0  0  0  0  0  0  0  0  0  0  0
   38.5919   25.4266   31.2830 H   0  0  0  0  0  0  0  0  0  0  0  0
   39.2369   28.6051   31.4922 H   0  0  0  0  0  0  0  0  0  0  0  0
   39.8927   28.0129   30.1997 H   0  0  0  0  0  0  0  0  0  0  0  0
   36.8071   28.1288   30.9058 H   0  0  0  0  0  0  0  0  0  0  0  0
   37.0348   27.4594   29.5203 H   0  0  0  0  0  0  0  0  0  0  0  0
  1  2  2  0
  2  3  1  0
  4  3  2  0
  5  4  1  0
  6  5  2  0
  6  1  1  0
  7  8  1  0
  7  5  1  0
  9  8  1  0
 10  9  1  0
 11 10  1  0
 11 12  1  0
 12 20  1  1
 12  7  1  0
 13 12  1  0
 13 15  1  0
 14 13  1  0
 16 13  1  0
 17 11  1  0
 18 17  1  0
 19 18  1  0
 19 17  1  0
 20 21  1  0
 21 22  1  0
 21 24  1  0
 23 21  1  0
  1 25  1  0
  2 26  1  0
  3 27  1  0
  8 28  1  0
  8 29  1  0
  9 30  1  0
  9 31  1  0
 11 32  1  1
 17 33  1  0
 18 34  1  0
 18 35  1  0
 19 36  1  0
 19 37  1  0
M  ISO  8  25  14  26  14  27  14  28  13  29  13  30  13  31  13  32  13
M  ISO  5  33  13  34  13  35  13  36  13  37  13
M  END
>  <minimizedAffinity>  (1) 
-4.65002918

>  <minimizedRMSD>  (1) 
2.08740997

$$$$
