
     RDKit          3D

 37 38  0  0  1  0  0  0  0  0999 V2000
   39.9090   22.9590   37.6750 C   0  0  0  0  0  0  0  0  0  0  0  0
   38.9290   23.2010   38.7080 C   0  0  0  0  0  0  0  0  0  0  0  0
   37.8230   23.9800   38.3730 C   0  0  0  0  0  0  0  0  0  0  0  0
   37.7470   24.4530   37.1020 N   0  0  0  0  0  0  0  0  0  0  0  0
   38.7040   24.1950   36.1550 C   0  0  0  0  0  0  0  0  0  0  0  0
   39.7460   23.4680   36.4520 N   0  0  0  0  0  0  0  0  0  0  0  0
   38.5070   24.7470   34.8610 N   0  0  0  0  0  0  0  0  0  0  0  0
   37.8030   26.0200   34.7480 C   0  0  0  0  0  0  0  0  0  0  0  0
   37.1200   26.1490   33.4310 C   0  0  0  0  0  0  0  0  0  0  0  0
   37.1220   24.9640   32.6740 O   0  0  0  0  0  0  0  0  0  0  0  0
   38.4570   24.7150   32.4600 C   0  0  1  0  0  0  0  0  0  0  0  0
   39.0020   24.0380   33.7250 C   0  0  2  0  0  0  0  0  0  0  0  0
   38.8090   24.1110   31.2310 N   0  0  0  0  0  0  0  0  0  0  0  0
   39.2570   25.0810   30.2520 C   0  0  0  0  0  0  0  0  0  0  0  0
   39.8040   26.2130   30.6330 N   0  0  0  0  0  0  0  0  0  0  0  0
   39.1060   24.8120   28.8340 N   0  0  0  0  0  0  0  0  0  0  0  0
   40.1020   26.8640   29.8800 H   0  0  0  0  0  0  0  0  0  0  0  0
   38.2580   22.6530   33.6850 C   0  0  0  0  0  0  0  0  0  0  0  0
   38.1060   22.3550   32.3690 F   0  0  0  0  0  0  0  0  0  0  0  0
   37.2110   22.5110   34.4930 F   0  0  0  0  0  0  0  0  0  0  0  0
   39.2330   21.7050   34.1360 F   0  0  0  0  0  0  0  0  0  0  0  0
   40.2770   23.8680   33.4160 O   0  0  0  0  0  0  0  0  0  0  0  0
   41.3030   24.6210   33.6320 C   0  0  0  0  0  0  0  0  0  0  0  0
   40.8650   25.9680   33.6440 F   0  0  0  0  0  0  0  0  0  0  0  0
   42.1770   24.5970   32.5310 F   0  0  0  0  0  0  0  0  0  0  0  0
   42.0730   24.5620   34.7470 F   0  0  0  0  0  0  0  0  0  0  0  0
   40.7974   22.3499   37.8981 H   0  0  0  0  0  0  0  0  0  0  0  0
   39.0508   22.7866   39.7197 H   0  0  0  0  0  0  0  0  0  0  0  0
   37.0393   24.2039   39.1118 H   0  0  0  0  0  0  0  0  0  0  0  0
   37.0516   26.0855   35.5486 H   0  0  0  0  0  0  0  0  0  0  0  0
   38.5400   26.8318   34.8364 H   0  0  0  0  0  0  0  0  0  0  0  0
   36.0758   26.4454   33.6091 H   0  0  0  0  0  0  0  0  0  0  0  0
   37.6772   26.9006   32.8525 H   0  0  0  0  0  0  0  0  0  0  0  0
   38.9701   25.6756   32.3053 H   0  0  0  0  0  0  0  0  0  0  0  0
   38.7534   23.0982   31.0521 H   0  0  0  0  0  0  0  0  0  0  0  0
   38.6790   23.9289   28.5200 H   0  0  0  0  0  0  0  0  0  0  0  0
   39.4258   25.5042   28.1416 H   0  0  0  0  0  0  0  0  0  0  0  0
  1  2  2  0
  3  2  1  0
  4  3  2  0
  5  6  2  0
  5  4  1  0
  6  1  1  0
  7  5  1  0
  8  7  1  0
  9  8  1  0
 10  9  1  0
 11 10  1  0
 11 12  1  0
 12 22  1  6
 12  7  1  0
 13 11  1  0
 14 15  2  0
 14 13  1  0
 16 14  1  0
 17 15  1  0
 18 12  1  0
 18 21  1  0
 18 20  1  0
 19 18  1  0
 22 23  1  0
 23 24  1  0
 23 26  1  0
 25 23  1  0
  1 27  1  0
  2 28  1  0
  3 29  1  0
  8 30  1  0
  8 31  1  0
  9 32  1  0
  9 33  1  0
 11 34  1  6
 13 35  1  0
 16 36  1  0
 16 37  1  0
M  ISO  8  27  14  28  14  29  14  30  13  31  13  32  13  33  13  34  13
M  END
>  <minimizedAffinity>  (1) 
-4.67219687

>  <minimizedRMSD>  (1) 
0.327020019

$$$$
