
     RDKit          3D

 33 34  0  0  1  0  0  0  0  0999 V2000
   39.8880   22.9690   37.6710 C   0  0  0  0  0  0  0  0  0  0  0  0
   38.9280   23.2040   38.6950 C   0  0  0  0  0  0  0  0  0  0  0  0
   37.8320   23.9820   38.3630 C   0  0  0  0  0  0  0  0  0  0  0  0
   37.7620   24.4550   37.0920 N   0  0  0  0  0  0  0  0  0  0  0  0
   38.7040   24.2040   36.1460 C   0  0  0  0  0  0  0  0  0  0  0  0
   39.7380   23.4740   36.4460 N   0  0  0  0  0  0  0  0  0  0  0  0
   38.5050   24.7620   34.8490 N   0  0  0  0  0  0  0  0  0  0  0  0
   37.8060   26.0470   34.7370 C   0  0  0  0  0  0  0  0  0  0  0  0
   37.1010   26.1590   33.4390 C   0  0  0  0  0  0  0  0  0  0  0  0
   37.1250   24.9860   32.6610 O   0  0  0  0  0  0  0  0  0  0  0  0
   38.4560   24.7390   32.4350 C   0  0  1  0  0  0  0  0  0  0  0  0
   38.9910   24.0560   33.7140 C   0  0  2  0  0  0  0  0  0  0  0  0
   38.2480   22.6730   33.6800 C   0  0  0  0  0  0  0  0  0  0  0  0
   38.0940   22.3780   32.3630 F   0  0  0  0  0  0  0  0  0  0  0  0
   37.2030   22.5300   34.4800 F   0  0  0  0  0  0  0  0  0  0  0  0
   39.2250   21.7220   34.1190 F   0  0  0  0  0  0  0  0  0  0  0  0
   38.8540   24.1170   31.1690 C   0  0  0  0  0  0  0  0  0  0  0  0
   40.2700   23.8840   33.4080 O   0  0  0  0  0  0  0  0  0  0  0  0
   41.2960   24.6480   33.6090 C   0  0  0  0  0  0  0  0  0  0  0  0
   40.9580   25.9580   33.2190 F   0  0  0  0  0  0  0  0  0  0  0  0
   42.3300   24.3280   32.7160 F   0  0  0  0  0  0  0  0  0  0  0  0
   41.8680   24.8440   34.8220 F   0  0  0  0  0  0  0  0  0  0  0  0
   40.7740   22.3568   37.8952 H   0  0  0  0  0  0  0  0  0  0  0  0
   39.0513   22.7862   39.7051 H   0  0  0  0  0  0  0  0  0  0  0  0
   37.0479   24.2083   39.1005 H   0  0  0  0  0  0  0  0  0  0  0  0
   37.0725   26.1293   35.5526 H   0  0  0  0  0  0  0  0  0  0  0  0
   38.5488   26.8557   34.8022 H   0  0  0  0  0  0  0  0  0  0  0  0
   36.0507   26.4176   33.6391 H   0  0  0  0  0  0  0  0  0  0  0  0
   37.6298   26.9305   32.8601 H   0  0  0  0  0  0  0  0  0  0  0  0
   38.9512   25.7045   32.2543 H   0  0  0  0  0  0  0  0  0  0  0  0
   39.4364   23.2068   31.3748 H   0  0  0  0  0  0  0  0  0  0  0  0
   37.9556   23.8546   30.5910 H   0  0  0  0  0  0  0  0  0  0  0  0
   39.4687   24.8228   30.5910 H   0  0  0  0  0  0  0  0  0  0  0  0
  1  2  2  0
  3  2  1  0
  4  3  2  0
  5  6  2  0
  5  4  1  0
  6  1  1  0
  7  5  1  0
  8  7  1  0
  9  8  1  0
 10  9  1  0
 11 10  1  0
 11 12  1  0
 12 18  1  6
 12  7  1  0
 13 12  1  0
 13 16  1  0
 13 15  1  0
 14 13  1  0
 17 11  1  0
 18 19  1  0
 19 22  1  0
 20 19  1  0
 21 19  1  0
  1 23  1  0
  2 24  1  0
  3 25  1  0
  8 26  1  0
  8 27  1  0
  9 28  1  0
  9 29  1  0
 11 30  1  6
 17 31  1  0
 17 32  1  0
 17 33  1  0
M  ISO  8  23  14  24  14  25  14  26  13  27  13  28  13  29  13  30  13
M  ISO  3  31   8  32   8  33   8
M  END
>  <minimizedAffinity>  (1) 
-4.32886314

>  <minimizedRMSD>  (1) 
0.0515431985

$$$$
