
     RDKit          3D

 31 32  0  0  1  0  0  0  0  0999 V2000
   39.8890   22.9710   37.6270 C   0  0  0  0  0  0  0  0  0  0  0  0
   38.9370   23.1980   38.6650 C   0  0  0  0  0  0  0  0  0  0  0  0
   37.8300   23.9760   38.3440 C   0  0  0  0  0  0  0  0  0  0  0  0
   37.7480   24.4530   37.0760 N   0  0  0  0  0  0  0  0  0  0  0  0
   38.6880   24.2080   36.1180 C   0  0  0  0  0  0  0  0  0  0  0  0
   39.7240   23.4820   36.4110 N   0  0  0  0  0  0  0  0  0  0  0  0
   38.4790   24.7700   34.8280 N   0  0  0  0  0  0  0  0  0  0  0  0
   37.7720   26.0520   34.7330 C   0  0  0  0  0  0  0  0  0  0  0  0
   37.0820   26.1980   33.4250 C   0  0  0  0  0  0  0  0  0  0  0  0
   37.0760   25.0170   32.6580 O   0  0  0  0  0  0  0  0  0  0  0  0
   38.4040   24.7560   32.4180 C   0  0  1  0  0  0  0  0  0  0  0  0
   38.9550   24.0820   33.6840 C   0  0  2  0  0  0  0  0  0  0  0  0
   38.2260   22.6940   33.6410 C   0  0  0  0  0  0  0  0  0  0  0  0
   38.0220   22.4230   32.3270 F   0  0  0  0  0  0  0  0  0  0  0  0
   37.2060   22.5290   34.4860 F   0  0  0  0  0  0  0  0  0  0  0  0
   39.2180   21.7370   34.0270 F   0  0  0  0  0  0  0  0  0  0  0  0
   38.8290   23.9570   30.8870 S   0  0  0  0  0  0  0  0  0  0  0  0
   40.2360   23.9200   33.3630 O   0  0  0  0  0  0  0  0  0  0  0  0
   41.2580   24.6820   33.5510 C   0  0  0  0  0  0  0  0  0  0  0  0
   40.9400   25.9590   33.0430 F   0  0  0  0  0  0  0  0  0  0  0  0
   42.3300   24.2930   32.7350 F   0  0  0  0  0  0  0  0  0  0  0  0
   41.7840   24.9750   34.7630 F   0  0  0  0  0  0  0  0  0  0  0  0
   40.7790   22.3598   37.8375 H   0  0  0  0  0  0  0  0  0  0  0  0
   39.0723   22.7772   39.6723 H   0  0  0  0  0  0  0  0  0  0  0  0
   37.0511   24.1963   39.0888 H   0  0  0  0  0  0  0  0  0  0  0  0
   37.0257   26.1092   35.5391 H   0  0  0  0  0  0  0  0  0  0  0  0
   38.5112   26.8614   34.8254 H   0  0  0  0  0  0  0  0  0  0  0  0
   36.0401   26.4967   33.6125 H   0  0  0  0  0  0  0  0  0  0  0  0
   37.6359   26.9545   32.8497 H   0  0  0  0  0  0  0  0  0  0  0  0
   38.9100   25.7143   32.2289 H   0  0  0  0  0  0  0  0  0  0  0  0
   39.4603   22.7702   31.1512 H   0  0  0  0  0  0  0  0  0  0  0  0
  1  2  2  0
  3  2  1  0
  4  3  2  0
  5  6  2  0
  5  4  1  0
  6  1  1  0
  7  5  1  0
  8  7  1  0
  9  8  1  0
 10  9  1  0
 11 10  1  0
 11 12  1  0
 12 18  1  6
 12  7  1  0
 13 12  1  0
 13 16  1  0
 13 15  1  0
 14 13  1  0
 17 11  1  0
 18 19  1  0
 19 22  1  0
 20 19  1  0
 21 19  1  0
  1 23  1  0
  2 24  1  0
  3 25  1  0
  8 26  1  0
  8 27  1  0
  9 28  1  0
  9 29  1  0
 11 30  1  6
 17 31  1  0
M  ISO  8  23  14  24  14  25  14  26  13  27  13  28  13  29  13  30  13
M  ISO  1  31  11
M  END
>  <minimizedAffinity>  (1) 
-4.33270502

>  <minimizedRMSD>  (1) 
0.056569878

$$$$
