
     RDKit          3D

 37 39  0  0  1  0  0  0  0  0999 V2000
   39.8340   23.0610   37.5420 C   0  0  0  0  0  0  0  0  0  0  0  0
   38.7630   23.1220   38.4880 C   0  0  0  0  0  0  0  0  0  0  0  0
   37.6250   23.7910   38.1010 C   0  0  0  0  0  0  0  0  0  0  0  0
   37.6040   24.3370   36.8580 N   0  0  0  0  0  0  0  0  0  0  0  0
   38.6450   24.2540   35.9890 C   0  0  0  0  0  0  0  0  0  0  0  0
   39.7300   23.6260   36.3410 N   0  0  0  0  0  0  0  0  0  0  0  0
   38.5040   24.8640   34.7180 N   0  0  0  0  0  0  0  0  0  0  0  0
   37.6750   26.0850   34.6260 C   0  0  0  0  0  0  0  0  0  0  0  0
   37.0810   26.2200   33.2630 C   0  0  0  0  0  0  0  0  0  0  0  0
   37.2690   25.1130   32.4560 O   0  0  0  0  0  0  0  0  0  0  0  0
   38.6530   24.9970   32.3290 C   0  0  1  0  0  0  0  0  0  0  0  0
   39.1590   24.2820   33.5770 C   0  0  2  0  0  0  0  0  0  0  0  0
   39.1210   24.6460   31.0310 C   0  0  0  0  0  0  0  0  0  0  0  0
   40.3670   24.7370   30.4470 C   0  0  0  0  0  0  0  0  0  0  0  0
   40.3980   24.3520   29.1570 N   0  0  0  0  0  0  0  0  0  0  0  0
   39.1410   23.9900   28.8580 C   0  0  0  0  0  0  0  0  0  0  0  0
   38.4070   24.1660   29.9550 N   0  0  0  0  0  0  0  0  0  0  0  0
   38.5820   22.8490   33.4070 C   0  0  0  0  0  0  0  0  0  0  0  0
   38.9420   22.4770   32.1530 F   0  0  0  0  0  0  0  0  0  0  0  0
   37.3380   22.6410   33.8070 F   0  0  0  0  0  0  0  0  0  0  0  0
   39.4120   22.0250   34.2370 F   0  0  0  0  0  0  0  0  0  0  0  0
   40.4690   24.3040   33.3920 O   0  0  0  0  0  0  0  0  0  0  0  0
   41.3830   25.1220   33.7730 C   0  0  0  0  0  0  0  0  0  0  0  0
   40.9760   26.4280   33.4110 F   0  0  0  0  0  0  0  0  0  0  0  0
   42.5620   24.9550   33.0370 F   0  0  0  0  0  0  0  0  0  0  0  0
   41.7790   25.2900   35.0620 F   0  0  0  0  0  0  0  0  0  0  0  0
   40.7624   22.5366   37.8122 H   0  0  0  0  0  0  0  0  0  0  0  0
   38.8456   22.6549   39.4805 H   0  0  0  0  0  0  0  0  0  0  0  0
   36.7610   23.8806   38.7759 H   0  0  0  0  0  0  0  0  0  0  0  0
   36.8653   26.0281   35.3684 H   0  0  0  0  0  0  0  0  0  0  0  0
   38.3124   26.9599   34.8215 H   0  0  0  0  0  0  0  0  0  0  0  0
   35.9996   26.3890   33.3720 H   0  0  0  0  0  0  0  0  0  0  0  0
   37.5937   27.0614   32.7740 H   0  0  0  0  0  0  0  0  0  0  0  0
   39.1641   25.9710   32.3323 H   0  0  0  0  0  0  0  0  0  0  0  0
   41.2568   25.0926   30.9872 H   0  0  0  0  0  0  0  0  0  0  0  0
   38.7833   23.6171   27.8869 H   0  0  0  0  0  0  0  0  0  0  0  0
   37.3982   23.9620   29.9954 H   0  0  0  0  0  0  0  0  0  0  0  0
  1  2  2  0
  3  2  1  0
  4  3  2  0
  5  6  2  0
  5  4  1  0
  6  1  1  0
  7  5  1  0
  8  7  1  0
  9  8  1  0
 10  9  1  0
 11 10  1  0
 11 12  1  0
 12 22  1  1
 12  7  1  0
 13 11  1  0
 14 13  2  0
 15 14  1  0
 16 15  2  0
 16 17  1  0
 17 13  1  0
 18 12  1  0
 18 20  1  0
 18 21  1  0
 19 18  1  0
 22 23  1  0
 23 26  1  0
 24 23  1  0
 25 23  1  0
  1 27  1  0
  2 28  1  0
  3 29  1  0
  8 30  1  0
  8 31  1  0
  9 32  1  0
  9 33  1  0
 11 34  1  1
 14 35  1  0
 16 36  1  0
 17 37  1  0
M  ISO  8  27  14  28  14  29  14  30  13  31  13  32  13  33  13  34  13
M  ISO  3  35  14  36  14  37   9
M  END
>  <minimizedAffinity>  (1) 
-4.57211399

>  <minimizedRMSD>  (1) 
0.515648067

$$$$
