
     RDKit          3D

 48 51  0  0  1  0  0  0  0  0999 V2000
   39.9560   22.9280   37.0800 C   0  0  0  0  0  0  0  0  0  0  0  0
   39.1030   22.7940   38.2190 C   0  0  0  0  0  0  0  0  0  0  0  0
   38.0880   23.7180   38.3550 C   0  0  0  0  0  0  0  0  0  0  0  0
   37.9740   24.6820   37.4040 N   0  0  0  0  0  0  0  0  0  0  0  0
   38.8190   24.7680   36.3280 C   0  0  0  0  0  0  0  0  0  0  0  0
   39.7790   23.9030   36.1890 N   0  0  0  0  0  0  0  0  0  0  0  0
   38.5910   25.8200   35.4040 N   0  0  0  0  0  0  0  0  0  0  0  0
   38.0500   27.1000   35.8940 C   0  0  0  0  0  0  0  0  0  0  0  0
   37.2250   27.7590   34.8490 C   0  0  0  0  0  0  0  0  0  0  0  0
   37.0760   27.0110   33.6640 O   0  0  0  0  0  0  0  0  0  0  0  0
   38.3690   26.8090   33.2260 C   0  0  1  0  0  0  0  0  0  0  0  0
   38.8980   25.5900   34.0170 C   0  0  2  0  0  0  0  0  0  0  0  0
   38.5970   26.7480   31.8070 C   0  0  0  0  0  0  0  0  0  0  0  0
   38.2000   26.0630   30.7230 N   0  0  0  0  0  0  0  0  0  0  0  0
   38.8100   26.5140   29.6810 O   0  0  0  0  0  0  0  0  0  0  0  0
   39.6120   27.4870   30.0050 C   0  0  0  0  0  0  0  0  0  0  0  0
   39.4900   27.6430   31.3210 N   0  0  0  0  0  0  0  0  0  0  0  0
   40.3290   28.0530   28.9270 N   0  0  0  0  0  0  0  0  0  0  0  0
   40.7420   27.5670   27.6080 C   0  0  0  0  0  0  0  0  0  0  0  0
   40.2570   28.6410   26.6440 C   0  0  0  0  0  0  0  0  0  0  0  0
   39.2420   29.4220   27.2050 O   0  0  0  0  0  0  0  0  0  0  0  0
   39.7170   30.2240   28.2600 C   0  0  0  0  0  0  0  0  0  0  0  0
   40.7780   29.4500   29.0640 C   0  0  0  0  0  0  0  0  0  0  0  0
   38.0130   24.4280   33.5320 C   0  0  0  0  0  0  0  0  0  0  0  0
   36.9830   25.0110   32.8550 F   0  0  0  0  0  0  0  0  0  0  0  0
   37.7120   23.4760   34.4130 F   0  0  0  0  0  0  0  0  0  0  0  0
   38.7760   23.7940   32.4960 F   0  0  0  0  0  0  0  0  0  0  0  0
   40.1320   25.4930   33.5280 O   0  0  0  0  0  0  0  0  0  0  0  0
   41.2480   26.0100   33.9090 C   0  0  0  0  0  0  0  0  0  0  0  0
   41.0440   27.3540   34.2160 F   0  0  0  0  0  0  0  0  0  0  0  0
   42.1510   26.0640   32.8380 F   0  0  0  0  0  0  0  0  0  0  0  0
   41.9540   25.5760   34.9900 F   0  0  0  0  0  0  0  0  0  0  0  0
   40.7770   22.2102   36.9357 H   0  0  0  0  0  0  0  0  0  0  0  0
   39.2495   21.9895   38.9547 H   0  0  0  0  0  0  0  0  0  0  0  0
   37.3928   23.6759   39.2064 H   0  0  0  0  0  0  0  0  0  0  0  0
   37.4264   26.9122   36.7805 H   0  0  0  0  0  0  0  0  0  0  0  0
   38.8898   27.7627   36.1499 H   0  0  0  0  0  0  0  0  0  0  0  0
   36.2243   27.9435   35.2669 H   0  0  0  0  0  0  0  0  0  0  0  0
   37.7523   28.6835   34.5711 H   0  0  0  0  0  0  0  0  0  0  0  0
   38.9496   27.7195   33.4356 H   0  0  0  0  0  0  0  0  0  0  0  0
   41.8357   27.4617   27.5562 H   0  0  0  0  0  0  0  0  0  0  0  0
   40.3270   26.5750   27.3762 H   0  0  0  0  0  0  0  0  0  0  0  0
   39.8718   28.1559   25.7350 H   0  0  0  0  0  0  0  0  0  0  0  0
   41.1063   29.3000   26.4108 H   0  0  0  0  0  0  0  0  0  0  0  0
   40.1662   31.1402   27.8491 H   0  0  0  0  0  0  0  0  0  0  0  0
   38.8793   30.4879   28.9223 H   0  0  0  0  0  0  0  0  0  0  0  0
   40.7841   29.7636   30.1183 H   0  0  0  0  0  0  0  0  0  0  0  0
   41.8051   29.6165   28.7070 H   0  0  0  0  0  0  0  0  0  0  0  0
  1  2  2  0
  2  3  1  0
  4  3  2  0
  5  4  1  0
  6  5  2  0
  6  1  1  0
  7  8  1  0
  7  5  1  0
  9  8  1  0
 10  9  1  0
 11 10  1  0
 11 12  1  0
 12 28  1  1
 12  7  1  0
 13 11  1  0
 14 13  2  0
 15 16  1  0
 15 14  1  0
 16 17  2  0
 17 13  1  0
 18 23  1  0
 18 16  1  0
 19 18  1  0
 20 21  1  0
 20 19  1  0
 21 22  1  0
 22 23  1  0
 24 12  1  0
 24 26  1  0
 25 24  1  0
 27 24  1  0
 28 29  1  0
 29 30  1  0
 29 32  1  0
 31 29  1  0
  1 33  1  0
  2 34  1  0
  3 35  1  0
  8 36  1  0
  8 37  1  0
  9 38  1  0
  9 39  1  0
 11 40  1  1
 19 41  1  0
 19 42  1  0
 20 43  1  0
 20 44  1  0
 22 45  1  0
 22 46  1  0
 23 47  1  0
 23 48  1  0
M  ISO  8  33  14  34  14  35  14  36  13  37  13  38  13  39  13  40  13
M  ISO  8  41  13  42  13  43  13  44  13  45  13  46  13  47  13  48  13
M  END
>  <minimizedAffinity>  (1) 
-5.54588604

>  <minimizedRMSD>  (1) 
1.97479212

$$$$
