
     RDKit          3D

 42 46  0  0  0  0  0  0  0  0999 V2000
   38.7210   23.7460   37.0550 C   0  0  0  0  0  0  0  0  0  0  0  0
   39.9830   23.1550   36.9480 C   0  0  0  0  0  0  0  0  0  0  0  0
   40.7980   23.5560   35.8560 C   0  0  0  0  0  0  0  0  0  0  0  0
   40.3070   24.4750   34.9970 N   0  0  0  0  0  0  0  0  0  0  0  0
   39.0910   25.0200   35.1340 C   0  0  0  0  0  0  0  0  0  0  0  0
   38.2990   24.6610   36.1540 N   0  0  0  0  0  0  0  0  0  0  0  0
   38.5210   25.9930   34.2550 N   0  0  0  0  0  0  0  0  0  0  0  0
   37.5050   26.8160   34.4920 C   0  0  0  0  0  0  0  0  0  0  0  0
   37.0940   27.6890   33.5140 C   0  0  0  0  0  0  0  0  0  0  0  0
   37.7150   27.7170   32.3090 C   0  0  0  0  0  0  0  0  0  0  0  0
   37.3550   28.5050   31.4030 O   0  0  0  0  0  0  0  0  0  0  0  0
   38.7360   26.8850   32.0790 N   0  0  0  0  0  0  0  0  0  0  0  0
   39.1430   26.0230   33.0430 C   0  0  0  0  0  0  0  0  0  0  0  0
   40.1380   25.2740   32.6980 O   0  0  0  0  0  0  0  0  0  0  0  0
   39.3760   26.9270   30.8020 C   0  0  0  0  0  0  0  0  0  0  0  0
   40.4680   26.2120   30.5140 N   0  0  0  0  0  0  0  0  0  0  0  0
   40.8460   26.4200   29.2980 O   0  0  0  0  0  0  0  0  0  0  0  0
   39.9830   27.2830   28.7940 C   0  0  0  0  0  0  0  0  0  0  0  0
   39.0690   27.6020   29.7220 N   0  0  0  0  0  0  0  0  0  0  0  0
   40.1870   27.6920   27.4120 C   0  0  0  0  0  0  0  0  0  0  0  0
   40.2900   26.8300   26.3880 N   0  0  0  0  0  0  0  0  0  0  0  0
   40.4750   27.1520   25.1130 C   0  0  0  0  0  0  0  0  0  0  0  0
   40.5780   28.4580   24.7340 N   0  0  0  0  0  0  0  0  0  0  0  0
   40.4870   29.4080   25.6930 C   0  0  0  0  0  0  0  0  0  0  0  0
   40.5910   30.7210   25.3110 C   0  0  0  0  0  0  0  0  0  0  0  0
   40.5050   31.7300   26.2430 C   0  0  0  0  0  0  0  0  0  0  0  0
   40.3120   31.3510   27.5630 C   0  0  0  0  0  0  0  0  0  0  0  0
   40.2160   30.0210   27.8830 C   0  0  0  0  0  0  0  0  0  0  0  0
   40.2950   28.9900   26.9880 C   0  0  0  0  0  0  0  0  0  0  0  0
   37.8340   23.3460   38.1960 C   0  0  0  0  0  0  0  0  0  0  0  0
   38.5330   22.6330   39.1610 F   0  0  0  0  0  0  0  0  0  0  0  0
   37.3190   24.4790   38.8050 F   0  0  0  0  0  0  0  0  0  0  0  0
   36.7650   22.5960   37.6980 F   0  0  0  0  0  0  0  0  0  0  0  0
   40.3306   22.4103   37.6791 H   0  0  0  0  0  0  0  0  0  0  0  0
   41.8019   23.1295   35.7139 H   0  0  0  0  0  0  0  0  0  0  0  0
   36.9954   26.7984   35.4667 H   0  0  0  0  0  0  0  0  0  0  0  0
   36.2538   28.3712   33.7103 H   0  0  0  0  0  0  0  0  0  0  0  0
   40.5458   26.3577   24.3553 H   0  0  0  0  0  0  0  0  0  0  0  0
   40.7445   30.9698   24.2506 H   0  0  0  0  0  0  0  0  0  0  0  0
   40.5856   32.7883   25.9542 H   0  0  0  0  0  0  0  0  0  0  0  0
   40.2362   32.1149   28.3509 H   0  0  0  0  0  0  0  0  0  0  0  0
   40.0637   29.7635   28.9415 H   0  0  0  0  0  0  0  0  0  0  0  0
  1 30  1  0
  2  1  2  0
  3  2  1  0
  4  5  1  0
  4  3  2  0
  5  6  2  0
  6  1  1  0
  7  8  1  0
  7  5  1  0
  9  8  2  0
 10  9  1  0
 11 10  2  0
 12 10  1  0
 12 13  1  0
 13  7  1  0
 14 13  2  0
 15 12  1  0
 16 15  2  0
 17 16  1  0
 18 17  1  0
 18 19  2  0
 19 15  1  0
 20 18  1  0
 21 20  2  0
 22 21  1  0
 23 22  2  0
 23 24  1  0
 24 29  2  0
 25 24  1  0
 25 26  2  0
 26 27  1  0
 27 28  2  0
 29 20  1  0
 29 28  1  0
 30 32  1  0
 30 31  1  0
 33 30  1  0
  2 34  1  0
  3 35  1  0
  8 36  1  0
  9 37  1  0
 22 38  1  0
 25 39  1  0
 26 40  1  0
 27 41  1  0
 28 42  1  0
M  ISO  8  34  14  35  14  36  14  37  14  38  14  39  14  40  14  41  14
M  ISO  1  42  14
M  END
>  <minimizedAffinity>  (1) 
-6.12750387

>  <minimizedRMSD>  (1) 
2.15650272

$$$$
