
     RDKit          3D

 44 47  0  0  1  0  0  0  0  0999 V2000
   39.7600   22.8930   37.6650 C   0  0  0  0  0  0  0  0  0  0  0  0
   38.8830   23.3040   38.7160 C   0  0  0  0  0  0  0  0  0  0  0  0
   37.8830   24.1930   38.3920 C   0  0  0  0  0  0  0  0  0  0  0  0
   37.8020   24.6130   37.1040 N   0  0  0  0  0  0  0  0  0  0  0  0
   38.6660   24.1920   36.1310 C   0  0  0  0  0  0  0  0  0  0  0  0
   39.6190   23.3470   36.4240 N   0  0  0  0  0  0  0  0  0  0  0  0
   38.4660   24.7120   34.8210 N   0  0  0  0  0  0  0  0  0  0  0  0
   37.9220   26.0720   34.6690 C   0  0  0  0  0  0  0  0  0  0  0  0
   37.1430   26.1820   33.4010 C   0  0  0  0  0  0  0  0  0  0  0  0
   37.0150   24.9810   32.6850 O   0  0  0  0  0  0  0  0  0  0  0  0
   38.3020   24.5960   32.4310 C   0  0  1  0  0  0  0  0  0  0  0  0
   38.8120   23.8720   33.6980 C   0  0  2  0  0  0  0  0  0  0  0  0
   38.5810   23.9130   31.1990 C   0  0  0  0  0  0  0  0  0  0  0  0
   38.5810   22.6780   30.6840 N   0  0  0  0  0  0  0  0  0  0  0  0
   38.9460   22.7160   29.4490 O   0  0  0  0  0  0  0  0  0  0  0  0
   39.2020   23.9340   29.0760 C   0  0  0  0  0  0  0  0  0  0  0  0
   38.9780   24.6800   30.1550 N   0  0  0  0  0  0  0  0  0  0  0  0
   39.6430   24.3260   27.7300 C   0  0  0  0  0  0  0  0  0  0  0  0
   39.5390   23.3710   26.7420 C   0  0  0  0  0  0  0  0  0  0  0  0
   39.9760   23.8200   25.4970 C   0  0  0  0  0  0  0  0  0  0  0  0
   40.4650   25.0790   25.2470 C   0  0  0  0  0  0  0  0  0  0  0  0
   40.5340   25.9640   26.2780 C   0  0  0  0  0  0  0  0  0  0  0  0
   40.1210   25.5650   27.4940 N   0  0  0  0  0  0  0  0  0  0  0  0
   37.9130   22.6160   33.7600 C   0  0  0  0  0  0  0  0  0  0  0  0
   37.1460   22.6550   32.6440 F   0  0  0  0  0  0  0  0  0  0  0  0
   37.3290   22.3530   34.9290 F   0  0  0  0  0  0  0  0  0  0  0  0
   38.8020   21.5230   33.5080 F   0  0  0  0  0  0  0  0  0  0  0  0
   40.0530   23.5660   33.3450 O   0  0  0  0  0  0  0  0  0  0  0  0
   41.1590   24.2110   33.4500 C   0  0  0  0  0  0  0  0  0  0  0  0
   40.9450   25.5440   33.0770 F   0  0  0  0  0  0  0  0  0  0  0  0
   42.0840   23.7710   32.4960 F   0  0  0  0  0  0  0  0  0  0  0  0
   41.8470   24.3620   34.6160 F   0  0  0  0  0  0  0  0  0  0  0  0
   40.5709   22.1841   37.8886 H   0  0  0  0  0  0  0  0  0  0  0  0
   39.0022   22.9255   39.7419 H   0  0  0  0  0  0  0  0  0  0  0  0
   37.1730   24.5511   39.1520 H   0  0  0  0  0  0  0  0  0  0  0  0
   37.2622   26.2957   35.5203 H   0  0  0  0  0  0  0  0  0  0  0  0
   38.7560   26.7886   34.6387 H   0  0  0  0  0  0  0  0  0  0  0  0
   36.1337   26.5422   33.6491 H   0  0  0  0  0  0  0  0  0  0  0  0
   37.7016   26.8725   32.7521 H   0  0  0  0  0  0  0  0  0  0  0  0
   38.8781   25.5107   32.2273 H   0  0  0  0  0  0  0  0  0  0  0  0
   39.1505   22.3571   26.9181 H   0  0  0  0  0  0  0  0  0  0  0  0
   39.9257   23.1153   24.6539 H   0  0  0  0  0  0  0  0  0  0  0  0
   40.7932   25.3650   24.2368 H   0  0  0  0  0  0  0  0  0  0  0  0
   40.9187   26.9824   26.1206 H   0  0  0  0  0  0  0  0  0  0  0  0
  1  2  2  0
  3  2  1  0
  4  3  2  0
  5  6  2  0
  5  4  1  0
  6  1  1  0
  7  5  1  0
  8  7  1  0
  9  8  1  0
 10  9  1  0
 11 10  1  0
 11 12  1  0
 12 28  1  6
 12 24  1  0
 12  7  1  0
 13 11  1  0
 14 13  2  0
 15 14  1  0
 16 15  1  0
 16 17  2  0
 17 13  1  0
 18 16  1  0
 19 18  2  0
 20 19  1  0
 21 20  2  0
 21 22  1  0
 22 23  2  0
 23 18  1  0
 24 26  1  0
 25 24  1  0
 27 24  1  0
 28 29  1  0
 29 32  1  0
 30 29  1  0
 31 29  1  0
  1 33  1  0
  2 34  1  0
  3 35  1  0
  8 36  1  0
  8 37  1  0
  9 38  1  0
  9 39  1  0
 11 40  1  6
 19 41  1  0
 20 42  1  0
 21 43  1  0
 22 44  1  0
M  ISO  8  33  14  34  14  35  14  36  13  37  13  38  13  39  13  40  13
M  ISO  4  41  14  42  14  43  14  44  14
M  END
>  <minimizedAffinity>  (1) 
-5.48980665

>  <minimizedRMSD>  (1) 
0.998953402

$$$$
