
     RDKit          3D

 42 45  0  0  1  0  0  0  0  0999 V2000
   39.8050   22.9070   37.6590 C   0  0  0  0  0  0  0  0  0  0  0  0
   38.9450   23.2530   38.7490 C   0  0  0  0  0  0  0  0  0  0  0  0
   37.9380   24.1500   38.4930 C   0  0  0  0  0  0  0  0  0  0  0  0
   37.8350   24.6380   37.2340 N   0  0  0  0  0  0  0  0  0  0  0  0
   38.6730   24.2830   36.2210 C   0  0  0  0  0  0  0  0  0  0  0  0
   39.6330   23.4340   36.4480 N   0  0  0  0  0  0  0  0  0  0  0  0
   38.4470   24.8750   34.9460 N   0  0  0  0  0  0  0  0  0  0  0  0
   37.9100   26.2370   34.8800 C   0  0  0  0  0  0  0  0  0  0  0  0
   37.0910   26.4090   33.6440 C   0  0  0  0  0  0  0  0  0  0  0  0
   36.9460   25.2610   32.8640 O   0  0  0  0  0  0  0  0  0  0  0  0
   38.2250   24.8830   32.5580 C   0  0  1  0  0  0  0  0  0  0  0  0
   38.7640   24.0890   33.7720 C   0  0  2  0  0  0  0  0  0  0  0  0
   38.4670   24.2590   31.2860 C   0  0  0  0  0  0  0  0  0  0  0  0
   38.3380   23.0720   30.6790 N   0  0  0  0  0  0  0  0  0  0  0  0
   38.7540   23.1560   29.4630 O   0  0  0  0  0  0  0  0  0  0  0  0
   39.1700   24.3540   29.1910 C   0  0  0  0  0  0  0  0  0  0  0  0
   38.9960   25.0500   30.3190 N   0  0  0  0  0  0  0  0  0  0  0  0
   39.6960   24.7810   27.9250 N   0  0  0  0  0  0  0  0  0  0  0  0
   39.9690   26.0480   27.6320 N   0  0  0  0  0  0  0  0  0  0  0  0
   40.4530   26.1460   26.3610 C   0  0  0  0  0  0  0  0  0  0  0  0
   40.4440   24.8360   25.9250 C   0  0  0  0  0  0  0  0  0  0  0  0
   39.9730   23.9710   26.8930 C   0  0  0  0  0  0  0  0  0  0  0  0
   37.8670   22.8340   33.7880 C   0  0  0  0  0  0  0  0  0  0  0  0
   37.0140   22.9700   32.7460 F   0  0  0  0  0  0  0  0  0  0  0  0
   37.3610   22.4690   34.9700 F   0  0  0  0  0  0  0  0  0  0  0  0
   38.7210   21.7640   33.3850 F   0  0  0  0  0  0  0  0  0  0  0  0
   39.9860   23.8060   33.3740 O   0  0  0  0  0  0  0  0  0  0  0  0
   41.1010   24.4460   33.4630 C   0  0  0  0  0  0  0  0  0  0  0  0
   40.8480   25.8090   33.2610 F   0  0  0  0  0  0  0  0  0  0  0  0
   41.9460   24.1190   32.3980 F   0  0  0  0  0  0  0  0  0  0  0  0
   41.8770   24.4710   34.5820 F   0  0  0  0  0  0  0  0  0  0  0  0
   40.6242   22.1918   37.8245 H   0  0  0  0  0  0  0  0  0  0  0  0
   39.0849   22.8185   39.7498 H   0  0  0  0  0  0  0  0  0  0  0  0
   37.2390   24.4616   39.2831 H   0  0  0  0  0  0  0  0  0  0  0  0
   37.2796   26.4222   35.7622 H   0  0  0  0  0  0  0  0  0  0  0  0
   38.7459   26.9517   34.8590 H   0  0  0  0  0  0  0  0  0  0  0  0
   36.0877   26.7455   33.9444 H   0  0  0  0  0  0  0  0  0  0  0  0
   37.6293   27.1370   33.0194 H   0  0  0  0  0  0  0  0  0  0  0  0
   38.7997   25.8055   32.3887 H   0  0  0  0  0  0  0  0  0  0  0  0
   40.7721   27.0471   25.8169 H   0  0  0  0  0  0  0  0  0  0  0  0
   40.7732   24.5187   24.9245 H   0  0  0  0  0  0  0  0  0  0  0  0
   39.8537   22.8792   26.8320 H   0  0  0  0  0  0  0  0  0  0  0  0
  1  2  2  0
  3  2  1  0
  4  3  2  0
  5  6  2  0
  5  4  1  0
  6  1  1  0
  7  5  1  0
  8  7  1  0
  9  8  1  0
 10  9  1  0
 11 10  1  0
 11 12  1  0
 12 27  1  6
 12 23  1  0
 12  7  1  0
 13 11  1  0
 14 13  2  0
 15 14  1  0
 16 15  1  0
 16 17  2  0
 17 13  1  0
 18 16  1  0
 19 18  1  0
 20 19  2  0
 21 20  1  0
 21 22  2  0
 22 18  1  0
 23 25  1  0
 24 23  1  0
 26 23  1  0
 27 28  1  0
 28 31  1  0
 29 28  1  0
 30 28  1  0
  1 32  1  0
  2 33  1  0
  3 34  1  0
  8 35  1  0
  8 36  1  0
  9 37  1  0
  9 38  1  0
 11 39  1  6
 20 40  1  0
 21 41  1  0
 22 42  1  0
M  ISO  8  32  14  33  14  34  14  35  13  36  13  37  13  38  13  39  13
M  ISO  3  40  14  41  14  42  14
M  END
>  <minimizedAffinity>  (1) 
-5.41694546

>  <minimizedRMSD>  (1) 
0.644641995

$$$$
