
     RDKit          3D

 47 50  0  0  1  0  0  0  0  0999 V2000
   39.8180   22.9730   37.5370 C   0  0  0  0  0  0  0  0  0  0  0  0
   38.9240   23.1490   38.6480 C   0  0  0  0  0  0  0  0  0  0  0  0
   37.8870   24.0310   38.4890 C   0  0  0  0  0  0  0  0  0  0  0  0
   37.7800   24.6730   37.2950 N   0  0  0  0  0  0  0  0  0  0  0  0
   38.6440   24.4830   36.2650 C   0  0  0  0  0  0  0  0  0  0  0  0
   39.6370   23.6460   36.4020 N   0  0  0  0  0  0  0  0  0  0  0  0
   38.4140   25.2190   35.0670 N   0  0  0  0  0  0  0  0  0  0  0  0
   37.8130   26.5510   35.1590 C   0  0  0  0  0  0  0  0  0  0  0  0
   37.0050   26.8480   33.9360 C   0  0  0  0  0  0  0  0  0  0  0  0
   36.9280   25.8000   33.0170 O   0  0  0  0  0  0  0  0  0  0  0  0
   38.2350   25.5260   32.6930 C   0  0  1  0  0  0  0  0  0  0  0  0
   38.7870   24.6110   33.8120 C   0  0  2  0  0  0  0  0  0  0  0  0
   38.5260   25.0730   31.3590 C   0  0  0  0  0  0  0  0  0  0  0  0
   38.2590   24.0540   30.5310 N   0  0  0  0  0  0  0  0  0  0  0  0
   38.8520   24.2420   29.3980 O   0  0  0  0  0  0  0  0  0  0  0  0
   39.5190   25.3520   29.4100 C   0  0  0  0  0  0  0  0  0  0  0  0
   39.3290   25.8820   30.6200 N   0  0  0  0  0  0  0  0  0  0  0  0
   40.2460   25.7470   28.2570 N   0  0  0  0  0  0  0  0  0  0  0  0
   41.5040   26.5130   28.3230 C   0  0  0  0  0  0  0  0  0  0  0  0
   41.0500   27.7470   27.5220 C   0  0  0  0  0  0  0  0  0  0  0  0
   40.3930   27.0590   26.3210 C   0  0  0  0  0  0  0  0  0  0  0  0
   40.1530   25.6290   26.7920 C   0  0  0  0  0  0  0  0  0  0  0  0
   37.9540   23.3250   33.6550 C   0  0  0  0  0  0  0  0  0  0  0  0
   37.0020   23.6040   32.7150 F   0  0  0  0  0  0  0  0  0  0  0  0
   37.5670   22.7010   34.7700 F   0  0  0  0  0  0  0  0  0  0  0  0
   38.8290   22.4060   32.9830 F   0  0  0  0  0  0  0  0  0  0  0  0
   40.0360   24.4360   33.4130 O   0  0  0  0  0  0  0  0  0  0  0  0
   41.1170   25.0750   33.6580 C   0  0  0  0  0  0  0  0  0  0  0  0
   40.8420   26.4500   33.6320 F   0  0  0  0  0  0  0  0  0  0  0  0
   42.0360   24.9390   32.6050 F   0  0  0  0  0  0  0  0  0  0  0  0
   41.8360   24.9650   34.8100 F   0  0  0  0  0  0  0  0  0  0  0  0
   40.6625   22.2737   37.6250 H   0  0  0  0  0  0  0  0  0  0  0  0
   39.0662   22.5976   39.5891 H   0  0  0  0  0  0  0  0  0  0  0  0
   37.1660   24.2133   39.2995 H   0  0  0  0  0  0  0  0  0  0  0  0
   37.1598   26.5929   36.0431 H   0  0  0  0  0  0  0  0  0  0  0  0
   38.6160   27.2979   35.2443 H   0  0  0  0  0  0  0  0  0  0  0  0
   35.9826   27.1001   34.2541 H   0  0  0  0  0  0  0  0  0  0  0  0
   37.5153   27.6751   33.4208 H   0  0  0  0  0  0  0  0  0  0  0  0
   38.7682   26.4872   32.6499 H   0  0  0  0  0  0  0  0  0  0  0  0
   41.7827   26.7671   29.3563 H   0  0  0  0  0  0  0  0  0  0  0  0
   42.4010   25.9987   27.9477 H   0  0  0  0  0  0  0  0  0  0  0  0
   40.3301   28.3577   28.0866 H   0  0  0  0  0  0  0  0  0  0  0  0
   41.8527   28.4549   27.2679 H   0  0  0  0  0  0  0  0  0  0  0  0
   41.0626   27.0748   25.4484 H   0  0  0  0  0  0  0  0  0  0  0  0
   39.4655   27.5591   26.0053 H   0  0  0  0  0  0  0  0  0  0  0  0
   39.1584   25.2728   26.4857 H   0  0  0  0  0  0  0  0  0  0  0  0
   40.8651   24.9059   26.3677 H   0  0  0  0  0  0  0  0  0  0  0  0
  1  2  2  0
  3  2  1  0
  4  3  2  0
  5  6  2  0
  5  4  1  0
  6  1  1  0
  7  8  1  0
  7  5  1  0
  9  8  1  0
 10  9  1  0
 11 10  1  0
 11 12  1  0
 12 27  1  1
 12  7  1  0
 13 11  1  0
 14 13  2  0
 15 16  1  0
 15 14  1  0
 16 17  2  0
 17 13  1  0
 18 19  1  0
 18 16  1  0
 20 19  1  0
 21 22  1  0
 21 20  1  0
 22 18  1  0
 23 12  1  0
 23 25  1  0
 24 23  1  0
 26 23  1  0
 27 28  1  0
 28 31  1  0
 29 28  1  0
 30 28  1  0
  1 32  1  0
  2 33  1  0
  3 34  1  0
  8 35  1  0
  8 36  1  0
  9 37  1  0
  9 38  1  0
 11 39  1  1
 19 40  1  0
 19 41  1  0
 20 42  1  0
 20 43  1  0
 21 44  1  0
 21 45  1  0
 22 46  1  0
 22 47  1  0
M  ISO  8  32  14  33  14  34  14  35  13  36  13  37  13  38  13  39  13
M  ISO  8  40  13  41  13  42  13  43  13  44  13  45  13  46  13  47  13
M  END
>  <minimizedAffinity>  (1) 
-5.41723156

>  <minimizedRMSD>  (1) 
0.316262424

$$$$
