
     RDKit          3D

 42 45  0  0  1  0  0  0  0  0999 V2000
   39.8570   22.9620   37.5680 C   0  0  0  0  0  0  0  0  0  0  0  0
   38.9970   23.1650   38.6910 C   0  0  0  0  0  0  0  0  0  0  0  0
   37.9620   24.0660   38.5340 C   0  0  0  0  0  0  0  0  0  0  0  0
   37.8360   24.6920   37.3330 N   0  0  0  0  0  0  0  0  0  0  0  0
   38.6840   24.4640   36.2890 C   0  0  0  0  0  0  0  0  0  0  0  0
   39.6700   23.6120   36.4220 N   0  0  0  0  0  0  0  0  0  0  0  0
   38.4380   25.1860   35.0840 N   0  0  0  0  0  0  0  0  0  0  0  0
   37.8550   26.5290   35.1640 C   0  0  0  0  0  0  0  0  0  0  0  0
   37.0370   26.8140   33.9460 C   0  0  0  0  0  0  0  0  0  0  0  0
   36.9280   25.7390   33.0500 O   0  0  0  0  0  0  0  0  0  0  0  0
   38.2160   25.4430   32.7100 C   0  0  1  0  0  0  0  0  0  0  0  0
   38.7820   24.5440   33.8340 C   0  0  2  0  0  0  0  0  0  0  0  0
   38.4870   24.9770   31.3780 C   0  0  0  0  0  0  0  0  0  0  0  0
   38.3000   23.8960   30.6120 N   0  0  0  0  0  0  0  0  0  0  0  0
   38.7930   24.0960   29.4390 O   0  0  0  0  0  0  0  0  0  0  0  0
   39.3200   25.2790   29.3540 C   0  0  0  0  0  0  0  0  0  0  0  0
   39.1330   25.8310   30.5520 N   0  0  0  0  0  0  0  0  0  0  0  0
   39.9860   25.8920   28.1790 C   0  0  0  0  0  0  0  0  0  0  0  0
   41.2240   25.5050   27.7070 C   0  0  0  0  0  0  0  0  0  0  0  0
   41.4260   26.3070   26.6600 N   0  0  0  0  0  0  0  0  0  0  0  0
   40.3690   27.1310   26.5100 C   0  0  0  0  0  0  0  0  0  0  0  0
   39.4530   26.8820   27.4600 N   0  0  0  0  0  0  0  0  0  0  0  0
   37.9260   23.2680   33.7110 C   0  0  0  0  0  0  0  0  0  0  0  0
   37.0250   23.5190   32.7300 F   0  0  0  0  0  0  0  0  0  0  0  0
   37.4940   22.7200   34.8470 F   0  0  0  0  0  0  0  0  0  0  0  0
   38.7980   22.3020   33.1120 F   0  0  0  0  0  0  0  0  0  0  0  0
   40.0150   24.3420   33.4150 O   0  0  0  0  0  0  0  0  0  0  0  0
   41.1100   25.0020   33.6020 C   0  0  0  0  0  0  0  0  0  0  0  0
   40.8530   26.3630   33.4290 F   0  0  0  0  0  0  0  0  0  0  0  0
   42.0320   24.7380   32.5770 F   0  0  0  0  0  0  0  0  0  0  0  0
   41.8100   24.9990   34.7700 F   0  0  0  0  0  0  0  0  0  0  0  0
   40.6929   22.2520   37.6528 H   0  0  0  0  0  0  0  0  0  0  0  0
   39.1523   22.6277   39.6382 H   0  0  0  0  0  0  0  0  0  0  0  0
   37.2603   24.2713   39.3559 H   0  0  0  0  0  0  0  0  0  0  0  0
   37.2132   26.5933   36.0551 H   0  0  0  0  0  0  0  0  0  0  0  0
   38.6673   27.2678   35.2298 H   0  0  0  0  0  0  0  0  0  0  0  0
   36.0240   27.0938   34.2709 H   0  0  0  0  0  0  0  0  0  0  0  0
   37.5547   27.6195   33.4046 H   0  0  0  0  0  0  0  0  0  0  0  0
   38.7563   26.3988   32.6421 H   0  0  0  0  0  0  0  0  0  0  0  0
   41.8872   24.7208   28.1009 H   0  0  0  0  0  0  0  0  0  0  0  0
   40.2714   27.8950   25.7247 H   0  0  0  0  0  0  0  0  0  0  0  0
   38.5458   27.3487   27.6015 H   0  0  0  0  0  0  0  0  0  0  0  0
  1  2  2  0
  3  2  1  0
  4  3  2  0
  5  6  2  0
  5  4  1  0
  6  1  1  0
  7  8  1  0
  7  5  1  0
  9  8  1  0
 10  9  1  0
 11 10  1  0
 11 12  1  0
 12 27  1  6
 12  7  1  0
 13 11  1  0
 14 13  2  0
 15 14  1  0
 16 15  1  0
 16 17  2  0
 17 13  1  0
 18 16  1  0
 19 18  2  0
 20 19  1  0
 21 20  2  0
 21 22  1  0
 22 18  1  0
 23 12  1  0
 23 25  1  0
 24 23  1  0
 26 23  1  0
 27 28  1  0
 28 31  1  0
 29 28  1  0
 30 28  1  0
  1 32  1  0
  2 33  1  0
  3 34  1  0
  8 35  1  0
  8 36  1  0
  9 37  1  0
  9 38  1  0
 11 39  1  6
 19 40  1  0
 21 41  1  0
 22 42  1  0
M  ISO  8  32  14  33  14  34  14  35  13  36  13  37  13  38  13  39  13
M  ISO  3  40  14  41  14  42   9
M  END
>  <minimizedAffinity>  (1) 
-5.24619198

>  <minimizedRMSD>  (1) 
0.453280568

$$$$
