
     RDKit          3D

 51 54  0  0  1  0  0  0  0  0999 V2000
   39.8140   22.9610   37.2000 C   0  0  0  0  0  0  0  0  0  0  0  0
   38.9170   22.8560   38.3040 C   0  0  0  0  0  0  0  0  0  0  0  0
   37.9020   23.7810   38.3730 C   0  0  0  0  0  0  0  0  0  0  0  0
   37.8260   24.7210   37.3950 N   0  0  0  0  0  0  0  0  0  0  0  0
   38.7100   24.7810   36.3550 C   0  0  0  0  0  0  0  0  0  0  0  0
   39.6840   23.9060   36.2740 N   0  0  0  0  0  0  0  0  0  0  0  0
   38.5150   25.8180   35.3970 N   0  0  0  0  0  0  0  0  0  0  0  0
   37.9540   27.1010   35.8340 C   0  0  0  0  0  0  0  0  0  0  0  0
   37.1760   27.7280   34.7300 C   0  0  0  0  0  0  0  0  0  0  0  0
   37.0810   26.9590   33.5610 O   0  0  0  0  0  0  0  0  0  0  0  0
   38.3780   26.7370   33.1920 C   0  0  1  0  0  0  0  0  0  0  0  0
   38.8890   25.5440   34.0250 C   0  0  2  0  0  0  0  0  0  0  0  0
   38.6800   26.6560   31.7860 C   0  0  0  0  0  0  0  0  0  0  0  0
   38.3300   25.9630   30.6930 N   0  0  0  0  0  0  0  0  0  0  0  0
   38.9950   26.3890   29.6750 O   0  0  0  0  0  0  0  0  0  0  0  0
   39.7980   27.3530   30.0120 C   0  0  0  0  0  0  0  0  0  0  0  0
   39.6090   27.5230   31.3140 N   0  0  0  0  0  0  0  0  0  0  0  0
   40.7580   28.1390   29.1420 C   0  0  0  0  0  0  0  0  0  0  0  0
   40.9800   27.4060   27.8590 C   0  0  0  0  0  0  0  0  0  0  0  0
   40.0500   27.7770   26.7410 C   0  0  0  0  0  0  0  0  0  0  0  0
   40.1930   29.2900   26.5440 C   0  0  0  0  0  0  0  0  0  0  0  0
   39.5350   29.8870   27.7820 C   0  0  0  0  0  0  0  0  0  0  0  0
   40.3110   29.5560   29.0130 C   0  0  0  0  0  0  0  0  0  0  0  0
   38.0150   24.3730   33.5250 C   0  0  0  0  0  0  0  0  0  0  0  0
   37.0370   24.9390   32.7820 F   0  0  0  0  0  0  0  0  0  0  0  0
   37.6940   23.4410   34.4260 F   0  0  0  0  0  0  0  0  0  0  0  0
   38.8280   23.7100   32.5470 F   0  0  0  0  0  0  0  0  0  0  0  0
   40.1390   25.4390   33.5990 O   0  0  0  0  0  0  0  0  0  0  0  0
   41.2350   25.9690   34.0100 C   0  0  0  0  0  0  0  0  0  0  0  0
   41.0090   27.3160   34.2990 F   0  0  0  0  0  0  0  0  0  0  0  0
   42.1770   26.0330   32.9760 F   0  0  0  0  0  0  0  0  0  0  0  0
   41.9070   25.5600   35.1240 F   0  0  0  0  0  0  0  0  0  0  0  0
   40.6384   22.2381   37.1121 H   0  0  0  0  0  0  0  0  0  0  0  0
   39.0320   22.0707   39.0656 H   0  0  0  0  0  0  0  0  0  0  0  0
   37.1727   23.7605   39.1962 H   0  0  0  0  0  0  0  0  0  0  0  0
   37.2906   26.9325   36.6951 H   0  0  0  0  0  0  0  0  0  0  0  0
   38.7771   27.7731   36.1181 H   0  0  0  0  0  0  0  0  0  0  0  0
   36.1566   27.9191   35.0966 H   0  0  0  0  0  0  0  0  0  0  0  0
   37.7190   28.6435   34.4525 H   0  0  0  0  0  0  0  0  0  0  0  0
   38.9393   27.6551   33.4203 H   0  0  0  0  0  0  0  0  0  0  0  0
   41.7501   28.2138   29.6111 H   0  0  0  0  0  0  0  0  0  0  0  0
   42.0091   27.6068   27.5262 H   0  0  0  0  0  0  0  0  0  0  0  0
   40.7872   26.3451   28.0766 H   0  0  0  0  0  0  0  0  0  0  0  0
   40.3309   27.2451   25.8200 H   0  0  0  0  0  0  0  0  0  0  0  0
   39.0116   27.5019   26.9779 H   0  0  0  0  0  0  0  0  0  0  0  0
   41.2530   29.5784   26.4871 H   0  0  0  0  0  0  0  0  0  0  0  0
   39.7319   29.6405   25.6089 H   0  0  0  0  0  0  0  0  0  0  0  0
   39.4856   30.9803   27.6712 H   0  0  0  0  0  0  0  0  0  0  0  0
   38.5247   29.4633   27.8804 H   0  0  0  0  0  0  0  0  0  0  0  0
   41.2067   30.1943   29.0281 H   0  0  0  0  0  0  0  0  0  0  0  0
   39.6222   29.7276   29.8533 H   0  0  0  0  0  0  0  0  0  0  0  0
  1  2  2  0
  2  3  1  0
  4  3  2  0
  5  4  1  0
  6  5  2  0
  6  1  1  0
  7  8  1  0
  7  5  1  0
  9  8  1  0
 10  9  1  0
 11 10  1  0
 11 12  1  0
 12 28  1  1
 12  7  1  0
 13 11  1  0
 14 13  2  0
 15 16  1  0
 15 14  1  0
 16 17  2  0
 17 13  1  0
 18 16  1  0
 19 18  1  0
 20 19  1  0
 21 20  1  0
 21 22  1  0
 22 23  1  0
 23 18  1  0
 24 12  1  0
 24 26  1  0
 25 24  1  0
 27 24  1  0
 28 29  1  0
 29 30  1  0
 29 32  1  0
 31 29  1  0
  1 33  1  0
  2 34  1  0
  3 35  1  0
  8 36  1  0
  8 37  1  0
  9 38  1  0
  9 39  1  0
 11 40  1  1
 18 41  1  0
 19 42  1  0
 19 43  1  0
 20 44  1  0
 20 45  1  0
 21 46  1  0
 21 47  1  0
 22 48  1  0
 22 49  1  0
 23 50  1  0
 23 51  1  0
M  ISO  8  33  14  34  14  35  14  36  13  37  13  38  13  39  13  40  13
M  ISO  8  41  13  42  13  43  13  44  13  45  13  46  13  47  13  48  13
M  ISO  3  49  13  50  13  51  13
M  END
>  <minimizedAffinity>  (1) 
-5.42091322

>  <minimizedRMSD>  (1) 
1.9242121

$$$$
