
     RDKit          3D

 36 38  0  0  1  0  0  0  0  0999 V2000
   39.8110   22.9530   37.4890 C   0  0  0  0  0  0  0  0  0  0  0  0
   38.9440   23.2020   38.6100 C   0  0  0  0  0  0  0  0  0  0  0  0
   37.9270   24.1090   38.4300 C   0  0  0  0  0  0  0  0  0  0  0  0
   37.8100   24.7070   37.2160 N   0  0  0  0  0  0  0  0  0  0  0  0
   38.6460   24.4510   36.1760 C   0  0  0  0  0  0  0  0  0  0  0  0
   39.6260   23.5840   36.3310 N   0  0  0  0  0  0  0  0  0  0  0  0
   38.4140   25.1450   34.9560 N   0  0  0  0  0  0  0  0  0  0  0  0
   37.8500   26.4900   35.0090 C   0  0  0  0  0  0  0  0  0  0  0  0
   37.0440   26.7670   33.7790 C   0  0  0  0  0  0  0  0  0  0  0  0
   36.9170   25.6750   32.9090 O   0  0  0  0  0  0  0  0  0  0  0  0
   38.2020   25.3550   32.5740 C   0  0  1  0  0  0  0  0  0  0  0  0
   38.7560   24.4700   33.7220 C   0  0  2  0  0  0  0  0  0  0  0  0
   38.4640   24.8500   31.2550 C   0  0  0  0  0  0  0  0  0  0  0  0
   38.0880   23.8520   30.4450 N   0  0  0  0  0  0  0  0  0  0  0  0
   38.7110   23.9380   29.3220 O   0  0  0  0  0  0  0  0  0  0  0  0
   39.5120   24.9590   29.3130 C   0  0  0  0  0  0  0  0  0  0  0  0
   39.3640   25.5310   30.5110 N   0  0  0  0  0  0  0  0  0  0  0  0
   40.3450   25.3520   28.2480 O   0  0  0  0  0  0  0  0  0  0  0  0
   37.8870   23.1990   33.6300 C   0  0  0  0  0  0  0  0  0  0  0  0
   36.9150   23.4830   32.7190 F   0  0  0  0  0  0  0  0  0  0  0  0
   37.5220   22.6280   34.7800 F   0  0  0  0  0  0  0  0  0  0  0  0
   38.7000   22.2440   32.9480 F   0  0  0  0  0  0  0  0  0  0  0  0
   39.9890   24.2450   33.3040 O   0  0  0  0  0  0  0  0  0  0  0  0
   41.0930   24.8730   33.5040 C   0  0  0  0  0  0  0  0  0  0  0  0
   40.8480   26.2480   33.4400 F   0  0  0  0  0  0  0  0  0  0  0  0
   41.9770   24.6740   32.4300 F   0  0  0  0  0  0  0  0  0  0  0  0
   41.8360   24.7750   34.6400 F   0  0  0  0  0  0  0  0  0  0  0  0
   40.6364   22.2329   37.5897 H   0  0  0  0  0  0  0  0  0  0  0  0
   39.0891   22.6877   39.5715 H   0  0  0  0  0  0  0  0  0  0  0  0
   37.2277   24.3439   39.2459 H   0  0  0  0  0  0  0  0  0  0  0  0
   37.2023   26.5767   35.8938 H   0  0  0  0  0  0  0  0  0  0  0  0
   38.6715   27.2191   35.0687 H   0  0  0  0  0  0  0  0  0  0  0  0
   36.0357   27.0764   34.0914 H   0  0  0  0  0  0  0  0  0  0  0  0
   37.5810   27.5494   33.2227 H   0  0  0  0  0  0  0  0  0  0  0  0
   38.7546   26.3017   32.4820 H   0  0  0  0  0  0  0  0  0  0  0  0
   40.9226   26.1507   28.3401 H   0  0  0  0  0  0  0  0  0  0  0  0
  1  2  2  0
  3  2  1  0
  4  3  2  0
  5  6  2  0
  5  4  1  0
  6  1  1  0
  7  8  1  0
  7  5  1  0
  9  8  1  0
 10  9  1  0
 11 10  1  0
 11 12  1  0
 12 23  1  6
 12  7  1  0
 13 11  1  0
 14 13  2  0
 15 14  1  0
 16 15  1  0
 16 17  2  0
 17 13  1  0
 18 16  1  0
 19 12  1  0
 19 21  1  0
 20 19  1  0
 22 19  1  0
 23 24  1  0
 24 27  1  0
 25 24  1  0
 26 24  1  0
  1 28  1  0
  2 29  1  0
  3 30  1  0
  8 31  1  0
  8 32  1  0
  9 33  1  0
  9 34  1  0
 11 35  1  6
 18 36  1  0
M  ISO  8  28  14  29  14  30  14  31  13  32  13  33  13  34  13  35  13
M  ISO  1  36   3
M  END
>  <minimizedAffinity>  (1) 
-4.97109509

>  <minimizedRMSD>  (1) 
0.00925246812

$$$$
