
     RDKit          3D

 47 49  0  0  1  0  0  0  0  0999 V2000
   39.8110   22.9220   37.5640 C   0  0  0  0  0  0  0  0  0  0  0  0
   38.9630   23.2220   38.6770 C   0  0  0  0  0  0  0  0  0  0  0  0
   37.9520   24.1350   38.4690 C   0  0  0  0  0  0  0  0  0  0  0  0
   37.8310   24.6830   37.2320 N   0  0  0  0  0  0  0  0  0  0  0  0
   38.6660   24.3650   36.1970 C   0  0  0  0  0  0  0  0  0  0  0  0
   39.6330   23.4980   36.3780 N   0  0  0  0  0  0  0  0  0  0  0  0
   38.4300   25.0120   34.9510 N   0  0  0  0  0  0  0  0  0  0  0  0
   37.8920   26.3730   34.9490 C   0  0  0  0  0  0  0  0  0  0  0  0
   37.0630   26.6010   33.7260 C   0  0  0  0  0  0  0  0  0  0  0  0
   36.9100   25.4790   32.9020 O   0  0  0  0  0  0  0  0  0  0  0  0
   38.1890   25.1190   32.5710 C   0  0  1  0  0  0  0  0  0  0  0  0
   38.7380   24.2780   33.7410 C   0  0  2  0  0  0  0  0  0  0  0  0
   38.4210   24.5550   31.2680 C   0  0  0  0  0  0  0  0  0  0  0  0
   38.0910   23.4830   30.5390 N   0  0  0  0  0  0  0  0  0  0  0  0
   38.6450   23.5560   29.3770 O   0  0  0  0  0  0  0  0  0  0  0  0
   39.3520   24.6400   29.2650 C   0  0  0  0  0  0  0  0  0  0  0  0
   39.2190   25.2660   30.4330 N   0  0  0  0  0  0  0  0  0  0  0  0
   40.1510   25.0890   28.0660 C   0  0  0  0  0  0  0  0  0  0  0  0
   39.8090   24.3010   26.8260 C   0  0  0  0  0  0  0  0  0  0  0  0
   41.6290   24.9460   28.3030 C   0  0  0  0  0  0  0  0  0  0  0  0
   39.9070   26.5490   27.7650 C   0  0  0  0  0  0  0  0  0  0  0  0
   37.8430   23.0200   33.7160 C   0  0  0  0  0  0  0  0  0  0  0  0
   36.9110   23.2530   32.7540 F   0  0  0  0  0  0  0  0  0  0  0  0
   37.4370   22.5420   34.8910 F   0  0  0  0  0  0  0  0  0  0  0  0
   38.6610   22.0020   33.1370 F   0  0  0  0  0  0  0  0  0  0  0  0
   39.9570   24.0100   33.3200 O   0  0  0  0  0  0  0  0  0  0  0  0
   41.0780   24.6370   33.4550 C   0  0  0  0  0  0  0  0  0  0  0  0
   40.8360   26.0140   33.3680 F   0  0  0  0  0  0  0  0  0  0  0  0
   41.9130   24.3970   32.3620 F   0  0  0  0  0  0  0  0  0  0  0  0
   41.8620   24.5660   34.5680 F   0  0  0  0  0  0  0  0  0  0  0  0
   40.6293   22.1981   37.6921 H   0  0  0  0  0  0  0  0  0  0  0  0
   39.1118   22.7443   39.6566 H   0  0  0  0  0  0  0  0  0  0  0  0
   37.2633   24.4119   39.2808 H   0  0  0  0  0  0  0  0  0  0  0  0
   37.2675   26.5177   35.8429 H   0  0  0  0  0  0  0  0  0  0  0  0
   38.7277   27.0883   34.9535 H   0  0  0  0  0  0  0  0  0  0  0  0
   36.0632   26.9288   34.0467 H   0  0  0  0  0  0  0  0  0  0  0  0
   37.5958   27.3543   33.1271 H   0  0  0  0  0  0  0  0  0  0  0  0
   38.7631   26.0482   32.4404 H   0  0  0  0  0  0  0  0  0  0  0  0
   39.3865   23.3274   27.1152 H   0  0  0  0  0  0  0  0  0  0  0  0
   39.0717   24.8581   26.2293 H   0  0  0  0  0  0  0  0  0  0  0  0
   40.7195   24.1429   26.2293 H   0  0  0  0  0  0  0  0  0  0  0  0
   41.8267   24.9269   29.3849 H   0  0  0  0  0  0  0  0  0  0  0  0
   41.9843   24.0093   27.8487 H   0  0  0  0  0  0  0  0  0  0  0  0
   42.1572   25.7972   27.8487 H   0  0  0  0  0  0  0  0  0  0  0  0
   39.8137   27.1072   28.7082 H   0  0  0  0  0  0  0  0  0  0  0  0
   40.7507   26.9495   27.1838 H   0  0  0  0  0  0  0  0  0  0  0  0
   38.9789   26.6534   27.1838 H   0  0  0  0  0  0  0  0  0  0  0  0
  1  2  2  0
  3  2  1  0
  4  3  2  0
  5  6  2  0
  5  4  1  0
  6  1  1  0
  7  5  1  0
  8  7  1  0
  9  8  1  0
 10  9  1  0
 11 10  1  0
 11 12  1  0
 12 26  1  6
 12  7  1  0
 13 11  1  0
 14 13  2  0
 15 14  1  0
 16 15  1  0
 16 17  2  0
 17 13  1  0
 18 20  1  0
 18 16  1  0
 19 18  1  0
 21 18  1  0
 22 12  1  0
 22 24  1  0
 23 22  1  0
 25 22  1  0
 26 27  1  0
 27 30  1  0
 28 27  1  0
 29 27  1  0
  1 31  1  0
  2 32  1  0
  3 33  1  0
  8 34  1  0
  8 35  1  0
  9 36  1  0
  9 37  1  0
 11 38  1  6
 19 39  1  0
 19 40  1  0
 19 41  1  0
 20 42  1  0
 20 43  1  0
 20 44  1  0
 21 45  1  0
 21 46  1  0
 21 47  1  0
M  ISO  8  31  14  32  14  33  14  34  13  35  13  36  13  37  13  38  13
M  ISO  8  39   8  40   8  41   8  42   8  43   8  44   8  45   8  46   8
M  ISO  1  47   8
M  END
>  <minimizedAffinity>  (1) 
-5.14318657

>  <minimizedRMSD>  (1) 
0.323695004

$$$$
