
     RDKit          3D

 44 46  0  0  1  0  0  0  0  0999 V2000
   39.8110   22.9160   37.5510 C   0  0  0  0  0  0  0  0  0  0  0  0
   38.9590   23.2160   38.6640 C   0  0  0  0  0  0  0  0  0  0  0  0
   37.9480   24.1270   38.4550 C   0  0  0  0  0  0  0  0  0  0  0  0
   37.8260   24.6780   37.2160 N   0  0  0  0  0  0  0  0  0  0  0  0
   38.6600   24.3640   36.1830 C   0  0  0  0  0  0  0  0  0  0  0  0
   39.6280   23.4970   36.3690 N   0  0  0  0  0  0  0  0  0  0  0  0
   38.4300   25.0060   34.9370 N   0  0  0  0  0  0  0  0  0  0  0  0
   37.8910   26.3690   34.9340 C   0  0  0  0  0  0  0  0  0  0  0  0
   37.0720   26.6010   33.7070 C   0  0  0  0  0  0  0  0  0  0  0  0
   36.9200   25.4770   32.8810 O   0  0  0  0  0  0  0  0  0  0  0  0
   38.1960   25.1180   32.5510 C   0  0  1  0  0  0  0  0  0  0  0  0
   38.7440   24.2730   33.7280 C   0  0  2  0  0  0  0  0  0  0  0  0
   38.4390   24.5550   31.2520 C   0  0  0  0  0  0  0  0  0  0  0  0
   38.1310   23.4690   30.5290 N   0  0  0  0  0  0  0  0  0  0  0  0
   38.6790   23.5480   29.3670 O   0  0  0  0  0  0  0  0  0  0  0  0
   39.3610   24.6470   29.2460 C   0  0  0  0  0  0  0  0  0  0  0  0
   39.2170   25.2770   30.4110 N   0  0  0  0  0  0  0  0  0  0  0  0
   40.1280   25.0610   28.0230 C   0  0  0  0  0  0  0  0  0  0  0  0
   39.7770   24.2230   26.8390 C   0  0  0  0  0  0  0  0  0  0  0  0
   39.9160   26.5350   27.7230 C   0  0  0  0  0  0  0  0  0  0  0  0
   37.8470   23.0180   33.6960 C   0  0  0  0  0  0  0  0  0  0  0  0
   36.9230   23.2480   32.7330 F   0  0  0  0  0  0  0  0  0  0  0  0
   37.4410   22.5420   34.8760 F   0  0  0  0  0  0  0  0  0  0  0  0
   38.6710   21.9980   33.1240 F   0  0  0  0  0  0  0  0  0  0  0  0
   39.9660   24.0080   33.3150 O   0  0  0  0  0  0  0  0  0  0  0  0
   41.0850   24.6360   33.4510 C   0  0  0  0  0  0  0  0  0  0  0  0
   40.8440   26.0100   33.3420 F   0  0  0  0  0  0  0  0  0  0  0  0
   41.9360   24.3910   32.3710 F   0  0  0  0  0  0  0  0  0  0  0  0
   41.8570   24.5820   34.5730 F   0  0  0  0  0  0  0  0  0  0  0  0
   40.6302   22.1928   37.6768 H   0  0  0  0  0  0  0  0  0  0  0  0
   39.1067   22.7385   39.6439 H   0  0  0  0  0  0  0  0  0  0  0  0
   37.2581   24.4020   39.2664 H   0  0  0  0  0  0  0  0  0  0  0  0
   37.2598   26.5114   35.8236 H   0  0  0  0  0  0  0  0  0  0  0  0
   38.7270   27.0839   34.9460 H   0  0  0  0  0  0  0  0  0  0  0  0
   36.0714   26.9330   34.0209 H   0  0  0  0  0  0  0  0  0  0  0  0
   37.6112   27.3527   33.1118 H   0  0  0  0  0  0  0  0  0  0  0  0
   38.7642   26.0503   32.4168 H   0  0  0  0  0  0  0  0  0  0  0  0
   41.1952   24.9005   28.2357 H   0  0  0  0  0  0  0  0  0  0  0  0
   39.3729   23.2582   27.1795 H   0  0  0  0  0  0  0  0  0  0  0  0
   39.0213   24.7435   26.2324 H   0  0  0  0  0  0  0  0  0  0  0  0
   40.6781   24.0496   26.2324 H   0  0  0  0  0  0  0  0  0  0  0  0
   39.8357   27.0935   28.6673 H   0  0  0  0  0  0  0  0  0  0  0  0
   40.7684   26.9173   27.1423 H   0  0  0  0  0  0  0  0  0  0  0  0
   38.9904   26.6616   27.1423 H   0  0  0  0  0  0  0  0  0  0  0  0
  1  2  2  0
  3  2  1  0
  4  3  2  0
  5  6  2  0
  5  4  1  0
  6  1  1  0
  7  5  1  0
  8  7  1  0
  9  8  1  0
 10  9  1  0
 11 10  1  0
 11 12  1  0
 12 25  1  6
 12  7  1  0
 13 11  1  0
 14 13  2  0
 15 14  1  0
 16 15  1  0
 16 17  2  0
 17 13  1  0
 18 16  1  0
 19 18  1  0
 20 18  1  0
 21 12  1  0
 21 23  1  0
 22 21  1  0
 24 21  1  0
 25 26  1  0
 26 29  1  0
 27 26  1  0
 28 26  1  0
  1 30  1  0
  2 31  1  0
  3 32  1  0
  8 33  1  0
  8 34  1  0
  9 35  1  0
  9 36  1  0
 11 37  1  6
 18 38  1  0
 19 39  1  0
 19 40  1  0
 19 41  1  0
 20 42  1  0
 20 43  1  0
 20 44  1  0
M  ISO  8  30  14  31  14  32  14  33  13  34  13  35  13  36  13  37  13
M  ISO  7  38   8  39   8  40   8  41   8  42   8  43   8  44   8
M  END
>  <minimizedAffinity>  (1) 
-5.10409641

>  <minimizedRMSD>  (1) 
0.290084243

$$$$
