
     RDKit          3D

 41 43  0  0  1  0  0  0  0  0999 V2000
   39.8020   22.9240   37.5160 C   0  0  0  0  0  0  0  0  0  0  0  0
   38.9570   23.1960   38.6330 C   0  0  0  0  0  0  0  0  0  0  0  0
   37.9450   24.1200   38.4480 C   0  0  0  0  0  0  0  0  0  0  0  0
   37.8290   24.6970   37.2240 N   0  0  0  0  0  0  0  0  0  0  0  0
   38.6630   24.4050   36.1840 C   0  0  0  0  0  0  0  0  0  0  0  0
   39.6190   23.5380   36.3480 N   0  0  0  0  0  0  0  0  0  0  0  0
   38.4310   25.0820   34.9540 N   0  0  0  0  0  0  0  0  0  0  0  0
   37.8910   26.4470   34.9850 C   0  0  0  0  0  0  0  0  0  0  0  0
   37.0740   26.7090   33.7650 C   0  0  0  0  0  0  0  0  0  0  0  0
   36.9230   25.6040   32.9110 O   0  0  0  0  0  0  0  0  0  0  0  0
   38.2010   25.2560   32.5730 C   0  0  1  0  0  0  0  0  0  0  0  0
   38.7450   24.3810   33.7260 C   0  0  2  0  0  0  0  0  0  0  0  0
   38.4440   24.7280   31.2590 C   0  0  0  0  0  0  0  0  0  0  0  0
   38.0560   23.7190   30.4670 N   0  0  0  0  0  0  0  0  0  0  0  0
   38.6660   23.7880   29.3380 O   0  0  0  0  0  0  0  0  0  0  0  0
   39.4700   24.8090   29.3030 C   0  0  0  0  0  0  0  0  0  0  0  0
   39.3380   25.3970   30.4910 N   0  0  0  0  0  0  0  0  0  0  0  0
   40.3330   25.1840   28.1370 C   0  0  0  0  0  0  0  0  0  0  0  0
   39.8310   24.4710   26.8730 C   0  0  0  0  0  0  0  0  0  0  0  0
   37.8510   23.1280   33.6640 C   0  0  0  0  0  0  0  0  0  0  0  0
   36.8910   23.4050   32.7440 F   0  0  0  0  0  0  0  0  0  0  0  0
   37.4800   22.5900   34.8260 F   0  0  0  0  0  0  0  0  0  0  0  0
   38.6530   22.1390   33.0070 F   0  0  0  0  0  0  0  0  0  0  0  0
   39.9700   24.1280   33.3070 O   0  0  0  0  0  0  0  0  0  0  0  0
   41.0910   24.7400   33.4780 C   0  0  0  0  0  0  0  0  0  0  0  0
   40.8580   26.1190   33.4360 F   0  0  0  0  0  0  0  0  0  0  0  0
   41.9410   24.5460   32.3880 F   0  0  0  0  0  0  0  0  0  0  0  0
   41.8580   24.6260   34.5970 F   0  0  0  0  0  0  0  0  0  0  0  0
   40.6187   22.1947   37.6211 H   0  0  0  0  0  0  0  0  0  0  0  0
   39.1042   22.6923   39.5998 H   0  0  0  0  0  0  0  0  0  0  0  0
   37.2563   24.3793   39.2656 H   0  0  0  0  0  0  0  0  0  0  0  0
   37.2591   26.5670   35.8774 H   0  0  0  0  0  0  0  0  0  0  0  0
   38.7268   27.1615   35.0158 H   0  0  0  0  0  0  0  0  0  0  0  0
   36.0731   27.0331   34.0861 H   0  0  0  0  0  0  0  0  0  0  0  0
   37.6131   27.4754   33.1889 H   0  0  0  0  0  0  0  0  0  0  0  0
   38.7710   26.1906   32.4651 H   0  0  0  0  0  0  0  0  0  0  0  0
   40.2896   26.2725   27.9848 H   0  0  0  0  0  0  0  0  0  0  0  0
   41.3710   24.8811   28.3389 H   0  0  0  0  0  0  0  0  0  0  0  0
   39.2197   23.6027   27.1601 H   0  0  0  0  0  0  0  0  0  0  0  0
   39.2225   25.1668   26.2767 H   0  0  0  0  0  0  0  0  0  0  0  0
   40.6912   24.1327   26.2767 H   0  0  0  0  0  0  0  0  0  0  0  0
  1  2  2  0
  3  2  1  0
  4  3  2  0
  5  6  2  0
  5  4  1  0
  6  1  1  0
  7  8  1  0
  7  5  1  0
  9  8  1  0
 10  9  1  0
 11 10  1  0
 11 12  1  0
 12 24  1  6
 12  7  1  0
 13 11  1  0
 14 13  2  0
 15 14  1  0
 16 15  1  0
 16 17  2  0
 17 13  1  0
 18 16  1  0
 19 18  1  0
 20 12  1  0
 20 22  1  0
 21 20  1  0
 23 20  1  0
 24 25  1  0
 25 28  1  0
 26 25  1  0
 27 25  1  0
  1 29  1  0
  2 30  1  0
  3 31  1  0
  8 32  1  0
  8 33  1  0
  9 34  1  0
  9 35  1  0
 11 36  1  6
 18 37  1  0
 18 38  1  0
 19 39  1  0
 19 40  1  0
 19 41  1  0
M  ISO  8  29  14  30  14  31  14  32  13  33  13  34  13  35  13  36  13
M  ISO  5  37   8  38   8  39   8  40   8  41   8
M  END
>  <minimizedAffinity>  (1) 
-4.96104383

>  <minimizedRMSD>  (1) 
0.116511002

$$$$
