
     RDKit          3D

 25 26  0  0  0  0  0  0  0  0999 V2000
   38.3670   23.8340   35.8920 C   0  0  0  0  0  0  0  0  0  0  0  0
   39.4060   22.9340   36.1370 C   0  0  0  0  0  0  0  0  0  0  0  0
   39.7010   22.6370   37.4690 C   0  0  0  0  0  0  0  0  0  0  0  0
   38.9770   23.2240   38.4690 N   0  0  0  0  0  0  0  0  0  0  0  0
   37.9720   24.0950   38.1770 C   0  0  0  0  0  0  0  0  0  0  0  0
   37.6790   24.3900   36.8950 N   0  0  0  0  0  0  0  0  0  0  0  0
   40.7210   21.7480   37.8930 N   0  0  0  0  0  0  0  0  0  0  0  0
   38.0590   24.1430   34.5390 N   0  0  0  0  0  0  0  0  0  0  0  0
   37.7000   23.0610   33.7900 C   0  0  0  0  0  0  0  0  0  0  0  0
   37.3770   23.1910   32.4760 C   0  0  0  0  0  0  0  0  0  0  0  0
   36.9880   22.0090   31.6700 C   0  0  0  0  0  0  0  0  0  0  0  0
   37.4010   24.4240   31.8600 C   0  0  0  0  0  0  0  0  0  0  0  0
   37.1030   24.5470   30.6490 O   0  0  0  0  0  0  0  0  0  0  0  0
   37.7600   25.4670   32.6370 N   0  0  0  0  0  0  0  0  0  0  0  0
   38.0820   25.3440   33.9350 C   0  0  0  0  0  0  0  0  0  0  0  0
   38.4200   26.3010   34.6790 O   0  0  0  0  0  0  0  0  0  0  0  0
   39.9709   22.4761   35.3116 H   0  0  0  0  0  0  0  0  0  0  0  0
   37.3966   24.5600   38.9911 H   0  0  0  0  0  0  0  0  0  0  0  0
   40.8751   21.5827   38.8979 H   0  0  0  0  0  0  0  0  0  0  0  0
   41.3079   21.2675   37.1961 H   0  0  0  0  0  0  0  0  0  0  0  0
   37.6714   22.0657   34.2575 H   0  0  0  0  0  0  0  0  0  0  0  0
   36.7155   21.1811   32.3411 H   0  0  0  0  0  0  0  0  0  0  0  0
   36.1268   22.2652   31.0354 H   0  0  0  0  0  0  0  0  0  0  0  0
   37.8331   21.7037   31.0354 H   0  0  0  0  0  0  0  0  0  0  0  0
   37.7886   26.4053   32.2131 H   0  0  0  0  0  0  0  0  0  0  0  0
  1  2  2  0
  1  6  1  0
  2  3  1  0
  3  7  1  0
  3  4  2  0
  5  4  1  0
  6  5  2  0
  8  1  1  0
  9  8  1  0
 10  9  2  0
 11 10  1  0
 12 10  1  0
 12 14  1  0
 13 12  2  0
 14 15  1  0
 15  8  1  0
 15 16  2  0
  2 17  1  0
  5 18  1  0
  7 19  1  0
  7 20  1  0
  9 21  1  0
 11 22  1  0
 11 23  1  0
 11 24  1  0
 14 25  1  0
M  ISO  7  17  14  18  14  21  14  22   8  23   8  24   8  25   9
M  END
>  <minimizedAffinity>  (1) 
-4.76266336

>  <minimizedRMSD>  (1) 
6.30246735

$$$$
