
     RDKit          3D

 19 20  0  0  0  0  0  0  0  0999 V2000
   39.8680   22.2370   36.7870 C   0  0  0  0  0  0  0  0  0  0  0  0
   39.6230   23.0750   37.8850 C   0  0  0  0  0  0  0  0  0  0  0  0
   38.4010   23.7380   37.9220 C   0  0  0  0  0  0  0  0  0  0  0  0
   37.5040   23.5480   36.9080 N   0  0  0  0  0  0  0  0  0  0  0  0
   37.7810   22.7260   35.8620 C   0  0  0  0  0  0  0  0  0  0  0  0
   38.9620   22.0790   35.8150 N   0  0  0  0  0  0  0  0  0  0  0  0
   37.9820   24.6220   38.9500 N   0  0  0  0  0  0  0  0  0  0  0  0
   41.1540   21.5470   36.7590 C   0  0  0  0  0  0  0  0  0  0  0  0
   42.0810   21.5570   35.7420 C   0  0  0  0  0  0  0  0  0  0  0  0
   43.1400   20.7910   36.1080 N   0  0  0  0  0  0  0  0  0  0  0  0
   42.9030   20.2940   37.3370 C   0  0  0  0  0  0  0  0  0  0  0  0
   41.7130   20.7640   37.6930 N   0  0  0  0  0  0  0  0  0  0  0  0
   40.3675   23.2026   38.6846 H   0  0  0  0  0  0  0  0  0  0  0  0
   37.0441   22.5893   35.0569 H   0  0  0  0  0  0  0  0  0  0  0  0
   37.0568   25.0717   38.8972 H   0  0  0  0  0  0  0  0  0  0  0  0
   38.6030   24.8140   39.7490 H   0  0  0  0  0  0  0  0  0  0  0  0
   41.9803   22.0971   34.7890 H   0  0  0  0  0  0  0  0  0  0  0  0
   43.5593   19.6351   37.9245 H   0  0  0  0  0  0  0  0  0  0  0  0
   41.2649   20.5489   38.5951 H   0  0  0  0  0  0  0  0  0  0  0  0
  1  2  2  0
  2  3  1  0
  3  7  1  0
  4  3  2  0
  5  4  1  0
  6  5  2  0
  6  1  1  0
  8  1  1  0
  8 12  1  0
  9 10  1  0
  9  8  2  0
 10 11  2  0
 11 12  1  0
  2 13  1  0
  5 14  1  0
  7 15  1  0
  7 16  1  0
  9 17  1  0
 11 18  1  0
 12 19  1  0
M  ISO  5  13  14  14  14  17  14  18  14  19   9
M  END
>  <minimizedAffinity>  (1) 
-3.83696365

>  <minimizedRMSD>  (1) 
0.731584311

$$$$
