
     RDKit          3D

 22 23  0  0  0  0  0  0  0  0999 V2000
   39.9870   22.5240   36.7750 C   0  0  0  0  0  0  0  0  0  0  0  0
   39.6000   23.3380   37.8400 C   0  0  0  0  0  0  0  0  0  0  0  0
   38.2630   23.6680   37.9790 C   0  0  0  0  0  0  0  0  0  0  0  0
   37.3860   23.1780   37.0640 N   0  0  0  0  0  0  0  0  0  0  0  0
   37.7870   22.3900   36.0400 C   0  0  0  0  0  0  0  0  0  0  0  0
   39.0720   22.0750   35.9090 N   0  0  0  0  0  0  0  0  0  0  0  0
   37.7160   24.4780   39.0000 N   0  0  0  0  0  0  0  0  0  0  0  0
   41.3870   22.1620   36.6050 C   0  0  0  0  0  0  0  0  0  0  0  0
   41.9360   20.9180   36.8350 C   0  0  0  0  0  0  0  0  0  0  0  0
   43.2520   20.6240   36.6630 C   0  0  0  0  0  0  0  0  0  0  0  0
   44.0970   21.6040   36.2370 C   0  0  0  0  0  0  0  0  0  0  0  0
   43.6370   22.8720   35.9840 C   0  0  0  0  0  0  0  0  0  0  0  0
   42.2950   23.1090   36.1770 C   0  0  0  0  0  0  0  0  0  0  0  0
   40.3454   23.7115   38.5576 H   0  0  0  0  0  0  0  0  0  0  0  0
   37.0506   22.0103   35.3165 H   0  0  0  0  0  0  0  0  0  0  0  0
   36.7039   24.6681   39.0199 H   0  0  0  0  0  0  0  0  0  0  0  0
   38.3295   24.8782   39.7241 H   0  0  0  0  0  0  0  0  0  0  0  0
   41.2681   20.1144   37.1787 H   0  0  0  0  0  0  0  0  0  0  0  0
   43.6288   19.6104   36.8647 H   0  0  0  0  0  0  0  0  0  0  0  0
   45.1635   21.3757   36.0937 H   0  0  0  0  0  0  0  0  0  0  0  0
   44.3143   23.6678   35.6404 H   0  0  0  0  0  0  0  0  0  0  0  0
   41.9203   24.1235   35.9762 H   0  0  0  0  0  0  0  0  0  0  0  0
  1  2  2  0
  2  3  1  0
  3  7  1  0
  4  3  2  0
  5  4  1  0
  6  5  2  0
  6  1  1  0
  8  1  1  0
  8  9  2  0
 10  9  1  0
 11 10  2  0
 12 13  2  0
 12 11  1  0
 13  8  1  0
  2 14  1  0
  5 15  1  0
  7 16  1  0
  7 17  1  0
  9 18  1  0
 10 19  1  0
 11 20  1  0
 12 21  1  0
 13 22  1  0
M  ISO  7  14  14  15  14  18  14  19  14  20  14  21  14  22  14
M  END
>  <minimizedAffinity>  (1) 
-3.8700192

>  <minimizedRMSD>  (1) 
0.783400834

$$$$
