
     RDKit          3D

 26 27  0  0  0  0  0  0  0  0999 V2000
   39.6810   23.7070   35.3710 C   0  0  0  0  0  0  0  0  0  0  0  0
   39.2870   23.7060   36.7160 C   0  0  0  0  0  0  0  0  0  0  0  0
   38.1560   22.9790   37.0510 C   0  0  0  0  0  0  0  0  0  0  0  0
   37.4850   22.3020   36.0640 N   0  0  0  0  0  0  0  0  0  0  0  0
   37.9040   22.3310   34.7690 C   0  0  0  0  0  0  0  0  0  0  0  0
   38.9940   23.0310   34.4410 N   0  0  0  0  0  0  0  0  0  0  0  0
   37.5980   22.8530   38.3470 N   0  0  0  0  0  0  0  0  0  0  0  0
   40.8420   24.4560   35.0420 N   0  0  0  0  0  0  0  0  0  0  0  0
   40.6950   25.8580   34.7140 C   0  0  0  0  0  0  0  0  0  0  0  0
   42.0680   26.3120   34.2250 C   0  0  0  0  0  0  0  0  0  0  0  0
   42.9930   26.1140   35.3220 N   0  0  0  0  0  0  0  0  0  0  0  0
   43.2660   24.7130   35.4370 C   0  0  0  0  0  0  0  0  0  0  0  0
   42.1380   23.8100   35.0410 C   0  0  0  0  0  0  0  0  0  0  0  0
   39.8544   24.2616   37.4772 H   0  0  0  0  0  0  0  0  0  0  0  0
   37.3477   21.7806   33.9960 H   0  0  0  0  0  0  0  0  0  0  0  0
   36.7502   22.2858   38.4898 H   0  0  0  0  0  0  0  0  0  0  0  0
   38.0401   23.3286   39.1465 H   0  0  0  0  0  0  0  0  0  0  0  0
   39.9426   25.9902   33.9225 H   0  0  0  0  0  0  0  0  0  0  0  0
   40.3572   26.4453   35.5806 H   0  0  0  0  0  0  0  0  0  0  0  0
   42.3775   25.7120   33.3565 H   0  0  0  0  0  0  0  0  0  0  0  0
   42.0459   27.3671   33.9147 H   0  0  0  0  0  0  0  0  0  0  0  0
   43.8679   26.6246   35.1355 H   0  0  0  0  0  0  0  0  0  0  0  0
   44.1294   24.4806   34.7962 H   0  0  0  0  0  0  0  0  0  0  0  0
   43.4488   24.5237   36.5051 H   0  0  0  0  0  0  0  0  0  0  0  0
   42.1053   22.9666   35.7465 H   0  0  0  0  0  0  0  0  0  0  0  0
   42.3339   23.4883   34.0075 H   0  0  0  0  0  0  0  0  0  0  0  0
  1  2  2  0
  2  3  1  0
  3  7  1  0
  4  3  2  0
  5  4  1  0
  6  5  2  0
  6  1  1  0
  8  1  1  0
  9  8  1  0
 10  9  1  0
 10 11  1  0
 11 12  1  0
 13  8  1  0
 13 12  1  0
  2 14  1  0
  5 15  1  0
  7 16  1  0
  7 17  1  0
  9 18  1  0
  9 19  1  0
 10 20  1  0
 10 21  1  0
 11 22  1  0
 12 23  1  0
 12 24  1  0
 13 25  1  0
 13 26  1  0
M  ISO  8  14  14  15  14  18  13  19  13  20  13  21  13  22   5  23  13
M  ISO  3  24  13  25  13  26  13
M  END
>  <minimizedAffinity>  (1) 
-3.550529

>  <minimizedRMSD>  (1) 
3.55302429

$$$$
