
     RDKit          3D

 13 13  0  0  0  0  0  0  0  0999 V2000
   40.0100   22.2240   36.9140 C   0  0  0  0  0  0  0  0  0  0  0  0
   39.6820   23.0810   37.9690 C   0  0  0  0  0  0  0  0  0  0  0  0
   38.4490   23.7120   37.9330 C   0  0  0  0  0  0  0  0  0  0  0  0
   37.5970   23.4810   36.8750 N   0  0  0  0  0  0  0  0  0  0  0  0
   37.9680   22.6410   35.8820 C   0  0  0  0  0  0  0  0  0  0  0  0
   39.1480   22.0280   35.9030 N   0  0  0  0  0  0  0  0  0  0  0  0
   37.9390   24.6210   38.9170 N   0  0  0  0  0  0  0  0  0  0  0  0
   41.6260   21.4770   37.0860 S   0  0  0  0  0  0  0  0  0  0  0  0
   40.3810   23.2490   38.8016 H   0  0  0  0  0  0  0  0  0  0  0  0
   37.2812   22.4616   35.0417 H   0  0  0  0  0  0  0  0  0  0  0  0
   37.0052   25.0389   38.7972 H   0  0  0  0  0  0  0  0  0  0  0  0
   38.5063   24.8563   39.7439 H   0  0  0  0  0  0  0  0  0  0  0  0
   41.9258   21.3384   38.4156 H   0  0  0  0  0  0  0  0  0  0  0  0
  1  8  1  0
  1  2  2  0
  3  2  1  0
  3  7  1  0
  4  3  2  0
  5  6  2  0
  5  4  1  0
  6  1  1  0
  2  9  1  0
  5 10  1  0
  7 11  1  0
  7 12  1  0
  8 13  1  0
M  ISO  3   9  14  10  14  13  11
M  END
>  <minimizedAffinity>  (1) 
-3.02551246

>  <minimizedRMSD>  (1) 
0.166420341

$$$$
