
     RDKit          3D

 29 31  0  0  0  0  0  0  0  0999 V2000
   42.2210   21.6610   36.7890 C   0  0  0  0  0  0  0  0  0  0  0  0
   40.9900   22.0580   36.0610 C   0  0  0  0  0  0  0  0  0  0  0  0
   40.8930   21.8690   34.7110 N   0  0  0  0  0  0  0  0  0  0  0  0
   39.7560   22.2310   34.0770 C   0  0  0  0  0  0  0  0  0  0  0  0
   38.6610   22.7780   34.6520 N   0  0  0  0  0  0  0  0  0  0  0  0
   38.7600   22.9660   36.0020 C   0  0  0  0  0  0  0  0  0  0  0  0
   37.6370   23.5340   36.6150 C   0  0  0  0  0  0  0  0  0  0  0  0
   37.7520   23.7230   37.9980 C   0  0  0  0  0  0  0  0  0  0  0  0
   38.8980   23.3720   38.7160 C   0  0  0  0  0  0  0  0  0  0  0  0
   39.9780   22.8140   38.0630 C   0  0  0  0  0  0  0  0  0  0  0  0
   39.9080   22.6070   36.6790 C   0  0  0  0  0  0  0  0  0  0  0  0
   43.3900   22.4850   36.3570 C   0  0  0  0  0  0  0  0  0  0  0  0
   43.3170   23.8510   36.6640 C   0  0  0  0  0  0  0  0  0  0  0  0
   44.3910   24.6420   36.2690 C   0  0  0  0  0  0  0  0  0  0  0  0
   45.4450   24.0710   35.6140 N   0  0  0  0  0  0  0  0  0  0  0  0
   45.4590   22.7330   35.3420 C   0  0  0  0  0  0  0  0  0  0  0  0
   44.4270   21.9540   35.7170 N   0  0  0  0  0  0  0  0  0  0  0  0
   44.5140   26.0350   36.4820 N   0  0  0  0  0  0  0  0  0  0  0  0
   42.0614   21.8016   37.8682 H   0  0  0  0  0  0  0  0  0  0  0  0
   42.4350   20.6057   36.5644 H   0  0  0  0  0  0  0  0  0  0  0  0
   39.7174   22.0651   32.9903 H   0  0  0  0  0  0  0  0  0  0  0  0
   36.7328   23.8109   36.0531 H   0  0  0  0  0  0  0  0  0  0  0  0
   36.9047   24.1663   38.5416 H   0  0  0  0  0  0  0  0  0  0  0  0
   38.9394   23.5405   39.8022 H   0  0  0  0  0  0  0  0  0  0  0  0
   40.8831   22.5350   38.6224 H   0  0  0  0  0  0  0  0  0  0  0  0
   42.4514   24.2772   37.1923 H   0  0  0  0  0  0  0  0  0  0  0  0
   46.3166   22.2900   34.8145 H   0  0  0  0  0  0  0  0  0  0  0  0
   45.3516   26.5347   36.1507 H   0  0  0  0  0  0  0  0  0  0  0  0
   43.7660   26.5496   36.9684 H   0  0  0  0  0  0  0  0  0  0  0  0
  2 11  1  0
  2  1  1  0
  3  2  2  0
  4  5  2  0
  4  3  1  0
  5  6  1  0
  6  7  1  0
  6 11  2  0
  7  8  2  0
  8  9  1  0
 10  9  2  0
 11 10  1  0
 12 13  2  0
 12  1  1  0
 14 18  1  0
 14 13  1  0
 15 14  2  0
 16 15  1  0
 16 17  2  0
 17 12  1  0
  1 19  1  0
  1 20  1  0
  4 21  1  0
  7 22  1  0
  8 23  1  0
  9 24  1  0
 10 25  1  0
 13 26  1  0
 16 27  1  0
 18 28  1  0
 18 29  1  0
M  ISO  8  19   8  20   8  21  14  22  14  23  14  24  14  25  14  26  14
M  ISO  1  27  14
M  END
>  <minimizedAffinity>  (1) 
-4.78054905

>  <minimizedRMSD>  (1) 
5.98116922

$$$$
