
     RDKit          3D

 23 24  0  0  0  0  0  0  0  0999 V2000
   39.9040   22.4240   36.6210 C   0  0  0  0  0  0  0  0  0  0  0  0
   39.6060   23.2250   37.7220 C   0  0  0  0  0  0  0  0  0  0  0  0
   38.2790   23.5990   37.9100 C   0  0  0  0  0  0  0  0  0  0  0  0
   37.3410   23.1630   37.0090 N   0  0  0  0  0  0  0  0  0  0  0  0
   37.6860   22.3850   35.9550 C   0  0  0  0  0  0  0  0  0  0  0  0
   38.9720   22.0190   35.7660 N   0  0  0  0  0  0  0  0  0  0  0  0
   37.7990   24.4020   38.9640 N   0  0  0  0  0  0  0  0  0  0  0  0
   41.3400   22.0480   36.4590 C   0  0  0  0  0  0  0  0  0  0  0  0
   42.1880   23.2180   36.1050 C   0  0  0  0  0  0  0  0  0  0  0  0
   43.3990   23.4430   36.7280 C   0  0  0  0  0  0  0  0  0  0  0  0
   44.1450   24.5410   36.3630 C   0  0  0  0  0  0  0  0  0  0  0  0
   43.7250   25.4030   35.4150 N   0  0  0  0  0  0  0  0  0  0  0  0
   42.5320   25.1710   34.8100 C   0  0  0  0  0  0  0  0  0  0  0  0
   41.7830   24.0890   35.1600 N   0  0  0  0  0  0  0  0  0  0  0  0
   40.3929   23.5503   38.4184 H   0  0  0  0  0  0  0  0  0  0  0  0
   36.9131   22.0490   35.2481 H   0  0  0  0  0  0  0  0  0  0  0  0
   36.7960   24.6286   39.0232 H   0  0  0  0  0  0  0  0  0  0  0  0
   38.4512   24.7623   39.6751 H   0  0  0  0  0  0  0  0  0  0  0  0
   41.7034   21.6196   37.4047 H   0  0  0  0  0  0  0  0  0  0  0  0
   41.4089   21.3188   35.6383 H   0  0  0  0  0  0  0  0  0  0  0  0
   43.7629   22.7547   37.5051 H   0  0  0  0  0  0  0  0  0  0  0  0
   45.1106   24.7201   36.8585 H   0  0  0  0  0  0  0  0  0  0  0  0
   42.1688   25.8603   34.0335 H   0  0  0  0  0  0  0  0  0  0  0  0
  1  2  2  0
  2  3  1  0
  3  7  1  0
  4  3  2  0
  5  4  1  0
  6  5  2  0
  6  1  1  0
  8  1  1  0
  9  8  1  0
  9 10  2  0
 11 10  1  0
 12 11  2  0
 13 14  2  0
 13 12  1  0
 14  9  1  0
  2 15  1  0
  5 16  1  0
  7 17  1  0
  7 18  1  0
  8 19  1  0
  8 20  1  0
 10 21  1  0
 11 22  1  0
 13 23  1  0
M  ISO  7  15  14  16  14  19   8  20   8  21  14  22  14  23  14
M  END
>  <minimizedAffinity>  (1) 
-3.8269701

>  <minimizedRMSD>  (1) 
0.985505521

$$$$
