
     RDKit          3D

 22 23  0  0  0  0  0  0  0  0999 V2000
   39.9470   22.2910   36.9350 C   0  0  0  0  0  0  0  0  0  0  0  0
   39.6330   23.1620   37.9770 C   0  0  0  0  0  0  0  0  0  0  0  0
   38.3800   23.7570   37.9620 C   0  0  0  0  0  0  0  0  0  0  0  0
   37.5150   23.4730   36.9430 N   0  0  0  0  0  0  0  0  0  0  0  0
   37.8690   22.6240   35.9600 C   0  0  0  0  0  0  0  0  0  0  0  0
   39.0720   22.0410   35.9580 N   0  0  0  0  0  0  0  0  0  0  0  0
   37.8980   24.6690   38.9460 N   0  0  0  0  0  0  0  0  0  0  0  0
   41.3160   21.6770   37.0050 C   0  0  0  0  0  0  0  0  0  0  0  0
   42.2770   22.3660   36.0830 C   0  0  0  0  0  0  0  0  0  0  0  0
   43.6950   21.8040   36.1930 C   0  0  0  0  0  0  0  0  0  0  0  0
   43.3650   23.2340   36.5400 C   0  0  0  0  0  0  0  0  0  0  0  0
   40.3529   23.3700   38.7822 H   0  0  0  0  0  0  0  0  0  0  0  0
   37.1593   22.4072   35.1480 H   0  0  0  0  0  0  0  0  0  0  0  0
   36.9518   25.0668   38.8600 H   0  0  0  0  0  0  0  0  0  0  0  0
   38.4959   24.9302   39.7430 H   0  0  0  0  0  0  0  0  0  0  0  0
   41.6909   21.7568   38.0361 H   0  0  0  0  0  0  0  0  0  0  0  0
   41.2374   20.6241   36.6963 H   0  0  0  0  0  0  0  0  0  0  0  0
   41.4980   22.5435   35.3269 H   0  0  0  0  0  0  0  0  0  0  0  0
   43.9480   21.0835   36.9848 H   0  0  0  0  0  0  0  0  0  0  0  0
   44.3993   21.2959   35.5179 H   0  0  0  0  0  0  0  0  0  0  0  0
   43.7213   24.0480   35.8916 H   0  0  0  0  0  0  0  0  0  0  0  0
   43.5220   23.8629   37.4287 H   0  0  0  0  0  0  0  0  0  0  0  0
  1  8  1  0
  1  2  2  0
  3  2  1  0
  3  7  1  0
  4  3  2  0
  5  4  1  0
  6  5  2  0
  6  1  1  0
  9 10  1  0
  9 11  1  0
  9  8  1  0
 10 11  1  0
  2 12  1  0
  5 13  1  0
  7 14  1  0
  7 15  1  0
  8 16  1  0
  8 17  1  0
  9 18  1  0
 10 19  1  0
 10 20  1  0
 11 21  1  0
 11 22  1  0
M  ISO  8  12  14  13  14  16   8  17   8  18  13  19  13  20  13  21  13
M  ISO  1  22  13
M  END
>  <minimizedAffinity>  (1) 
-3.57215285

>  <minimizedRMSD>  (1) 
1.14087915

$$$$
