
     RDKit          3D

 24 25  0  0  0  0  0  0  0  0999 V2000
   39.8330   22.3570   36.4550 C   0  0  0  0  0  0  0  0  0  0  0  0
   39.6000   23.1470   37.5730 C   0  0  0  0  0  0  0  0  0  0  0  0
   38.2960   23.5250   37.8400 C   0  0  0  0  0  0  0  0  0  0  0  0
   37.2990   23.1020   36.9870 N   0  0  0  0  0  0  0  0  0  0  0  0
   37.5790   22.3370   35.9170 C   0  0  0  0  0  0  0  0  0  0  0  0
   38.8380   21.9690   35.6540 N   0  0  0  0  0  0  0  0  0  0  0  0
   37.8590   24.3220   38.9230 N   0  0  0  0  0  0  0  0  0  0  0  0
   41.2570   21.9750   36.2080 C   0  0  0  0  0  0  0  0  0  0  0  0
   42.1280   23.1510   35.9790 C   0  0  0  0  0  0  0  0  0  0  0  0
   43.3320   23.1920   36.6670 C   0  0  0  0  0  0  0  0  0  0  0  0
   44.2460   24.1970   36.5730 C   0  0  0  0  0  0  0  0  0  0  0  0
   43.9570   25.2650   35.7250 C   0  0  0  0  0  0  0  0  0  0  0  0
   42.7430   25.2050   35.0430 C   0  0  0  0  0  0  0  0  0  0  0  0
   41.8700   24.1910   35.1680 N   0  0  0  0  0  0  0  0  0  0  0  0
   40.4268   23.4626   38.2263 H   0  0  0  0  0  0  0  0  0  0  0  0
   36.7656   22.0110   35.2521 H   0  0  0  0  0  0  0  0  0  0  0  0
   36.8588   24.5446   39.0280 H   0  0  0  0  0  0  0  0  0  0  0  0
   38.5408   24.6800   39.6070 H   0  0  0  0  0  0  0  0  0  0  0  0
   41.6313   21.4238   37.0833 H   0  0  0  0  0  0  0  0  0  0  0  0
   41.2844   21.3566   35.2987 H   0  0  0  0  0  0  0  0  0  0  0  0
   43.5653   22.3515   37.3372 H   0  0  0  0  0  0  0  0  0  0  0  0
   45.1831   24.1670   37.1483 H   0  0  0  0  0  0  0  0  0  0  0  0
   44.6501   26.1101   35.6007 H   0  0  0  0  0  0  0  0  0  0  0  0
   42.4855   26.0326   34.3656 H   0  0  0  0  0  0  0  0  0  0  0  0
  1  2  2  0
  2  3  1  0
  3  7  1  0
  4  3  2  0
  5  4  1  0
  6  5  2  0
  6  1  1  0
  8  1  1  0
  9  8  1  0
  9 10  2  0
 11 10  1  0
 12 11  2  0
 13 14  2  0
 13 12  1  0
 14  9  1  0
  2 15  1  0
  5 16  1  0
  7 17  1  0
  7 18  1  0
  8 19  1  0
  8 20  1  0
 10 21  1  0
 11 22  1  0
 12 23  1  0
 13 24  1  0
M  ISO  8  15  14  16  14  19   8  20   8  21  14  22  14  23  14  24  14
M  END
>  <minimizedAffinity>  (1) 
-4.00347948

>  <minimizedRMSD>  (1) 
1.01063359

$$$$
