
     RDKit          3D

 30 32  0  0  0  0  0  0  0  0999 V2000
   41.7890   23.4400   35.3060 C   0  0  0  0  0  0  0  0  0  0  0  0
   40.4480   23.6230   35.9080 C   0  0  0  0  0  0  0  0  0  0  0  0
   40.2500   23.0120   37.1300 C   0  0  0  0  0  0  0  0  0  0  0  0
   38.9850   23.1720   37.7210 C   0  0  0  0  0  0  0  0  0  0  0  0
   38.0330   23.9050   37.0750 N   0  0  0  0  0  0  0  0  0  0  0  0
   38.2860   24.4820   35.8740 C   0  0  0  0  0  0  0  0  0  0  0  0
   39.4930   24.3370   35.2990 N   0  0  0  0  0  0  0  0  0  0  0  0
   38.5930   22.6220   38.9690 N   0  0  0  0  0  0  0  0  0  0  0  0
   42.6880   24.3980   35.7480 O   0  0  0  0  0  0  0  0  0  0  0  0
   44.0240   24.0450   35.8940 C   0  0  0  0  0  0  0  0  0  0  0  0
   44.8500   23.2090   35.1400 C   0  0  0  0  0  0  0  0  0  0  0  0
   46.0730   23.2140   35.7240 N   0  0  0  0  0  0  0  0  0  0  0  0
   46.0400   24.0150   36.8060 C   0  0  0  0  0  0  0  0  0  0  0  0
   47.0010   24.3530   37.7210 C   0  0  0  0  0  0  0  0  0  0  0  0
   46.7610   25.2100   38.7810 C   0  0  0  0  0  0  0  0  0  0  0  0
   45.4980   25.7150   38.8760 C   0  0  0  0  0  0  0  0  0  0  0  0
   44.4760   25.4310   38.0050 C   0  0  0  0  0  0  0  0  0  0  0  0
   44.7790   24.5580   36.9540 C   0  0  0  0  0  0  0  0  0  0  0  0
   41.7008   23.5127   34.2120 H   0  0  0  0  0  0  0  0  0  0  0  0
   42.1669   22.4521   35.6081 H   0  0  0  0  0  0  0  0  0  0  0  0
   41.0443   22.4279   37.6178 H   0  0  0  0  0  0  0  0  0  0  0  0
   37.5038   25.0687   35.3701 H   0  0  0  0  0  0  0  0  0  0  0  0
   37.6428   22.7890   39.3297 H   0  0  0  0  0  0  0  0  0  0  0  0
   39.2587   22.0558   39.5141 H   0  0  0  0  0  0  0  0  0  0  0  0
   44.5613   22.6494   34.2381 H   0  0  0  0  0  0  0  0  0  0  0  0
   46.8955   22.6895   35.3934 H   0  0  0  0  0  0  0  0  0  0  0  0
   48.0079   23.9246   37.6087 H   0  0  0  0  0  0  0  0  0  0  0  0
   47.5458   25.4694   39.5068 H   0  0  0  0  0  0  0  0  0  0  0  0
   45.2828   26.3989   39.7103 H   0  0  0  0  0  0  0  0  0  0  0  0
   43.4730   25.8660   38.1265 H   0  0  0  0  0  0  0  0  0  0  0  0
  1  9  1  0
  1  2  1  0
  2  3  2  0
  3  4  1  0
  4  8  1  0
  5  4  2  0
  6  5  1  0
  7  6  2  0
  7  2  1  0
  9 10  1  0
 10 18  1  0
 11 12  1  0
 11 10  2  0
 12 13  1  0
 13 18  2  0
 13 14  1  0
 14 15  2  0
 15 16  1  0
 17 16  2  0
 18 17  1  0
  1 19  1  0
  1 20  1  0
  3 21  1  0
  6 22  1  0
  8 23  1  0
  8 24  1  0
 11 25  1  0
 12 26  1  0
 14 27  1  0
 15 28  1  0
 16 29  1  0
 17 30  1  0
M  ISO  8  19   8  20   8  21  14  22  14  25  14  26   9  27  14  28  14
M  ISO  2  29  14  30  14
M  END
>  <minimizedAffinity>  (1) 
-5.14406586

>  <minimizedRMSD>  (1) 
3.49497318

$$$$
