
     RDKit          3D

 26 27  0  0  0  0  0  0  0  0999 V2000
   38.9740   25.1380   34.7650 C   0  0  0  0  0  0  0  0  0  0  0  0
   38.9070   24.4620   36.0920 C   0  0  0  0  0  0  0  0  0  0  0  0
   39.8130   23.4400   36.2760 C   0  0  0  0  0  0  0  0  0  0  0  0
   39.7900   22.7790   37.5010 C   0  0  0  0  0  0  0  0  0  0  0  0
   38.8710   23.1740   38.4580 N   0  0  0  0  0  0  0  0  0  0  0  0
   38.0140   24.1790   38.2190 C   0  0  0  0  0  0  0  0  0  0  0  0
   38.0310   24.8160   37.0490 N   0  0  0  0  0  0  0  0  0  0  0  0
   40.6350   21.7060   37.8830 N   0  0  0  0  0  0  0  0  0  0  0  0
   37.7330   25.1600   34.1480 O   0  0  0  0  0  0  0  0  0  0  0  0
   37.1620   26.3740   33.7840 C   0  0  0  0  0  0  0  0  0  0  0  0
   36.8930   27.3600   34.7110 C   0  0  0  0  0  0  0  0  0  0  0  0
   36.3290   28.5890   34.4350 C   0  0  0  0  0  0  0  0  0  0  0  0
   36.0290   28.7920   33.0850 C   0  0  0  0  0  0  0  0  0  0  0  0
   36.2800   27.8360   32.1170 C   0  0  0  0  0  0  0  0  0  0  0  0
   36.8460   26.6220   32.4560 C   0  0  0  0  0  0  0  0  0  0  0  0
   39.3222   26.1718   34.9066 H   0  0  0  0  0  0  0  0  0  0  0  0
   39.6705   24.5772   34.1243 H   0  0  0  0  0  0  0  0  0  0  0  0
   40.5255   23.1579   35.4869 H   0  0  0  0  0  0  0  0  0  0  0  0
   37.2931   24.4786   38.9940 H   0  0  0  0  0  0  0  0  0  0  0  0
   40.5389   21.2821   38.8168 H   0  0  0  0  0  0  0  0  0  0  0  0
   41.3448   21.3506   37.2267 H   0  0  0  0  0  0  0  0  0  0  0  0
   37.1500   27.1484   35.7594 H   0  0  0  0  0  0  0  0  0  0  0  0
   36.1325   29.3438   35.2107 H   0  0  0  0  0  0  0  0  0  0  0  0
   35.5765   29.7474   32.7809 H   0  0  0  0  0  0  0  0  0  0  0  0
   36.0265   28.0444   31.0671 H   0  0  0  0  0  0  0  0  0  0  0  0
   37.0432   25.8633   31.6843 H   0  0  0  0  0  0  0  0  0  0  0  0
  1  2  1  0
  2  3  2  0
  2  7  1  0
  3  4  1  0
  4  8  1  0
  4  5  2  0
  6  5  1  0
  7  6  2  0
  9  1  1  0
 10  9  1  0
 10 11  2  0
 12 11  1  0
 13 12  2  0
 14 15  2  0
 14 13  1  0
 15 10  1  0
  1 16  1  0
  1 17  1  0
  3 18  1  0
  6 19  1  0
  8 20  1  0
  8 21  1  0
 11 22  1  0
 12 23  1  0
 13 24  1  0
 14 25  1  0
 15 26  1  0
M  ISO  8  16   8  17   8  18  14  19  14  22  14  23  14  24  14  25  14
M  ISO  1  26  14
M  END
>  <minimizedAffinity>  (1) 
-4.82551384

>  <minimizedRMSD>  (1) 
7.55883121

$$$$
