
     RDKit          3D

 23 24  0  0  0  0  0  0  0  0999 V2000
   39.9110   22.2750   36.6680 C   0  0  0  0  0  0  0  0  0  0  0  0
   39.6880   23.0650   37.7710 C   0  0  0  0  0  0  0  0  0  0  0  0
   38.3760   23.5680   37.9190 C   0  0  0  0  0  0  0  0  0  0  0  0
   37.4220   23.2440   36.9690 N   0  0  0  0  0  0  0  0  0  0  0  0
   37.7290   22.4570   35.9110 C   0  0  0  0  0  0  0  0  0  0  0  0
   38.9680   21.9860   35.7780 N   0  0  0  0  0  0  0  0  0  0  0  0
   37.8940   24.3850   38.9560 N   0  0  0  0  0  0  0  0  0  0  0  0
   41.2980   21.7630   36.5620 C   0  0  0  0  0  0  0  0  0  0  0  0
   42.2230   22.5910   37.1610 O   0  0  0  0  0  0  0  0  0  0  0  0
   43.5490   24.7760   34.7680 N   0  0  0  0  0  0  0  0  0  0  0  0
   42.6450   23.8510   35.0710 N   0  0  0  0  0  0  0  0  0  0  0  0
   42.8900   23.5140   36.3700 C   0  0  0  0  0  0  0  0  0  0  0  0
   43.9700   24.2710   36.8210 C   0  0  0  0  0  0  0  0  0  0  0  0
   44.3840   25.0790   35.7810 C   0  0  0  0  0  0  0  0  0  0  0  0
   40.4840   23.2920   38.4954 H   0  0  0  0  0  0  0  0  0  0  0  0
   36.9596   22.2079   35.1653 H   0  0  0  0  0  0  0  0  0  0  0  0
   36.9104   24.6907   38.9560 H   0  0  0  0  0  0  0  0  0  0  0  0
   38.5243   24.6781   39.7160 H   0  0  0  0  0  0  0  0  0  0  0  0
   41.3456   20.7760   37.0453 H   0  0  0  0  0  0  0  0  0  0  0  0
   41.5485   21.7078   35.4923 H   0  0  0  0  0  0  0  0  0  0  0  0
   43.6065   25.2218   33.8413 H   0  0  0  0  0  0  0  0  0  0  0  0
   44.4136   24.2316   37.8268 H   0  0  0  0  0  0  0  0  0  0  0  0
   45.2094   25.8061   35.7797 H   0  0  0  0  0  0  0  0  0  0  0  0
  1  2  2  0
  2  3  1  0
  3  7  1  0
  4  3  2  0
  5  4  1  0
  6  5  2  0
  6  1  1  0
  8  1  1  0
  8  9  1  0
 10 11  1  0
 10 14  1  0
 11 12  2  0
 12 13  1  0
 12  9  1  0
 14 13  2  0
  2 15  1  0
  5 16  1  0
  7 17  1  0
  7 18  1  0
  8 19  1  0
  8 20  1  0
 10 21  1  0
 13 22  1  0
 14 23  1  0
M  ISO  7  15  14  16  14  19   8  20   8  21   9  22  14  23  14
M  END
>  <minimizedAffinity>  (1) 
-3.62865949

>  <minimizedRMSD>  (1) 
1.20576155

$$$$
