
     RDKit          3D

 28 29  0  0  1  0  0  0  0  0999 V2000
   39.8400   22.3500   36.5540 C   0  0  0  0  0  0  0  0  0  0  0  0
   39.5980   23.1580   37.6470 C   0  0  0  0  0  0  0  0  0  0  0  0
   38.2910   23.5690   37.8640 C   0  0  0  0  0  0  0  0  0  0  0  0
   37.3080   23.1490   36.9840 N   0  0  0  0  0  0  0  0  0  0  0  0
   37.6100   22.3560   35.9300 C   0  0  0  0  0  0  0  0  0  0  0  0
   38.8620   21.9610   35.7190 N   0  0  0  0  0  0  0  0  0  0  0  0
   37.8170   24.3910   38.9090 N   0  0  0  0  0  0  0  0  0  0  0  0
   41.2540   21.9290   36.3520 C   0  0  0  0  0  0  0  0  0  0  0  0
   42.1320   22.7930   36.9920 O   0  0  0  0  0  0  0  0  0  0  0  0
   42.3640   24.5270   35.4170 N   0  0  0  0  0  0  0  0  0  0  0  0
   43.4550   25.3410   34.9200 C   0  0  0  0  0  0  0  0  0  0  0  0
   44.7020   24.9220   35.6620 C   0  0  0  0  0  0  0  0  0  0  0  0
   44.0970   24.1970   36.8730 C   0  0  0  0  0  0  0  0  0  0  0  0
   42.9980   23.4620   36.1750 C   0  0  1  0  0  0  0  0  0  0  0  0
   40.4116   23.4645   38.3209 H   0  0  0  0  0  0  0  0  0  0  0  0
   36.8135   22.0356   35.2423 H   0  0  0  0  0  0  0  0  0  0  0  0
   36.8162   24.6283   38.9640 H   0  0  0  0  0  0  0  0  0  0  0  0
   38.4719   24.7535   39.6165 H   0  0  0  0  0  0  0  0  0  0  0  0
   41.3880   20.9156   36.7583 H   0  0  0  0  0  0  0  0  0  0  0  0
   41.4719   21.9470   35.2739 H   0  0  0  0  0  0  0  0  0  0  0  0
   41.8181   24.1381   34.6349 H   0  0  0  0  0  0  0  0  0  0  0  0
   43.5861   25.1762   33.8403 H   0  0  0  0  0  0  0  0  0  0  0  0
   43.2476   26.4095   35.0791 H   0  0  0  0  0  0  0  0  0  0  0  0
   45.3238   24.2462   35.0565 H   0  0  0  0  0  0  0  0  0  0  0  0
   45.3741   25.7531   35.9220 H   0  0  0  0  0  0  0  0  0  0  0  0
   44.8162   23.5124   37.3464 H   0  0  0  0  0  0  0  0  0  0  0  0
   43.7817   24.8441   37.7048 H   0  0  0  0  0  0  0  0  0  0  0  0
   43.3770   22.6317   35.5610 H   0  0  0  0  0  0  0  0  0  0  0  0
  1  2  2  0
  2  3  1  0
  3  7  1  0
  4  3  2  0
  5  4  1  0
  6  5  2  0
  6  1  1  0
  8  1  1  0
  8  9  1  0
 10 14  1  0
 11 10  1  0
 11 12  1  0
 12 13  1  0
 14 13  1  0
 14  9  1  0
  2 15  1  0
  5 16  1  0
  7 17  1  0
  7 18  1  0
  8 19  1  0
  8 20  1  0
 10 21  1  0
 11 22  1  0
 11 23  1  0
 12 24  1  0
 12 25  1  0
 13 26  1  0
 13 27  1  0
 14 28  1  6
M  ISO  8  15  14  16  14  19   8  20   8  21   5  22  13  23  13  24  13
M  ISO  4  25  13  26  13  27  13  28  13
M  END
>  <minimizedAffinity>  (1) 
-3.65825272

>  <minimizedRMSD>  (1) 
1.11084235

$$$$
