
     RDKit          3D

 30 32  0  0  1  0  0  0  0  0999 V2000
   41.2510   21.8670   35.9770 C   0  0  0  0  0  0  0  0  0  0  0  0
   39.8110   22.2880   36.1890 C   0  0  0  0  0  0  0  0  0  0  0  0
   39.7120   23.0710   37.3320 C   0  0  0  0  0  0  0  0  0  0  0  0
   38.4190   23.4740   37.7030 C   0  0  0  0  0  0  0  0  0  0  0  0
   37.3640   23.0690   36.9200 N   0  0  0  0  0  0  0  0  0  0  0  0
   37.5400   22.3040   35.8130 C   0  0  0  0  0  0  0  0  0  0  0  0
   38.7700   21.9220   35.4650 N   0  0  0  0  0  0  0  0  0  0  0  0
   38.0740   24.2650   38.8120 N   0  0  0  0  0  0  0  0  0  0  0  0
   42.0900   22.1820   36.9680 O   0  0  0  0  0  0  0  0  0  0  0  0
   43.3000   22.7230   36.5620 C   0  0  1  0  0  0  0  0  0  0  0  0
   43.4750   23.5120   35.3320 C   0  0  0  0  0  0  0  0  0  0  0  0
   43.3550   24.2330   36.6410 C   0  0  2  0  0  0  0  0  0  0  0  0
   44.6050   24.8410   37.1680 C   0  0  0  0  0  0  0  0  0  0  0  0
   44.8870   25.4040   38.3430 C   0  0  0  0  0  0  0  0  0  0  0  0
   46.1080   25.9070   38.6330 C   0  0  0  0  0  0  0  0  0  0  0  0
   47.0780   25.7730   37.5450 C   0  0  0  0  0  0  0  0  0  0  0  0
   46.0590   24.9100   36.2030 S   0  0  0  0  0  0  0  0  0  0  0  0
   41.2704   20.7746   35.8497 H   0  0  0  0  0  0  0  0  0  0  0  0
   41.6026   22.4201   35.0936 H   0  0  0  0  0  0  0  0  0  0  0  0
   40.5988   23.3599   37.9152 H   0  0  0  0  0  0  0  0  0  0  0  0
   36.6739   22.0008   35.2064 H   0  0  0  0  0  0  0  0  0  0  0  0
   37.0872   24.5009   38.9893 H   0  0  0  0  0  0  0  0  0  0  0  0
   38.8079   24.6089   39.4476 H   0  0  0  0  0  0  0  0  0  0  0  0
   43.8495   21.8472   36.9377 H   0  0  0  0  0  0  0  0  0  0  0  0
   44.4399   23.4945   34.8041 H   0  0  0  0  0  0  0  0  0  0  0  0
   42.9442   23.5676   34.3702 H   0  0  0  0  0  0  0  0  0  0  0  0
   42.7067   25.0171   37.0593 H   0  0  0  0  0  0  0  0  0  0  0  0
   44.0963   25.4615   39.1055 H   0  0  0  0  0  0  0  0  0  0  0  0
   46.3504   26.3744   39.5988 H   0  0  0  0  0  0  0  0  0  0  0  0
   48.1302   26.0922   37.5148 H   0  0  0  0  0  0  0  0  0  0  0  0
  1  2  1  0
  1  9  1  0
  2  3  2  0
  3  4  1  0
  4  8  1  0
  5  4  2  0
  6  5  1  0
  7  6  2  0
  7  2  1  0
 10 12  1  0
 10  9  1  0
 11 10  1  0
 11 12  1  0
 12 13  1  0
 13 14  2  0
 14 15  1  0
 16 15  2  0
 17 13  1  0
 17 16  1  0
  1 18  1  0
  1 19  1  0
  3 20  1  0
  6 21  1  0
  8 22  1  0
  8 23  1  0
 10 24  1  1
 11 25  1  0
 11 26  1  0
 12 27  1  6
 14 28  1  0
 15 29  1  0
 16 30  1  0
M  ISO  8  18   8  19   8  20  14  21  14  24  13  25  13  26  13  27  13
M  ISO  3  28  14  29  14  30  14
M  END
>  <minimizedAffinity>  (1) 
-4.41917753

>  <minimizedRMSD>  (1) 
2.85648131

$$$$
