
     RDKit          3D

 29 31  0  0  1  0  0  0  0  0999 V2000
   42.1100   21.8030   35.9750 C   0  0  0  0  0  0  0  0  0  0  0  0
   40.7190   22.2130   36.2400 C   0  0  0  0  0  0  0  0  0  0  0  0
   40.5360   22.6420   37.5480 C   0  0  0  0  0  0  0  0  0  0  0  0
   39.2460   23.0310   37.9420 C   0  0  0  0  0  0  0  0  0  0  0  0
   38.2390   22.9550   36.9850 N   0  0  0  0  0  0  0  0  0  0  0  0
   38.4850   22.5320   35.7400 C   0  0  0  0  0  0  0  0  0  0  0  0
   39.7320   22.1630   35.3770 N   0  0  0  0  0  0  0  0  0  0  0  0
   38.8630   23.5070   39.1990 N   0  0  0  0  0  0  0  0  0  0  0  0
   43.0550   22.3340   36.7780 O   0  0  0  0  0  0  0  0  0  0  0  0
   43.8300   23.2970   36.1400 C   0  0  1  0  0  0  0  0  0  0  0  0
   43.2930   24.6110   35.7500 C   0  0  0  0  0  0  0  0  0  0  0  0
   44.1350   24.5080   36.9850 C   0  0  2  0  0  0  0  0  0  0  0  0
   45.4730   25.1730   36.8510 C   0  0  0  0  0  0  0  0  0  0  0  0
   46.5350   24.9610   37.9650 C   0  0  0  0  0  0  0  0  0  0  0  0
   47.8920   25.9250   37.3570 S   0  0  0  0  0  0  0  0  0  0  0  0
   46.9580   26.4690   35.7920 C   0  0  0  0  0  0  0  0  0  0  0  0
   45.8810   25.9610   35.8510 N   0  0  0  0  0  0  0  0  0  0  0  0
   42.1614   20.7088   36.0758 H   0  0  0  0  0  0  0  0  0  0  0  0
   42.3384   22.1787   34.9667 H   0  0  0  0  0  0  0  0  0  0  0  0
   41.3779   22.6760   38.2552 H   0  0  0  0  0  0  0  0  0  0  0  0
   37.6660   22.4845   35.0072 H   0  0  0  0  0  0  0  0  0  0  0  0
   37.8812   23.7639   39.3752 H   0  0  0  0  0  0  0  0  0  0  0  0
   39.5625   23.6009   39.9492 H   0  0  0  0  0  0  0  0  0  0  0  0
   44.3771   22.5341   35.5667 H   0  0  0  0  0  0  0  0  0  0  0  0
   43.6883   25.1212   34.8592 H   0  0  0  0  0  0  0  0  0  0  0  0
   42.2875   25.0000   35.5316 H   0  0  0  0  0  0  0  0  0  0  0  0
   44.0419   24.7204   38.0603 H   0  0  0  0  0  0  0  0  0  0  0  0
   46.4634   24.3681   38.8888 H   0  0  0  0  0  0  0  0  0  0  0  0
   47.3362   27.1222   34.9918 H   0  0  0  0  0  0  0  0  0  0  0  0
  1  2  1  0
  1  9  1  0
  2  3  2  0
  3  4  1  0
  4  8  1  0
  5  4  2  0
  6  5  1  0
  7  6  2  0
  7  2  1  0
 10  9  1  0
 10 12  1  0
 11 10  1  0
 11 12  1  0
 13 12  1  0
 13 14  2  0
 15 14  1  0
 16 17  2  0
 16 15  1  0
 17 13  1  0
  1 18  1  0
  1 19  1  0
  3 20  1  0
  6 21  1  0
  8 22  1  0
  8 23  1  0
 10 24  1  6
 11 25  1  0
 11 26  1  0
 12 27  1  1
 14 28  1  0
 16 29  1  0
M  ISO  8  18   8  19   8  20  14  21  14  24  13  25  13  26  13  27  13
M  ISO  2  28  14  29  14
M  END
>  <minimizedAffinity>  (1) 
-4.21482563

>  <minimizedRMSD>  (1) 
2.68215823

$$$$
