
     RDKit          3D

 34 36  0  0  1  0  0  0  0  0999 V2000
   43.4330   23.0870   36.4660 C   0  0  1  0  0  0  0  0  0  0  0  0
   44.1110   23.4050   35.1970 C   0  0  0  0  0  0  0  0  0  0  0  0
   44.2500   24.3550   36.3420 C   0  0  2  0  0  0  0  0  0  0  0  0
   45.4640   24.4000   37.1100 N   0  0  0  0  0  0  0  0  0  0  0  0
   46.4440   23.6360   36.5490 C   0  0  0  0  0  0  0  0  0  0  0  0
   47.7010   23.5540   37.1560 C   0  0  0  0  0  0  0  0  0  0  0  0
   47.8650   24.2810   38.3230 C   0  0  0  0  0  0  0  0  0  0  0  0
   49.1330   24.2180   38.9630 N   0  0  0  0  0  0  0  0  0  0  0  0
   46.8920   25.0300   38.8660 N   0  0  0  0  0  0  0  0  0  0  0  0
   45.6960   25.0820   38.2520 C   0  0  0  0  0  0  0  0  0  0  0  0
   44.6630   25.7310   38.6110 O   0  0  0  0  0  0  0  0  0  0  0  0
   42.0670   23.3140   36.6320 O   0  0  0  0  0  0  0  0  0  0  0  0
   41.2980   22.2580   36.3110 C   0  0  0  0  0  0  0  0  0  0  0  0
   39.8100   22.5040   36.4430 C   0  0  0  0  0  0  0  0  0  0  0  0
   39.5400   23.2770   37.5600 C   0  0  0  0  0  0  0  0  0  0  0  0
   38.1820   23.4960   37.8260 C   0  0  0  0  0  0  0  0  0  0  0  0
   37.2210   22.9430   36.9800 N   0  0  0  0  0  0  0  0  0  0  0  0
   37.5930   22.2000   35.9050 C   0  0  0  0  0  0  0  0  0  0  0  0
   38.8770   21.9830   35.6410 N   0  0  0  0  0  0  0  0  0  0  0  0
   37.6520   24.2350   38.8980 N   0  0  0  0  0  0  0  0  0  0  0  0
   43.4177   22.1764   37.0829 H   0  0  0  0  0  0  0  0  0  0  0  0
   43.5167   23.6929   34.3173 H   0  0  0  0  0  0  0  0  0  0  0  0
   44.8216   22.8712   34.5488 H   0  0  0  0  0  0  0  0  0  0  0  0
   44.0910   25.4376   36.4546 H   0  0  0  0  0  0  0  0  0  0  0  0
   46.2457   23.0839   35.6185 H   0  0  0  0  0  0  0  0  0  0  0  0
   48.5134   22.9465   36.7306 H   0  0  0  0  0  0  0  0  0  0  0  0
   49.2973   24.7437   39.8333 H   0  0  0  0  0  0  0  0  0  0  0  0
   49.8873   23.6466   38.5563 H   0  0  0  0  0  0  0  0  0  0  0  0
   41.5684   21.4219   36.9727 H   0  0  0  0  0  0  0  0  0  0  0  0
   41.4874   22.0434   35.2489 H   0  0  0  0  0  0  0  0  0  0  0  0
   40.3373   23.6907   38.1949 H   0  0  0  0  0  0  0  0  0  0  0  0
   36.8226   21.7734   35.2459 H   0  0  0  0  0  0  0  0  0  0  0  0
   36.6319   24.3340   39.0008 H   0  0  0  0  0  0  0  0  0  0  0  0
   38.2837   24.6775   39.5807 H   0  0  0  0  0  0  0  0  0  0  0  0
  1 12  1  0
  2  3  1  0
  2  1  1  0
  3  1  1  0
  3  4  1  0
  4 10  1  0
  5  4  1  0
  5  6  2  0
  6  7  1  0
  7  9  2  0
  7  8  1  0
 10 11  2  0
 10  9  1  0
 13 14  1  0
 13 12  1  0
 14 15  2  0
 15 16  1  0
 16 20  1  0
 17 16  2  0
 18 17  1  0
 19 18  2  0
 19 14  1  0
  1 21  1  1
  2 22  1  0
  2 23  1  0
  3 24  1  6
  5 25  1  0
  6 26  1  0
  8 27  1  0
  8 28  1  0
 13 29  1  0
 13 30  1  0
 15 31  1  0
 18 32  1  0
 20 33  1  0
 20 34  1  0
M  ISO  8  21  13  22  13  23  13  24  13  25  14  26  14  29   8  30   8
M  ISO  2  31  14  32  14
M  END
>  <minimizedAffinity>  (1) 
-4.57377863

>  <minimizedRMSD>  (1) 
3.76392508

$$$$
