
     RDKit          3D

 30 32  0  0  1  0  0  0  0  0999 V2000
   41.2320   21.9230   36.0530 C   0  0  0  0  0  0  0  0  0  0  0  0
   39.7810   22.3110   36.2500 C   0  0  0  0  0  0  0  0  0  0  0  0
   39.6630   23.1070   37.3820 C   0  0  0  0  0  0  0  0  0  0  0  0
   38.3620   23.4980   37.7530 C   0  0  0  0  0  0  0  0  0  0  0  0
   37.3050   23.0590   36.9590 N   0  0  0  0  0  0  0  0  0  0  0  0
   37.5170   22.2850   35.8720 C   0  0  0  0  0  0  0  0  0  0  0  0
   38.7470   21.9210   35.5290 N   0  0  0  0  0  0  0  0  0  0  0  0
   37.9990   24.3010   38.8400 N   0  0  0  0  0  0  0  0  0  0  0  0
   42.0730   22.3430   37.0000 O   0  0  0  0  0  0  0  0  0  0  0  0
   43.3050   22.7900   36.5410 C   0  0  1  0  0  0  0  0  0  0  0  0
   43.4710   23.6170   35.3370 C   0  0  0  0  0  0  0  0  0  0  0  0
   43.4850   24.2920   36.6740 C   0  0  2  0  0  0  0  0  0  0  0  0
   44.7900   24.7010   37.2570 C   0  0  0  0  0  0  0  0  0  0  0  0
   44.9540   25.5610   38.3450 C   0  0  0  0  0  0  0  0  0  0  0  0
   46.3330   25.6500   38.5330 C   0  0  0  0  0  0  0  0  0  0  0  0
   46.9210   24.8440   37.5540 C   0  0  0  0  0  0  0  0  0  0  0  0
   45.9690   24.3220   36.8470 O   0  0  0  0  0  0  0  0  0  0  0  0
   41.2868   20.8251   36.0139 H   0  0  0  0  0  0  0  0  0  0  0  0
   41.5529   22.4166   35.1238 H   0  0  0  0  0  0  0  0  0  0  0  0
   40.5447   23.4176   37.9618 H   0  0  0  0  0  0  0  0  0  0  0  0
   36.6618   21.9530   35.2650 H   0  0  0  0  0  0  0  0  0  0  0  0
   37.0070   24.5196   39.0102 H   0  0  0  0  0  0  0  0  0  0  0  0
   38.7238   24.6734   39.4699 H   0  0  0  0  0  0  0  0  0  0  0  0
   43.8024   21.8572   36.8451 H   0  0  0  0  0  0  0  0  0  0  0  0
   44.3993   23.5476   34.7510 H   0  0  0  0  0  0  0  0  0  0  0  0
   42.8906   23.7542   34.4127 H   0  0  0  0  0  0  0  0  0  0  0  0
   42.9368   25.1433   37.1039 H   0  0  0  0  0  0  0  0  0  0  0  0
   44.1659   26.0603   38.9277 H   0  0  0  0  0  0  0  0  0  0  0  0
   46.8555   26.2390   39.3011 H   0  0  0  0  0  0  0  0  0  0  0  0
   47.9994   24.6819   37.4096 H   0  0  0  0  0  0  0  0  0  0  0  0
  1  2  1  0
  1  9  1  0
  2  3  2  0
  3  4  1  0
  4  8  1  0
  5  4  2  0
  6  5  1  0
  7  6  2  0
  7  2  1  0
 10 12  1  0
 10  9  1  0
 11 10  1  0
 11 12  1  0
 12 13  1  0
 13 14  2  0
 14 15  1  0
 16 15  2  0
 17 13  1  0
 17 16  1  0
  1 18  1  0
  1 19  1  0
  3 20  1  0
  6 21  1  0
  8 22  1  0
  8 23  1  0
 10 24  1  1
 11 25  1  0
 11 26  1  0
 12 27  1  6
 14 28  1  0
 15 29  1  0
 16 30  1  0
M  ISO  8  18   8  19   8  20  14  21  14  24  13  25  13  26  13  27  13
M  ISO  3  28  14  29  14  30  14
M  END
>  <minimizedAffinity>  (1) 
-4.49855328

>  <minimizedRMSD>  (1) 
2.83123875

$$$$
