
     RDKit          3D

 36 39  0  0  1  0  0  0  0  0999 V2000
   43.8580   24.5400   36.6340 C   0  0  1  0  0  0  0  0  0  0  0  0
   44.6310   25.3500   37.5860 C   0  0  0  0  0  0  0  0  0  0  0  0
   45.2830   24.9120   36.3100 C   0  0  1  0  0  0  0  0  0  0  0  0
   46.3220   23.9160   36.3140 N   0  0  0  0  0  0  0  0  0  0  0  0
   46.4980   22.9210   35.4020 C   0  0  0  0  0  0  0  0  0  0  0  0
   47.5620   22.1790   35.7110 N   0  0  0  0  0  0  0  0  0  0  0  0
   48.1050   22.6730   36.8310 C   0  0  0  0  0  0  0  0  0  0  0  0
   49.2090   22.2770   37.5630 C   0  0  0  0  0  0  0  0  0  0  0  0
   49.5470   22.9550   38.6690 N   0  0  0  0  0  0  0  0  0  0  0  0
   48.7660   24.0190   39.0140 C   0  0  0  0  0  0  0  0  0  0  0  0
   47.6860   24.4130   38.3040 N   0  0  0  0  0  0  0  0  0  0  0  0
   47.3190   23.7650   37.2020 C   0  0  0  0  0  0  0  0  0  0  0  0
   49.9530   21.1420   37.1000 N   0  0  0  0  0  0  0  0  0  0  0  0
   43.6520   23.1720   36.7820 O   0  0  0  0  0  0  0  0  0  0  0  0
   42.7000   22.6970   35.9480 C   0  0  0  0  0  0  0  0  0  0  0  0
   41.3250   23.1660   36.1850 C   0  0  0  0  0  0  0  0  0  0  0  0
   40.8030   22.6720   37.3710 C   0  0  0  0  0  0  0  0  0  0  0  0
   39.4920   23.0030   37.7190 C   0  0  0  0  0  0  0  0  0  0  0  0
   38.7840   23.8180   36.8380 N   0  0  0  0  0  0  0  0  0  0  0  0
   39.3580   24.2670   35.6920 C   0  0  0  0  0  0  0  0  0  0  0  0
   40.6140   23.9360   35.3830 N   0  0  0  0  0  0  0  0  0  0  0  0
   38.7850   22.6210   38.8640 N   0  0  0  0  0  0  0  0  0  0  0  0
   42.8479   24.6816   36.2222 H   0  0  0  0  0  0  0  0  0  0  0  0
   44.3771   26.4099   37.7348 H   0  0  0  0  0  0  0  0  0  0  0  0
   44.8825   25.2561   38.6527 H   0  0  0  0  0  0  0  0  0  0  0  0
   45.7957   25.4155   35.4772 H   0  0  0  0  0  0  0  0  0  0  0  0
   45.8506   22.7520   34.5289 H   0  0  0  0  0  0  0  0  0  0  0  0
   49.0296   24.5866   39.9186 H   0  0  0  0  0  0  0  0  0  0  0  0
   50.7807   20.8209   37.6222 H   0  0  0  0  0  0  0  0  0  0  0  0
   49.6597   20.6478   36.2452 H   0  0  0  0  0  0  0  0  0  0  0  0
   42.6982   21.6003   36.0331 H   0  0  0  0  0  0  0  0  0  0  0  0
   42.9696   23.0779   34.9519 H   0  0  0  0  0  0  0  0  0  0  0  0
   41.4111   22.0307   38.0260 H   0  0  0  0  0  0  0  0  0  0  0  0
   38.7818   24.9105   35.0109 H   0  0  0  0  0  0  0  0  0  0  0  0
   37.8143   22.9377   38.9994 H   0  0  0  0  0  0  0  0  0  0  0  0
   39.2351   22.0231   39.5716 H   0  0  0  0  0  0  0  0  0  0  0  0
  1 14  1  0
  1  2  1  0
  3  4  1  0
  3  1  1  0
  3  2  1  0
  4 12  1  0
  5  6  2  0
  5  4  1  0
  6  7  1  0
  7 12  2  0
  7  8  1  0
  8  9  2  0
  9 10  1  0
 11 10  2  0
 12 11  1  0
 13  8  1  0
 15 16  1  0
 15 14  1  0
 16 17  2  0
 17 18  1  0
 18 22  1  0
 19 18  2  0
 20 19  1  0
 21 20  2  0
 21 16  1  0
  1 23  1  6
  2 24  1  0
  2 25  1  0
  3 26  1  6
  5 27  1  0
 10 28  1  0
 13 29  1  0
 13 30  1  0
 15 31  1  0
 15 32  1  0
 17 33  1  0
 20 34  1  0
 22 35  1  0
 22 36  1  0
M  ISO  8  23  13  24  13  25  13  26  13  27  14  28  14  31   8  32   8
M  ISO  2  33  14  34  14
M  END
>  <minimizedAffinity>  (1) 
-4.49724674

>  <minimizedRMSD>  (1) 
2.39450026

$$$$
