
     RDKit          3D

 31 33  0  0  1  0  0  0  0  0999 V2000
   43.3970   22.8260   36.6700 O   0  0  0  0  0  0  0  0  0  0  0  0
   43.4320   23.6030   35.5170 C   0  0  1  0  0  0  0  0  0  0  0  0
   43.0100   25.0190   35.5180 C   0  0  0  0  0  0  0  0  0  0  0  0
   44.4670   24.7000   35.5410 C   0  0  1  0  0  0  0  0  0  0  0  0
   45.2400   24.8090   36.7960 C   0  0  0  0  0  0  0  0  0  0  0  0
   44.7340   25.4960   37.9060 C   0  0  0  0  0  0  0  0  0  0  0  0
   45.4940   25.5690   39.0550 C   0  0  0  0  0  0  0  0  0  0  0  0
   46.7250   25.0030   39.1680 N   0  0  0  0  0  0  0  0  0  0  0  0
   47.1850   24.3460   38.0740 C   0  0  0  0  0  0  0  0  0  0  0  0
   46.4580   24.2540   36.9210 N   0  0  0  0  0  0  0  0  0  0  0  0
   42.5420   21.7930   36.5820 C   0  0  0  0  0  0  0  0  0  0  0  0
   41.1070   22.1350   36.4790 C   0  0  0  0  0  0  0  0  0  0  0  0
   40.6400   22.6590   37.6780 C   0  0  0  0  0  0  0  0  0  0  0  0
   39.2720   22.9920   37.7590 C   0  0  0  0  0  0  0  0  0  0  0  0
   38.4930   22.7740   36.6390 N   0  0  0  0  0  0  0  0  0  0  0  0
   39.0130   22.2600   35.4960 C   0  0  0  0  0  0  0  0  0  0  0  0
   40.3270   21.9450   35.4360 N   0  0  0  0  0  0  0  0  0  0  0  0
   38.5790   23.5270   38.8450 N   0  0  0  0  0  0  0  0  0  0  0  0
   43.1488   22.7528   34.8791 H   0  0  0  0  0  0  0  0  0  0  0  0
   42.5599   25.4563   34.6146 H   0  0  0  0  0  0  0  0  0  0  0  0
   42.3428   25.6248   36.1487 H   0  0  0  0  0  0  0  0  0  0  0  0
   45.3199   25.0290   34.9291 H   0  0  0  0  0  0  0  0  0  0  0  0
   43.7430   25.9715   37.8625 H   0  0  0  0  0  0  0  0  0  0  0  0
   45.0848   26.1107   39.9205 H   0  0  0  0  0  0  0  0  0  0  0  0
   48.1765   23.8715   38.1167 H   0  0  0  0  0  0  0  0  0  0  0  0
   42.8121   21.2099   35.6892 H   0  0  0  0  0  0  0  0  0  0  0  0
   42.6450   21.2464   37.5310 H   0  0  0  0  0  0  0  0  0  0  0  0
   41.3139   22.8089   38.5344 H   0  0  0  0  0  0  0  0  0  0  0  0
   38.3673   22.0998   34.6200 H   0  0  0  0  0  0  0  0  0  0  0  0
   37.5711   23.7239   38.7663 H   0  0  0  0  0  0  0  0  0  0  0  0
   39.0752   23.7252   39.7255 H   0  0  0  0  0  0  0  0  0  0  0  0
  2  3  1  0
  2  4  1  0
  2  1  1  0
  3  4  1  0
  4  5  1  0
  5 10  1  0
  5  6  2  0
  6  7  1  0
  7  8  2  0
  9  8  1  0
 10  9  2  0
 11  1  1  0
 12 11  1  0
 12 13  2  0
 13 14  1  0
 14 18  1  0
 15 14  2  0
 16 15  1  0
 17 16  2  0
 17 12  1  0
  2 19  1  6
  3 20  1  0
  3 21  1  0
  4 22  1  6
  6 23  1  0
  7 24  1  0
  9 25  1  0
 11 26  1  0
 11 27  1  0
 13 28  1  0
 16 29  1  0
 18 30  1  0
 18 31  1  0
M  ISO  8  19  13  20  13  21  13  22  13  23  14  24  14  25  14  26   8
M  ISO  3  27   8  28  14  29  14
M  END
>  <minimizedAffinity>  (1) 
-4.45022535

>  <minimizedRMSD>  (1) 
2.82144332

$$$$
