
     RDKit          3D

 30 32  0  0  1  0  0  0  0  0999 V2000
   42.2660   22.4060   37.1240 O   0  0  0  0  0  0  0  0  0  0  0  0
   43.3590   22.9320   36.4530 C   0  0  1  0  0  0  0  0  0  0  0  0
   43.2790   23.9860   35.4250 C   0  0  0  0  0  0  0  0  0  0  0  0
   43.6780   24.3610   36.8190 C   0  0  2  0  0  0  0  0  0  0  0  0
   45.0620   24.8020   37.0430 C   0  0  0  0  0  0  0  0  0  0  0  0
   45.6540   25.1700   38.2320 C   0  0  0  0  0  0  0  0  0  0  0  0
   46.9610   25.5050   37.9510 C   0  0  0  0  0  0  0  0  0  0  0  0
   47.1130   25.3290   36.6170 N   0  0  0  0  0  0  0  0  0  0  0  0
   45.9810   24.9080   36.0650 N   0  0  0  0  0  0  0  0  0  0  0  0
   41.3860   21.7990   36.3140 C   0  0  0  0  0  0  0  0  0  0  0  0
   39.9810   22.2420   36.4120 C   0  0  0  0  0  0  0  0  0  0  0  0
   39.7800   23.0120   37.5510 C   0  0  0  0  0  0  0  0  0  0  0  0
   38.4900   23.4890   37.8330 C   0  0  0  0  0  0  0  0  0  0  0  0
   37.4840   23.1490   36.9330 N   0  0  0  0  0  0  0  0  0  0  0  0
   37.7420   22.3980   35.8440 C   0  0  0  0  0  0  0  0  0  0  0  0
   38.9890   21.9560   35.6000 N   0  0  0  0  0  0  0  0  0  0  0  0
   38.0900   24.2840   38.9090 N   0  0  0  0  0  0  0  0  0  0  0  0
   43.8448   21.9454   36.4304 H   0  0  0  0  0  0  0  0  0  0  0  0
   44.0231   24.0183   34.6155 H   0  0  0  0  0  0  0  0  0  0  0  0
   42.4994   24.3261   34.7275 H   0  0  0  0  0  0  0  0  0  0  0  0
   43.3227   25.0482   37.6010 H   0  0  0  0  0  0  0  0  0  0  0  0
   45.1729   25.1922   39.2210 H   0  0  0  0  0  0  0  0  0  0  0  0
   47.7251   25.8459   38.6650 H   0  0  0  0  0  0  0  0  0  0  0  0
   47.9879   25.4986   36.1006 H   0  0  0  0  0  0  0  0  0  0  0  0
   41.4128   20.7226   36.5393 H   0  0  0  0  0  0  0  0  0  0  0  0
   41.7021   22.0623   35.2938 H   0  0  0  0  0  0  0  0  0  0  0  0
   40.6198   23.2446   38.2223 H   0  0  0  0  0  0  0  0  0  0  0  0
   36.9272   22.1447   35.1498 H   0  0  0  0  0  0  0  0  0  0  0  0
   37.1042   24.5678   39.0012 H   0  0  0  0  0  0  0  0  0  0  0  0
   38.7808   24.5866   39.6105 H   0  0  0  0  0  0  0  0  0  0  0  0
  2  4  1  0
  2  1  1  0
  3  2  1  0
  3  4  1  0
  4  5  1  0
  5  6  1  0
  7  6  2  0
  8  7  1  0
  9  8  1  0
  9  5  2  0
 10 11  1  0
 10  1  1  0
 11 12  2  0
 12 13  1  0
 13 17  1  0
 14 13  2  0
 15 14  1  0
 16 15  2  0
 16 11  1  0
  2 18  1  6
  3 19  1  0
  3 20  1  0
  4 21  1  1
  6 22  1  0
  7 23  1  0
  8 24  1  0
 10 25  1  0
 10 26  1  0
 12 27  1  0
 15 28  1  0
 17 29  1  0
 17 30  1  0
M  ISO  8  18  13  19  13  20  13  21  13  22  14  23  14  24   9  25   8
M  ISO  3  26   8  27  14  28  14
M  END
>  <minimizedAffinity>  (1) 
-4.20522404

>  <minimizedRMSD>  (1) 
2.45746589

$$$$
