
     RDKit          3D

 26 27  0  0  1  0  0  0  0  0999 V2000
   40.2050   24.4890   34.8790 C   0  0  0  0  0  0  0  0  0  0  0  0
   41.5610   24.3190   35.4340 C   0  0  0  0  0  0  0  0  0  0  0  0
   42.3760   25.4130   35.1690 C   0  0  0  0  0  0  0  0  0  0  0  0
   43.7050   25.3610   35.6190 C   0  0  0  0  0  0  0  0  0  0  0  0
   44.1060   24.2340   36.2880 N   0  0  0  0  0  0  0  0  0  0  0  0
   43.2660   23.1950   36.5190 C   0  0  0  0  0  0  0  0  0  0  0  0
   41.9930   23.2570   36.0820 N   0  0  0  0  0  0  0  0  0  0  0  0
   44.6600   26.3670   35.4540 N   0  0  0  0  0  0  0  0  0  0  0  0
   39.2080   24.6510   35.7820 O   0  0  0  0  0  0  0  0  0  0  0  0
   38.1710   23.7390   35.5860 C   0  0  1  0  0  0  0  0  0  0  0  0
   38.3370   22.3030   35.8810 C   0  0  0  0  0  0  0  0  0  0  0  0
   37.6090   23.1630   36.8590 C   0  0  1  0  0  0  0  0  0  0  0  0
   38.2040   23.5560   38.1660 C   0  0  0  0  0  0  0  0  0  0  0  0
   39.5230   23.1000   38.2080 F   0  0  0  0  0  0  0  0  0  0  0  0
   37.5490   22.7780   39.1320 F   0  0  0  0  0  0  0  0  0  0  0  0
   38.0820   24.8700   38.5050 F   0  0  0  0  0  0  0  0  0  0  0  0
   40.2168   25.3759   34.2284 H   0  0  0  0  0  0  0  0  0  0  0  0
   39.9797   23.5483   34.3552 H   0  0  0  0  0  0  0  0  0  0  0  0
   41.9932   26.2894   34.6255 H   0  0  0  0  0  0  0  0  0  0  0  0
   43.6220   22.3061   37.0604 H   0  0  0  0  0  0  0  0  0  0  0  0
   45.6138   26.2368   35.8204 H   0  0  0  0  0  0  0  0  0  0  0  0
   44.4104   27.2390   34.9659 H   0  0  0  0  0  0  0  0  0  0  0  0
   37.8073   24.2678   34.6927 H   0  0  0  0  0  0  0  0  0  0  0  0
   37.7847   21.5559   35.2920 H   0  0  0  0  0  0  0  0  0  0  0  0
   39.1989   21.6224   35.9435 H   0  0  0  0  0  0  0  0  0  0  0  0
   36.6240   23.1083   37.3457 H   0  0  0  0  0  0  0  0  0  0  0  0
  1  2  1  0
  1  9  1  0
  2  7  1  0
  3  2  2  0
  3  4  1  0
  4  5  2  0
  5  6  1  0
  7  6  2  0
  8  4  1  0
 10  9  1  0
 10 11  1  0
 10 12  1  0
 11 12  1  0
 12 13  1  0
 13 14  1  0
 13 16  1  0
 13 15  1  0
  1 17  1  0
  1 18  1  0
  3 19  1  0
  6 20  1  0
  8 21  1  0
  8 22  1  0
 10 23  1  6
 11 24  1  0
 11 25  1  0
 12 26  1  1
M  ISO  8  17   8  18   8  19  14  20  14  23  13  24  13  25  13  26  13
M  END
>  <minimizedAffinity>  (1) 
-4.19057608

>  <minimizedRMSD>  (1) 
5.94751835

$$$$
