
     RDKit          3D

 30 32  0  0  1  0  0  0  0  0999 V2000
   42.3180   21.9920   35.9050 C   0  0  0  0  0  0  0  0  0  0  0  0
   40.9010   22.3090   36.1460 C   0  0  0  0  0  0  0  0  0  0  0  0
   40.6650   22.6840   37.4580 C   0  0  0  0  0  0  0  0  0  0  0  0
   39.3590   22.9800   37.8550 C   0  0  0  0  0  0  0  0  0  0  0  0
   38.3640   22.8760   36.8860 N   0  0  0  0  0  0  0  0  0  0  0  0
   38.6600   22.5030   35.6150 C   0  0  0  0  0  0  0  0  0  0  0  0
   39.9290   22.2250   35.2660 N   0  0  0  0  0  0  0  0  0  0  0  0
   38.9200   23.3890   39.1150 N   0  0  0  0  0  0  0  0  0  0  0  0
   43.2090   22.5220   36.7640 O   0  0  0  0  0  0  0  0  0  0  0  0
   44.0150   23.4960   36.1780 C   0  0  1  0  0  0  0  0  0  0  0  0
   43.5160   24.8060   35.7400 C   0  0  0  0  0  0  0  0  0  0  0  0
   44.2260   24.7120   37.0540 C   0  0  2  0  0  0  0  0  0  0  0  0
   45.6050   25.1440   37.1520 N   0  0  0  0  0  0  0  0  0  0  0  0
   46.1800   25.9730   36.2450 C   0  0  0  0  0  0  0  0  0  0  0  0
   47.4910   26.2030   36.6040 C   0  0  0  0  0  0  0  0  0  0  0  0
   47.6870   25.5000   37.7360 N   0  0  0  0  0  0  0  0  0  0  0  0
   46.5420   24.8540   38.0740 C   0  0  0  0  0  0  0  0  0  0  0  0
   42.4266   20.8981   35.9443 H   0  0  0  0  0  0  0  0  0  0  0  0
   42.5537   22.4412   34.9290 H   0  0  0  0  0  0  0  0  0  0  0  0
   41.4946   22.7479   38.1775 H   0  0  0  0  0  0  0  0  0  0  0  0
   37.8578   22.4276   34.8662 H   0  0  0  0  0  0  0  0  0  0  0  0
   37.9201   23.5764   39.2762 H   0  0  0  0  0  0  0  0  0  0  0  0
   39.5959   23.5035   39.8837 H   0  0  0  0  0  0  0  0  0  0  0  0
   44.6074   22.7380   35.6447 H   0  0  0  0  0  0  0  0  0  0  0  0
   43.9976   25.3190   34.8945 H   0  0  0  0  0  0  0  0  0  0  0  0
   42.5353   25.1886   35.4207 H   0  0  0  0  0  0  0  0  0  0  0  0
   43.9774   25.0371   38.0750 H   0  0  0  0  0  0  0  0  0  0  0  0
   45.6787   26.3954   35.3616 H   0  0  0  0  0  0  0  0  0  0  0  0
   48.2243   26.8301   36.0759 H   0  0  0  0  0  0  0  0  0  0  0  0
   46.4035   24.2047   38.9511 H   0  0  0  0  0  0  0  0  0  0  0  0
  1  2  1  0
  1  9  1  0
  2  3  2  0
  3  4  1  0
  4  8  1  0
  5  4  2  0
  6  5  1  0
  7  6  2  0
  7  2  1  0
 10  9  1  0
 10 12  1  0
 11 10  1  0
 11 12  1  0
 12 13  1  0
 13 17  1  0
 14 15  2  0
 14 13  1  0
 15 16  1  0
 16 17  2  0
  1 18  1  0
  1 19  1  0
  3 20  1  0
  6 21  1  0
  8 22  1  0
  8 23  1  0
 10 24  1  6
 11 25  1  0
 11 26  1  0
 12 27  1  1
 14 28  1  0
 15 29  1  0
 17 30  1  0
M  ISO  8  18   8  19   8  20  14  21  14  24  13  25  13  26  13  27  13
M  ISO  3  28  14  29  14  30  14
M  END
>  <minimizedAffinity>  (1) 
-4.04718447

>  <minimizedRMSD>  (1) 
2.90106511

$$$$
