
     RDKit          3D

 24 25  0  0  1  0  0  0  0  0999 V2000
   41.2560   21.6080   36.7350 C   0  0  0  0  0  0  0  0  0  0  0  0
   39.9020   22.1910   36.7140 C   0  0  0  0  0  0  0  0  0  0  0  0
   39.6580   23.0040   37.8070 C   0  0  0  0  0  0  0  0  0  0  0  0
   38.3900   23.6050   37.9260 C   0  0  0  0  0  0  0  0  0  0  0  0
   37.4780   23.3390   36.9350 N   0  0  0  0  0  0  0  0  0  0  0  0
   37.7700   22.5450   35.8990 C   0  0  0  0  0  0  0  0  0  0  0  0
   38.9790   21.9770   35.7970 N   0  0  0  0  0  0  0  0  0  0  0  0
   37.9860   24.4680   38.9500 N   0  0  0  0  0  0  0  0  0  0  0  0
   42.2330   22.3910   37.2350 O   0  0  0  0  0  0  0  0  0  0  0  0
   43.0750   22.9020   36.2530 C   0  0  1  0  0  0  0  0  0  0  0  0
   42.9350   24.2650   35.7150 C   0  0  0  0  0  0  0  0  0  0  0  0
   43.9820   24.0060   36.7520 C   0  0  2  0  0  0  0  0  0  0  0  0
   45.2790   24.0690   36.2530 O   0  0  0  0  0  0  0  0  0  0  0  0
   41.5274   21.3521   35.7002 H   0  0  0  0  0  0  0  0  0  0  0  0
   41.1944   20.7443   37.4134 H   0  0  0  0  0  0  0  0  0  0  0  0
   40.4362   23.1767   38.5650 H   0  0  0  0  0  0  0  0  0  0  0  0
   37.0116   22.3569   35.1248 H   0  0  0  0  0  0  0  0  0  0  0  0
   37.0327   24.8580   38.9487 H   0  0  0  0  0  0  0  0  0  0  0  0
   38.6418   24.7135   39.7054 H   0  0  0  0  0  0  0  0  0  0  0  0
   43.1515   21.9286   35.7464 H   0  0  0  0  0  0  0  0  0  0  0  0
   43.2339   24.4763   34.6777 H   0  0  0  0  0  0  0  0  0  0  0  0
   42.0998   24.9752   35.6245 H   0  0  0  0  0  0  0  0  0  0  0  0
   44.2477   24.3764   37.7531 H   0  0  0  0  0  0  0  0  0  0  0  0
   45.9211   24.1002   37.0059 H   0  0  0  0  0  0  0  0  0  0  0  0
  1  9  1  0
  2  1  1  0
  2  3  2  0
  3  4  1  0
  4  8  1  0
  5  4  2  0
  6  5  1  0
  7  6  2  0
  7  2  1  0
 10 12  1  0
 10  9  1  0
 11 10  1  0
 11 12  1  0
 13 12  1  0
  1 14  1  0
  1 15  1  0
  3 16  1  0
  6 17  1  0
  8 18  1  0
  8 19  1  0
 10 20  1  6
 11 21  1  0
 11 22  1  0
 12 23  1  1
 13 24  1  0
M  ISO  8  14   8  15   8  16  14  17  14  20  13  21  13  22  13  23  13
M  ISO  1  24   3
M  END
>  <minimizedAffinity>  (1) 
-3.46449232

>  <minimizedRMSD>  (1) 
0.730700552

$$$$
