
     RDKit          3D

 29 30  0  0  1  0  0  0  0  0999 V2000
   41.2750   21.6880   36.4030 C   0  0  0  0  0  0  0  0  0  0  0  0
   39.9010   22.2160   36.5270 C   0  0  0  0  0  0  0  0  0  0  0  0
   39.7390   23.0030   37.6580 C   0  0  0  0  0  0  0  0  0  0  0  0
   38.4710   23.5480   37.9010 C   0  0  0  0  0  0  0  0  0  0  0  0
   37.4620   23.2590   36.9860 N   0  0  0  0  0  0  0  0  0  0  0  0
   37.6960   22.4830   35.9050 C   0  0  0  0  0  0  0  0  0  0  0  0
   38.9080   21.9730   35.6890 N   0  0  0  0  0  0  0  0  0  0  0  0
   38.0980   24.3720   38.9700 N   0  0  0  0  0  0  0  0  0  0  0  0
   42.2120   22.3000   37.1680 O   0  0  0  0  0  0  0  0  0  0  0  0
   43.2670   22.8040   36.4100 C   0  0  1  0  0  0  0  0  0  0  0  0
   43.0960   24.0000   35.5610 C   0  0  0  0  0  0  0  0  0  0  0  0
   43.7950   24.1350   36.8750 C   0  0  2  0  0  0  0  0  0  0  0  0
   45.2770   24.4070   36.7280 C   0  0  0  0  0  0  0  0  0  0  0  0
   45.8690   25.0930   37.9400 C   0  0  0  0  0  0  0  0  0  0  0  0
   41.2543   20.6239   36.6810 H   0  0  0  0  0  0  0  0  0  0  0  0
   41.5733   21.8714   35.3602 H   0  0  0  0  0  0  0  0  0  0  0  0
   40.5791   23.1931   38.3422 H   0  0  0  0  0  0  0  0  0  0  0  0
   36.8803   22.2707   35.1982 H   0  0  0  0  0  0  0  0  0  0  0  0
   37.1291   24.7136   39.0432 H   0  0  0  0  0  0  0  0  0  0  0  0
   38.7926   24.6365   39.6831 H   0  0  0  0  0  0  0  0  0  0  0  0
   43.6611   21.7986   36.2003 H   0  0  0  0  0  0  0  0  0  0  0  0
   43.6666   24.0933   34.6252 H   0  0  0  0  0  0  0  0  0  0  0  0
   42.2348   24.4960   35.0895 H   0  0  0  0  0  0  0  0  0  0  0  0
   43.6788   24.7103   37.8053 H   0  0  0  0  0  0  0  0  0  0  0  0
   45.7970   23.4495   36.5768 H   0  0  0  0  0  0  0  0  0  0  0  0
   45.4069   25.0813   35.8687 H   0  0  0  0  0  0  0  0  0  0  0  0
   45.4698   24.6304   38.8547 H   0  0  0  0  0  0  0  0  0  0  0  0
   46.9637   24.9868   37.9232 H   0  0  0  0  0  0  0  0  0  0  0  0
   45.6038   26.1604   37.9232 H   0  0  0  0  0  0  0  0  0  0  0  0
  1  2  1  0
  1  9  1  0
  2  3  2  0
  3  4  1  0
  4  8  1  0
  5  4  2  0
  6  5  1  0
  7  6  2  0
  7  2  1  0
 10 12  1  0
 10  9  1  0
 11 10  1  0
 11 12  1  0
 13 12  1  0
 13 14  1  0
  1 15  1  0
  1 16  1  0
  3 17  1  0
  6 18  1  0
  8 19  1  0
  8 20  1  0
 10 21  1  6
 11 22  1  0
 11 23  1  0
 12 24  1  1
 13 25  1  0
 13 26  1  0
 14 27  1  0
 14 28  1  0
 14 29  1  0
M  ISO  8  15   8  16   8  17  14  18  14  21  13  22  13  23  13  24  13
M  ISO  5  25   8  26   8  27   8  28   8  29   8
M  END
>  <minimizedAffinity>  (1) 
-3.81241798

>  <minimizedRMSD>  (1) 
1.30383265

$$$$
