
     RDKit          3D

 25 26  0  0  1  0  0  0  0  0999 V2000
   41.3180   23.3750   35.4980 C   0  0  0  0  0  0  0  0  0  0  0  0
   40.0420   23.7230   36.1520 C   0  0  0  0  0  0  0  0  0  0  0  0
   39.8480   23.0040   37.3240 C   0  0  0  0  0  0  0  0  0  0  0  0
   38.6710   23.1900   38.0450 C   0  0  0  0  0  0  0  0  0  0  0  0
   37.7590   24.0890   37.5390 N   0  0  0  0  0  0  0  0  0  0  0  0
   37.9860   24.7740   36.3880 C   0  0  0  0  0  0  0  0  0  0  0  0
   39.1410   24.5720   35.7100 N   0  0  0  0  0  0  0  0  0  0  0  0
   38.2860   22.5740   39.2410 N   0  0  0  0  0  0  0  0  0  0  0  0
   42.4060   24.0480   35.9170 O   0  0  0  0  0  0  0  0  0  0  0  0
   43.4750   23.2180   36.2300 C   0  0  1  0  0  0  0  0  0  0  0  0
   44.7630   23.2820   35.5170 C   0  0  0  0  0  0  0  0  0  0  0  0
   44.6510   23.9250   36.8600 C   0  0  1  0  0  0  0  0  0  0  0  0
   44.4930   25.3930   36.9760 C   0  0  0  0  0  0  0  0  0  0  0  0
   44.7340   25.9420   38.0540 O   0  0  0  0  0  0  0  0  0  0  0  0
   41.2036   23.5608   34.4199 H   0  0  0  0  0  0  0  0  0  0  0  0
   41.5047   22.3232   35.7603 H   0  0  0  0  0  0  0  0  0  0  0  0
   40.6132   22.2975   37.6780 H   0  0  0  0  0  0  0  0  0  0  0  0
   37.2382   25.4866   36.0099 H   0  0  0  0  0  0  0  0  0  0  0  0
   37.3792   22.8057   39.6710 H   0  0  0  0  0  0  0  0  0  0  0  0
   38.9094   21.8888   39.6913 H   0  0  0  0  0  0  0  0  0  0  0  0
   42.8038   22.3752   36.4518 H   0  0  0  0  0  0  0  0  0  0  0  0
   45.3667   22.3705   35.3959 H   0  0  0  0  0  0  0  0  0  0  0  0
   45.0762   23.6274   34.5207 H   0  0  0  0  0  0  0  0  0  0  0  0
   45.2523   23.8565   37.7786 H   0  0  0  0  0  0  0  0  0  0  0  0
   44.1644   25.9871   36.1105 H   0  0  0  0  0  0  0  0  0  0  0  0
  1  9  1  0
  1  2  1  0
  2  3  2  0
  3  4  1  0
  4  8  1  0
  5  4  2  0
  6  5  1  0
  7  2  1  0
  7  6  2  0
  9 10  1  0
 10 12  1  0
 11 10  1  0
 11 12  1  0
 12 13  1  0
 13 14  2  0
  1 15  1  0
  1 16  1  0
  3 17  1  0
  6 18  1  0
  8 19  1  0
  8 20  1  0
 10 21  1  1
 11 22  1  0
 11 23  1  0
 12 24  1  1
 13 25  1  0
M  ISO  8  15   8  16   8  17  14  18  14  21  13  22  13  23  13  24  13
M  ISO  1  25   6
M  END
>  <minimizedAffinity>  (1) 
-3.72025895

>  <minimizedRMSD>  (1) 
2.20398259

$$$$
