
     RDKit          3D

 47 50  0  0  0  0  0  0  0  0999 V2000
   43.4127   23.3405   36.4984 C   0  0  1  0  0  0  0  0  0  0  0  0
   43.6634   24.6537   35.6327 C   0  0  0  0  0  0  0  0  0  0  0  0
   44.0918   24.4969   37.0494 C   0  0  2  0  0  0  0  0  0  0  0  0
   45.4661   24.5256   37.3337 N   0  0  0  0  0  0  0  0  0  0  0  0
   46.2994   24.4927   36.1783 C   0  0  0  0  0  0  0  0  0  0  0  0
   47.6931   24.8104   36.7460 C   0  0  0  0  0  0  0  0  0  0  0  0
   47.3832   25.8649   37.7830 C   0  0  0  0  0  0  0  0  0  0  0  0
   45.9462   25.6055   38.1600 C   0  0  2  0  0  0  0  0  0  0  0  0
   45.7541   25.4103   39.5040 O   0  0  0  0  0  0  0  0  0  0  0  0
   42.0935   23.2921   36.8118 O   0  0  0  0  0  0  0  0  0  0  0  0
   41.4179   22.2372   36.3246 C   0  0  0  0  0  0  0  0  0  0  0  0
   39.9760   22.4214   36.4128 C   0  0  0  0  0  0  0  0  0  0  0  0
   39.6186   23.1889   37.5196 C   0  0  0  0  0  0  0  0  0  0  0  0
   38.2596   23.4552   37.7669 C   0  0  0  0  0  0  0  0  0  0  0  0
   37.3206   22.9210   36.8650 N   0  0  0  0  0  0  0  0  0  0  0  0
   37.7264   22.1732   35.7926 C   0  0  0  0  0  0  0  0  0  0  0  0
   39.0578   21.9353   35.5839 N   0  0  0  0  0  0  0  0  0  0  0  0
   37.7096   24.1859   38.8123 N   0  0  0  0  0  0  0  0  0  0  0  0
   43.8711   22.4756   36.0255 H   0  0  0  0  0  0  0  0  0  0  0  0
   42.7895   25.2399   35.3626 H   0  0  0  0  0  0  0  0  0  0  0  0
   44.3571   24.4806   34.8031 H   0  0  0  0  0  0  0  0  0  0  0  0
   43.5382   25.2237   37.7229 H   0  0  0  0  0  0  0  0  0  0  0  0
   46.2790   23.5357   35.6525 H   0  0  0  0  0  0  0  0  0  0  0  0
   46.0881   25.3389   35.4818 H   0  0  0  0  0  0  0  0  0  0  0  0
   48.3960   25.1240   35.9761 H   0  0  0  0  0  0  0  0  0  0  0  0
   47.9898   23.8948   37.2919 H   0  0  0  0  0  0  0  0  0  0  0  0
   47.4922   26.8617   37.3222 H   0  0  0  0  0  0  0  0  0  0  0  0
   48.0863   25.7645   38.6361 H   0  0  0  0  0  0  0  0  0  0  0  0
   45.3220   26.5072   37.8899 H   0  0  0  0  0  0  0  0  0  0  0  0
   45.7684   24.4356   39.6990 H   0  0  0  0  0  0  0  0  0  0  0  0
   41.6987   21.2293   36.6551 H   0  0  0  0  0  0  0  0  0  0  0  0
   41.6564   22.2058   35.2016 H   0  0  0  0  0  0  0  0  0  0  0  0
   40.2839   23.6302   38.2524 H   0  0  0  0  0  0  0  0  0  0  0  0
   37.6492   25.2096   39.0158 H   0  0  0  0  0  0  0  0  0  0  0  0
   37.1937   23.9464   39.7060 H   0  0  0  0  0  0  0  0  0  0  0  0
   36.7228   21.6620   34.9183 N   0  0  0  0  0  0  0  0  0  0  0  0
   35.8596   22.6166   34.4630 C   0  0  0  0  0  0  0  0  0  0  0  0
   34.8340   22.2433   33.6013 C   0  0  0  0  0  0  0  0  0  0  0  0
   34.7066   20.9143   33.2213 C   0  0  0  0  0  0  0  0  0  0  0  0
   33.6334   20.6155   32.3391 N   0  0  0  0  0  0  0  0  0  0  0  0
   35.5928   20.0026   33.7034 N   0  0  0  0  0  0  0  0  0  0  0  0
   36.5716   20.3816   34.5306 C   0  0  0  0  0  0  0  0  0  0  0  0
   37.4058   19.5669   34.9936 O   0  0  0  0  0  0  0  0  0  0  0  0
   35.9204   23.6603   34.7313 H   0  0  0  0  0  0  0  0  0  0  0  0
   34.1504   22.9981   33.2404 H   0  0  0  0  0  0  0  0  0  0  0  0
   33.5660   20.4978   31.2876 H   0  0  0  0  0  0  0  0  0  0  0  0
   34.1968   20.6390   31.4601 H   0  0  0  0  0  0  0  0  0  0  0  0
  1 10  1  0
  1  3  1  0
  2  1  1  0
  2  3  1  0
  3  4  1  0
  4  5  1  0
  4  8  1  0
  5  6  1  0
  6  7  1  0
  7  8  1  0
  8  9  1  0
 11 12  1  0
 11 10  1  0
 12 13  2  0
 13 14  1  0
 14 18  1  0
 15 14  2  0
 16 15  1  0
 17 16  2  0
 17 12  1  0
  1 19  1  6
  2 20  1  0
  2 21  1  0
  3 22  1  1
  5 23  1  0
  5 24  1  0
  6 25  1  0
  6 26  1  0
  7 27  1  0
  7 28  1  0
  8 29  1  6
  9 30  1  0
 11 31  1  0
 11 32  1  0
 13 33  1  0
 18 34  1  0
 18 35  1  0
 36 37  1  0
 37 38  2  0
 38 39  1  0
 39 40  1  0
 39 41  2  0
 41 42  1  0
 42 43  2  0
 42 36  1  0
 37 44  1  0
 38 45  1  0
 40 46  1  0
 40 47  1  0
 16 36  1  0
M  END
>  <DihAtoms>  (1) 
14,15,35,36

>  <DihDeg>  (1) 
67.39523320396026

$$$$
