
     RDKit          3D

 50 54  0  0  1  0  0  0  0  0999 V2000
   41.4960   21.9680   36.7840 C   0  0  0  0  0  0  0  0  0  0  0  0
   40.0870   22.3340   36.7380 C   0  0  0  0  0  0  0  0  0  0  0  0
   39.7210   23.1360   37.8120 C   0  0  0  0  0  0  0  0  0  0  0  0
   38.3900   23.5880   37.9160 C   0  0  0  0  0  0  0  0  0  0  0  0
   37.5050   23.1960   36.9200 N   0  0  0  0  0  0  0  0  0  0  0  0
   37.8900   22.4190   35.8940 C   0  0  0  0  0  0  0  0  0  0  0  0
   39.1780   22.0040   35.8260 N   0  0  0  0  0  0  0  0  0  0  0  0
   37.8540   24.4000   38.9220 N   0  0  0  0  0  0  0  0  0  0  0  0
   37.1010   21.9160   34.7700 C   0  0  0  0  0  0  0  0  0  0  0  0
   36.2780   20.8830   34.8630 N   0  0  0  0  0  0  0  0  0  0  0  0
   35.5500   20.4070   33.8540 C   0  0  0  0  0  0  0  0  0  0  0  0
   35.5960   20.9570   32.6220 N   0  0  0  0  0  0  0  0  0  0  0  0
   36.4130   22.0320   32.4070 C   0  0  0  0  0  0  0  0  0  0  0  0
   36.4660   22.5960   31.1610 C   0  0  0  0  0  0  0  0  0  0  0  0
   37.2850   23.6800   30.9320 C   0  0  0  0  0  0  0  0  0  0  0  0
   38.0290   24.1500   32.0000 C   0  0  0  0  0  0  0  0  0  0  0  0
   37.9280   23.5360   33.2280 C   0  0  0  0  0  0  0  0  0  0  0  0
   37.1280   22.4570   33.5030 C   0  0  0  0  0  0  0  0  0  0  0  0
   42.2590   22.7720   36.0310 O   0  0  0  0  0  0  0  0  0  0  0  0
   43.5660   22.8320   36.3610 C   0  0  1  0  0  0  0  0  0  0  0  0
   44.2940   23.7690   35.2930 C   0  0  0  0  0  0  0  0  0  0  0  0
   44.0250   24.1630   36.7040 C   0  0  2  0  0  0  0  0  0  0  0  0
   45.1240   24.4180   37.5370 N   0  0  0  0  0  0  0  0  0  0  0  0
   46.3790   24.0470   36.9740 C   0  0  0  0  0  0  0  0  0  0  0  0
   47.3990   24.6820   37.9320 C   0  0  0  0  0  0  0  0  0  0  0  0
   46.7420   26.0180   38.2530 C   0  0  0  0  0  0  0  0  0  0  0  0
   45.2760   25.7640   38.0340 C   0  0  2  0  0  0  0  0  0  0  0  0
   44.4890   26.0510   39.1190 O   0  0  0  0  0  0  0  0  0  0  0  0
   41.8422   22.0274   37.8264 H   0  0  0  0  0  0  0  0  0  0  0  0
   41.5898   20.9473   36.3848 H   0  0  0  0  0  0  0  0  0  0  0  0
   40.4632   23.4156   38.5742 H   0  0  0  0  0  0  0  0  0  0  0  0
   36.8598   24.6677   38.8927 H   0  0  0  0  0  0  0  0  0  0  0  0
   38.4537   24.7299   39.6917 H   0  0  0  0  0  0  0  0  0  0  0  0
   34.8934   19.5421   34.0295 H   0  0  0  0  0  0  0  0  0  0  0  0
   35.8556   22.1844   30.3437 H   0  0  0  0  0  0  0  0  0  0  0  0
   37.3450   24.1526   29.9405 H   0  0  0  0  0  0  0  0  0  0  0  0
   38.6994   25.0120   31.8680 H   0  0  0  0  0  0  0  0  0  0  0  0
   38.5350   23.9417   34.0508 H   0  0  0  0  0  0  0  0  0  0  0  0
   43.6988   21.8412   36.8200 H   0  0  0  0  0  0  0  0  0  0  0  0
   45.3180   23.5473   34.9579 H   0  0  0  0  0  0  0  0  0  0  0  0
   44.0696   24.1685   34.2930 H   0  0  0  0  0  0  0  0  0  0  0  0
   43.4896   24.9908   37.1919 H   0  0  0  0  0  0  0  0  0  0  0  0
   46.4911   22.9530   36.9480 H   0  0  0  0  0  0  0  0  0  0  0  0
   46.4996   24.3826   35.9334 H   0  0  0  0  0  0  0  0  0  0  0  0
   47.5293   24.0726   38.8384 H   0  0  0  0  0  0  0  0  0  0  0  0
   48.4091   24.7751   37.5065 H   0  0  0  0  0  0  0  0  0  0  0  0
   46.9370   26.3092   39.2957 H   0  0  0  0  0  0  0  0  0  0  0  0
   47.1270   26.8396   37.6311 H   0  0  0  0  0  0  0  0  0  0  0  0
   44.8999   26.4703   37.2792 H   0  0  0  0  0  0  0  0  0  0  0  0
   44.9936   25.8670   39.9506 H   0  0  0  0  0  0  0  0  0  0  0  0
  2  1  1  0
  2  3  2  0
  3  4  1  0
  4  8  1  0
  5  4  2  0
  6  5  1  0
  7  6  2  0
  7  2  1  0
  9 10  2  0
  9  6  1  0
 11 10  1  0
 12 11  2  0
 13 12  1  0
 13 18  2  0
 14 13  1  0
 15 14  2  0
 15 16  1  0
 16 17  2  0
 17 18  1  0
 18  9  1  0
 19 20  1  0
 19  1  1  0
 20 22  1  0
 21 20  1  0
 21 22  1  0
 22 23  1  0
 23 24  1  0
 23 27  1  0
 24 25  1  0
 25 26  1  0
 27 26  1  0
 27 28  1  0
  1 29  1  0
  1 30  1  0
  3 31  1  0
  8 32  1  0
  8 33  1  0
 11 34  1  0
 14 35  1  0
 15 36  1  0
 16 37  1  0
 17 38  1  0
 20 39  1  1
 21 40  1  0
 21 41  1  0
 22 42  1  6
 24 43  1  0
 24 44  1  0
 25 45  1  0
 25 46  1  0
 26 47  1  0
 26 48  1  0
 27 49  1  6
 28 50  1  0
M  ISO  8  29   8  30   8  31  14  34  14  35  14  36  14  37  14  38  14
M  ISO  8  39  13  40  13  41  13  42  13  43  13  44  13  45  13  46  13
M  ISO  4  47  13  48  13  49  13  50   3
M  END
>  <minimizedAffinity>  (1) 
-6.2300601

>  <minimizedRMSD>  (1) 
2.14007902

$$$$
