
     RDKit          3D

 52 56  0  0  1  0  0  0  0  0999 V2000
   41.4980   22.2190   36.3710 C   0  0  0  0  0  0  0  0  0  0  0  0
   40.0540   22.4140   36.4070 C   0  0  0  0  0  0  0  0  0  0  0  0
   39.6520   23.0510   37.5910 C   0  0  0  0  0  0  0  0  0  0  0  0
   38.2700   23.3230   37.7690 C   0  0  0  0  0  0  0  0  0  0  0  0
   37.3900   22.9380   36.7500 N   0  0  0  0  0  0  0  0  0  0  0  0
   37.8420   22.3330   35.6410 C   0  0  0  0  0  0  0  0  0  0  0  0
   39.1510   22.0870   35.4960 N   0  0  0  0  0  0  0  0  0  0  0  0
   37.7010   23.9640   38.8640 N   0  0  0  0  0  0  0  0  0  0  0  0
   37.0460   21.8870   34.5160 C   0  0  0  0  0  0  0  0  0  0  0  0
   36.2640   20.7290   34.5740 C   0  0  0  0  0  0  0  0  0  0  0  0
   35.4870   20.2430   33.5550 C   0  0  0  0  0  0  0  0  0  0  0  0
   35.4480   20.9210   32.3610 C   0  0  0  0  0  0  0  0  0  0  0  0
   36.1920   22.0720   32.2280 C   0  0  0  0  0  0  0  0  0  0  0  0
   36.1200   22.7130   31.0160 C   0  0  0  0  0  0  0  0  0  0  0  0
   36.8400   23.8710   30.8140 C   0  0  0  0  0  0  0  0  0  0  0  0
   37.6220   24.3350   31.8790 C   0  0  0  0  0  0  0  0  0  0  0  0
   37.6400   23.6360   33.0580 C   0  0  0  0  0  0  0  0  0  0  0  0
   36.9420   22.4830   33.3030 C   0  0  0  0  0  0  0  0  0  0  0  0
   42.1720   23.3050   36.7800 O   0  0  0  0  0  0  0  0  0  0  0  0
   43.4980   23.3170   36.5110 C   0  0  1  0  0  0  0  0  0  0  0  0
   43.7960   24.5970   35.6050 C   0  0  0  0  0  0  0  0  0  0  0  0
   44.1850   24.4780   37.0360 C   0  0  2  0  0  0  0  0  0  0  0  0
   45.5530   24.4960   37.3490 N   0  0  0  0  0  0  0  0  0  0  0  0
   46.4120   24.4520   36.2130 C   0  0  0  0  0  0  0  0  0  0  0  0
   47.7980   24.7290   36.8180 C   0  0  0  0  0  0  0  0  0  0  0  0
   47.4690   25.8240   37.8280 C   0  0  0  0  0  0  0  0  0  0  0  0
   46.0230   25.5790   38.1800 C   0  0  2  0  0  0  0  0  0  0  0  0
   45.8070   25.3790   39.5230 O   0  0  0  0  0  0  0  0  0  0  0  0
   41.7568   21.3749   37.0272 H   0  0  0  0  0  0  0  0  0  0  0  0
   41.7834   22.0210   35.3273 H   0  0  0  0  0  0  0  0  0  0  0  0
   40.3871   23.3317   38.3597 H   0  0  0  0  0  0  0  0  0  0  0  0
   36.6828   24.1153   38.9004 H   0  0  0  0  0  0  0  0  0  0  0  0
   38.2977   24.2875   39.6387 H   0  0  0  0  0  0  0  0  0  0  0  0
   36.2733   20.1610   35.5159 H   0  0  0  0  0  0  0  0  0  0  0  0
   34.9019   19.3216   33.6916 H   0  0  0  0  0  0  0  0  0  0  0  0
   34.8339   20.5513   31.5266 H   0  0  0  0  0  0  0  0  0  0  0  0
   35.4914   22.3049   30.2108 H   0  0  0  0  0  0  0  0  0  0  0  0
   36.8018   24.4088   29.8552 H   0  0  0  0  0  0  0  0  0  0  0  0
   38.2174   25.2535   31.7703 H   0  0  0  0  0  0  0  0  0  0  0  0
   38.2646   24.0324   33.8721 H   0  0  0  0  0  0  0  0  0  0  0  0
   43.7135   22.2383   36.5151 H   0  0  0  0  0  0  0  0  0  0  0  0
   44.5569   24.5580   34.8116 H   0  0  0  0  0  0  0  0  0  0  0  0
   43.2117   25.2963   34.9889 H   0  0  0  0  0  0  0  0  0  0  0  0
   43.9879   25.0638   37.9459 H   0  0  0  0  0  0  0  0  0  0  0  0
   46.3809   23.4634   35.7317 H   0  0  0  0  0  0  0  0  0  0  0  0
   46.1301   25.1689   35.4278 H   0  0  0  0  0  0  0  0  0  0  0  0
   48.2079   23.8356   37.3117 H   0  0  0  0  0  0  0  0  0  0  0  0
   48.5636   25.0114   36.0803 H   0  0  0  0  0  0  0  0  0  0  0  0
   48.1077   25.7375   38.7194 H   0  0  0  0  0  0  0  0  0  0  0  0
   47.6400   26.8336   37.4261 H   0  0  0  0  0  0  0  0  0  0  0  0
   45.4347   26.4850   37.9726 H   0  0  0  0  0  0  0  0  0  0  0  0
   46.4242   25.9504   40.0452 H   0  0  0  0  0  0  0  0  0  0  0  0
  1  2  1  0
  1 19  1  0
  2  3  2  0
  3  4  1  0
  4  8  1  0
  5  4  2  0
  6  5  1  0
  7  6  2  0
  7  2  1  0
  9 10  2  0
  9  6  1  0
 11 10  1  0
 12 11  2  0
 13 12  1  0
 13 18  2  0
 14 13  1  0
 15 14  2  0
 15 16  1  0
 16 17  2  0
 17 18  1  0
 18  9  1  0
 20 19  1  0
 20 22  1  0
 21 20  1  0
 21 22  1  0
 22 23  1  0
 23 24  1  0
 23 27  1  0
 24 25  1  0
 25 26  1  0
 26 27  1  0
 27 28  1  0
  1 29  1  0
  1 30  1  0
  3 31  1  0
  8 32  1  0
  8 33  1  0
 10 34  1  0
 11 35  1  0
 12 36  1  0
 14 37  1  0
 15 38  1  0
 16 39  1  0
 17 40  1  0
 20 41  1  6
 21 42  1  0
 21 43  1  0
 22 44  1  1
 24 45  1  0
 24 46  1  0
 25 47  1  0
 25 48  1  0
 26 49  1  0
 26 50  1  0
 27 51  1  6
 28 52  1  0
M  ISO  8  29   8  30   8  31  14  34  14  35  14  36  14  37  14  38  14
M  ISO  8  39  14  40  14  41  13  42  13  43  13  44  13  45  13  46  13
M  ISO  6  47  13  48  13  49  13  50  13  51  13  52   3
M  END
>  <minimizedAffinity>  (1) 
-6.4316864

>  <minimizedRMSD>  (1) 
1.10884571

$$$$
