
     RDKit          3D

 46 49  0  0  1  0  0  0  0  0999 V2000
   42.2510   23.5970   34.9930 O   0  0  0  0  0  0  0  0  0  0  0  0
   43.5350   23.8590   35.3360 C   0  0  1  0  0  0  0  0  0  0  0  0
   43.7430   25.4390   35.2950 C   0  0  0  0  0  0  0  0  0  0  0  0
   43.6680   24.6410   36.5490 C   0  0  2  0  0  0  0  0  0  0  0  0
   44.7990   24.6070   37.3810 N   0  0  0  0  0  0  0  0  0  0  0  0
   45.9720   24.1080   36.7470 C   0  0  0  0  0  0  0  0  0  0  0  0
   47.0850   24.4490   37.7540 C   0  0  0  0  0  0  0  0  0  0  0  0
   46.6600   25.8300   38.2360 C   0  0  0  0  0  0  0  0  0  0  0  0
   45.1770   25.8430   38.0220 C   0  0  2  0  0  0  0  0  0  0  0  0
   44.4490   26.1210   39.1600 O   0  0  0  0  0  0  0  0  0  0  0  0
   41.7730   22.4040   35.3690 C   0  0  0  0  0  0  0  0  0  0  0  0
   40.3190   22.3870   35.4810 C   0  0  0  0  0  0  0  0  0  0  0  0
   39.9190   22.7110   36.7850 C   0  0  0  0  0  0  0  0  0  0  0  0
   38.5400   22.7620   37.0970 C   0  0  0  0  0  0  0  0  0  0  0  0
   37.6300   22.4770   36.0550 N   0  0  0  0  0  0  0  0  0  0  0  0
   38.0850   22.1680   34.8040 C   0  0  0  0  0  0  0  0  0  0  0  0
   39.4180   22.1250   34.5270 N   0  0  0  0  0  0  0  0  0  0  0  0
   37.9470   23.0560   38.3120 N   0  0  0  0  0  0  0  0  0  0  0  0
   37.1230   21.8780   33.7490 C   0  0  0  0  0  0  0  0  0  0  0  0
   36.1810   20.8940   33.9210 C   0  0  0  0  0  0  0  0  0  0  0  0
   35.2380   20.5500   32.9930 C   0  0  0  0  0  0  0  0  0  0  0  0
   35.2570   21.2670   31.7930 C   0  0  0  0  0  0  0  0  0  0  0  0
   36.2050   22.2680   31.6020 C   0  0  0  0  0  0  0  0  0  0  0  0
   37.1510   22.5910   32.5720 C   0  0  0  0  0  0  0  0  0  0  0  0
   44.0275   22.9513   34.9572 H   0  0  0  0  0  0  0  0  0  0  0  0
   44.6982   25.8705   34.9611 H   0  0  0  0  0  0  0  0  0  0  0  0
   43.2187   26.3048   34.8643 H   0  0  0  0  0  0  0  0  0  0  0  0
   43.0357   24.6638   37.4488 H   0  0  0  0  0  0  0  0  0  0  0  0
   45.9030   23.0218   36.5875 H   0  0  0  0  0  0  0  0  0  0  0  0
   46.1427   24.5416   35.7506 H   0  0  0  0  0  0  0  0  0  0  0  0
   47.1100   23.7261   38.5827 H   0  0  0  0  0  0  0  0  0  0  0  0
   48.0973   24.4201   37.3245 H   0  0  0  0  0  0  0  0  0  0  0  0
   46.9035   25.9657   39.3001 H   0  0  0  0  0  0  0  0  0  0  0  0
   47.1738   26.6433   37.7025 H   0  0  0  0  0  0  0  0  0  0  0  0
   44.9239   26.6835   37.3590 H   0  0  0  0  0  0  0  0  0  0  0  0
   44.9943   25.9128   39.9596 H   0  0  0  0  0  0  0  0  0  0  0  0
   42.0769   21.6533   34.6246 H   0  0  0  0  0  0  0  0  0  0  0  0
   42.1843   22.1815   36.3647 H   0  0  0  0  0  0  0  0  0  0  0  0
   40.6710   22.9238   37.5591 H   0  0  0  0  0  0  0  0  0  0  0  0
   36.9205   23.0570   38.3972 H   0  0  0  0  0  0  0  0  0  0  0  0
   38.5320   23.2739   39.1313 H   0  0  0  0  0  0  0  0  0  0  0  0
   36.1854   20.3433   34.8732 H   0  0  0  0  0  0  0  0  0  0  0  0
   34.5041   19.7523   33.1803 H   0  0  0  0  0  0  0  0  0  0  0  0
   34.5257   21.0410   31.0030 H   0  0  0  0  0  0  0  0  0  0  0  0
   36.2072   22.8231   30.6524 H   0  0  0  0  0  0  0  0  0  0  0  0
   37.8925   23.3859   32.4037 H   0  0  0  0  0  0  0  0  0  0  0  0
  1  2  1  0
  1 11  1  0
  2  4  1  0
  3  2  1  0
  3  4  1  0
  4  5  1  0
  5  6  1  0
  5  9  1  0
  6  7  1  0
  7  8  1  0
  9  8  1  0
  9 10  1  0
 11 12  1  0
 12 13  2  0
 13 14  1  0
 14 18  1  0
 15 14  2  0
 16 15  1  0
 17 16  2  0
 17 12  1  0
 19 20  2  0
 19 16  1  0
 21 20  1  0
 22 21  2  0
 23 22  1  0
 23 24  2  0
 24 19  1  0
  2 25  1  6
  3 26  1  0
  3 27  1  0
  4 28  1  1
  6 29  1  0
  6 30  1  0
  7 31  1  0
  7 32  1  0
  8 33  1  0
  8 34  1  0
  9 35  1  6
 10 36  1  0
 11 37  1  0
 11 38  1  0
 13 39  1  0
 18 40  1  0
 18 41  1  0
 20 42  1  0
 21 43  1  0
 22 44  1  0
 23 45  1  0
 24 46  1  0
M  ISO  8  25  13  26  13  27  13  28  13  29  13  30  13  31  13  32  13
M  ISO  8  33  13  34  13  35  13  36   3  37   8  38   8  39  14  42  14
M  ISO  4  43  14  44  14  45  14  46  14
M  END
>  <minimizedAffinity>  (1) 
-5.83031988

>  <minimizedRMSD>  (1) 
1.37937474

$$$$
