
     RDKit          3D

 49 52  0  0  1  0  0  0  0  0999 V2000
   41.8600   22.4590   37.2840 C   0  0  0  0  0  0  0  0  0  0  0  0
   40.4210   22.5920   37.0970 C   0  0  0  0  0  0  0  0  0  0  0  0
   39.8490   23.4320   38.0600 C   0  0  0  0  0  0  0  0  0  0  0  0
   38.4610   23.6930   38.0280 C   0  0  0  0  0  0  0  0  0  0  0  0
   37.7470   23.0760   37.0100 N   0  0  0  0  0  0  0  0  0  0  0  0
   38.3220   22.2700   36.0950 C   0  0  0  0  0  0  0  0  0  0  0  0
   39.6620   22.0340   36.1460 N   0  0  0  0  0  0  0  0  0  0  0  0
   37.7280   24.4900   38.8970 N   0  0  0  0  0  0  0  0  0  0  0  0
   35.9320   20.4340   33.0960 C   0  0  0  0  0  0  0  0  0  0  0  0
   35.5070   20.4650   34.4290 C   0  0  0  0  0  0  0  0  0  0  0  0
   36.3120   21.0700   35.3780 C   0  0  0  0  0  0  0  0  0  0  0  0
   37.5220   21.6470   35.0450 C   0  0  0  0  0  0  0  0  0  0  0  0
   37.9750   21.6370   33.7410 C   0  0  0  0  0  0  0  0  0  0  0  0
   37.1470   21.0200   32.8040 C   0  0  0  0  0  0  0  0  0  0  0  0
   34.9740   19.6910   31.8540 S   0  0  0  0  0  0  0  0  0  0  0  0
   33.5630   20.1740   31.8150 O   0  0  0  0  0  0  0  0  0  0  0  0
   34.9420   18.1960   31.9720 O   0  0  0  0  0  0  0  0  0  0  0  0
   42.5460   22.6020   36.1490 O   0  0  0  0  0  0  0  0  0  0  0  0
   43.8650   22.8990   36.2780 C   0  0  1  0  0  0  0  0  0  0  0  0
   44.1680   24.1940   35.3990 C   0  0  0  0  0  0  0  0  0  0  0  0
   44.1080   24.1950   36.8850 C   0  0  2  0  0  0  0  0  0  0  0  0
   45.2770   24.5130   37.5940 N   0  0  0  0  0  0  0  0  0  0  0  0
   46.4780   24.1240   36.9380 C   0  0  0  0  0  0  0  0  0  0  0  0
   47.5690   24.8180   37.7720 C   0  0  0  0  0  0  0  0  0  0  0  0
   46.9260   26.1670   38.0710 C   0  0  0  0  0  0  0  0  0  0  0  0
   45.4480   25.8890   37.9920 C   0  0  2  0  0  0  0  0  0  0  0  0
   44.7580   26.2210   39.1400 O   0  0  0  0  0  0  0  0  0  0  0  0
   42.1942   23.2285   37.9955 H   0  0  0  0  0  0  0  0  0  0  0  0
   42.0517   21.4432   37.6600 H   0  0  0  0  0  0  0  0  0  0  0  0
   40.4783   23.8872   38.8390 H   0  0  0  0  0  0  0  0  0  0  0  0
   36.7125   24.5989   38.7634 H   0  0  0  0  0  0  0  0  0  0  0  0
   38.1997   24.9723   39.6753 H   0  0  0  0  0  0  0  0  0  0  0  0
   34.5461   20.0146   34.7184 H   0  0  0  0  0  0  0  0  0  0  0  0
   35.9793   21.0921   36.4262 H   0  0  0  0  0  0  0  0  0  0  0  0
   38.9360   22.0907   33.4569 H   0  0  0  0  0  0  0  0  0  0  0  0
   37.4862   20.9988   31.7578 H   0  0  0  0  0  0  0  0  0  0  0  0
   35.6012   20.0609   30.6935 H   0  0  0  0  0  0  0  0  0  0  0  0
   44.2806   21.8923   36.4325 H   0  0  0  0  0  0  0  0  0  0  0  0
   45.1298   24.3045   34.8768 H   0  0  0  0  0  0  0  0  0  0  0  0
   43.6766   24.7367   34.5780 H   0  0  0  0  0  0  0  0  0  0  0  0
   43.5253   24.7456   37.6382 H   0  0  0  0  0  0  0  0  0  0  0  0
   46.6020   23.0312   36.9559 H   0  0  0  0  0  0  0  0  0  0  0  0
   46.5013   24.4046   35.8747 H   0  0  0  0  0  0  0  0  0  0  0  0
   47.7800   24.2616   38.6971 H   0  0  0  0  0  0  0  0  0  0  0  0
   48.5398   24.8922   37.2601 H   0  0  0  0  0  0  0  0  0  0  0  0
   47.2048   26.5196   39.0750 H   0  0  0  0  0  0  0  0  0  0  0  0
   47.2475   26.9543   37.3733 H   0  0  0  0  0  0  0  0  0  0  0  0
   44.9965   26.5469   37.2348 H   0  0  0  0  0  0  0  0  0  0  0  0
   45.2927   25.9637   39.9325 H   0  0  0  0  0  0  0  0  0  0  0  0
  2  1  1  0
  2  3  2  0
  4  3  1  0
  4  8  1  0
  5  4  2  0
  6  7  2  0
  6  5  1  0
  7  2  1  0
  9 10  2  0
 10 11  1  0
 12 11  2  0
 12  6  1  0
 13 12  1  0
 14  9  1  0
 14 13  2  0
 15 17  2  0
 15  9  1  0
 16 15  2  0
 18 19  1  0
 18  1  1  0
 19 21  1  0
 20 19  1  0
 20 21  1  0
 21 22  1  0
 22 23  1  0
 22 26  1  0
 23 24  1  0
 24 25  1  0
 26 25  1  0
 26 27  1  0
  1 28  1  0
  1 29  1  0
  3 30  1  0
  8 31  1  0
  8 32  1  0
 10 33  1  0
 11 34  1  0
 13 35  1  0
 14 36  1  0
 15 37  1  0
 19 38  1  1
 20 39  1  0
 20 40  1  0
 21 41  1  6
 23 42  1  0
 23 43  1  0
 24 44  1  0
 24 45  1  0
 25 46  1  0
 25 47  1  0
 26 48  1  6
 27 49  1  0
M  ISO  8  28   8  29   8  30  14  33  14  34  14  35  14  36  14  37  11
M  ISO  8  38  13  39  13  40  13  41  13  42  13  43  13  44  13  45  13
M  ISO  4  46  13  47  13  48  13  49   3
M  END
>  <minimizedAffinity>  (1) 
-5.48554087

>  <minimizedRMSD>  (1) 
0.969145715

$$$$
