
     RDKit          3D

 42 45  0  0  1  0  0  0  0  0999 V2000
   43.5920   23.3930   36.4230 C   0  0  1  0  0  0  0  0  0  0  0  0
   43.7350   24.8220   35.7280 C   0  0  0  0  0  0  0  0  0  0  0  0
   44.2200   24.5100   37.1010 C   0  0  2  0  0  0  0  0  0  0  0  0
   45.5990   24.5960   37.3520 N   0  0  0  0  0  0  0  0  0  0  0  0
   46.4030   24.6550   36.1810 C   0  0  0  0  0  0  0  0  0  0  0  0
   47.7920   25.0200   36.7350 C   0  0  0  0  0  0  0  0  0  0  0  0
   47.4440   26.0350   37.8050 C   0  0  0  0  0  0  0  0  0  0  0  0
   46.0450   25.6660   38.2120 C   0  0  2  0  0  0  0  0  0  0  0  0
   45.8930   25.3990   39.5550 O   0  0  0  0  0  0  0  0  0  0  0  0
   42.2860   23.2240   36.7590 O   0  0  0  0  0  0  0  0  0  0  0  0
   41.6670   22.1720   36.2090 C   0  0  0  0  0  0  0  0  0  0  0  0
   40.2200   22.3410   36.1270 C   0  0  0  0  0  0  0  0  0  0  0  0
   39.7210   22.9340   37.2900 C   0  0  0  0  0  0  0  0  0  0  0  0
   38.3270   23.1880   37.3900 C   0  0  0  0  0  0  0  0  0  0  0  0
   37.5410   22.8230   36.3010 N   0  0  0  0  0  0  0  0  0  0  0  0
   38.0750   22.2470   35.1890 C   0  0  0  0  0  0  0  0  0  0  0  0
   39.4240   22.0180   35.1300 N   0  0  0  0  0  0  0  0  0  0  0  0
   37.6590   23.7710   38.4650 N   0  0  0  0  0  0  0  0  0  0  0  0
   37.1910   21.8850   34.0800 C   0  0  0  0  0  0  0  0  0  0  0  0
   37.3110   22.4580   32.7980 C   0  0  0  0  0  0  0  0  0  0  0  0
   35.9060   21.5650   31.9090 S   0  0  0  0  0  0  0  0  0  0  0  0
   35.4620   20.6000   33.4920 C   0  0  0  0  0  0  0  0  0  0  0  0
   36.2600   20.9830   34.3380 N   0  0  0  0  0  0  0  0  0  0  0  0
   43.8882   22.3506   36.2342 H   0  0  0  0  0  0  0  0  0  0  0  0
   44.4464   24.9760   34.9033 H   0  0  0  0  0  0  0  0  0  0  0  0
   43.0617   25.5581   35.2644 H   0  0  0  0  0  0  0  0  0  0  0  0
   44.0353   24.9237   38.1034 H   0  0  0  0  0  0  0  0  0  0  0  0
   46.4251   23.6828   35.6668 H   0  0  0  0  0  0  0  0  0  0  0  0
   46.0310   25.3723   35.4346 H   0  0  0  0  0  0  0  0  0  0  0  0
   48.2948   24.1413   37.1652 H   0  0  0  0  0  0  0  0  0  0  0  0
   48.4894   25.3983   35.9731 H   0  0  0  0  0  0  0  0  0  0  0  0
   48.1335   25.9560   38.6584 H   0  0  0  0  0  0  0  0  0  0  0  0
   47.5221   27.0723   37.4472 H   0  0  0  0  0  0  0  0  0  0  0  0
   45.3948   26.5426   38.0744 H   0  0  0  0  0  0  0  0  0  0  0  0
   46.3067   26.1258   40.0848 H   0  0  0  0  0  0  0  0  0  0  0  0
   42.0610   22.0255   35.1925 H   0  0  0  0  0  0  0  0  0  0  0  0
   41.8608   21.3021   36.8537 H   0  0  0  0  0  0  0  0  0  0  0  0
   40.3976   23.2000   38.1155 H   0  0  0  0  0  0  0  0  0  0  0  0
   36.6387   23.9062   38.4252 H   0  0  0  0  0  0  0  0  0  0  0  0
   38.1856   24.0668   39.2994 H   0  0  0  0  0  0  0  0  0  0  0  0
   38.0205   23.2103   32.4229 H   0  0  0  0  0  0  0  0  0  0  0  0
   34.6602   19.8577   33.6184 H   0  0  0  0  0  0  0  0  0  0  0  0
  1 10  1  0
  1  3  1  0
  2  1  1  0
  2  3  1  0
  3  4  1  0
  4  5  1  0
  4  8  1  0
  5  6  1  0
  6  7  1  0
  7  8  1  0
  8  9  1  0
 11 10  1  0
 12 11  1  0
 12 13  2  0
 13 14  1  0
 14 18  1  0
 15 14  2  0
 16 15  1  0
 17 16  2  0
 17 12  1  0
 19 23  1  0
 19 16  1  0
 20 19  2  0
 21 20  1  0
 21 22  1  0
 22 23  2  0
  1 24  1  6
  2 25  1  0
  2 26  1  0
  3 27  1  1
  5 28  1  0
  5 29  1  0
  6 30  1  0
  6 31  1  0
  7 32  1  0
  7 33  1  0
  8 34  1  6
  9 35  1  0
 11 36  1  0
 11 37  1  0
 13 38  1  0
 18 39  1  0
 18 40  1  0
 20 41  1  0
 22 42  1  0
M  ISO  8  24  13  25  13  26  13  27  13  28  13  29  13  30  13  31  13
M  ISO  8  32  13  33  13  34  13  35   3  36   8  37   8  38  14  41  14
M  ISO  1  42  14
M  END
>  <minimizedAffinity>  (1) 
-5.26276636

>  <minimizedRMSD>  (1) 
0.676797926

$$$$
