
     RDKit          3D

 43 46  0  0  1  0  0  0  0  0999 V2000
   43.6430   23.0330   36.0790 C   0  0  1  0  0  0  0  0  0  0  0  0
   43.9910   24.3870   35.3140 C   0  0  0  0  0  0  0  0  0  0  0  0
   43.9000   24.2680   36.7960 C   0  0  2  0  0  0  0  0  0  0  0  0
   45.0620   24.5020   37.5500 N   0  0  0  0  0  0  0  0  0  0  0  0
   46.2660   24.1110   36.8980 C   0  0  0  0  0  0  0  0  0  0  0  0
   47.3560   24.7110   37.8040 C   0  0  0  0  0  0  0  0  0  0  0  0
   46.7530   26.0510   38.1820 C   0  0  0  0  0  0  0  0  0  0  0  0
   45.2760   25.8480   38.0230 C   0  0  2  0  0  0  0  0  0  0  0  0
   44.5650   26.1490   39.1690 O   0  0  0  0  0  0  0  0  0  0  0  0
   42.3270   22.7750   35.8970 O   0  0  0  0  0  0  0  0  0  0  0  0
   41.6870   22.2090   36.9270 C   0  0  0  0  0  0  0  0  0  0  0  0
   40.2450   22.4040   36.8770 C   0  0  0  0  0  0  0  0  0  0  0  0
   39.8180   23.2820   37.8820 C   0  0  0  0  0  0  0  0  0  0  0  0
   38.4410   23.6110   37.9750 C   0  0  0  0  0  0  0  0  0  0  0  0
   37.5940   23.0240   37.0410 N   0  0  0  0  0  0  0  0  0  0  0  0
   38.0480   22.1760   36.0820 C   0  0  0  0  0  0  0  0  0  0  0  0
   39.3740   21.8750   36.0110 N   0  0  0  0  0  0  0  0  0  0  0  0
   37.8390   24.4550   38.8990 N   0  0  0  0  0  0  0  0  0  0  0  0
   37.1000   21.5960   35.1350 C   0  0  0  0  0  0  0  0  0  0  0  0
   37.0810   21.6580   33.7560 C   0  0  0  0  0  0  0  0  0  0  0  0
   35.9490   20.9250   33.3790 C   0  0  0  0  0  0  0  0  0  0  0  0
   35.3380   20.4580   34.5030 N   0  0  0  0  0  0  0  0  0  0  0  0
   36.0340   20.8660   35.5640 N   0  0  0  0  0  0  0  0  0  0  0  0
   44.0345   22.0083   36.1607 H   0  0  0  0  0  0  0  0  0  0  0  0
   44.9655   24.5178   34.8208 H   0  0  0  0  0  0  0  0  0  0  0  0
   43.5283   25.0054   34.5308 H   0  0  0  0  0  0  0  0  0  0  0  0
   43.3134   24.7668   37.5816 H   0  0  0  0  0  0  0  0  0  0  0  0
   46.3515   23.0155   36.8479 H   0  0  0  0  0  0  0  0  0  0  0  0
   46.3281   24.4563   35.8554 H   0  0  0  0  0  0  0  0  0  0  0  0
   47.5261   24.0849   38.6923 H   0  0  0  0  0  0  0  0  0  0  0  0
   48.3404   24.7895   37.3195 H   0  0  0  0  0  0  0  0  0  0  0  0
   47.0013   26.3112   39.2215 H   0  0  0  0  0  0  0  0  0  0  0  0
   47.1343   26.8748   37.5607 H   0  0  0  0  0  0  0  0  0  0  0  0
   44.8819   26.5570   37.2800 H   0  0  0  0  0  0  0  0  0  0  0  0
   45.1080   25.9191   39.9642 H   0  0  0  0  0  0  0  0  0  0  0  0
   41.8952   21.1289   36.9183 H   0  0  0  0  0  0  0  0  0  0  0  0
   42.0525   22.6902   37.8462 H   0  0  0  0  0  0  0  0  0  0  0  0
   40.5418   23.7111   38.5905 H   0  0  0  0  0  0  0  0  0  0  0  0
   36.8222   24.6156   38.8638 H   0  0  0  0  0  0  0  0  0  0  0  0
   38.4093   24.9204   39.6195 H   0  0  0  0  0  0  0  0  0  0  0  0
   37.7978   22.1707   33.0978 H   0  0  0  0  0  0  0  0  0  0  0  0
   35.6097   20.7547   32.3466 H   0  0  0  0  0  0  0  0  0  0  0  0
   34.4820   19.8857   34.5288 H   0  0  0  0  0  0  0  0  0  0  0  0
  1  3  1  0
  2  1  1  0
  2  3  1  0
  3  4  1  0
  4  5  1  0
  4  8  1  0
  5  6  1  0
  6  7  1  0
  8  7  1  0
  8  9  1  0
 10  1  1  0
 10 11  1  0
 12 11  1  0
 12 13  2  0
 13 14  1  0
 14 18  1  0
 15 14  2  0
 16 15  1  0
 17 16  2  0
 17 12  1  0
 19 23  2  0
 19 16  1  0
 20 19  1  0
 21 20  2  0
 21 22  1  0
 22 23  1  0
  1 24  1  1
  2 25  1  0
  2 26  1  0
  3 27  1  1
  5 28  1  0
  5 29  1  0
  6 30  1  0
  6 31  1  0
  7 32  1  0
  7 33  1  0
  8 34  1  6
  9 35  1  0
 11 36  1  0
 11 37  1  0
 13 38  1  0
 18 39  1  0
 18 40  1  0
 20 41  1  0
 21 42  1  0
 22 43  1  0
M  ISO  8  24  13  25  13  26  13  27  13  28  13  29  13  30  13  31  13
M  ISO  8  32  13  33  13  34  13  35   3  36   8  37   8  38  14  41  14
M  ISO  2  42  14  43   9
M  END
>  <minimizedAffinity>  (1) 
-5.52511644

>  <minimizedRMSD>  (1) 
0.670894861

$$$$
