
     RDKit          3D

 45 47  0  0  1  0  0  0  0  0999 V2000
   43.2390   23.9670   35.3470 C   0  0  1  0  0  0  0  0  0  0  0  0
   43.6640   25.4930   35.1930 C   0  0  0  0  0  0  0  0  0  0  0  0
   43.5500   24.7890   36.4990 C   0  0  2  0  0  0  0  0  0  0  0  0
   44.7100   24.6440   37.2770 N   0  0  0  0  0  0  0  0  0  0  0  0
   45.8270   24.1200   36.5670 C   0  0  0  0  0  0  0  0  0  0  0  0
   46.9910   24.3270   37.5500 C   0  0  0  0  0  0  0  0  0  0  0  0
   46.6720   25.6870   38.1340 C   0  0  0  0  0  0  0  0  0  0  0  0
   45.1870   25.8150   37.9730 C   0  0  2  0  0  0  0  0  0  0  0  0
   44.5230   26.0610   39.1570 O   0  0  0  0  0  0  0  0  0  0  0  0
   41.9110   23.8670   35.0900 O   0  0  0  0  0  0  0  0  0  0  0  0
   41.5070   22.7150   34.5460 C   0  0  0  0  0  0  0  0  0  0  0  0
   40.0910   22.4430   34.7810 C   0  0  0  0  0  0  0  0  0  0  0  0
   39.7180   22.8090   36.0750 C   0  0  0  0  0  0  0  0  0  0  0  0
   38.3730   22.6430   36.4920 C   0  0  0  0  0  0  0  0  0  0  0  0
   37.4760   22.1060   35.5500 N   0  0  0  0  0  0  0  0  0  0  0  0
   37.9010   21.7670   34.2970 C   0  0  0  0  0  0  0  0  0  0  0  0
   39.1940   21.9380   33.9310 N   0  0  0  0  0  0  0  0  0  0  0  0
   37.8270   22.9530   37.7330 N   0  0  0  0  0  0  0  0  0  0  0  0
   36.9610   21.2050   33.3180 C   0  0  0  0  0  0  0  0  0  0  0  0
   36.5030   22.3510   32.4210 C   0  0  0  0  0  0  0  0  0  0  0  0
   35.7030   20.7190   34.0420 C   0  0  0  0  0  0  0  0  0  0  0  0
   43.5773   22.9792   35.0009 H   0  0  0  0  0  0  0  0  0  0  0  0
   44.6495   25.7622   34.7853 H   0  0  0  0  0  0  0  0  0  0  0  0
   43.2427   26.3987   34.7324 H   0  0  0  0  0  0  0  0  0  0  0  0
   42.9801   24.9525   37.4256 H   0  0  0  0  0  0  0  0  0  0  0  0
   45.6860   23.0528   36.3405 H   0  0  0  0  0  0  0  0  0  0  0  0
   45.9895   24.6076   35.5945 H   0  0  0  0  0  0  0  0  0  0  0  0
   46.9997   23.5499   38.3284 H   0  0  0  0  0  0  0  0  0  0  0  0
   47.9839   24.2679   37.0803 H   0  0  0  0  0  0  0  0  0  0  0  0
   46.9549   25.7320   39.1960 H   0  0  0  0  0  0  0  0  0  0  0  0
   47.2221   26.4995   37.6368 H   0  0  0  0  0  0  0  0  0  0  0  0
   44.9646   26.7088   37.3716 H   0  0  0  0  0  0  0  0  0  0  0  0
   45.1153   25.8416   39.9193 H   0  0  0  0  0  0  0  0  0  0  0  0
   42.0988   21.8953   34.9793 H   0  0  0  0  0  0  0  0  0  0  0  0
   41.6528   22.7935   33.4585 H   0  0  0  0  0  0  0  0  0  0  0  0
   40.4641   23.2244   36.7684 H   0  0  0  0  0  0  0  0  0  0  0  0
   36.8270   22.7836   37.9125 H   0  0  0  0  0  0  0  0  0  0  0  0
   38.4226   23.3520   38.4726 H   0  0  0  0  0  0  0  0  0  0  0  0
   37.4446   20.3864   32.7648 H   0  0  0  0  0  0  0  0  0  0  0  0
   36.1666   23.1926   33.0443 H   0  0  0  0  0  0  0  0  0  0  0  0
   37.3401   22.6766   31.7860 H   0  0  0  0  0  0  0  0  0  0  0  0
   35.6721   22.0100   31.7860 H   0  0  0  0  0  0  0  0  0  0  0  0
   35.8592   20.7794   35.1292 H   0  0  0  0  0  0  0  0  0  0  0  0
   34.8492   21.3520   33.7586 H   0  0  0  0  0  0  0  0  0  0  0  0
   35.4965   19.6764   33.7586 H   0  0  0  0  0  0  0  0  0  0  0  0
  1  3  1  0
  2  1  1  0
  2  3  1  0
  3  4  1  0
  4  5  1  0
  4  8  1  0
  5  6  1  0
  6  7  1  0
  8  7  1  0
  8  9  1  0
 10  1  1  0
 11 12  1  0
 11 10  1  0
 12 13  2  0
 13 14  1  0
 14 18  1  0
 15 14  2  0
 16 15  1  0
 17 16  2  0
 17 12  1  0
 19 21  1  0
 19 16  1  0
 20 19  1  0
  1 22  1  6
  2 23  1  0
  2 24  1  0
  3 25  1  1
  5 26  1  0
  5 27  1  0
  6 28  1  0
  6 29  1  0
  7 30  1  0
  7 31  1  0
  8 32  1  6
  9 33  1  0
 11 34  1  0
 11 35  1  0
 13 36  1  0
 18 37  1  0
 18 38  1  0
 19 39  1  0
 20 40  1  0
 20 41  1  0
 20 42  1  0
 21 43  1  0
 21 44  1  0
 21 45  1  0
M  ISO  8  22  13  23  13  24  13  25  13  26  13  27  13  28  13  29  13
M  ISO  8  30  13  31  13  32  13  33   3  34   8  35   8  36  14  39   8
M  ISO  6  40   8  41   8  42   8  43   8  44   8  45   8
M  END
>  <minimizedAffinity>  (1) 
-4.85504723

>  <minimizedRMSD>  (1) 
1.40964973

$$$$
