
     RDKit          3D

 48 50  0  0  1  0  0  0  0  0999 V2000
   43.5200   23.7710   35.8190 C   0  0  1  0  0  0  0  0  0  0  0  0
   43.7320   25.3490   35.6830 C   0  0  0  0  0  0  0  0  0  0  0  0
   44.0440   24.5680   36.9100 C   0  0  2  0  0  0  0  0  0  0  0  0
   45.3810   24.5210   37.3390 N   0  0  0  0  0  0  0  0  0  0  0  0
   46.3230   24.3410   36.2840 C   0  0  0  0  0  0  0  0  0  0  0  0
   47.6690   24.5650   36.9970 C   0  0  0  0  0  0  0  0  0  0  0  0
   47.3430   25.7570   37.8880 C   0  0  0  0  0  0  0  0  0  0  0  0
   45.8640   25.6330   38.1210 C   0  0  2  0  0  0  0  0  0  0  0  0
   45.5110   25.5680   39.4540 O   0  0  0  0  0  0  0  0  0  0  0  0
   42.1910   23.5370   35.9020 O   0  0  0  0  0  0  0  0  0  0  0  0
   41.7470   22.4250   35.3060 C   0  0  0  0  0  0  0  0  0  0  0  0
   40.2940   22.3270   35.2950 C   0  0  0  0  0  0  0  0  0  0  0  0
   39.7680   22.6790   36.5490 C   0  0  0  0  0  0  0  0  0  0  0  0
   38.3600   22.6730   36.7370 C   0  0  0  0  0  0  0  0  0  0  0  0
   37.5610   22.3070   35.6320 N   0  0  0  0  0  0  0  0  0  0  0  0
   38.1420   21.9740   34.4380 C   0  0  0  0  0  0  0  0  0  0  0  0
   39.4840   21.9870   34.2810 N   0  0  0  0  0  0  0  0  0  0  0  0
   37.6570   22.9870   37.8880 N   0  0  0  0  0  0  0  0  0  0  0  0
   37.2700   21.5990   33.3090 C   0  0  0  0  0  0  0  0  0  0  0  0
   37.9950   20.6300   32.4020 C   0  0  0  0  0  0  0  0  0  0  0  0
   36.0000   20.9180   33.7700 C   0  0  0  0  0  0  0  0  0  0  0  0
   36.9510   22.8300   32.5140 C   0  0  0  0  0  0  0  0  0  0  0  0
   43.8514   22.8459   35.3246 H   0  0  0  0  0  0  0  0  0  0  0  0
   44.5394   25.7546   35.0557 H   0  0  0  0  0  0  0  0  0  0  0  0
   43.1136   26.2211   35.4240 H   0  0  0  0  0  0  0  0  0  0  0  0
   43.7293   24.6163   37.9629 H   0  0  0  0  0  0  0  0  0  0  0  0
   46.2599   23.3265   35.8636 H   0  0  0  0  0  0  0  0  0  0  0  0
   46.1607   25.0167   35.4313 H   0  0  0  0  0  0  0  0  0  0  0  0
   47.9605   23.6864   37.5912 H   0  0  0  0  0  0  0  0  0  0  0  0
   48.5164   24.7315   36.3156 H   0  0  0  0  0  0  0  0  0  0  0  0
   47.8958   25.7001   38.8373 H   0  0  0  0  0  0  0  0  0  0  0  0
   47.6240   26.7185   37.4336 H   0  0  0  0  0  0  0  0  0  0  0  0
   45.3695   26.5560   37.7840 H   0  0  0  0  0  0  0  0  0  0  0  0
   46.3130   25.7157   40.0153 H   0  0  0  0  0  0  0  0  0  0  0  0
   42.1068   22.4168   34.2665 H   0  0  0  0  0  0  0  0  0  0  0  0
   42.1304   21.5684   35.8799 H   0  0  0  0  0  0  0  0  0  0  0  0
   40.4386   22.9561   37.3758 H   0  0  0  0  0  0  0  0  0  0  0  0
   36.6280   22.9424   37.8913 H   0  0  0  0  0  0  0  0  0  0  0  0
   38.1631   23.2652   38.7409 H   0  0  0  0  0  0  0  0  0  0  0  0
   38.5434   19.8971   33.0120 H   0  0  0  0  0  0  0  0  0  0  0  0
   37.2653   20.1060   31.7672 H   0  0  0  0  0  0  0  0  0  0  0  0
   38.7036   21.1821   31.7672 H   0  0  0  0  0  0  0  0  0  0  0  0
   35.9707   20.9023   34.8695 H   0  0  0  0  0  0  0  0  0  0  0  0
   35.1285   21.4698   33.3878 H   0  0  0  0  0  0  0  0  0  0  0  0
   35.9774   19.8868   33.3878 H   0  0  0  0  0  0  0  0  0  0  0  0
   36.7351   23.6631   33.1990 H   0  0  0  0  0  0  0  0  0  0  0  0
   37.8114   23.0902   31.8799 H   0  0  0  0  0  0  0  0  0  0  0  0
   36.0725   22.6396   31.8799 H   0  0  0  0  0  0  0  0  0  0  0  0
  1 10  1  0
  1  3  1  0
  2  1  1  0
  2  3  1  0
  3  4  1  0
  4  5  1  0
  4  8  1  0
  5  6  1  0
  6  7  1  0
  7  8  1  0
  8  9  1  0
 11 10  1  0
 12 11  1  0
 12 13  2  0
 13 14  1  0
 14 18  1  0
 15 14  2  0
 16 15  1  0
 17 16  2  0
 17 12  1  0
 19 21  1  0
 19 16  1  0
 20 19  1  0
 22 19  1  0
  1 23  1  6
  2 24  1  0
  2 25  1  0
  3 26  1  1
  5 27  1  0
  5 28  1  0
  6 29  1  0
  6 30  1  0
  7 31  1  0
  7 32  1  0
  8 33  1  6
  9 34  1  0
 11 35  1  0
 11 36  1  0
 13 37  1  0
 18 38  1  0
 18 39  1  0
 20 40  1  0
 20 41  1  0
 20 42  1  0
 21 43  1  0
 21 44  1  0
 21 45  1  0
 22 46  1  0
 22 47  1  0
 22 48  1  0
M  ISO  8  23  13  24  13  25  13  26  13  27  13  28  13  29  13  30  13
M  ISO  8  31  13  32  13  33  13  34   3  35   8  36   8  37  14  40   8
M  ISO  8  41   8  42   8  43   8  44   8  45   8  46   8  47   8  48   8
M  END
>  <minimizedAffinity>  (1) 
-4.83383131

>  <minimizedRMSD>  (1) 
1.15250278

$$$$
