
     RDKit          3D

 42 44  0  0  1  0  0  0  0  0999 V2000
   43.4380   23.3780   36.4350 C   0  0  1  0  0  0  0  0  0  0  0  0
   43.8340   24.6450   35.5510 C   0  0  0  0  0  0  0  0  0  0  0  0
   44.1440   24.5090   37.0010 C   0  0  2  0  0  0  0  0  0  0  0  0
   45.4940   24.4700   37.3840 N   0  0  0  0  0  0  0  0  0  0  0  0
   46.4020   24.2950   36.3000 C   0  0  0  0  0  0  0  0  0  0  0  0
   47.7720   24.5470   36.9530 C   0  0  0  0  0  0  0  0  0  0  0  0
   47.4690   25.7110   37.8700 C   0  0  0  0  0  0  0  0  0  0  0  0
   45.9940   25.5860   38.1490 C   0  0  2  0  0  0  0  0  0  0  0  0
   45.6850   25.5170   39.4940 O   0  0  0  0  0  0  0  0  0  0  0  0
   42.0960   23.4170   36.6340 O   0  0  0  0  0  0  0  0  0  0  0  0
   41.4600   22.2450   36.4890 C   0  0  0  0  0  0  0  0  0  0  0  0
   39.9880   22.4220   36.5770 C   0  0  0  0  0  0  0  0  0  0  0  0
   39.6160   23.2480   37.6250 C   0  0  0  0  0  0  0  0  0  0  0  0
   38.2520   23.5220   37.8290 C   0  0  0  0  0  0  0  0  0  0  0  0
   37.3370   22.9230   36.9370 N   0  0  0  0  0  0  0  0  0  0  0  0
   37.7680   22.1220   35.9300 C   0  0  0  0  0  0  0  0  0  0  0  0
   39.0850   21.8740   35.7510 N   0  0  0  0  0  0  0  0  0  0  0  0
   37.7060   24.3250   38.8240 N   0  0  0  0  0  0  0  0  0  0  0  0
   36.7950   21.5120   35.0160 C   0  0  0  0  0  0  0  0  0  0  0  0
   35.7070   20.8750   35.8800 C   0  0  0  0  0  0  0  0  0  0  0  0
   43.6094   22.2915   36.4464 H   0  0  0  0  0  0  0  0  0  0  0  0
   44.6326   24.5760   34.7977 H   0  0  0  0  0  0  0  0  0  0  0  0
   43.3110   25.3682   34.9080 H   0  0  0  0  0  0  0  0  0  0  0  0
   43.9245   25.1009   37.9018 H   0  0  0  0  0  0  0  0  0  0  0  0
   46.3397   23.2751   35.8926 H   0  0  0  0  0  0  0  0  0  0  0  0
   46.1970   24.9629   35.4503 H   0  0  0  0  0  0  0  0  0  0  0  0
   48.1128   23.6684   37.5204 H   0  0  0  0  0  0  0  0  0  0  0  0
   48.5788   24.7463   36.2323 H   0  0  0  0  0  0  0  0  0  0  0  0
   48.0501   25.6360   38.8010 H   0  0  0  0  0  0  0  0  0  0  0  0
   47.7329   26.6805   37.4222 H   0  0  0  0  0  0  0  0  0  0  0  0
   45.4854   26.5071   37.8283 H   0  0  0  0  0  0  0  0  0  0  0  0
   46.4979   25.6985   40.0291 H   0  0  0  0  0  0  0  0  0  0  0  0
   41.7875   21.5577   37.2830 H   0  0  0  0  0  0  0  0  0  0  0  0
   41.7043   21.8347   35.4981 H   0  0  0  0  0  0  0  0  0  0  0  0
   40.3774   23.6837   38.2887 H   0  0  0  0  0  0  0  0  0  0  0  0
   36.6857   24.4555   38.8785 H   0  0  0  0  0  0  0  0  0  0  0  0
   38.3218   24.7894   39.5067 H   0  0  0  0  0  0  0  0  0  0  0  0
   37.2856   20.7441   34.3998 H   0  0  0  0  0  0  0  0  0  0  0  0
   36.3668   22.2659   34.3390 H   0  0  0  0  0  0  0  0  0  0  0  0
   35.9519   21.0184   36.9428 H   0  0  0  0  0  0  0  0  0  0  0  0
   34.7392   21.3492   35.6595 H   0  0  0  0  0  0  0  0  0  0  0  0
   35.6468   19.7990   35.6595 H   0  0  0  0  0  0  0  0  0  0  0  0
  1 10  1  0
  1  3  1  0
  2  1  1  0
  2  3  1  0
  3  4  1  0
  4  5  1  0
  4  8  1  0
  5  6  1  0
  6  7  1  0
  7  8  1  0
  8  9  1  0
 11 12  1  0
 11 10  1  0
 12 13  2  0
 13 14  1  0
 14 18  1  0
 15 14  2  0
 16 15  1  0
 17 16  2  0
 17 12  1  0
 19 20  1  0
 19 16  1  0
  1 21  1  6
  2 22  1  0
  2 23  1  0
  3 24  1  1
  5 25  1  0
  5 26  1  0
  6 27  1  0
  6 28  1  0
  7 29  1  0
  7 30  1  0
  8 31  1  6
  9 32  1  0
 11 33  1  0
 11 34  1  0
 13 35  1  0
 18 36  1  0
 18 37  1  0
 19 38  1  0
 19 39  1  0
 20 40  1  0
 20 41  1  0
 20 42  1  0
M  ISO  8  21  13  22  13  23  13  24  13  25  13  26  13  27  13  28  13
M  ISO  8  29  13  30  13  31  13  32   3  33   8  34   8  35  14  38   8
M  ISO  4  39   8  40   8  41   8  42   8
M  END
>  <minimizedAffinity>  (1) 
-4.86414719

>  <minimizedRMSD>  (1) 
0.417220801

$$$$
