
     RDKit          3D

 20 21  0  0  0  0  0  0  0  0999 V2000
   40.5490   26.9480   34.6620 C   0  0  0  0  0  0  0  0  0  0  0  0
   39.1920   26.9800   34.3160 C   0  0  0  0  0  0  0  0  0  0  0  0
   38.8090   27.1430   32.9910 C   0  0  0  0  0  0  0  0  0  0  0  0
   39.8140   27.2650   32.0820 N   0  0  0  0  0  0  0  0  0  0  0  0
   41.1210   27.2330   32.4250 C   0  0  0  0  0  0  0  0  0  0  0  0
   41.4970   27.0720   33.7290 N   0  0  0  0  0  0  0  0  0  0  0  0
   38.1000   26.8540   35.2480 C   0  0  0  0  0  0  0  0  0  0  0  0
   36.8760   27.1600   35.0070 O   0  0  0  0  0  0  0  0  0  0  0  0
   38.1830   26.3840   36.5650 O   0  0  0  0  0  0  0  0  0  0  0  0
   38.1110   25.0280   36.8580 C   0  0  0  0  0  0  0  0  0  0  0  0
   38.0930   23.8530   36.1340 C   0  0  0  0  0  0  0  0  0  0  0  0
   38.0060   22.8480   37.0990 C   0  0  0  0  0  0  0  0  0  0  0  0
   37.9760   23.4600   38.3550 C   0  0  0  0  0  0  0  0  0  0  0  0
   38.0410   24.7590   38.1470 O   0  0  0  0  0  0  0  0  0  0  0  0
   40.8377   26.8191   35.7156 H   0  0  0  0  0  0  0  0  0  0  0  0
   37.7506   27.1719   32.6927 H   0  0  0  0  0  0  0  0  0  0  0  0
   41.8905   27.3377   31.6460 H   0  0  0  0  0  0  0  0  0  0  0  0
   38.1373   23.7349   35.0413 H   0  0  0  0  0  0  0  0  0  0  0  0
   37.9678   21.7659   36.9051 H   0  0  0  0  0  0  0  0  0  0  0  0
   37.9107   22.9543   39.3297 H   0  0  0  0  0  0  0  0  0  0  0  0
  2  1  2  0
  2  7  1  0
  3  2  1  0
  4  5  1  0
  4  3  2  0
  5  6  2  0
  6  1  1  0
  7  9  1  0
  8  7  2  0
  9 10  1  0
 10 14  1  0
 11 10  2  0
 11 12  1  0
 12 13  2  0
 14 13  1  0
  1 15  1  0
  3 16  1  0
  5 17  1  0
 11 18  1  0
 12 19  1  0
 13 20  1  0
M  ISO  6  15  14  16  14  17  14  18  14  19  14  20  14
M  END
>  <minimizedAffinity>  (1) 
-3.55570793

>  <minimizedRMSD>  (1) 
4.67631483

$$$$
