
     RDKit          3D

 45 47  0  0  1  0  0  0  0  0999 V2000
   37.4120   26.0190   35.2740 C   0  0  0  0  0  0  0  0  0  0  0  0
   36.1250   29.1480   32.7520 C   0  0  0  0  0  0  0  0  0  0  0  0
   36.4860   27.9290   32.2430 C   0  0  0  0  0  0  0  0  0  0  0  0
   36.8970   26.9400   33.1350 C   0  0  0  0  0  0  0  0  0  0  0  0
   36.9340   27.1900   34.4940 C   0  0  0  0  0  0  0  0  0  0  0  0
   36.5720   28.4070   35.0080 C   0  0  0  0  0  0  0  0  0  0  0  0
   36.1650   29.3940   34.1360 C   0  0  0  0  0  0  0  0  0  0  0  0
   35.5900   30.3980   31.6530 S   0  0  0  0  0  0  0  0  0  0  0  0
   36.1580   30.0560   30.2760 O   0  0  0  0  0  0  0  0  0  0  0  0
   36.1070   31.7330   32.0640 O   0  0  0  0  0  0  0  0  0  0  0  0
   33.8450   30.4220   31.6130 C   0  0  0  0  0  0  0  0  0  0  0  0
   33.2130   30.2470   32.9710 C   0  0  0  0  0  0  0  0  0  0  0  0
   31.7450   30.4870   32.6210 C   0  0  0  0  0  0  0  0  0  0  0  0
   31.7650   31.4670   31.4640 C   0  0  0  0  0  0  0  0  0  0  0  0
   33.2480   31.7110   31.1630 C   0  0  0  0  0  0  0  0  0  0  0  0
   38.8220   25.6180   34.9590 C   0  0  2  0  0  0  0  0  0  0  0  0
   41.0380   23.0350   36.3160 C   0  0  0  0  0  0  0  0  0  0  0  0
   40.3210   22.5490   37.4530 C   0  0  0  0  0  0  0  0  0  0  0  0
   39.0710   23.1240   37.7350 C   0  0  0  0  0  0  0  0  0  0  0  0
   38.6190   24.1180   36.9010 N   0  0  0  0  0  0  0  0  0  0  0  0
   39.3210   24.5510   35.8400 C   0  0  0  0  0  0  0  0  0  0  0  0
   40.5290   24.0160   35.5410 N   0  0  0  0  0  0  0  0  0  0  0  0
   39.7090   26.8450   35.1520 C   0  0  0  0  0  0  0  0  0  0  0  0
   37.3526   26.2672   36.3440 H   0  0  0  0  0  0  0  0  0  0  0  0
   36.7686   25.1689   35.0032 H   0  0  0  0  0  0  0  0  0  0  0  0
   36.4526   27.7358   31.1606 H   0  0  0  0  0  0  0  0  0  0  0  0
   37.1945   25.9519   32.7542 H   0  0  0  0  0  0  0  0  0  0  0  0
   36.6053   28.5924   36.0917 H   0  0  0  0  0  0  0  0  0  0  0  0
   35.8698   30.3797   34.5250 H   0  0  0  0  0  0  0  0  0  0  0  0
   33.6429   29.5962   30.9150 H   0  0  0  0  0  0  0  0  0  0  0  0
   33.3764   29.2345   33.3687 H   0  0  0  0  0  0  0  0  0  0  0  0
   33.6138   30.9072   33.7543 H   0  0  0  0  0  0  0  0  0  0  0  0
   31.2616   29.5457   32.3204 H   0  0  0  0  0  0  0  0  0  0  0  0
   31.1771   30.8765   33.4788 H   0  0  0  0  0  0  0  0  0  0  0  0
   31.2599   31.0369   30.5866 H   0  0  0  0  0  0  0  0  0  0  0  0
   31.2384   32.4009   31.7098 H   0  0  0  0  0  0  0  0  0  0  0  0
   33.4195   31.8829   30.0901 H   0  0  0  0  0  0  0  0  0  0  0  0
   33.6696   32.6014   31.6523 H   0  0  0  0  0  0  0  0  0  0  0  0
   38.8441   25.2365   33.9275 H   0  0  0  0  0  0  0  0  0  0  0  0
   42.0191   22.6032   36.0689 H   0  0  0  0  0  0  0  0  0  0  0  0
   40.7347   21.7506   38.0866 H   0  0  0  0  0  0  0  0  0  0  0  0
   38.4732   22.7894   38.5957 H   0  0  0  0  0  0  0  0  0  0  0  0
   39.8453   27.0335   36.2271 H   0  0  0  0  0  0  0  0  0  0  0  0
   40.6884   26.6667   34.6840 H   0  0  0  0  0  0  0  0  0  0  0  0
   39.2326   27.7191   34.6840 H   0  0  0  0  0  0  0  0  0  0  0  0
  2  7  1  0
  3  2  2  0
  3  4  1  0
  4  5  2  0
  5  6  1  0
  5  1  1  0
  7  6  2  0
  8 10  2  0
  8  2  1  0
  9  8  2  0
 11  8  1  0
 11 12  1  0
 13 12  1  0
 14 13  1  0
 15 14  1  0
 15 11  1  0
 16 23  1  0
 16  1  1  0
 16 21  1  0
 17 18  2  0
 18 19  1  0
 20 19  2  0
 21 20  1  0
 22 21  2  0
 22 17  1  0
  1 24  1  0
  1 25  1  0
  3 26  1  0
  4 27  1  0
  6 28  1  0
  7 29  1  0
 11 30  1  0
 12 31  1  0
 12 32  1  0
 13 33  1  0
 13 34  1  0
 14 35  1  0
 14 36  1  0
 15 37  1  0
 15 38  1  0
 16 39  1  6
 17 40  1  0
 18 41  1  0
 19 42  1  0
 23 43  1  0
 23 44  1  0
 23 45  1  0
M  ISO  8  24   8  25   8  26  14  27  14  28  14  29  14  30  13  31  13
M  ISO  8  32  13  33  13  34  13  35  13  36  13  37  13  38  13  39   8
M  ISO  6  40  14  41  14  42  14  43   8  44   8  45   8
M  END
>  <minimizedAffinity>  (1) 
-4.84764957

>  <minimizedRMSD>  (1) 
1.84439731

$$$$
