
     RDKit          3D

 23 23  0  0  0  0  0  0  0  0999 V2000
   39.4090   25.9990   35.2140 C   0  0  0  0  0  0  0  0  0  0  0  0
   39.7930   24.6750   35.4780 C   0  0  0  0  0  0  0  0  0  0  0  0
   41.1000   24.2600   35.2430 C   0  0  0  0  0  0  0  0  0  0  0  0
   41.9610   25.1840   34.7560 N   0  0  0  0  0  0  0  0  0  0  0  0
   41.5850   26.4480   34.5060 C   0  0  0  0  0  0  0  0  0  0  0  0
   40.3240   26.8460   34.7330 N   0  0  0  0  0  0  0  0  0  0  0  0
   42.5360   27.3740   33.9940 N   0  0  0  0  0  0  0  0  0  0  0  0
   43.9280   27.0800   34.0430 C   0  0  0  0  0  0  0  0  0  0  0  0
   44.2620   25.9320   34.5320 N   0  0  0  0  0  0  0  0  0  0  0  0
   44.8360   28.0840   33.5440 N   0  0  0  0  0  0  0  0  0  0  0  0
   45.2710   25.6730   34.5880 H   0  0  0  0  0  0  0  0  0  0  0  0
   38.9240   23.6510   35.9950 C   0  0  0  0  0  0  0  0  0  0  0  0
   37.9560   23.0990   35.4000 O   0  0  0  0  0  0  0  0  0  0  0  0
   38.9640   23.0560   37.2460 O   0  0  0  0  0  0  0  0  0  0  0  0
   38.3270   23.6740   38.3840 C   0  0  0  0  0  0  0  0  0  0  0  0
   37.3080   22.8310   38.8380 F   0  0  0  0  0  0  0  0  0  0  0  0
   37.8790   24.9260   38.0720 F   0  0  0  0  0  0  0  0  0  0  0  0
   39.2510   23.7350   39.3940 F   0  0  0  0  0  0  0  0  0  0  0  0
   38.3772   26.3323   35.3990 H   0  0  0  0  0  0  0  0  0  0  0  0
   41.4195   23.2268   35.4440 H   0  0  0  0  0  0  0  0  0  0  0  0
   42.2151   28.2632   33.5851 H   0  0  0  0  0  0  0  0  0  0  0  0
   45.8517   27.9135   33.5602 H   0  0  0  0  0  0  0  0  0  0  0  0
   44.4686   28.9712   33.1716 H   0  0  0  0  0  0  0  0  0  0  0  0
  1  2  2  0
  2 12  1  0
  3  2  1  0
  4  3  2  0
  5  6  2  0
  5  4  1  0
  6  1  1  0
  7  8  1  0
  7  5  1  0
  8  9  2  0
  9 11  1  0
 10  8  1  0
 12 14  1  0
 13 12  2  0
 14 15  1  0
 15 16  1  0
 15 18  1  0
 17 15  1  0
  1 19  1  0
  3 20  1  0
  7 21  1  0
 10 22  1  0
 10 23  1  0
M  ISO  2  19  14  20  14
M  END
>  <minimizedAffinity>  (1) 
-4.89299965

>  <minimizedRMSD>  (1) 
0.57857424

$$$$
