
     RDKit          3D

 26 27  0  0  0  0  0  0  0  0999 V2000
   40.0910   25.1340   35.1390 C   0  0  0  0  0  0  0  0  0  0  0  0
   40.3280   23.9060   35.7400 C   0  0  0  0  0  0  0  0  0  0  0  0
   41.6350   23.4690   35.9520 C   0  0  0  0  0  0  0  0  0  0  0  0
   42.6400   24.2670   35.5600 N   0  0  0  0  0  0  0  0  0  0  0  0
   42.3980   25.4710   34.9720 C   0  0  0  0  0  0  0  0  0  0  0  0
   41.1340   25.8910   34.7680 N   0  0  0  0  0  0  0  0  0  0  0  0
   43.5050   26.2660   34.5820 N   0  0  0  0  0  0  0  0  0  0  0  0
   44.7300   26.1130   35.1350 C   0  0  0  0  0  0  0  0  0  0  0  0
   45.7200   26.9490   34.6670 C   0  0  0  0  0  0  0  0  0  0  0  0
   45.5590   27.9120   33.6970 C   0  0  0  0  0  0  0  0  0  0  0  0
   46.5330   28.6220   33.3430 O   0  0  0  0  0  0  0  0  0  0  0  0
   44.3170   28.0200   33.1810 N   0  0  0  0  0  0  0  0  0  0  0  0
   43.3370   27.2110   33.6250 C   0  0  0  0  0  0  0  0  0  0  0  0
   42.1720   27.3370   33.1170 O   0  0  0  0  0  0  0  0  0  0  0  0
   39.3250   22.9840   36.1910 C   0  0  0  0  0  0  0  0  0  0  0  0
   38.5040   22.3420   35.4550 O   0  0  0  0  0  0  0  0  0  0  0  0
   39.0410   22.5990   37.4920 O   0  0  0  0  0  0  0  0  0  0  0  0
   38.2780   23.4590   38.3540 C   0  0  0  0  0  0  0  0  0  0  0  0
   37.2380   22.7430   38.9410 F   0  0  0  0  0  0  0  0  0  0  0  0
   37.8390   24.5710   37.6770 F   0  0  0  0  0  0  0  0  0  0  0  0
   39.1150   23.8330   39.3820 F   0  0  0  0  0  0  0  0  0  0  0  0
   39.0614   25.4819   34.9691 H   0  0  0  0  0  0  0  0  0  0  0  0
   41.8365   22.4976   36.4271 H   0  0  0  0  0  0  0  0  0  0  0  0
   44.9249   25.3625   35.9153 H   0  0  0  0  0  0  0  0  0  0  0  0
   46.7228   26.8375   35.1052 H   0  0  0  0  0  0  0  0  0  0  0  0
   44.1195   28.7186   32.4503 H   0  0  0  0  0  0  0  0  0  0  0  0
  1  2  2  0
  2  3  1  0
  2 15  1  0
  4  3  2  0
  5  4  1  0
  6  5  2  0
  6  1  1  0
  7  5  1  0
  7  8  1  0
  9  8  2  0
 10  9  1  0
 11 10  2  0
 12 13  1  0
 12 10  1  0
 13  7  1  0
 14 13  2  0
 15 17  1  0
 16 15  2  0
 17 18  1  0
 18 19  1  0
 18 21  1  0
 20 18  1  0
  1 22  1  0
  3 23  1  0
  8 24  1  0
  9 25  1  0
 12 26  1  0
M  ISO  5  22  14  23  14  24  14  25  14  26   9
M  END
>  <minimizedAffinity>  (1) 
-4.83257914

>  <minimizedRMSD>  (1) 
2.03504324

$$$$
