
     RDKit          3D

 30 32  0  0  0  0  0  0  0  0999 V2000
   37.7450   26.0740   35.6230 C   0  0  0  0  0  0  0  0  0  0  0  0
   37.9890   24.7600   35.2290 C   0  0  0  0  0  0  0  0  0  0  0  0
   37.8100   24.3900   33.8860 C   0  0  0  0  0  0  0  0  0  0  0  0
   37.4040   25.3460   33.0320 N   0  0  0  0  0  0  0  0  0  0  0  0
   37.1740   26.6080   33.4290 C   0  0  0  0  0  0  0  0  0  0  0  0
   37.3460   26.9640   34.7240 N   0  0  0  0  0  0  0  0  0  0  0  0
   36.7290   27.6820   32.5230 C   0  0  0  0  0  0  0  0  0  0  0  0
   35.5660   28.4260   32.5530 C   0  0  0  0  0  0  0  0  0  0  0  0
   35.5610   29.3060   31.5340 N   0  0  0  0  0  0  0  0  0  0  0  0
   36.7080   29.1160   30.8720 C   0  0  0  0  0  0  0  0  0  0  0  0
   37.1450   29.7950   29.7460 C   0  0  0  0  0  0  0  0  0  0  0  0
   38.3620   29.4810   29.1760 C   0  0  0  0  0  0  0  0  0  0  0  0
   39.1410   28.4940   29.7240 C   0  0  0  0  0  0  0  0  0  0  0  0
   38.6790   27.8280   30.8530 C   0  0  0  0  0  0  0  0  0  0  0  0
   37.4660   28.1280   31.4370 C   0  0  0  0  0  0  0  0  0  0  0  0
   38.4220   23.6880   36.0730 C   0  0  0  0  0  0  0  0  0  0  0  0
   38.2480   22.4430   35.8630 O   0  0  0  0  0  0  0  0  0  0  0  0
   39.1120   23.7660   37.2850 O   0  0  0  0  0  0  0  0  0  0  0  0
   38.3990   23.9160   38.5190 C   0  0  0  0  0  0  0  0  0  0  0  0
   37.4030   22.9530   38.6070 F   0  0  0  0  0  0  0  0  0  0  0  0
   37.9040   25.1930   38.6460 F   0  0  0  0  0  0  0  0  0  0  0  0
   39.2920   23.6740   39.5420 F   0  0  0  0  0  0  0  0  0  0  0  0
   37.8824   26.3715   36.6731 H   0  0  0  0  0  0  0  0  0  0  0  0
   37.9944   23.3601   33.5466 H   0  0  0  0  0  0  0  0  0  0  0  0
   34.7639   28.3162   33.2977 H   0  0  0  0  0  0  0  0  0  0  0  0
   34.8227   29.9882   31.3093 H   0  0  0  0  0  0  0  0  0  0  0  0
   36.5205   30.5861   29.3054 H   0  0  0  0  0  0  0  0  0  0  0  0
   38.7071   30.0220   28.2826 H   0  0  0  0  0  0  0  0  0  0  0  0
   40.1127   28.2346   29.2785 H   0  0  0  0  0  0  0  0  0  0  0  0
   39.3010   27.0358   31.2952 H   0  0  0  0  0  0  0  0  0  0  0  0
  2  1  2  0
  2 16  1  0
  3  2  1  0
  4  5  1  0
  4  3  2  0
  5  6  2  0
  6  1  1  0
  7  8  2  0
  7  5  1  0
  9  8  1  0
 10 15  2  0
 10  9  1  0
 11 10  1  0
 12 13  1  0
 12 11  2  0
 13 14  2  0
 14 15  1  0
 15  7  1  0
 16 18  1  0
 17 16  2  0
 18 19  1  0
 19 20  1  0
 19 21  1  0
 19 22  1  0
  1 23  1  0
  3 24  1  0
  8 25  1  0
  9 26  1  0
 11 27  1  0
 12 28  1  0
 13 29  1  0
 14 30  1  0
M  ISO  8  23  14  24  14  25  14  26   9  27  14  28  14  29  14  30  14
M  END
>  <minimizedAffinity>  (1) 
-5.51315117

>  <minimizedRMSD>  (1) 
4.83527756

$$$$
