
     RDKit          3D

 22 23  0  0  0  0  0  0  0  0999 V2000
   37.6770   25.8800   35.6170 C   0  0  0  0  0  0  0  0  0  0  0  0
   38.0180   24.5900   35.2380 C   0  0  0  0  0  0  0  0  0  0  0  0
   38.0430   24.2310   33.8750 C   0  0  0  0  0  0  0  0  0  0  0  0
   37.7240   25.1870   32.9800 N   0  0  0  0  0  0  0  0  0  0  0  0
   37.3940   26.4410   33.3770 C   0  0  0  0  0  0  0  0  0  0  0  0
   37.3700   26.7850   34.6780 N   0  0  0  0  0  0  0  0  0  0  0  0
   37.0380   27.5310   32.4690 C   0  0  0  0  0  0  0  0  0  0  0  0
   35.8660   28.3120   32.5880 C   0  0  0  0  0  0  0  0  0  0  0  0
   36.0750   29.4860   31.1110 S   0  0  0  0  0  0  0  0  0  0  0  0
   37.7180   28.6480   30.6580 C   0  0  0  0  0  0  0  0  0  0  0  0
   37.8790   27.7980   31.4640 N   0  0  0  0  0  0  0  0  0  0  0  0
   38.3680   23.5170   36.1230 C   0  0  0  0  0  0  0  0  0  0  0  0
   38.0930   22.2960   35.9950 O   0  0  0  0  0  0  0  0  0  0  0  0
   39.0910   23.6090   37.3230 O   0  0  0  0  0  0  0  0  0  0  0  0
   38.4120   23.8490   38.5670 C   0  0  0  0  0  0  0  0  0  0  0  0
   37.4240   22.9000   38.7760 F   0  0  0  0  0  0  0  0  0  0  0  0
   37.9190   25.1350   38.6190 F   0  0  0  0  0  0  0  0  0  0  0  0
   39.3390   23.6840   39.5740 F   0  0  0  0  0  0  0  0  0  0  0  0
   37.6588   26.1580   36.6811 H   0  0  0  0  0  0  0  0  0  0  0  0
   38.3116   23.2133   33.5553 H   0  0  0  0  0  0  0  0  0  0  0  0
   35.0567   28.2552   33.3309 H   0  0  0  0  0  0  0  0  0  0  0  0
   38.3827   28.9012   29.8189 H   0  0  0  0  0  0  0  0  0  0  0  0
  2  1  2  0
  2 12  1  0
  3  2  1  0
  4  5  1  0
  4  3  2  0
  5  6  2  0
  6  1  1  0
  7  8  2  0
  7  5  1  0
  9  8  1  0
 10  9  1  0
 10 11  2  0
 11  7  1  0
 12 14  1  0
 13 12  2  0
 14 15  1  0
 15 17  1  0
 15 16  1  0
 15 18  1  0
  1 19  1  0
  3 20  1  0
  8 21  1  0
 10 22  1  0
M  ISO  4  19  14  20  14  21  14  22  14
M  END
>  <minimizedAffinity>  (1) 
-4.67244101

>  <minimizedRMSD>  (1) 
3.49802613

$$$$
