
     RDKit          3D

 31 32  0  0  0  0  0  0  0  0999 V2000
   39.4830   25.8810   35.2100 C   0  0  0  0  0  0  0  0  0  0  0  0
   39.7780   24.5520   35.4840 C   0  0  0  0  0  0  0  0  0  0  0  0
   41.0380   24.0360   35.1270 C   0  0  0  0  0  0  0  0  0  0  0  0
   41.9120   24.8770   34.5230 N   0  0  0  0  0  0  0  0  0  0  0  0
   41.5950   26.1640   34.2730 C   0  0  0  0  0  0  0  0  0  0  0  0
   40.3960   26.6670   34.6090 N   0  0  0  0  0  0  0  0  0  0  0  0
   42.5670   26.9840   33.6360 N   0  0  0  0  0  0  0  0  0  0  0  0
   42.2360   27.8600   32.5540 C   0  0  0  0  0  0  0  0  0  0  0  0
   43.1250   27.6620   31.3490 C   0  0  0  0  0  0  0  0  0  0  0  0
   44.5730   27.4910   31.7100 C   0  0  0  0  0  0  0  0  0  0  0  0
   44.8720   27.6650   33.1740 C   0  0  0  0  0  0  0  0  0  0  0  0
   43.9360   26.9480   34.0800 C   0  0  0  0  0  0  0  0  0  0  0  0
   38.9170   23.5990   36.1140 C   0  0  0  0  0  0  0  0  0  0  0  0
   37.8970   23.0560   35.6210 O   0  0  0  0  0  0  0  0  0  0  0  0
   39.0370   23.0780   37.4120 O   0  0  0  0  0  0  0  0  0  0  0  0
   38.3460   23.6840   38.5080 C   0  0  0  0  0  0  0  0  0  0  0  0
   37.3260   22.8470   38.9440 F   0  0  0  0  0  0  0  0  0  0  0  0
   37.9050   24.9370   38.1790 F   0  0  0  0  0  0  0  0  0  0  0  0
   39.2630   23.7720   39.5490 F   0  0  0  0  0  0  0  0  0  0  0  0
   38.5006   26.2927   35.4848 H   0  0  0  0  0  0  0  0  0  0  0  0
   41.3035   22.9882   35.3309 H   0  0  0  0  0  0  0  0  0  0  0  0
   41.1936   27.6731   32.2565 H   0  0  0  0  0  0  0  0  0  0  0  0
   42.3804   28.8919   32.9067 H   0  0  0  0  0  0  0  0  0  0  0  0
   43.0284   28.5404   30.6939 H   0  0  0  0  0  0  0  0  0  0  0  0
   42.7994   26.7385   30.8480 H   0  0  0  0  0  0  0  0  0  0  0  0
   44.8846   26.4788   31.4129 H   0  0  0  0  0  0  0  0  0  0  0  0
   45.1246   28.2816   31.1803 H   0  0  0  0  0  0  0  0  0  0  0  0
   45.8891   27.2919   33.3644 H   0  0  0  0  0  0  0  0  0  0  0  0
   44.7616   28.7374   33.3924 H   0  0  0  0  0  0  0  0  0  0  0  0
   43.9914   27.4118   35.0759 H   0  0  0  0  0  0  0  0  0  0  0  0
   44.2441   25.8921   34.0940 H   0  0  0  0  0  0  0  0  0  0  0  0
  1  2  2  0
  2 13  1  0
  3  2  1  0
  4  3  2  0
  5  4  1  0
  5  6  2  0
  6  1  1  0
  7 12  1  0
  7  5  1  0
  8  7  1  0
  9 10  1  0
  9  8  1  0
 10 11  1  0
 11 12  1  0
 13 15  1  0
 14 13  2  0
 15 16  1  0
 16 17  1  0
 16 19  1  0
 18 16  1  0
  1 20  1  0
  3 21  1  0
  8 22  1  0
  8 23  1  0
  9 24  1  0
  9 25  1  0
 10 26  1  0
 10 27  1  0
 11 28  1  0
 11 29  1  0
 12 30  1  0
 12 31  1  0
M  ISO  8  20  14  21  14  22  13  23  13  24  13  25  13  26  13  27  13
M  ISO  4  28  13  29  13  30  13  31  13
M  END
>  <minimizedAffinity>  (1) 
-4.46226978

>  <minimizedRMSD>  (1) 
0.809025586

$$$$
