
     RDKit          3D

 18 18  0  0  0  0  0  0  0  0999 V2000
   39.3370   25.9800   35.2130 C   0  0  0  0  0  0  0  0  0  0  0  0
   39.7570   24.6870   35.4870 C   0  0  0  0  0  0  0  0  0  0  0  0
   41.0870   24.2980   35.2630 C   0  0  0  0  0  0  0  0  0  0  0  0
   41.9240   25.2420   34.7720 N   0  0  0  0  0  0  0  0  0  0  0  0
   41.4910   26.5060   34.5100 C   0  0  0  0  0  0  0  0  0  0  0  0
   40.2150   26.8710   34.7270 N   0  0  0  0  0  0  0  0  0  0  0  0
   42.4840   27.3910   33.9970 N   0  0  0  0  0  0  0  0  0  0  0  0
   38.9340   23.6270   36.0100 C   0  0  0  0  0  0  0  0  0  0  0  0
   37.9950   23.0250   35.4170 O   0  0  0  0  0  0  0  0  0  0  0  0
   38.9980   23.0380   37.2840 O   0  0  0  0  0  0  0  0  0  0  0  0
   38.3230   23.6580   38.3970 C   0  0  0  0  0  0  0  0  0  0  0  0
   37.3140   22.8160   38.8490 F   0  0  0  0  0  0  0  0  0  0  0  0
   37.8680   24.9130   38.0720 F   0  0  0  0  0  0  0  0  0  0  0  0
   39.2490   23.7570   39.4230 F   0  0  0  0  0  0  0  0  0  0  0  0
   38.2921   26.2730   35.3927 H   0  0  0  0  0  0  0  0  0  0  0  0
   41.4324   23.2756   35.4761 H   0  0  0  0  0  0  0  0  0  0  0  0
   43.4468   27.0556   33.8509 H   0  0  0  0  0  0  0  0  0  0  0  0
   42.2386   28.3658   33.7725 H   0  0  0  0  0  0  0  0  0  0  0  0
  1  2  2  0
  2  8  1  0
  3  2  1  0
  4  3  2  0
  5  6  2  0
  5  4  1  0
  6  1  1  0
  7  5  1  0
  8 10  1  0
  9  8  2  0
 10 11  1  0
 11 12  1  0
 11 14  1  0
 13 11  1  0
  1 15  1  0
  3 16  1  0
  7 17  1  0
  7 18  1  0
M  ISO  2  15  14  16  14
M  END
>  <minimizedAffinity>  (1) 
-4.29736805

>  <minimizedRMSD>  (1) 
0.378768116

$$$$
