
     RDKit          3D

 25 25  0  0  0  0  0  0  0  0999 V2000
   39.3120   25.8800   35.1560 C   0  0  0  0  0  0  0  0  0  0  0  0
   39.7060   24.5910   35.5130 C   0  0  0  0  0  0  0  0  0  0  0  0
   41.0220   24.1600   35.2860 C   0  0  0  0  0  0  0  0  0  0  0  0
   41.8640   25.0370   34.7190 N   0  0  0  0  0  0  0  0  0  0  0  0
   41.4690   26.2900   34.3760 C   0  0  0  0  0  0  0  0  0  0  0  0
   40.1910   26.7050   34.5960 N   0  0  0  0  0  0  0  0  0  0  0  0
   42.3330   27.3190   33.7460 C   0  0  0  0  0  0  0  0  0  0  0  0
   41.7230   27.5500   32.3570 C   0  0  0  0  0  0  0  0  0  0  0  0
   43.7750   26.9020   33.6670 C   0  0  0  0  0  0  0  0  0  0  0  0
   38.8690   23.5910   36.1240 C   0  0  0  0  0  0  0  0  0  0  0  0
   37.8670   23.0160   35.6050 O   0  0  0  0  0  0  0  0  0  0  0  0
   38.9830   23.0520   37.3990 O   0  0  0  0  0  0  0  0  0  0  0  0
   38.3270   23.6650   38.5240 C   0  0  0  0  0  0  0  0  0  0  0  0
   37.3180   22.8340   38.9810 F   0  0  0  0  0  0  0  0  0  0  0  0
   37.8780   24.9250   38.1960 F   0  0  0  0  0  0  0  0  0  0  0  0
   39.2660   23.7620   39.5420 F   0  0  0  0  0  0  0  0  0  0  0  0
   38.2791   26.2124   35.3368 H   0  0  0  0  0  0  0  0  0  0  0  0
   41.3491   23.1465   35.5612 H   0  0  0  0  0  0  0  0  0  0  0  0
   42.3560   28.2411   34.3454 H   0  0  0  0  0  0  0  0  0  0  0  0
   40.6993   27.9376   32.4659 H   0  0  0  0  0  0  0  0  0  0  0  0
   42.3343   28.2789   31.8047 H   0  0  0  0  0  0  0  0  0  0  0  0
   41.6981   26.5990   31.8047 H   0  0  0  0  0  0  0  0  0  0  0  0
   44.1791   26.7851   34.6834 H   0  0  0  0  0  0  0  0  0  0  0  0
   43.8511   25.9451   33.1299 H   0  0  0  0  0  0  0  0  0  0  0  0
   44.3501   27.6706   33.1299 H   0  0  0  0  0  0  0  0  0  0  0  0
  1  2  2  0
  2 10  1  0
  3  2  1  0
  4  3  2  0
  5  6  2  0
  5  4  1  0
  6  1  1  0
  7  5  1  0
  8  7  1  0
  9  7  1  0
 10 12  1  0
 11 10  2  0
 12 13  1  0
 13 14  1  0
 13 16  1  0
 15 13  1  0
  1 17  1  0
  3 18  1  0
  7 19  1  0
  8 20  1  0
  8 21  1  0
  8 22  1  0
  9 23  1  0
  9 24  1  0
  9 25  1  0
M  ISO  8  17  14  18  14  19   8  20   8  21   8  22   8  23   8  24   8
M  ISO  1  25   8
M  END
>  <minimizedAffinity>  (1) 
-4.15250063

>  <minimizedRMSD>  (1) 
0.91337049

$$$$
