
     RDKit          3D

 29 30  0  0  0  0  0  0  0  0999 V2000
   39.4640   25.8430   35.1640 C   0  0  0  0  0  0  0  0  0  0  0  0
   39.7930   24.5190   35.4410 C   0  0  0  0  0  0  0  0  0  0  0  0
   41.0160   23.9820   34.9980 C   0  0  0  0  0  0  0  0  0  0  0  0
   41.8350   24.8080   34.3030 N   0  0  0  0  0  0  0  0  0  0  0  0
   41.4970   26.0820   34.0470 C   0  0  0  0  0  0  0  0  0  0  0  0
   40.3300   26.5990   34.4680 N   0  0  0  0  0  0  0  0  0  0  0  0
   42.4290   26.8630   33.3090 N   0  0  0  0  0  0  0  0  0  0  0  0
   43.7600   27.0650   33.8510 C   0  0  0  0  0  0  0  0  0  0  0  0
   44.7060   27.0360   32.6460 C   0  0  0  0  0  0  0  0  0  0  0  0
   44.4600   28.1250   31.8450 O   0  0  0  0  0  0  0  0  0  0  0  0
   43.1620   28.5730   31.8270 C   0  0  0  0  0  0  0  0  0  0  0  0
   42.1290   27.4770   32.0300 C   0  0  0  0  0  0  0  0  0  0  0  0
   38.9800   23.5830   36.1740 C   0  0  0  0  0  0  0  0  0  0  0  0
   37.9510   22.9900   35.7700 O   0  0  0  0  0  0  0  0  0  0  0  0
   39.1710   23.1460   37.4850 O   0  0  0  0  0  0  0  0  0  0  0  0
   38.4180   23.7300   38.5660 C   0  0  0  0  0  0  0  0  0  0  0  0
   37.3970   22.8580   38.9450 F   0  0  0  0  0  0  0  0  0  0  0  0
   37.9570   24.9820   38.2320 F   0  0  0  0  0  0  0  0  0  0  0  0
   39.2650   23.8350   39.6550 F   0  0  0  0  0  0  0  0  0  0  0  0
   38.5086   26.2644   35.5100 H   0  0  0  0  0  0  0  0  0  0  0  0
   41.2946   22.9385   35.2066 H   0  0  0  0  0  0  0  0  0  0  0  0
   43.8220   28.0359   34.3643 H   0  0  0  0  0  0  0  0  0  0  0  0
   44.0194   26.2926   34.5900 H   0  0  0  0  0  0  0  0  0  0  0  0
   45.7481   27.0667   32.9969 H   0  0  0  0  0  0  0  0  0  0  0  0
   44.5400   26.1128   32.0713 H   0  0  0  0  0  0  0  0  0  0  0  0
   43.0409   29.3158   32.6292 H   0  0  0  0  0  0  0  0  0  0  0  0
   42.9847   28.9975   30.8278 H   0  0  0  0  0  0  0  0  0  0  0  0
   41.1163   27.9063   32.0424 H   0  0  0  0  0  0  0  0  0  0  0  0
   42.1655   26.7390   31.2152 H   0  0  0  0  0  0  0  0  0  0  0  0
  1  2  2  0
  2 13  1  0
  3  2  1  0
  4  3  2  0
  5  4  1  0
  5  6  2  0
  6  1  1  0
  7  8  1  0
  7  5  1  0
  9  8  1  0
 10  9  1  0
 11 10  1  0
 11 12  1  0
 12  7  1  0
 13 15  1  0
 14 13  2  0
 15 16  1  0
 16 17  1  0
 16 19  1  0
 18 16  1  0
  1 20  1  0
  3 21  1  0
  8 22  1  0
  8 23  1  0
  9 24  1  0
  9 25  1  0
 11 26  1  0
 11 27  1  0
 12 28  1  0
 12 29  1  0
M  ISO  8  20  14  21  14  22  13  23  13  24  13  25  13  26  13  27  13
M  ISO  2  28  13  29  13
M  END
>  <minimizedAffinity>  (1) 
-4.2704215

>  <minimizedRMSD>  (1) 
0.877873242

$$$$
