
     RDKit          3D

 39 42  0  0  0  0  0  0  0  0999 V2000
   43.0450   26.7700   33.7080 C   0  0  0  0  0  0  0  0  0  0  0  0
   42.7590   27.3480   32.4640 C   0  0  0  0  0  0  0  0  0  0  0  0
   43.7790   28.1020   31.9210 C   0  0  0  0  0  0  0  0  0  0  0  0
   44.9820   28.2690   32.5560 C   0  0  0  0  0  0  0  0  0  0  0  0
   45.2100   27.6780   33.7770 C   0  0  0  0  0  0  0  0  0  0  0  0
   44.2430   26.9500   34.3180 N   0  0  0  0  0  0  0  0  0  0  0  0
   46.4630   27.8590   34.4280 N   0  0  0  0  0  0  0  0  0  0  0  0
   47.3810   28.7990   34.1380 C   0  0  0  0  0  0  0  0  0  0  0  0
   48.4710   28.7230   34.9240 N   0  0  0  0  0  0  0  0  0  0  0  0
   48.2030   27.6720   35.7470 C   0  0  0  0  0  0  0  0  0  0  0  0
   48.9910   27.1360   36.7710 C   0  0  0  0  0  0  0  0  0  0  0  0
   50.1110   27.6630   37.0050 O   0  0  0  0  0  0  0  0  0  0  0  0
   48.4950   26.0910   37.4360 N   0  0  0  0  0  0  0  0  0  0  0  0
   47.2740   25.5590   37.1390 C   0  0  0  0  0  0  0  0  0  0  0  0
   46.9010   24.4460   37.9500 N   0  0  0  0  0  0  0  0  0  0  0  0
   46.5280   26.0880   36.1480 N   0  0  0  0  0  0  0  0  0  0  0  0
   46.9640   27.1370   35.4400 C   0  0  0  0  0  0  0  0  0  0  0  0
   39.7900   25.7880   35.0540 C   0  0  0  0  0  0  0  0  0  0  0  0
   40.0320   24.4930   35.4800 C   0  0  0  0  0  0  0  0  0  0  0  0
   41.2930   23.9330   35.3210 C   0  0  0  0  0  0  0  0  0  0  0  0
   42.2570   24.6860   34.7450 N   0  0  0  0  0  0  0  0  0  0  0  0
   41.9890   25.9530   34.3370 C   0  0  0  0  0  0  0  0  0  0  0  0
   40.7700   26.4890   34.4930 N   0  0  0  0  0  0  0  0  0  0  0  0
   39.0810   23.6180   36.0990 C   0  0  0  0  0  0  0  0  0  0  0  0
   38.0090   23.1540   35.5780 O   0  0  0  0  0  0  0  0  0  0  0  0
   39.1030   23.0840   37.3790 O   0  0  0  0  0  0  0  0  0  0  0  0
   38.3910   23.7080   38.4580 C   0  0  0  0  0  0  0  0  0  0  0  0
   37.3280   22.8880   38.8360 F   0  0  0  0  0  0  0  0  0  0  0  0
   37.9770   24.9650   38.0910 F   0  0  0  0  0  0  0  0  0  0  0  0
   39.2480   23.7940   39.5330 F   0  0  0  0  0  0  0  0  0  0  0  0
   41.7923   27.2107   31.9575 H   0  0  0  0  0  0  0  0  0  0  0  0
   43.6213   28.5854   30.9456 H   0  0  0  0  0  0  0  0  0  0  0  0
   45.7687   28.8783   32.0872 H   0  0  0  0  0  0  0  0  0  0  0  0
   47.2543   29.5493   33.3436 H   0  0  0  0  0  0  0  0  0  0  0  0
   49.0504   25.6734   38.1963 H   0  0  0  0  0  0  0  0  0  0  0  0
   45.9956   23.9789   37.7986 H   0  0  0  0  0  0  0  0  0  0  0  0
   47.5372   24.1096   38.6869 H   0  0  0  0  0  0  0  0  0  0  0  0
   38.7923   26.2341   35.1791 H   0  0  0  0  0  0  0  0  0  0  0  0
   41.5016   22.9057   35.6543 H   0  0  0  0  0  0  0  0  0  0  0  0
  1  6  1  0
  1 22  1  0
  2  1  2  0
  3  2  1  0
  3  4  2  0
  4  5  1  0
  5  6  2  0
  5  7  1  0
  7 17  1  0
  8  7  1  0
  8  9  2  0
  9 10  1  0
 10 11  1  0
 11 12  2  0
 11 13  1  0
 14 13  1  0
 14 15  1  0
 16 14  2  0
 17 10  2  0
 17 16  1  0
 18 19  2  0
 19 24  1  0
 20 19  1  0
 21 20  2  0
 22 23  2  0
 22 21  1  0
 23 18  1  0
 24 26  1  0
 25 24  2  0
 26 27  1  0
 27 28  1  0
 27 30  1  0
 29 27  1  0
  2 31  1  0
  3 32  1  0
  4 33  1  0
  8 34  1  0
 13 35  1  0
 15 36  1  0
 15 37  1  0
 18 38  1  0
 20 39  1  0
M  ISO  7  31  14  32  14  33  14  34  14  35   9  38  14  39  14
M  END
>  <minimizedAffinity>  (1) 
-5.90265512

>  <minimizedRMSD>  (1) 
1.14313388

$$$$
