
     RDKit          3D

 41 44  0  0  0  0  0  0  0  0999 V2000
   43.2220   26.6240   33.9320 C   0  0  0  0  0  0  0  0  0  0  0  0
   43.0480   27.2890   32.7320 C   0  0  0  0  0  0  0  0  0  0  0  0
   44.1220   27.9960   32.2690 C   0  0  0  0  0  0  0  0  0  0  0  0
   45.3030   28.0390   32.9600 C   0  0  0  0  0  0  0  0  0  0  0  0
   45.4660   27.3790   34.1490 C   0  0  0  0  0  0  0  0  0  0  0  0
   44.3900   26.6980   34.5650 N   0  0  0  0  0  0  0  0  0  0  0  0
   46.6350   27.2450   34.9810 C   0  0  0  0  0  0  0  0  0  0  0  0
   47.7260   28.0780   34.6860 C   0  0  0  0  0  0  0  0  0  0  0  0
   48.9260   28.0860   35.3590 C   0  0  0  0  0  0  0  0  0  0  0  0
   49.1090   27.2200   36.4120 C   0  0  0  0  0  0  0  0  0  0  0  0
   48.0790   26.3730   36.7540 C   0  0  0  0  0  0  0  0  0  0  0  0
   48.2500   25.4720   37.7820 C   0  0  0  0  0  0  0  0  0  0  0  0
   47.2570   24.5590   38.1540 C   0  0  0  0  0  0  0  0  0  0  0  0
   46.0750   24.6200   37.4080 C   0  0  0  0  0  0  0  0  0  0  0  0
   45.9520   25.5360   36.3920 C   0  0  0  0  0  0  0  0  0  0  0  0
   46.9120   26.4200   36.0370 C   0  0  0  0  0  0  0  0  0  0  0  0
   39.8490   25.7530   35.0410 C   0  0  0  0  0  0  0  0  0  0  0  0
   40.0170   24.4560   35.4990 C   0  0  0  0  0  0  0  0  0  0  0  0
   41.2690   23.8530   35.4420 C   0  0  0  0  0  0  0  0  0  0  0  0
   42.3030   24.5630   34.9330 N   0  0  0  0  0  0  0  0  0  0  0  0
   42.1040   25.8390   34.4900 C   0  0  0  0  0  0  0  0  0  0  0  0
   40.8920   26.4240   34.5440 N   0  0  0  0  0  0  0  0  0  0  0  0
   38.9960   23.6230   36.0510 C   0  0  0  0  0  0  0  0  0  0  0  0
   37.9140   23.2570   35.4820 O   0  0  0  0  0  0  0  0  0  0  0  0
   38.9500   23.0320   37.3090 O   0  0  0  0  0  0  0  0  0  0  0  0
   38.3290   23.6770   38.4090 C   0  0  0  0  0  0  0  0  0  0  0  0
   37.2680   22.9080   38.8730 F   0  0  0  0  0  0  0  0  0  0  0  0
   37.9370   24.9570   38.0580 F   0  0  0  0  0  0  0  0  0  0  0  0
   39.2610   23.7560   39.4360 F   0  0  0  0  0  0  0  0  0  0  0  0
   42.0971   27.2510   32.1803 H   0  0  0  0  0  0  0  0  0  0  0  0
   44.0355   28.5434   31.3188 H   0  0  0  0  0  0  0  0  0  0  0  0
   46.1429   28.6187   32.5496 H   0  0  0  0  0  0  0  0  0  0  0  0
   47.6121   28.7818   33.8483 H   0  0  0  0  0  0  0  0  0  0  0  0
   49.7285   28.7759   35.0590 H   0  0  0  0  0  0  0  0  0  0  0  0
   50.0576   27.2046   36.9686 H   0  0  0  0  0  0  0  0  0  0  0  0
   49.2031   25.4702   38.3311 H   0  0  0  0  0  0  0  0  0  0  0  0
   47.3962   23.8423   38.9768 H   0  0  0  0  0  0  0  0  0  0  0  0
   45.2449   23.9349   37.6350 H   0  0  0  0  0  0  0  0  0  0  0  0
   45.0076   25.5517   35.8282 H   0  0  0  0  0  0  0  0  0  0  0  0
   38.8585   26.2294   35.0865 H   0  0  0  0  0  0  0  0  0  0  0  0
   41.4154   22.8239   35.8019 H   0  0  0  0  0  0  0  0  0  0  0  0
  1 21  1  0
  1  6  1  0
  2  1  2  0
  3  2  1  0
  3  4  2  0
  4  5  1  0
  5  6  2  0
  5  7  1  0
  7 16  1  0
  8  7  2  0
  8  9  1  0
  9 10  2  0
 10 11  1  0
 11 12  2  0
 12 13  1  0
 14 13  2  0
 15 14  1  0
 16 15  2  0
 16 11  1  0
 17 18  2  0
 18 23  1  0
 19 18  1  0
 20 19  2  0
 21 22  2  0
 21 20  1  0
 22 17  1  0
 23 25  1  0
 24 23  2  0
 25 26  1  0
 26 27  1  0
 26 29  1  0
 28 26  1  0
  2 30  1  0
  3 31  1  0
  4 32  1  0
  8 33  1  0
  9 34  1  0
 10 35  1  0
 12 36  1  0
 13 37  1  0
 14 38  1  0
 15 39  1  0
 17 40  1  0
 19 41  1  0
M  ISO  8  30  14  31  14  32  14  33  14  34  14  35  14  36  14  37  14
M  ISO  4  38  14  39  14  40  14  41  14
M  END
>  <minimizedAffinity>  (1) 
-5.96955633

>  <minimizedRMSD>  (1) 
1.25304699

$$$$
