
     RDKit          3D

 35 37  0  0  0  0  0  0  0  0999 V2000
   43.4500   26.3260   34.2640 C   0  0  0  0  0  0  0  0  0  0  0  0
   43.3620   27.0640   33.0920 C   0  0  0  0  0  0  0  0  0  0  0  0
   44.4930   27.7390   32.7210 C   0  0  0  0  0  0  0  0  0  0  0  0
   45.6430   27.6840   33.4690 C   0  0  0  0  0  0  0  0  0  0  0  0
   45.6890   26.9420   34.6240 C   0  0  0  0  0  0  0  0  0  0  0  0
   44.5980   26.2890   34.9850 N   0  0  0  0  0  0  0  0  0  0  0  0
   39.9530   25.5810   35.0490 C   0  0  0  0  0  0  0  0  0  0  0  0
   40.0360   24.2710   35.5210 C   0  0  0  0  0  0  0  0  0  0  0  0
   41.2630   23.6300   35.5790 C   0  0  0  0  0  0  0  0  0  0  0  0
   42.3510   24.3110   35.1690 N   0  0  0  0  0  0  0  0  0  0  0  0
   42.2600   25.5760   34.7150 C   0  0  0  0  0  0  0  0  0  0  0  0
   41.0620   26.2120   34.6550 N   0  0  0  0  0  0  0  0  0  0  0  0
   38.9330   23.4780   35.9750 C   0  0  0  0  0  0  0  0  0  0  0  0
   37.8740   23.1980   35.3230 O   0  0  0  0  0  0  0  0  0  0  0  0
   38.7780   22.8500   37.2120 O   0  0  0  0  0  0  0  0  0  0  0  0
   38.2850   23.5560   38.3450 C   0  0  0  0  0  0  0  0  0  0  0  0
   37.2540   22.8460   38.9360 F   0  0  0  0  0  0  0  0  0  0  0  0
   37.8860   24.8350   37.9790 F   0  0  0  0  0  0  0  0  0  0  0  0
   39.2990   23.6490   39.2650 F   0  0  0  0  0  0  0  0  0  0  0  0
   46.8730   26.8360   35.4700 C   0  0  0  0  0  0  0  0  0  0  0  0
   46.8150   25.9890   36.5550 C   0  0  0  0  0  0  0  0  0  0  0  0
   47.8830   25.8070   37.4320 C   0  0  0  0  0  0  0  0  0  0  0  0
   49.0670   26.5150   37.2040 C   0  0  0  0  0  0  0  0  0  0  0  0
   49.1170   27.3600   36.1170 C   0  0  0  0  0  0  0  0  0  0  0  0
   48.0500   27.5240   35.2640 C   0  0  0  0  0  0  0  0  0  0  0  0
   42.4379   27.1040   32.4966 H   0  0  0  0  0  0  0  0  0  0  0  0
   44.4805   28.3408   31.8003 H   0  0  0  0  0  0  0  0  0  0  0  0
   46.5345   28.2385   33.1408 H   0  0  0  0  0  0  0  0  0  0  0  0
   38.9797   26.0913   35.0016 H   0  0  0  0  0  0  0  0  0  0  0  0
   41.3463   22.5972   35.9483 H   0  0  0  0  0  0  0  0  0  0  0  0
   45.8844   25.4315   36.7373 H   0  0  0  0  0  0  0  0  0  0  0  0
   47.7961   25.1199   38.2866 H   0  0  0  0  0  0  0  0  0  0  0  0
   49.9329   26.4007   37.8727 H   0  0  0  0  0  0  0  0  0  0  0  0
   50.0421   27.9231   35.9244 H   0  0  0  0  0  0  0  0  0  0  0  0
   48.1368   28.2108   34.4092 H   0  0  0  0  0  0  0  0  0  0  0  0
  1 11  1  0
  1  6  1  0
  2  1  2  0
  3  2  1  0
  3  4  2  0
  4  5  1  0
  5  6  2  0
  5 20  1  0
  7  8  2  0
  8  9  1  0
  8 13  1  0
 10  9  2  0
 11 10  1  0
 12 11  2  0
 12  7  1  0
 13 15  1  0
 14 13  2  0
 15 16  1  0
 16 17  1  0
 16 19  1  0
 18 16  1  0
 20 21  2  0
 21 22  1  0
 23 22  2  0
 24 23  1  0
 25 20  1  0
 25 24  2  0
  2 26  1  0
  3 27  1  0
  4 28  1  0
  7 29  1  0
  9 30  1  0
 21 31  1  0
 22 32  1  0
 23 33  1  0
 24 34  1  0
 25 35  1  0
M  ISO  8  26  14  27  14  28  14  29  14  30  14  31  14  32  14  33  14
M  ISO  2  34  14  35  14
M  END
>  <minimizedAffinity>  (1) 
-5.09496784

>  <minimizedRMSD>  (1) 
1.6715796

$$$$
