
     RDKit          3D

 36 38  0  0  0  0  0  0  0  0999 V2000
   43.0650   26.8860   33.6430 C   0  0  0  0  0  0  0  0  0  0  0  0
   42.7830   27.4890   32.4100 C   0  0  0  0  0  0  0  0  0  0  0  0
   43.8130   28.2040   31.8580 C   0  0  0  0  0  0  0  0  0  0  0  0
   45.0420   28.3200   32.4740 C   0  0  0  0  0  0  0  0  0  0  0  0
   45.2650   27.7080   33.6840 C   0  0  0  0  0  0  0  0  0  0  0  0
   44.2650   27.0060   34.2330 N   0  0  0  0  0  0  0  0  0  0  0  0
   46.4510   27.7100   34.4700 N   0  0  0  0  0  0  0  0  0  0  0  0
   46.8560   26.7170   35.2820 C   0  0  0  0  0  0  0  0  0  0  0  0
   48.0280   26.8240   36.0020 C   0  0  0  0  0  0  0  0  0  0  0  0
   48.8280   27.9440   35.9190 C   0  0  0  0  0  0  0  0  0  0  0  0
   50.0550   28.1100   36.6420 N   0  0  0  0  0  0  0  0  0  0  0  0
   48.4160   28.9340   35.1050 N   0  0  0  0  0  0  0  0  0  0  0  0
   47.2660   28.7920   34.4190 C   0  0  0  0  0  0  0  0  0  0  0  0
   46.9230   29.7550   33.6640 O   0  0  0  0  0  0  0  0  0  0  0  0
   39.8000   26.0080   35.0540 C   0  0  0  0  0  0  0  0  0  0  0  0
   39.9910   24.7030   35.4560 C   0  0  0  0  0  0  0  0  0  0  0  0
   41.2280   24.0960   35.2570 C   0  0  0  0  0  0  0  0  0  0  0  0
   42.2200   24.8070   34.6710 N   0  0  0  0  0  0  0  0  0  0  0  0
   41.9840   26.0980   34.2870 C   0  0  0  0  0  0  0  0  0  0  0  0
   40.7920   26.6990   34.4730 N   0  0  0  0  0  0  0  0  0  0  0  0
   39.0310   23.8570   36.0810 C   0  0  0  0  0  0  0  0  0  0  0  0
   37.9010   23.4920   35.6000 O   0  0  0  0  0  0  0  0  0  0  0  0
   39.0930   23.2450   37.3280 O   0  0  0  0  0  0  0  0  0  0  0  0
   38.4070   23.7920   38.4480 C   0  0  0  0  0  0  0  0  0  0  0  0
   37.3350   22.9960   38.7910 F   0  0  0  0  0  0  0  0  0  0  0  0
   38.0210   25.1030   38.1900 F   0  0  0  0  0  0  0  0  0  0  0  0
   39.2740   23.7870   39.5250 F   0  0  0  0  0  0  0  0  0  0  0  0
   41.8029   27.3948   31.9195 H   0  0  0  0  0  0  0  0  0  0  0  0
   43.6547   28.7027   30.8904 H   0  0  0  0  0  0  0  0  0  0  0  0
   45.8436   28.9025   31.9964 H   0  0  0  0  0  0  0  0  0  0  0  0
   46.2444   25.8073   35.3732 H   0  0  0  0  0  0  0  0  0  0  0  0
   48.3318   25.9953   36.6585 H   0  0  0  0  0  0  0  0  0  0  0  0
   50.6043   28.9744   36.5327 H   0  0  0  0  0  0  0  0  0  0  0  0
   50.3872   27.3648   37.2707 H   0  0  0  0  0  0  0  0  0  0  0  0
   38.8229   26.4879   35.2116 H   0  0  0  0  0  0  0  0  0  0  0  0
   41.3967   23.0553   35.5709 H   0  0  0  0  0  0  0  0  0  0  0  0
  1  6  1  0
  1 19  1  0
  2  1  2  0
  3  2  1  0
  3  4  2  0
  4  5  1  0
  5  6  2  0
  5  7  1  0
  7  8  1  0
  8  9  2  0
 10  9  1  0
 10 11  1  0
 12 10  2  0
 13  7  1  0
 13 12  1  0
 14 13  2  0
 15 16  2  0
 16 21  1  0
 17 16  1  0
 18 17  2  0
 19 20  2  0
 19 18  1  0
 20 15  1  0
 21 23  1  0
 22 21  2  0
 23 24  1  0
 24 25  1  0
 24 27  1  0
 26 24  1  0
  2 28  1  0
  3 29  1  0
  4 30  1  0
  8 31  1  0
  9 32  1  0
 11 33  1  0
 11 34  1  0
 15 35  1  0
 17 36  1  0
M  ISO  7  28  14  29  14  30  14  31  14  32  14  35  14  36  14
M  END
>  <minimizedAffinity>  (1) 
-5.4615798

>  <minimizedRMSD>  (1) 
0.847017586

$$$$
