
     RDKit          3D

 30 32  0  0  0  0  0  0  0  0999 V2000
   40.6170   24.9570   35.0940 C   0  0  0  0  0  0  0  0  0  0  0  0
   40.3570   23.6320   35.5120 C   0  0  0  0  0  0  0  0  0  0  0  0
   39.2740   23.0250   34.8650 C   0  0  0  0  0  0  0  0  0  0  0  0
   38.5650   23.6910   33.9240 N   0  0  0  0  0  0  0  0  0  0  0  0
   38.8660   24.9600   33.5680 C   0  0  0  0  0  0  0  0  0  0  0  0
   39.8880   25.5670   34.1610 N   0  0  0  0  0  0  0  0  0  0  0  0
   38.0930   25.6240   32.5730 N   0  0  0  0  0  0  0  0  0  0  0  0
   36.7690   25.5330   32.3310 C   0  0  0  0  0  0  0  0  0  0  0  0
   36.4290   26.3210   31.3010 N   0  0  0  0  0  0  0  0  0  0  0  0
   37.5560   26.9220   30.8820 C   0  0  0  0  0  0  0  0  0  0  0  0
   37.8660   27.8220   29.8910 C   0  0  0  0  0  0  0  0  0  0  0  0
   39.1070   28.2750   29.6780 N   0  0  0  0  0  0  0  0  0  0  0  0
   40.1140   27.8350   30.4690 C   0  0  0  0  0  0  0  0  0  0  0  0
   39.8440   26.9540   31.4490 N   0  0  0  0  0  0  0  0  0  0  0  0
   38.6020   26.4900   31.6730 C   0  0  0  0  0  0  0  0  0  0  0  0
   41.1130   22.9600   36.4980 N   0  0  0  0  0  0  0  0  0  0  0  0
   40.5830   22.2410   37.5930 C   0  0  0  0  0  0  0  0  0  0  0  0
   39.5110   22.7670   38.1440 N   0  0  0  0  0  0  0  0  0  0  0  0
   41.2780   21.0400   37.9570 N   0  0  0  0  0  0  0  0  0  0  0  0
   39.0550   22.3230   38.9570 H   0  0  0  0  0  0  0  0  0  0  0  0
   36.8430   28.3200   29.0250 N   0  0  0  0  0  0  0  0  0  0  0  0
   41.4518   25.5043   35.5561 H   0  0  0  0  0  0  0  0  0  0  0  0
   38.9956   21.9930   35.1249 H   0  0  0  0  0  0  0  0  0  0  0  0
   36.0684   24.9023   32.8978 H   0  0  0  0  0  0  0  0  0  0  0  0
   41.1418   28.1941   30.3119 H   0  0  0  0  0  0  0  0  0  0  0  0
   42.1387   22.9973   36.4114 H   0  0  0  0  0  0  0  0  0  0  0  0
   40.9425   20.4700   38.7466 H   0  0  0  0  0  0  0  0  0  0  0  0
   42.1125   20.7477   37.4288 H   0  0  0  0  0  0  0  0  0  0  0  0
   37.0794   28.9945   28.2833 H   0  0  0  0  0  0  0  0  0  0  0  0
   35.8697   28.0042   29.1428 H   0  0  0  0  0  0  0  0  0  0  0  0
  1  2  2  0
  2 16  1  0
  3  2  1  0
  4  3  2  0
  5  4  1  0
  5  6  2  0
  6  1  1  0
  7  5  1  0
  8  7  1  0
  9  8  2  0
 10  9  1  0
 10 15  2  0
 11 10  1  0
 12 11  2  0
 12 13  1  0
 13 14  2  0
 14 15  1  0
 15  7  1  0
 16 17  1  0
 17 19  1  0
 17 18  2  0
 18 20  1  0
 21 11  1  0
  1 22  1  0
  3 23  1  0
  8 24  1  0
 13 25  1  0
 16 26  1  0
 19 27  1  0
 19 28  1  0
 21 29  1  0
 21 30  1  0
M  ISO  4  22  14  23  14  24  14  25  14
M  END
>  <minimizedAffinity>  (1) 
-5.40657187

>  <minimizedRMSD>  (1) 
1.48712921

$$$$
