
     RDKit          3D

 35 37  0  0  0  0  0  0  0  0999 V2000
   43.0500   26.8430   33.6880 C   0  0  0  0  0  0  0  0  0  0  0  0
   42.7780   27.4600   32.4710 C   0  0  0  0  0  0  0  0  0  0  0  0
   43.8250   28.1910   31.9550 C   0  0  0  0  0  0  0  0  0  0  0  0
   45.0380   28.3000   32.5930 C   0  0  0  0  0  0  0  0  0  0  0  0
   45.2490   27.6690   33.7930 C   0  0  0  0  0  0  0  0  0  0  0  0
   44.2400   26.9710   34.2810 N   0  0  0  0  0  0  0  0  0  0  0  0
   46.5110   27.7500   34.5110 C   0  0  0  0  0  0  0  0  0  0  0  0
   47.4180   28.7830   34.4070 C   0  0  0  0  0  0  0  0  0  0  0  0
   48.5910   28.7950   35.1140 C   0  0  0  0  0  0  0  0  0  0  0  0
   48.9380   27.7910   35.9670 C   0  0  0  0  0  0  0  0  0  0  0  0
   48.0520   26.7500   36.0900 C   0  0  0  0  0  0  0  0  0  0  0  0
   46.8740   26.7410   35.3780 C   0  0  0  0  0  0  0  0  0  0  0  0
   39.7710   25.9400   35.0550 C   0  0  0  0  0  0  0  0  0  0  0  0
   39.9740   24.6300   35.4570 C   0  0  0  0  0  0  0  0  0  0  0  0
   41.2140   24.0280   35.2760 C   0  0  0  0  0  0  0  0  0  0  0  0
   42.2040   24.7500   34.7020 N   0  0  0  0  0  0  0  0  0  0  0  0
   41.9810   26.0360   34.3160 C   0  0  0  0  0  0  0  0  0  0  0  0
   40.7700   26.6230   34.4930 N   0  0  0  0  0  0  0  0  0  0  0  0
   39.0090   23.7700   36.0700 C   0  0  0  0  0  0  0  0  0  0  0  0
   37.8910   23.3900   35.5660 O   0  0  0  0  0  0  0  0  0  0  0  0
   39.0550   23.1680   37.3180 O   0  0  0  0  0  0  0  0  0  0  0  0
   38.3910   23.7330   38.4410 C   0  0  0  0  0  0  0  0  0  0  0  0
   37.3100   22.9370   38.8110 F   0  0  0  0  0  0  0  0  0  0  0  0
   37.9880   25.0270   38.1580 F   0  0  0  0  0  0  0  0  0  0  0  0
   39.2730   23.7590   39.4970 F   0  0  0  0  0  0  0  0  0  0  0  0
   41.8065   27.3713   31.9627 H   0  0  0  0  0  0  0  0  0  0  0  0
   43.6852   28.7082   30.9943 H   0  0  0  0  0  0  0  0  0  0  0  0
   45.8434   28.8961   32.1391 H   0  0  0  0  0  0  0  0  0  0  0  0
   47.1925   29.6242   33.7350 H   0  0  0  0  0  0  0  0  0  0  0  0
   49.2773   29.6455   34.9886 H   0  0  0  0  0  0  0  0  0  0  0  0
   49.8827   27.8136   36.5300 H   0  0  0  0  0  0  0  0  0  0  0  0
   48.2859   25.9136   36.7651 H   0  0  0  0  0  0  0  0  0  0  0  0
   46.1902   25.8890   35.5066 H   0  0  0  0  0  0  0  0  0  0  0  0
   38.7896   26.4156   35.1986 H   0  0  0  0  0  0  0  0  0  0  0  0
   41.3863   22.9886   35.5922 H   0  0  0  0  0  0  0  0  0  0  0  0
  1  6  1  0
  1 17  1  0
  2  1  2  0
  3  2  1  0
  3  4  2  0
  4  5  1  0
  5  6  2  0
  5  7  1  0
  7 12  1  0
  8  7  2  0
  8  9  1  0
  9 10  2  0
 10 11  1  0
 12 11  2  0
 13 14  2  0
 14 19  1  0
 15 14  1  0
 16 15  2  0
 17 18  2  0
 17 16  1  0
 18 13  1  0
 19 21  1  0
 20 19  2  0
 21 22  1  0
 22 23  1  0
 22 25  1  0
 24 22  1  0
  2 26  1  0
  3 27  1  0
  4 28  1  0
  8 29  1  0
  9 30  1  0
 10 31  1  0
 11 32  1  0
 12 33  1  0
 13 34  1  0
 15 35  1  0
M  ISO  8  26  14  27  14  28  14  29  14  30  14  31  14  32  14  33  14
M  ISO  2  34  14  35  14
M  END
>  <minimizedAffinity>  (1) 
-5.00783443

>  <minimizedRMSD>  (1) 
0.85936743

$$$$
