
     RDKit          3D

 33 35  0  0  0  0  0  0  0  0999 V2000
   43.0770   26.8390   33.7330 C   0  0  0  0  0  0  0  0  0  0  0  0
   42.8420   27.4430   32.5030 C   0  0  0  0  0  0  0  0  0  0  0  0
   43.8920   28.1730   31.9800 C   0  0  0  0  0  0  0  0  0  0  0  0
   45.0960   28.2880   32.6490 C   0  0  0  0  0  0  0  0  0  0  0  0
   45.2830   27.6730   33.8640 C   0  0  0  0  0  0  0  0  0  0  0  0
   44.2680   26.9750   34.3550 N   0  0  0  0  0  0  0  0  0  0  0  0
   39.7810   25.9540   35.0490 C   0  0  0  0  0  0  0  0  0  0  0  0
   39.9720   24.6320   35.4440 C   0  0  0  0  0  0  0  0  0  0  0  0
   41.2220   24.0240   35.2700 C   0  0  0  0  0  0  0  0  0  0  0  0
   42.2020   24.7630   34.7150 N   0  0  0  0  0  0  0  0  0  0  0  0
   41.9900   26.0450   34.3400 C   0  0  0  0  0  0  0  0  0  0  0  0
   40.7970   26.6270   34.5060 N   0  0  0  0  0  0  0  0  0  0  0  0
   38.9940   23.7840   36.0360 C   0  0  0  0  0  0  0  0  0  0  0  0
   37.8880   23.4170   35.5300 O   0  0  0  0  0  0  0  0  0  0  0  0
   39.0220   23.1700   37.2810 O   0  0  0  0  0  0  0  0  0  0  0  0
   38.3730   23.7400   38.4120 C   0  0  0  0  0  0  0  0  0  0  0  0
   37.3070   22.9400   38.7920 F   0  0  0  0  0  0  0  0  0  0  0  0
   37.9900   25.0450   38.1390 F   0  0  0  0  0  0  0  0  0  0  0  0
   39.2600   23.7500   39.4690 F   0  0  0  0  0  0  0  0  0  0  0  0
   46.5730   27.8270   34.5270 C   0  0  0  0  0  0  0  0  0  0  0  0
   47.0880   26.8200   35.3340 C   0  0  0  0  0  0  0  0  0  0  0  0
   48.3260   27.1140   35.8950 C   0  0  0  0  0  0  0  0  0  0  0  0
   48.9840   28.2490   35.6980 N   0  0  0  0  0  0  0  0  0  0  0  0
   48.4530   29.2100   34.9050 C   0  0  0  0  0  0  0  0  0  0  0  0
   47.2540   28.9720   34.3370 N   0  0  0  0  0  0  0  0  0  0  0  0
   41.8799   27.3457   31.9788 H   0  0  0  0  0  0  0  0  0  0  0  0
   43.7669   28.6742   31.0088 H   0  0  0  0  0  0  0  0  0  0  0  0
   45.9120   28.8771   32.2050 H   0  0  0  0  0  0  0  0  0  0  0  0
   38.8025   26.4382   35.1834 H   0  0  0  0  0  0  0  0  0  0  0  0
   41.3968   22.9818   35.5753 H   0  0  0  0  0  0  0  0  0  0  0  0
   46.5614   25.8711   35.5138 H   0  0  0  0  0  0  0  0  0  0  0  0
   48.7897   26.3565   36.5440 H   0  0  0  0  0  0  0  0  0  0  0  0
   48.9846   30.1569   34.7296 H   0  0  0  0  0  0  0  0  0  0  0  0
  1 11  1  0
  1  6  1  0
  2  1  2  0
  3  2  1  0
  3  4  2  0
  4  5  1  0
  5  6  2  0
  5 20  1  0
  7  8  2  0
  8 13  1  0
  9  8  1  0
 10  9  2  0
 11 12  2  0
 11 10  1  0
 12  7  1  0
 13 15  1  0
 14 13  2  0
 15 16  1  0
 16 17  1  0
 16 19  1  0
 18 16  1  0
 20 21  2  0
 21 22  1  0
 23 22  2  0
 24 23  1  0
 25 20  1  0
 25 24  2  0
  2 26  1  0
  3 27  1  0
  4 28  1  0
  7 29  1  0
  9 30  1  0
 21 31  1  0
 22 32  1  0
 24 33  1  0
M  ISO  8  26  14  27  14  28  14  29  14  30  14  31  14  32  14  33  14
M  END
>  <minimizedAffinity>  (1) 
-4.98006868

>  <minimizedRMSD>  (1) 
0.968907654

$$$$
