
     RDKit          3D

 31 33  0  0  0  0  0  0  0  0999 V2000
   39.7920   26.0180   35.0440 C   0  0  0  0  0  0  0  0  0  0  0  0
   40.0000   24.7140   35.4400 C   0  0  0  0  0  0  0  0  0  0  0  0
   41.2390   24.1080   35.2430 C   0  0  0  0  0  0  0  0  0  0  0  0
   42.2090   24.8400   34.6570 N   0  0  0  0  0  0  0  0  0  0  0  0
   41.9910   26.1190   34.2740 C   0  0  0  0  0  0  0  0  0  0  0  0
   40.7790   26.6990   34.4720 N   0  0  0  0  0  0  0  0  0  0  0  0
   43.0380   26.9250   33.6360 C   0  0  0  0  0  0  0  0  0  0  0  0
   42.7730   27.5380   32.4210 C   0  0  0  0  0  0  0  0  0  0  0  0
   43.7960   28.2710   31.8850 C   0  0  0  0  0  0  0  0  0  0  0  0
   45.0120   28.3960   32.5070 C   0  0  0  0  0  0  0  0  0  0  0  0
   45.2470   27.7690   33.7250 C   0  0  0  0  0  0  0  0  0  0  0  0
   44.2350   27.0720   34.2070 N   0  0  0  0  0  0  0  0  0  0  0  0
   46.5540   27.8950   34.4100 C   0  0  0  0  0  0  0  0  0  0  0  0
   47.0350   26.8310   35.1760 C   0  0  0  0  0  0  0  0  0  0  0  0
   48.6330   27.4330   35.8050 S   0  0  0  0  0  0  0  0  0  0  0  0
   48.3800   29.0840   34.8970 C   0  0  0  0  0  0  0  0  0  0  0  0
   47.3640   28.9240   34.3940 N   0  0  0  0  0  0  0  0  0  0  0  0
   39.0470   23.8470   36.0670 C   0  0  0  0  0  0  0  0  0  0  0  0
   37.9310   23.4560   35.5770 O   0  0  0  0  0  0  0  0  0  0  0  0
   39.1060   23.2430   37.3150 O   0  0  0  0  0  0  0  0  0  0  0  0
   38.4130   23.7900   38.4300 C   0  0  0  0  0  0  0  0  0  0  0  0
   37.3390   22.9890   38.7730 F   0  0  0  0  0  0  0  0  0  0  0  0
   38.0200   25.0900   38.1660 F   0  0  0  0  0  0  0  0  0  0  0  0
   39.2750   23.7810   39.5130 F   0  0  0  0  0  0  0  0  0  0  0  0
   38.8123   26.4930   35.2011 H   0  0  0  0  0  0  0  0  0  0  0  0
   41.4201   23.0687   35.5545 H   0  0  0  0  0  0  0  0  0  0  0  0
   41.7993   27.4408   31.9186 H   0  0  0  0  0  0  0  0  0  0  0  0
   43.6379   28.7778   30.9216 H   0  0  0  0  0  0  0  0  0  0  0  0
   45.8062   28.9962   32.0390 H   0  0  0  0  0  0  0  0  0  0  0  0
   46.5588   25.8561   35.3570 H   0  0  0  0  0  0  0  0  0  0  0  0
   49.0387   29.9644   34.8636 H   0  0  0  0  0  0  0  0  0  0  0  0
  1  2  2  0
  2 18  1  0
  3  2  1  0
  4  3  2  0
  5  6  2  0
  5  4  1  0
  6  1  1  0
  7 12  1  0
  7  5  1  0
  8  7  2  0
  9  8  1  0
  9 10  2  0
 10 11  1  0
 11 12  2  0
 11 13  1  0
 13 14  2  0
 14 15  1  0
 16 15  1  0
 17 13  1  0
 17 16  2  0
 18 20  1  0
 19 18  2  0
 20 21  1  0
 21 22  1  0
 21 24  1  0
 23 21  1  0
  1 25  1  0
  3 26  1  0
  8 27  1  0
  9 28  1  0
 10 29  1  0
 14 30  1  0
 16 31  1  0
M  ISO  7  25  14  26  14  27  14  28  14  29  14  30  14  31  14
M  END
>  <minimizedAffinity>  (1) 
-4.82393122

>  <minimizedRMSD>  (1) 
0.902081788

$$$$
