
     RDKit          3D

 30 32  0  0  0  0  0  0  0  0999 V2000
   39.7860   25.9930   35.0460 C   0  0  0  0  0  0  0  0  0  0  0  0
   39.9920   24.6800   35.4490 C   0  0  0  0  0  0  0  0  0  0  0  0
   41.2350   24.0990   35.2540 C   0  0  0  0  0  0  0  0  0  0  0  0
   42.2030   24.8330   34.6800 N   0  0  0  0  0  0  0  0  0  0  0  0
   41.9760   26.1180   34.2950 C   0  0  0  0  0  0  0  0  0  0  0  0
   40.7770   26.6850   34.4790 N   0  0  0  0  0  0  0  0  0  0  0  0
   43.0480   26.9140   33.6650 C   0  0  0  0  0  0  0  0  0  0  0  0
   42.7560   27.5460   32.4590 C   0  0  0  0  0  0  0  0  0  0  0  0
   43.7790   28.2750   31.9070 C   0  0  0  0  0  0  0  0  0  0  0  0
   45.0180   28.3730   32.5150 C   0  0  0  0  0  0  0  0  0  0  0  0
   45.2580   27.7260   33.7120 C   0  0  0  0  0  0  0  0  0  0  0  0
   44.2620   27.0150   34.2520 N   0  0  0  0  0  0  0  0  0  0  0  0
   46.4970   27.7250   34.4800 C   0  0  0  0  0  0  0  0  0  0  0  0
   47.1430   26.9270   35.3490 N   0  0  0  0  0  0  0  0  0  0  0  0
   48.2610   27.4990   35.7040 O   0  0  0  0  0  0  0  0  0  0  0  0
   48.3750   28.6720   35.0860 C   0  0  0  0  0  0  0  0  0  0  0  0
   47.2760   28.8110   34.3230 N   0  0  0  0  0  0  0  0  0  0  0  0
   39.0330   23.8310   36.0610 C   0  0  0  0  0  0  0  0  0  0  0  0
   37.9100   23.4470   35.5810 O   0  0  0  0  0  0  0  0  0  0  0  0
   39.1000   23.2260   37.3190 O   0  0  0  0  0  0  0  0  0  0  0  0
   38.4070   23.7570   38.4370 C   0  0  0  0  0  0  0  0  0  0  0  0
   37.3420   22.9440   38.7870 F   0  0  0  0  0  0  0  0  0  0  0  0
   38.0140   25.0670   38.1890 F   0  0  0  0  0  0  0  0  0  0  0  0
   39.2730   23.7830   39.5220 F   0  0  0  0  0  0  0  0  0  0  0  0
   38.8032   26.4643   35.1944 H   0  0  0  0  0  0  0  0  0  0  0  0
   41.4248   23.0603   35.5622 H   0  0  0  0  0  0  0  0  0  0  0  0
   41.7691   27.4660   31.9799 H   0  0  0  0  0  0  0  0  0  0  0  0
   43.6092   28.7966   30.9535 H   0  0  0  0  0  0  0  0  0  0  0  0
   45.8144   28.9678   32.0439 H   0  0  0  0  0  0  0  0  0  0  0  0
   49.2051   29.3875   35.1806 H   0  0  0  0  0  0  0  0  0  0  0  0
  1  2  2  0
  2 18  1  0
  3  2  1  0
  4  3  2  0
  5  6  2  0
  5  4  1  0
  6  1  1  0
  7 12  1  0
  7  5  1  0
  8  7  2  0
  9  8  1  0
  9 10  2  0
 10 11  1  0
 11 12  2  0
 11 13  1  0
 13 14  2  0
 14 15  1  0
 16 15  1  0
 17 13  1  0
 17 16  2  0
 18 20  1  0
 19 18  2  0
 20 21  1  0
 21 22  1  0
 21 24  1  0
 23 21  1  0
  1 25  1  0
  3 26  1  0
  8 27  1  0
  9 28  1  0
 10 29  1  0
 16 30  1  0
M  ISO  6  25  14  26  14  27  14  28  14  29  14  30  14
M  END
>  <minimizedAffinity>  (1) 
-4.81835175

>  <minimizedRMSD>  (1) 
0.920618534

$$$$
