
     RDKit          3D

 28 29  0  0  0  0  0  0  0  0999 V2000
   39.6530   25.8250   35.0880 C   0  0  0  0  0  0  0  0  0  0  0  0
   39.9110   24.5310   35.4890 C   0  0  0  0  0  0  0  0  0  0  0  0
   41.1740   23.9760   35.2830 C   0  0  0  0  0  0  0  0  0  0  0  0
   42.1140   24.7380   34.6880 N   0  0  0  0  0  0  0  0  0  0  0  0
   41.8290   26.0150   34.3020 C   0  0  0  0  0  0  0  0  0  0  0  0
   40.6160   26.5470   34.5000 N   0  0  0  0  0  0  0  0  0  0  0  0
   42.8700   26.8350   33.6530 C   0  0  0  0  0  0  0  0  0  0  0  0
   42.5260   27.4990   32.4780 C   0  0  0  0  0  0  0  0  0  0  0  0
   43.5350   28.2550   31.9050 C   0  0  0  0  0  0  0  0  0  0  0  0
   44.7850   28.3430   32.4570 C   0  0  0  0  0  0  0  0  0  0  0  0
   45.0730   27.6660   33.6210 C   0  0  0  0  0  0  0  0  0  0  0  0
   44.1010   26.9420   34.1660 N   0  0  0  0  0  0  0  0  0  0  0  0
   46.4230   27.7550   34.2240 C   0  0  0  0  0  0  0  0  0  0  0  0
   46.6730   29.0920   34.4710 F   0  0  0  0  0  0  0  0  0  0  0  0
   46.4610   27.0620   35.4350 F   0  0  0  0  0  0  0  0  0  0  0  0
   47.3820   27.1950   33.3810 F   0  0  0  0  0  0  0  0  0  0  0  0
   38.9950   23.6330   36.1260 C   0  0  0  0  0  0  0  0  0  0  0  0
   37.9230   23.1570   35.6300 O   0  0  0  0  0  0  0  0  0  0  0  0
   39.0680   23.0940   37.3960 O   0  0  0  0  0  0  0  0  0  0  0  0
   38.3770   23.6980   38.4980 C   0  0  0  0  0  0  0  0  0  0  0  0
   37.3390   22.8790   38.9040 F   0  0  0  0  0  0  0  0  0  0  0  0
   37.9530   24.9780   38.1640 F   0  0  0  0  0  0  0  0  0  0  0  0
   39.2660   23.7840   39.5570 F   0  0  0  0  0  0  0  0  0  0  0  0
   38.6575   26.2638   35.2508 H   0  0  0  0  0  0  0  0  0  0  0  0
   41.3969   22.9456   35.5971 H   0  0  0  0  0  0  0  0  0  0  0  0
   41.5215   27.4278   32.0354 H   0  0  0  0  0  0  0  0  0  0  0  0
   43.3251   28.8034   30.9748 H   0  0  0  0  0  0  0  0  0  0  0  0
   45.5592   28.9546   31.9706 H   0  0  0  0  0  0  0  0  0  0  0  0
  1  2  2  0
  2 17  1  0
  3  2  1  0
  4  3  2  0
  5  6  2  0
  5  4  1  0
  6  1  1  0
  7 12  1  0
  7  5  1  0
  8  7  2  0
  9 10  2  0
  9  8  1  0
 10 11  1  0
 11 12  2  0
 11 13  1  0
 13 14  1  0
 13 15  1  0
 16 13  1  0
 17 19  1  0
 18 17  2  0
 19 20  1  0
 20 21  1  0
 20 23  1  0
 22 20  1  0
  1 24  1  0
  3 25  1  0
  8 26  1  0
  9 27  1  0
 10 28  1  0
M  ISO  5  24  14  25  14  26  14  27  14  28  14
M  END
>  <minimizedAffinity>  (1) 
-4.63270473

>  <minimizedRMSD>  (1) 
0.512720942

$$$$
