
     RDKit          3D

 37 39  0  0  0  0  0  0  0  0999 V2000
   39.7140   25.8320   35.0830 C   0  0  0  0  0  0  0  0  0  0  0  0
   39.9590   24.5240   35.4930 C   0  0  0  0  0  0  0  0  0  0  0  0
   41.2200   23.9570   35.3050 C   0  0  0  0  0  0  0  0  0  0  0  0
   42.1700   24.7150   34.7220 N   0  0  0  0  0  0  0  0  0  0  0  0
   41.8970   25.9980   34.3310 C   0  0  0  0  0  0  0  0  0  0  0  0
   40.6850   26.5370   34.5130 N   0  0  0  0  0  0  0  0  0  0  0  0
   42.9530   26.8110   33.6940 C   0  0  0  0  0  0  0  0  0  0  0  0
   42.6380   27.4430   32.4830 C   0  0  0  0  0  0  0  0  0  0  0  0
   43.6450   28.1880   31.9250 C   0  0  0  0  0  0  0  0  0  0  0  0
   44.8750   28.3020   32.5180 C   0  0  0  0  0  0  0  0  0  0  0  0
   45.1490   27.6630   33.7130 C   0  0  0  0  0  0  0  0  0  0  0  0
   44.1630   26.9430   34.2450 N   0  0  0  0  0  0  0  0  0  0  0  0
   46.3870   27.7110   34.4170 N   0  0  0  0  0  0  0  0  0  0  0  0
   47.0020   26.7180   35.2820 C   0  0  0  0  0  0  0  0  0  0  0  0
   48.3780   26.6040   34.6110 C   0  0  0  0  0  0  0  0  0  0  0  0
   48.5920   27.9570   33.9360 C   0  0  0  0  0  0  0  0  0  0  0  0
   47.3990   28.7520   34.4850 C   0  0  0  0  0  0  0  0  0  0  0  0
   39.0200   23.6450   36.1180 C   0  0  0  0  0  0  0  0  0  0  0  0
   37.9390   23.1950   35.6200 O   0  0  0  0  0  0  0  0  0  0  0  0
   39.0740   23.0910   37.3950 O   0  0  0  0  0  0  0  0  0  0  0  0
   38.3870   23.6980   38.4870 C   0  0  0  0  0  0  0  0  0  0  0  0
   37.3350   22.8900   38.8960 F   0  0  0  0  0  0  0  0  0  0  0  0
   37.9670   24.9730   38.1520 F   0  0  0  0  0  0  0  0  0  0  0  0
   39.2600   23.7860   39.5590 F   0  0  0  0  0  0  0  0  0  0  0  0
   38.7202   26.2798   35.2305 H   0  0  0  0  0  0  0  0  0  0  0  0
   41.4319   22.9253   35.6222 H   0  0  0  0  0  0  0  0  0  0  0  0
   41.6487   27.3476   32.0116 H   0  0  0  0  0  0  0  0  0  0  0  0
   43.4600   28.7090   30.9741 H   0  0  0  0  0  0  0  0  0  0  0  0
   45.6550   28.9102   32.0367 H   0  0  0  0  0  0  0  0  0  0  0  0
   47.0812   27.0726   36.3203 H   0  0  0  0  0  0  0  0  0  0  0  0
   46.4481   25.7719   35.3718 H   0  0  0  0  0  0  0  0  0  0  0  0
   49.1609   26.4160   35.3605 H   0  0  0  0  0  0  0  0  0  0  0  0
   48.4250   25.7695   33.8959 H   0  0  0  0  0  0  0  0  0  0  0  0
   48.5508   27.8724   32.8400 H   0  0  0  0  0  0  0  0  0  0  0  0
   49.5721   28.4138   34.1379 H   0  0  0  0  0  0  0  0  0  0  0  0
   47.1488   29.6137   33.8487 H   0  0  0  0  0  0  0  0  0  0  0  0
   47.5468   29.2064   35.4758 H   0  0  0  0  0  0  0  0  0  0  0  0
  1  2  2  0
  2 18  1  0
  3  2  1  0
  4  3  2  0
  5  6  2  0
  5  4  1  0
  6  1  1  0
  7 12  1  0
  7  5  1  0
  8  7  2  0
  9  8  1  0
  9 10  2  0
 10 11  1  0
 11 12  2  0
 11 13  1  0
 13 17  1  0
 13 14  1  0
 15 14  1  0
 16 17  1  0
 16 15  1  0
 18 20  1  0
 19 18  2  0
 20 21  1  0
 21 22  1  0
 21 24  1  0
 23 21  1  0
  1 25  1  0
  3 26  1  0
  8 27  1  0
  9 28  1  0
 10 29  1  0
 14 30  1  0
 14 31  1  0
 15 32  1  0
 15 33  1  0
 16 34  1  0
 16 35  1  0
 17 36  1  0
 17 37  1  0
M  ISO  8  25  14  26  14  27  14  28  14  29  14  30  13  31  13  32  13
M  ISO  5  33  13  34  13  35  13  36  13  37  13
M  END
>  <minimizedAffinity>  (1) 
-4.87678576

>  <minimizedRMSD>  (1) 
0.703609705

$$$$
