
     RDKit          3D

 32 33  0  0  0  0  0  0  0  0999 V2000
   40.1540   24.6340   34.9260 C   0  0  0  0  0  0  0  0  0  0  0  0
   40.0720   23.3260   35.4490 C   0  0  0  0  0  0  0  0  0  0  0  0
   39.0140   22.5860   34.9670 C   0  0  0  0  0  0  0  0  0  0  0  0
   38.1410   23.1080   34.0600 N   0  0  0  0  0  0  0  0  0  0  0  0
   38.2580   24.3700   33.5830 C   0  0  0  0  0  0  0  0  0  0  0  0
   39.2680   25.1030   34.0320 N   0  0  0  0  0  0  0  0  0  0  0  0
   37.2830   24.7980   32.6390 N   0  0  0  0  0  0  0  0  0  0  0  0
   36.6950   26.1140   32.8040 C   0  0  0  0  0  0  0  0  0  0  0  0
   36.0720   26.6260   31.5420 C   0  0  0  0  0  0  0  0  0  0  0  0
   35.1460   25.6510   30.8930 C   0  0  0  0  0  0  0  0  0  0  0  0
   35.3660   24.2390   31.3630 C   0  0  0  0  0  0  0  0  0  0  0  0
   36.8560   23.9780   31.5250 C   0  0  0  0  0  0  0  0  0  0  0  0
   41.0030   22.8260   36.3770 N   0  0  0  0  0  0  0  0  0  0  0  0
   40.6880   22.1570   37.5660 C   0  0  0  0  0  0  0  0  0  0  0  0
   39.6470   22.6400   38.2200 N   0  0  0  0  0  0  0  0  0  0  0  0
   41.5380   21.0320   37.9220 N   0  0  0  0  0  0  0  0  0  0  0  0
   39.3230   22.1920   39.0920 H   0  0  0  0  0  0  0  0  0  0  0  0
   40.9701   25.2910   35.2613 H   0  0  0  0  0  0  0  0  0  0  0  0
   38.8715   21.5544   35.3211 H   0  0  0  0  0  0  0  0  0  0  0  0
   35.9202   26.0591   33.5829 H   0  0  0  0  0  0  0  0  0  0  0  0
   37.5014   26.8077   33.0841 H   0  0  0  0  0  0  0  0  0  0  0  0
   35.5053   27.5384   31.7795 H   0  0  0  0  0  0  0  0  0  0  0  0
   36.8908   26.8143   30.8319 H   0  0  0  0  0  0  0  0  0  0  0  0
   35.3026   25.6880   29.8048 H   0  0  0  0  0  0  0  0  0  0  0  0
   34.1193   25.9357   31.1666 H   0  0  0  0  0  0  0  0  0  0  0  0
   34.8621   24.0929   32.3298 H   0  0  0  0  0  0  0  0  0  0  0  0
   34.9526   23.5399   30.6212 H   0  0  0  0  0  0  0  0  0  0  0  0
   37.0370   22.9147   31.7409 H   0  0  0  0  0  0  0  0  0  0  0  0
   37.4112   24.2222   30.6073 H   0  0  0  0  0  0  0  0  0  0  0  0
   42.0013   22.9636   36.1639 H   0  0  0  0  0  0  0  0  0  0  0  0
   41.3550   20.5013   38.7856 H   0  0  0  0  0  0  0  0  0  0  0  0
   42.3230   20.7659   37.3106 H   0  0  0  0  0  0  0  0  0  0  0  0
  1  2  2  0
  2 13  1  0
  3  2  1  0
  4  3  2  0
  5  6  2  0
  5  4  1  0
  6  1  1  0
  7  8  1  0
  7  5  1  0
  9  8  1  0
 10 11  1  0
 10  9  1  0
 11 12  1  0
 12  7  1  0
 13 14  1  0
 14 16  1  0
 14 15  2  0
 15 17  1  0
  1 18  1  0
  3 19  1  0
  8 20  1  0
  8 21  1  0
  9 22  1  0
  9 23  1  0
 10 24  1  0
 10 25  1  0
 11 26  1  0
 11 27  1  0
 12 28  1  0
 12 29  1  0
 13 30  1  0
 16 31  1  0
 16 32  1  0
M  ISO  8  18  14  19  14  20  13  21  13  22  13  23  13  24  13  25  13
M  ISO  4  26  13  27  13  28  13  29  13
M  END
>  <minimizedAffinity>  (1) 
-5.17283392

>  <minimizedRMSD>  (1) 
0.527143538

$$$$
