
     RDKit          3D

 44 46  0  0  0  0  0  0  0  0999 V2000
   42.7880   26.5630   33.7060 C   0  0  0  0  0  0  0  0  0  0  0  0
   42.4450   27.3640   32.6180 C   0  0  0  0  0  0  0  0  0  0  0  0
   43.5030   28.0790   32.0840 C   0  0  0  0  0  0  0  0  0  0  0  0
   44.7820   28.0000   32.5880 C   0  0  0  0  0  0  0  0  0  0  0  0
   45.0420   27.1950   33.6560 C   0  0  0  0  0  0  0  0  0  0  0  0
   44.0430   26.4980   34.1860 N   0  0  0  0  0  0  0  0  0  0  0  0
   39.5390   25.6860   35.1470 C   0  0  0  0  0  0  0  0  0  0  0  0
   39.7050   24.3520   35.4560 C   0  0  0  0  0  0  0  0  0  0  0  0
   40.9120   23.7200   35.1840 C   0  0  0  0  0  0  0  0  0  0  0  0
   41.9010   24.4430   34.6190 N   0  0  0  0  0  0  0  0  0  0  0  0
   41.7070   25.7740   34.3230 C   0  0  0  0  0  0  0  0  0  0  0  0
   40.5390   26.3640   34.5910 N   0  0  0  0  0  0  0  0  0  0  0  0
   38.7290   23.4820   36.0560 C   0  0  0  0  0  0  0  0  0  0  0  0
   37.6390   23.0870   35.5330 O   0  0  0  0  0  0  0  0  0  0  0  0
   38.7560   22.8940   37.3050 O   0  0  0  0  0  0  0  0  0  0  0  0
   38.2260   23.5680   38.4600 C   0  0  0  0  0  0  0  0  0  0  0  0
   37.2180   22.8080   39.0290 F   0  0  0  0  0  0  0  0  0  0  0  0
   37.7600   24.8230   38.0930 F   0  0  0  0  0  0  0  0  0  0  0  0
   39.2300   23.7130   39.3880 F   0  0  0  0  0  0  0  0  0  0  0  0
   46.3810   27.0930   34.2090 C   0  0  0  0  0  0  0  0  0  0  0  0
   47.4070   27.0090   33.4980 O   0  0  0  0  0  0  0  0  0  0  0  0
   46.5590   27.0870   35.5890 O   0  0  0  0  0  0  0  0  0  0  0  0
   46.5730   25.9170   36.3640 C   0  0  0  0  0  0  0  0  0  0  0  0
   45.2260   25.5400   36.8990 C   0  0  0  0  0  0  0  0  0  0  0  0
   45.0500   25.9400   38.3490 C   0  0  0  0  0  0  0  0  0  0  0  0
   46.0740   25.2770   39.2270 C   0  0  0  0  0  0  0  0  0  0  0  0
   47.2730   24.7880   38.4030 C   0  0  0  0  0  0  0  0  0  0  0  0
   47.5940   25.9320   37.4610 C   0  0  0  0  0  0  0  0  0  0  0  0
   41.4219   27.4228   32.2183 H   0  0  0  0  0  0  0  0  0  0  0  0
   43.3146   28.7366   31.2226 H   0  0  0  0  0  0  0  0  0  0  0  0
   45.5922   28.5857   32.1292 H   0  0  0  0  0  0  0  0  0  0  0  0
   38.5832   26.1872   35.3596 H   0  0  0  0  0  0  0  0  0  0  0  0
   41.0577   22.6563   35.4234 H   0  0  0  0  0  0  0  0  0  0  0  0
   46.8750   25.1336   35.6533 H   0  0  0  0  0  0  0  0  0  0  0  0
   44.4536   26.0417   36.2976 H   0  0  0  0  0  0  0  0  0  0  0  0
   45.1347   24.4454   36.8388 H   0  0  0  0  0  0  0  0  0  0  0  0
   45.1570   27.0314   38.4351 H   0  0  0  0  0  0  0  0  0  0  0  0
   44.0506   25.6195   38.6785 H   0  0  0  0  0  0  0  0  0  0  0  0
   46.4250   25.9994   39.9786 H   0  0  0  0  0  0  0  0  0  0  0  0
   45.6071   24.4086   39.7148 H   0  0  0  0  0  0  0  0  0  0  0  0
   48.1306   24.5739   39.0577 H   0  0  0  0  0  0  0  0  0  0  0  0
   47.0502   23.8568   37.8615 H   0  0  0  0  0  0  0  0  0  0  0  0
   48.6006   25.7983   37.0381 H   0  0  0  0  0  0  0  0  0  0  0  0
   47.5700   26.8920   37.9975 H   0  0  0  0  0  0  0  0  0  0  0  0
  1  6  1  0
  1 11  1  0
  2  1  2  0
  3  4  2  0
  3  2  1  0
  4  5  1  0
  5  6  2  0
  5 20  1  0
  7  8  2  0
  8 13  1  0
  9  8  1  0
 10  9  2  0
 11 12  2  0
 11 10  1  0
 12  7  1  0
 13 15  1  0
 14 13  2  0
 15 16  1  0
 16 17  1  0
 16 19  1  0
 18 16  1  0
 20 22  1  0
 21 20  2  0
 22 23  1  0
 23 24  1  0
 23 28  1  0
 24 25  1  0
 25 26  1  0
 27 26  1  0
 28 27  1  0
  2 29  1  0
  3 30  1  0
  4 31  1  0
  7 32  1  0
  9 33  1  0
 23 34  1  0
 24 35  1  0
 24 36  1  0
 25 37  1  0
 25 38  1  0
 26 39  1  0
 26 40  1  0
 27 41  1  0
 27 42  1  0
 28 43  1  0
 28 44  1  0
M  ISO  8  29  14  30  14  31  14  32  14  33  14  34  13  35  13  36  13
M  ISO  8  37  13  38  13  39  13  40  13  41  13  42  13  43  13  44  13
M  END
>  <minimizedAffinity>  (1) 
-5.69488096

>  <minimizedRMSD>  (1) 
2.95822549

$$$$
