
     RDKit          3D

 39 41  0  0  1  0  0  0  0  0999 V2000
   36.3580   29.8870   32.1160 C   0  0  0  0  0  0  0  0  0  0  0  0
   37.0870   28.8200   31.6660 C   0  0  0  0  0  0  0  0  0  0  0  0
   37.2540   27.7230   32.5030 C   0  0  0  0  0  0  0  0  0  0  0  0
   36.6890   27.7190   33.7650 C   0  0  0  0  0  0  0  0  0  0  0  0
   35.9560   28.7810   34.2230 C   0  0  0  0  0  0  0  0  0  0  0  0
   35.7850   29.8780   33.4010 C   0  0  0  0  0  0  0  0  0  0  0  0
   36.9700   26.4760   34.5240 C   0  0  0  0  0  0  0  0  0  0  0  0
   38.3990   26.3560   34.9620 C   0  0  2  0  0  0  0  0  0  0  0  0
   40.1950   23.3480   36.0210 C   0  0  0  0  0  0  0  0  0  0  0  0
   39.2780   22.7070   36.9110 C   0  0  0  0  0  0  0  0  0  0  0  0
   38.0400   23.3290   37.1320 C   0  0  0  0  0  0  0  0  0  0  0  0
   37.7880   24.5140   36.4820 N   0  0  0  0  0  0  0  0  0  0  0  0
   38.6810   25.0870   35.6510 C   0  0  0  0  0  0  0  0  0  0  0  0
   39.8850   24.5120   35.4150 N   0  0  0  0  0  0  0  0  0  0  0  0
   38.6860   27.4930   35.9380 C   0  0  0  0  0  0  0  0  0  0  0  0
   36.1270   31.2590   31.0560 S   0  0  0  0  0  0  0  0  0  0  0  0
   36.4950   30.8010   29.6380 O   0  0  0  0  0  0  0  0  0  0  0  0
   37.0220   32.3850   31.4330 O   0  0  0  0  0  0  0  0  0  0  0  0
   34.4700   31.8110   31.0270 C   0  0  0  0  0  0  0  0  0  0  0  0
   33.8750   33.0430   31.1050 C   0  0  0  0  0  0  0  0  0  0  0  0
   32.5390   32.9000   31.0310 N   0  0  0  0  0  0  0  0  0  0  0  0
   32.2650   31.5960   30.9070 C   0  0  0  0  0  0  0  0  0  0  0  0
   33.4310   30.9370   30.9040 N   0  0  0  0  0  0  0  0  0  0  0  0
   37.5326   28.8303   30.6604 H   0  0  0  0  0  0  0  0  0  0  0  0
   37.8373   26.8556   32.1605 H   0  0  0  0  0  0  0  0  0  0  0  0
   35.5108   28.7610   35.2287 H   0  0  0  0  0  0  0  0  0  0  0  0
   35.2020   30.7429   33.7504 H   0  0  0  0  0  0  0  0  0  0  0  0
   36.3289   26.4607   35.4177 H   0  0  0  0  0  0  0  0  0  0  0  0
   36.7647   25.6308   33.8506 H   0  0  0  0  0  0  0  0  0  0  0  0
   39.0309   26.3971   34.0626 H   0  0  0  0  0  0  0  0  0  0  0  0
   41.1726   22.8825   35.8268 H   0  0  0  0  0  0  0  0  0  0  0  0
   39.5343   21.7585   37.4056 H   0  0  0  0  0  0  0  0  0  0  0  0
   37.2935   22.8821   37.8050 H   0  0  0  0  0  0  0  0  0  0  0  0
   38.5926   27.1230   36.9697 H   0  0  0  0  0  0  0  0  0  0  0  0
   39.7070   27.8681   35.7740 H   0  0  0  0  0  0  0  0  0  0  0  0
   37.9653   28.3077   35.7740 H   0  0  0  0  0  0  0  0  0  0  0  0
   34.4068   34.0000   31.2115 H   0  0  0  0  0  0  0  0  0  0  0  0
   31.2643   31.1471   30.8229 H   0  0  0  0  0  0  0  0  0  0  0  0
   33.5288   29.9151   30.8206 H   0  0  0  0  0  0  0  0  0  0  0  0
  1  6  1  0
  2  1  2  0
  2  3  1  0
  3  4  2  0
  4  5  1  0
  4  7  1  0
  6  5  2  0
  7  8  1  0
  8 13  1  0
  8 15  1  0
  9 10  2  0
 10 11  1  0
 12 11  2  0
 13 12  1  0
 14 13  2  0
 14  9  1  0
 16 18  2  0
 16  1  1  0
 17 16  2  0
 19 16  1  0
 19 20  2  0
 21 20  1  0
 22 21  2  0
 23 22  1  0
 23 19  1  0
  2 24  1  0
  3 25  1  0
  5 26  1  0
  6 27  1  0
  7 28  1  0
  7 29  1  0
  8 30  1  6
  9 31  1  0
 10 32  1  0
 11 33  1  0
 15 34  1  0
 15 35  1  0
 15 36  1  0
 20 37  1  0
 22 38  1  0
 23 39  1  0
M  ISO  8  24  14  25  14  26  14  27  14  28   8  29   8  30   8  31  14
M  ISO  8  32  14  33  14  34   8  35   8  36   8  37  14  38  14  39   9
M  END
>  <minimizedAffinity>  (1) 
-4.80573654

>  <minimizedRMSD>  (1) 
1.67374635

$$$$
