
     RDKit          3D

 32 33  0  0  0  0  0  0  0  0999 V2000
   43.0280   26.9320   33.6280 C   0  0  0  0  0  0  0  0  0  0  0  0
   42.7530   27.4630   32.3590 C   0  0  0  0  0  0  0  0  0  0  0  0
   43.7880   28.2010   31.8040 C   0  0  0  0  0  0  0  0  0  0  0  0
   44.9970   28.3960   32.4560 C   0  0  0  0  0  0  0  0  0  0  0  0
   45.1960   27.8440   33.6990 C   0  0  0  0  0  0  0  0  0  0  0  0
   44.2070   27.1410   34.2260 N   0  0  0  0  0  0  0  0  0  0  0  0
   39.7900   26.0070   35.0480 C   0  0  0  0  0  0  0  0  0  0  0  0
   40.0100   24.7040   35.4320 C   0  0  0  0  0  0  0  0  0  0  0  0
   41.2520   24.1010   35.2250 C   0  0  0  0  0  0  0  0  0  0  0  0
   42.2180   24.8450   34.6370 N   0  0  0  0  0  0  0  0  0  0  0  0
   41.9710   26.1430   34.2630 C   0  0  0  0  0  0  0  0  0  0  0  0
   40.7700   26.7020   34.4720 N   0  0  0  0  0  0  0  0  0  0  0  0
   39.0530   23.8330   36.0630 C   0  0  0  0  0  0  0  0  0  0  0  0
   37.9480   23.4320   35.5920 O   0  0  0  0  0  0  0  0  0  0  0  0
   39.1360   23.2430   37.3260 O   0  0  0  0  0  0  0  0  0  0  0  0
   38.4270   23.7760   38.4390 C   0  0  0  0  0  0  0  0  0  0  0  0
   37.3490   22.9830   38.7590 F   0  0  0  0  0  0  0  0  0  0  0  0
   38.0270   25.0830   38.1710 F   0  0  0  0  0  0  0  0  0  0  0  0
   39.2760   23.7920   39.5300 F   0  0  0  0  0  0  0  0  0  0  0  0
   46.4440   28.0340   34.3920 C   0  0  0  0  0  0  0  0  0  0  0  0
   46.9260   27.1830   35.1620 O   0  0  0  0  0  0  0  0  0  0  0  0
   47.1640   29.2250   34.2070 O   0  0  0  0  0  0  0  0  0  0  0  0
   48.5170   29.3050   34.5410 C   0  0  0  0  0  0  0  0  0  0  0  0
   48.7860   29.7470   35.8700 N   0  0  0  0  0  0  0  0  0  0  0  0
   49.4230   29.0040   33.7200 O   0  0  0  0  0  0  0  0  0  0  0  0
   41.7931   27.3066   31.8451 H   0  0  0  0  0  0  0  0  0  0  0  0
   43.6448   28.6485   30.8094 H   0  0  0  0  0  0  0  0  0  0  0  0
   45.7921   28.9892   31.9807 H   0  0  0  0  0  0  0  0  0  0  0  0
   38.8080   26.4734   35.2161 H   0  0  0  0  0  0  0  0  0  0  0  0
   41.4386   23.0603   35.5284 H   0  0  0  0  0  0  0  0  0  0  0  0
   49.7589   29.8338   36.1969 H   0  0  0  0  0  0  0  0  0  0  0  0
   48.0074   29.9794   36.5030 H   0  0  0  0  0  0  0  0  0  0  0  0
  1  6  1  0
  1 11  1  0
  2  1  2  0
  3  2  1  0
  3  4  2  0
  4  5  1  0
  5  6  2  0
  5 20  1  0
  7  8  2  0
  8 13  1  0
  9  8  1  0
 10  9  2  0
 11 12  2  0
 11 10  1  0
 12  7  1  0
 13 15  1  0
 14 13  2  0
 15 16  1  0
 16 17  1  0
 16 19  1  0
 18 16  1  0
 20 21  2  0
 22 20  1  0
 22 23  1  0
 23 24  1  0
 25 23  2  0
  2 26  1  0
  3 27  1  0
  4 28  1  0
  7 29  1  0
  9 30  1  0
 24 31  1  0
 24 32  1  0
M  ISO  5  26  14  27  14  28  14  29  14  30  14
M  END
>  <minimizedAffinity>  (1) 
-4.67470121

>  <minimizedRMSD>  (1) 
0.289559692

$$$$
