
     RDKit          3D

 40 41  0  0  0  0  0  0  0  0999 V2000
   43.9500   25.4790   35.4450 C   0  0  0  0  0  0  0  0  0  0  0  0
   44.3650   26.0730   34.2380 C   0  0  0  0  0  0  0  0  0  0  0  0
   45.6480   26.5740   34.2500 C   0  0  0  0  0  0  0  0  0  0  0  0
   46.4630   26.4990   35.3600 C   0  0  0  0  0  0  0  0  0  0  0  0
   46.0000   25.9040   36.5190 C   0  0  0  0  0  0  0  0  0  0  0  0
   44.7710   25.4280   36.4950 N   0  0  0  0  0  0  0  0  0  0  0  0
   40.3370   25.1540   35.0260 C   0  0  0  0  0  0  0  0  0  0  0  0
   40.0880   23.9190   35.5710 C   0  0  0  0  0  0  0  0  0  0  0  0
   41.1300   23.1700   36.0890 C   0  0  0  0  0  0  0  0  0  0  0  0
   42.3780   23.6850   36.0430 N   0  0  0  0  0  0  0  0  0  0  0  0
   42.5950   24.9290   35.4900 C   0  0  0  0  0  0  0  0  0  0  0  0
   41.5840   25.6380   34.9940 N   0  0  0  0  0  0  0  0  0  0  0  0
   38.8070   23.2730   35.6720 C   0  0  0  0  0  0  0  0  0  0  0  0
   37.9410   23.1360   34.7490 O   0  0  0  0  0  0  0  0  0  0  0  0
   38.2410   22.6660   36.7890 O   0  0  0  0  0  0  0  0  0  0  0  0
   38.0460   23.3700   38.0050 C   0  0  0  0  0  0  0  0  0  0  0  0
   37.0900   22.7480   38.7860 F   0  0  0  0  0  0  0  0  0  0  0  0
   37.6840   24.6870   37.7260 F   0  0  0  0  0  0  0  0  0  0  0  0
   39.2240   23.3800   38.7120 F   0  0  0  0  0  0  0  0  0  0  0  0
   46.8480   25.8190   37.6960 C   0  0  0  0  0  0  0  0  0  0  0  0
   46.3590   25.7170   38.8460 O   0  0  0  0  0  0  0  0  0  0  0  0
   48.2290   25.8510   37.5290 O   0  0  0  0  0  0  0  0  0  0  0  0
   48.9870   24.7110   37.2740 C   0  0  0  0  0  0  0  0  0  0  0  0
   49.6710   24.7250   35.9330 C   0  0  0  0  0  0  0  0  0  0  0  0
   48.1100   23.4940   37.4890 C   0  0  0  0  0  0  0  0  0  0  0  0
   50.0780   24.6610   38.3510 C   0  0  0  0  0  0  0  0  0  0  0  0
   43.7144   26.1325   33.3530 H   0  0  0  0  0  0  0  0  0  0  0  0
   46.0375   27.0523   33.3392 H   0  0  0  0  0  0  0  0  0  0  0  0
   47.4816   26.9126   35.3233 H   0  0  0  0  0  0  0  0  0  0  0  0
   39.5080   25.7481   34.6139 H   0  0  0  0  0  0  0  0  0  0  0  0
   40.9463   22.1783   36.5280 H   0  0  0  0  0  0  0  0  0  0  0  0
   50.7612   24.7473   36.0777 H   0  0  0  0  0  0  0  0  0  0  0  0
   49.3942   23.8210   35.3707 H   0  0  0  0  0  0  0  0  0  0  0  0
   49.3574   25.6169   35.3707 H   0  0  0  0  0  0  0  0  0  0  0  0
   47.9838   23.3189   38.5676 H   0  0  0  0  0  0  0  0  0  0  0  0
   47.1261   23.6649   37.0277 H   0  0  0  0  0  0  0  0  0  0  0  0
   48.5834   22.6148   37.0277 H   0  0  0  0  0  0  0  0  0  0  0  0
   49.6114   24.6824   39.3469 H   0  0  0  0  0  0  0  0  0  0  0  0
   50.6614   23.7352   38.2392 H   0  0  0  0  0  0  0  0  0  0  0  0
   50.7436   25.5296   38.2392 H   0  0  0  0  0  0  0  0  0  0  0  0
  1 11  1  0
  1  6  2  0
  2  3  2  0
  2  1  1  0
  3  4  1  0
  4  5  2  0
  5 20  1  0
  6  5  1  0
  7  8  2  0
  8 13  1  0
  8  9  1  0
 10  9  2  0
 11 10  1  0
 12  7  1  0
 12 11  2  0
 13 15  1  0
 14 13  2  0
 15 16  1  0
 16 19  1  0
 16 17  1  0
 18 16  1  0
 20 21  2  0
 22 20  1  0
 23 25  1  0
 23 22  1  0
 23 26  1  0
 24 23  1  0
  2 27  1  0
  3 28  1  0
  4 29  1  0
  7 30  1  0
  9 31  1  0
 24 32  1  0
 24 33  1  0
 24 34  1  0
 25 35  1  0
 25 36  1  0
 25 37  1  0
 26 38  1  0
 26 39  1  0
 26 40  1  0
M  ISO  8  27  14  28  14  29  14  30  14  31  14  32   8  33   8  34   8
M  ISO  6  35   8  36   8  37   8  38   8  39   8  40   8
M  END
>  <minimizedAffinity>  (1) 
-4.69841194

>  <minimizedRMSD>  (1) 
3.30158472

$$$$
