
     RDKit          3D

 31 32  0  0  0  0  0  0  0  0999 V2000
   39.7800   26.0060   35.0440 C   0  0  0  0  0  0  0  0  0  0  0  0
   39.9870   24.6900   35.4440 C   0  0  0  0  0  0  0  0  0  0  0  0
   41.2310   24.0950   35.2590 C   0  0  0  0  0  0  0  0  0  0  0  0
   42.2150   24.8270   34.6870 N   0  0  0  0  0  0  0  0  0  0  0  0
   41.9880   26.1130   34.3040 C   0  0  0  0  0  0  0  0  0  0  0  0
   40.7800   26.6900   34.4830 N   0  0  0  0  0  0  0  0  0  0  0  0
   43.0630   26.9100   33.6810 C   0  0  0  0  0  0  0  0  0  0  0  0
   42.7840   27.5070   32.4430 C   0  0  0  0  0  0  0  0  0  0  0  0
   43.8280   28.2400   31.9090 C   0  0  0  0  0  0  0  0  0  0  0  0
   45.0450   28.3660   32.5530 C   0  0  0  0  0  0  0  0  0  0  0  0
   45.2540   27.7570   33.7630 C   0  0  0  0  0  0  0  0  0  0  0  0
   44.2480   27.0560   34.2680 N   0  0  0  0  0  0  0  0  0  0  0  0
   46.5140   27.8720   34.4570 C   0  0  0  0  0  0  0  0  0  0  0  0
   46.9900   26.9360   35.1500 O   0  0  0  0  0  0  0  0  0  0  0  0
   47.2310   29.0830   34.3450 O   0  0  0  0  0  0  0  0  0  0  0  0
   48.5170   29.1260   34.9780 C   0  0  0  0  0  0  0  0  0  0  0  0
   39.0220   23.8220   36.0590 C   0  0  0  0  0  0  0  0  0  0  0  0
   37.9120   23.4500   35.5670 O   0  0  0  0  0  0  0  0  0  0  0  0
   39.0890   23.2140   37.2940 O   0  0  0  0  0  0  0  0  0  0  0  0
   38.4100   23.7540   38.4320 C   0  0  0  0  0  0  0  0  0  0  0  0
   37.3290   22.9470   38.7730 F   0  0  0  0  0  0  0  0  0  0  0  0
   38.0160   25.0510   38.1780 F   0  0  0  0  0  0  0  0  0  0  0  0
   39.2760   23.7820   39.5100 F   0  0  0  0  0  0  0  0  0  0  0  0
   38.7982   26.4804   35.1890 H   0  0  0  0  0  0  0  0  0  0  0  0
   41.4102   23.0552   35.5700 H   0  0  0  0  0  0  0  0  0  0  0  0
   41.8129   27.4007   31.9374 H   0  0  0  0  0  0  0  0  0  0  0  0
   43.6854   28.7395   30.9394 H   0  0  0  0  0  0  0  0  0  0  0  0
   45.8494   28.9579   32.0920 H   0  0  0  0  0  0  0  0  0  0  0  0
   48.3883   29.1217   36.0704 H   0  0  0  0  0  0  0  0  0  0  0  0
   49.1046   28.2470   34.6746 H   0  0  0  0  0  0  0  0  0  0  0  0
   49.0446   30.0423   34.6746 H   0  0  0  0  0  0  0  0  0  0  0  0
  1  2  2  0
  2 17  1  0
  3  2  1  0
  4  3  2  0
  5  6  2  0
  5  4  1  0
  6  1  1  0
  7 12  1  0
  7  5  1  0
  8  7  2  0
  9  8  1  0
  9 10  2  0
 10 11  1  0
 11 12  2  0
 11 13  1  0
 13 14  2  0
 15 13  1  0
 15 16  1  0
 17 19  1  0
 18 17  2  0
 19 20  1  0
 20 21  1  0
 20 23  1  0
 22 20  1  0
  1 24  1  0
  3 25  1  0
  8 26  1  0
  9 27  1  0
 10 28  1  0
 16 29  1  0
 16 30  1  0
 16 31  1  0
M  ISO  8  24  14  25  14  26  14  27  14  28  14  29   8  30   8  31   8
M  END
>  <minimizedAffinity>  (1) 
-4.50478029

>  <minimizedRMSD>  (1) 
0.176811621

$$$$
