
     RDKit          3D

 26 27  0  0  0  0  0  0  0  0999 V2000
   39.8140   24.7720   35.1980 C   0  0  0  0  0  0  0  0  0  0  0  0
   40.0020   23.3770   35.4490 C   0  0  0  0  0  0  0  0  0  0  0  0
   39.1600   22.5350   34.7140 C   0  0  0  0  0  0  0  0  0  0  0  0
   38.2520   23.0640   33.8420 N   0  0  0  0  0  0  0  0  0  0  0  0
   38.1260   24.3800   33.6530 C   0  0  0  0  0  0  0  0  0  0  0  0
   38.9060   25.2160   34.3310 N   0  0  0  0  0  0  0  0  0  0  0  0
   40.9520   22.8770   36.3580 N   0  0  0  0  0  0  0  0  0  0  0  0
   40.6450   22.1830   37.5530 C   0  0  0  0  0  0  0  0  0  0  0  0
   39.5960   22.6290   38.2130 N   0  0  0  0  0  0  0  0  0  0  0  0
   41.5140   21.0860   37.8890 N   0  0  0  0  0  0  0  0  0  0  0  0
   39.2930   22.1810   39.0950 H   0  0  0  0  0  0  0  0  0  0  0  0
   37.1230   24.8420   32.6990 C   0  0  0  0  0  0  0  0  0  0  0  0
   36.3690   24.0100   31.9290 C   0  0  0  0  0  0  0  0  0  0  0  0
   35.4190   24.4580   31.0260 C   0  0  0  0  0  0  0  0  0  0  0  0
   35.2770   25.8390   30.9490 C   0  0  0  0  0  0  0  0  0  0  0  0
   36.0330   26.7170   31.7240 C   0  0  0  0  0  0  0  0  0  0  0  0
   36.9180   26.1650   32.5590 N   0  0  0  0  0  0  0  0  0  0  0  0
   40.4379   25.5001   35.7371 H   0  0  0  0  0  0  0  0  0  0  0  0
   39.2297   21.4443   34.8390 H   0  0  0  0  0  0  0  0  0  0  0  0
   41.9468   23.0273   36.1373 H   0  0  0  0  0  0  0  0  0  0  0  0
   41.3458   20.5395   38.7457 H   0  0  0  0  0  0  0  0  0  0  0  0
   42.3041   20.8475   37.2728 H   0  0  0  0  0  0  0  0  0  0  0  0
   36.5223   22.9253   32.0292 H   0  0  0  0  0  0  0  0  0  0  0  0
   34.8190   23.7695   30.4128 H   0  0  0  0  0  0  0  0  0  0  0  0
   34.5384   26.2554   30.2483 H   0  0  0  0  0  0  0  0  0  0  0  0
   35.9075   27.8074   31.6519 H   0  0  0  0  0  0  0  0  0  0  0  0
  1  2  2  0
  2  7  1  0
  3  2  1  0
  4  3  2  0
  5  4  1  0
  5  6  2  0
  6  1  1  0
  7  8  1  0
  8 10  1  0
  8  9  2  0
  9 11  1  0
 12  5  1  0
 13 12  2  0
 14 13  1  0
 15 14  2  0
 15 16  1  0
 16 17  2  0
 17 12  1  0
  1 18  1  0
  3 19  1  0
  7 20  1  0
 10 21  1  0
 10 22  1  0
 13 23  1  0
 14 24  1  0
 15 25  1  0
 16 26  1  0
M  ISO  6  18  14  19  14  23  14  24  14  25  14  26  14
M  END
>  <minimizedAffinity>  (1) 
-4.95331144

>  <minimizedRMSD>  (1) 
0.762149394

$$$$
