
     RDKit          3D

 20 21  0  0  0  0  0  0  0  0999 V2000
   39.4020   22.6570   36.0580 N   0  0  0  0  0  0  0  0  0  0  0  0
   40.4730   21.8520   36.2060 C   0  0  0  0  0  0  0  0  0  0  0  0
   40.8730   22.0030   37.5290 C   0  0  0  0  0  0  0  0  0  0  0  0
   40.0560   22.8720   38.1320 N   0  0  0  0  0  0  0  0  0  0  0  0
   39.1230   23.2940   37.2180 C   0  0  0  0  0  0  0  0  0  0  0  0
   38.9490   23.8790   33.9970 C   0  0  0  0  0  0  0  0  0  0  0  0
   38.6740   22.8130   34.8600 C   0  0  0  0  0  0  0  0  0  0  0  0
   37.6770   21.9470   34.4790 C   0  0  0  0  0  0  0  0  0  0  0  0
   37.0170   22.1510   33.3200 N   0  0  0  0  0  0  0  0  0  0  0  0
   37.3060   23.1930   32.5050 C   0  0  0  0  0  0  0  0  0  0  0  0
   38.2870   24.0620   32.8600 N   0  0  0  0  0  0  0  0  0  0  0  0
   38.0500   24.2690   37.5410 C   0  0  0  0  0  0  0  0  0  0  0  0
   38.3100   25.4650   36.8610 F   0  0  0  0  0  0  0  0  0  0  0  0
   36.8040   23.8620   37.1590 F   0  0  0  0  0  0  0  0  0  0  0  0
   38.0760   24.6030   38.8930 F   0  0  0  0  0  0  0  0  0  0  0  0
   40.9338   21.2102   35.4406 H   0  0  0  0  0  0  0  0  0  0  0  0
   41.7235   21.4906   38.0024 H   0  0  0  0  0  0  0  0  0  0  0  0
   39.7418   24.5912   34.2697 H   0  0  0  0  0  0  0  0  0  0  0  0
   37.4178   21.0896   35.1175 H   0  0  0  0  0  0  0  0  0  0  0  0
   36.7519   23.3340   31.5653 H   0  0  0  0  0  0  0  0  0  0  0  0
  1  2  1  0
  1  5  1  0
  2  3  2  0
  3  4  1  0
  5 12  1  0
  5  4  2  0
  6  7  2  0
  7  1  1  0
  8  7  1  0
  9  8  2  0
 10 11  2  0
 10  9  1  0
 11  6  1  0
 12 15  1  0
 13 12  1  0
 14 12  1  0
  2 16  1  0
  3 17  1  0
  6 18  1  0
  8 19  1  0
 10 20  1  0
M  ISO  5  16  14  17  14  18  14  19  14  20  14
M  END
>  <minimizedAffinity>  (1) 
-4.1376462

>  <minimizedRMSD>  (1) 
2.01620603

$$$$
