
     RDKit          3D

 20 21  0  0  0  0  0  0  0  0999 V2000
   38.6000   23.8770   34.0080 C   0  0  0  0  0  0  0  0  0  0  0  0
   38.4330   22.7700   34.8530 C   0  0  0  0  0  0  0  0  0  0  0  0
   37.5440   21.7780   34.4710 C   0  0  0  0  0  0  0  0  0  0  0  0
   36.8760   21.9140   33.3040 N   0  0  0  0  0  0  0  0  0  0  0  0
   37.0480   22.9840   32.5010 C   0  0  0  0  0  0  0  0  0  0  0  0
   37.9190   23.9710   32.8620 N   0  0  0  0  0  0  0  0  0  0  0  0
   39.1570   22.6850   36.0550 N   0  0  0  0  0  0  0  0  0  0  0  0
   40.3390   22.0240   36.2030 C   0  0  0  0  0  0  0  0  0  0  0  0
   40.7130   22.1830   37.5240 C   0  0  0  0  0  0  0  0  0  0  0  0
   39.7730   22.9200   38.1470 N   0  0  0  0  0  0  0  0  0  0  0  0
   38.8150   23.2240   37.2260 C   0  0  0  0  0  0  0  0  0  0  0  0
   37.6110   24.0330   37.5510 C   0  0  0  0  0  0  0  0  0  0  0  0
   39.2996   24.6770   34.2919 H   0  0  0  0  0  0  0  0  0  0  0  0
   37.3847   20.8947   35.1069 H   0  0  0  0  0  0  0  0  0  0  0  0
   36.4877   23.0610   31.5575 H   0  0  0  0  0  0  0  0  0  0  0  0
   40.8873   21.4727   35.4249 H   0  0  0  0  0  0  0  0  0  0  0  0
   41.6238   21.7767   37.9880 H   0  0  0  0  0  0  0  0  0  0  0  0
   37.5022   24.1061   38.6432 H   0  0  0  0  0  0  0  0  0  0  0  0
   37.7208   25.0413   37.1252 H   0  0  0  0  0  0  0  0  0  0  0  0
   36.7190   23.5503   37.1252 H   0  0  0  0  0  0  0  0  0  0  0  0
  1  2  2  0
  2  7  1  0
  3  2  1  0
  4  3  2  0
  5  6  2  0
  5  4  1  0
  6  1  1  0
  7  8  1  0
  7 11  1  0
  8  9  2  0
  9 10  1  0
 11 12  1  0
 11 10  2  0
  1 13  1  0
  3 14  1  0
  5 15  1  0
  8 16  1  0
  9 17  1  0
 12 18  1  0
 12 19  1  0
 12 20  1  0
M  ISO  8  13  14  14  14  15  14  16  14  17  14  18   8  19   8  20   8
M  END
>  <minimizedAffinity>  (1) 
-3.39699697

>  <minimizedRMSD>  (1) 
1.75251985

$$$$
