
     RDKit          3D

 32 34  0  0  0  0  0  0  0  0999 V2000
   39.8920   24.2880   34.7850 C   0  0  0  0  0  0  0  0  0  0  0  0
   39.6970   22.9360   35.0880 C   0  0  0  0  0  0  0  0  0  0  0  0
   38.6300   22.2490   34.5230 C   0  0  0  0  0  0  0  0  0  0  0  0
   37.8220   22.9640   33.6860 N   0  0  0  0  0  0  0  0  0  0  0  0
   38.0160   24.2540   33.4040 C   0  0  0  0  0  0  0  0  0  0  0  0
   39.0600   24.9150   33.9590 N   0  0  0  0  0  0  0  0  0  0  0  0
   37.1340   24.9390   32.5220 N   0  0  0  0  0  0  0  0  0  0  0  0
   36.4740   24.2080   31.4650 C   0  0  0  0  0  0  0  0  0  0  0  0
   35.2050   24.8140   30.9790 C   0  0  0  0  0  0  0  0  0  0  0  0
   34.9780   26.0930   31.4230 O   0  0  0  0  0  0  0  0  0  0  0  0
   36.1730   26.8100   31.4230 C   0  0  0  0  0  0  0  0  0  0  0  0
   36.9040   26.3710   32.6960 C   0  0  0  0  0  0  0  0  0  0  0  0
   40.5880   22.2690   35.9680 N   0  0  0  0  0  0  0  0  0  0  0  0
   41.7370   21.6490   35.5740 C   0  0  0  0  0  0  0  0  0  0  0  0
   42.3170   21.1260   36.7100 C   0  0  0  0  0  0  0  0  0  0  0  0
   41.5180   21.4340   37.7620 N   0  0  0  0  0  0  0  0  0  0  0  0
   40.4610   22.1360   37.2930 C   0  0  0  0  0  0  0  0  0  0  0  0
   39.3510   22.6810   38.0180 N   0  0  0  0  0  0  0  0  0  0  0  0
   40.7362   24.8338   35.2315 H   0  0  0  0  0  0  0  0  0  0  0  0
   38.4459   21.1861   34.7383 H   0  0  0  0  0  0  0  0  0  0  0  0
   37.1671   24.1388   30.6136 H   0  0  0  0  0  0  0  0  0  0  0  0
   36.2047   23.2296   31.8895 H   0  0  0  0  0  0  0  0  0  0  0  0
   34.3709   24.1805   31.3153 H   0  0  0  0  0  0  0  0  0  0  0  0
   35.2860   24.8730   29.8836 H   0  0  0  0  0  0  0  0  0  0  0  0
   36.7696   26.5657   30.5317 H   0  0  0  0  0  0  0  0  0  0  0  0
   36.0010   27.8963   31.4011 H   0  0  0  0  0  0  0  0  0  0  0  0
   36.2819   26.5581   33.5837 H   0  0  0  0  0  0  0  0  0  0  0  0
   37.8417   26.9258   32.8475 H   0  0  0  0  0  0  0  0  0  0  0  0
   42.1261   21.5796   34.5474 H   0  0  0  0  0  0  0  0  0  0  0  0
   43.2592   20.5601   36.7553 H   0  0  0  0  0  0  0  0  0  0  0  0
   39.2912   22.5560   39.0386 H   0  0  0  0  0  0  0  0  0  0  0  0
   38.6132   23.1976   37.5183 H   0  0  0  0  0  0  0  0  0  0  0  0
  1  2  2  0
  2 13  1  0
  3  2  1  0
  4  3  2  0
  5  4  1  0
  5  6  2  0
  6  1  1  0
  7 12  1  0
  7  5  1  0
  8  7  1  0
  9 10  1  0
  9  8  1  0
 10 11  1  0
 11 12  1  0
 13 17  1  0
 14 13  1  0
 14 15  2  0
 15 16  1  0
 17 16  2  0
 17 18  1  0
  1 19  1  0
  3 20  1  0
  8 21  1  0
  8 22  1  0
  9 23  1  0
  9 24  1  0
 11 25  1  0
 11 26  1  0
 12 27  1  0
 12 28  1  0
 14 29  1  0
 15 30  1  0
 18 31  1  0
 18 32  1  0
M  ISO  8  19  14  20  14  21  13  22  13  23  13  24  13  25  13  26  13
M  ISO  4  27  13  28  13  29  14  30  14
M  END
>  <minimizedAffinity>  (1) 
-4.81158543

>  <minimizedRMSD>  (1) 
2.32656312

$$$$
