
     RDKit          3D

 26 28  0  0  0  0  0  0  0  0999 V2000
   39.8300   24.1000   34.7580 C   0  0  0  0  0  0  0  0  0  0  0  0
   39.7230   22.7650   35.0970 C   0  0  0  0  0  0  0  0  0  0  0  0
   38.6680   22.0040   34.5730 C   0  0  0  0  0  0  0  0  0  0  0  0
   37.7960   22.6420   33.7460 N   0  0  0  0  0  0  0  0  0  0  0  0
   37.9130   23.9330   33.4280 C   0  0  0  0  0  0  0  0  0  0  0  0
   38.9450   24.6630   33.9450 N   0  0  0  0  0  0  0  0  0  0  0  0
   40.6630   22.1600   35.9630 N   0  0  0  0  0  0  0  0  0  0  0  0
   41.8140   21.5800   35.5710 C   0  0  0  0  0  0  0  0  0  0  0  0
   42.4490   21.1100   36.7020 C   0  0  0  0  0  0  0  0  0  0  0  0
   41.6750   21.4110   37.7570 N   0  0  0  0  0  0  0  0  0  0  0  0
   40.5570   22.0670   37.3100 C   0  0  0  0  0  0  0  0  0  0  0  0
   39.4450   22.5860   38.0500 N   0  0  0  0  0  0  0  0  0  0  0  0
   36.9950   24.6140   32.5530 C   0  0  0  0  0  0  0  0  0  0  0  0
   36.0650   24.2040   31.6910 C   0  0  0  0  0  0  0  0  0  0  0  0
   35.3140   25.0630   30.9700 C   0  0  0  0  0  0  0  0  0  0  0  0
   35.5910   26.4450   31.2000 C   0  0  0  0  0  0  0  0  0  0  0  0
   36.9750   26.3910   32.4970 S   0  0  0  0  0  0  0  0  0  0  0  0
   40.6559   24.7015   35.1655 H   0  0  0  0  0  0  0  0  0  0  0  0
   38.5506   20.9385   34.8197 H   0  0  0  0  0  0  0  0  0  0  0  0
   42.1807   21.4964   34.5373 H   0  0  0  0  0  0  0  0  0  0  0  0
   43.4145   20.5839   36.7337 H   0  0  0  0  0  0  0  0  0  0  0  0
   39.4170   22.4868   39.0748 H   0  0  0  0  0  0  0  0  0  0  0  0
   38.6737   23.0583   37.5571 H   0  0  0  0  0  0  0  0  0  0  0  0
   35.9032   23.1236   31.5621 H   0  0  0  0  0  0  0  0  0  0  0  0
   34.5464   24.7241   30.2588 H   0  0  0  0  0  0  0  0  0  0  0  0
   35.1182   27.3246   30.7387 H   0  0  0  0  0  0  0  0  0  0  0  0
  1  2  2  0
  2  7  1  0
  3  2  1  0
  4  3  2  0
  5  4  1  0
  5  6  2  0
  6  1  1  0
  7 11  1  0
  8  7  1  0
  8  9  2  0
  9 10  1  0
 11 10  2  0
 11 12  1  0
 13  5  1  0
 14 13  2  0
 15 16  2  0
 15 14  1  0
 16 17  1  0
 17 13  1  0
  1 18  1  0
  3 19  1  0
  8 20  1  0
  9 21  1  0
 12 22  1  0
 12 23  1  0
 14 24  1  0
 15 25  1  0
 16 26  1  0
M  ISO  7  18  14  19  14  20  14  21  14  24  14  25  14  26  14
M  END
>  <minimizedAffinity>  (1) 
-4.54416466

>  <minimizedRMSD>  (1) 
2.15720129

$$$$
