
     RDKit          3D

 31 33  0  0  0  0  0  0  0  0999 V2000
   40.1440   24.6620   35.1770 C   0  0  0  0  0  0  0  0  0  0  0  0
   39.8320   23.3110   35.3060 C   0  0  0  0  0  0  0  0  0  0  0  0
   38.7140   22.8020   34.6730 C   0  0  0  0  0  0  0  0  0  0  0  0
   37.9650   23.6810   33.9420 N   0  0  0  0  0  0  0  0  0  0  0  0
   38.2730   24.9800   33.8260 C   0  0  0  0  0  0  0  0  0  0  0  0
   39.3720   25.4740   34.4480 N   0  0  0  0  0  0  0  0  0  0  0  0
   37.4490   25.8400   33.0490 N   0  0  0  0  0  0  0  0  0  0  0  0
   37.5100   27.2940   33.1110 C   0  0  0  0  0  0  0  0  0  0  0  0
   36.1770   27.6940   32.4770 C   0  0  0  0  0  0  0  0  0  0  0  0
   36.1520   26.6980   31.3180 C   0  0  0  0  0  0  0  0  0  0  0  0
   36.4390   25.4170   32.0910 C   0  0  0  0  0  0  0  0  0  0  0  0
   40.6670   22.4650   36.0860 N   0  0  0  0  0  0  0  0  0  0  0  0
   41.7520   21.8080   35.6090 C   0  0  0  0  0  0  0  0  0  0  0  0
   42.2820   21.1040   36.6660 C   0  0  0  0  0  0  0  0  0  0  0  0
   41.5260   21.3370   37.7500 N   0  0  0  0  0  0  0  0  0  0  0  0
   40.5110   22.1900   37.3950 C   0  0  0  0  0  0  0  0  0  0  0  0
   39.4460   22.7360   38.1930 N   0  0  0  0  0  0  0  0  0  0  0  0
   41.0351   25.0652   35.6803 H   0  0  0  0  0  0  0  0  0  0  0  0
   38.4399   21.7398   34.7536 H   0  0  0  0  0  0  0  0  0  0  0  0
   37.5805   27.6474   34.1503 H   0  0  0  0  0  0  0  0  0  0  0  0
   38.3882   27.7235   32.6067 H   0  0  0  0  0  0  0  0  0  0  0  0
   35.3322   27.5459   33.1658 H   0  0  0  0  0  0  0  0  0  0  0  0
   36.0888   28.7527   32.1916 H   0  0  0  0  0  0  0  0  0  0  0  0
   36.9327   26.9131   30.5736 H   0  0  0  0  0  0  0  0  0  0  0  0
   35.2272   26.6915   30.7224 H   0  0  0  0  0  0  0  0  0  0  0  0
   35.5361   25.0516   32.6021 H   0  0  0  0  0  0  0  0  0  0  0  0
   36.7668   24.5851   31.4503 H   0  0  0  0  0  0  0  0  0  0  0  0
   42.1345   21.8326   34.5779 H   0  0  0  0  0  0  0  0  0  0  0  0
   43.1732   20.4602   36.6287 H   0  0  0  0  0  0  0  0  0  0  0  0
   39.3733   22.4923   39.1911 H   0  0  0  0  0  0  0  0  0  0  0  0
   38.7561   23.3707   37.7663 H   0  0  0  0  0  0  0  0  0  0  0  0
  1  2  2  0
  2 12  1  0
  3  2  1  0
  4  3  2  0
  5  4  1  0
  5  6  2  0
  6  1  1  0
  7  8  1  0
  7  5  1  0
  9  8  1  0
 10 11  1  0
 10  9  1  0
 11  7  1  0
 12 16  1  0
 13 12  1  0
 13 14  2  0
 14 15  1  0
 16 15  2  0
 16 17  1  0
  1 18  1  0
  3 19  1  0
  8 20  1  0
  8 21  1  0
  9 22  1  0
  9 23  1  0
 10 24  1  0
 10 25  1  0
 11 26  1  0
 11 27  1  0
 13 28  1  0
 14 29  1  0
 17 30  1  0
 17 31  1  0
M  ISO  8  18  14  19  14  20  13  21  13  22  13  23  13  24  13  25  13
M  ISO  4  26  13  27  13  28  14  29  14
M  END
>  <minimizedAffinity>  (1) 
-4.58833551

>  <minimizedRMSD>  (1) 
2.9372263

$$$$
