
     RDKit          3D

 25 26  0  0  0  0  0  0  0  0999 V2000
   38.3820   24.0060   34.0280 C   0  0  0  0  0  0  0  0  0  0  0  0
   38.3110   22.8610   34.8000 C   0  0  0  0  0  0  0  0  0  0  0  0
   37.5070   21.8010   34.3720 C   0  0  0  0  0  0  0  0  0  0  0  0
   36.8300   21.9550   33.2040 N   0  0  0  0  0  0  0  0  0  0  0  0
   36.9150   23.0830   32.4690 C   0  0  0  0  0  0  0  0  0  0  0  0
   37.6960   24.1090   32.8870 N   0  0  0  0  0  0  0  0  0  0  0  0
   39.0400   22.7600   36.0070 N   0  0  0  0  0  0  0  0  0  0  0  0
   40.2460   22.1640   36.1330 C   0  0  0  0  0  0  0  0  0  0  0  0
   40.6160   22.2750   37.4560 C   0  0  0  0  0  0  0  0  0  0  0  0
   39.6440   22.9300   38.1150 N   0  0  0  0  0  0  0  0  0  0  0  0
   38.6640   23.2300   37.2060 C   0  0  0  0  0  0  0  0  0  0  0  0
   37.4210   23.9230   37.4190 N   0  0  0  0  0  0  0  0  0  0  0  0
   36.1150   23.1110   31.2060 C   0  0  0  0  0  0  0  0  0  0  0  0
   35.3630   24.4310   31.2140 C   0  0  0  0  0  0  0  0  0  0  0  0
   39.0128   24.8443   34.3586 H   0  0  0  0  0  0  0  0  0  0  0  0
   37.4252   20.8749   34.9598 H   0  0  0  0  0  0  0  0  0  0  0  0
   40.8236   21.6812   35.3309 H   0  0  0  0  0  0  0  0  0  0  0  0
   41.5481   21.8927   37.8977 H   0  0  0  0  0  0  0  0  0  0  0  0
   37.1768   24.2653   38.3592 H   0  0  0  0  0  0  0  0  0  0  0  0
   36.7755   24.0767   36.6312 H   0  0  0  0  0  0  0  0  0  0  0  0
   35.4079   22.2687   31.1830 H   0  0  0  0  0  0  0  0  0  0  0  0
   36.7597   23.0207   30.3193 H   0  0  0  0  0  0  0  0  0  0  0  0
   35.1842   24.7448   32.2530 H   0  0  0  0  0  0  0  0  0  0  0  0
   35.9605   25.1965   30.6974 H   0  0  0  0  0  0  0  0  0  0  0  0
   34.3998   24.3074   30.6974 H   0  0  0  0  0  0  0  0  0  0  0  0
  1  2  2  0
  2  7  1  0
  3  2  1  0
  4  3  2  0
  5  6  2  0
  5  4  1  0
  6  1  1  0
  7  8  1  0
  7 11  1  0
  8  9  2  0
  9 10  1  0
 11 12  1  0
 11 10  2  0
 13 14  1  0
 13  5  1  0
  1 15  1  0
  3 16  1  0
  8 17  1  0
  9 18  1  0
 12 19  1  0
 12 20  1  0
 13 21  1  0
 13 22  1  0
 14 23  1  0
 14 24  1  0
 14 25  1  0
M  ISO  8  15  14  16  14  17  14  18  14  21   8  22   8  23   8  24   8
M  ISO  1  25   8
M  END
>  <minimizedAffinity>  (1) 
-3.98942304

>  <minimizedRMSD>  (1) 
0.383733392

$$$$
