
     RDKit          3D

 21 22  0  0  0  0  0  0  0  0999 V2000
   38.4580   23.9190   33.9870 C   0  0  0  0  0  0  0  0  0  0  0  0
   38.3350   22.7930   34.8080 C   0  0  0  0  0  0  0  0  0  0  0  0
   37.4990   21.7670   34.4060 C   0  0  0  0  0  0  0  0  0  0  0  0
   36.8410   21.9060   33.2340 N   0  0  0  0  0  0  0  0  0  0  0  0
   36.9640   22.9850   32.4510 C   0  0  0  0  0  0  0  0  0  0  0  0
   37.7800   23.9960   32.8380 N   0  0  0  0  0  0  0  0  0  0  0  0
   36.3110   23.2000   31.2180 N   0  0  0  0  0  0  0  0  0  0  0  0
   39.0530   22.7200   36.0190 N   0  0  0  0  0  0  0  0  0  0  0  0
   40.2520   22.1250   36.1720 C   0  0  0  0  0  0  0  0  0  0  0  0
   40.6170   22.2670   37.4960 C   0  0  0  0  0  0  0  0  0  0  0  0
   39.6360   22.9460   38.1260 N   0  0  0  0  0  0  0  0  0  0  0  0
   38.6610   23.2260   37.2040 C   0  0  0  0  0  0  0  0  0  0  0  0
   37.4150   23.9300   37.3870 N   0  0  0  0  0  0  0  0  0  0  0  0
   39.1170   24.7463   34.2892 H   0  0  0  0  0  0  0  0  0  0  0  0
   37.3735   20.8645   35.0222 H   0  0  0  0  0  0  0  0  0  0  0  0
   35.6706   22.4857   30.8429 H   0  0  0  0  0  0  0  0  0  0  0  0
   36.4749   24.0711   30.6934 H   0  0  0  0  0  0  0  0  0  0  0  0
   40.8331   21.6193   35.3868 H   0  0  0  0  0  0  0  0  0  0  0  0
   41.5436   21.8928   37.9558 H   0  0  0  0  0  0  0  0  0  0  0  0
   37.1627   24.2975   38.3155 H   0  0  0  0  0  0  0  0  0  0  0  0
   36.7778   24.0651   36.5891 H   0  0  0  0  0  0  0  0  0  0  0  0
  1  2  2  0
  2  8  1  0
  3  2  1  0
  4  3  2  0
  5  6  2  0
  5  4  1  0
  6  1  1  0
  7  5  1  0
  8  9  1  0
  8 12  1  0
  9 10  2  0
 10 11  1  0
 12 13  1  0
 12 11  2  0
  1 14  1  0
  3 15  1  0
  7 16  1  0
  7 17  1  0
  9 18  1  0
 10 19  1  0
 13 20  1  0
 13 21  1  0
M  ISO  4  14  14  15  14  18  14  19  14
M  END
>  <minimizedAffinity>  (1) 
-3.62423277

>  <minimizedRMSD>  (1) 
0.0332727507

$$$$
