
     RDKit          3D

 22 23  0  0  0  0  0  0  0  0999 V2000
   39.0340   22.7560   36.0320 N   0  0  0  0  0  0  0  0  0  0  0  0
   40.2530   22.1500   36.1540 C   0  0  0  0  0  0  0  0  0  0  0  0
   40.6210   22.2720   37.4820 C   0  0  0  0  0  0  0  0  0  0  0  0
   39.6340   22.9400   38.1280 N   0  0  0  0  0  0  0  0  0  0  0  0
   38.6590   23.2330   37.2220 C   0  0  0  0  0  0  0  0  0  0  0  0
   37.4300   23.9250   37.4370 N   0  0  0  0  0  0  0  0  0  0  0  0
   38.4010   23.9920   34.0350 C   0  0  0  0  0  0  0  0  0  0  0  0
   38.3110   22.8460   34.8160 C   0  0  0  0  0  0  0  0  0  0  0  0
   37.5040   21.7830   34.3980 C   0  0  0  0  0  0  0  0  0  0  0  0
   36.8410   21.9330   33.2290 N   0  0  0  0  0  0  0  0  0  0  0  0
   36.9350   23.0460   32.4790 C   0  0  0  0  0  0  0  0  0  0  0  0
   37.7220   24.0860   32.8860 N   0  0  0  0  0  0  0  0  0  0  0  0
   36.1600   23.1220   31.1930 C   0  0  0  0  0  0  0  0  0  0  0  0
   40.8282   21.6614   35.3538 H   0  0  0  0  0  0  0  0  0  0  0  0
   41.5500   21.8939   37.9337 H   0  0  0  0  0  0  0  0  0  0  0  0
   37.1918   24.2716   38.3772 H   0  0  0  0  0  0  0  0  0  0  0  0
   36.7810   24.0780   36.6520 H   0  0  0  0  0  0  0  0  0  0  0  0
   39.0354   24.8282   34.3640 H   0  0  0  0  0  0  0  0  0  0  0  0
   37.4124   20.8636   34.9950 H   0  0  0  0  0  0  0  0  0  0  0  0
   35.0881   23.2271   31.4165 H   0  0  0  0  0  0  0  0  0  0  0  0
   36.5001   23.9911   30.6108 H   0  0  0  0  0  0  0  0  0  0  0  0
   36.3248   22.2034   30.6108 H   0  0  0  0  0  0  0  0  0  0  0  0
  1  2  1  0
  1  5  1  0
  2  3  2  0
  3  4  1  0
  5  6  1  0
  5  4  2  0
  7  8  2  0
  8  1  1  0
  9  8  1  0
 10  9  2  0
 11 12  2  0
 11 10  1  0
 12  7  1  0
 13 11  1  0
  2 14  1  0
  3 15  1  0
  6 16  1  0
  6 17  1  0
  7 18  1  0
  9 19  1  0
 13 20  1  0
 13 21  1  0
 13 22  1  0
M  ISO  7  14  14  15  14  18  14  19  14  20   8  21   8  22   8
M  END
>  <minimizedAffinity>  (1) 
-3.7320025

>  <minimizedRMSD>  (1) 
0.0658533573

$$$$
