
     RDKit          3D

 28 29  0  0  0  0  0  0  0  0999 V2000
   38.4760   23.9670   34.0870 C   0  0  0  0  0  0  0  0  0  0  0  0
   38.3830   22.8370   34.8850 C   0  0  0  0  0  0  0  0  0  0  0  0
   37.5650   21.7780   34.4790 C   0  0  0  0  0  0  0  0  0  0  0  0
   36.9050   21.9380   33.3040 N   0  0  0  0  0  0  0  0  0  0  0  0
   37.0060   23.0430   32.5390 C   0  0  0  0  0  0  0  0  0  0  0  0
   37.8080   24.0680   32.9500 N   0  0  0  0  0  0  0  0  0  0  0  0
   39.1050   22.7510   36.0980 N   0  0  0  0  0  0  0  0  0  0  0  0
   40.2990   22.1370   36.2480 C   0  0  0  0  0  0  0  0  0  0  0  0
   40.6700   22.2690   37.5650 C   0  0  0  0  0  0  0  0  0  0  0  0
   39.6960   22.9650   38.2080 N   0  0  0  0  0  0  0  0  0  0  0  0
   38.7310   23.2580   37.2900 C   0  0  0  0  0  0  0  0  0  0  0  0
   37.5030   23.9780   37.4820 N   0  0  0  0  0  0  0  0  0  0  0  0
   36.2490   23.1530   31.2510 C   0  0  0  0  0  0  0  0  0  0  0  0
   35.3570   24.3530   31.1940 C   0  0  0  0  0  0  0  0  0  0  0  0
   35.4770   21.8570   31.0330 C   0  0  0  0  0  0  0  0  0  0  0  0
   39.1205   24.7990   34.4070 H   0  0  0  0  0  0  0  0  0  0  0  0
   37.4619   20.8629   35.0807 H   0  0  0  0  0  0  0  0  0  0  0  0
   40.8703   21.6247   35.4598 H   0  0  0  0  0  0  0  0  0  0  0  0
   41.5933   21.8796   38.0188 H   0  0  0  0  0  0  0  0  0  0  0  0
   37.2620   24.3461   38.4133 H   0  0  0  0  0  0  0  0  0  0  0  0
   36.8634   24.1262   36.6884 H   0  0  0  0  0  0  0  0  0  0  0  0
   36.9692   23.2998   30.4326 H   0  0  0  0  0  0  0  0  0  0  0  0
   35.1149   24.6788   32.2164 H   0  0  0  0  0  0  0  0  0  0  0  0
   35.8710   25.1670   30.6619 H   0  0  0  0  0  0  0  0  0  0  0  0
   34.4294   24.0954   30.6619 H   0  0  0  0  0  0  0  0  0  0  0  0
   35.2154   21.4178   32.0070 H   0  0  0  0  0  0  0  0  0  0  0  0
   34.5576   22.0686   30.4673 H   0  0  0  0  0  0  0  0  0  0  0  0
   36.1009   21.1493   30.4673 H   0  0  0  0  0  0  0  0  0  0  0  0
  1  2  2  0
  2  7  1  0
  3  2  1  0
  4  3  2  0
  5  6  2  0
  5  4  1  0
  6  1  1  0
  7  8  1  0
  7 11  1  0
  8  9  2  0
  9 10  1  0
 11 12  1  0
 11 10  2  0
 13  5  1  0
 14 13  1  0
 15 13  1  0
  1 16  1  0
  3 17  1  0
  8 18  1  0
  9 19  1  0
 12 20  1  0
 12 21  1  0
 13 22  1  0
 14 23  1  0
 14 24  1  0
 14 25  1  0
 15 26  1  0
 15 27  1  0
 15 28  1  0
M  ISO  8  16  14  17  14  18  14  19  14  22   8  23   8  24   8  25   8
M  ISO  3  26   8  27   8  28   8
M  END
>  <minimizedAffinity>  (1) 
-4.32522583

>  <minimizedRMSD>  (1) 
0.146820843

$$$$
