
     RDKit          3D

 21 22  0  0  0  0  0  0  0  0999 V2000
   38.4270   24.0070   34.0720 C   0  0  0  0  0  0  0  0  0  0  0  0
   38.3490   22.8560   34.8410 C   0  0  0  0  0  0  0  0  0  0  0  0
   37.5470   21.8120   34.4070 C   0  0  0  0  0  0  0  0  0  0  0  0
   36.8740   21.9800   33.2380 N   0  0  0  0  0  0  0  0  0  0  0  0
   36.9560   23.0920   32.5040 C   0  0  0  0  0  0  0  0  0  0  0  0
   37.7400   24.1130   32.9290 N   0  0  0  0  0  0  0  0  0  0  0  0
   39.0810   22.7480   36.0550 N   0  0  0  0  0  0  0  0  0  0  0  0
   40.2780   22.1410   36.1690 C   0  0  0  0  0  0  0  0  0  0  0  0
   40.6490   22.2510   37.4960 C   0  0  0  0  0  0  0  0  0  0  0  0
   39.6730   22.9210   38.1510 N   0  0  0  0  0  0  0  0  0  0  0  0
   38.7010   23.2280   37.2510 C   0  0  0  0  0  0  0  0  0  0  0  0
   37.4570   23.9360   37.4610 N   0  0  0  0  0  0  0  0  0  0  0  0
   36.1930   23.1720   31.2620 C   0  0  0  0  0  0  0  0  0  0  0  0
   35.2780   24.0360   31.2150 O   0  0  0  0  0  0  0  0  0  0  0  0
   39.0606   24.8421   34.4053 H   0  0  0  0  0  0  0  0  0  0  0  0
   37.4584   20.8817   34.9873 H   0  0  0  0  0  0  0  0  0  0  0  0
   40.8481   21.6536   35.3644 H   0  0  0  0  0  0  0  0  0  0  0  0
   41.5762   21.8617   37.9418 H   0  0  0  0  0  0  0  0  0  0  0  0
   37.2143   24.2833   38.3998 H   0  0  0  0  0  0  0  0  0  0  0  0
   36.8141   24.0927   36.6717 H   0  0  0  0  0  0  0  0  0  0  0  0
   36.4067   22.5105   30.4095 H   0  0  0  0  0  0  0  0  0  0  0  0
  1  2  2  0
  2  7  1  0
  3  2  1  0
  4  3  2  0
  5  6  2  0
  5  4  1  0
  6  1  1  0
  7  8  1  0
  7 11  1  0
  8  9  2  0
  9 10  1  0
 11 12  1  0
 11 10  2  0
 13  5  1  0
 14 13  2  0
  1 15  1  0
  3 16  1  0
  8 17  1  0
  9 18  1  0
 12 19  1  0
 12 20  1  0
 13 21  1  0
M  ISO  5  15  14  16  14  17  14  18  14  21   6
M  END
>  <minimizedAffinity>  (1) 
-3.77553105

>  <minimizedRMSD>  (1) 
0.100225411

$$$$
