
     RDKit          3D

 33 36  0  0  0  0  0  0  0  0999 V2000
   36.9690   21.1780   33.3930 C   0  0  0  0  0  0  0  0  0  0  0  0
   35.6240   20.8150   33.5500 C   0  0  0  0  0  0  0  0  0  0  0  0
   35.3560   19.8710   32.5450 C   0  0  0  0  0  0  0  0  0  0  0  0
   36.5080   19.7090   31.8490 N   0  0  0  0  0  0  0  0  0  0  0  0
   37.4650   20.4860   32.3540 N   0  0  0  0  0  0  0  0  0  0  0  0
   36.6110   18.8170   30.7450 C   0  0  0  0  0  0  0  0  0  0  0  0
   36.5770   19.2520   29.4220 C   0  0  0  0  0  0  0  0  0  0  0  0
   36.6740   18.4140   28.3450 C   0  0  0  0  0  0  0  0  0  0  0  0
   36.8180   17.0420   28.5550 C   0  0  0  0  0  0  0  0  0  0  0  0
   36.8530   16.6020   29.8670 C   0  0  0  0  0  0  0  0  0  0  0  0
   36.9980   15.2200   30.0160 C   0  0  0  0  0  0  0  0  0  0  0  0
   37.0430   14.6940   31.3120 C   0  0  0  0  0  0  0  0  0  0  0  0
   36.9430   15.5450   32.4080 C   0  0  0  0  0  0  0  0  0  0  0  0
   36.8010   16.9090   32.2160 C   0  0  0  0  0  0  0  0  0  0  0  0
   36.7530   17.4590   30.9480 C   0  0  0  0  0  0  0  0  0  0  0  0
   38.4950   24.2090   34.7620 C   0  0  0  0  0  0  0  0  0  0  0  0
   38.4340   23.9930   36.1490 C   0  0  0  0  0  0  0  0  0  0  0  0
   37.8590   22.7910   36.5940 C   0  0  0  0  0  0  0  0  0  0  0  0
   37.3990   21.9100   35.6680 N   0  0  0  0  0  0  0  0  0  0  0  0
   37.4780   22.1560   34.3330 C   0  0  0  0  0  0  0  0  0  0  0  0
   38.0180   23.2900   33.8980 N   0  0  0  0  0  0  0  0  0  0  0  0
   34.9210   21.1929   34.3069 H   0  0  0  0  0  0  0  0  0  0  0  0
   34.3985   19.3625   32.3590 H   0  0  0  0  0  0  0  0  0  0  0  0
   36.4659   20.3299   29.2327 H   0  0  0  0  0  0  0  0  0  0  0  0
   36.6388   18.8182   27.3225 H   0  0  0  0  0  0  0  0  0  0  0  0
   36.9003   16.3392   27.7128 H   0  0  0  0  0  0  0  0  0  0  0  0
   37.0748   14.5627   29.1373 H   0  0  0  0  0  0  0  0  0  0  0  0
   37.1571   13.6105   31.4637 H   0  0  0  0  0  0  0  0  0  0  0  0
   36.9768   15.1341   33.4278 H   0  0  0  0  0  0  0  0  0  0  0  0
   36.7246   17.5700   33.0919 H   0  0  0  0  0  0  0  0  0  0  0  0
   38.9373   25.1393   34.3761 H   0  0  0  0  0  0  0  0  0  0  0  0
   38.8220   24.7373   36.8599 H   0  0  0  0  0  0  0  0  0  0  0  0
   37.7829   22.5681   37.6685 H   0  0  0  0  0  0  0  0  0  0  0  0
  1  2  1  0
  1 20  1  0
  3  2  2  0
  4  5  1  0
  4  3  1  0
  5  1  2  0
  6 15  1  0
  6  4  1  0
  7  6  2  0
  8  9  2  0
  8  7  1  0
  9 10  1  0
 10 11  1  0
 10 15  2  0
 11 12  2  0
 12 13  1  0
 14 13  2  0
 15 14  1  0
 16 17  2  0
 17 18  1  0
 19 18  2  0
 20 19  1  0
 21 20  2  0
 21 16  1  0
  2 22  1  0
  3 23  1  0
  7 24  1  0
  8 25  1  0
  9 26  1  0
 11 27  1  0
 12 28  1  0
 13 29  1  0
 14 30  1  0
 16 31  1  0
 17 32  1  0
 18 33  1  0
M  ISO  8  22  14  23  14  24  14  25  14  26  14  27  14  28  14  29  14
M  ISO  4  30  14  31  14  32  14  33  14
M  END
>  <minimizedAffinity>  (1) 
-4.74992275

>  <minimizedRMSD>  (1) 
2.79964066

$$$$
