
     RDKit          3D

 24 26  0  0  0  0  0  0  0  0999 V2000
   37.2940   21.6570   35.1340 C   0  0  0  0  0  0  0  0  0  0  0  0
   36.0210   21.1250   35.3740 C   0  0  0  0  0  0  0  0  0  0  0  0
   35.5990   20.5550   34.1630 C   0  0  0  0  0  0  0  0  0  0  0  0
   36.6010   20.7590   33.2730 N   0  0  0  0  0  0  0  0  0  0  0  0
   37.6090   21.4140   33.8460 N   0  0  0  0  0  0  0  0  0  0  0  0
   36.4300   19.6730   29.8480 N   0  0  0  0  0  0  0  0  0  0  0  0
   35.8350   19.8030   31.0270 N   0  0  0  0  0  0  0  0  0  0  0  0
   36.6860   20.3830   31.9040 C   0  0  0  0  0  0  0  0  0  0  0  0
   37.8610   20.6100   31.1950 C   0  0  0  0  0  0  0  0  0  0  0  0
   37.6930   20.1570   29.8870 C   0  0  0  0  0  0  0  0  0  0  0  0
   39.8710   22.8090   37.4660 C   0  0  0  0  0  0  0  0  0  0  0  0
   39.1080   23.5480   38.4150 C   0  0  0  0  0  0  0  0  0  0  0  0
   37.7300   23.6290   38.2250 C   0  0  0  0  0  0  0  0  0  0  0  0
   37.1730   23.0040   37.1510 N   0  0  0  0  0  0  0  0  0  0  0  0
   37.9380   22.3110   36.2730 C   0  0  0  0  0  0  0  0  0  0  0  0
   39.2640   22.2120   36.4220 N   0  0  0  0  0  0  0  0  0  0  0  0
   35.4635   21.1491   36.3219 H   0  0  0  0  0  0  0  0  0  0  0  0
   34.6437   20.0436   33.9734 H   0  0  0  0  0  0  0  0  0  0  0  0
   35.9892   19.2589   29.0143 H   0  0  0  0  0  0  0  0  0  0  0  0
   38.7737   21.0715   31.6000 H   0  0  0  0  0  0  0  0  0  0  0  0
   38.4259   20.1866   29.0673 H   0  0  0  0  0  0  0  0  0  0  0  0
   40.9612   22.7254   37.5862 H   0  0  0  0  0  0  0  0  0  0  0  0
   39.5919   24.0398   39.2718 H   0  0  0  0  0  0  0  0  0  0  0  0
   37.1012   24.1897   38.9323 H   0  0  0  0  0  0  0  0  0  0  0  0
  1  2  1  0
  1 15  1  0
  3  2  2  0
  4  5  1  0
  4  3  1  0
  5  1  2  0
  6 10  1  0
  6  7  1  0
  7  8  2  0
  8  4  1  0
  9  8  1  0
 10  9  2  0
 11 12  2  0
 13 12  1  0
 14 13  2  0
 15 16  2  0
 15 14  1  0
 16 11  1  0
  2 17  1  0
  3 18  1  0
  6 19  1  0
  9 20  1  0
 10 21  1  0
 11 22  1  0
 12 23  1  0
 13 24  1  0
M  ISO  8  17  14  18  14  19   9  20  14  21  14  22  14  23  14  24  14
M  END
>  <minimizedAffinity>  (1) 
-4.41714573

>  <minimizedRMSD>  (1) 
0.644470215

$$$$
