
     RDKit          3D

 33 34  0  0  0  0  0  0  0  0999 V2000
   39.7440   24.8630   35.3500 C   0  0  0  0  0  0  0  0  0  0  0  0
   39.9290   23.4770   35.5490 C   0  0  0  0  0  0  0  0  0  0  0  0
   39.0500   22.6740   34.8170 C   0  0  0  0  0  0  0  0  0  0  0  0
   38.1140   23.2190   33.9970 N   0  0  0  0  0  0  0  0  0  0  0  0
   37.9880   24.5510   33.8510 C   0  0  0  0  0  0  0  0  0  0  0  0
   38.8040   25.3430   34.5290 N   0  0  0  0  0  0  0  0  0  0  0  0
   40.9030   22.9230   36.4010 N   0  0  0  0  0  0  0  0  0  0  0  0
   40.6420   22.2010   37.5830 C   0  0  0  0  0  0  0  0  0  0  0  0
   39.6320   22.6470   38.3060 N   0  0  0  0  0  0  0  0  0  0  0  0
   41.5090   21.0780   37.8400 N   0  0  0  0  0  0  0  0  0  0  0  0
   39.3700   22.1810   39.1890 H   0  0  0  0  0  0  0  0  0  0  0  0
   36.9540   25.0820   32.9460 C   0  0  0  0  0  0  0  0  0  0  0  0
   36.6190   24.1240   31.8230 C   0  0  0  0  0  0  0  0  0  0  0  0
   35.2640   24.5890   31.2770 C   0  0  0  0  0  0  0  0  0  0  0  0
   35.4050   25.9790   30.7160 C   0  0  0  0  0  0  0  0  0  0  0  0
   36.0710   26.9380   31.6450 C   0  0  0  0  0  0  0  0  0  0  0  0
   37.3410   26.3880   32.2850 C   0  0  0  0  0  0  0  0  0  0  0  0
   40.3935   25.5697   35.8872 H   0  0  0  0  0  0  0  0  0  0  0  0
   39.1174   21.5797   34.9066 H   0  0  0  0  0  0  0  0  0  0  0  0
   41.8900   23.0566   36.1384 H   0  0  0  0  0  0  0  0  0  0  0  0
   41.3743   20.5065   38.6863 H   0  0  0  0  0  0  0  0  0  0  0  0
   42.2630   20.8473   37.1773 H   0  0  0  0  0  0  0  0  0  0  0  0
   36.0894   25.2356   33.6085 H   0  0  0  0  0  0  0  0  0  0  0  0
   37.3866   24.1704   31.0365 H   0  0  0  0  0  0  0  0  0  0  0  0
   36.5814   23.0821   32.1736 H   0  0  0  0  0  0  0  0  0  0  0  0
   34.9330   23.9038   30.4826 H   0  0  0  0  0  0  0  0  0  0  0  0
   34.5210   24.5922   32.0881 H   0  0  0  0  0  0  0  0  0  0  0  0
   35.9992   25.9216   29.7921 H   0  0  0  0  0  0  0  0  0  0  0  0
   34.3877   26.3581   30.5390 H   0  0  0  0  0  0  0  0  0  0  0  0
   36.3314   27.8452   31.0800 H   0  0  0  0  0  0  0  0  0  0  0  0
   35.3615   27.1415   32.4606 H   0  0  0  0  0  0  0  0  0  0  0  0
   38.1092   26.2131   31.5173 H   0  0  0  0  0  0  0  0  0  0  0  0
   37.7593   27.0965   33.0151 H   0  0  0  0  0  0  0  0  0  0  0  0
  1  2  2  0
  2  7  1  0
  3  2  1  0
  4  3  2  0
  5  4  1  0
  5  6  2  0
  6  1  1  0
  7  8  1  0
  8 10  1  0
  8  9  2  0
  9 11  1  0
 12  5  1  0
 13 12  1  0
 14 13  1  0
 15 14  1  0
 15 16  1  0
 16 17  1  0
 17 12  1  0
  1 18  1  0
  3 19  1  0
  7 20  1  0
 10 21  1  0
 10 22  1  0
 12 23  1  0
 13 24  1  0
 13 25  1  0
 14 26  1  0
 14 27  1  0
 15 28  1  0
 15 29  1  0
 16 30  1  0
 16 31  1  0
 17 32  1  0
 17 33  1  0
M  ISO  8  18  14  19  14  23  13  24  13  25  13  26  13  27  13  28  13
M  ISO  5  29  13  30  13  31  13  32  13  33  13
M  END
>  <minimizedAffinity>  (1) 
-4.75860548

>  <minimizedRMSD>  (1) 
0.145193636

$$$$
