
     RDKit          3D

 27 29  0  0  0  0  0  0  0  0999 V2000
   37.7620   21.7020   34.6930 C   0  0  0  0  0  0  0  0  0  0  0  0
   36.4140   21.3550   34.6320 C   0  0  0  0  0  0  0  0  0  0  0  0
   36.1910   20.8300   33.3500 C   0  0  0  0  0  0  0  0  0  0  0  0
   37.4020   20.8840   32.7030 N   0  0  0  0  0  0  0  0  0  0  0  0
   38.3220   21.4030   33.5110 N   0  0  0  0  0  0  0  0  0  0  0  0
   39.9510   22.7220   37.4490 C   0  0  0  0  0  0  0  0  0  0  0  0
   39.0440   23.3790   38.3260 C   0  0  0  0  0  0  0  0  0  0  0  0
   37.6940   23.4530   37.9430 C   0  0  0  0  0  0  0  0  0  0  0  0
   37.3310   22.8940   36.7570 N   0  0  0  0  0  0  0  0  0  0  0  0
   38.2270   22.2740   35.9420 C   0  0  0  0  0  0  0  0  0  0  0  0
   39.5070   22.1950   36.2910 N   0  0  0  0  0  0  0  0  0  0  0  0
   37.5280   20.4260   31.3740 C   0  0  0  0  0  0  0  0  0  0  0  0
   38.6030   20.7790   30.5820 C   0  0  0  0  0  0  0  0  0  0  0  0
   38.6670   20.2970   29.2910 C   0  0  0  0  0  0  0  0  0  0  0  0
   37.6590   19.4730   28.8140 C   0  0  0  0  0  0  0  0  0  0  0  0
   36.5760   19.1110   29.5970 C   0  0  0  0  0  0  0  0  0  0  0  0
   36.5190   19.6040   30.9040 C   0  0  0  0  0  0  0  0  0  0  0  0
   35.6692   21.4702   35.4333 H   0  0  0  0  0  0  0  0  0  0  0  0
   35.2404   20.4522   32.9454 H   0  0  0  0  0  0  0  0  0  0  0  0
   41.0152   22.6441   37.7162 H   0  0  0  0  0  0  0  0  0  0  0  0
   39.3888   23.8157   39.2749 H   0  0  0  0  0  0  0  0  0  0  0  0
   36.9510   23.9493   38.5846 H   0  0  0  0  0  0  0  0  0  0  0  0
   39.3952   21.4337   30.9742 H   0  0  0  0  0  0  0  0  0  0  0  0
   39.5142   20.5653   28.6427 H   0  0  0  0  0  0  0  0  0  0  0  0
   37.7216   19.0956   27.7827 H   0  0  0  0  0  0  0  0  0  0  0  0
   35.7851   18.4559   29.2030 H   0  0  0  0  0  0  0  0  0  0  0  0
   35.6743   19.3392   31.5570 H   0  0  0  0  0  0  0  0  0  0  0  0
  1 10  1  0
  2  1  1  0
  3  2  2  0
  4  3  1  0
  4  5  1  0
  5  1  2  0
  6  7  2  0
  8  7  1  0
  9  8  2  0
 10 11  2  0
 10  9  1  0
 11  6  1  0
 12  4  1  0
 13 12  2  0
 14 13  1  0
 15 14  2  0
 15 16  1  0
 16 17  2  0
 17 12  1  0
  2 18  1  0
  3 19  1  0
  6 20  1  0
  7 21  1  0
  8 22  1  0
 13 23  1  0
 14 24  1  0
 15 25  1  0
 16 26  1  0
 17 27  1  0
M  ISO  8  18  14  19  14  20  14  21  14  22  14  23  14  24  14  25  14
M  ISO  2  26  14  27  14
M  END
>  <minimizedAffinity>  (1) 
-4.23867702

>  <minimizedRMSD>  (1) 
1.27174568

$$$$
