
     RDKit          3D

 26 28  0  0  0  0  0  0  0  0999 V2000
   37.5970   21.6500   34.7330 C   0  0  0  0  0  0  0  0  0  0  0  0
   36.2600   21.2830   34.7390 C   0  0  0  0  0  0  0  0  0  0  0  0
   35.9670   20.7470   33.4930 C   0  0  0  0  0  0  0  0  0  0  0  0
   37.1230   20.8070   32.7870 N   0  0  0  0  0  0  0  0  0  0  0  0
   38.1140   21.3490   33.5210 N   0  0  0  0  0  0  0  0  0  0  0  0
   39.9030   22.7500   37.3660 C   0  0  0  0  0  0  0  0  0  0  0  0
   39.0490   23.3940   38.2760 C   0  0  0  0  0  0  0  0  0  0  0  0
   37.6950   23.4320   37.9560 C   0  0  0  0  0  0  0  0  0  0  0  0
   37.2530   22.8560   36.7980 N   0  0  0  0  0  0  0  0  0  0  0  0
   38.1290   22.2430   35.9510 C   0  0  0  0  0  0  0  0  0  0  0  0
   39.4250   22.1960   36.2360 N   0  0  0  0  0  0  0  0  0  0  0  0
   37.3010   20.3600   31.4300 C   0  0  0  0  0  0  0  0  0  0  0  0
   36.3280   19.5680   30.8480 C   0  0  0  0  0  0  0  0  0  0  0  0
   36.5370   19.1600   29.5460 C   0  0  0  0  0  0  0  0  0  0  0  0
   37.6740   19.5180   28.8250 C   0  0  0  0  0  0  0  0  0  0  0  0
   38.6160   20.3180   29.4670 C   0  0  0  0  0  0  0  0  0  0  0  0
   38.4160   20.7230   30.7510 N   0  0  0  0  0  0  0  0  0  0  0  0
   35.5588   21.3962   35.5790 H   0  0  0  0  0  0  0  0  0  0  0  0
   34.9983   20.3550   33.1495 H   0  0  0  0  0  0  0  0  0  0  0  0
   40.9807   22.6973   37.5801 H   0  0  0  0  0  0  0  0  0  0  0  0
   39.4333   23.8485   39.2011 H   0  0  0  0  0  0  0  0  0  0  0  0
   36.9821   23.9246   38.6336 H   0  0  0  0  0  0  0  0  0  0  0  0
   35.4233   19.2748   31.4008 H   0  0  0  0  0  0  0  0  0  0  0  0
   35.7781   18.5292   29.0600 H   0  0  0  0  0  0  0  0  0  0  0  0
   37.8221   19.1816   27.7882 H   0  0  0  0  0  0  0  0  0  0  0  0
   39.5275   20.6245   28.9330 H   0  0  0  0  0  0  0  0  0  0  0  0
  1  2  1  0
  1 10  1  0
  3  2  2  0
  4  3  1  0
  4  5  1  0
  5  1  2  0
  6  7  2  0
  8  7  1  0
  9  8  2  0
 10 11  2  0
 10  9  1  0
 11  6  1  0
 12  4  1  0
 13 12  2  0
 14 13  1  0
 15 16  1  0
 15 14  2  0
 16 17  2  0
 17 12  1  0
  2 18  1  0
  3 19  1  0
  6 20  1  0
  7 21  1  0
  8 22  1  0
 13 23  1  0
 14 24  1  0
 15 25  1  0
 16 26  1  0
M  ISO  8  18  14  19  14  20  14  21  14  22  14  23  14  24  14  25  14
M  ISO  1  26  14
M  END
>  <minimizedAffinity>  (1) 
-4.2088666

>  <minimizedRMSD>  (1) 
1.20380104

$$$$
