
     RDKit          3D

 24 26  0  0  0  0  0  0  0  0999 V2000
   37.3920   21.7060   35.1170 C   0  0  0  0  0  0  0  0  0  0  0  0
   36.1010   21.1910   35.2910 C   0  0  0  0  0  0  0  0  0  0  0  0
   35.7340   20.6310   34.0540 C   0  0  0  0  0  0  0  0  0  0  0  0
   36.7820   20.8250   33.2170 N   0  0  0  0  0  0  0  0  0  0  0  0
   37.7740   21.4660   33.8430 N   0  0  0  0  0  0  0  0  0  0  0  0
   39.8550   22.8470   37.5730 C   0  0  0  0  0  0  0  0  0  0  0  0
   39.0650   23.5610   38.4920 C   0  0  0  0  0  0  0  0  0  0  0  0
   37.6940   23.6370   38.2490 C   0  0  0  0  0  0  0  0  0  0  0  0
   37.2000   23.0170   37.1390 N   0  0  0  0  0  0  0  0  0  0  0  0
   37.9840   22.3420   36.2770 C   0  0  0  0  0  0  0  0  0  0  0  0
   39.2900   22.2640   36.5010 N   0  0  0  0  0  0  0  0  0  0  0  0
   36.7710   20.3860   31.8640 C   0  0  0  0  0  0  0  0  0  0  0  0
   35.8100   19.7010   31.1280 C   0  0  0  0  0  0  0  0  0  0  0  0
   36.3100   19.5330   29.8830 N   0  0  0  0  0  0  0  0  0  0  0  0
   37.5250   20.0950   29.8630 C   0  0  0  0  0  0  0  0  0  0  0  0
   37.8370   20.6310   31.0770 N   0  0  0  0  0  0  0  0  0  0  0  0
   35.4964   21.2189   36.2095 H   0  0  0  0  0  0  0  0  0  0  0  0
   34.7830   20.1333   33.8133 H   0  0  0  0  0  0  0  0  0  0  0  0
   40.9404   22.7651   37.7320 H   0  0  0  0  0  0  0  0  0  0  0  0
   39.5137   24.0433   39.3729 H   0  0  0  0  0  0  0  0  0  0  0  0
   37.0285   24.1825   38.9343 H   0  0  0  0  0  0  0  0  0  0  0  0
   34.8288   19.3604   31.4902 H   0  0  0  0  0  0  0  0  0  0  0  0
   38.1845   20.1208   28.9830 H   0  0  0  0  0  0  0  0  0  0  0  0
   38.7050   21.1203   31.3378 H   0  0  0  0  0  0  0  0  0  0  0  0
  1  2  1  0
  1 10  1  0
  3  2  2  0
  4  5  1  0
  4  3  1  0
  5  1  2  0
  6  7  2  0
  8  7  1  0
  9  8  2  0
 10 11  2  0
 10  9  1  0
 11  6  1  0
 12  4  1  0
 13 12  2  0
 14 13  1  0
 15 14  2  0
 15 16  1  0
 16 12  1  0
  2 17  1  0
  3 18  1  0
  6 19  1  0
  7 20  1  0
  8 21  1  0
 13 22  1  0
 15 23  1  0
 16 24  1  0
M  ISO  8  17  14  18  14  19  14  20  14  21  14  22  14  23  14  24   9
M  END
>  <minimizedAffinity>  (1) 
-4.10327387

>  <minimizedRMSD>  (1) 
0.656763136

$$$$
