
     RDKit          3D

 24 25  0  0  0  0  0  0  0  0999 V2000
   39.2930   25.0320   35.3510 C   0  0  0  0  0  0  0  0  0  0  0  0
   39.6320   23.6650   35.4550 C   0  0  0  0  0  0  0  0  0  0  0  0
   38.9820   22.8440   34.5310 C   0  0  0  0  0  0  0  0  0  0  0  0
   38.1080   23.3490   33.6290 N   0  0  0  0  0  0  0  0  0  0  0  0
   37.8270   24.6720   33.5840 C   0  0  0  0  0  0  0  0  0  0  0  0
   38.4280   25.4830   34.4470 N   0  0  0  0  0  0  0  0  0  0  0  0
   40.5460   23.1420   36.3980 N   0  0  0  0  0  0  0  0  0  0  0  0
   40.2100   22.3970   37.5390 C   0  0  0  0  0  0  0  0  0  0  0  0
   39.1160   22.7720   38.1610 N   0  0  0  0  0  0  0  0  0  0  0  0
   41.1110   21.3190   37.8720 N   0  0  0  0  0  0  0  0  0  0  0  0
   38.7830   22.2790   39.0060 H   0  0  0  0  0  0  0  0  0  0  0  0
   36.8800   25.1790   32.5970 C   0  0  0  0  0  0  0  0  0  0  0  0
   36.1350   24.4010   31.7370 C   0  0  0  0  0  0  0  0  0  0  0  0
   35.3960   25.3100   31.0030 C   0  0  0  0  0  0  0  0  0  0  0  0
   35.6830   26.5720   31.4040 N   0  0  0  0  0  0  0  0  0  0  0  0
   36.5810   26.4710   32.3660 N   0  0  0  0  0  0  0  0  0  0  0  0
   39.7608   25.7489   36.0419 H   0  0  0  0  0  0  0  0  0  0  0  0
   39.1847   21.7629   34.5363 H   0  0  0  0  0  0  0  0  0  0  0  0
   41.5464   23.3236   36.2333 H   0  0  0  0  0  0  0  0  0  0  0  0
   40.9268   20.7300   38.6967 H   0  0  0  0  0  0  0  0  0  0  0  0
   41.9379   21.1390   37.2849 H   0  0  0  0  0  0  0  0  0  0  0  0
   36.1297   23.3042   31.6535 H   0  0  0  0  0  0  0  0  0  0  0  0
   34.6803   25.0474   30.2101 H   0  0  0  0  0  0  0  0  0  0  0  0
   35.2784   27.4423   31.0302 H   0  0  0  0  0  0  0  0  0  0  0  0
  1  2  2  0
  2  7  1  0
  3  2  1  0
  4  3  2  0
  5  4  1  0
  5  6  2  0
  6  1  1  0
  7  8  1  0
  8 10  1  0
  8  9  2  0
  9 11  1  0
 12  5  1  0
 13 12  1  0
 14 15  1  0
 14 13  2  0
 15 16  1  0
 16 12  2  0
  1 17  1  0
  3 18  1  0
  7 19  1  0
 10 20  1  0
 10 21  1  0
 13 22  1  0
 14 23  1  0
 15 24  1  0
M  ISO  5  17  14  18  14  22  14  23  14  24   9
M  END
>  <minimizedAffinity>  (1) 
-4.63830662

>  <minimizedRMSD>  (1) 
0.349709094

$$$$
