
     RDKit          3D

 24 26  0  0  0  0  0  0  0  0999 V2000
   37.3850   21.6280   34.9790 C   0  0  0  0  0  0  0  0  0  0  0  0
   36.0650   21.1960   35.1030 C   0  0  0  0  0  0  0  0  0  0  0  0
   35.7110   20.6200   33.8730 C   0  0  0  0  0  0  0  0  0  0  0  0
   36.8070   20.7280   33.0800 N   0  0  0  0  0  0  0  0  0  0  0  0
   37.7930   21.3240   33.7390 N   0  0  0  0  0  0  0  0  0  0  0  0
   39.8510   22.7980   37.4230 C   0  0  0  0  0  0  0  0  0  0  0  0
   39.0370   23.4830   38.3670 C   0  0  0  0  0  0  0  0  0  0  0  0
   37.6630   23.5240   38.1360 C   0  0  0  0  0  0  0  0  0  0  0  0
   37.1760   22.9090   37.0250 N   0  0  0  0  0  0  0  0  0  0  0  0
   37.9710   22.2650   36.1470 C   0  0  0  0  0  0  0  0  0  0  0  0
   39.2860   22.2140   36.3470 N   0  0  0  0  0  0  0  0  0  0  0  0
   36.9720   20.2970   31.7350 C   0  0  0  0  0  0  0  0  0  0  0  0
   36.1870   19.6750   30.8660 C   0  0  0  0  0  0  0  0  0  0  0  0
   36.5890   19.3620   29.5950 C   0  0  0  0  0  0  0  0  0  0  0  0
   37.9620   19.7870   29.3110 C   0  0  0  0  0  0  0  0  0  0  0  0
   38.4940   20.5720   30.8900 S   0  0  0  0  0  0  0  0  0  0  0  0
   35.4249   21.2887   35.9928 H   0  0  0  0  0  0  0  0  0  0  0  0
   34.7424   20.1722   33.6061 H   0  0  0  0  0  0  0  0  0  0  0  0
   40.9398   22.7447   37.5705 H   0  0  0  0  0  0  0  0  0  0  0  0
   39.4780   23.9654   39.2518 H   0  0  0  0  0  0  0  0  0  0  0  0
   36.9892   24.0410   38.8350 H   0  0  0  0  0  0  0  0  0  0  0  0
   35.1695   19.3987   31.1795 H   0  0  0  0  0  0  0  0  0  0  0  0
   35.9487   18.8460   28.8644 H   0  0  0  0  0  0  0  0  0  0  0  0
   38.5360   19.6665   28.3804 H   0  0  0  0  0  0  0  0  0  0  0  0
  1  2  1  0
  1 10  1  0
  3  2  2  0
  4  5  1  0
  4  3  1  0
  5  1  2  0
  6  7  2  0
  8  7  1  0
  9  8  2  0
 10 11  2  0
 10  9  1  0
 11  6  1  0
 12  4  1  0
 13 12  2  0
 14 13  1  0
 15 14  2  0
 15 16  1  0
 16 12  1  0
  2 17  1  0
  3 18  1  0
  6 19  1  0
  7 20  1  0
  8 21  1  0
 13 22  1  0
 14 23  1  0
 15 24  1  0
M  ISO  8  17  14  18  14  19  14  20  14  21  14  22  14  23  14  24  14
M  END
>  <minimizedAffinity>  (1) 
-4.13478327

>  <minimizedRMSD>  (1) 
0.932035804

$$$$
