
     RDKit          3D

 23 25  0  0  0  0  0  0  0  0999 V2000
   37.4280   21.6600   34.9930 C   0  0  0  0  0  0  0  0  0  0  0  0
   36.1200   21.2200   35.0880 C   0  0  0  0  0  0  0  0  0  0  0  0
   35.7690   20.6570   33.8610 C   0  0  0  0  0  0  0  0  0  0  0  0
   36.8810   20.7750   33.0610 N   0  0  0  0  0  0  0  0  0  0  0  0
   37.8540   21.3700   33.7410 N   0  0  0  0  0  0  0  0  0  0  0  0
   39.8510   22.8100   37.4870 C   0  0  0  0  0  0  0  0  0  0  0  0
   39.0160   23.4840   38.4180 C   0  0  0  0  0  0  0  0  0  0  0  0
   37.6460   23.5270   38.1650 C   0  0  0  0  0  0  0  0  0  0  0  0
   37.1680   22.9250   37.0450 N   0  0  0  0  0  0  0  0  0  0  0  0
   37.9950   22.2850   36.1710 C   0  0  0  0  0  0  0  0  0  0  0  0
   39.3260   22.2230   36.3830 N   0  0  0  0  0  0  0  0  0  0  0  0
   37.0360   20.3430   31.6900 C   0  0  0  0  0  0  0  0  0  0  0  0
   38.2590   20.6740   31.2120 C   0  0  0  0  0  0  0  0  0  0  0  0
   38.2500   20.0540   29.5090 S   0  0  0  0  0  0  0  0  0  0  0  0
   36.4580   19.4020   29.7430 C   0  0  0  0  0  0  0  0  0  0  0  0
   36.2930   19.7170   30.8040 N   0  0  0  0  0  0  0  0  0  0  0  0
   35.4721   21.2999   35.9734 H   0  0  0  0  0  0  0  0  0  0  0  0
   34.8012   20.2103   33.5892 H   0  0  0  0  0  0  0  0  0  0  0  0
   40.9357   22.7637   37.6637 H   0  0  0  0  0  0  0  0  0  0  0  0
   39.4395   23.9595   39.3150 H   0  0  0  0  0  0  0  0  0  0  0  0
   36.9641   24.0392   38.8598 H   0  0  0  0  0  0  0  0  0  0  0  0
   39.0711   21.1985   31.7367 H   0  0  0  0  0  0  0  0  0  0  0  0
   35.7925   18.8759   29.0427 H   0  0  0  0  0  0  0  0  0  0  0  0
  1  2  1  0
  1 10  1  0
  3  2  2  0
  4  5  1  0
  4  3  1  0
  5  1  2  0
  6  7  2  0
  8  7  1  0
  9  8  2  0
 10 11  2  0
 10  9  1  0
 11  6  1  0
 12  4  1  0
 13 12  2  0
 14 15  1  0
 14 13  1  0
 15 16  2  0
 16 12  1  0
  2 17  1  0
  3 18  1  0
  6 19  1  0
  7 20  1  0
  8 21  1  0
 13 22  1  0
 15 23  1  0
M  ISO  7  17  14  18  14  19  14  20  14  21  14  22  14  23  14
M  END
>  <minimizedAffinity>  (1) 
-3.99982071

>  <minimizedRMSD>  (1) 
0.85055995

$$$$
