
     RDKit          3D

 34 37  0  0  0  0  0  0  0  0999 V2000
   37.2030   23.2200   31.3120 C   0  0  0  0  0  0  0  0  0  0  0  0
   36.5120   24.4810   31.1560 N   0  0  0  0  0  0  0  0  0  0  0  0
   35.1970   24.7490   31.0710 C   0  0  0  0  0  0  0  0  0  0  0  0
   35.0750   26.0880   30.9330 N   0  0  0  0  0  0  0  0  0  0  0  0
   36.2930   26.6450   30.9310 C   0  0  0  0  0  0  0  0  0  0  0  0
   36.7680   27.9390   30.8230 C   0  0  0  0  0  0  0  0  0  0  0  0
   35.9760   28.9070   30.6920 O   0  0  0  0  0  0  0  0  0  0  0  0
   38.0710   28.2400   30.8510 N   0  0  0  0  0  0  0  0  0  0  0  0
   38.9570   27.2290   30.9900 C   0  0  0  0  0  0  0  0  0  0  0  0
   40.3920   27.2900   31.0480 N   0  0  0  0  0  0  0  0  0  0  0  0
   38.5400   25.9450   31.1000 N   0  0  0  0  0  0  0  0  0  0  0  0
   37.2310   25.6270   31.0740 C   0  0  0  0  0  0  0  0  0  0  0  0
   37.8890   22.7420   34.7880 C   0  0  0  0  0  0  0  0  0  0  0  0
   37.2220   21.5550   34.5050 C   0  0  0  0  0  0  0  0  0  0  0  0
   36.8950   21.6300   33.1350 C   0  0  0  0  0  0  0  0  0  0  0  0
   37.3680   22.8240   32.6750 N   0  0  0  0  0  0  0  0  0  0  0  0
   37.9650   23.4960   33.6610 N   0  0  0  0  0  0  0  0  0  0  0  0
   39.9880   22.7110   37.7920 C   0  0  0  0  0  0  0  0  0  0  0  0
   39.1380   23.2840   38.7640 C   0  0  0  0  0  0  0  0  0  0  0  0
   37.8550   23.6690   38.3600 C   0  0  0  0  0  0  0  0  0  0  0  0
   37.5020   23.4710   37.0610 N   0  0  0  0  0  0  0  0  0  0  0  0
   38.3460   22.9220   36.1680 C   0  0  0  0  0  0  0  0  0  0  0  0
   39.5660   22.5470   36.5230 N   0  0  0  0  0  0  0  0  0  0  0  0
   38.1985   23.3096   30.8527 H   0  0  0  0  0  0  0  0  0  0  0  0
   36.5857   22.4509   30.8246 H   0  0  0  0  0  0  0  0  0  0  0  0
   34.3764   24.0174   31.1070 H   0  0  0  0  0  0  0  0  0  0  0  0
   38.3904   29.2158   30.7689 H   0  0  0  0  0  0  0  0  0  0  0  0
   40.9402   26.4249   31.1576 H   0  0  0  0  0  0  0  0  0  0  0  0
   40.8720   28.1988   30.9800 H   0  0  0  0  0  0  0  0  0  0  0  0
   36.9974   20.7332   35.2009 H   0  0  0  0  0  0  0  0  0  0  0  0
   36.3595   20.8692   32.5481 H   0  0  0  0  0  0  0  0  0  0  0  0
   41.0035   22.3959   38.0737 H   0  0  0  0  0  0  0  0  0  0  0  0
   39.4732   23.4227   39.8025 H   0  0  0  0  0  0  0  0  0  0  0  0
   37.1501   24.1200   39.0739 H   0  0  0  0  0  0  0  0  0  0  0  0
  1 16  1  0
  2  1  1  0
  3  2  1  0
  4  3  2  0
  5  4  1  0
  5 12  2  0
  6  8  1  0
  6  5  1  0
  7  6  2  0
  8  9  1  0
  9 10  1  0
  9 11  2  0
 12 11  1  0
 12  2  1  0
 13 22  1  0
 14 13  1  0
 15 14  2  0
 16 15  1  0
 16 17  1  0
 17 13  2  0
 18 19  2  0
 20 19  1  0
 21 20  2  0
 22 23  2  0
 22 21  1  0
 23 18  1  0
  1 24  1  0
  1 25  1  0
  3 26  1  0
  8 27  1  0
 10 28  1  0
 10 29  1  0
 14 30  1  0
 15 31  1  0
 18 32  1  0
 19 33  1  0
 20 34  1  0
M  ISO  8  24   8  25   8  26  14  27   9  30  14  31  14  32  14  33  14
M  ISO  1  34  14
M  END
>  <minimizedAffinity>  (1) 
-5.42465925

>  <minimizedRMSD>  (1) 
2.76693773

$$$$
