
     RDKit          3D

 36 39  0  0  0  0  0  0  0  0999 V2000
   37.2810   21.8590   35.2020 C   0  0  0  0  0  0  0  0  0  0  0  0
   36.1750   21.0680   35.4510 C   0  0  0  0  0  0  0  0  0  0  0  0
   35.6750   20.6730   34.2020 C   0  0  0  0  0  0  0  0  0  0  0  0
   36.4950   21.2420   33.2680 N   0  0  0  0  0  0  0  0  0  0  0  0
   37.4640   21.9560   33.8560 N   0  0  0  0  0  0  0  0  0  0  0  0
   39.9520   22.7030   37.5700 C   0  0  0  0  0  0  0  0  0  0  0  0
   39.2510   23.4310   38.5590 C   0  0  0  0  0  0  0  0  0  0  0  0
   37.8540   23.6220   38.3930 C   0  0  0  0  0  0  0  0  0  0  0  0
   37.2940   23.0830   37.2830 N   0  0  0  0  0  0  0  0  0  0  0  0
   37.9800   22.3950   36.3590 C   0  0  0  0  0  0  0  0  0  0  0  0
   39.2780   22.2210   36.5190 N   0  0  0  0  0  0  0  0  0  0  0  0
   36.2930   21.0610   31.8590 C   0  0  0  0  0  0  0  0  0  0  0  0
   37.2310   21.8760   31.0440 C   0  0  0  0  0  0  0  0  0  0  0  0
   37.1190   23.2500   30.9770 C   0  0  0  0  0  0  0  0  0  0  0  0
   37.9210   24.1110   30.2620 C   0  0  0  0  0  0  0  0  0  0  0  0
   38.9370   23.4830   29.5510 C   0  0  0  0  0  0  0  0  0  0  0  0
   39.1110   22.1170   29.5690 C   0  0  0  0  0  0  0  0  0  0  0  0
   40.1210   21.5040   28.8600 C   0  0  0  0  0  0  0  0  0  0  0  0
   40.3430   20.1520   28.8400 C   0  0  0  0  0  0  0  0  0  0  0  0
   39.4740   19.3840   29.5950 C   0  0  0  0  0  0  0  0  0  0  0  0
   38.4390   19.9520   30.3290 C   0  0  0  0  0  0  0  0  0  0  0  0
   38.2570   21.3200   30.3170 C   0  0  0  0  0  0  0  0  0  0  0  0
   35.7668   20.8006   36.4368 H   0  0  0  0  0  0  0  0  0  0  0  0
   34.7998   20.0343   34.0121 H   0  0  0  0  0  0  0  0  0  0  0  0
   41.0352   22.5353   37.6631 H   0  0  0  0  0  0  0  0  0  0  0  0
   39.7753   23.8394   39.4356 H   0  0  0  0  0  0  0  0  0  0  0  0
   37.2560   24.1797   39.1288 H   0  0  0  0  0  0  0  0  0  0  0  0
   36.4428   19.9991   31.6140 H   0  0  0  0  0  0  0  0  0  0  0  0
   35.2701   21.3885   31.6216 H   0  0  0  0  0  0  0  0  0  0  0  0
   36.3024   23.7055   31.5563 H   0  0  0  0  0  0  0  0  0  0  0  0
   37.7708   25.2007   30.2541 H   0  0  0  0  0  0  0  0  0  0  0  0
   39.6257   24.0983   28.9534 H   0  0  0  0  0  0  0  0  0  0  0  0
   40.7946   22.1431   28.2702 H   0  0  0  0  0  0  0  0  0  0  0  0
   41.1626   19.7041   28.2588 H   0  0  0  0  0  0  0  0  0  0  0  0
   39.6061   18.2921   29.6149 H   0  0  0  0  0  0  0  0  0  0  0  0
   37.7661   19.3120   30.9185 H   0  0  0  0  0  0  0  0  0  0  0  0
  1  2  1  0
  1 10  1  0
  3  2  2  0
  4  5  1  0
  4  3  1  0
  5  1  2  0
  6  7  2  0
  8  7  1  0
  9  8  2  0
 10 11  2  0
 10  9  1  0
 11  6  1  0
 12  4  1  0
 13 12  1  0
 14 13  2  0
 15 14  1  0
 16 17  1  0
 16 15  2  0
 17 22  2  0
 18 17  1  0
 19 18  2  0
 19 20  1  0
 20 21  2  0
 22 21  1  0
 22 13  1  0
  2 23  1  0
  3 24  1  0
  6 25  1  0
  7 26  1  0
  8 27  1  0
 12 28  1  0
 12 29  1  0
 14 30  1  0
 15 31  1  0
 16 32  1  0
 18 33  1  0
 19 34  1  0
 20 35  1  0
 21 36  1  0
M  ISO  8  23  14  24  14  25  14  26  14  27  14  28   8  29   8  30  14
M  ISO  6  31  14  32  14  33  14  34  14  35  14  36  14
M  END
>  <minimizedAffinity>  (1) 
-4.84811068

>  <minimizedRMSD>  (1) 
3.83292556

$$$$
