
     RDKit          3D

 33 36  0  0  0  0  0  0  0  0999 V2000
   37.2560   21.6640   34.9220 C   0  0  0  0  0  0  0  0  0  0  0  0
   36.0160   21.0750   35.1790 C   0  0  0  0  0  0  0  0  0  0  0  0
   35.5450   20.6040   33.9380 C   0  0  0  0  0  0  0  0  0  0  0  0
   36.5020   20.9230   33.0100 N   0  0  0  0  0  0  0  0  0  0  0  0
   37.5080   21.5490   33.6040 N   0  0  0  0  0  0  0  0  0  0  0  0
   39.9300   22.6440   37.2210 C   0  0  0  0  0  0  0  0  0  0  0  0
   39.2000   23.3340   38.2410 C   0  0  0  0  0  0  0  0  0  0  0  0
   37.8110   23.4420   38.1090 C   0  0  0  0  0  0  0  0  0  0  0  0
   37.2490   22.8770   37.0090 N   0  0  0  0  0  0  0  0  0  0  0  0
   37.9540   22.2340   36.0630 C   0  0  0  0  0  0  0  0  0  0  0  0
   39.2690   22.1190   36.1670 N   0  0  0  0  0  0  0  0  0  0  0  0
   36.3590   20.5920   31.6200 C   0  0  0  0  0  0  0  0  0  0  0  0
   36.5660   19.2030   31.3350 N   0  0  0  0  0  0  0  0  0  0  0  0
   36.7290   18.2080   32.2330 C   0  0  0  0  0  0  0  0  0  0  0  0
   36.8940   17.0560   31.5280 N   0  0  0  0  0  0  0  0  0  0  0  0
   36.8340   17.3390   30.2240 C   0  0  0  0  0  0  0  0  0  0  0  0
   36.9300   16.6090   29.0690 C   0  0  0  0  0  0  0  0  0  0  0  0
   36.8270   17.1810   27.8580 N   0  0  0  0  0  0  0  0  0  0  0  0
   36.6250   18.5020   27.7260 C   0  0  0  0  0  0  0  0  0  0  0  0
   36.5340   19.2040   28.8530 N   0  0  0  0  0  0  0  0  0  0  0  0
   36.6260   18.6960   30.0820 C   0  0  0  0  0  0  0  0  0  0  0  0
   37.1420   15.2120   29.1000 N   0  0  0  0  0  0  0  0  0  0  0  0
   35.5101   20.9952   36.1525 H   0  0  0  0  0  0  0  0  0  0  0  0
   34.5950   20.0822   33.7503 H   0  0  0  0  0  0  0  0  0  0  0  0
   41.0227   22.5421   37.2954 H   0  0  0  0  0  0  0  0  0  0  0  0
   39.7186   23.7690   39.1080 H   0  0  0  0  0  0  0  0  0  0  0  0
   37.2012   23.9615   38.8628 H   0  0  0  0  0  0  0  0  0  0  0  0
   35.3422   20.8643   31.3009 H   0  0  0  0  0  0  0  0  0  0  0  0
   37.1336   21.1512   31.0747 H   0  0  0  0  0  0  0  0  0  0  0  0
   36.7285   18.3096   33.3283 H   0  0  0  0  0  0  0  0  0  0  0  0
   36.5393   18.9788   26.7384 H   0  0  0  0  0  0  0  0  0  0  0  0
   37.2112   14.6819   28.2196 H   0  0  0  0  0  0  0  0  0  0  0  0
   37.2273   14.7240   30.0030 H   0  0  0  0  0  0  0  0  0  0  0  0
  1  2  1  0
  1 10  1  0
  3  2  2  0
  4  5  1  0
  4  3  1  0
  5  1  2  0
  6  7  2  0
  8  7  1  0
  9  8  2  0
 10 11  2  0
 10  9  1  0
 11  6  1  0
 12  4  1  0
 13 12  1  0
 13 14  1  0
 15 14  2  0
 16 15  1  0
 17 22  1  0
 17 16  2  0
 18 17  1  0
 19 18  2  0
 19 20  1  0
 20 21  2  0
 21 16  1  0
 21 13  1  0
  2 23  1  0
  3 24  1  0
  6 25  1  0
  7 26  1  0
  8 27  1  0
 12 28  1  0
 12 29  1  0
 14 30  1  0
 19 31  1  0
 22 32  1  0
 22 33  1  0
M  ISO  8  23  14  24  14  25  14  26  14  27  14  28   8  29   8  30  14
M  ISO  1  31  14
M  END
>  <minimizedAffinity>  (1) 
-4.81507111

>  <minimizedRMSD>  (1) 
1.08866394

$$$$
