
     RDKit          3D

 24 25  0  0  0  0  0  0  0  0999 V2000
   39.3340   25.0270   35.3380 C   0  0  0  0  0  0  0  0  0  0  0  0
   39.6400   23.6510   35.4480 C   0  0  0  0  0  0  0  0  0  0  0  0
   38.9690   22.8350   34.5520 C   0  0  0  0  0  0  0  0  0  0  0  0
   38.1050   23.3560   33.6630 N   0  0  0  0  0  0  0  0  0  0  0  0
   37.8360   24.6800   33.5840 C   0  0  0  0  0  0  0  0  0  0  0  0
   38.4610   25.4900   34.4280 N   0  0  0  0  0  0  0  0  0  0  0  0
   40.5690   23.1800   36.4100 N   0  0  0  0  0  0  0  0  0  0  0  0
   40.2220   22.4050   37.5400 C   0  0  0  0  0  0  0  0  0  0  0  0
   39.1160   22.7780   38.1610 N   0  0  0  0  0  0  0  0  0  0  0  0
   41.1180   21.3080   37.8680 N   0  0  0  0  0  0  0  0  0  0  0  0
   38.7820   22.2610   38.9890 H   0  0  0  0  0  0  0  0  0  0  0  0
   36.8860   25.1740   32.5940 C   0  0  0  0  0  0  0  0  0  0  0  0
   36.6570   26.5090   32.3310 C   0  0  0  0  0  0  0  0  0  0  0  0
   35.7090   26.5680   31.3510 N   0  0  0  0  0  0  0  0  0  0  0  0
   35.4000   25.2910   31.0590 C   0  0  0  0  0  0  0  0  0  0  0  0
   36.1030   24.4220   31.8030 N   0  0  0  0  0  0  0  0  0  0  0  0
   39.8251   25.7392   36.0174 H   0  0  0  0  0  0  0  0  0  0  0  0
   39.1448   21.7493   34.5679 H   0  0  0  0  0  0  0  0  0  0  0  0
   41.5621   23.4183   36.2766 H   0  0  0  0  0  0  0  0  0  0  0  0
   40.9197   20.7063   38.6801 H   0  0  0  0  0  0  0  0  0  0  0  0
   41.9511   21.1325   37.2882 H   0  0  0  0  0  0  0  0  0  0  0  0
   37.1464   27.3646   32.8193 H   0  0  0  0  0  0  0  0  0  0  0  0
   34.6598   24.9946   30.3012 H   0  0  0  0  0  0  0  0  0  0  0  0
   36.0524   23.3937   31.7734 H   0  0  0  0  0  0  0  0  0  0  0  0
  1  2  2  0
  2  7  1  0
  3  2  1  0
  4  3  2  0
  5  4  1  0
  5  6  2  0
  6  1  1  0
  7  8  1  0
  8 10  1  0
  8  9  2  0
  9 11  1  0
 12  5  1  0
 13 12  2  0
 14 13  1  0
 15 14  2  0
 15 16  1  0
 16 12  1  0
  1 17  1  0
  3 18  1  0
  7 19  1  0
 10 20  1  0
 10 21  1  0
 13 22  1  0
 15 23  1  0
 16 24  1  0
M  ISO  5  17  14  18  14  22  14  23  14  24   9
M  END
>  <minimizedAffinity>  (1) 
-4.59308815

>  <minimizedRMSD>  (1) 
0.308120459

$$$$
