
     RDKit          3D

 27 28  0  0  0  0  0  0  0  0999 V2000
   37.7050   22.5200   34.8570 C   0  0  0  0  0  0  0  0  0  0  0  0
   36.9180   21.3710   34.7250 C   0  0  0  0  0  0  0  0  0  0  0  0
   36.5150   21.3100   33.3790 C   0  0  0  0  0  0  0  0  0  0  0  0
   37.0710   22.4150   32.7610 N   0  0  0  0  0  0  0  0  0  0  0  0
   37.7660   23.1150   33.6430 N   0  0  0  0  0  0  0  0  0  0  0  0
   39.9850   22.6930   37.7090 C   0  0  0  0  0  0  0  0  0  0  0  0
   39.1650   23.3350   38.6930 C   0  0  0  0  0  0  0  0  0  0  0  0
   37.8570   23.6850   38.3430 C   0  0  0  0  0  0  0  0  0  0  0  0
   37.4560   23.3920   37.0910 N   0  0  0  0  0  0  0  0  0  0  0  0
   38.2400   22.7910   36.1830 C   0  0  0  0  0  0  0  0  0  0  0  0
   39.4980   22.4370   36.4730 N   0  0  0  0  0  0  0  0  0  0  0  0
   36.8610   22.6690   31.3690 C   0  0  0  0  0  0  0  0  0  0  0  0
   35.6490   23.4560   31.1200 N   0  0  0  0  0  0  0  0  0  0  0  0
   35.6570   24.8890   31.1480 C   0  0  0  0  0  0  0  0  0  0  0  0
   36.5000   25.4360   31.9560 N   0  0  0  0  0  0  0  0  0  0  0  0
   34.7180   25.5170   30.2630 N   0  0  0  0  0  0  0  0  0  0  0  0
   36.5520   26.4930   32.0200 H   0  0  0  0  0  0  0  0  0  0  0  0
   36.6637   20.6543   35.5198 H   0  0  0  0  0  0  0  0  0  0  0  0
   35.8847   20.5389   32.9120 H   0  0  0  0  0  0  0  0  0  0  0  0
   41.0169   22.4065   37.9600 H   0  0  0  0  0  0  0  0  0  0  0  0
   39.5548   23.5475   39.6994 H   0  0  0  0  0  0  0  0  0  0  0  0
   37.1843   24.1786   39.0598 H   0  0  0  0  0  0  0  0  0  0  0  0
   37.7275   23.2212   30.9762 H   0  0  0  0  0  0  0  0  0  0  0  0
   36.7393   21.6983   30.8660 H   0  0  0  0  0  0  0  0  0  0  0  0
   34.7663   22.9647   30.9191 H   0  0  0  0  0  0  0  0  0  0  0  0
   34.6581   26.5444   30.2206 H   0  0  0  0  0  0  0  0  0  0  0  0
   34.1040   24.9404   29.6702 H   0  0  0  0  0  0  0  0  0  0  0  0
  1 10  1  0
  2  1  1  0
  3  2  2  0
  4  3  1  0
  4  5  1  0
  5  1  2  0
  6  7  2  0
  8  7  1  0
  9  8  2  0
 10 11  2  0
 10  9  1  0
 11  6  1  0
 12  4  1  0
 13 14  1  0
 13 12  1  0
 14 15  2  0
 15 17  1  0
 16 14  1  0
  2 18  1  0
  3 19  1  0
  6 20  1  0
  7 21  1  0
  8 22  1  0
 12 23  1  0
 12 24  1  0
 13 25  1  0
 16 26  1  0
 16 27  1  0
M  ISO  7  18  14  19  14  20  14  21  14  22  14  23   8  24   8
M  END
>  <minimizedAffinity>  (1) 
-4.43151474

>  <minimizedRMSD>  (1) 
1.16036987

$$$$
