
     RDKit          3D

 30 32  0  0  0  0  0  0  0  0999 V2000
   37.8650   22.8430   34.7090 C   0  0  0  0  0  0  0  0  0  0  0  0
   37.2260   21.6360   34.3960 C   0  0  0  0  0  0  0  0  0  0  0  0
   36.8910   21.7060   33.0350 C   0  0  0  0  0  0  0  0  0  0  0  0
   37.3310   22.9270   32.5860 N   0  0  0  0  0  0  0  0  0  0  0  0
   37.9040   23.5870   33.5900 N   0  0  0  0  0  0  0  0  0  0  0  0
   39.9530   22.6850   37.7020 C   0  0  0  0  0  0  0  0  0  0  0  0
   39.1310   23.2690   38.6920 C   0  0  0  0  0  0  0  0  0  0  0  0
   37.8480   23.7150   38.2940 C   0  0  0  0  0  0  0  0  0  0  0  0
   37.4890   23.5510   36.9890 N   0  0  0  0  0  0  0  0  0  0  0  0
   38.3040   22.9910   36.0880 C   0  0  0  0  0  0  0  0  0  0  0  0
   39.5230   22.5610   36.4360 N   0  0  0  0  0  0  0  0  0  0  0  0
   37.1710   23.3730   31.2370 C   0  0  0  0  0  0  0  0  0  0  0  0
   37.1930   24.8250   31.0460 C   0  0  0  0  0  0  0  0  0  0  0  0
   35.9900   25.4990   31.2580 C   0  0  0  0  0  0  0  0  0  0  0  0
   35.8400   26.8760   31.1190 C   0  0  0  0  0  0  0  0  0  0  0  0
   36.9510   27.6040   30.7490 C   0  0  0  0  0  0  0  0  0  0  0  0
   38.1630   26.9790   30.5270 C   0  0  0  0  0  0  0  0  0  0  0  0
   38.2720   25.6020   30.6770 C   0  0  0  0  0  0  0  0  0  0  0  0
   37.0264   20.7991   35.0814 H   0  0  0  0  0  0  0  0  0  0  0  0
   36.3767   20.9341   32.4437 H   0  0  0  0  0  0  0  0  0  0  0  0
   40.9577   22.3275   37.9718 H   0  0  0  0  0  0  0  0  0  0  0  0
   39.4749   23.3730   39.7317 H   0  0  0  0  0  0  0  0  0  0  0  0
   37.1609   24.1801   39.0162 H   0  0  0  0  0  0  0  0  0  0  0  0
   37.9857   22.9400   30.6381 H   0  0  0  0  0  0  0  0  0  0  0  0
   36.1687   23.0428   30.9267 H   0  0  0  0  0  0  0  0  0  0  0  0
   35.1096   24.9086   31.5518 H   0  0  0  0  0  0  0  0  0  0  0  0
   34.8711   27.3651   31.2977 H   0  0  0  0  0  0  0  0  0  0  0  0
   36.8715   28.6946   30.6292 H   0  0  0  0  0  0  0  0  0  0  0  0
   39.0415   27.5714   30.2316 H   0  0  0  0  0  0  0  0  0  0  0  0
   39.2436   25.1187   30.4969 H   0  0  0  0  0  0  0  0  0  0  0  0
  1 10  1  0
  2  1  1  0
  3  2  2  0
  4  3  1  0
  4  5  1  0
  5  1  2  0
  6  7  2  0
  8  7  1  0
  9  8  2  0
 10 11  2  0
 10  9  1  0
 11  6  1  0
 12  4  1  0
 13 12  1  0
 13 14  2  0
 15 14  1  0
 16 15  2  0
 17 18  2  0
 17 16  1  0
 18 13  1  0
  2 19  1  0
  3 20  1  0
  6 21  1  0
  7 22  1  0
  8 23  1  0
 12 24  1  0
 12 25  1  0
 14 26  1  0
 15 27  1  0
 16 28  1  0
 17 29  1  0
 18 30  1  0
M  ISO  8  19  14  20  14  21  14  22  14  23  14  24   8  25   8  26  14
M  ISO  4  27  14  28  14  29  14  30  14
M  END
>  <minimizedAffinity>  (1) 
-4.50667

>  <minimizedRMSD>  (1) 
2.8645916

$$$$
