
     RDKit          3D

 27 29  0  0  0  0  0  0  0  0999 V2000
   37.9140   22.7310   34.7990 C   0  0  0  0  0  0  0  0  0  0  0  0
   37.2240   21.5470   34.5230 C   0  0  0  0  0  0  0  0  0  0  0  0
   36.8990   21.5960   33.1550 C   0  0  0  0  0  0  0  0  0  0  0  0
   37.3910   22.7720   32.6690 N   0  0  0  0  0  0  0  0  0  0  0  0
   37.9850   23.4250   33.6530 N   0  0  0  0  0  0  0  0  0  0  0  0
   39.9840   22.7220   37.8000 C   0  0  0  0  0  0  0  0  0  0  0  0
   39.1260   23.3030   38.7720 C   0  0  0  0  0  0  0  0  0  0  0  0
   37.8430   23.6860   38.3580 C   0  0  0  0  0  0  0  0  0  0  0  0
   37.5120   23.4740   37.0590 N   0  0  0  0  0  0  0  0  0  0  0  0
   38.3600   22.9170   36.1650 C   0  0  0  0  0  0  0  0  0  0  0  0
   39.5860   22.5440   36.5320 N   0  0  0  0  0  0  0  0  0  0  0  0
   37.2500   23.1730   31.2960 C   0  0  0  0  0  0  0  0  0  0  0  0
   36.5400   24.4270   31.1520 N   0  0  0  0  0  0  0  0  0  0  0  0
   37.1270   25.6310   31.0350 C   0  0  0  0  0  0  0  0  0  0  0  0
   36.0830   26.5500   30.9200 C   0  0  0  0  0  0  0  0  0  0  0  0
   34.9310   25.8550   30.9740 N   0  0  0  0  0  0  0  0  0  0  0  0
   35.2020   24.5510   31.1170 C   0  0  0  0  0  0  0  0  0  0  0  0
   36.9839   20.7406   35.2316 H   0  0  0  0  0  0  0  0  0  0  0  0
   36.3517   20.8308   32.5850 H   0  0  0  0  0  0  0  0  0  0  0  0
   40.9974   22.4113   38.0942 H   0  0  0  0  0  0  0  0  0  0  0  0
   39.4565   23.4469   39.8112 H   0  0  0  0  0  0  0  0  0  0  0  0
   37.1300   24.1420   39.0606 H   0  0  0  0  0  0  0  0  0  0  0  0
   38.2523   23.2832   30.8565 H   0  0  0  0  0  0  0  0  0  0  0  0
   36.6641   22.3975   30.7810 H   0  0  0  0  0  0  0  0  0  0  0  0
   38.2056   25.8468   31.0308 H   0  0  0  0  0  0  0  0  0  0  0  0
   36.1827   27.6396   30.8064 H   0  0  0  0  0  0  0  0  0  0  0  0
   34.4679   23.7353   31.1917 H   0  0  0  0  0  0  0  0  0  0  0  0
  1 10  1  0
  2  1  1  0
  3  2  2  0
  4  3  1  0
  4  5  1  0
  5  1  2  0
  6  7  2  0
  8  7  1  0
  9  8  2  0
 10 11  2  0
 10  9  1  0
 11  6  1  0
 12  4  1  0
 13 12  1  0
 14 13  1  0
 15 16  1  0
 15 14  2  0
 16 17  2  0
 17 13  1  0
  2 18  1  0
  3 19  1  0
  6 20  1  0
  7 21  1  0
  8 22  1  0
 12 23  1  0
 12 24  1  0
 14 25  1  0
 15 26  1  0
 17 27  1  0
M  ISO  8  18  14  19  14  20  14  21  14  22  14  23   8  24   8  25  14
M  ISO  2  26  14  27  14
M  END
>  <minimizedAffinity>  (1) 
-4.38417006

>  <minimizedRMSD>  (1) 
1.95865321

$$$$
