
     RDKit          3D

 31 33  0  0  0  0  0  0  0  0999 V2000
   37.9760   22.8490   34.6790 C   0  0  0  0  0  0  0  0  0  0  0  0
   37.1970   21.7210   34.4010 C   0  0  0  0  0  0  0  0  0  0  0  0
   36.9240   21.7020   33.0390 C   0  0  0  0  0  0  0  0  0  0  0  0
   37.5490   22.8260   32.5300 N   0  0  0  0  0  0  0  0  0  0  0  0
   38.1620   23.4860   33.5080 N   0  0  0  0  0  0  0  0  0  0  0  0
   39.9030   22.7290   37.7770 C   0  0  0  0  0  0  0  0  0  0  0  0
   39.0560   23.4190   38.6920 C   0  0  0  0  0  0  0  0  0  0  0  0
   37.8380   23.9060   38.2040 C   0  0  0  0  0  0  0  0  0  0  0  0
   37.5320   23.6960   36.8950 N   0  0  0  0  0  0  0  0  0  0  0  0
   38.3620   23.0380   36.0610 C   0  0  0  0  0  0  0  0  0  0  0  0
   39.5260   22.5630   36.4910 N   0  0  0  0  0  0  0  0  0  0  0  0
   37.5350   23.2190   31.1370 C   0  0  0  0  0  0  0  0  0  0  0  0
   37.2390   24.6340   31.0170 N   0  0  0  0  0  0  0  0  0  0  0  0
   38.1450   25.6020   30.8110 C   0  0  0  0  0  0  0  0  0  0  0  0
   37.7900   26.9340   30.7060 C   0  0  0  0  0  0  0  0  0  0  0  0
   36.4710   27.3240   30.8110 C   0  0  0  0  0  0  0  0  0  0  0  0
   36.0680   28.6660   30.7110 N   0  0  0  0  0  0  0  0  0  0  0  0
   35.5820   26.3320   31.0180 N   0  0  0  0  0  0  0  0  0  0  0  0
   35.9690   25.0460   31.1140 C   0  0  0  0  0  0  0  0  0  0  0  0
   35.0040   24.2550   31.3070 O   0  0  0  0  0  0  0  0  0  0  0  0
   36.8582   20.9758   35.1358 H   0  0  0  0  0  0  0  0  0  0  0  0
   36.3374   20.9544   32.4849 H   0  0  0  0  0  0  0  0  0  0  0  0
   40.8688   22.3296   38.1200 H   0  0  0  0  0  0  0  0  0  0  0  0
   39.3485   23.5635   39.7425 H   0  0  0  0  0  0  0  0  0  0  0  0
   37.1436   24.4465   38.8640 H   0  0  0  0  0  0  0  0  0  0  0  0
   38.5203   23.0152   30.6924 H   0  0  0  0  0  0  0  0  0  0  0  0
   36.7585   22.6447   30.6106 H   0  0  0  0  0  0  0  0  0  0  0  0
   39.2062   25.3264   30.7227 H   0  0  0  0  0  0  0  0  0  0  0  0
   38.5689   27.6921   30.5367 H   0  0  0  0  0  0  0  0  0  0  0  0
   35.0714   28.9121   30.7956 H   0  0  0  0  0  0  0  0  0  0  0  0
   36.7691   29.4039   30.5531 H   0  0  0  0  0  0  0  0  0  0  0  0
  1 10  1  0
  2  1  1  0
  3  2  2  0
  4  3  1  0
  4  5  1  0
  5  1  2  0
  6  7  2  0
  8  7  1  0
  9  8  2  0
 10 11  2  0
 10  9  1  0
 11  6  1  0
 12  4  1  0
 13 19  1  0
 13 12  1  0
 14 13  1  0
 15 14  2  0
 15 16  1  0
 16 18  2  0
 17 16  1  0
 18 19  1  0
 19 20  2  0
  2 21  1  0
  3 22  1  0
  6 23  1  0
  7 24  1  0
  8 25  1  0
 12 26  1  0
 12 27  1  0
 14 28  1  0
 15 29  1  0
 17 30  1  0
 17 31  1  0
M  ISO  8  21  14  22  14  23  14  24  14  25  14  26   8  27   8  28  14
M  ISO  1  29  14
M  END
>  <minimizedAffinity>  (1) 
-5.05668354

>  <minimizedRMSD>  (1) 
2.85732985

$$$$
