
     RDKit          3D

 44 47  0  0  0  0  0  0  0  0999 V2000
   37.0550   24.5920   30.9470 N   0  0  0  0  0  0  0  0  0  0  0  0
   38.1680   25.3140   30.7000 C   0  0  0  0  0  0  0  0  0  0  0  0
   38.1310   26.6970   30.6320 C   0  0  0  0  0  0  0  0  0  0  0  0
   36.9520   27.4000   30.8140 C   0  0  0  0  0  0  0  0  0  0  0  0
   36.9350   28.7920   30.7410 N   0  0  0  0  0  0  0  0  0  0  0  0
   35.8770   26.6420   31.0550 N   0  0  0  0  0  0  0  0  0  0  0  0
   35.9240   25.3030   31.1180 C   0  0  0  0  0  0  0  0  0  0  0  0
   34.8170   24.7670   31.3530 O   0  0  0  0  0  0  0  0  0  0  0  0
   39.3730   27.3400   30.3670 N   0  0  0  0  0  0  0  0  0  0  0  0
   40.3460   27.3950   31.2970 C   0  0  0  0  0  0  0  0  0  0  0  0
   41.5300   28.0310   30.9880 C   0  0  0  0  0  0  0  0  0  0  0  0
   42.6610   28.1350   31.9610 C   0  0  0  0  0  0  0  0  0  0  0  0
   41.7070   28.5990   29.7440 C   0  0  0  0  0  0  0  0  0  0  0  0
   42.7840   29.1850   29.4460 O   0  0  0  0  0  0  0  0  0  0  0  0
   40.6920   28.5170   28.8420 N   0  0  0  0  0  0  0  0  0  0  0  0
   39.5290   27.8900   29.1500 C   0  0  0  0  0  0  0  0  0  0  0  0
   38.6820   27.8930   28.2190 O   0  0  0  0  0  0  0  0  0  0  0  0
   36.9960   23.1500   31.0360 C   0  0  0  0  0  0  0  0  0  0  0  0
   37.7920   22.7040   34.4980 C   0  0  0  0  0  0  0  0  0  0  0  0
   37.0100   21.5660   34.2650 C   0  0  0  0  0  0  0  0  0  0  0  0
   36.6050   21.5730   32.9410 C   0  0  0  0  0  0  0  0  0  0  0  0
   37.1540   22.7240   32.3990 N   0  0  0  0  0  0  0  0  0  0  0  0
   37.8440   23.3670   33.3320 N   0  0  0  0  0  0  0  0  0  0  0  0
   40.0470   22.6080   37.3720 C   0  0  0  0  0  0  0  0  0  0  0  0
   39.2480   23.1820   38.3970 C   0  0  0  0  0  0  0  0  0  0  0  0
   37.9510   23.5860   38.0660 C   0  0  0  0  0  0  0  0  0  0  0  0
   37.5180   23.4120   36.7880 N   0  0  0  0  0  0  0  0  0  0  0  0
   38.3060   22.8620   35.8370 C   0  0  0  0  0  0  0  0  0  0  0  0
   39.5480   22.4680   36.1210 N   0  0  0  0  0  0  0  0  0  0  0  0
   39.1251   24.7931   30.5494 H   0  0  0  0  0  0  0  0  0  0  0  0
   36.0519   29.3042   30.8781 H   0  0  0  0  0  0  0  0  0  0  0  0
   37.8055   29.3084   30.5500 H   0  0  0  0  0  0  0  0  0  0  0  0
   40.1984   26.9397   32.2874 H   0  0  0  0  0  0  0  0  0  0  0  0
   42.2664   28.0987   32.9871 H   0  0  0  0  0  0  0  0  0  0  0  0
   43.3565   27.2970   31.8058 H   0  0  0  0  0  0  0  0  0  0  0  0
   43.1920   29.0858   31.8058 H   0  0  0  0  0  0  0  0  0  0  0  0
   40.8084   28.9381   27.9093 H   0  0  0  0  0  0  0  0  0  0  0  0
   36.0226   22.8034   30.6587 H   0  0  0  0  0  0  0  0  0  0  0  0
   37.8102   22.7223   30.4325 H   0  0  0  0  0  0  0  0  0  0  0  0
   36.7595   20.7956   35.0091 H   0  0  0  0  0  0  0  0  0  0  0  0
   35.9813   20.8253   32.4292 H   0  0  0  0  0  0  0  0  0  0  0  0
   41.0721   22.2770   37.5949 H   0  0  0  0  0  0  0  0  0  0  0  0
   39.6373   23.3047   39.4185 H   0  0  0  0  0  0  0  0  0  0  0  0
   37.2933   24.0359   38.8243 H   0  0  0  0  0  0  0  0  0  0  0  0
  1 18  1  0
  1  7  1  0
  2  1  1  0
  3  2  2  0
  3  4  1  0
  4  6  2  0
  5  4  1  0
  6  7  1  0
  7  8  2  0
  9  3  1  0
  9 10  1  0
 11 10  2  0
 11 12  1  0
 13 11  1  0
 14 13  2  0
 15 16  1  0
 15 13  1  0
 16  9  1  0
 17 16  2  0
 18 22  1  0
 19 28  1  0
 20 19  1  0
 21 20  2  0
 22 21  1  0
 22 23  1  0
 23 19  2  0
 24 25  2  0
 26 25  1  0
 27 26  2  0
 28 29  2  0
 28 27  1  0
 29 24  1  0
  2 30  1  0
  5 31  1  0
  5 32  1  0
 10 33  1  0
 12 34  1  0
 12 35  1  0
 12 36  1  0
 15 37  1  0
 18 38  1  0
 18 39  1  0
 20 40  1  0
 21 41  1  0
 24 42  1  0
 25 43  1  0
 26 44  1  0
M  ISO  8  30  14  33  14  34   8  35   8  36   8  37   9  38   8  39   8
M  ISO  5  40  14  41  14  42  14  43  14  44  14
M  END
>  <minimizedAffinity>  (1) 
-5.69878864

>  <minimizedRMSD>  (1) 
0.789275289

$$$$
