
     RDKit          3D

 22 23  0  0  0  0  0  0  0  0999 V2000
   39.4690   24.9860   35.2840 C   0  0  0  0  0  0  0  0  0  0  0  0
   39.7090   23.5840   35.4480 C   0  0  0  0  0  0  0  0  0  0  0  0
   38.9490   22.7570   34.6110 C   0  0  0  0  0  0  0  0  0  0  0  0
   38.0620   23.3030   33.7260 N   0  0  0  0  0  0  0  0  0  0  0  0
   37.8910   24.6230   33.6280 C   0  0  0  0  0  0  0  0  0  0  0  0
   38.5820   25.4570   34.3940 N   0  0  0  0  0  0  0  0  0  0  0  0
   40.6460   23.1020   36.3920 N   0  0  0  0  0  0  0  0  0  0  0  0
   40.2890   22.3690   37.5530 C   0  0  0  0  0  0  0  0  0  0  0  0
   39.2080   22.7830   38.1820 N   0  0  0  0  0  0  0  0  0  0  0  0
   41.1560   21.2600   37.8970 N   0  0  0  0  0  0  0  0  0  0  0  0
   38.8840   22.3310   39.0470 H   0  0  0  0  0  0  0  0  0  0  0  0
   36.9480   25.2240   32.6900 C   0  0  0  0  0  0  0  0  0  0  0  0
   36.7690   26.5690   32.6490 N   0  0  0  0  0  0  0  0  0  0  0  0
   35.8770   26.8100   31.7230 O   0  0  0  0  0  0  0  0  0  0  0  0
   35.4750   25.6700   31.1660 C   0  0  0  0  0  0  0  0  0  0  0  0
   36.1390   24.6620   31.7610 N   0  0  0  0  0  0  0  0  0  0  0  0
   40.0290   25.6991   35.9068 H   0  0  0  0  0  0  0  0  0  0  0  0
   39.0664   21.6647   34.6661 H   0  0  0  0  0  0  0  0  0  0  0  0
   41.6444   23.2942   36.2270 H   0  0  0  0  0  0  0  0  0  0  0  0
   40.9534   20.6865   38.7283 H   0  0  0  0  0  0  0  0  0  0  0  0
   41.9748   21.0452   37.3102 H   0  0  0  0  0  0  0  0  0  0  0  0
   34.7315   25.5695   30.3616 H   0  0  0  0  0  0  0  0  0  0  0  0
  1  2  2  0
  2  7  1  0
  3  2  1  0
  4  3  2  0
  5  4  1  0
  5  6  2  0
  6  1  1  0
  7  8  1  0
  8 10  1  0
  8  9  2  0
  9 11  1  0
 12  5  1  0
 13 12  2  0
 14 13  1  0
 15 14  1  0
 15 16  2  0
 16 12  1  0
  1 17  1  0
  3 18  1  0
  7 19  1  0
 10 20  1  0
 10 21  1  0
 15 22  1  0
M  ISO  3  17  14  18  14  22  14
M  END
>  <minimizedAffinity>  (1) 
-4.5259819

>  <minimizedRMSD>  (1) 
0.475279182

$$$$
