
     RDKit          3D

 41 44  0  0  0  0  0  0  0  0999 V2000
   37.0790   24.2000   31.0390 N   0  0  0  0  0  0  0  0  0  0  0  0
   38.1280   24.9460   30.7000 C   0  0  0  0  0  0  0  0  0  0  0  0
   38.0350   26.3200   30.5380 C   0  0  0  0  0  0  0  0  0  0  0  0
   36.8400   26.9640   30.7230 C   0  0  0  0  0  0  0  0  0  0  0  0
   36.6630   28.3510   30.5780 N   0  0  0  0  0  0  0  0  0  0  0  0
   35.7910   26.1870   31.0660 N   0  0  0  0  0  0  0  0  0  0  0  0
   35.9180   24.8470   31.2160 C   0  0  0  0  0  0  0  0  0  0  0  0
   34.8550   24.2650   31.5360 O   0  0  0  0  0  0  0  0  0  0  0  0
   39.1850   27.0680   30.1760 N   0  0  0  0  0  0  0  0  0  0  0  0
   39.5800   27.5270   28.9760 C   0  0  0  0  0  0  0  0  0  0  0  0
   40.7560   28.2410   28.8730 C   0  0  0  0  0  0  0  0  0  0  0  0
   41.5410   28.4950   29.9790 C   0  0  0  0  0  0  0  0  0  0  0  0
   42.6110   29.1520   29.8470 O   0  0  0  0  0  0  0  0  0  0  0  0
   41.1130   28.0170   31.1790 N   0  0  0  0  0  0  0  0  0  0  0  0
   39.9520   27.3150   31.2660 C   0  0  0  0  0  0  0  0  0  0  0  0
   39.7130   26.9480   32.4620 O   0  0  0  0  0  0  0  0  0  0  0  0
   37.1170   22.7540   31.2230 C   0  0  0  0  0  0  0  0  0  0  0  0
   37.7900   22.5540   34.7510 C   0  0  0  0  0  0  0  0  0  0  0  0
   36.9470   21.4430   34.5830 C   0  0  0  0  0  0  0  0  0  0  0  0
   36.5820   21.3640   33.2510 C   0  0  0  0  0  0  0  0  0  0  0  0
   37.2170   22.4370   32.6410 N   0  0  0  0  0  0  0  0  0  0  0  0
   37.9150   23.1200   33.5260 N   0  0  0  0  0  0  0  0  0  0  0  0
   39.9920   22.6630   37.6500 C   0  0  0  0  0  0  0  0  0  0  0  0
   39.1820   23.2770   38.6330 C   0  0  0  0  0  0  0  0  0  0  0  0
   37.8910   23.6360   38.2630 C   0  0  0  0  0  0  0  0  0  0  0  0
   37.4620   23.3870   36.9860 N   0  0  0  0  0  0  0  0  0  0  0  0
   38.2740   22.7980   36.0820 C   0  0  0  0  0  0  0  0  0  0  0  0
   39.5150   22.4440   36.4090 N   0  0  0  0  0  0  0  0  0  0  0  0
   39.1005   24.4565   30.5432 H   0  0  0  0  0  0  0  0  0  0  0  0
   35.7351   28.7707   30.7324 H   0  0  0  0  0  0  0  0  0  0  0  0
   37.4612   28.9476   30.3174 H   0  0  0  0  0  0  0  0  0  0  0  0
   38.9693   27.3345   28.0815 H   0  0  0  0  0  0  0  0  0  0  0  0
   41.0744   28.6155   27.8889 H   0  0  0  0  0  0  0  0  0  0  0  0
   41.6722   28.1881   32.0269 H   0  0  0  0  0  0  0  0  0  0  0  0
   36.1974   22.3100   30.8140 H   0  0  0  0  0  0  0  0  0  0  0  0
   37.9928   22.3451   30.6979 H   0  0  0  0  0  0  0  0  0  0  0  0
   36.6301   20.7515   35.3776 H   0  0  0  0  0  0  0  0  0  0  0  0
   35.9305   20.6143   32.7783 H   0  0  0  0  0  0  0  0  0  0  0  0
   41.0199   22.3617   37.9004 H   0  0  0  0  0  0  0  0  0  0  0  0
   39.5583   23.4631   39.6497 H   0  0  0  0  0  0  0  0  0  0  0  0
   37.2193   24.1162   38.9898 H   0  0  0  0  0  0  0  0  0  0  0  0
  1  7  1  0
  1 17  1  0
  2  1  1  0
  3  2  2  0
  3  4  1  0
  4  6  2  0
  5  4  1  0
  6  7  1  0
  7  8  2  0
  9  3  1  0
  9 15  1  0
 10  9  1  0
 11 10  2  0
 11 12  1  0
 12 14  1  0
 13 12  2  0
 14 15  1  0
 15 16  2  0
 17 21  1  0
 18 27  1  0
 19 18  1  0
 20 19  2  0
 21 20  1  0
 21 22  1  0
 22 18  2  0
 23 24  2  0
 25 24  1  0
 26 25  2  0
 27 28  2  0
 27 26  1  0
 28 23  1  0
  2 29  1  0
  5 30  1  0
  5 31  1  0
 10 32  1  0
 11 33  1  0
 14 34  1  0
 17 35  1  0
 17 36  1  0
 19 37  1  0
 20 38  1  0
 23 39  1  0
 24 40  1  0
 25 41  1  0
M  ISO  8  29  14  32  14  33  14  34   9  35   8  36   8  37  14  38  14
M  ISO  3  39  14  40  14  41  14
M  END
>  <minimizedAffinity>  (1) 
-5.46814299

>  <minimizedRMSD>  (1) 
0.970510602

$$$$
