
     RDKit          3D

 44 47  0  0  0  0  0  0  0  0999 V2000
   37.0570   24.5690   30.9830 N   0  0  0  0  0  0  0  0  0  0  0  0
   38.1310   25.3190   30.7430 C   0  0  0  0  0  0  0  0  0  0  0  0
   38.0740   26.7000   30.6670 C   0  0  0  0  0  0  0  0  0  0  0  0
   36.8820   27.3740   30.8380 C   0  0  0  0  0  0  0  0  0  0  0  0
   36.8120   28.7660   30.7630 N   0  0  0  0  0  0  0  0  0  0  0  0
   35.8220   26.5910   31.0760 N   0  0  0  0  0  0  0  0  0  0  0  0
   35.9100   25.2570   31.1450 C   0  0  0  0  0  0  0  0  0  0  0  0
   34.8000   24.6920   31.3790 O   0  0  0  0  0  0  0  0  0  0  0  0
   41.8040   28.6730   30.1090 C   0  0  0  0  0  0  0  0  0  0  0  0
   40.8380   28.7730   29.1370 C   0  0  0  0  0  0  0  0  0  0  0  0
   39.6120   28.1530   29.2710 C   0  0  0  0  0  0  0  0  0  0  0  0
   39.3250   27.4060   30.3990 C   0  0  0  0  0  0  0  0  0  0  0  0
   40.2950   27.2920   31.3990 C   0  0  0  0  0  0  0  0  0  0  0  0
   41.5080   27.9280   31.2280 C   0  0  0  0  0  0  0  0  0  0  0  0
   43.3730   29.4400   29.9890 S   0  0  0  0  0  0  0  0  0  0  0  0
   44.4090   28.4410   29.5960 O   0  0  0  0  0  0  0  0  0  0  0  0
   43.7700   30.0540   31.3060 O   0  0  0  0  0  0  0  0  0  0  0  0
   37.0410   23.1290   31.0760 C   0  0  0  0  0  0  0  0  0  0  0  0
   37.7940   22.7100   34.5580 C   0  0  0  0  0  0  0  0  0  0  0  0
   37.0140   21.5690   34.3270 C   0  0  0  0  0  0  0  0  0  0  0  0
   36.6220   21.5640   32.9910 C   0  0  0  0  0  0  0  0  0  0  0  0
   37.1800   22.7110   32.4540 N   0  0  0  0  0  0  0  0  0  0  0  0
   37.8630   23.3680   33.3870 N   0  0  0  0  0  0  0  0  0  0  0  0
   40.0120   22.6300   37.4520 C   0  0  0  0  0  0  0  0  0  0  0  0
   39.2140   23.2140   38.4640 C   0  0  0  0  0  0  0  0  0  0  0  0
   37.9120   23.6250   38.1140 C   0  0  0  0  0  0  0  0  0  0  0  0
   37.5040   23.4360   36.8300 N   0  0  0  0  0  0  0  0  0  0  0  0
   38.2890   22.8790   35.8970 C   0  0  0  0  0  0  0  0  0  0  0  0
   39.5260   22.4810   36.2010 N   0  0  0  0  0  0  0  0  0  0  0  0
   39.1015   24.8215   30.5995 H   0  0  0  0  0  0  0  0  0  0  0  0
   35.9092   29.2441   30.8945 H   0  0  0  0  0  0  0  0  0  0  0  0
   37.6631   29.3151   30.5761 H   0  0  0  0  0  0  0  0  0  0  0  0
   41.0465   29.3608   28.2309 H   0  0  0  0  0  0  0  0  0  0  0  0
   38.8587   28.2537   28.4758 H   0  0  0  0  0  0  0  0  0  0  0  0
   40.0949   26.7050   32.3075 H   0  0  0  0  0  0  0  0  0  0  0  0
   42.2685   27.8358   32.0174 H   0  0  0  0  0  0  0  0  0  0  0  0
   43.2866   30.4212   29.0368 H   0  0  0  0  0  0  0  0  0  0  0  0
   36.0884   22.7506   30.6768 H   0  0  0  0  0  0  0  0  0  0  0  0
   37.8821   22.7245   30.4939 H   0  0  0  0  0  0  0  0  0  0  0  0
   36.7549   20.8056   35.0754 H   0  0  0  0  0  0  0  0  0  0  0  0
   36.0046   20.8135   32.4757 H   0  0  0  0  0  0  0  0  0  0  0  0
   41.0336   22.2956   37.6855 H   0  0  0  0  0  0  0  0  0  0  0  0
   39.5961   23.3427   39.4874 H   0  0  0  0  0  0  0  0  0  0  0  0
   37.2449   24.0854   38.8577 H   0  0  0  0  0  0  0  0  0  0  0  0
  1 18  1  0
  1  7  1  0
  2  1  1  0
  3  2  2  0
  3  4  1  0
  4  6  2  0
  5  4  1  0
  6  7  1  0
  7  8  2  0
  9 14  2  0
 10 11  2  0
 10  9  1  0
 11 12  1  0
 12  3  1  0
 12 13  2  0
 14 13  1  0
 15  9  1  0
 15 17  2  0
 16 15  2  0
 18 22  1  0
 19 28  1  0
 20 19  1  0
 21 20  2  0
 22 21  1  0
 22 23  1  0
 23 19  2  0
 24 25  2  0
 26 25  1  0
 27 26  2  0
 28 29  2  0
 28 27  1  0
 29 24  1  0
  2 30  1  0
  5 31  1  0
  5 32  1  0
 10 33  1  0
 11 34  1  0
 13 35  1  0
 14 36  1  0
 15 37  1  0
 18 38  1  0
 18 39  1  0
 20 40  1  0
 21 41  1  0
 24 42  1  0
 25 43  1  0
 26 44  1  0
M  ISO  8  30  14  33  14  34  14  35  14  36  14  37  11  38   8  39   8
M  ISO  5  40  14  41  14  42  14  43  14  44  14
M  END
>  <minimizedAffinity>  (1) 
-5.54580212

>  <minimizedRMSD>  (1) 
0.765153646

$$$$
