
     RDKit          3D

 43 45  0  0  0  0  0  0  0  0999 V2000
   37.2750   22.8670   31.2380 C   0  0  0  0  0  0  0  0  0  0  0  0
   37.0690   24.2930   31.0720 N   0  0  0  0  0  0  0  0  0  0  0  0
   38.0260   25.1750   30.7850 C   0  0  0  0  0  0  0  0  0  0  0  0
   37.7780   26.5380   30.6350 C   0  0  0  0  0  0  0  0  0  0  0  0
   36.5040   27.0190   30.7830 C   0  0  0  0  0  0  0  0  0  0  0  0
   36.1780   28.3730   30.6490 N   0  0  0  0  0  0  0  0  0  0  0  0
   35.5650   26.1110   31.0710 N   0  0  0  0  0  0  0  0  0  0  0  0
   35.8270   24.8000   31.2110 C   0  0  0  0  0  0  0  0  0  0  0  0
   34.8280   24.0910   31.4810 O   0  0  0  0  0  0  0  0  0  0  0  0
   38.8930   27.4310   30.3190 C   0  0  0  0  0  0  0  0  0  0  0  0
   39.7670   26.8490   29.2000 C   0  0  0  0  0  0  0  0  0  0  0  0
   38.5300   28.8170   29.9250 C   0  0  0  0  0  0  0  0  0  0  0  0
   39.7830   27.5190   31.5500 C   0  0  0  0  0  0  0  0  0  0  0  0
   37.8530   22.6360   34.7700 C   0  0  0  0  0  0  0  0  0  0  0  0
   37.0410   21.5180   34.5810 C   0  0  0  0  0  0  0  0  0  0  0  0
   36.7110   21.4460   33.2360 C   0  0  0  0  0  0  0  0  0  0  0  0
   37.3390   22.5340   32.6500 N   0  0  0  0  0  0  0  0  0  0  0  0
   38.0070   23.2220   33.5680 N   0  0  0  0  0  0  0  0  0  0  0  0
   39.9780   22.7190   37.7480 C   0  0  0  0  0  0  0  0  0  0  0  0
   39.1370   23.3430   38.6990 C   0  0  0  0  0  0  0  0  0  0  0  0
   37.8590   23.7190   38.2920 C   0  0  0  0  0  0  0  0  0  0  0  0
   37.4680   23.4760   37.0070 N   0  0  0  0  0  0  0  0  0  0  0  0
   38.3050   22.8770   36.1260 C   0  0  0  0  0  0  0  0  0  0  0  0
   39.5320   22.5070   36.4910 N   0  0  0  0  0  0  0  0  0  0  0  0
   38.2183   22.5765   30.7524 H   0  0  0  0  0  0  0  0  0  0  0  0
   36.4354   22.3255   30.7777 H   0  0  0  0  0  0  0  0  0  0  0  0
   39.0567   24.8112   30.6611 H   0  0  0  0  0  0  0  0  0  0  0  0
   35.2031   28.6825   30.7704 H   0  0  0  0  0  0  0  0  0  0  0  0
   36.9129   29.0603   30.4289 H   0  0  0  0  0  0  0  0  0  0  0  0
   40.6053   26.2908   29.6423 H   0  0  0  0  0  0  0  0  0  0  0  0
   39.1633   26.1720   28.5778 H   0  0  0  0  0  0  0  0  0  0  0  0
   40.1589   27.6671   28.5778 H   0  0  0  0  0  0  0  0  0  0  0  0
   38.3708   29.4250   30.8277 H   0  0  0  0  0  0  0  0  0  0  0  0
   39.3441   29.2536   29.3278 H   0  0  0  0  0  0  0  0  0  0  0  0
   37.6064   28.7984   29.3278 H   0  0  0  0  0  0  0  0  0  0  0  0
   39.1625   27.4576   32.4562 H   0  0  0  0  0  0  0  0  0  0  0  0
   40.5033   26.6877   31.5419 H   0  0  0  0  0  0  0  0  0  0  0  0
   40.3266   28.4753   31.5419 H   0  0  0  0  0  0  0  0  0  0  0  0
   36.7183   20.8151   35.3632 H   0  0  0  0  0  0  0  0  0  0  0  0
   36.0856   20.6886   32.7408 H   0  0  0  0  0  0  0  0  0  0  0  0
   40.9939   22.4069   38.0319 H   0  0  0  0  0  0  0  0  0  0  0  0
   39.4814   23.5256   39.7276 H   0  0  0  0  0  0  0  0  0  0  0  0
   37.1718   24.2068   38.9990 H   0  0  0  0  0  0  0  0  0  0  0  0
  1 17  1  0
  2  8  1  0
  2  1  1  0
  3  2  1  0
  4  5  1  0
  4  3  2  0
  5  7  2  0
  6  5  1  0
  7  8  1  0
  8  9  2  0
 10  4  1  0
 10 13  1  0
 11 10  1  0
 12 10  1  0
 14 23  1  0
 15 14  1  0
 16 15  2  0
 17 16  1  0
 17 18  1  0
 18 14  2  0
 19 20  2  0
 21 20  1  0
 22 21  2  0
 23 24  2  0
 23 22  1  0
 24 19  1  0
  1 25  1  0
  1 26  1  0
  3 27  1  0
  6 28  1  0
  6 29  1  0
 11 30  1  0
 11 31  1  0
 11 32  1  0
 12 33  1  0
 12 34  1  0
 12 35  1  0
 13 36  1  0
 13 37  1  0
 13 38  1  0
 15 39  1  0
 16 40  1  0
 19 41  1  0
 20 42  1  0
 21 43  1  0
M  ISO  8  25   8  26   8  27  14  30   8  31   8  32   8  33   8  34   8
M  ISO  8  35   8  36   8  37   8  38   8  39  14  40  14  41  14  42  14
M  ISO  1  43  14
M  END
>  <minimizedAffinity>  (1) 
-5.36322784

>  <minimizedRMSD>  (1) 
0.379336268

$$$$
