
     RDKit          3D

 46 49  0  0  0  0  0  0  0  0999 V2000
   37.0510   22.7400   31.2390 C   0  0  0  0  0  0  0  0  0  0  0  0
   37.0320   24.1890   31.0540 N   0  0  0  0  0  0  0  0  0  0  0  0
   38.0940   24.9410   30.7460 C   0  0  0  0  0  0  0  0  0  0  0  0
   38.0020   26.3150   30.5850 C   0  0  0  0  0  0  0  0  0  0  0  0
   36.8040   26.9630   30.7400 C   0  0  0  0  0  0  0  0  0  0  0  0
   36.6500   28.3550   30.5900 N   0  0  0  0  0  0  0  0  0  0  0  0
   35.7530   26.1800   31.0510 N   0  0  0  0  0  0  0  0  0  0  0  0
   35.8680   24.8530   31.2000 C   0  0  0  0  0  0  0  0  0  0  0  0
   34.7910   24.2810   31.4880 O   0  0  0  0  0  0  0  0  0  0  0  0
   39.1690   27.0690   30.2550 N   0  0  0  0  0  0  0  0  0  0  0  0
   40.1110   27.4110   31.3150 C   0  0  0  0  0  0  0  0  0  0  0  0
   41.4690   27.7580   30.7410 C   0  0  0  0  0  0  0  0  0  0  0  0
   41.3910   28.9710   29.8410 C   0  0  0  0  0  0  0  0  0  0  0  0
   40.0830   29.0010   29.0850 C   0  0  0  0  0  0  0  0  0  0  0  0
   39.5870   27.5780   28.9550 C   0  0  0  0  0  0  0  0  0  0  0  0
   37.7680   22.5390   34.7560 C   0  0  0  0  0  0  0  0  0  0  0  0
   36.9440   21.4310   34.5950 C   0  0  0  0  0  0  0  0  0  0  0  0
   36.5580   21.3430   33.2660 C   0  0  0  0  0  0  0  0  0  0  0  0
   37.1710   22.4240   32.6480 N   0  0  0  0  0  0  0  0  0  0  0  0
   37.8760   23.1150   33.5330 N   0  0  0  0  0  0  0  0  0  0  0  0
   39.9930   22.6640   37.6400 C   0  0  0  0  0  0  0  0  0  0  0  0
   39.1810   23.2760   38.6370 C   0  0  0  0  0  0  0  0  0  0  0  0
   37.8870   23.6220   38.2640 C   0  0  0  0  0  0  0  0  0  0  0  0
   37.4680   23.3670   36.9970 N   0  0  0  0  0  0  0  0  0  0  0  0
   38.2670   22.7870   36.0830 C   0  0  0  0  0  0  0  0  0  0  0  0
   39.5060   22.4440   36.4070 N   0  0  0  0  0  0  0  0  0  0  0  0
   37.9073   22.3142   30.6955 H   0  0  0  0  0  0  0  0  0  0  0  0
   36.1145   22.3131   30.8507 H   0  0  0  0  0  0  0  0  0  0  0  0
   39.0717   24.4540   30.6162 H   0  0  0  0  0  0  0  0  0  0  0  0
   35.7241   28.7875   30.7187 H   0  0  0  0  0  0  0  0  0  0  0  0
   37.4633   28.9404   30.3517 H   0  0  0  0  0  0  0  0  0  0  0  0
   39.7250   28.2759   31.8745 H   0  0  0  0  0  0  0  0  0  0  0  0
   40.2225   26.5416   31.9797 H   0  0  0  0  0  0  0  0  0  0  0  0
   42.1641   27.9688   31.5671 H   0  0  0  0  0  0  0  0  0  0  0  0
   41.8221   26.9044   30.1438 H   0  0  0  0  0  0  0  0  0  0  0  0
   41.4727   29.8802   30.4548 H   0  0  0  0  0  0  0  0  0  0  0  0
   42.2150   28.9216   29.1140 H   0  0  0  0  0  0  0  0  0  0  0  0
   39.3467   29.6043   29.6363 H   0  0  0  0  0  0  0  0  0  0  0  0
   40.2260   29.4487   28.0905 H   0  0  0  0  0  0  0  0  0  0  0  0
   38.7321   27.5532   28.2633 H   0  0  0  0  0  0  0  0  0  0  0  0
   40.4019   26.9482   28.5685 H   0  0  0  0  0  0  0  0  0  0  0  0
   36.6460   20.7357   35.3936 H   0  0  0  0  0  0  0  0  0  0  0  0
   35.9094   20.5842   32.8038 H   0  0  0  0  0  0  0  0  0  0  0  0
   41.0252   22.3695   37.8806 H   0  0  0  0  0  0  0  0  0  0  0  0
   39.5590   23.4657   39.6525 H   0  0  0  0  0  0  0  0  0  0  0  0
   37.2089   24.0977   38.9879 H   0  0  0  0  0  0  0  0  0  0  0  0
  1 19  1  0
  2  8  1  0
  2  1  1  0
  3  2  1  0
  4  5  1  0
  4  3  2  0
  5  7  2  0
  6  5  1  0
  7  8  1  0
  8  9  2  0
 10  4  1  0
 10 11  1  0
 12 11  1  0
 13 12  1  0
 14 13  1  0
 15 14  1  0
 15 10  1  0
 16 25  1  0
 17 16  1  0
 18 17  2  0
 19 18  1  0
 19 20  1  0
 20 16  2  0
 21 22  2  0
 23 22  1  0
 24 23  2  0
 25 26  2  0
 25 24  1  0
 26 21  1  0
  1 27  1  0
  1 28  1  0
  3 29  1  0
  6 30  1  0
  6 31  1  0
 11 32  1  0
 11 33  1  0
 12 34  1  0
 12 35  1  0
 13 36  1  0
 13 37  1  0
 14 38  1  0
 14 39  1  0
 15 40  1  0
 15 41  1  0
 17 42  1  0
 18 43  1  0
 21 44  1  0
 22 45  1  0
 23 46  1  0
M  ISO  8  27   8  28   8  29  14  32  13  33  13  34  13  35  13  36  13
M  ISO  8  37  13  38  13  39  13  40  13  41  13  42  14  43  14  44  14
M  ISO  2  45  14  46  14
M  END
>  <minimizedAffinity>  (1) 
-5.44617128

>  <minimizedRMSD>  (1) 
0.890710533

$$$$
