
     RDKit          3D

 35 36  0  0  1  0  0  0  0  0999 V2000
   37.1710   26.2110   35.0890 C   0  0  0  0  0  0  0  0  0  0  0  0
   36.3070   29.4100   32.4780 C   0  0  0  0  0  0  0  0  0  0  0  0
   36.9730   28.2970   32.0380 C   0  0  0  0  0  0  0  0  0  0  0  0
   37.2290   27.2710   32.9420 C   0  0  0  0  0  0  0  0  0  0  0  0
   36.8150   27.3820   34.2570 C   0  0  0  0  0  0  0  0  0  0  0  0
   36.1470   28.4920   34.7040 C   0  0  0  0  0  0  0  0  0  0  0  0
   35.8860   29.5200   33.8170 C   0  0  0  0  0  0  0  0  0  0  0  0
   35.9690   30.6910   31.3370 S   0  0  0  0  0  0  0  0  0  0  0  0
   36.3680   30.1830   29.9450 O   0  0  0  0  0  0  0  0  0  0  0  0
   36.7830   31.9060   31.6350 O   0  0  0  0  0  0  0  0  0  0  0  0
   34.2350   30.9400   31.2560 C   0  0  0  0  0  0  0  0  0  0  0  0
   38.6240   25.8430   35.0080 C   0  0  2  0  0  0  0  0  0  0  0  0
   40.4850   23.0370   36.4520 C   0  0  0  0  0  0  0  0  0  0  0  0
   39.7420   22.7120   37.6220 C   0  0  0  0  0  0  0  0  0  0  0  0
   38.5970   23.4750   37.9020 C   0  0  0  0  0  0  0  0  0  0  0  0
   38.2590   24.4880   37.0320 N   0  0  0  0  0  0  0  0  0  0  0  0
   38.9850   24.7610   35.9400 C   0  0  0  0  0  0  0  0  0  0  0  0
   40.0940   24.0400   35.6490 N   0  0  0  0  0  0  0  0  0  0  0  0
   39.4420   27.0750   35.3780 C   0  0  0  0  0  0  0  0  0  0  0  0
   36.9271   26.4404   36.1368 H   0  0  0  0  0  0  0  0  0  0  0  0
   36.5968   25.3541   34.7070 H   0  0  0  0  0  0  0  0  0  0  0  0
   37.2990   28.2160   30.9906 H   0  0  0  0  0  0  0  0  0  0  0  0
   37.7626   26.3683   32.6098 H   0  0  0  0  0  0  0  0  0  0  0  0
   35.8233   28.5640   35.7528 H   0  0  0  0  0  0  0  0  0  0  0  0
   35.3518   30.4198   34.1560 H   0  0  0  0  0  0  0  0  0  0  0  0
   33.8250   30.9989   32.2750 H   0  0  0  0  0  0  0  0  0  0  0  0
   34.0238   31.8777   30.7211 H   0  0  0  0  0  0  0  0  0  0  0  0
   33.7685   30.0996   30.7211 H   0  0  0  0  0  0  0  0  0  0  0  0
   38.8289   25.4924   33.9857 H   0  0  0  0  0  0  0  0  0  0  0  0
   41.3884   22.4609   36.2031 H   0  0  0  0  0  0  0  0  0  0  0  0
   40.0543   21.8910   38.2842 H   0  0  0  0  0  0  0  0  0  0  0  0
   37.9858   23.2691   38.7931 H   0  0  0  0  0  0  0  0  0  0  0  0
   39.4995   27.1616   36.4731 H   0  0  0  0  0  0  0  0  0  0  0  0
   40.4566   26.9794   34.9640 H   0  0  0  0  0  0  0  0  0  0  0  0
   38.9601   27.9730   34.9640 H   0  0  0  0  0  0  0  0  0  0  0  0
  2  7  2  0
  3  2  1  0
  3  4  2  0
  4  5  1  0
  5  6  2  0
  5  1  1  0
  7  6  1  0
  8 10  2  0
  8  2  1  0
  9  8  2  0
 11  8  1  0
 12  1  1  0
 12 19  1  0
 12 17  1  0
 13 14  2  0
 14 15  1  0
 16 15  2  0
 17 16  1  0
 18 17  2  0
 18 13  1  0
  1 20  1  0
  1 21  1  0
  3 22  1  0
  4 23  1  0
  6 24  1  0
  7 25  1  0
 11 26  1  0
 11 27  1  0
 11 28  1  0
 12 29  1  6
 13 30  1  0
 14 31  1  0
 15 32  1  0
 19 33  1  0
 19 34  1  0
 19 35  1  0
M  ISO  8  20   8  21   8  22  14  23  14  24  14  25  14  26   8  27   8
M  ISO  8  28   8  29   8  30  14  31  14  32  14  33   8  34   8  35   8
M  END
>  <minimizedAffinity>  (1) 
-4.63764429

>  <minimizedRMSD>  (1) 
1.2117455

$$$$
