
     RDKit          3D

 32 34  0  0  0  0  0  0  0  0999 V2000
   37.9170   22.7340   34.7010 C   0  0  0  0  0  0  0  0  0  0  0  0
   37.1030   21.6290   34.4530 C   0  0  0  0  0  0  0  0  0  0  0  0
   36.8150   21.5970   33.0950 C   0  0  0  0  0  0  0  0  0  0  0  0
   37.4710   22.6950   32.5640 N   0  0  0  0  0  0  0  0  0  0  0  0
   38.1110   23.3490   33.5140 N   0  0  0  0  0  0  0  0  0  0  0  0
   39.9360   22.7190   37.7490 C   0  0  0  0  0  0  0  0  0  0  0  0
   39.0730   23.3470   38.6810 C   0  0  0  0  0  0  0  0  0  0  0  0
   37.8220   23.7570   38.2380 C   0  0  0  0  0  0  0  0  0  0  0  0
   37.4810   23.5410   36.9370 N   0  0  0  0  0  0  0  0  0  0  0  0
   38.3270   22.9400   36.0720 C   0  0  0  0  0  0  0  0  0  0  0  0
   39.5380   22.5340   36.4700 N   0  0  0  0  0  0  0  0  0  0  0  0
   37.4520   23.0650   31.1570 C   0  0  0  0  0  0  0  0  0  0  0  0
   37.1990   24.4820   31.0170 N   0  0  0  0  0  0  0  0  0  0  0  0
   38.1280   25.4260   30.7870 C   0  0  0  0  0  0  0  0  0  0  0  0
   37.8080   26.7680   30.6650 C   0  0  0  0  0  0  0  0  0  0  0  0
   36.5050   27.1840   30.7780 C   0  0  0  0  0  0  0  0  0  0  0  0
   36.1530   28.5420   30.6590 N   0  0  0  0  0  0  0  0  0  0  0  0
   35.5900   26.2350   31.0070 N   0  0  0  0  0  0  0  0  0  0  0  0
   35.9340   24.9360   31.1210 C   0  0  0  0  0  0  0  0  0  0  0  0
   34.9500   24.1690   31.3360 O   0  0  0  0  0  0  0  0  0  0  0  0
   39.0780   27.9620   30.3620 S   0  0  0  0  0  0  0  0  0  0  0  0
   36.7499   20.9070   35.2040 H   0  0  0  0  0  0  0  0  0  0  0  0
   36.1998   20.8600   32.5580 H   0  0  0  0  0  0  0  0  0  0  0  0
   40.9332   22.3808   38.0670 H   0  0  0  0  0  0  0  0  0  0  0  0
   39.3844   23.5051   39.7241 H   0  0  0  0  0  0  0  0  0  0  0  0
   37.1183   24.2480   38.9263 H   0  0  0  0  0  0  0  0  0  0  0  0
   38.4250   22.8231   30.7044 H   0  0  0  0  0  0  0  0  0  0  0  0
   36.6524   22.5056   30.6493 H   0  0  0  0  0  0  0  0  0  0  0  0
   39.1808   25.1215   30.6922 H   0  0  0  0  0  0  0  0  0  0  0  0
   35.1676   28.8283   30.7479 H   0  0  0  0  0  0  0  0  0  0  0  0
   36.8809   29.2492   30.4831 H   0  0  0  0  0  0  0  0  0  0  0  0
   39.5670   28.4217   31.5564 H   0  0  0  0  0  0  0  0  0  0  0  0
  1 10  1  0
  2  1  1  0
  3  2  2  0
  4  3  1  0
  4  5  1  0
  5  1  2  0
  6  7  2  0
  8  7  1  0
  9  8  2  0
 10 11  2  0
 10  9  1  0
 11  6  1  0
 12  4  1  0
 13 19  1  0
 13 12  1  0
 14 13  1  0
 15 16  1  0
 15 14  2  0
 16 18  2  0
 17 16  1  0
 18 19  1  0
 19 20  2  0
 21 15  1  0
  2 22  1  0
  3 23  1  0
  6 24  1  0
  7 25  1  0
  8 26  1  0
 12 27  1  0
 12 28  1  0
 14 29  1  0
 17 30  1  0
 17 31  1  0
 21 32  1  0
M  ISO  8  22  14  23  14  24  14  25  14  26  14  27   8  28   8  29  14
M  ISO  1  32  11
M  END
>  <minimizedAffinity>  (1) 
-5.17979765

>  <minimizedRMSD>  (1) 
0.143142819

$$$$
