
     RDKit          3D

 29 30  0  0  0  0  0  0  0  0999 V2000
   39.5440   22.8070   37.5910 C   0  0  0  0  0  0  0  0  0  0  0  0
   38.8090   23.4030   38.6210 C   0  0  0  0  0  0  0  0  0  0  0  0
   37.9460   24.4470   38.2870 C   0  0  0  0  0  0  0  0  0  0  0  0
   37.8490   24.8440   36.9950 N   0  0  0  0  0  0  0  0  0  0  0  0
   38.5790   24.2420   36.0110 C   0  0  0  0  0  0  0  0  0  0  0  0
   39.4120   23.2340   36.3390 N   0  0  0  0  0  0  0  0  0  0  0  0
   38.4650   24.6720   34.6590 N   0  0  0  0  0  0  0  0  0  0  0  0
   39.1970   24.1020   33.5310 C   0  0  0  0  0  0  0  0  0  0  0  0
   38.6820   24.8370   32.3300 C   0  0  0  0  0  0  0  0  0  0  0  0
   37.2700   25.2240   32.7870 C   0  0  0  0  0  0  0  0  0  0  0  0
   37.6070   25.7410   34.1890 C   0  0  0  0  0  0  0  0  0  0  0  0
   40.4270   21.7450   37.9050 N   0  0  0  0  0  0  0  0  0  0  0  0
   41.7070   21.5520   37.2950 C   0  0  0  0  0  0  0  0  0  0  0  0
   42.2300   22.5900   36.7210 N   0  0  0  0  0  0  0  0  0  0  0  0
   42.3480   20.2780   37.3310 N   0  0  0  0  0  0  0  0  0  0  0  0
   43.1800   22.4410   36.2900 H   0  0  0  0  0  0  0  0  0  0  0  0
   38.9083   23.0595   39.6613 H   0  0  0  0  0  0  0  0  0  0  0  0
   37.3492   24.9438   39.0661 H   0  0  0  0  0  0  0  0  0  0  0  0
   40.2786   24.2632   33.6497 H   0  0  0  0  0  0  0  0  0  0  0  0
   39.0503   23.0150   33.4472 H   0  0  0  0  0  0  0  0  0  0  0  0
   38.6527   24.1865   31.4434 H   0  0  0  0  0  0  0  0  0  0  0  0
   39.3045   25.6921   32.0278 H   0  0  0  0  0  0  0  0  0  0  0  0
   36.8312   26.0081   32.1524 H   0  0  0  0  0  0  0  0  0  0  0  0
   36.5216   24.4189   32.7462 H   0  0  0  0  0  0  0  0  0  0  0  0
   38.1389   26.7031   34.1512 H   0  0  0  0  0  0  0  0  0  0  0  0
   36.7344   25.9455   34.8267 H   0  0  0  0  0  0  0  0  0  0  0  0
   40.1279   21.0665   38.6199 H   0  0  0  0  0  0  0  0  0  0  0  0
   43.2694   20.1524   36.8881 H   0  0  0  0  0  0  0  0  0  0  0  0
   41.8894   19.4838   37.7999 H   0  0  0  0  0  0  0  0  0  0  0  0
  1 12  1  0
  1  2  2  0
  3  2  1  0
  4  3  2  0
  5  6  2  0
  5  4  1  0
  6  1  1  0
  7  5  1  0
  8  7  1  0
  9 10  1  0
  9  8  1  0
 10 11  1  0
 11  7  1  0
 13 15  1  0
 13 12  1  0
 14 13  2  0
 16 14  1  0
  2 17  1  0
  3 18  1  0
  8 19  1  0
  8 20  1  0
  9 21  1  0
  9 22  1  0
 10 23  1  0
 10 24  1  0
 11 25  1  0
 11 26  1  0
 12 27  1  0
 15 28  1  0
 15 29  1  0
M  ISO  8  17  14  18  14  19  13  20  13  21  13  22  13  23  13  24  13
M  ISO  2  25  13  26  13
M  END
>  <minimizedAffinity>  (1) 
-5.0876441

>  <minimizedRMSD>  (1) 
0.31412673

$$$$
