
     RDKit          3D

 24 25  0  0  0  0  0  0  0  0999 V2000
   39.4890   22.7890   37.6640 C   0  0  0  0  0  0  0  0  0  0  0  0
   38.8810   23.4580   38.7360 C   0  0  0  0  0  0  0  0  0  0  0  0
   37.9690   24.4760   38.4360 C   0  0  0  0  0  0  0  0  0  0  0  0
   37.7270   24.7580   37.1360 N   0  0  0  0  0  0  0  0  0  0  0  0
   38.3270   24.1000   36.1280 C   0  0  0  0  0  0  0  0  0  0  0  0
   39.2090   23.1130   36.3950 N   0  0  0  0  0  0  0  0  0  0  0  0
   38.0970   24.3670   34.7520 N   0  0  0  0  0  0  0  0  0  0  0  0
   37.6740   25.5840   34.4550 N   0  0  0  0  0  0  0  0  0  0  0  0
   37.4940   25.7160   33.1320 C   0  0  0  0  0  0  0  0  0  0  0  0
   37.8340   24.4920   32.6020 C   0  0  0  0  0  0  0  0  0  0  0  0
   38.2150   23.6310   33.6100 C   0  0  0  0  0  0  0  0  0  0  0  0
   40.4230   21.7450   37.9470 N   0  0  0  0  0  0  0  0  0  0  0  0
   41.6610   21.5860   37.2610 C   0  0  0  0  0  0  0  0  0  0  0  0
   42.1120   22.6110   36.6020 N   0  0  0  0  0  0  0  0  0  0  0  0
   42.3580   20.3400   37.3100 N   0  0  0  0  0  0  0  0  0  0  0  0
   43.0370   22.4880   36.1030 H   0  0  0  0  0  0  0  0  0  0  0  0
   39.1132   23.1915   39.7777 H   0  0  0  0  0  0  0  0  0  0  0  0
   37.4617   25.0328   39.2376 H   0  0  0  0  0  0  0  0  0  0  0  0
   37.1496   26.6084   32.5889 H   0  0  0  0  0  0  0  0  0  0  0  0
   37.8060   24.2379   31.5321 H   0  0  0  0  0  0  0  0  0  0  0  0
   38.5411   22.5848   33.5142 H   0  0  0  0  0  0  0  0  0  0  0  0
   40.1877   21.0699   38.6884 H   0  0  0  0  0  0  0  0  0  0  0  0
   43.2529   20.2306   36.8120 H   0  0  0  0  0  0  0  0  0  0  0  0
   41.9656   19.5510   37.8433 H   0  0  0  0  0  0  0  0  0  0  0  0
  1 12  1  0
  1  2  2  0
  3  2  1  0
  4  3  2  0
  5  6  2  0
  5  4  1  0
  6  1  1  0
  7  5  1  0
  8  7  1  0
  9  8  2  0
 10  9  1  0
 10 11  2  0
 11  7  1  0
 13 15  1  0
 13 12  1  0
 14 13  2  0
 16 14  1  0
  2 17  1  0
  3 18  1  0
  9 19  1  0
 10 20  1  0
 11 21  1  0
 12 22  1  0
 15 23  1  0
 15 24  1  0
M  ISO  5  17  14  18  14  19  14  20  14  21  14
M  END
>  <minimizedAffinity>  (1) 
-5.06164217

>  <minimizedRMSD>  (1) 
0.558833301

$$$$
