
     RDKit          3D

 29 29  0  0  0  0  0  0  0  0999 V2000
   39.6630   22.8360   37.6280 C   0  0  0  0  0  0  0  0  0  0  0  0
   38.7220   23.2950   38.5570 C   0  0  0  0  0  0  0  0  0  0  0  0
   37.9420   24.3990   38.1690 C   0  0  0  0  0  0  0  0  0  0  0  0
   38.1180   24.9680   36.9440 N   0  0  0  0  0  0  0  0  0  0  0  0
   39.0440   24.4850   36.0840 C   0  0  0  0  0  0  0  0  0  0  0  0
   39.7990   23.4280   36.4410 N   0  0  0  0  0  0  0  0  0  0  0  0
   40.4720   21.7250   37.9780 N   0  0  0  0  0  0  0  0  0  0  0  0
   41.7770   21.4830   37.4610 C   0  0  0  0  0  0  0  0  0  0  0  0
   42.3860   22.4930   36.9300 N   0  0  0  0  0  0  0  0  0  0  0  0
   42.3640   20.1830   37.5370 N   0  0  0  0  0  0  0  0  0  0  0  0
   43.3650   22.3230   36.5800 H   0  0  0  0  0  0  0  0  0  0  0  0
   39.1570   25.1700   34.7850 C   0  0  0  0  0  0  0  0  0  0  0  0
   37.9150   25.0410   33.9300 C   0  0  0  0  0  0  0  0  0  0  0  0
   39.3520   26.6540   35.1290 C   0  0  0  0  0  0  0  0  0  0  0  0
   40.3430   24.6470   34.0370 C   0  0  0  0  0  0  0  0  0  0  0  0
   38.5989   22.8168   39.5399 H   0  0  0  0  0  0  0  0  0  0  0  0
   37.1864   24.8048   38.8578 H   0  0  0  0  0  0  0  0  0  0  0  0
   40.0897   21.0466   38.6522 H   0  0  0  0  0  0  0  0  0  0  0  0
   43.3085   20.0215   37.1593 H   0  0  0  0  0  0  0  0  0  0  0  0
   41.8427   19.4071   37.9695 H   0  0  0  0  0  0  0  0  0  0  0  0
   37.0313   24.9492   34.5786 H   0  0  0  0  0  0  0  0  0  0  0  0
   37.8127   25.9333   33.2950 H   0  0  0  0  0  0  0  0  0  0  0  0
   37.9983   24.1467   33.2950 H   0  0  0  0  0  0  0  0  0  0  0  0
   39.3683   26.7780   36.2219 H   0  0  0  0  0  0  0  0  0  0  0  0
   40.3042   27.0065   34.7058 H   0  0  0  0  0  0  0  0  0  0  0  0
   38.5232   27.2405   34.7058 H   0  0  0  0  0  0  0  0  0  0  0  0
   41.1079   24.3097   34.7520 H   0  0  0  0  0  0  0  0  0  0  0  0
   40.0340   23.8016   33.4046 H   0  0  0  0  0  0  0  0  0  0  0  0
   40.7588   25.4452   33.4046 H   0  0  0  0  0  0  0  0  0  0  0  0
  1  7  1  0
  1  2  2  0
  3  2  1  0
  4  3  2  0
  5  6  2  0
  5  4  1  0
  6  1  1  0
  8 10  1  0
  8  7  1  0
  9  8  2  0
 11  9  1  0
 12 14  1  0
 12  5  1  0
 13 12  1  0
 15 12  1  0
  2 16  1  0
  3 17  1  0
  7 18  1  0
 10 19  1  0
 10 20  1  0
 13 21  1  0
 13 22  1  0
 13 23  1  0
 14 24  1  0
 14 25  1  0
 14 26  1  0
 15 27  1  0
 15 28  1  0
 15 29  1  0
M  ISO  8  16  14  17  14  21   8  22   8  23   8  24   8  25   8  26   8
M  ISO  3  27   8  28   8  29   8
M  END
>  <minimizedAffinity>  (1) 
-4.78635693

>  <minimizedRMSD>  (1) 
0.611197889

$$$$
