
     RDKit          3D

 25 26  0  0  0  0  0  0  0  0999 V2000
   39.4830   22.8290   37.6860 C   0  0  0  0  0  0  0  0  0  0  0  0
   38.8740   23.4560   38.7810 C   0  0  0  0  0  0  0  0  0  0  0  0
   37.9900   24.5120   38.5240 C   0  0  0  0  0  0  0  0  0  0  0  0
   37.7620   24.8830   37.2250 N   0  0  0  0  0  0  0  0  0  0  0  0
   38.3750   24.2450   36.2140 C   0  0  0  0  0  0  0  0  0  0  0  0
   39.2290   23.2260   36.4360 N   0  0  0  0  0  0  0  0  0  0  0  0
   40.3840   21.7540   37.9190 N   0  0  0  0  0  0  0  0  0  0  0  0
   41.6420   21.6090   37.2570 C   0  0  0  0  0  0  0  0  0  0  0  0
   42.1120   22.6460   36.6500 N   0  0  0  0  0  0  0  0  0  0  0  0
   42.3340   20.3730   37.2710 N   0  0  0  0  0  0  0  0  0  0  0  0
   43.0480   22.5340   36.1600 H   0  0  0  0  0  0  0  0  0  0  0  0
   38.1110   24.6630   34.8430 C   0  0  0  0  0  0  0  0  0  0  0  0
   37.6480   25.9340   34.5670 C   0  0  0  0  0  0  0  0  0  0  0  0
   37.3950   26.3330   33.2530 C   0  0  0  0  0  0  0  0  0  0  0  0
   37.6130   25.4480   32.2440 N   0  0  0  0  0  0  0  0  0  0  0  0
   38.0590   24.2330   32.5460 C   0  0  0  0  0  0  0  0  0  0  0  0
   38.3160   23.8120   33.8190 N   0  0  0  0  0  0  0  0  0  0  0  0
   39.0834   23.1293   39.8103 H   0  0  0  0  0  0  0  0  0  0  0  0
   37.4874   25.0345   39.3513 H   0  0  0  0  0  0  0  0  0  0  0  0
   40.1135   21.0364   38.6066 H   0  0  0  0  0  0  0  0  0  0  0  0
   43.2400   20.2845   36.7890 H   0  0  0  0  0  0  0  0  0  0  0  0
   41.9312   19.5628   37.7631 H   0  0  0  0  0  0  0  0  0  0  0  0
   37.4763   26.6409   35.3921 H   0  0  0  0  0  0  0  0  0  0  0  0
   37.0255   27.3465   33.0377 H   0  0  0  0  0  0  0  0  0  0  0  0
   38.2312   23.5250   31.7219 H   0  0  0  0  0  0  0  0  0  0  0  0
  1  7  1  0
  1  2  2  0
  3  2  1  0
  4  3  2  0
  5  6  2  0
  5  4  1  0
  6  1  1  0
  8 10  1  0
  8  7  1  0
  9  8  2  0
 11  9  1  0
 12  5  1  0
 13 12  2  0
 14 13  1  0
 15 16  1  0
 15 14  2  0
 16 17  2  0
 17 12  1  0
  2 18  1  0
  3 19  1  0
  7 20  1  0
 10 21  1  0
 10 22  1  0
 13 23  1  0
 14 24  1  0
 16 25  1  0
M  ISO  5  18  14  19  14  23  14  24  14  25  14
M  END
>  <minimizedAffinity>  (1) 
-4.9497776

>  <minimizedRMSD>  (1) 
0.649945378

$$$$
