
     RDKit          3D

 19 19  0  0  0  0  0  0  0  0999 V2000
   39.5250   22.7470   37.6310 C   0  0  0  0  0  0  0  0  0  0  0  0
   38.8010   23.4660   38.5880 C   0  0  0  0  0  0  0  0  0  0  0  0
   37.9190   24.4510   38.1380 C   0  0  0  0  0  0  0  0  0  0  0  0
   37.7890   24.6800   36.8140 N   0  0  0  0  0  0  0  0  0  0  0  0
   38.5070   23.9630   35.9050 C   0  0  0  0  0  0  0  0  0  0  0  0
   39.3690   23.0030   36.3200 N   0  0  0  0  0  0  0  0  0  0  0  0
   38.4470   24.1210   34.4990 N   0  0  0  0  0  0  0  0  0  0  0  0
   40.4300   21.7400   38.0510 N   0  0  0  0  0  0  0  0  0  0  0  0
   41.7090   21.5200   37.4540 C   0  0  0  0  0  0  0  0  0  0  0  0
   42.2050   22.4720   36.7270 N   0  0  0  0  0  0  0  0  0  0  0  0
   42.3970   20.2910   37.6640 N   0  0  0  0  0  0  0  0  0  0  0  0
   43.1410   22.2830   36.2880 H   0  0  0  0  0  0  0  0  0  0  0  0
   38.9226   23.2618   39.6620 H   0  0  0  0  0  0  0  0  0  0  0  0
   37.3323   25.0381   38.8599 H   0  0  0  0  0  0  0  0  0  0  0  0
   37.8202   24.8265   34.0863 H   0  0  0  0  0  0  0  0  0  0  0  0
   39.0302   23.5305   33.8890 H   0  0  0  0  0  0  0  0  0  0  0  0
   40.1488   21.1311   38.8327 H   0  0  0  0  0  0  0  0  0  0  0  0
   43.3190   20.1365   37.2316 H   0  0  0  0  0  0  0  0  0  0  0  0
   41.9726   19.5565   38.2482 H   0  0  0  0  0  0  0  0  0  0  0  0
  1  8  1  0
  1  2  2  0
  3  2  1  0
  4  3  2  0
  5  6  2  0
  5  4  1  0
  6  1  1  0
  7  5  1  0
  9 11  1  0
  9  8  1  0
 10  9  2  0
 12 10  1  0
  2 13  1  0
  3 14  1  0
  7 15  1  0
  7 16  1  0
  8 17  1  0
 11 18  1  0
 11 19  1  0
M  ISO  2  13  14  14  14
M  END
>  <minimizedAffinity>  (1) 
-4.27221584

>  <minimizedRMSD>  (1) 
0.160198987

$$$$
