
     RDKit          3D

 22 22  0  0  0  0  0  0  0  0999 V2000
   40.2090   22.7090   37.5950 C   0  0  0  0  0  0  0  0  0  0  0  0
   39.0670   23.4730   37.3070 C   0  0  0  0  0  0  0  0  0  0  0  0
   39.1030   24.3140   36.2110 C   0  0  0  0  0  0  0  0  0  0  0  0
   40.2530   24.3550   35.4700 N   0  0  0  0  0  0  0  0  0  0  0  0
   41.3360   23.6060   35.7750 C   0  0  0  0  0  0  0  0  0  0  0  0
   41.2940   22.7920   36.8390 N   0  0  0  0  0  0  0  0  0  0  0  0
   37.8090   23.4160   38.1070 C   0  0  0  0  0  0  0  0  0  0  0  0
   38.0610   22.5300   39.1710 F   0  0  0  0  0  0  0  0  0  0  0  0
   36.7610   22.8980   37.4030 F   0  0  0  0  0  0  0  0  0  0  0  0
   37.5310   24.6200   38.7190 F   0  0  0  0  0  0  0  0  0  0  0  0
   42.5420   23.7350   34.9000 C   0  0  0  0  0  0  0  0  0  0  0  0
   42.1900   23.9830   33.5990 F   0  0  0  0  0  0  0  0  0  0  0  0
   43.2730   24.8480   35.3090 F   0  0  0  0  0  0  0  0  0  0  0  0
   43.3180   22.5990   34.9280 F   0  0  0  0  0  0  0  0  0  0  0  0
   38.0490   25.2340   35.7300 C   0  0  0  0  0  0  0  0  0  0  0  0
   38.3890   26.6480   36.1130 C   0  0  0  0  0  0  0  0  0  0  0  0
   40.2030   22.0312   38.4614 H   0  0  0  0  0  0  0  0  0  0  0  0
   37.0865   24.9548   36.1836 H   0  0  0  0  0  0  0  0  0  0  0  0
   37.9788   25.1627   34.6346 H   0  0  0  0  0  0  0  0  0  0  0  0
   38.4101   26.7359   37.2093 H   0  0  0  0  0  0  0  0  0  0  0  0
   39.3760   26.9112   35.7049 H   0  0  0  0  0  0  0  0  0  0  0  0
   37.6295   27.3311   35.7049 H   0  0  0  0  0  0  0  0  0  0  0  0
  2  1  2  0
  2  7  1  0
  3  2  1  0
  4  5  1  0
  4  3  2  0
  5  6  2  0
  6  1  1  0
  7 10  1  0
  7  8  1  0
  9  7  1  0
 11 14  1  0
 11 13  1  0
 11  5  1  0
 12 11  1  0
 15 16  1  0
 15  3  1  0
  1 17  1  0
 15 18  1  0
 15 19  1  0
 16 20  1  0
 16 21  1  0
 16 22  1  0
M  ISO  6  17  14  18   8  19   8  20   8  21   8  22   8
M  END
>  <minimizedAffinity>  (1) 
-4.12728167

>  <minimizedRMSD>  (1) 
1.8759954

$$$$
