
     RDKit          3D

 19 19  0  0  0  0  0  0  0  0999 V2000
   40.5280   22.3900   37.7630 C   0  0  0  0  0  0  0  0  0  0  0  0
   39.3740   23.1150   37.4390 C   0  0  0  0  0  0  0  0  0  0  0  0
   39.0790   23.2610   36.0890 C   0  0  0  0  0  0  0  0  0  0  0  0
   39.9190   22.6980   35.1730 N   0  0  0  0  0  0  0  0  0  0  0  0
   41.0150   22.0110   35.5470 C   0  0  0  0  0  0  0  0  0  0  0  0
   41.3050   21.8660   36.8380 N   0  0  0  0  0  0  0  0  0  0  0  0
   38.4560   23.7310   38.4450 C   0  0  0  0  0  0  0  0  0  0  0  0
   39.1880   23.8210   39.6350 F   0  0  0  0  0  0  0  0  0  0  0  0
   37.3580   22.9390   38.6770 F   0  0  0  0  0  0  0  0  0  0  0  0
   38.1310   25.0330   38.1010 F   0  0  0  0  0  0  0  0  0  0  0  0
   41.8630   21.4380   34.4490 C   0  0  0  0  0  0  0  0  0  0  0  0
   41.1070   21.0290   33.3770 F   0  0  0  0  0  0  0  0  0  0  0  0
   42.7130   22.4260   33.9660 F   0  0  0  0  0  0  0  0  0  0  0  0
   42.5680   20.3240   34.8890 F   0  0  0  0  0  0  0  0  0  0  0  0
   37.8620   24.0260   35.7050 C   0  0  0  0  0  0  0  0  0  0  0  0
   40.7931   22.2544   38.8219 H   0  0  0  0  0  0  0  0  0  0  0  0
   37.3355   24.3570   36.6123 H   0  0  0  0  0  0  0  0  0  0  0  0
   38.1534   24.9037   35.1094 H   0  0  0  0  0  0  0  0  0  0  0  0
   37.1974   23.3829   35.1094 H   0  0  0  0  0  0  0  0  0  0  0  0
  2  1  2  0
  2  7  1  0
  3  2  1  0
  4  5  1  0
  4  3  2  0
  5  6  2  0
  6  1  1  0
  7  9  1  0
  7  8  1  0
 10  7  1  0
 11 14  1  0
 11  5  1  0
 12 11  1  0
 13 11  1  0
 15  3  1  0
  1 16  1  0
 15 17  1  0
 15 18  1  0
 15 19  1  0
M  ISO  4  16  14  17   8  18   8  19   8
M  END
>  <minimizedAffinity>  (1) 
-4.02826166

>  <minimizedRMSD>  (1) 
0.274360985

$$$$
