
     RDKit          3D

 34 35  0  0  0  0  0  0  0  0999 V2000
   39.7500   22.5840   36.7420 C   0  0  0  0  0  0  0  0  0  0  0  0
   39.0110   23.7810   36.7670 C   0  0  0  0  0  0  0  0  0  0  0  0
   39.3460   24.7370   35.8320 C   0  0  0  0  0  0  0  0  0  0  0  0
   40.3530   24.4760   34.9550 N   0  0  0  0  0  0  0  0  0  0  0  0
   41.0320   23.3180   34.9670 C   0  0  0  0  0  0  0  0  0  0  0  0
   40.7130   22.4010   35.8600 N   0  0  0  0  0  0  0  0  0  0  0  0
   37.9010   24.0780   37.7070 C   0  0  0  0  0  0  0  0  0  0  0  0
   37.9230   23.0480   38.6620 F   0  0  0  0  0  0  0  0  0  0  0  0
   36.6800   24.0040   37.1010 F   0  0  0  0  0  0  0  0  0  0  0  0
   38.1220   25.2300   38.4120 F   0  0  0  0  0  0  0  0  0  0  0  0
   42.1150   23.1130   33.9540 C   0  0  0  0  0  0  0  0  0  0  0  0
   41.8180   23.8160   32.7750 F   0  0  0  0  0  0  0  0  0  0  0  0
   43.2710   23.7020   34.4170 F   0  0  0  0  0  0  0  0  0  0  0  0
   42.2540   21.7890   33.6030 F   0  0  0  0  0  0  0  0  0  0  0  0
   38.7110   26.0130   35.6360 C   0  0  0  0  0  0  0  0  0  0  0  0
   38.9800   27.1870   36.0530 O   0  0  0  0  0  0  0  0  0  0  0  0
   37.4870   26.0980   34.7840 C   0  0  0  0  0  0  0  0  0  0  0  0
   37.8770   25.5150   33.4340 C   0  0  0  0  0  0  0  0  0  0  0  0
   38.5660   26.5180   32.5550 C   0  0  0  0  0  0  0  0  0  0  0  0
   37.7100   27.7430   32.3020 C   0  0  0  0  0  0  0  0  0  0  0  0
   36.4760   27.6560   33.2010 C   0  0  0  0  0  0  0  0  0  0  0  0
   36.9870   27.5360   34.6150 C   0  0  0  0  0  0  0  0  0  0  0  0
   39.5213   21.7900   37.4681 H   0  0  0  0  0  0  0  0  0  0  0  0
   36.6597   25.5475   35.2558 H   0  0  0  0  0  0  0  0  0  0  0  0
   38.5553   24.6649   33.5990 H   0  0  0  0  0  0  0  0  0  0  0  0
   36.9538   25.2011   32.9249 H   0  0  0  0  0  0  0  0  0  0  0  0
   39.5002   26.8335   33.0426 H   0  0  0  0  0  0  0  0  0  0  0  0
   38.7623   26.0377   31.5851 H   0  0  0  0  0  0  0  0  0  0  0  0
   38.2812   28.6524   32.5403 H   0  0  0  0  0  0  0  0  0  0  0  0
   37.4085   27.7848   31.2450 H   0  0  0  0  0  0  0  0  0  0  0  0
   35.8625   28.5627   33.0938 H   0  0  0  0  0  0  0  0  0  0  0  0
   35.8453   26.7963   32.9305 H   0  0  0  0  0  0  0  0  0  0  0  0
   37.8110   28.2455   34.7814 H   0  0  0  0  0  0  0  0  0  0  0  0
   36.1944   27.7665   35.3421 H   0  0  0  0  0  0  0  0  0  0  0  0
  1  2  2  0
  2  7  1  0
  3  2  1  0
  4  5  1  0
  4  3  2  0
  5  6  2  0
  6  1  1  0
  7 10  1  0
  7  8  1  0
  9  7  1  0
 11 13  1  0
 11  5  1  0
 12 11  1  0
 14 11  1  0
 15  3  1  0
 15 16  2  0
 17 15  1  0
 18 17  1  0
 19 18  1  0
 20 19  1  0
 20 21  1  0
 21 22  1  0
 22 17  1  0
  1 23  1  0
 17 24  1  0
 18 25  1  0
 18 26  1  0
 19 27  1  0
 19 28  1  0
 20 29  1  0
 20 30  1  0
 21 31  1  0
 21 32  1  0
 22 33  1  0
 22 34  1  0
M  ISO  8  23  14  24  13  25  13  26  13  27  13  28  13  29  13  30  13
M  ISO  4  31  13  32  13  33  13  34  13
M  END
>  <minimizedAffinity>  (1) 
-4.850245

>  <minimizedRMSD>  (1) 
3.17987251

$$$$
