
     RDKit          3D

 25 26  0  0  0  0  0  0  0  0999 V2000
   40.6020   22.4400   37.8070 C   0  0  0  0  0  0  0  0  0  0  0  0
   39.4760   22.9920   37.1470 C   0  0  0  0  0  0  0  0  0  0  0  0
   39.4080   22.8300   35.7820 C   0  0  0  0  0  0  0  0  0  0  0  0
   40.3980   22.1660   35.1380 N   0  0  0  0  0  0  0  0  0  0  0  0
   41.4580   21.6520   35.8020 C   0  0  0  0  0  0  0  0  0  0  0  0
   41.5310   21.8020   37.1140 N   0  0  0  0  0  0  0  0  0  0  0  0
   38.3720   23.7110   37.8340 C   0  0  0  0  0  0  0  0  0  0  0  0
   38.7600   23.8390   39.1680 F   0  0  0  0  0  0  0  0  0  0  0  0
   37.2060   22.9830   37.8440 F   0  0  0  0  0  0  0  0  0  0  0  0
   38.2270   24.9850   37.3590 F   0  0  0  0  0  0  0  0  0  0  0  0
   42.5040   20.9210   35.0190 C   0  0  0  0  0  0  0  0  0  0  0  0
   41.9700   20.4680   33.8010 F   0  0  0  0  0  0  0  0  0  0  0  0
   43.4860   21.8160   34.6500 F   0  0  0  0  0  0  0  0  0  0  0  0
   42.9710   19.8110   35.6710 F   0  0  0  0  0  0  0  0  0  0  0  0
   38.3630   23.2690   34.9210 C   0  0  0  0  0  0  0  0  0  0  0  0
   38.0310   24.3490   34.3780 O   0  0  0  0  0  0  0  0  0  0  0  0
   37.3440   22.2370   34.4940 C   0  0  0  0  0  0  0  0  0  0  0  0
   36.5380   21.2840   35.1690 C   0  0  0  0  0  0  0  0  0  0  0  0
   35.6840   20.5280   34.4320 C   0  0  0  0  0  0  0  0  0  0  0  0
   35.6250   20.7260   32.9350 C   0  0  0  0  0  0  0  0  0  0  0  0
   36.8440   22.0340   32.6820 S   0  0  0  0  0  0  0  0  0  0  0  0
   40.7038   22.5422   38.8975 H   0  0  0  0  0  0  0  0  0  0  0  0
   36.6032   21.1609   36.2601 H   0  0  0  0  0  0  0  0  0  0  0  0
   35.0420   19.7795   34.9195 H   0  0  0  0  0  0  0  0  0  0  0  0
   35.0011   20.2077   32.1920 H   0  0  0  0  0  0  0  0  0  0  0  0
  2  1  2  0
  2  7  1  0
  3  2  1  0
  4  3  2  0
  4  5  1  0
  5  6  2  0
  6  1  1  0
  7  9  1  0
  7  8  1  0
 10  7  1  0
 11 14  1  0
 11  5  1  0
 12 11  1  0
 13 11  1  0
 15  3  1  0
 16 15  2  0
 17 15  1  0
 17 18  2  0
 19 18  1  0
 20 19  2  0
 21 20  1  0
 21 17  1  0
  1 22  1  0
 18 23  1  0
 19 24  1  0
 20 25  1  0
M  ISO  4  22  14  23  14  24  14  25  14
M  END
>  <minimizedAffinity>  (1) 
-4.75213003

>  <minimizedRMSD>  (1) 
1.51711226

$$$$
