
     RDKit          3D

 26 27  0  0  0  0  0  0  0  0999 V2000
   40.7260   22.3750   37.7990 C   0  0  0  0  0  0  0  0  0  0  0  0
   39.5610   22.9320   37.2260 C   0  0  0  0  0  0  0  0  0  0  0  0
   39.4200   22.7930   35.8650 C   0  0  0  0  0  0  0  0  0  0  0  0
   40.3740   22.1490   35.1580 N   0  0  0  0  0  0  0  0  0  0  0  0
   41.4710   21.6300   35.7370 C   0  0  0  0  0  0  0  0  0  0  0  0
   41.6180   21.7570   37.0440 N   0  0  0  0  0  0  0  0  0  0  0  0
   38.5010   23.6370   37.9840 C   0  0  0  0  0  0  0  0  0  0  0  0
   38.9880   23.7790   39.2900 F   0  0  0  0  0  0  0  0  0  0  0  0
   37.3570   22.8920   38.0920 F   0  0  0  0  0  0  0  0  0  0  0  0
   38.3010   24.9110   37.5240 F   0  0  0  0  0  0  0  0  0  0  0  0
   42.4780   20.9280   34.8820 C   0  0  0  0  0  0  0  0  0  0  0  0
   41.9050   20.5650   33.6550 F   0  0  0  0  0  0  0  0  0  0  0  0
   43.4690   21.8260   34.5370 F   0  0  0  0  0  0  0  0  0  0  0  0
   42.9430   19.7740   35.4500 F   0  0  0  0  0  0  0  0  0  0  0  0
   38.3120   23.2580   35.0680 C   0  0  0  0  0  0  0  0  0  0  0  0
   37.9710   24.3920   34.6170 O   0  0  0  0  0  0  0  0  0  0  0  0
   37.3220   22.2170   34.6570 C   0  0  0  0  0  0  0  0  0  0  0  0
   37.1120   21.8950   33.3170 C   0  0  0  0  0  0  0  0  0  0  0  0
   36.2340   20.9420   32.8460 C   0  0  0  0  0  0  0  0  0  0  0  0
   35.5470   20.3000   33.8190 N   0  0  0  0  0  0  0  0  0  0  0  0
   35.7320   20.5950   35.1230 C   0  0  0  0  0  0  0  0  0  0  0  0
   36.5980   21.5300   35.5430 N   0  0  0  0  0  0  0  0  0  0  0  0
   40.8924   22.4563   38.8833 H   0  0  0  0  0  0  0  0  0  0  0  0
   37.6983   22.4500   32.5698 H   0  0  0  0  0  0  0  0  0  0  0  0
   36.1038   20.7233   31.7758 H   0  0  0  0  0  0  0  0  0  0  0  0
   35.1470   20.0447   35.8746 H   0  0  0  0  0  0  0  0  0  0  0  0
  2  1  2  0
  2  7  1  0
  3  2  1  0
  4  5  1  0
  4  3  2  0
  5  6  2  0
  6  1  1  0
  7  9  1  0
  7  8  1  0
 10  7  1  0
 11 14  1  0
 11  5  1  0
 12 11  1  0
 13 11  1  0
 15  3  1  0
 16 15  2  0
 17 15  1  0
 17 22  1  0
 18 17  2  0
 19 18  1  0
 19 20  2  0
 20 21  1  0
 21 22  2  0
  1 23  1  0
 18 24  1  0
 19 25  1  0
 21 26  1  0
M  ISO  4  23  14  24  14  25  14  26  14
M  END
>  <minimizedAffinity>  (1) 
-4.8207674

>  <minimizedRMSD>  (1) 
1.55710995

$$$$
