
     RDKit          3D

 39 41  0  0  1  0  0  0  0  0999 V2000
   37.1580   26.2130   35.0710 C   0  0  0  0  0  0  0  0  0  0  0  0
   36.3070   29.4180   32.4770 C   0  0  0  0  0  0  0  0  0  0  0  0
   36.9630   28.3060   32.0240 C   0  0  0  0  0  0  0  0  0  0  0  0
   37.2110   27.2780   32.9300 C   0  0  0  0  0  0  0  0  0  0  0  0
   36.8010   27.3890   34.2480 C   0  0  0  0  0  0  0  0  0  0  0  0
   36.1410   28.5060   34.6990 C   0  0  0  0  0  0  0  0  0  0  0  0
   35.8860   29.5370   33.8150 C   0  0  0  0  0  0  0  0  0  0  0  0
   35.9620   30.7080   31.3380 S   0  0  0  0  0  0  0  0  0  0  0  0
   36.3810   30.2100   29.9490 O   0  0  0  0  0  0  0  0  0  0  0  0
   36.7580   31.9290   31.6500 O   0  0  0  0  0  0  0  0  0  0  0  0
   34.2090   30.9350   31.3650 C   0  0  0  0  0  0  0  0  0  0  0  0
   33.5790   31.9400   32.2380 C   0  0  0  0  0  0  0  0  0  0  0  0
   33.7810   32.2880   30.7970 C   0  0  0  0  0  0  0  0  0  0  0  0
   38.6140   25.8550   35.0090 C   0  0  2  0  0  0  0  0  0  0  0  0
   40.4520   23.0410   36.4660 C   0  0  0  0  0  0  0  0  0  0  0  0
   39.7160   22.7270   37.6320 C   0  0  0  0  0  0  0  0  0  0  0  0
   38.5760   23.4970   37.9080 C   0  0  0  0  0  0  0  0  0  0  0  0
   38.2340   24.5100   37.0400 N   0  0  0  0  0  0  0  0  0  0  0  0
   38.9710   24.7710   35.9370 C   0  0  0  0  0  0  0  0  0  0  0  0
   40.0760   24.0440   35.6460 N   0  0  0  0  0  0  0  0  0  0  0  0
   39.4150   27.0940   35.3950 C   0  0  0  0  0  0  0  0  0  0  0  0
   36.8975   26.4292   36.1176 H   0  0  0  0  0  0  0  0  0  0  0  0
   36.5981   25.3560   34.6684 H   0  0  0  0  0  0  0  0  0  0  0  0
   37.2850   28.2264   30.9752 H   0  0  0  0  0  0  0  0  0  0  0  0
   37.7365   26.3711   32.5962 H   0  0  0  0  0  0  0  0  0  0  0  0
   35.8201   28.5787   35.7486 H   0  0  0  0  0  0  0  0  0  0  0  0
   35.3594   30.4415   34.1534 H   0  0  0  0  0  0  0  0  0  0  0  0
   33.9982   29.8663   31.2121 H   0  0  0  0  0  0  0  0  0  0  0  0
   32.5615   31.7688   32.6193 H   0  0  0  0  0  0  0  0  0  0  0  0
   33.8636   32.4157   33.1881 H   0  0  0  0  0  0  0  0  0  0  0  0
   34.5373   33.0321   30.5068 H   0  0  0  0  0  0  0  0  0  0  0  0
   33.1390   32.6283   29.9712 H   0  0  0  0  0  0  0  0  0  0  0  0
   38.8370   25.5088   33.9890 H   0  0  0  0  0  0  0  0  0  0  0  0
   41.3504   22.4548   36.2225 H   0  0  0  0  0  0  0  0  0  0  0  0
   40.0260   21.9087   38.2985 H   0  0  0  0  0  0  0  0  0  0  0  0
   37.9666   23.2952   38.8013 H   0  0  0  0  0  0  0  0  0  0  0  0
   39.4651   27.1714   36.4911 H   0  0  0  0  0  0  0  0  0  0  0  0
   40.4331   27.0145   34.9861 H   0  0  0  0  0  0  0  0  0  0  0  0
   38.9246   27.9897   34.9861 H   0  0  0  0  0  0  0  0  0  0  0  0
  2  7  1  0
  3  2  2  0
  3  4  1  0
  4  5  2  0
  5  6  1  0
  5  1  1  0
  7  6  2  0
  8 11  1  0
  8 10  2  0
  8  2  1  0
  9  8  2  0
 11 12  1  0
 13 11  1  0
 13 12  1  0
 14  1  1  0
 14 21  1  0
 14 19  1  0
 15 16  2  0
 16 17  1  0
 18 17  2  0
 19 18  1  0
 20 19  2  0
 20 15  1  0
  1 22  1  0
  1 23  1  0
  3 24  1  0
  4 25  1  0
  6 26  1  0
  7 27  1  0
 11 28  1  0
 12 29  1  0
 12 30  1  0
 13 31  1  0
 13 32  1  0
 14 33  1  6
 15 34  1  0
 16 35  1  0
 17 36  1  0
 21 37  1  0
 21 38  1  0
 21 39  1  0
M  ISO  8  22   8  23   8  24  14  25  14  26  14  27  14  28  13  29  13
M  ISO  8  30  13  31  13  32  13  33   8  34  14  35  14  36  14  37   8
M  ISO  2  38   8  39   8
M  END
>  <minimizedAffinity>  (1) 
-4.62486124

>  <minimizedRMSD>  (1) 
1.32794845

$$$$
