
     RDKit          3D

 38 40  0  0  1  0  0  0  0  0999 V2000
   39.6110   23.8240   33.9790 C   0  0  0  0  0  0  0  0  0  0  0  0
   38.8110   23.5530   33.0410 O   0  0  0  0  0  0  0  0  0  0  0  0
   40.3540   25.0830   33.6570 C   0  0  2  0  0  0  0  0  0  0  0  0
   41.4210   25.2840   34.7530 C   0  0  0  0  0  0  0  0  0  0  0  0
   42.0190   26.5590   34.2450 C   0  0  0  0  0  0  0  0  0  0  0  0
   40.7930   27.3390   33.8520 C   0  0  0  0  0  0  0  0  0  0  0  0
   39.6390   26.3420   33.6640 C   0  0  2  0  0  0  0  0  0  0  0  0
   38.6440   26.7890   34.6410 C   0  0  0  0  0  0  0  0  0  0  0  0
   37.2580   26.2210   34.6520 C   0  0  0  0  0  0  0  0  0  0  0  0
   37.4080   27.4430   33.9030 C   0  0  0  0  0  0  0  0  0  0  0  0
   40.9790   21.6960   36.7590 C   0  0  0  0  0  0  0  0  0  0  0  0
   40.8400   22.1720   35.4350 C   0  0  0  0  0  0  0  0  0  0  0  0
   39.9210   23.1790   35.2220 C   0  0  0  0  0  0  0  0  0  0  0  0
   39.2150   23.6470   36.2650 N   0  0  0  0  0  0  0  0  0  0  0  0
   39.3610   23.1820   37.5140 C   0  0  0  0  0  0  0  0  0  0  0  0
   40.2510   22.2050   37.7330 N   0  0  0  0  0  0  0  0  0  0  0  0
   41.6110   21.6710   34.2620 C   0  0  0  0  0  0  0  0  0  0  0  0
   42.3550   20.5690   34.7360 F   0  0  0  0  0  0  0  0  0  0  0  0
   42.5090   22.5610   33.8130 F   0  0  0  0  0  0  0  0  0  0  0  0
   40.7940   21.1550   33.2930 F   0  0  0  0  0  0  0  0  0  0  0  0
   38.5300   23.7610   38.6210 C   0  0  0  0  0  0  0  0  0  0  0  0
   38.0190   24.9930   38.2440 F   0  0  0  0  0  0  0  0  0  0  0  0
   37.4130   22.9790   38.7920 F   0  0  0  0  0  0  0  0  0  0  0  0
   39.2440   23.9510   39.7720 F   0  0  0  0  0  0  0  0  0  0  0  0
   40.6858   24.9066   32.6232 H   0  0  0  0  0  0  0  0  0  0  0  0
   40.9736   25.4041   35.7507 H   0  0  0  0  0  0  0  0  0  0  0  0
   42.1232   24.4495   34.8964 H   0  0  0  0  0  0  0  0  0  0  0  0
   42.5875   27.0762   35.0320 H   0  0  0  0  0  0  0  0  0  0  0  0
   42.7389   26.4178   33.4253 H   0  0  0  0  0  0  0  0  0  0  0  0
   40.5390   28.0597   34.6432 H   0  0  0  0  0  0  0  0  0  0  0  0
   40.9748   27.8947   32.9203 H   0  0  0  0  0  0  0  0  0  0  0  0
   38.9984   26.2462   32.7749 H   0  0  0  0  0  0  0  0  0  0  0  0
   39.3738   26.9814   35.4412 H   0  0  0  0  0  0  0  0  0  0  0  0
   37.0593   25.2832   34.1125 H   0  0  0  0  0  0  0  0  0  0  0  0
   36.5800   25.9217   35.4649 H   0  0  0  0  0  0  0  0  0  0  0  0
   36.9715   28.3793   34.2808 H   0  0  0  0  0  0  0  0  0  0  0  0
   37.1905   27.7609   32.8727 H   0  0  0  0  0  0  0  0  0  0  0  0
   41.7002   20.8948   36.9780 H   0  0  0  0  0  0  0  0  0  0  0  0
  1 13  1  0
  2  1  2  0
  3  7  1  0
  3  1  1  0
  3  4  1  0
  5  4  1  0
  6  5  1  0
  7  6  1  0
  7  8  1  0
  8  9  1  0
 10  8  1  0
 10  9  1  0
 11 16  2  0
 12 11  1  0
 13 12  2  0
 13 14  1  0
 14 15  2  0
 15 16  1  0
 15 21  1  0
 17 18  1  0
 17 12  1  0
 19 17  1  0
 20 17  1  0
 21 23  1  0
 21 24  1  0
 22 21  1  0
  3 25  1  6
  4 26  1  0
  4 27  1  0
  5 28  1  0
  5 29  1  0
  6 30  1  0
  6 31  1  0
  7 32  1  6
  8 33  1  0
  9 34  1  0
  9 35  1  0
 10 36  1  0
 10 37  1  0
 11 38  1  0
M  ISO  8  25  13  26  13  27  13  28  13  29  13  30  13  31  13  32  13
M  ISO  6  33  13  34  13  35  13  36  13  37  13  38  14
M  END
>  <minimizedAffinity>  (1) 
-5.23517561

>  <minimizedRMSD>  (1) 
4.33140516

$$$$
