
     RDKit          3D

 36 38  0  0  1  0  0  0  0  0999 V2000
   39.2790   25.4820   34.4570 C   0  0  2  0  0  0  0  0  0  0  0  0
   39.2810   25.7170   32.9340 C   0  0  0  0  0  0  0  0  0  0  0  0
   39.8010   27.1180   32.8730 C   0  0  0  0  0  0  0  0  0  0  0  0
   40.7540   27.2220   34.0220 C   0  0  0  0  0  0  0  0  0  0  0  0
   40.6450   25.9010   34.7830 C   0  0  2  0  0  0  0  0  0  0  0  0
   41.7560   25.1390   34.0900 C   0  0  0  0  0  0  0  0  0  0  0  0
   42.9180   25.0380   34.7680 N   0  0  0  0  0  0  0  0  0  0  0  0
   43.7580   24.3930   34.0200 O   0  0  0  0  0  0  0  0  0  0  0  0
   43.2390   24.0470   32.8750 C   0  0  0  0  0  0  0  0  0  0  0  0
   41.9830   24.5170   32.9230 N   0  0  0  0  0  0  0  0  0  0  0  0
   38.9520   24.0440   34.6930 C   0  0  0  0  0  0  0  0  0  0  0  0
   38.2000   23.6210   33.7660 O   0  0  0  0  0  0  0  0  0  0  0  0
   39.7650   22.8300   38.1600 C   0  0  0  0  0  0  0  0  0  0  0  0
   39.0660   23.5540   37.1610 C   0  0  0  0  0  0  0  0  0  0  0  0
   39.5110   23.4130   35.8630 C   0  0  0  0  0  0  0  0  0  0  0  0
   40.5630   22.6200   35.6020 N   0  0  0  0  0  0  0  0  0  0  0  0
   41.2100   21.9440   36.5680 C   0  0  0  0  0  0  0  0  0  0  0  0
   40.7900   22.0680   37.8370 N   0  0  0  0  0  0  0  0  0  0  0  0
   37.9110   24.4420   37.4220 C   0  0  0  0  0  0  0  0  0  0  0  0
   37.6240   24.3150   38.7980 F   0  0  0  0  0  0  0  0  0  0  0  0
   36.8020   24.0580   36.7690 F   0  0  0  0  0  0  0  0  0  0  0  0
   38.2390   25.7680   37.2630 F   0  0  0  0  0  0  0  0  0  0  0  0
   42.3790   21.0800   36.2000 C   0  0  0  0  0  0  0  0  0  0  0  0
   42.2400   20.6190   34.8960 F   0  0  0  0  0  0  0  0  0  0  0  0
   43.5090   21.8700   36.1850 F   0  0  0  0  0  0  0  0  0  0  0  0
   42.4930   19.9780   37.0030 F   0  0  0  0  0  0  0  0  0  0  0  0
   38.5477   26.0188   35.0792 H   0  0  0  0  0  0  0  0  0  0  0  0
   39.9490   25.0133   32.4157 H   0  0  0  0  0  0  0  0  0  0  0  0
   38.3059   25.5692   32.4469 H   0  0  0  0  0  0  0  0  0  0  0  0
   40.3213   27.2972   31.9205 H   0  0  0  0  0  0  0  0  0  0  0  0
   38.9944   27.8634   32.9336 H   0  0  0  0  0  0  0  0  0  0  0  0
   41.7806   27.3676   33.6547 H   0  0  0  0  0  0  0  0  0  0  0  0
   40.5132   28.0793   34.6679 H   0  0  0  0  0  0  0  0  0  0  0  0
   40.7631   25.8311   35.8744 H   0  0  0  0  0  0  0  0  0  0  0  0
   43.7216   23.4948   32.0551 H   0  0  0  0  0  0  0  0  0  0  0  0
   39.4495   22.9051   39.2111 H   0  0  0  0  0  0  0  0  0  0  0  0
  1 11  1  0
  1  5  1  0
  2  1  1  0
  3  2  1  0
  3  4  1  0
  4  5  1  0
  6  7  2  0
  6  5  1  0
  8  7  1  0
  9 10  2  0
  9  8  1  0
 10  6  1  0
 11 15  1  0
 12 11  2  0
 14 19  1  0
 14 13  2  0
 15 14  1  0
 16 15  2  0
 16 17  1  0
 17 18  2  0
 18 13  1  0
 19 20  1  0
 21 19  1  0
 22 19  1  0
 23 17  1  0
 23 26  1  0
 24 23  1  0
 25 23  1  0
  1 27  1  1
  2 28  1  0
  2 29  1  0
  3 30  1  0
  3 31  1  0
  4 32  1  0
  4 33  1  0
  5 34  1  1
  9 35  1  0
 13 36  1  0
M  ISO  8  27  13  28  13  29  13  30  13  31  13  32  13  33  13  34  13
M  ISO  2  35  14  36  14
M  END
>  <minimizedAffinity>  (1) 
-4.97372055

>  <minimizedRMSD>  (1) 
0.302504301

$$$$
