
     RDKit          3D

 20 20  0  0  1  0  0  0  0  0999 V2000
   38.2860   23.4510   36.9800 C   0  0  2  0  0  0  0  0  0  0  0  0
   41.6030   21.6260   37.1970 C   0  0  0  0  0  0  0  0  0  0  0  0
   40.4150   22.2740   37.5970 C   0  0  0  0  0  0  0  0  0  0  0  0
   39.5320   22.7650   36.5970 C   0  0  0  0  0  0  0  0  0  0  0  0
   39.8940   22.5790   35.2800 N   0  0  0  0  0  0  0  0  0  0  0  0
   41.0290   21.9590   34.9410 C   0  0  0  0  0  0  0  0  0  0  0  0
   41.8780   21.4870   35.8770 N   0  0  0  0  0  0  0  0  0  0  0  0
   38.2040   24.8650   36.4410 C   0  0  0  0  0  0  0  0  0  0  0  0
   38.0940   23.4870   38.4800 C   0  0  0  0  0  0  0  0  0  0  0  0
   38.0060   24.8040   38.9480 O   0  0  0  0  0  0  0  0  0  0  0  0
   37.4806   22.8560   36.5246 H   0  0  0  0  0  0  0  0  0  0  0  0
   42.3017   21.2360   37.9518 H   0  0  0  0  0  0  0  0  0  0  0  0
   40.1764   22.3970   38.6637 H   0  0  0  0  0  0  0  0  0  0  0  0
   41.2756   21.8311   33.8767 H   0  0  0  0  0  0  0  0  0  0  0  0
   38.1628   25.5754   37.2799 H   0  0  0  0  0  0  0  0  0  0  0  0
   39.0915   25.0750   35.8259 H   0  0  0  0  0  0  0  0  0  0  0  0
   37.2982   24.9710   35.8259 H   0  0  0  0  0  0  0  0  0  0  0  0
   37.1672   22.9526   38.7360 H   0  0  0  0  0  0  0  0  0  0  0  0
   38.9625   23.0063   38.9539 H   0  0  0  0  0  0  0  0  0  0  0  0
   38.0061   24.8031   39.9380 H   0  0  0  0  0  0  0  0  0  0  0  0
  1  9  1  0
  2  3  2  0
  4  1  1  0
  4  3  1  0
  5  4  2  0
  6  5  1  0
  6  7  2  0
  7  2  1  0
  8  1  1  0
  9 10  1  0
  1 11  1  6
  2 12  1  0
  3 13  1  0
  6 14  1  0
  8 15  1  0
  8 16  1  0
  8 17  1  0
  9 18  1  0
  9 19  1  0
 10 20  1  0
M  ISO  8  11   8  12  14  13  14  14  14  15   8  16   8  17   8  18   8
M  ISO  2  19   8  20   3
M  END
>  <minimizedAffinity>  (1) 
-3.16652894

>  <minimizedRMSD>  (1) 
0.778374732

$$$$
