
     RDKit          3D

 32 33  0  0  1  0  0  0  0  0999 V2000
   38.5880   23.6460   34.7300 C   0  0  0  0  0  0  0  0  0  0  0  0
   37.8070   23.1150   33.9100 O   0  0  0  0  0  0  0  0  0  0  0  0
   38.8710   25.0240   34.3760 C   0  0  2  0  0  0  0  0  0  0  0  0
   37.7180   25.8260   34.0120 C   0  0  0  0  0  0  0  0  0  0  0  0
   38.2210   27.1090   33.4920 C   0  0  0  0  0  0  0  0  0  0  0  0
   39.6890   27.0130   33.5070 C   0  0  0  0  0  0  0  0  0  0  0  0
   40.0950   25.6760   34.1320 C   0  0  2  0  0  0  0  0  0  0  0  0
   41.4100   25.0300   33.1310 S   0  0  0  0  0  0  0  0  0  0  0  0
   39.9340   22.8610   38.1410 C   0  0  0  0  0  0  0  0  0  0  0  0
   39.0690   23.4640   37.2260 C   0  0  0  0  0  0  0  0  0  0  0  0
   39.3230   23.2300   35.9260 C   0  0  0  0  0  0  0  0  0  0  0  0
   40.3680   22.4510   35.5010 N   0  0  0  0  0  0  0  0  0  0  0  0
   41.1850   21.8840   36.4440 C   0  0  0  0  0  0  0  0  0  0  0  0
   40.9400   22.1080   37.7360 N   0  0  0  0  0  0  0  0  0  0  0  0
   37.9310   24.3360   37.5050 C   0  0  0  0  0  0  0  0  0  0  0  0
   37.7230   24.2350   38.8980 F   0  0  0  0  0  0  0  0  0  0  0  0
   36.7910   23.9700   36.9070 F   0  0  0  0  0  0  0  0  0  0  0  0
   38.2070   25.6670   37.2950 F   0  0  0  0  0  0  0  0  0  0  0  0
   42.3250   21.0390   35.9760 C   0  0  0  0  0  0  0  0  0  0  0  0
   42.1590   20.6860   34.6470 F   0  0  0  0  0  0  0  0  0  0  0  0
   43.4710   21.8090   35.9890 F   0  0  0  0  0  0  0  0  0  0  0  0
   42.4400   19.8750   36.6880 F   0  0  0  0  0  0  0  0  0  0  0  0
   39.4563   24.7042   35.2507 H   0  0  0  0  0  0  0  0  0  0  0  0
   37.1307   25.3107   33.2377 H   0  0  0  0  0  0  0  0  0  0  0  0
   37.0668   25.9884   34.8835 H   0  0  0  0  0  0  0  0  0  0  0  0
   37.8868   27.9375   34.1338 H   0  0  0  0  0  0  0  0  0  0  0  0
   37.8433   27.3052   32.4777 H   0  0  0  0  0  0  0  0  0  0  0  0
   40.0728   27.0706   32.4777 H   0  0  0  0  0  0  0  0  0  0  0  0
   40.1094   27.8414   34.0961 H   0  0  0  0  0  0  0  0  0  0  0  0
   40.5802   25.6188   35.1176 H   0  0  0  0  0  0  0  0  0  0  0  0
   42.4024   24.5425   33.9399 H   0  0  0  0  0  0  0  0  0  0  0  0
   39.7746   23.0160   39.2183 H   0  0  0  0  0  0  0  0  0  0  0  0
  1 11  1  0
  2  1  2  0
  3  1  1  0
  4  3  1  0
  5  6  1  0
  5  4  1  0
  6  7  1  0
  7  3  1  0
  8  7  1  0
 10 15  1  0
 10  9  2  0
 11 10  1  0
 12 11  2  0
 12 13  1  0
 13 14  2  0
 14  9  1  0
 15 16  1  0
 17 15  1  0
 18 15  1  0
 19 21  1  0
 19 13  1  0
 19 22  1  0
 20 19  1  0
  3 23  1  6
  4 24  1  0
  4 25  1  0
  5 26  1  0
  5 27  1  0
  6 28  1  0
  6 29  1  0
  7 30  1  1
  8 31  1  0
  9 32  1  0
M  ISO  8  23  13  24  13  25  13  26  13  27  13  28  13  29  13  30  13
M  ISO  2  31  11  32  14
M  END
>  <minimizedAffinity>  (1) 
-4.76649666

>  <minimizedRMSD>  (1) 
0.965522349

$$$$
