
     RDKit          3D

 50 53  0  0  1  0  0  0  0  0999 V2000
   35.8590   29.4250   33.0560 N   0  0  0  0  0  0  0  0  0  0  0  0
   35.2870   29.5060   34.3760 C   0  0  0  0  0  0  0  0  0  0  0  0
   33.7880   29.5340   34.3790 C   0  0  0  0  0  0  0  0  0  0  0  0
   33.3520   30.7440   33.5630 C   0  0  0  0  0  0  0  0  0  0  0  0
   33.8190   30.4670   32.1520 C   0  0  0  0  0  0  0  0  0  0  0  0
   35.2780   30.3420   32.0940 C   0  0  1  0  0  0  0  0  0  0  0  0
   36.0580   31.5720   31.9390 C   0  0  0  0  0  0  0  0  0  0  0  0
   36.5860   32.1700   30.8200 C   0  0  0  0  0  0  0  0  0  0  0  0
   37.2950   33.3460   30.7530 C   0  0  0  0  0  0  0  0  0  0  0  0
   37.5250   34.0320   31.9090 C   0  0  0  0  0  0  0  0  0  0  0  0
   37.0380   33.5190   33.0880 C   0  0  0  0  0  0  0  0  0  0  0  0
   37.3090   34.2580   34.2160 C   0  0  0  0  0  0  0  0  0  0  0  0
   36.8660   33.8210   35.4410 C   0  0  0  0  0  0  0  0  0  0  0  0
   36.1570   32.6390   35.4960 C   0  0  0  0  0  0  0  0  0  0  0  0
   35.9130   31.9360   34.3360 C   0  0  0  0  0  0  0  0  0  0  0  0
   36.3350   32.3330   33.0860 C   0  0  0  0  0  0  0  0  0  0  0  0
   35.7000   28.0890   32.5180 C   0  0  0  0  0  0  0  0  0  0  0  0
   36.9940   27.3980   32.1330 C   0  0  2  0  0  0  0  0  0  0  0  0
   37.9580   26.0890   35.5630 C   0  0  0  0  0  0  0  0  0  0  0  0
   37.1870   26.4370   34.4250 C   0  0  0  0  0  0  0  0  0  0  0  0
   37.7770   27.0340   33.3250 C   0  0  0  0  0  0  0  0  0  0  0  0
   39.1260   27.2610   33.4030 N   0  0  0  0  0  0  0  0  0  0  0  0
   39.8610   26.9360   34.4740 C   0  0  0  0  0  0  0  0  0  0  0  0
   39.2890   26.3510   35.5570 N   0  0  0  0  0  0  0  0  0  0  0  0
   37.7530   28.2400   31.1420 C   0  0  0  0  0  0  0  0  0  0  0  0
   35.6198   28.6310   34.9537 H   0  0  0  0  0  0  0  0  0  0  0  0
   35.6286   30.4534   34.8184 H   0  0  0  0  0  0  0  0  0  0  0  0
   33.3941   28.6128   33.9249 H   0  0  0  0  0  0  0  0  0  0  0  0
   33.4034   29.6008   35.4074 H   0  0  0  0  0  0  0  0  0  0  0  0
   32.2578   30.8534   33.5916 H   0  0  0  0  0  0  0  0  0  0  0  0
   33.7771   31.6784   33.9583 H   0  0  0  0  0  0  0  0  0  0  0  0
   33.3639   29.5293   31.8005 H   0  0  0  0  0  0  0  0  0  0  0  0
   33.5147   31.3082   31.5119 H   0  0  0  0  0  0  0  0  0  0  0  0
   35.3809   29.8597   31.1108 H   0  0  0  0  0  0  0  0  0  0  0  0
   36.4222   31.6466   29.8665 H   0  0  0  0  0  0  0  0  0  0  0  0
   37.6679   33.7246   29.7899 H   0  0  0  0  0  0  0  0  0  0  0  0
   38.0887   34.9765   31.8984 H   0  0  0  0  0  0  0  0  0  0  0  0
   37.8785   35.1958   34.1376 H   0  0  0  0  0  0  0  0  0  0  0  0
   37.0714   34.3988   36.3542 H   0  0  0  0  0  0  0  0  0  0  0  0
   35.7884   32.2596   36.4605 H   0  0  0  0  0  0  0  0  0  0  0  0
   35.3447   30.9974   34.4131 H   0  0  0  0  0  0  0  0  0  0  0  0
   35.1961   27.4726   33.2770 H   0  0  0  0  0  0  0  0  0  0  0  0
   35.1197   28.1970   31.5898 H   0  0  0  0  0  0  0  0  0  0  0  0
   36.7673   26.4463   31.6302 H   0  0  0  0  0  0  0  0  0  0  0  0
   37.4850   25.6148   36.4356 H   0  0  0  0  0  0  0  0  0  0  0  0
   36.1067   26.2298   34.4166 H   0  0  0  0  0  0  0  0  0  0  0  0
   40.9409   27.1455   34.4762 H   0  0  0  0  0  0  0  0  0  0  0  0
   38.3948   28.9520   31.6815 H   0  0  0  0  0  0  0  0  0  0  0  0
   38.3764   27.5902   30.5103 H   0  0  0  0  0  0  0  0  0  0  0  0
   37.0422   28.7929   30.5103 H   0  0  0  0  0  0  0  0  0  0  0  0
  1  2  1  0
  2  3  1  0
  4  3  1  0
  5  4  1  0
  6  5  1  0
  6  1  1  0
  7  6  1  0
  7 16  1  0
  8  7  2  0
  9  8  1  0
  9 10  2  0
 10 11  1  0
 11 12  1  0
 12 13  2  0
 13 14  1  0
 15 14  2  0
 16 11  2  0
 16 15  1  0
 17  1  1  0
 18 17  1  0
 18 21  1  0
 20 19  2  0
 21 22  2  0
 21 20  1  0
 22 23  1  0
 23 24  2  0
 24 19  1  0
 25 18  1  0
  2 26  1  0
  2 27  1  0
  3 28  1  0
  3 29  1  0
  4 30  1  0
  4 31  1  0
  5 32  1  0
  5 33  1  0
  6 34  1  6
  8 35  1  0
  9 36  1  0
 10 37  1  0
 12 38  1  0
 13 39  1  0
 14 40  1  0
 15 41  1  0
 17 42  1  0
 17 43  1  0
 18 44  1  6
 19 45  1  0
 20 46  1  0
 23 47  1  0
 25 48  1  0
 25 49  1  0
 25 50  1  0
M  ISO  8  26  13  27  13  28  13  29  13  30  13  31  13  32  13  33  13
M  ISO  8  34  13  35  14  36  14  37  14  38  14  39  14  40  14  41  14
M  ISO  8  42   8  43   8  44   8  45  14  46  14  47  14  48   8  49   8
M  ISO  1  50   8
M  END
>  <minimizedAffinity>  (1) 
-5.26955366

>  <minimizedRMSD>  (1) 
1.5171423

$$$$
