
     RDKit          3D

 43 45  0  0  1  0  0  0  0  0999 V2000
   36.3350   27.8720   33.3270 N   0  0  0  0  0  0  0  0  0  0  0  0
   36.6380   27.3390   34.6330 C   0  0  0  0  0  0  0  0  0  0  0  0
   38.1110   27.3960   34.9520 C   0  0  0  0  0  0  0  0  0  0  0  0
   38.8750   26.6220   33.8850 C   0  0  0  0  0  0  0  0  0  0  0  0
   38.6210   27.3520   32.5700 C   0  0  0  0  0  0  0  0  0  0  0  0
   37.1430   27.2820   32.2920 C   0  0  1  0  0  0  0  0  0  0  0  0
   36.7280   25.8710   31.9830 C   0  0  0  0  0  0  0  0  0  0  0  0
   35.5220   25.5350   31.4120 C   0  0  0  0  0  0  0  0  0  0  0  0
   35.1280   24.2610   31.1190 C   0  0  0  0  0  0  0  0  0  0  0  0
   35.9840   23.2180   31.4080 C   0  0  0  0  0  0  0  0  0  0  0  0
   37.1960   23.5370   31.9820 C   0  0  0  0  0  0  0  0  0  0  0  0
   37.5200   24.8160   32.2420 N   0  0  0  0  0  0  0  0  0  0  0  0
   36.4110   29.2870   33.2560 C   0  0  0  0  0  0  0  0  0  0  0  0
   35.0850   30.0250   33.2330 C   0  0  2  0  0  0  0  0  0  0  0  0
   35.3930   31.9010   36.5150 C   0  0  0  0  0  0  0  0  0  0  0  0
   35.7000   31.3240   35.2720 C   0  0  0  0  0  0  0  0  0  0  0  0
   34.7660   30.6220   34.5290 C   0  0  0  0  0  0  0  0  0  0  0  0
   33.5250   30.5350   35.0930 N   0  0  0  0  0  0  0  0  0  0  0  0
   33.2120   31.0790   36.2780 C   0  0  0  0  0  0  0  0  0  0  0  0
   34.1400   31.7650   36.9970 N   0  0  0  0  0  0  0  0  0  0  0  0
   34.0180   29.0910   32.7130 C   0  0  0  0  0  0  0  0  0  0  0  0
   36.0906   27.9225   35.3879 H   0  0  0  0  0  0  0  0  0  0  0  0
   36.3347   26.2817   34.6414 H   0  0  0  0  0  0  0  0  0  0  0  0
   38.4471   28.4434   34.9607 H   0  0  0  0  0  0  0  0  0  0  0  0
   38.2966   26.9515   35.9409 H   0  0  0  0  0  0  0  0  0  0  0  0
   39.9505   26.6140   34.1157 H   0  0  0  0  0  0  0  0  0  0  0  0
   38.5436   25.5744   33.8337 H   0  0  0  0  0  0  0  0  0  0  0  0
   38.9377   28.4019   32.6560 H   0  0  0  0  0  0  0  0  0  0  0  0
   39.1916   26.8874   31.7523 H   0  0  0  0  0  0  0  0  0  0  0  0
   36.9586   27.8986   31.3999 H   0  0  0  0  0  0  0  0  0  0  0  0
   34.8248   26.3520   31.1744 H   0  0  0  0  0  0  0  0  0  0  0  0
   34.1464   24.0696   30.6610 H   0  0  0  0  0  0  0  0  0  0  0  0
   35.7105   22.1752   31.1894 H   0  0  0  0  0  0  0  0  0  0  0  0
   37.9070   22.7353   32.2305 H   0  0  0  0  0  0  0  0  0  0  0  0
   36.9761   29.6379   34.1321 H   0  0  0  0  0  0  0  0  0  0  0  0
   36.8907   29.5098   32.2915 H   0  0  0  0  0  0  0  0  0  0  0  0
   35.1477   30.8824   32.5468 H   0  0  0  0  0  0  0  0  0  0  0  0
   36.1571   32.4517   37.0832 H   0  0  0  0  0  0  0  0  0  0  0  0
   36.7196   31.4337   34.8741 H   0  0  0  0  0  0  0  0  0  0  0  0
   32.1915   30.9689   36.6734 H   0  0  0  0  0  0  0  0  0  0  0  0
   33.4903   28.6291   33.5605 H   0  0  0  0  0  0  0  0  0  0  0  0
   33.3017   29.6576   32.0999 H   0  0  0  0  0  0  0  0  0  0  0  0
   34.4849   28.3060   32.0999 H   0  0  0  0  0  0  0  0  0  0  0  0
  1  2  1  0
  2  3  1  0
  4  3  1  0
  5  4  1  0
  6  5  1  0
  6  1  1  0
  7 12  1  0
  7  6  1  0
  8  7  2  0
  9 10  2  0
  9  8  1  0
 10 11  1  0
 11 12  2  0
 13  1  1  0
 14 13  1  0
 14 17  1  0
 15 20  2  0
 16 15  1  0
 17 18  1  0
 17 16  2  0
 18 19  2  0
 19 20  1  0
 21 14  1  0
  2 22  1  0
  2 23  1  0
  3 24  1  0
  3 25  1  0
  4 26  1  0
  4 27  1  0
  5 28  1  0
  5 29  1  0
  6 30  1  6
  8 31  1  0
  9 32  1  0
 10 33  1  0
 11 34  1  0
 13 35  1  0
 13 36  1  0
 14 37  1  6
 15 38  1  0
 16 39  1  0
 19 40  1  0
 21 41  1  0
 21 42  1  0
 21 43  1  0
M  ISO  8  22  13  23  13  24  13  25  13  26  13  27  13  28  13  29  13
M  ISO  8  30  13  31  14  32  14  33  14  34  14  35   8  36   8  37   8
M  ISO  6  38  14  39  14  40  14  41   8  42   8  43   8
M  END
>  <minimizedAffinity>  (1) 
-4.75175047

>  <minimizedRMSD>  (1) 
6.71836376

$$$$
