
     RDKit          3D

 47 49  0  0  1  0  0  0  0  0999 V2000
   35.3030   29.6160   33.1700 N   0  0  0  0  0  0  0  0  0  0  0  0
   34.9550   29.2390   34.5120 C   0  0  0  0  0  0  0  0  0  0  0  0
   33.4850   29.4380   34.7910 C   0  0  0  0  0  0  0  0  0  0  0  0
   33.1310   30.8960   34.5530 C   0  0  0  0  0  0  0  0  0  0  0  0
   33.4140   31.1750   33.1070 C   0  0  0  0  0  0  0  0  0  0  0  0
   34.8710   30.9520   32.8320 C   0  0  1  0  0  0  0  0  0  0  0  0
   37.3680   33.9410   34.6900 C   0  0  0  0  0  0  0  0  0  0  0  0
   36.6430   33.0660   35.4600 C   0  0  0  0  0  0  0  0  0  0  0  0
   35.8500   32.1230   34.8470 C   0  0  0  0  0  0  0  0  0  0  0  0
   35.7240   31.9850   33.4610 C   0  0  0  0  0  0  0  0  0  0  0  0
   36.4750   32.8910   32.7590 C   0  0  0  0  0  0  0  0  0  0  0  0
   37.2870   33.8580   33.3160 C   0  0  0  0  0  0  0  0  0  0  0  0
   38.3770   35.1420   35.4550 S   0  0  0  0  0  0  0  0  0  0  0  0
   39.6710   34.4770   35.8450 O   0  0  0  0  0  0  0  0  0  0  0  0
   38.6430   36.2950   34.5460 O   0  0  0  0  0  0  0  0  0  0  0  0
   34.8690   28.7110   32.1730 C   0  0  0  0  0  0  0  0  0  0  0  0
   35.9480   28.0800   31.3110 C   0  0  2  0  0  0  0  0  0  0  0  0
   35.3720   24.3370   31.1690 C   0  0  0  0  0  0  0  0  0  0  0  0
   35.2310   25.7240   30.9390 C   0  0  0  0  0  0  0  0  0  0  0  0
   36.0740   26.6410   31.5410 C   0  0  0  0  0  0  0  0  0  0  0  0
   37.0430   26.1230   32.3650 N   0  0  0  0  0  0  0  0  0  0  0  0
   37.1810   24.8110   32.5870 C   0  0  0  0  0  0  0  0  0  0  0  0
   36.3570   23.9040   32.0000 N   0  0  0  0  0  0  0  0  0  0  0  0
   37.2250   28.8550   31.5100 C   0  0  0  0  0  0  0  0  0  0  0  0
   35.2040   28.1777   34.6588 H   0  0  0  0  0  0  0  0  0  0  0  0
   35.5222   29.8796   35.2033 H   0  0  0  0  0  0  0  0  0  0  0  0
   32.8921   28.7998   34.1192 H   0  0  0  0  0  0  0  0  0  0  0  0
   33.2639   29.1666   35.8338 H   0  0  0  0  0  0  0  0  0  0  0  0
   32.0669   31.0688   34.7717 H   0  0  0  0  0  0  0  0  0  0  0  0
   33.7171   31.5584   35.2070 H   0  0  0  0  0  0  0  0  0  0  0  0
   32.8145   30.4996   32.4789 H   0  0  0  0  0  0  0  0  0  0  0  0
   33.1523   32.2182   32.8763 H   0  0  0  0  0  0  0  0  0  0  0  0
   34.9953   31.0532   31.7437 H   0  0  0  0  0  0  0  0  0  0  0  0
   36.6954   33.1181   36.5575 H   0  0  0  0  0  0  0  0  0  0  0  0
   35.2793   31.4344   35.4875 H   0  0  0  0  0  0  0  0  0  0  0  0
   36.4267   32.8437   31.6611 H   0  0  0  0  0  0  0  0  0  0  0  0
   37.8577   34.5481   32.6772 H   0  0  0  0  0  0  0  0  0  0  0  0
   37.7350   35.6411   36.5576 H   0  0  0  0  0  0  0  0  0  0  0  0
   34.3247   27.8975   32.6749 H   0  0  0  0  0  0  0  0  0  0  0  0
   34.2599   29.3117   31.4815 H   0  0  0  0  0  0  0  0  0  0  0  0
   35.6716   28.1469   30.2484 H   0  0  0  0  0  0  0  0  0  0  0  0
   34.6952   23.6187   30.6832 H   0  0  0  0  0  0  0  0  0  0  0  0
   34.4357   26.0815   30.2684 H   0  0  0  0  0  0  0  0  0  0  0  0
   37.9780   24.4592   33.2586 H   0  0  0  0  0  0  0  0  0  0  0  0
   37.4186   28.9725   32.5864 H   0  0  0  0  0  0  0  0  0  0  0  0
   38.0602   28.3113   31.0444 H   0  0  0  0  0  0  0  0  0  0  0  0
   37.1283   29.8469   31.0444 H   0  0  0  0  0  0  0  0  0  0  0  0
  1  2  1  0
  2  3  1  0
  4  3  1  0
  5  4  1  0
  6  5  1  0
  6  1  1  0
  6 10  1  0
  7 13  1  0
  7  8  2  0
  9  8  1  0
 10  9  2  0
 11 12  2  0
 11 10  1  0
 12  7  1  0
 13 14  2  0
 15 13  2  0
 16  1  1  0
 17 24  1  0
 17 20  1  0
 17 16  1  0
 18 23  2  0
 19 18  1  0
 19 20  2  0
 20 21  1  0
 21 22  2  0
 23 22  1  0
  2 25  1  0
  2 26  1  0
  3 27  1  0
  3 28  1  0
  4 29  1  0
  4 30  1  0
  5 31  1  0
  5 32  1  0
  6 33  1  6
  8 34  1  0
  9 35  1  0
 11 36  1  0
 12 37  1  0
 13 38  1  0
 16 39  1  0
 16 40  1  0
 17 41  1  6
 18 42  1  0
 19 43  1  0
 22 44  1  0
 24 45  1  0
 24 46  1  0
 24 47  1  0
M  ISO  8  25  13  26  13  27  13  28  13  29  13  30  13  31  13  32  13
M  ISO  8  33  13  34  14  35  14  36  14  37  14  38  11  39   8  40   8
M  ISO  7  41   8  42  14  43  14  44  14  45   8  46   8  47   8
M  END
>  <minimizedAffinity>  (1) 
-4.85997152

>  <minimizedRMSD>  (1) 
2.5552175

$$$$
