
     RDKit          3D

 33 35  0  0  0  0  0  0  0  0999 V2000
   38.3730   26.4540   36.2660 C   0  0  0  0  0  0  0  0  0  0  0  0
   38.5660   25.1560   35.7560 C   0  0  0  0  0  0  0  0  0  0  0  0
   38.0340   24.9430   34.4810 C   0  0  0  0  0  0  0  0  0  0  0  0
   37.3940   25.9350   33.8340 N   0  0  0  0  0  0  0  0  0  0  0  0
   37.2290   27.1700   34.3630 C   0  0  0  0  0  0  0  0  0  0  0  0
   37.7360   27.3950   35.5900 N   0  0  0  0  0  0  0  0  0  0  0  0
   39.2430   24.1370   36.4600 N   0  0  0  0  0  0  0  0  0  0  0  0
   38.6780   22.9260   36.8870 C   0  0  0  0  0  0  0  0  0  0  0  0
   37.4410   22.9890   37.3200 N   0  0  0  0  0  0  0  0  0  0  0  0
   39.5380   21.7610   36.7930 N   0  0  0  0  0  0  0  0  0  0  0  0
   36.9500   22.1450   37.6370 H   0  0  0  0  0  0  0  0  0  0  0  0
   36.5290   28.2170   33.6260 C   0  0  0  0  0  0  0  0  0  0  0  0
   35.4630   28.8490   34.2150 C   0  0  0  0  0  0  0  0  0  0  0  0
   34.8850   29.8220   33.4120 C   0  0  0  0  0  0  0  0  0  0  0  0
   35.3200   30.1300   32.1660 N   0  0  0  0  0  0  0  0  0  0  0  0
   36.3600   29.4790   31.6550 C   0  0  0  0  0  0  0  0  0  0  0  0
   36.9740   28.5100   32.3920 N   0  0  0  0  0  0  0  0  0  0  0  0
   36.8630   29.7770   30.3190 C   0  0  0  0  0  0  0  0  0  0  0  0
   36.7770   31.0560   29.8090 C   0  0  0  0  0  0  0  0  0  0  0  0
   37.2810   31.2420   28.5300 C   0  0  0  0  0  0  0  0  0  0  0  0
   37.8270   30.2460   27.8110 N   0  0  0  0  0  0  0  0  0  0  0  0
   37.8900   29.0170   28.3480 C   0  0  0  0  0  0  0  0  0  0  0  0
   37.4090   28.7820   29.5970 N   0  0  0  0  0  0  0  0  0  0  0  0
   38.7670   26.6943   37.2645 H   0  0  0  0  0  0  0  0  0  0  0  0
   38.1391   23.9579   34.0030 H   0  0  0  0  0  0  0  0  0  0  0  0
   40.2368   24.2961   36.6789 H   0  0  0  0  0  0  0  0  0  0  0  0
   39.1892   20.8382   37.0890 H   0  0  0  0  0  0  0  0  0  0  0  0
   40.4972   21.8569   36.4303 H   0  0  0  0  0  0  0  0  0  0  0  0
   35.1017   28.6078   35.2256 H   0  0  0  0  0  0  0  0  0  0  0  0
   34.0225   30.3763   33.8105 H   0  0  0  0  0  0  0  0  0  0  0  0
   36.3336   31.8821   30.3843 H   0  0  0  0  0  0  0  0  0  0  0  0
   37.2318   32.2469   28.0854 H   0  0  0  0  0  0  0  0  0  0  0  0
   38.3351   28.1927   27.7715 H   0  0  0  0  0  0  0  0  0  0  0  0
  2  1  2  0
  2  7  1  0
  3  2  1  0
  4  5  1  0
  4  3  2  0
  5  6  2  0
  6  1  1  0
  7  8  1  0
  8  9  2  0
  9 11  1  0
 10  8  1  0
 12 13  2  0
 12  5  1  0
 14 13  1  0
 15 14  2  0
 16 15  1  0
 16 17  2  0
 17 12  1  0
 18 16  1  0
 19 18  2  0
 20 19  1  0
 21 22  1  0
 21 20  2  0
 22 23  2  0
 23 18  1  0
  1 24  1  0
  3 25  1  0
  7 26  1  0
 10 27  1  0
 10 28  1  0
 13 29  1  0
 14 30  1  0
 19 31  1  0
 20 32  1  0
 22 33  1  0
M  ISO  7  24  14  25  14  29  14  30  14  31  14  32  14  33  14
M  END
>  <minimizedAffinity>  (1) 
-5.24306679

>  <minimizedRMSD>  (1) 
4.96274471

$$$$
