
     RDKit          3D

 45 48  0  0  1  0  0  0  0  0999 V2000
   35.6340   29.3560   32.8610 N   0  0  0  0  0  0  0  0  0  0  0  0
   35.2990   29.3140   34.2660 C   0  0  0  0  0  0  0  0  0  0  0  0
   33.8170   29.4930   34.5170 C   0  0  0  0  0  0  0  0  0  0  0  0
   33.4000   30.8400   33.9360 C   0  0  0  0  0  0  0  0  0  0  0  0
   33.6370   30.7490   32.4460 C   0  0  0  0  0  0  0  0  0  0  0  0
   35.0930   30.5200   32.2020 C   0  0  1  0  0  0  0  0  0  0  0  0
   35.9170   31.7010   32.3520 N   0  0  0  0  0  0  0  0  0  0  0  0
   36.4860   32.2500   31.2630 C   0  0  0  0  0  0  0  0  0  0  0  0
   37.1920   33.3230   31.6640 N   0  0  0  0  0  0  0  0  0  0  0  0
   37.0690   33.4460   32.9910 C   0  0  0  0  0  0  0  0  0  0  0  0
   37.5410   34.3160   33.9420 C   0  0  0  0  0  0  0  0  0  0  0  0
   37.2060   34.1330   35.2180 N   0  0  0  0  0  0  0  0  0  0  0  0
   36.4120   33.1170   35.6190 C   0  0  0  0  0  0  0  0  0  0  0  0
   35.9290   32.2440   34.7190 N   0  0  0  0  0  0  0  0  0  0  0  0
   36.2620   32.4210   33.4370 C   0  0  0  0  0  0  0  0  0  0  0  0
   35.2380   28.2050   32.1410 C   0  0  0  0  0  0  0  0  0  0  0  0
   36.3200   27.5170   31.3220 C   0  0  2  0  0  0  0  0  0  0  0  0
   35.4990   23.8130   31.2650 C   0  0  0  0  0  0  0  0  0  0  0  0
   35.4410   25.2050   31.0130 C   0  0  0  0  0  0  0  0  0  0  0  0
   36.3620   26.0670   31.5780 C   0  0  0  0  0  0  0  0  0  0  0  0
   37.3270   25.5070   32.3860 N   0  0  0  0  0  0  0  0  0  0  0  0
   37.3810   24.1950   32.6220 C   0  0  0  0  0  0  0  0  0  0  0  0
   36.4820   23.3340   32.0740 N   0  0  0  0  0  0  0  0  0  0  0  0
   37.6290   28.2220   31.5750 C   0  0  0  0  0  0  0  0  0  0  0  0
   35.6102   28.3408   34.6734 H   0  0  0  0  0  0  0  0  0  0  0  0
   35.8231   30.1464   34.7583 H   0  0  0  0  0  0  0  0  0  0  0  0
   33.2550   28.6847   34.0263 H   0  0  0  0  0  0  0  0  0  0  0  0
   33.6054   29.4602   35.5960 H   0  0  0  0  0  0  0  0  0  0  0  0
   32.3365   31.0311   34.1418 H   0  0  0  0  0  0  0  0  0  0  0  0
   33.9747   31.6644   34.3834 H   0  0  0  0  0  0  0  0  0  0  0  0
   33.0566   29.9123   32.0300 H   0  0  0  0  0  0  0  0  0  0  0  0
   33.3195   31.6832   31.9598 H   0  0  0  0  0  0  0  0  0  0  0  0
   35.1382   30.2795   31.1296 H   0  0  0  0  0  0  0  0  0  0  0  0
   36.3909   31.8863   30.2292 H   0  0  0  0  0  0  0  0  0  0  0  0
   38.1896   35.1561   33.6531 H   0  0  0  0  0  0  0  0  0  0  0  0
   36.1603   33.0039   36.6838 H   0  0  0  0  0  0  0  0  0  0  0  0
   34.8499   27.4737   32.8652 H   0  0  0  0  0  0  0  0  0  0  0  0
   34.4959   28.5574   31.4095 H   0  0  0  0  0  0  0  0  0  0  0  0
   36.0939   27.5960   30.2484 H   0  0  0  0  0  0  0  0  0  0  0  0
   34.7625   23.1312   30.8147 H   0  0  0  0  0  0  0  0  0  0  0  0
   34.6526   25.6058   30.3589 H   0  0  0  0  0  0  0  0  0  0  0  0
   38.1723   23.7998   33.2760 H   0  0  0  0  0  0  0  0  0  0  0  0
   37.7941   28.3109   32.6589 H   0  0  0  0  0  0  0  0  0  0  0  0
   38.4497   27.6439   31.1253 H   0  0  0  0  0  0  0  0  0  0  0  0
   37.5980   29.2254   31.1253 H   0  0  0  0  0  0  0  0  0  0  0  0
  1  2  1  0
  2  3  1  0
  4  3  1  0
  5  4  1  0
  6  7  1  0
  6  5  1  0
  6  1  1  0
  7 15  1  0
  8  9  2  0
  8  7  1  0
  9 10  1  0
 10 15  2  0
 10 11  1  0
 11 12  2  0
 12 13  1  0
 14 13  2  0
 15 14  1  0
 16  1  1  0
 17 24  1  0
 17 20  1  0
 17 16  1  0
 18 23  2  0
 19 18  1  0
 19 20  2  0
 20 21  1  0
 21 22  2  0
 23 22  1  0
  2 25  1  0
  2 26  1  0
  3 27  1  0
  3 28  1  0
  4 29  1  0
  4 30  1  0
  5 31  1  0
  5 32  1  0
  6 33  1  6
  8 34  1  0
 11 35  1  0
 13 36  1  0
 16 37  1  0
 16 38  1  0
 17 39  1  6
 18 40  1  0
 19 41  1  0
 22 42  1  0
 24 43  1  0
 24 44  1  0
 24 45  1  0
M  ISO  8  25  13  26  13  27  13  28  13  29  13  30  13  31  13  32  13
M  ISO  8  33  13  34  14  35  14  36  14  37   8  38   8  39   8  40  14
M  ISO  5  41  14  42  14  43   8  44   8  45   8
M  END
>  <minimizedAffinity>  (1) 
-4.61774588

>  <minimizedRMSD>  (1) 
2.26283646

$$$$
