
     RDKit          3D

 28 29  0  0  0  0  0  0  0  0999 V2000
   40.6600   24.9140   35.2810 C   0  0  0  0  0  0  0  0  0  0  0  0
   40.4250   23.5910   35.7010 C   0  0  0  0  0  0  0  0  0  0  0  0
   39.2310   23.0550   35.2550 C   0  0  0  0  0  0  0  0  0  0  0  0
   38.3870   23.7630   34.4860 N   0  0  0  0  0  0  0  0  0  0  0  0
   38.6480   25.0340   34.1020 C   0  0  0  0  0  0  0  0  0  0  0  0
   39.8090   25.5920   34.5200 N   0  0  0  0  0  0  0  0  0  0  0  0
   41.3320   22.8710   36.5110 N   0  0  0  0  0  0  0  0  0  0  0  0
   40.9690   21.9980   37.5660 C   0  0  0  0  0  0  0  0  0  0  0  0
   39.9470   22.3940   38.3080 N   0  0  0  0  0  0  0  0  0  0  0  0
   41.7600   20.7930   37.6880 N   0  0  0  0  0  0  0  0  0  0  0  0
   39.6090   21.8010   39.0730 H   0  0  0  0  0  0  0  0  0  0  0  0
   37.7050   25.7650   33.2670 C   0  0  0  0  0  0  0  0  0  0  0  0
   37.6890   27.1490   33.3450 C   0  0  0  0  0  0  0  0  0  0  0  0
   36.7490   27.7340   32.5030 C   0  0  0  0  0  0  0  0  0  0  0  0
   35.9260   27.0300   31.6850 N   0  0  0  0  0  0  0  0  0  0  0  0
   36.0000   25.7040   31.6670 C   0  0  0  0  0  0  0  0  0  0  0  0
   36.8920   25.0520   32.4590 N   0  0  0  0  0  0  0  0  0  0  0  0
   35.1090   24.9590   30.7830 C   0  0  0  0  0  0  0  0  0  0  0  0
   35.1450   23.6980   30.8750 O   0  0  0  0  0  0  0  0  0  0  0  0
   34.2520   25.5380   29.8760 O   0  0  0  0  0  0  0  0  0  0  0  0
   41.5904   25.4082   35.5975 H   0  0  0  0  0  0  0  0  0  0  0  0
   38.9660   22.0251   35.5363 H   0  0  0  0  0  0  0  0  0  0  0  0
   42.3369   22.9905   36.3190 H   0  0  0  0  0  0  0  0  0  0  0  0
   41.5513   20.1132   38.4331 H   0  0  0  0  0  0  0  0  0  0  0  0
   42.5319   20.6148   37.0297 H   0  0  0  0  0  0  0  0  0  0  0  0
   38.3525   27.7261   34.0058 H   0  0  0  0  0  0  0  0  0  0  0  0
   36.6679   28.8310   32.4999 H   0  0  0  0  0  0  0  0  0  0  0  0
   34.2122   26.5236   29.7921 H   0  0  0  0  0  0  0  0  0  0  0  0
  1  2  2  0
  2  7  1  0
  3  2  1  0
  4  3  2  0
  5  4  1  0
  5  6  2  0
  6  1  1  0
  7  8  1  0
  8 10  1  0
  8  9  2  0
  9 11  1  0
 12 13  2  0
 12  5  1  0
 14 13  1  0
 15 14  2  0
 16 15  1  0
 16 17  2  0
 17 12  1  0
 18 19  2  0
 18 16  1  0
 20 18  1  0
  1 21  1  0
  3 22  1  0
  7 23  1  0
 10 24  1  0
 10 25  1  0
 13 26  1  0
 14 27  1  0
 20 28  1  0
M  ISO  5  21  14  22  14  26  14  27  14  28   3
M  END
>  <minimizedAffinity>  (1) 
-5.19553185

>  <minimizedRMSD>  (1) 
1.19825685

$$$$
