
     RDKit          3D

 37 38  0  0  1  0  0  0  0  0999 V2000
   35.9400   29.5670   33.0660 N   0  0  0  0  0  0  0  0  0  0  0  0
   35.5150   29.7250   34.4430 C   0  0  0  0  0  0  0  0  0  0  0  0
   34.0140   29.7680   34.5900 C   0  0  0  0  0  0  0  0  0  0  0  0
   33.4750   30.9190   33.7540 C   0  0  0  0  0  0  0  0  0  0  0  0
   33.8260   30.5940   32.3070 C   0  0  0  0  0  0  0  0  0  0  0  0
   35.3100   30.5160   32.1900 C   0  0  1  0  0  0  0  0  0  0  0  0
   35.9640   31.8800   32.2350 C   0  0  0  0  0  0  0  0  0  0  0  0
   37.0970   31.9970   31.5020 F   0  0  0  0  0  0  0  0  0  0  0  0
   35.0890   32.8790   31.8560 F   0  0  0  0  0  0  0  0  0  0  0  0
   36.2810   32.1390   33.5680 F   0  0  0  0  0  0  0  0  0  0  0  0
   35.7260   28.2610   32.5670 C   0  0  0  0  0  0  0  0  0  0  0  0
   36.9640   27.4730   32.1770 C   0  0  2  0  0  0  0  0  0  0  0  0
   37.9410   26.1200   35.5830 C   0  0  0  0  0  0  0  0  0  0  0  0
   37.1680   26.5000   34.4640 C   0  0  0  0  0  0  0  0  0  0  0  0
   37.7530   27.0780   33.3510 C   0  0  0  0  0  0  0  0  0  0  0  0
   39.1190   27.2560   33.3970 N   0  0  0  0  0  0  0  0  0  0  0  0
   39.8450   26.8940   34.4600 C   0  0  0  0  0  0  0  0  0  0  0  0
   39.2690   26.3240   35.5600 N   0  0  0  0  0  0  0  0  0  0  0  0
   37.7360   28.2740   31.1580 C   0  0  0  0  0  0  0  0  0  0  0  0
   35.9015   28.8785   35.0295 H   0  0  0  0  0  0  0  0  0  0  0  0
   35.9109   30.6858   34.8038 H   0  0  0  0  0  0  0  0  0  0  0  0
   33.5803   28.8202   34.2384 H   0  0  0  0  0  0  0  0  0  0  0  0
   33.7448   29.9139   35.6465 H   0  0  0  0  0  0  0  0  0  0  0  0
   32.3844   30.9989   33.8732 H   0  0  0  0  0  0  0  0  0  0  0  0
   33.9106   31.8796   34.0662 H   0  0  0  0  0  0  0  0  0  0  0  0
   33.3796   29.6293   32.0239 H   0  0  0  0  0  0  0  0  0  0  0  0
   33.4342   31.3745   31.6382 H   0  0  0  0  0  0  0  0  0  0  0  0
   35.4850   30.1053   31.1846 H   0  0  0  0  0  0  0  0  0  0  0  0
   35.1968   27.6892   33.3435 H   0  0  0  0  0  0  0  0  0  0  0  0
   35.1605   28.3954   31.6331 H   0  0  0  0  0  0  0  0  0  0  0  0
   36.6783   26.5182   31.7114 H   0  0  0  0  0  0  0  0  0  0  0  0
   37.4624   25.6631   36.4618 H   0  0  0  0  0  0  0  0  0  0  0  0
   36.0808   26.3335   34.4773 H   0  0  0  0  0  0  0  0  0  0  0  0
   40.9325   27.0592   34.4485 H   0  0  0  0  0  0  0  0  0  0  0  0
   38.4097   28.9731   31.6751 H   0  0  0  0  0  0  0  0  0  0  0  0
   38.3273   27.5932   30.5280 H   0  0  0  0  0  0  0  0  0  0  0  0
   37.0339   28.8398   30.5280 H   0  0  0  0  0  0  0  0  0  0  0  0
  1  2  1  0
  2  3  1  0
  4  3  1  0
  5  4  1  0
  6  7  1  0
  6  5  1  0
  6  1  1  0
  7 10  1  0
  8  7  1  0
  9  7  1  0
 11  1  1  0
 12 11  1  0
 12 15  1  0
 14 13  2  0
 15 16  2  0
 15 14  1  0
 16 17  1  0
 17 18  2  0
 18 13  1  0
 19 12  1  0
  2 20  1  0
  2 21  1  0
  3 22  1  0
  3 23  1  0
  4 24  1  0
  4 25  1  0
  5 26  1  0
  5 27  1  0
  6 28  1  6
 11 29  1  0
 11 30  1  0
 12 31  1  6
 13 32  1  0
 14 33  1  0
 17 34  1  0
 19 35  1  0
 19 36  1  0
 19 37  1  0
M  ISO  8  20  13  21  13  22  13  23  13  24  13  25  13  26  13  27  13
M  ISO  8  28  13  29   8  30   8  31   8  32  14  33  14  34  14  35   8
M  ISO  2  36   8  37   8
M  END
>  <minimizedAffinity>  (1) 
-3.7321558

>  <minimizedRMSD>  (1) 
1.62914002

$$$$
