
     RDKit          3D

 41 43  0  0  1  0  0  0  0  0999 V2000
   35.6150   28.4180   32.8510 C   0  0  0  0  0  0  0  0  0  0  0  0
   35.7880   29.8320   32.9260 N   0  0  0  0  0  0  0  0  0  0  0  0
   35.5290   30.3750   34.2330 C   0  0  0  0  0  0  0  0  0  0  0  0
   34.0680   30.3900   34.5910 C   0  0  0  0  0  0  0  0  0  0  0  0
   33.3040   31.1900   33.5390 C   0  0  0  0  0  0  0  0  0  0  0  0
   33.5080   30.4720   32.2230 C   0  0  0  0  0  0  0  0  0  0  0  0
   34.9600   30.4470   31.9030 C   0  0  1  0  0  0  0  0  0  0  0  0
   35.3830   31.7980   31.4620 C   0  0  0  0  0  0  0  0  0  0  0  0
   36.7440   32.3170   31.4390 C   0  0  0  0  0  0  0  0  0  0  0  0
   36.2080   31.8320   30.1410 C   0  0  0  0  0  0  0  0  0  0  0  0
   36.8200   27.6210   32.3930 C   0  0  2  0  0  0  0  0  0  0  0  0
   38.2980   27.0820   35.8450 C   0  0  0  0  0  0  0  0  0  0  0  0
   37.3630   27.3240   34.8070 C   0  0  0  0  0  0  0  0  0  0  0  0
   37.7680   27.3780   33.4850 C   0  0  0  0  0  0  0  0  0  0  0  0
   39.1070   27.1840   33.2500 N   0  0  0  0  0  0  0  0  0  0  0  0
   39.9930   26.9560   34.2200 C   0  0  0  0  0  0  0  0  0  0  0  0
   39.6080   26.9010   35.5220 N   0  0  0  0  0  0  0  0  0  0  0  0
   37.4230   28.3100   31.1960 C   0  0  0  0  0  0  0  0  0  0  0  0
   35.3368   28.0601   33.8532 H   0  0  0  0  0  0  0  0  0  0  0  0
   34.8446   28.2555   32.0828 H   0  0  0  0  0  0  0  0  0  0  0  0
   36.0647   29.7665   34.9765 H   0  0  0  0  0  0  0  0  0  0  0  0
   35.8742   31.4194   34.2267 H   0  0  0  0  0  0  0  0  0  0  0  0
   33.6852   29.3592   34.6196 H   0  0  0  0  0  0  0  0  0  0  0  0
   33.9334   30.8539   35.5792 H   0  0  0  0  0  0  0  0  0  0  0  0
   32.2339   31.2250   33.7911 H   0  0  0  0  0  0  0  0  0  0  0  0
   33.6662   32.2274   33.4870 H   0  0  0  0  0  0  0  0  0  0  0  0
   33.1305   29.4419   32.3029 H   0  0  0  0  0  0  0  0  0  0  0  0
   32.9615   30.9969   31.4256 H   0  0  0  0  0  0  0  0  0  0  0  0
   35.1246   29.7618   31.0584 H   0  0  0  0  0  0  0  0  0  0  0  0
   34.4649   32.2132   31.9032 H   0  0  0  0  0  0  0  0  0  0  0  0
   36.9123   33.3944   31.5837 H   0  0  0  0  0  0  0  0  0  0  0  0
   37.6506   32.0814   32.0157 H   0  0  0  0  0  0  0  0  0  0  0  0
   35.9527   32.5437   29.3421 H   0  0  0  0  0  0  0  0  0  0  0  0
   36.5155   31.1021   29.3776 H   0  0  0  0  0  0  0  0  0  0  0  0
   36.5097   26.6127   32.0814 H   0  0  0  0  0  0  0  0  0  0  0  0
   37.9702   27.0412   36.8942 H   0  0  0  0  0  0  0  0  0  0  0  0
   36.3016   27.4708   35.0559 H   0  0  0  0  0  0  0  0  0  0  0  0
   41.0524   26.8101   33.9622 H   0  0  0  0  0  0  0  0  0  0  0  0
   38.1122   29.0975   31.5349 H   0  0  0  0  0  0  0  0  0  0  0  0
   37.9743   27.5762   30.5897 H   0  0  0  0  0  0  0  0  0  0  0  0
   36.6226   28.7592   30.5897 H   0  0  0  0  0  0  0  0  0  0  0  0
  1  2  1  0
  2  3  1  0
  3  4  1  0
  5  4  1  0
  6  5  1  0
  7  6  1  0
  7  2  1  0
  8  7  1  0
  9  8  1  0
 10  9  1  0
 10  8  1  0
 11  1  1  0
 11 14  1  0
 13 12  2  0
 14 13  1  0
 15 14  2  0
 15 16  1  0
 16 17  2  0
 17 12  1  0
 18 11  1  0
  1 19  1  0
  1 20  1  0
  3 21  1  0
  3 22  1  0
  4 23  1  0
  4 24  1  0
  5 25  1  0
  5 26  1  0
  6 27  1  0
  6 28  1  0
  7 29  1  6
  8 30  1  0
  9 31  1  0
  9 32  1  0
 10 33  1  0
 10 34  1  0
 11 35  1  6
 12 36  1  0
 13 37  1  0
 16 38  1  0
 18 39  1  0
 18 40  1  0
 18 41  1  0
M  ISO  8  19   8  20   8  21  13  22  13  23  13  24  13  25  13  26  13
M  ISO  8  27  13  28  13  29  13  30  13  31  13  32  13  33  13  34  13
M  ISO  7  35   8  36  14  37  14  38  14  39   8  40   8  41   8
M  END
>  <minimizedAffinity>  (1) 
-3.75851512

>  <minimizedRMSD>  (1) 
2.02850556

$$$$
