
     RDKit          3D

 35 36  0  0  1  0  0  0  0  0999 V2000
   35.7240   28.1570   32.5140 C   0  0  0  0  0  0  0  0  0  0  0  0
   35.8890   29.4980   32.9090 N   0  0  0  0  0  0  0  0  0  0  0  0
   35.5810   29.7640   34.2910 C   0  0  0  0  0  0  0  0  0  0  0  0
   34.0940   29.7270   34.5700 C   0  0  0  0  0  0  0  0  0  0  0  0
   33.4270   30.7890   33.6990 C   0  0  0  0  0  0  0  0  0  0  0  0
   33.6610   30.3390   32.2560 C   0  0  0  0  0  0  0  0  0  0  0  0
   35.1460   30.3670   32.0250 C   0  0  1  0  0  0  0  0  0  0  0  0
   35.7710   32.0450   32.3370 S   0  0  0  0  0  0  0  0  0  0  0  0
   36.9930   27.3950   32.1670 C   0  0  2  0  0  0  0  0  0  0  0  0
   37.9400   26.1650   35.6250 C   0  0  0  0  0  0  0  0  0  0  0  0
   37.1750   26.5060   34.4860 C   0  0  0  0  0  0  0  0  0  0  0  0
   37.7700   27.0440   33.3580 C   0  0  0  0  0  0  0  0  0  0  0  0
   39.1370   27.2250   33.4080 N   0  0  0  0  0  0  0  0  0  0  0  0
   39.8620   26.9010   34.4850 C   0  0  0  0  0  0  0  0  0  0  0  0
   39.2790   26.3690   35.6050 N   0  0  0  0  0  0  0  0  0  0  0  0
   37.7660   28.1990   31.1480 C   0  0  0  0  0  0  0  0  0  0  0  0
   35.2278   27.6237   33.3382 H   0  0  0  0  0  0  0  0  0  0  0  0
   35.1415   28.1959   31.5817 H   0  0  0  0  0  0  0  0  0  0  0  0
   36.0762   29.0056   34.9152 H   0  0  0  0  0  0  0  0  0  0  0  0
   35.9402   30.7770   34.5249 H   0  0  0  0  0  0  0  0  0  0  0  0
   33.6918   28.7336   34.3222 H   0  0  0  0  0  0  0  0  0  0  0  0
   33.8985   29.9258   35.6341 H   0  0  0  0  0  0  0  0  0  0  0  0
   32.3498   30.8427   33.9152 H   0  0  0  0  0  0  0  0  0  0  0  0
   33.8415   31.7905   33.8868 H   0  0  0  0  0  0  0  0  0  0  0  0
   33.2747   29.3194   32.1104 H   0  0  0  0  0  0  0  0  0  0  0  0
   33.1400   31.0003   31.5480 H   0  0  0  0  0  0  0  0  0  0  0  0
   35.2899   30.0312   30.9874 H   0  0  0  0  0  0  0  0  0  0  0  0
   35.8506   32.2588   33.6879 H   0  0  0  0  0  0  0  0  0  0  0  0
   36.7391   26.4235   31.7180 H   0  0  0  0  0  0  0  0  0  0  0  0
   37.4543   25.7397   36.5156 H   0  0  0  0  0  0  0  0  0  0  0  0
   36.0875   26.3408   34.4964 H   0  0  0  0  0  0  0  0  0  0  0  0
   40.9496   27.0653   34.4709 H   0  0  0  0  0  0  0  0  0  0  0  0
   38.4384   28.8984   31.6663 H   0  0  0  0  0  0  0  0  0  0  0  0
   38.3586   27.5195   30.5179 H   0  0  0  0  0  0  0  0  0  0  0  0
   37.0638   28.7645   30.5179 H   0  0  0  0  0  0  0  0  0  0  0  0
  1  2  1  0
  2  3  1  0
  3  4  1  0
  5  4  1  0
  6  5  1  0
  7  6  1  0
  7  8  1  0
  7  2  1  0
  9  1  1  0
  9 12  1  0
 11 10  2  0
 12 13  2  0
 12 11  1  0
 13 14  1  0
 14 15  2  0
 15 10  1  0
 16  9  1  0
  1 17  1  0
  1 18  1  0
  3 19  1  0
  3 20  1  0
  4 21  1  0
  4 22  1  0
  5 23  1  0
  5 24  1  0
  6 25  1  0
  6 26  1  0
  7 27  1  6
  8 28  1  0
  9 29  1  6
 10 30  1  0
 11 31  1  0
 14 32  1  0
 16 33  1  0
 16 34  1  0
 16 35  1  0
M  ISO  8  17   8  18   8  19  13  20  13  21  13  22  13  23  13  24  13
M  ISO  8  25  13  26  13  27  13  28  11  29   8  30  14  31  14  32  14
M  ISO  3  33   8  34   8  35   8
M  END
>  <minimizedAffinity>  (1) 
-3.41082621

>  <minimizedRMSD>  (1) 
1.64878047

$$$$
