
     RDKit          3D

 18 19  0  0  0  0  0  0  0  0999 V2000
   39.6500   24.5120   34.4140 C   0  0  0  0  0  0  0  0  0  0  0  0
   39.4610   24.0470   35.7190 C   0  0  0  0  0  0  0  0  0  0  0  0
   38.3850   24.5450   36.4410 C   0  0  0  0  0  0  0  0  0  0  0  0
   37.5620   25.4510   35.8730 N   0  0  0  0  0  0  0  0  0  0  0  0
   37.7590   25.8900   34.6060 C   0  0  0  0  0  0  0  0  0  0  0  0
   38.7980   25.4210   33.8870 N   0  0  0  0  0  0  0  0  0  0  0  0
   40.3630   23.0910   36.2640 N   0  0  0  0  0  0  0  0  0  0  0  0
   41.6920   23.3850   36.2050 C   0  0  0  0  0  0  0  0  0  0  0  0
   42.3960   22.3910   36.7550 N   0  0  0  0  0  0  0  0  0  0  0  0
   41.5120   21.4650   37.1620 C   0  0  0  0  0  0  0  0  0  0  0  0
   40.2700   21.9030   36.8560 N   0  0  0  0  0  0  0  0  0  0  0  0
   38.2490   24.0260   37.7750 C   0  0  0  0  0  0  0  0  0  0  0  0
   38.0140   24.7060   38.8150 O   0  0  0  0  0  0  0  0  0  0  0  0
   40.4932   24.1379   33.8147 H   0  0  0  0  0  0  0  0  0  0  0  0
   37.0722   26.6277   34.1653 H   0  0  0  0  0  0  0  0  0  0  0  0
   42.1202   24.3006   35.7710 H   0  0  0  0  0  0  0  0  0  0  0  0
   41.7564   20.5144   37.6586 H   0  0  0  0  0  0  0  0  0  0  0  0
   38.3594   22.9390   37.9025 H   0  0  0  0  0  0  0  0  0  0  0  0
  1  2  2  0
  2  7  1  0
  2  3  1  0
  3 12  1  0
  4  3  2  0
  5  4  1  0
  6  1  1  0
  6  5  2  0
  7 11  1  0
  8  7  1  0
  8  9  2  0
  9 10  1  0
 11 10  2  0
 12 13  2  0
  1 14  1  0
  5 15  1  0
  8 16  1  0
 10 17  1  0
 12 18  1  0
M  ISO  5  14  14  15  14  16  14  17  14  18   6
M  END
>  <minimizedAffinity>  (1) 
-3.34079599

>  <minimizedRMSD>  (1) 
3.51082039

$$$$
