
     RDKit          3D

 18 18  0  0  0  0  0  0  0  0999 V2000
   37.8390   22.7620   36.1060 C   0  0  0  0  0  0  0  0  0  0  0  0
   37.9670   24.0740   36.5900 C   0  0  0  0  0  0  0  0  0  0  0  0
   38.1230   25.0540   35.6320 C   0  0  0  0  0  0  0  0  0  0  0  0
   38.1430   24.7190   34.3050 N   0  0  0  0  0  0  0  0  0  0  0  0
   38.0170   23.4450   33.8880 C   0  0  0  0  0  0  0  0  0  0  0  0
   37.8650   22.4660   34.7950 N   0  0  0  0  0  0  0  0  0  0  0  0
   38.2540   26.4050   36.0980 C   0  0  0  0  0  0  0  0  0  0  0  0
   39.1380   27.2160   35.7470 O   0  0  0  0  0  0  0  0  0  0  0  0
   37.9270   24.2670   38.0510 C   0  0  0  0  0  0  0  0  0  0  0  0
   38.8850   23.3620   38.7780 C   0  0  0  0  0  0  0  0  0  0  0  0
   37.7123   21.9430   36.8293 H   0  0  0  0  0  0  0  0  0  0  0  0
   38.0383   23.2080   32.8140 H   0  0  0  0  0  0  0  0  0  0  0  0
   37.5110   26.7579   36.8284 H   0  0  0  0  0  0  0  0  0  0  0  0
   38.1885   25.3115   38.2762 H   0  0  0  0  0  0  0  0  0  0  0  0
   36.9106   24.0219   38.3930 H   0  0  0  0  0  0  0  0  0  0  0  0
   38.7542   23.4855   39.8632 H   0  0  0  0  0  0  0  0  0  0  0  0
   38.6837   22.3166   38.5011 H   0  0  0  0  0  0  0  0  0  0  0  0
   39.9172   23.6224   38.5011 H   0  0  0  0  0  0  0  0  0  0  0  0
  1  2  2  0
  2  9  1  0
  3  7  1  0
  3  2  1  0
  4  3  2  0
  5  4  1  0
  5  6  2  0
  6  1  1  0
  8  7  2  0
  9 10  1  0
  1 11  1  0
  5 12  1  0
  7 13  1  0
  9 14  1  0
  9 15  1  0
 10 16  1  0
 10 17  1  0
 10 18  1  0
M  ISO  8  11  14  12  14  13   6  14   8  15   8  16   8  17   8  18   8
M  END
>  <minimizedAffinity>  (1) 
-3.22397542

>  <minimizedRMSD>  (1) 
2.91684675

$$$$
