
     RDKit          3D

 15 15  0  0  0  0  0  0  0  0999 V2000
   37.7340   24.4900   36.7450 C   0  0  0  0  0  0  0  0  0  0  0  0
   38.6560   25.1690   35.9190 C   0  0  0  0  0  0  0  0  0  0  0  0
   39.7070   24.5180   35.3170 C   0  0  0  0  0  0  0  0  0  0  0  0
   39.8070   23.2010   35.5590 N   0  0  0  0  0  0  0  0  0  0  0  0
   38.9410   22.5400   36.3410 C   0  0  0  0  0  0  0  0  0  0  0  0
   37.9100   23.1590   36.9360 N   0  0  0  0  0  0  0  0  0  0  0  0
   40.5360   25.3610   34.5200 C   0  0  0  0  0  0  0  0  0  0  0  0
   41.2300   26.3430   34.9410 O   0  0  0  0  0  0  0  0  0  0  0  0
   38.2460   26.5640   35.8690 C   0  0  0  0  0  0  0  0  0  0  0  0
   37.2680   27.1450   35.3370 O   0  0  0  0  0  0  0  0  0  0  0  0
   38.6690   27.7910   36.3210 O   0  0  0  0  0  0  0  0  0  0  0  0
   36.8979   25.0246   37.2194 H   0  0  0  0  0  0  0  0  0  0  0  0
   39.0798   21.4603   36.4990 H   0  0  0  0  0  0  0  0  0  0  0  0
   40.5804   25.1435   33.4426 H   0  0  0  0  0  0  0  0  0  0  0  0
   38.1442   28.6037   36.1109 H   0  0  0  0  0  0  0  0  0  0  0  0
  1  6  2  0
  2  1  1  0
  3  4  1  0
  3  2  2  0
  4  5  2  0
  5  6  1  0
  7  8  2  0
  7  3  1  0
  9  2  1  0
  9 11  1  0
 10  9  2  0
  1 12  1  0
  5 13  1  0
  7 14  1  0
 11 15  1  0
M  ISO  4  12  14  13  14  14   6  15   3
M  END
>  <minimizedAffinity>  (1) 
-3.397717

>  <minimizedRMSD>  (1) 
4.43560457

$$$$
