
     RDKit          3D

 35 36  0  0  1  0  0  0  0  0999 V2000
   37.1090   26.2900   34.5700 C   0  0  0  0  0  0  0  0  0  0  0  0
   36.2880   29.7740   32.3390 C   0  0  0  0  0  0  0  0  0  0  0  0
   37.0080   28.7410   31.8010 C   0  0  0  0  0  0  0  0  0  0  0  0
   37.2450   27.6150   32.5780 C   0  0  0  0  0  0  0  0  0  0  0  0
   36.7600   27.5500   33.8730 C   0  0  0  0  0  0  0  0  0  0  0  0
   36.0380   28.5770   34.4210 C   0  0  0  0  0  0  0  0  0  0  0  0
   35.7940   29.7030   33.6560 C   0  0  0  0  0  0  0  0  0  0  0  0
   35.9670   31.1780   31.3470 S   0  0  0  0  0  0  0  0  0  0  0  0
   36.2640   30.7910   29.8910 O   0  0  0  0  0  0  0  0  0  0  0  0
   36.8600   32.3100   31.7160 O   0  0  0  0  0  0  0  0  0  0  0  0
   34.2470   31.5110   31.3860 C   0  0  0  0  0  0  0  0  0  0  0  0
   33.4770   30.3670   31.4340 F   0  0  0  0  0  0  0  0  0  0  0  0
   33.9120   32.3290   30.3230 F   0  0  0  0  0  0  0  0  0  0  0  0
   33.9900   32.2290   32.5380 F   0  0  0  0  0  0  0  0  0  0  0  0
   38.5490   26.2160   34.9810 C   0  0  2  0  0  0  0  0  0  0  0  0
   40.4340   23.2520   36.0250 C   0  0  0  0  0  0  0  0  0  0  0  0
   39.5720   22.6290   36.9660 C   0  0  0  0  0  0  0  0  0  0  0  0
   38.3390   23.2450   37.2330 C   0  0  0  0  0  0  0  0  0  0  0  0
   38.0390   24.4120   36.5710 N   0  0  0  0  0  0  0  0  0  0  0  0
   38.8780   24.9690   35.6900 C   0  0  0  0  0  0  0  0  0  0  0  0
   40.0760   24.3990   35.4120 N   0  0  0  0  0  0  0  0  0  0  0  0
   38.8230   27.3870   35.9150 C   0  0  0  0  0  0  0  0  0  0  0  0
   36.8952   25.4477   33.8956 H   0  0  0  0  0  0  0  0  0  0  0  0
   36.5064   26.2499   35.4894 H   0  0  0  0  0  0  0  0  0  0  0  0
   37.3917   28.8021   30.7719 H   0  0  0  0  0  0  0  0  0  0  0  0
   37.8192   26.7731   32.1639 H   0  0  0  0  0  0  0  0  0  0  0  0
   35.6590   28.5074   35.4513 H   0  0  0  0  0  0  0  0  0  0  0  0
   35.2162   30.5402   34.0747 H   0  0  0  0  0  0  0  0  0  0  0  0
   39.1663   26.2481   34.0711 H   0  0  0  0  0  0  0  0  0  0  0  0
   41.4064   22.7932   35.7929 H   0  0  0  0  0  0  0  0  0  0  0  0
   39.8609   21.6945   37.4692 H   0  0  0  0  0  0  0  0  0  0  0  0
   37.6321   22.8058   37.9524 H   0  0  0  0  0  0  0  0  0  0  0  0
   38.7440   27.0496   36.9590 H   0  0  0  0  0  0  0  0  0  0  0  0
   39.8360   27.7740   35.7304 H   0  0  0  0  0  0  0  0  0  0  0  0
   38.0869   28.1833   35.7304 H   0  0  0  0  0  0  0  0  0  0  0  0
  1 15  1  0
  2  7  2  0
  3  2  1  0
  3  4  2  0
  4  5  1  0
  5  6  2  0
  5  1  1  0
  7  6  1  0
  8 11  1  0
  8 10  2  0
  8  2  1  0
  9  8  2  0
 11 12  1  0
 11 14  1  0
 13 11  1  0
 15 20  1  0
 15 22  1  0
 16 17  2  0
 17 18  1  0
 19 18  2  0
 20 19  1  0
 21 20  2  0
 21 16  1  0
  1 23  1  0
  1 24  1  0
  3 25  1  0
  4 26  1  0
  6 27  1  0
  7 28  1  0
 15 29  1  6
 16 30  1  0
 17 31  1  0
 18 32  1  0
 22 33  1  0
 22 34  1  0
 22 35  1  0
M  ISO  8  23   8  24   8  25  14  26  14  27  14  28  14  29   8  30  14
M  ISO  5  31  14  32  14  33   8  34   8  35   8
M  END
>  <minimizedAffinity>  (1) 
-4.59354496

>  <minimizedRMSD>  (1) 
1.69322193

$$$$
