
     RDKit          3D

 13 13  0  0  0  0  0  0  0  0999 V2000
   40.8790   21.9870   37.5340 C   0  0  0  0  0  0  0  0  0  0  0  0
   39.7680   22.8590   37.5920 C   0  0  0  0  0  0  0  0  0  0  0  0
   39.2670   23.3180   36.3850 C   0  0  0  0  0  0  0  0  0  0  0  0
   39.8260   22.9390   35.2180 N   0  0  0  0  0  0  0  0  0  0  0  0
   40.8890   22.1010   35.1930 C   0  0  0  0  0  0  0  0  0  0  0  0
   41.4070   21.6330   36.3410 N   0  0  0  0  0  0  0  0  0  0  0  0
   38.1450   24.1950   36.5380 C   0  0  0  0  0  0  0  0  0  0  0  0
   38.1220   25.3250   37.1140 O   0  0  0  0  0  0  0  0  0  0  0  0
   39.2970   23.1650   38.8440 O   0  0  0  0  0  0  0  0  0  0  0  0
   41.3160   21.5946   38.4641 H   0  0  0  0  0  0  0  0  0  0  0  0
   41.3297   21.8025   34.2304 H   0  0  0  0  0  0  0  0  0  0  0  0
   37.1942   23.8490   36.1065 H   0  0  0  0  0  0  0  0  0  0  0  0
   38.5209   23.7710   38.9464 H   0  0  0  0  0  0  0  0  0  0  0  0
  1  2  2  0
  2  9  1  0
  3  7  1  0
  3  2  1  0
  4  3  2  0
  5  4  1  0
  5  6  2  0
  6  1  1  0
  7  8  2  0
  1 10  1  0
  5 11  1  0
  7 12  1  0
  9 13  1  0
M  ISO  4  10  14  11  14  12   6  13   3
M  END
>  <minimizedAffinity>  (1) 
-2.93015003

>  <minimizedRMSD>  (1) 
1.18577504

$$$$
