
     RDKit          3D

 13 13  0  0  0  0  0  0  0  0999 V2000
   38.2190   24.7320   34.3790 C   0  0  0  0  0  0  0  0  0  0  0  0
   37.8330   26.0830   34.3070 C   0  0  0  0  0  0  0  0  0  0  0  0
   37.0480   26.4520   33.2260 C   0  0  0  0  0  0  0  0  0  0  0  0
   36.6880   25.5320   32.2990 N   0  0  0  0  0  0  0  0  0  0  0  0
   37.0820   24.2360   32.4030 C   0  0  0  0  0  0  0  0  0  0  0  0
   37.8430   23.8490   33.4420 N   0  0  0  0  0  0  0  0  0  0  0  0
   36.6710   27.8390   33.1810 C   0  0  0  0  0  0  0  0  0  0  0  0
   36.8820   28.6230   32.2250 O   0  0  0  0  0  0  0  0  0  0  0  0
   38.3680   27.2060   35.5870 S   0  0  0  0  0  0  0  0  0  0  0  0
   38.8414   24.3932   35.2203 H   0  0  0  0  0  0  0  0  0  0  0  0
   36.7792   23.5048   31.6390 H   0  0  0  0  0  0  0  0  0  0  0  0
   36.1528   28.2477   34.0610 H   0  0  0  0  0  0  0  0  0  0  0  0
   38.1065   26.6571   36.8147 H   0  0  0  0  0  0  0  0  0  0  0  0
  2  1  2  0
  2  9  1  0
  3  2  1  0
  4  5  1  0
  4  3  2  0
  5  6  2  0
  6  1  1  0
  7  3  1  0
  8  7  2  0
  1 10  1  0
  5 11  1  0
  7 12  1  0
  9 13  1  0
M  ISO  4  10  14  11  14  12   6  13  11
M  END
>  <minimizedAffinity>  (1) 
-2.33964705

>  <minimizedRMSD>  (1) 
5.57325363

$$$$
