
     RDKit          3D

 25 26  0  0  0  0  0  0  0  0999 V2000
   37.3920   26.8940   33.5730 C   0  0  0  0  0  0  0  0  0  0  0  0
   37.9410   26.1870   34.6590 C   0  0  0  0  0  0  0  0  0  0  0  0
   38.0160   24.8040   34.5320 C   0  0  0  0  0  0  0  0  0  0  0  0
   37.5630   24.2210   33.3870 N   0  0  0  0  0  0  0  0  0  0  0  0
   37.0420   24.9310   32.3660 C   0  0  0  0  0  0  0  0  0  0  0  0
   36.9630   26.2760   32.4770 N   0  0  0  0  0  0  0  0  0  0  0  0
   38.3650   27.0280   35.8000 C   0  0  0  0  0  0  0  0  0  0  0  0
   38.2150   26.3880   37.0300 F   0  0  0  0  0  0  0  0  0  0  0  0
   39.7470   27.1800   35.6510 F   0  0  0  0  0  0  0  0  0  0  0  0
   37.8250   28.2880   35.7670 F   0  0  0  0  0  0  0  0  0  0  0  0
   38.5790   24.0740   35.6360 C   0  0  0  0  0  0  0  0  0  0  0  0
   37.8760   23.6410   36.6030 O   0  0  0  0  0  0  0  0  0  0  0  0
   39.9610   23.6860   35.8940 C   0  0  0  0  0  0  0  0  0  0  0  0
   41.0390   24.2250   35.2380 C   0  0  0  0  0  0  0  0  0  0  0  0
   42.3520   23.8410   35.5200 C   0  0  0  0  0  0  0  0  0  0  0  0
   42.6140   22.8910   36.4820 C   0  0  0  0  0  0  0  0  0  0  0  0
   41.5790   22.3210   37.1640 C   0  0  0  0  0  0  0  0  0  0  0  0
   40.3170   22.7310   36.8520 C   0  0  0  0  0  0  0  0  0  0  0  0
   37.3157   27.9897   33.6328 H   0  0  0  0  0  0  0  0  0  0  0  0
   36.6868   24.4237   31.4569 H   0  0  0  0  0  0  0  0  0  0  0  0
   40.8630   24.9858   34.4633 H   0  0  0  0  0  0  0  0  0  0  0  0
   43.1847   24.3018   34.9684 H   0  0  0  0  0  0  0  0  0  0  0  0
   43.6506   22.5938   36.6990 H   0  0  0  0  0  0  0  0  0  0  0  0
   41.7563   21.5588   37.9370 H   0  0  0  0  0  0  0  0  0  0  0  0
   39.4937   22.2626   37.4112 H   0  0  0  0  0  0  0  0  0  0  0  0
  1  2  2  0
  2  7  1  0
  3  2  1  0
  3 11  1  0
  4  3  2  0
  5  6  2  0
  5  4  1  0
  6  1  1  0
  7  8  1  0
  9  7  1  0
 10  7  1  0
 11 13  1  0
 11 12  2  0
 13 18  2  0
 14 15  2  0
 14 13  1  0
 15 16  1  0
 16 17  2  0
 18 17  1  0
  1 19  1  0
  5 20  1  0
 14 21  1  0
 15 22  1  0
 16 23  1  0
 17 24  1  0
 18 25  1  0
M  ISO  7  19  14  20  14  21  14  22  14  23  14  24  14  25  14
M  END
>  <minimizedAffinity>  (1) 
-5.01294184

>  <minimizedRMSD>  (1) 
2.58055425

$$$$
