
     RDKit          3D

 26 27  0  0  1  0  0  0  0  0999 V2000
   37.3980   26.8900   33.5640 C   0  0  0  0  0  0  0  0  0  0  0  0
   37.9380   26.1990   34.6560 C   0  0  0  0  0  0  0  0  0  0  0  0
   38.0170   24.8030   34.5330 C   0  0  0  0  0  0  0  0  0  0  0  0
   37.5720   24.2370   33.3890 N   0  0  0  0  0  0  0  0  0  0  0  0
   37.0620   24.9150   32.3640 C   0  0  0  0  0  0  0  0  0  0  0  0
   36.9830   26.2620   32.4730 N   0  0  0  0  0  0  0  0  0  0  0  0
   38.3540   27.0380   35.7990 C   0  0  0  0  0  0  0  0  0  0  0  0
   38.2080   26.3990   37.0190 F   0  0  0  0  0  0  0  0  0  0  0  0
   39.7350   27.2000   35.6480 F   0  0  0  0  0  0  0  0  0  0  0  0
   37.8050   28.2940   35.7620 F   0  0  0  0  0  0  0  0  0  0  0  0
   38.5920   24.0760   35.6310 C   0  0  0  0  0  0  0  0  0  0  0  0
   37.8780   23.6320   36.6060 O   0  0  0  0  0  0  0  0  0  0  0  0
   39.9820   23.6940   35.8830 C   0  0  0  0  0  0  0  0  0  0  0  0
   41.0320   24.2640   35.2140 C   0  0  0  0  0  0  0  0  0  0  0  0
   42.3650   23.9290   35.4740 C   0  0  0  0  0  0  0  0  0  0  0  0
   42.6820   22.9970   36.4330 C   0  0  0  0  0  0  0  0  0  0  0  0
   41.6230   22.4430   37.0870 C   0  0  0  0  0  0  0  0  0  0  0  0
   40.3640   22.7950   36.8010 N   0  0  0  0  0  0  0  0  0  0  0  0
   37.3159   27.9858   33.6132 H   0  0  0  0  0  0  0  0  0  0  0  0
   36.7157   24.3976   31.4572 H   0  0  0  0  0  0  0  0  0  0  0  0
   38.4305   23.1317   35.0904 H   0  0  0  0  0  0  0  0  0  0  0  0
   38.2953   23.8915   37.4655 H   0  0  0  0  0  0  0  0  0  0  0  0
   40.8185   25.0162   34.4403 H   0  0  0  0  0  0  0  0  0  0  0  0
   43.1691   24.4174   34.9041 H   0  0  0  0  0  0  0  0  0  0  0  0
   43.7218   22.7169   36.6576 H   0  0  0  0  0  0  0  0  0  0  0  0
   41.8069   21.6898   37.8673 H   0  0  0  0  0  0  0  0  0  0  0  0
  1  2  2  0
  2  7  1  0
  3  2  1  0
  3 11  1  0
  4  3  2  0
  5  6  2  0
  5  4  1  0
  6  1  1  0
  7  8  1  0
  9  7  1  0
 10  7  1  0
 11 13  1  0
 11 12  1  0
 13 18  2  0
 14 15  2  0
 14 13  1  0
 15 16  1  0
 16 17  2  0
 18 17  1  0
  1 19  1  0
  5 20  1  0
 11 21  1  0
 12 22  1  0
 14 23  1  0
 15 24  1  0
 16 25  1  0
 17 26  1  0
M  ISO  8  19  14  20  14  21   8  22   3  23  14  24  14  25  14  26  14
M  END
>  <minimizedAffinity>  (1) 
-4.78739786

>  <minimizedRMSD>  (1) 
2.5394268

$$$$
