
     RDKit          3D

 17 17  0  0  0  0  0  0  0  0999 V2000
   38.1030   23.5690   33.8480 C   0  0  0  0  0  0  0  0  0  0  0  0
   38.4120   23.8480   35.1850 C   0  0  0  0  0  0  0  0  0  0  0  0
   38.0000   22.9180   36.1280 C   0  0  0  0  0  0  0  0  0  0  0  0
   37.3350   21.8170   35.7010 N   0  0  0  0  0  0  0  0  0  0  0  0
   37.0460   21.5620   34.4280 C   0  0  0  0  0  0  0  0  0  0  0  0
   37.4440   22.4630   33.5040 N   0  0  0  0  0  0  0  0  0  0  0  0
   38.3270   23.2190   37.5000 C   0  0  0  0  0  0  0  0  0  0  0  0
   37.6270   23.9540   38.2410 O   0  0  0  0  0  0  0  0  0  0  0  0
   39.5400   22.6040   37.9780 N   0  0  0  0  0  0  0  0  0  0  0  0
   39.1490   25.1240   35.3860 C   0  0  0  0  0  0  0  0  0  0  0  0
   38.6160   25.8740   36.4370 F   0  0  0  0  0  0  0  0  0  0  0  0
   40.4180   24.7430   35.8340 F   0  0  0  0  0  0  0  0  0  0  0  0
   39.3130   25.8420   34.2410 F   0  0  0  0  0  0  0  0  0  0  0  0
   38.4108   24.2778   33.0651 H   0  0  0  0  0  0  0  0  0  0  0  0
   36.5026   20.6505   34.1383 H   0  0  0  0  0  0  0  0  0  0  0  0
   39.8513   22.7638   38.9467 H   0  0  0  0  0  0  0  0  0  0  0  0
   40.0954   22.0047   37.3508 H   0  0  0  0  0  0  0  0  0  0  0  0
  1  2  2  0
  2 10  1  0
  2  3  1  0
  3  7  1  0
  4  3  2  0
  5  4  1  0
  6  1  1  0
  6  5  2  0
  7  9  1  0
  7  8  2  0
 10 12  1  0
 10 11  1  0
 13 10  1  0
  1 14  1  0
  5 15  1  0
  9 16  1  0
  9 17  1  0
M  ISO  2  14  14  15  14
M  END
>  <minimizedAffinity>  (1) 
-3.64126563

>  <minimizedRMSD>  (1) 
0.967141747

$$$$
