
     RDKit          3D

 16 16  0  0  0  0  0  0  0  0999 V2000
   38.1110   23.5240   33.8460 C   0  0  0  0  0  0  0  0  0  0  0  0
   38.4350   23.7430   35.1860 C   0  0  0  0  0  0  0  0  0  0  0  0
   37.9680   22.7860   36.1020 C   0  0  0  0  0  0  0  0  0  0  0  0
   37.2520   21.7360   35.6480 N   0  0  0  0  0  0  0  0  0  0  0  0
   36.9580   21.5550   34.3530 C   0  0  0  0  0  0  0  0  0  0  0  0
   37.3950   22.4600   33.4550 N   0  0  0  0  0  0  0  0  0  0  0  0
   39.2280   24.9640   35.4450 C   0  0  0  0  0  0  0  0  0  0  0  0
   38.6940   25.7430   36.4740 F   0  0  0  0  0  0  0  0  0  0  0  0
   40.4540   24.5020   35.9360 F   0  0  0  0  0  0  0  0  0  0  0  0
   39.4620   25.6970   34.3070 F   0  0  0  0  0  0  0  0  0  0  0  0
   38.3200   23.0370   37.4770 C   0  0  0  0  0  0  0  0  0  0  0  0
   37.6340   23.6760   38.2890 O   0  0  0  0  0  0  0  0  0  0  0  0
   39.4310   22.6730   38.2300 O   0  0  0  0  0  0  0  0  0  0  0  0
   38.4530   24.2451   33.0890 H   0  0  0  0  0  0  0  0  0  0  0  0
   36.3705   20.6834   34.0288 H   0  0  0  0  0  0  0  0  0  0  0  0
   39.4955   22.9440   39.1800 H   0  0  0  0  0  0  0  0  0  0  0  0
  1  2  2  0
  2  7  1  0
  2  3  1  0
  3 11  1  0
  4  3  2  0
  5  4  1  0
  6  1  1  0
  6  5  2  0
  7  9  1  0
  7  8  1  0
 10  7  1  0
 11 13  1  0
 11 12  2  0
  1 14  1  0
  5 15  1  0
 13 16  1  0
M  ISO  3  14  14  15  14  16   3
M  END
>  <minimizedAffinity>  (1) 
-3.59661078

>  <minimizedRMSD>  (1) 
1.0538379

$$$$
