
     RDKit          3D

 31 32  0  0  0  0  0  0  0  0999 V2000
   36.6290   27.8230   33.3640 C   0  0  0  0  0  0  0  0  0  0  0  0
   37.4110   26.8060   33.9230 C   0  0  0  0  0  0  0  0  0  0  0  0
   37.4270   25.5630   33.2470 C   0  0  0  0  0  0  0  0  0  0  0  0
   36.6900   25.4550   32.1170 N   0  0  0  0  0  0  0  0  0  0  0  0
   35.9520   26.4510   31.6100 C   0  0  0  0  0  0  0  0  0  0  0  0
   35.9280   27.6340   32.2420 N   0  0  0  0  0  0  0  0  0  0  0  0
   38.1220   27.1830   35.1670 C   0  0  0  0  0  0  0  0  0  0  0  0
   38.1260   26.1560   36.1100 F   0  0  0  0  0  0  0  0  0  0  0  0
   39.4510   27.3350   34.7920 F   0  0  0  0  0  0  0  0  0  0  0  0
   37.6770   28.3710   35.6940 F   0  0  0  0  0  0  0  0  0  0  0  0
   38.2380   24.5490   33.8490 C   0  0  0  0  0  0  0  0  0  0  0  0
   37.8360   23.7580   34.7200 O   0  0  0  0  0  0  0  0  0  0  0  0
   39.5710   24.2090   33.6380 O   0  0  0  0  0  0  0  0  0  0  0  0
   43.0840   24.3230   35.8440 N   0  0  0  0  0  0  0  0  0  0  0  0
   42.0950   23.3550   36.1730 C   0  0  0  0  0  0  0  0  0  0  0  0
   41.1640   22.9860   35.0310 C   0  0  0  0  0  0  0  0  0  0  0  0
   40.5910   24.3080   34.5590 C   0  0  0  0  0  0  0  0  0  0  0  0
   41.7780   25.0360   33.9540 C   0  0  0  0  0  0  0  0  0  0  0  0
   42.6440   25.4700   35.1230 C   0  0  0  0  0  0  0  0  0  0  0  0
   36.5903   28.8035   33.8611 H   0  0  0  0  0  0  0  0  0  0  0  0
   35.3728   26.3009   30.6870 H   0  0  0  0  0  0  0  0  0  0  0  0
   43.5045   24.6510   36.7252 H   0  0  0  0  0  0  0  0  0  0  0  0
   42.6078   22.4407   36.5062 H   0  0  0  0  0  0  0  0  0  0  0  0
   41.4654   23.8068   36.9537 H   0  0  0  0  0  0  0  0  0  0  0  0
   41.7208   22.4931   34.2204 H   0  0  0  0  0  0  0  0  0  0  0  0
   40.3801   22.2808   35.3444 H   0  0  0  0  0  0  0  0  0  0  0  0
   40.1207   24.8286   35.4062 H   0  0  0  0  0  0  0  0  0  0  0  0
   42.3411   24.3632   33.2905 H   0  0  0  0  0  0  0  0  0  0  0  0
   41.4567   25.8971   33.3496 H   0  0  0  0  0  0  0  0  0  0  0  0
   43.5173   26.0227   34.7462 H   0  0  0  0  0  0  0  0  0  0  0  0
   42.0577   26.1183   35.7908 H   0  0  0  0  0  0  0  0  0  0  0  0
  1  2  2  0
  2  7  1  0
  3 11  1  0
  3  2  1  0
  4  3  2  0
  5  4  1  0
  5  6  2  0
  6  1  1  0
  7 10  1  0
  7  8  1  0
  9  7  1  0
 11 12  2  0
 13 11  1  0
 13 17  1  0
 14 15  1  0
 16 15  1  0
 17 16  1  0
 18 17  1  0
 18 19  1  0
 19 14  1  0
  1 20  1  0
  5 21  1  0
 14 22  1  0
 15 23  1  0
 15 24  1  0
 16 25  1  0
 16 26  1  0
 17 27  1  0
 18 28  1  0
 18 29  1  0
 19 30  1  0
 19 31  1  0
M  ISO  8  20  14  21  14  22   5  23  13  24  13  25  13  26  13  27  13
M  ISO  4  28  13  29  13  30  13  31  13
M  END
>  <minimizedAffinity>  (1) 
-4.01895094

>  <minimizedRMSD>  (1) 
5.05976057

$$$$
