
     RDKit          3D

 19 19  0  0  0  0  0  0  0  0999 V2000
   38.4280   24.2480   32.8930 C   0  0  0  0  0  0  0  0  0  0  0  0
   38.2490   24.1770   34.2700 C   0  0  0  0  0  0  0  0  0  0  0  0
   38.1300   22.8890   34.8410 C   0  0  0  0  0  0  0  0  0  0  0  0
   38.1990   21.8270   34.0140 N   0  0  0  0  0  0  0  0  0  0  0  0
   38.3730   21.9300   32.6820 C   0  0  0  0  0  0  0  0  0  0  0  0
   38.4870   23.1520   32.1340 N   0  0  0  0  0  0  0  0  0  0  0  0
   38.2080   25.4920   34.9550 C   0  0  0  0  0  0  0  0  0  0  0  0
   37.1100   25.6080   35.8240 F   0  0  0  0  0  0  0  0  0  0  0  0
   39.3360   25.5120   35.7810 F   0  0  0  0  0  0  0  0  0  0  0  0
   38.2860   26.5500   34.0850 F   0  0  0  0  0  0  0  0  0  0  0  0
   37.9470   22.8610   36.2610 C   0  0  0  0  0  0  0  0  0  0  0  0
   36.8700   22.6620   36.8370 O   0  0  0  0  0  0  0  0  0  0  0  0
   38.8380   23.0310   37.3000 O   0  0  0  0  0  0  0  0  0  0  0  0
   38.4720   23.6150   38.5340 C   0  0  0  0  0  0  0  0  0  0  0  0
   37.4830   22.7880   39.0780 F   0  0  0  0  0  0  0  0  0  0  0  0
   39.4980   23.7160   39.4250 F   0  0  0  0  0  0  0  0  0  0  0  0
   37.8680   24.8300   38.2830 F   0  0  0  0  0  0  0  0  0  0  0  0
   38.5236   25.2347   32.4162 H   0  0  0  0  0  0  0  0  0  0  0  0
   38.4210   21.0287   32.0532 H   0  0  0  0  0  0  0  0  0  0  0  0
  1  2  2  0
  2  3  1  0
  2  7  1  0
  3 11  1  0
  4  3  2  0
  5  4  1  0
  6  5  2  0
  6  1  1  0
  7  9  1  0
  7  8  1  0
 10  7  1  0
 11 12  2  0
 11 13  1  0
 13 14  1  0
 14 15  1  0
 14 16  1  0
 17 14  1  0
  1 18  1  0
  5 19  1  0
M  ISO  2  18  14  19  14
M  END
>  <minimizedAffinity>  (1) 
-4.16307592

>  <minimizedRMSD>  (1) 
1.62826025

$$$$
