
     RDKit          3D

 19 19  0  0  0  0  0  0  0  0999 V2000
   38.2990   24.1830   32.9320 C   0  0  0  0  0  0  0  0  0  0  0  0
   38.1980   24.1110   34.3230 C   0  0  0  0  0  0  0  0  0  0  0  0
   38.0840   22.8300   34.9000 C   0  0  0  0  0  0  0  0  0  0  0  0
   38.0810   21.7600   34.0750 N   0  0  0  0  0  0  0  0  0  0  0  0
   38.1800   21.8550   32.7370 C   0  0  0  0  0  0  0  0  0  0  0  0
   38.2880   23.0740   32.1740 N   0  0  0  0  0  0  0  0  0  0  0  0
   38.2240   25.4260   35.0110 C   0  0  0  0  0  0  0  0  0  0  0  0
   37.2920   25.5190   36.0340 F   0  0  0  0  0  0  0  0  0  0  0  0
   39.4670   25.4750   35.6580 F   0  0  0  0  0  0  0  0  0  0  0  0
   38.1520   26.4840   34.1320 F   0  0  0  0  0  0  0  0  0  0  0  0
   37.9830   22.8010   36.3280 C   0  0  0  0  0  0  0  0  0  0  0  0
   36.9320   22.6200   36.9600 O   0  0  0  0  0  0  0  0  0  0  0  0
   38.9700   22.9550   37.3060 O   0  0  0  0  0  0  0  0  0  0  0  0
   38.7240   23.4580   38.5820 C   0  0  0  0  0  0  0  0  0  0  0  0
   38.3893   25.1666   32.4478 H   0  0  0  0  0  0  0  0  0  0  0  0
   38.1729   20.9502   32.1114 H   0  0  0  0  0  0  0  0  0  0  0  0
   39.0765   22.7372   39.3345 H   0  0  0  0  0  0  0  0  0  0  0  0
   39.2575   24.4115   38.7094 H   0  0  0  0  0  0  0  0  0  0  0  0
   37.6438   23.6223   38.7094 H   0  0  0  0  0  0  0  0  0  0  0  0
  1  2  2  0
  2  3  1  0
  2  7  1  0
  3 11  1  0
  4  3  2  0
  5  4  1  0
  6  5  2  0
  6  1  1  0
  7  9  1  0
  7  8  1  0
 10  7  1  0
 11 12  2  0
 11 13  1  0
 13 14  1  0
  1 15  1  0
  5 16  1  0
 14 17  1  0
 14 18  1  0
 14 19  1  0
M  ISO  5  15  14  16  14  17   8  18   8  19   8
M  END
>  <minimizedAffinity>  (1) 
-3.21014643

>  <minimizedRMSD>  (1) 
1.46131146

$$$$
