
     RDKit          3D

 23 24  0  0  0  0  0  0  0  0999 V2000
   37.2740   26.1050   32.8200 C   0  0  0  0  0  0  0  0  0  0  0  0
   37.1580   24.7370   32.6040 C   0  0  0  0  0  0  0  0  0  0  0  0
   36.1660   24.3200   31.6920 C   0  0  0  0  0  0  0  0  0  0  0  0
   35.4040   25.2620   31.0940 N   0  0  0  0  0  0  0  0  0  0  0  0
   35.5400   26.5730   31.3240 C   0  0  0  0  0  0  0  0  0  0  0  0
   36.4760   26.9850   32.1870 N   0  0  0  0  0  0  0  0  0  0  0  0
   38.1100   23.8960   33.3780 C   0  0  0  0  0  0  0  0  0  0  0  0
   37.4890   22.7990   33.9680 F   0  0  0  0  0  0  0  0  0  0  0  0
   38.9700   23.3610   32.4060 F   0  0  0  0  0  0  0  0  0  0  0  0
   38.8550   24.6380   34.2610 F   0  0  0  0  0  0  0  0  0  0  0  0
   36.0710   22.9060   31.4920 C   0  0  0  0  0  0  0  0  0  0  0  0
   35.2640   22.1540   32.0830 O   0  0  0  0  0  0  0  0  0  0  0  0
   36.7550   22.0350   30.6800 O   0  0  0  0  0  0  0  0  0  0  0  0
   36.9670   20.7350   30.8390 C   0  0  0  0  0  0  0  0  0  0  0  0
   36.3790   19.6240   30.2930 C   0  0  0  0  0  0  0  0  0  0  0  0
   36.7980   18.3790   30.6370 C   0  0  0  0  0  0  0  0  0  0  0  0
   37.8550   18.2720   31.5720 C   0  0  0  0  0  0  0  0  0  0  0  0
   38.2810   20.0370   31.9890 S   0  0  0  0  0  0  0  0  0  0  0  0
   38.0340   26.4765   33.5231 H   0  0  0  0  0  0  0  0  0  0  0  0
   34.8929   27.3004   30.8120 H   0  0  0  0  0  0  0  0  0  0  0  0
   35.5594   19.7420   29.5689 H   0  0  0  0  0  0  0  0  0  0  0  0
   36.3310   17.4826   30.2030 H   0  0  0  0  0  0  0  0  0  0  0  0
   38.3195   17.3550   31.9636 H   0  0  0  0  0  0  0  0  0  0  0  0
  2  1  2  0
  2  7  1  0
  3  2  1  0
  4  5  1  0
  4  3  2  0
  5  6  2  0
  6  1  1  0
  7  8  1  0
  7 10  1  0
  9  7  1  0
 11  3  1  0
 11 12  2  0
 13 14  1  0
 13 11  1  0
 14 18  1  0
 15 16  1  0
 15 14  2  0
 16 17  2  0
 17 18  1  0
  1 19  1  0
  5 20  1  0
 15 21  1  0
 16 22  1  0
 17 23  1  0
M  ISO  5  19  14  20  14  21  14  22  14  23  14
M  END
>  <minimizedAffinity>  (1) 
-3.55393839

>  <minimizedRMSD>  (1) 
7.19348621

$$$$
