
     RDKit          3D

 27 28  0  0  0  0  0  0  0  0999 V2000
   40.3700   25.1310   35.2430 C   0  0  0  0  0  0  0  0  0  0  0  0
   40.0600   23.8240   35.6850 C   0  0  0  0  0  0  0  0  0  0  0  0
   38.8390   23.3110   35.2200 C   0  0  0  0  0  0  0  0  0  0  0  0
   38.0590   24.0560   34.4130 N   0  0  0  0  0  0  0  0  0  0  0  0
   38.3910   25.2950   34.0160 C   0  0  0  0  0  0  0  0  0  0  0  0
   39.5640   25.8150   34.4510 N   0  0  0  0  0  0  0  0  0  0  0  0
   40.9280   23.0960   36.5340 N   0  0  0  0  0  0  0  0  0  0  0  0
   40.5200   22.3290   37.6430 C   0  0  0  0  0  0  0  0  0  0  0  0
   39.5450   22.8540   38.3770 N   0  0  0  0  0  0  0  0  0  0  0  0
   41.2260   21.0680   37.8260 N   0  0  0  0  0  0  0  0  0  0  0  0
   39.1910   22.3540   39.1920 H   0  0  0  0  0  0  0  0  0  0  0  0
   37.5090   26.0580   33.1400 C   0  0  0  0  0  0  0  0  0  0  0  0
   37.6050   27.4290   33.1090 C   0  0  0  0  0  0  0  0  0  0  0  0
   36.7310   28.0510   32.2510 C   0  0  0  0  0  0  0  0  0  0  0  0
   35.8370   27.3750   31.4860 N   0  0  0  0  0  0  0  0  0  0  0  0
   35.7740   26.0490   31.5450 C   0  0  0  0  0  0  0  0  0  0  0  0
   36.6320   25.3840   32.3920 N   0  0  0  0  0  0  0  0  0  0  0  0
   34.8150   25.3140   30.7270 C   0  0  0  0  0  0  0  0  0  0  0  0
   34.9710   24.0650   30.7120 O   0  0  0  0  0  0  0  0  0  0  0  0
   41.3133   25.5932   35.5694 H   0  0  0  0  0  0  0  0  0  0  0  0
   38.5191   22.3006   35.5146 H   0  0  0  0  0  0  0  0  0  0  0  0
   41.9359   23.1297   36.3246 H   0  0  0  0  0  0  0  0  0  0  0  0
   40.9837   20.4519   38.6151 H   0  0  0  0  0  0  0  0  0  0  0  0
   41.9675   20.7925   37.1663 H   0  0  0  0  0  0  0  0  0  0  0  0
   38.3269   27.9857   33.7246 H   0  0  0  0  0  0  0  0  0  0  0  0
   36.7570   29.1484   32.1808 H   0  0  0  0  0  0  0  0  0  0  0  0
   34.0137   25.8151   30.1642 H   0  0  0  0  0  0  0  0  0  0  0  0
  1  2  2  0
  2  7  1  0
  3  2  1  0
  4  3  2  0
  5  4  1  0
  5  6  2  0
  6  1  1  0
  7  8  1  0
  8 10  1  0
  8  9  2  0
  9 11  1  0
 12  5  1  0
 13 12  2  0
 14 13  1  0
 15 16  1  0
 15 14  2  0
 16 17  2  0
 17 12  1  0
 18 16  1  0
 19 18  2  0
  1 20  1  0
  3 21  1  0
  7 22  1  0
 10 23  1  0
 10 24  1  0
 13 25  1  0
 14 26  1  0
 18 27  1  0
M  ISO  5  20  14  21  14  25  14  26  14  27   6
M  END
>  <minimizedAffinity>  (1) 
-4.92104816

>  <minimizedRMSD>  (1) 
1.10329711

$$$$
