
     RDKit          3D

 37 38  0  0  0  0  0  0  0  0999 V2000
   38.2980   25.8390   31.5010 C   0  0  0  0  0  0  0  0  0  0  0  0
   39.1440   26.2160   30.6740 O   0  0  0  0  0  0  0  0  0  0  0  0
   36.5080   27.8930   33.9560 C   0  0  0  0  0  0  0  0  0  0  0  0
   36.8200   27.2330   32.7670 C   0  0  0  0  0  0  0  0  0  0  0  0
   38.0280   26.4970   32.7410 C   0  0  0  0  0  0  0  0  0  0  0  0
   38.7790   26.4930   33.8570 N   0  0  0  0  0  0  0  0  0  0  0  0
   38.4560   27.1340   34.9840 C   0  0  0  0  0  0  0  0  0  0  0  0
   37.3090   27.8390   35.0260 N   0  0  0  0  0  0  0  0  0  0  0  0
   35.8140   27.4080   31.6860 C   0  0  0  0  0  0  0  0  0  0  0  0
   36.4320   27.6890   30.4480 F   0  0  0  0  0  0  0  0  0  0  0  0
   35.2250   26.1730   31.5460 F   0  0  0  0  0  0  0  0  0  0  0  0
   34.8530   28.3370   31.9880 F   0  0  0  0  0  0  0  0  0  0  0  0
   37.7230   24.6830   30.9430 O   0  0  0  0  0  0  0  0  0  0  0  0
   37.8290   23.4450   31.5180 C   0  0  0  0  0  0  0  0  0  0  0  0
   38.9180   23.2560   32.3610 C   0  0  0  0  0  0  0  0  0  0  0  0
   39.1420   22.0720   33.0030 C   0  0  0  0  0  0  0  0  0  0  0  0
   38.2310   21.0580   32.7780 C   0  0  0  0  0  0  0  0  0  0  0  0
   37.1440   21.2140   31.9480 C   0  0  0  0  0  0  0  0  0  0  0  0
   37.0030   22.4120   31.3600 N   0  0  0  0  0  0  0  0  0  0  0  0
   36.1300   20.1600   31.6640 C   0  0  0  0  0  0  0  0  0  0  0  0
   34.7390   20.7050   31.9440 C   0  0  0  0  0  0  0  0  0  0  0  0
   36.2160   19.7700   30.2000 C   0  0  0  0  0  0  0  0  0  0  0  0
   36.3540   18.9200   32.4780 C   0  0  0  0  0  0  0  0  0  0  0  0
   35.5763   28.4747   34.0153 H   0  0  0  0  0  0  0  0  0  0  0  0
   39.1158   27.0868   35.8629 H   0  0  0  0  0  0  0  0  0  0  0  0
   39.6219   24.0870   32.5158 H   0  0  0  0  0  0  0  0  0  0  0  0
   40.0070   21.9321   33.6680 H   0  0  0  0  0  0  0  0  0  0  0  0
   38.3797   20.0908   33.2804 H   0  0  0  0  0  0  0  0  0  0  0  0
   34.5813   20.7668   33.0309 H   0  0  0  0  0  0  0  0  0  0  0  0
   34.6421   21.7076   31.5019 H   0  0  0  0  0  0  0  0  0  0  0  0
   33.9869   20.0351   31.5019 H   0  0  0  0  0  0  0  0  0  0  0  0
   36.4522   18.6987   30.1192 H   0  0  0  0  0  0  0  0  0  0  0  0
   35.2520   19.9709   29.7098 H   0  0  0  0  0  0  0  0  0  0  0  0
   37.0061   20.3577   29.7098 H   0  0  0  0  0  0  0  0  0  0  0  0
   36.3087   19.1707   33.5481 H   0  0  0  0  0  0  0  0  0  0  0  0
   35.5749   18.1804   32.2414 H   0  0  0  0  0  0  0  0  0  0  0  0
   37.3426   18.4997   32.2414 H   0  0  0  0  0  0  0  0  0  0  0  0
  1  5  1  0
  2  1  2  0
  3  8  2  0
  4  3  1  0
  5  4  2  0
  5  6  1  0
  6  7  2  0
  7  8  1  0
  9 12  1  0
  9  4  1  0
 10  9  1  0
 11  9  1  0
 13  1  1  0
 13 14  1  0
 14 15  2  0
 15 16  1  0
 17 16  2  0
 18 17  1  0
 19 14  1  0
 19 18  2  0
 20 21  1  0
 20 18  1  0
 20 23  1  0
 22 20  1  0
  3 24  1  0
  7 25  1  0
 15 26  1  0
 16 27  1  0
 17 28  1  0
 21 29  1  0
 21 30  1  0
 21 31  1  0
 22 32  1  0
 22 33  1  0
 22 34  1  0
 23 35  1  0
 23 36  1  0
 23 37  1  0
M  ISO  8  24  14  25  14  26  14  27  14  28  14  29   8  30   8  31   8
M  ISO  6  32   8  33   8  34   8  35   8  36   8  37   8
M  END
>  <minimizedAffinity>  (1) 
-4.24388266

>  <minimizedRMSD>  (1) 
6.60955811

$$$$
