
     RDKit          3D

 31 32  0  0  0  0  0  0  0  0999 V2000
   37.0810   21.1880   33.0600 C   0  0  0  0  0  0  0  0  0  0  0  0
   36.0900   21.8590   33.3890 O   0  0  0  0  0  0  0  0  0  0  0  0
   37.7410   19.7890   29.7300 C   0  0  0  0  0  0  0  0  0  0  0  0
   37.7040   20.6860   30.7930 C   0  0  0  0  0  0  0  0  0  0  0  0
   37.0930   20.2300   31.9940 C   0  0  0  0  0  0  0  0  0  0  0  0
   36.6010   18.9760   32.0090 N   0  0  0  0  0  0  0  0  0  0  0  0
   36.6530   18.1400   30.9670 C   0  0  0  0  0  0  0  0  0  0  0  0
   37.2300   18.5600   29.8220 N   0  0  0  0  0  0  0  0  0  0  0  0
   38.3200   22.0120   30.5120 C   0  0  0  0  0  0  0  0  0  0  0  0
   37.4390   23.0660   30.8330 F   0  0  0  0  0  0  0  0  0  0  0  0
   39.3690   22.1030   31.4000 F   0  0  0  0  0  0  0  0  0  0  0  0
   38.7850   22.1220   29.2340 F   0  0  0  0  0  0  0  0  0  0  0  0
   38.1020   21.5850   33.9380 O   0  0  0  0  0  0  0  0  0  0  0  0
   38.0820   22.7520   34.6310 C   0  0  0  0  0  0  0  0  0  0  0  0
   38.2100   23.9110   33.8780 C   0  0  0  0  0  0  0  0  0  0  0  0
   38.2030   25.1580   34.4660 C   0  0  0  0  0  0  0  0  0  0  0  0
   38.0650   25.2260   35.8450 C   0  0  0  0  0  0  0  0  0  0  0  0
   37.9380   24.0800   36.5970 C   0  0  0  0  0  0  0  0  0  0  0  0
   37.9530   22.8990   35.9550 N   0  0  0  0  0  0  0  0  0  0  0  0
   37.7880   24.1160   38.0810 C   0  0  0  0  0  0  0  0  0  0  0  0
   38.9040   23.3320   38.7070 C   0  0  0  0  0  0  0  0  0  0  0  0
   38.2062   20.1030   28.7840 H   0  0  0  0  0  0  0  0  0  0  0  0
   36.2323   17.1264   31.0419 H   0  0  0  0  0  0  0  0  0  0  0  0
   38.3196   23.8327   32.7863 H   0  0  0  0  0  0  0  0  0  0  0  0
   38.3037   26.0709   33.8606 H   0  0  0  0  0  0  0  0  0  0  0  0
   38.0570   26.2068   36.3430 H   0  0  0  0  0  0  0  0  0  0  0  0
   37.8292   25.1583   38.4301 H   0  0  0  0  0  0  0  0  0  0  0  0
   36.8210   23.6762   38.3663 H   0  0  0  0  0  0  0  0  0  0  0  0
   38.8227   23.3891   39.8025 H   0  0  0  0  0  0  0  0  0  0  0  0
   38.8374   22.2812   38.3887 H   0  0  0  0  0  0  0  0  0  0  0  0
   39.8700   23.7510   38.3887 H   0  0  0  0  0  0  0  0  0  0  0  0
  1  2  2  0
  1 13  1  0
  3  8  2  0
  3  4  1  0
  4  5  2  0
  5  6  1  0
  5  1  1  0
  7  6  2  0
  8  7  1  0
  9  4  1  0
  9 10  1  0
  9 11  1  0
 12  9  1  0
 13 14  1  0
 14 19  2  0
 15 16  2  0
 15 14  1  0
 16 17  1  0
 17 18  2  0
 18 20  1  0
 19 18  1  0
 20 21  1  0
  3 22  1  0
  7 23  1  0
 15 24  1  0
 16 25  1  0
 17 26  1  0
 20 27  1  0
 20 28  1  0
 21 29  1  0
 21 30  1  0
 21 31  1  0
M  ISO  8  22  14  23  14  24  14  25  14  26  14  27   8  28   8  29   8
M  ISO  2  30   8  31   8
M  END
>  <minimizedAffinity>  (1) 
-3.96673393

>  <minimizedRMSD>  (1) 
2.45676804

$$$$
