
     RDKit          3D

 26 27  0  0  0  0  0  0  0  0999 V2000
   38.3740   21.7970   33.7940 C   0  0  0  0  0  0  0  0  0  0  0  0
   37.3470   21.6220   34.4650 O   0  0  0  0  0  0  0  0  0  0  0  0
   38.4690   21.9340   30.1250 C   0  0  0  0  0  0  0  0  0  0  0  0
   38.2990   22.3280   31.4560 C   0  0  0  0  0  0  0  0  0  0  0  0
   38.5580   21.3490   32.4510 C   0  0  0  0  0  0  0  0  0  0  0  0
   38.9450   20.1230   32.0410 N   0  0  0  0  0  0  0  0  0  0  0  0
   39.0970   19.7880   30.7490 C   0  0  0  0  0  0  0  0  0  0  0  0
   38.8560   20.7020   29.8010 N   0  0  0  0  0  0  0  0  0  0  0  0
   37.8630   23.7400   31.6360 C   0  0  0  0  0  0  0  0  0  0  0  0
   36.8190   23.8510   32.5510 F   0  0  0  0  0  0  0  0  0  0  0  0
   38.9660   24.3570   32.2280 F   0  0  0  0  0  0  0  0  0  0  0  0
   37.5920   24.3710   30.4550 F   0  0  0  0  0  0  0  0  0  0  0  0
   39.2530   22.5010   34.6370 O   0  0  0  0  0  0  0  0  0  0  0  0
   38.8490   23.1170   35.7880 C   0  0  0  0  0  0  0  0  0  0  0  0
   38.4730   24.4490   35.6650 C   0  0  0  0  0  0  0  0  0  0  0  0
   38.0470   25.1790   36.7340 C   0  0  0  0  0  0  0  0  0  0  0  0
   37.9960   24.5590   37.9720 C   0  0  0  0  0  0  0  0  0  0  0  0
   38.3680   23.2410   38.1070 C   0  0  0  0  0  0  0  0  0  0  0  0
   38.7760   22.5820   37.0070 N   0  0  0  0  0  0  0  0  0  0  0  0
   38.3690   22.4920   39.2780 O   0  0  0  0  0  0  0  0  0  0  0  0
   38.2776   22.6624   29.3233 H   0  0  0  0  0  0  0  0  0  0  0  0
   39.4164   18.7723   30.4726 H   0  0  0  0  0  0  0  0  0  0  0  0
   38.5206   24.9282   34.6760 H   0  0  0  0  0  0  0  0  0  0  0  0
   37.7516   26.2321   36.6171 H   0  0  0  0  0  0  0  0  0  0  0  0
   37.6560   25.1239   38.8525 H   0  0  0  0  0  0  0  0  0  0  0  0
   38.6583   21.5454   39.2599 H   0  0  0  0  0  0  0  0  0  0  0  0
  1  2  2  0
  1 13  1  0
  3  4  2  0
  4  9  1  0
  4  5  1  0
  5  1  1  0
  6  5  2  0
  7  6  1  0
  8  3  1  0
  8  7  2  0
  9 11  1  0
  9 10  1  0
 12  9  1  0
 13 14  1  0
 14 19  1  0
 15 14  2  0
 15 16  1  0
 16 17  2  0
 17 18  1  0
 18 20  1  0
 19 18  2  0
  3 21  1  0
  7 22  1  0
 15 23  1  0
 16 24  1  0
 17 25  1  0
 20 26  1  0
M  ISO  6  21  14  22  14  23  14  24  14  25  14  26   3
M  END
>  <minimizedAffinity>  (1) 
-4.18913317

>  <minimizedRMSD>  (1) 
0.493439227

$$$$
