
     RDKit          3D

 32 33  0  0  0  0  0  0  0  0999 V2000
   41.7270   24.2250   35.3790 C   0  0  0  0  0  0  0  0  0  0  0  0
   41.6680   22.8190   35.5120 C   0  0  0  0  0  0  0  0  0  0  0  0
   40.9450   22.1560   34.5080 C   0  0  0  0  0  0  0  0  0  0  0  0
   40.3690   22.8590   33.5150 N   0  0  0  0  0  0  0  0  0  0  0  0
   40.4480   24.2030   33.4220 C   0  0  0  0  0  0  0  0  0  0  0  0
   41.1420   24.8660   34.3800 N   0  0  0  0  0  0  0  0  0  0  0  0
   39.8090   24.9210   32.3190 C   0  0  0  0  0  0  0  0  0  0  0  0
   40.5190   25.8860   31.6540 C   0  0  0  0  0  0  0  0  0  0  0  0
   39.8070   26.4800   30.6300 C   0  0  0  0  0  0  0  0  0  0  0  0
   38.5450   26.1620   30.3000 N   0  0  0  0  0  0  0  0  0  0  0  0
   37.8980   25.2110   30.9850 C   0  0  0  0  0  0  0  0  0  0  0  0
   38.5510   24.5750   32.0210 N   0  0  0  0  0  0  0  0  0  0  0  0
   36.5730   24.8060   30.7150 N   0  0  0  0  0  0  0  0  0  0  0  0
   35.4560   25.6840   30.7790 C   0  0  0  0  0  0  0  0  0  0  0  0
   35.5440   26.6790   31.5950 N   0  0  0  0  0  0  0  0  0  0  0  0
   34.3040   25.4650   29.9750 N   0  0  0  0  0  0  0  0  0  0  0  0
   34.7780   27.3820   31.7150 H   0  0  0  0  0  0  0  0  0  0  0  0
   42.3000   22.1420   36.5840 N   0  0  0  0  0  0  0  0  0  0  0  0
   41.6250   21.3720   37.5510 C   0  0  0  0  0  0  0  0  0  0  0  0
   40.4740   21.8590   37.9730 N   0  0  0  0  0  0  0  0  0  0  0  0
   42.2970   20.1450   37.9490 N   0  0  0  0  0  0  0  0  0  0  0  0
   39.9250   21.3630   38.6750 H   0  0  0  0  0  0  0  0  0  0  0  0
   42.2785   24.8067   36.1323 H   0  0  0  0  0  0  0  0  0  0  0  0
   40.8490   21.0605   34.5327 H   0  0  0  0  0  0  0  0  0  0  0  0
   41.5530   26.1604   31.9100 H   0  0  0  0  0  0  0  0  0  0  0  0
   40.3076   27.2662   30.0458 H   0  0  0  0  0  0  0  0  0  0  0  0
   36.4063   23.8226   30.4580 H   0  0  0  0  0  0  0  0  0  0  0  0
   33.5041   26.1112   30.0343 H   0  0  0  0  0  0  0  0  0  0  0  0
   34.2693   24.6601   29.3332 H   0  0  0  0  0  0  0  0  0  0  0  0
   43.3242   22.2182   36.6616 H   0  0  0  0  0  0  0  0  0  0  0  0
   41.8670   19.5271   38.6520 H   0  0  0  0  0  0  0  0  0  0  0  0
   43.2029   19.8940   37.5279 H   0  0  0  0  0  0  0  0  0  0  0  0
  1  2  2  0
  2 18  1  0
  3  2  1  0
  4  3  2  0
  5  4  1  0
  5  6  2  0
  6  1  1  0
  7  5  1  0
  8  7  2  0
  9  8  1  0
 10  9  2  0
 10 11  1  0
 11 12  2  0
 12  7  1  0
 13 14  1  0
 13 11  1  0
 14 15  2  0
 15 17  1  0
 16 14  1  0
 18 19  1  0
 19 21  1  0
 19 20  2  0
 20 22  1  0
  1 23  1  0
  3 24  1  0
  8 25  1  0
  9 26  1  0
 13 27  1  0
 16 28  1  0
 16 29  1  0
 18 30  1  0
 21 31  1  0
 21 32  1  0
M  ISO  4  23  14  24  14  25  14  26  14
M  END
>  <minimizedAffinity>  (1) 
-4.91976118

>  <minimizedRMSD>  (1) 
2.65960312

$$$$
