
     RDKit          3D

 32 34  0  0  0  0  0  0  0  0999 V2000
   38.2140   25.5100   32.1210 O   0  0  0  0  0  0  0  0  0  0  0  0
   38.4740   24.2560   32.5840 C   0  0  0  0  0  0  0  0  0  0  0  0
   38.9580   24.1820   33.8850 C   0  0  0  0  0  0  0  0  0  0  0  0
   39.2590   22.9790   34.4770 C   0  0  0  0  0  0  0  0  0  0  0  0
   39.0620   21.8380   33.7230 C   0  0  0  0  0  0  0  0  0  0  0  0
   38.5850   21.8870   32.4330 C   0  0  0  0  0  0  0  0  0  0  0  0
   38.3130   23.1020   31.9250 N   0  0  0  0  0  0  0  0  0  0  0  0
   38.3700   20.6960   31.6190 C   0  0  0  0  0  0  0  0  0  0  0  0
   39.0000   19.4790   31.7750 C   0  0  0  0  0  0  0  0  0  0  0  0
   38.5060   18.6550   30.8110 N   0  0  0  0  0  0  0  0  0  0  0  0
   37.6010   19.3980   30.1120 C   0  0  0  0  0  0  0  0  0  0  0  0
   37.5100   20.6450   30.5940 N   0  0  0  0  0  0  0  0  0  0  0  0
   36.9290   26.0830   32.1250 C   0  0  0  0  0  0  0  0  0  0  0  0
   36.1450   25.1230   32.1670 O   0  0  0  0  0  0  0  0  0  0  0  0
   36.3240   29.4970   33.3290 C   0  0  0  0  0  0  0  0  0  0  0  0
   36.7000   28.1560   33.3100 C   0  0  0  0  0  0  0  0  0  0  0  0
   36.5270   27.4570   32.0890 C   0  0  0  0  0  0  0  0  0  0  0  0
   36.0150   28.1380   31.0430 N   0  0  0  0  0  0  0  0  0  0  0  0
   35.6640   29.4210   31.0900 C   0  0  0  0  0  0  0  0  0  0  0  0
   35.8210   30.1040   32.2450 N   0  0  0  0  0  0  0  0  0  0  0  0
   37.2380   27.6520   34.6040 C   0  0  0  0  0  0  0  0  0  0  0  0
   36.6790   26.4030   34.9440 F   0  0  0  0  0  0  0  0  0  0  0  0
   38.5740   27.4110   34.3510 F   0  0  0  0  0  0  0  0  0  0  0  0
   37.1300   28.5550   35.6220 F   0  0  0  0  0  0  0  0  0  0  0  0
   39.1039   25.1110   34.4557 H   0  0  0  0  0  0  0  0  0  0  0  0
   39.6406   22.9266   35.5074 H   0  0  0  0  0  0  0  0  0  0  0  0
   39.2938   20.8591   34.1681 H   0  0  0  0  0  0  0  0  0  0  0  0
   39.7558   19.2237   32.5323 H   0  0  0  0  0  0  0  0  0  0  0  0
   37.0183   19.0207   29.2587 H   0  0  0  0  0  0  0  0  0  0  0  0
   36.9058   21.4043   30.2487 H   0  0  0  0  0  0  0  0  0  0  0  0
   36.4430   30.0733   34.2584 H   0  0  0  0  0  0  0  0  0  0  0  0
   35.2515   29.9187   30.2000 H   0  0  0  0  0  0  0  0  0  0  0  0
  1 13  1  0
  1  2  1  0
  2  3  2  0
  3  4  1  0
  5  4  2  0
  6  5  1  0
  7  6  2  0
  7  2  1  0
  8  9  2  0
  8  6  1  0
 10  9  1  0
 11 12  1  0
 11 10  2  0
 12  8  1  0
 13 14  2  0
 16 15  2  0
 16 21  1  0
 17 13  1  0
 17 16  1  0
 18 19  1  0
 18 17  2  0
 19 20  2  0
 20 15  1  0
 21 22  1  0
 21 24  1  0
 23 21  1  0
  3 25  1  0
  4 26  1  0
  5 27  1  0
  9 28  1  0
 11 29  1  0
 12 30  1  0
 15 31  1  0
 19 32  1  0
M  ISO  8  25  14  26  14  27  14  28  14  29  14  30   9  31  14  32  14
M  END
>  <minimizedAffinity>  (1) 
-3.83258367

>  <minimizedRMSD>  (1) 
7.03656387

$$$$
