
     RDKit          3D

 32 34  0  0  0  0  0  0  0  0999 V2000
   39.5880   25.7720   34.9880 C   0  0  0  0  0  0  0  0  0  0  0  0
   40.7720   26.1490   34.2960 C   0  0  0  0  0  0  0  0  0  0  0  0
   40.6880   26.0830   32.8970 C   0  0  0  0  0  0  0  0  0  0  0  0
   39.5390   25.6850   32.3150 N   0  0  0  0  0  0  0  0  0  0  0  0
   38.4280   25.3320   33.0210 C   0  0  0  0  0  0  0  0  0  0  0  0
   38.4910   25.3890   34.3560 N   0  0  0  0  0  0  0  0  0  0  0  0
   41.9410   26.5570   34.9820 N   0  0  0  0  0  0  0  0  0  0  0  0
   43.1180   25.7930   35.0820 C   0  0  0  0  0  0  0  0  0  0  0  0
   42.9450   24.4870   35.2680 N   0  0  0  0  0  0  0  0  0  0  0  0
   44.3680   26.5380   34.9650 N   0  0  0  0  0  0  0  0  0  0  0  0
   43.7590   23.8740   35.3290 H   0  0  0  0  0  0  0  0  0  0  0  0
   37.2410   24.9170   32.3050 C   0  0  0  0  0  0  0  0  0  0  0  0
   36.4370   25.8950   31.7350 C   0  0  0  0  0  0  0  0  0  0  0  0
   35.3270   25.4070   31.0680 C   0  0  0  0  0  0  0  0  0  0  0  0
   35.0370   24.1010   30.9710 N   0  0  0  0  0  0  0  0  0  0  0  0
   35.8380   23.1910   31.5340 C   0  0  0  0  0  0  0  0  0  0  0  0
   36.9390   23.6200   32.2000 N   0  0  0  0  0  0  0  0  0  0  0  0
   35.6750   21.7280   31.5280 C   0  0  0  0  0  0  0  0  0  0  0  0
   34.8160   21.0350   32.3830 C   0  0  0  0  0  0  0  0  0  0  0  0
   34.9790   19.7070   32.0400 C   0  0  0  0  0  0  0  0  0  0  0  0
   35.9180   19.6520   31.0030 C   0  0  0  0  0  0  0  0  0  0  0  0
   36.2990   20.8900   30.7410 O   0  0  0  0  0  0  0  0  0  0  0  0
   39.5845   25.7999   36.0876 H   0  0  0  0  0  0  0  0  0  0  0  0
   41.5557   26.3548   32.2779 H   0  0  0  0  0  0  0  0  0  0  0  0
   41.9290   27.4791   35.4407 H   0  0  0  0  0  0  0  0  0  0  0  0
   45.2697   26.0442   35.0285 H   0  0  0  0  0  0  0  0  0  0  0  0
   44.3482   27.5574   34.8190 H   0  0  0  0  0  0  0  0  0  0  0  0
   36.6636   26.9690   31.8076 H   0  0  0  0  0  0  0  0  0  0  0  0
   34.6464   26.1284   30.5921 H   0  0  0  0  0  0  0  0  0  0  0  0
   34.1563   21.4534   33.1574 H   0  0  0  0  0  0  0  0  0  0  0  0
   34.4649   18.8492   32.4980 H   0  0  0  0  0  0  0  0  0  0  0  0
   36.2744   18.7424   30.4975 H   0  0  0  0  0  0  0  0  0  0  0  0
  2  7  1  0
  2  1  2  0
  3  2  1  0
  4  3  2  0
  4  5  1  0
  5  6  2  0
  6  1  1  0
  7  8  1  0
  8  9  2  0
  9 11  1  0
 10  8  1  0
 12  5  1  0
 13 12  2  0
 14 13  1  0
 15 14  2  0
 15 16  1  0
 16 17  2  0
 17 12  1  0
 18 16  1  0
 18 19  2  0
 20 19  1  0
 21 20  2  0
 22 21  1  0
 22 18  1  0
  1 23  1  0
  3 24  1  0
  7 25  1  0
 10 26  1  0
 10 27  1  0
 13 28  1  0
 14 29  1  0
 19 30  1  0
 20 31  1  0
 21 32  1  0
M  ISO  7  23  14  24  14  28  14  29  14  30  14  31  14  32  14
M  END
>  <minimizedAffinity>  (1) 
-4.90070772

>  <minimizedRMSD>  (1) 
3.2801888

$$$$
