
     RDKit          3D

 46 49  0  0  0  0  0  0  0  0999 V2000
   36.6490   26.2170   31.6490 C   0  0  0  0  0  0  0  0  0  0  0  0
   35.7010   26.7810   31.0420 O   0  0  0  0  0  0  0  0  0  0  0  0
   38.7700   23.6400   30.1170 C   0  0  0  0  0  0  0  0  0  0  0  0
   38.2600   24.8860   30.4840 C   0  0  0  0  0  0  0  0  0  0  0  0
   37.0980   24.8960   31.3180 C   0  0  0  0  0  0  0  0  0  0  0  0
   36.5930   23.7220   31.6790 N   0  0  0  0  0  0  0  0  0  0  0  0
   37.0820   22.5370   31.3270 C   0  0  0  0  0  0  0  0  0  0  0  0
   38.1870   22.4940   30.5340 N   0  0  0  0  0  0  0  0  0  0  0  0
   36.4830   21.3200   31.7560 N   0  0  0  0  0  0  0  0  0  0  0  0
   35.4260   21.3170   32.5940 C   0  0  0  0  0  0  0  0  0  0  0  0
   34.8770   20.0970   32.9830 C   0  0  0  0  0  0  0  0  0  0  0  0
   35.4320   18.9110   32.4960 C   0  0  0  0  0  0  0  0  0  0  0  0
   34.9270   17.6370   32.8490 N   0  0  0  0  0  0  0  0  0  0  0  0
   36.4940   18.9780   31.6560 N   0  0  0  0  0  0  0  0  0  0  0  0
   37.0010   20.1630   31.3010 C   0  0  0  0  0  0  0  0  0  0  0  0
   37.9950   20.1530   30.5110 O   0  0  0  0  0  0  0  0  0  0  0  0
   39.0260   26.0520   29.9360 C   0  0  0  0  0  0  0  0  0  0  0  0
   38.1880   27.1540   29.7400 F   0  0  0  0  0  0  0  0  0  0  0  0
   39.9000   26.3650   30.9440 F   0  0  0  0  0  0  0  0  0  0  0  0
   39.7370   25.7480   28.8160 F   0  0  0  0  0  0  0  0  0  0  0  0
   37.1120   27.1340   32.6470 O   0  0  0  0  0  0  0  0  0  0  0  0
   37.8510   26.7140   33.7070 C   0  0  0  0  0  0  0  0  0  0  0  0
   39.1200   27.2520   33.7620 C   0  0  0  0  0  0  0  0  0  0  0  0
   39.9840   26.9430   34.7620 C   0  0  0  0  0  0  0  0  0  0  0  0
   39.5350   26.0480   35.7380 C   0  0  0  0  0  0  0  0  0  0  0  0
   38.2620   25.5010   35.6880 C   0  0  0  0  0  0  0  0  0  0  0  0
   37.4640   25.8610   34.6630 N   0  0  0  0  0  0  0  0  0  0  0  0
   37.7600   24.5200   36.6910 C   0  0  0  0  0  0  0  0  0  0  0  0
   38.8120   23.4790   36.8890 C   0  0  0  0  0  0  0  0  0  0  0  0
   39.5250   22.6500   36.0330 C   0  0  0  0  0  0  0  0  0  0  0  0
   40.3710   21.8840   36.7930 C   0  0  0  0  0  0  0  0  0  0  0  0
   40.1790   22.2340   38.0730 N   0  0  0  0  0  0  0  0  0  0  0  0
   39.2700   23.1640   38.1180 N   0  0  0  0  0  0  0  0  0  0  0  0
   39.6629   23.5895   29.4766 H   0  0  0  0  0  0  0  0  0  0  0  0
   35.0041   22.2629   32.9644 H   0  0  0  0  0  0  0  0  0  0  0  0
   34.0156   20.0679   33.6664 H   0  0  0  0  0  0  0  0  0  0  0  0
   35.3647   16.7859   32.4682 H   0  0  0  0  0  0  0  0  0  0  0  0
   34.1218   17.5608   33.4867 H   0  0  0  0  0  0  0  0  0  0  0  0
   39.4402   27.9500   32.9744 H   0  0  0  0  0  0  0  0  0  0  0  0
   40.9936   27.3777   34.8029 H   0  0  0  0  0  0  0  0  0  0  0  0
   40.2068   25.7717   36.5640 H   0  0  0  0  0  0  0  0  0  0  0  0
   37.5576   25.0314   37.6437 H   0  0  0  0  0  0  0  0  0  0  0  0
   36.8273   24.0566   36.3369 H   0  0  0  0  0  0  0  0  0  0  0  0
   39.4281   22.6141   34.9379 H   0  0  0  0  0  0  0  0  0  0  0  0
   41.0752   21.1247   36.4221 H   0  0  0  0  0  0  0  0  0  0  0  0
   40.6694   21.8334   38.8854 H   0  0  0  0  0  0  0  0  0  0  0  0
  1 21  1  0
  2  1  2  0
  3  4  2  0
  3  8  1  0
  4  5  1  0
  5  1  1  0
  5  6  2  0
  7  6  1  0
  7  9  1  0
  8  7  2  0
  9 10  1  0
 10 11  2  0
 12 13  1  0
 12 11  1  0
 14 12  2  0
 15 14  1  0
 15  9  1  0
 16 15  2  0
 17  4  1  0
 17 19  1  0
 18 17  1  0
 20 17  1  0
 21 22  1  0
 22 23  2  0
 22 27  1  0
 23 24  1  0
 24 25  2  0
 26 25  1  0
 26 28  1  0
 27 26  2  0
 28 29  1  0
 29 33  2  0
 30 31  2  0
 30 29  1  0
 31 32  1  0
 32 33  1  0
  3 34  1  0
 10 35  1  0
 11 36  1  0
 13 37  1  0
 13 38  1  0
 23 39  1  0
 24 40  1  0
 25 41  1  0
 28 42  1  0
 28 43  1  0
 30 44  1  0
 31 45  1  0
 32 46  1  0
M  ISO  8  34  14  35  14  36  14  39  14  40  14  41  14  42   8  43   8
M  ISO  3  44  14  45  14  46   9
M  END
>  <minimizedAffinity>  (1) 
-6.78917313

>  <minimizedRMSD>  (1) 
3.96357393

$$$$
