
     RDKit          3D

 41 44  0  0  0  0  0  0  0  0999 V2000
   40.3040   22.2750   33.7360 C   0  0  0  0  0  0  0  0  0  0  0  0
   40.8000   22.9390   32.6330 C   0  0  0  0  0  0  0  0  0  0  0  0
   41.9700   23.6230   32.6800 C   0  0  0  0  0  0  0  0  0  0  0  0
   42.6600   23.6250   33.8980 C   0  0  0  0  0  0  0  0  0  0  0  0
   42.1710   22.9560   35.0090 C   0  0  0  0  0  0  0  0  0  0  0  0
   40.9990   22.3030   34.8800 N   0  0  0  0  0  0  0  0  0  0  0  0
   42.8900   22.9060   36.3110 C   0  0  0  0  0  0  0  0  0  0  0  0
   42.9940   21.4730   36.7260 C   0  0  0  0  0  0  0  0  0  0  0  0
   43.7510   20.3900   36.2990 C   0  0  0  0  0  0  0  0  0  0  0  0
   43.4120   19.3040   37.0610 C   0  0  0  0  0  0  0  0  0  0  0  0
   42.4700   19.7150   37.9320 N   0  0  0  0  0  0  0  0  0  0  0  0
   42.2370   20.9800   37.7230 N   0  0  0  0  0  0  0  0  0  0  0  0
   39.1150   21.6460   33.5220 O   0  0  0  0  0  0  0  0  0  0  0  0
   37.8700   22.3250   33.6980 C   0  0  0  0  0  0  0  0  0  0  0  0
   37.4700   22.0560   34.8640 O   0  0  0  0  0  0  0  0  0  0  0  0
   35.3050   23.2170   31.2290 C   0  0  0  0  0  0  0  0  0  0  0  0
   36.0820   22.4760   32.1160 C   0  0  0  0  0  0  0  0  0  0  0  0
   37.1250   23.1660   32.8120 C   0  0  0  0  0  0  0  0  0  0  0  0
   37.2840   24.4660   32.5690 N   0  0  0  0  0  0  0  0  0  0  0  0
   36.5140   25.1580   31.7020 C   0  0  0  0  0  0  0  0  0  0  0  0
   35.5290   24.5360   31.0360 N   0  0  0  0  0  0  0  0  0  0  0  0
   36.7210   26.5790   31.4640 C   0  0  0  0  0  0  0  0  0  0  0  0
   35.6970   27.5930   31.7950 C   0  0  0  0  0  0  0  0  0  0  0  0
   36.5300   29.1700   31.2720 S   0  0  0  0  0  0  0  0  0  0  0  0
   38.0550   28.1790   30.7250 C   0  0  0  0  0  0  0  0  0  0  0  0
   37.8230   27.0780   30.9400 N   0  0  0  0  0  0  0  0  0  0  0  0
   35.7010   21.0260   32.2050 C   0  0  0  0  0  0  0  0  0  0  0  0
   36.8520   20.2110   32.1470 F   0  0  0  0  0  0  0  0  0  0  0  0
   35.1670   20.9000   33.4500 F   0  0  0  0  0  0  0  0  0  0  0  0
   34.7770   20.6550   31.2810 F   0  0  0  0  0  0  0  0  0  0  0  0
   40.2319   22.9129   31.6914 H   0  0  0  0  0  0  0  0  0  0  0  0
   42.3601   24.1535   31.7989 H   0  0  0  0  0  0  0  0  0  0  0  0
   43.6123   24.1701   33.9751 H   0  0  0  0  0  0  0  0  0  0  0  0
   43.8961   23.3362   36.1987 H   0  0  0  0  0  0  0  0  0  0  0  0
   42.3456   23.4857   37.0710 H   0  0  0  0  0  0  0  0  0  0  0  0
   44.4946   20.4024   35.4885 H   0  0  0  0  0  0  0  0  0  0  0  0
   43.8292   18.2896   36.9778 H   0  0  0  0  0  0  0  0  0  0  0  0
   42.0112   19.1282   38.6434 H   0  0  0  0  0  0  0  0  0  0  0  0
   34.4946   22.7201   30.6756 H   0  0  0  0  0  0  0  0  0  0  0  0
   34.6997   27.4507   32.2367 H   0  0  0  0  0  0  0  0  0  0  0  0
   38.9798   28.5831   30.2875 H   0  0  0  0  0  0  0  0  0  0  0  0
  1  6  2  0
  2  3  2  0
  2  1  1  0
  3  4  1  0
  4  5  2  0
  5  7  1  0
  6  5  1  0
  7  8  1  0
  8 12  2  0
  9  8  1  0
  9 10  2  0
 10 11  1  0
 12 11  1  0
 13 14  1  0
 13  1  1  0
 14 15  2  0
 16 17  2  0
 17 27  1  0
 17 18  1  0
 18 14  1  0
 19 18  2  0
 20 19  1  0
 21 16  1  0
 21 20  2  0
 22 20  1  0
 22 23  2  0
 24 23  1  0
 25 26  2  0
 25 24  1  0
 26 22  1  0
 27 29  1  0
 28 27  1  0
 30 27  1  0
  2 31  1  0
  3 32  1  0
  4 33  1  0
  7 34  1  0
  7 35  1  0
  9 36  1  0
 10 37  1  0
 11 38  1  0
 16 39  1  0
 23 40  1  0
 25 41  1  0
M  ISO  8  31  14  32  14  33  14  34   8  35   8  36  14  37  14  38   9
M  ISO  3  39  14  40  14  41  14
M  END
>  <minimizedAffinity>  (1) 
-5.13930178

>  <minimizedRMSD>  (1) 
6.46359348

$$$$
