
     RDKit          3D

 42 45  0  0  0  0  0  0  0  0999 V2000
   39.1240   25.9190   32.8400 C   0  0  0  0  0  0  0  0  0  0  0  0
   40.0640   26.8660   33.1890 C   0  0  0  0  0  0  0  0  0  0  0  0
   40.3110   27.1840   34.4860 C   0  0  0  0  0  0  0  0  0  0  0  0
   39.5690   26.5060   35.4620 C   0  0  0  0  0  0  0  0  0  0  0  0
   38.6250   25.5500   35.1190 C   0  0  0  0  0  0  0  0  0  0  0  0
   38.4390   25.2960   33.8090 N   0  0  0  0  0  0  0  0  0  0  0  0
   37.8400   24.7880   36.1260 C   0  0  0  0  0  0  0  0  0  0  0  0
   38.7620   23.8310   36.8070 C   0  0  0  0  0  0  0  0  0  0  0  0
   39.8960   23.1330   36.4090 C   0  0  0  0  0  0  0  0  0  0  0  0
   40.3280   22.3890   37.4770 C   0  0  0  0  0  0  0  0  0  0  0  0
   39.4860   22.6250   38.4890 N   0  0  0  0  0  0  0  0  0  0  0  0
   38.5650   23.4750   38.0910 N   0  0  0  0  0  0  0  0  0  0  0  0
   38.9940   25.7250   31.5030 O   0  0  0  0  0  0  0  0  0  0  0  0
   37.9750   24.8740   30.9650 C   0  0  0  0  0  0  0  0  0  0  0  0
   36.9930   25.6110   30.6860 O   0  0  0  0  0  0  0  0  0  0  0  0
   38.9890   21.6660   29.5000 C   0  0  0  0  0  0  0  0  0  0  0  0
   38.9270   23.0370   29.7730 C   0  0  0  0  0  0  0  0  0  0  0  0
   37.9660   23.4580   30.7440 C   0  0  0  0  0  0  0  0  0  0  0  0
   37.2100   22.5240   31.3080 N   0  0  0  0  0  0  0  0  0  0  0  0
   37.2740   21.2230   31.0440 C   0  0  0  0  0  0  0  0  0  0  0  0
   38.1760   20.7850   30.1260 N   0  0  0  0  0  0  0  0  0  0  0  0
   36.4050   20.2600   31.7110 C   0  0  0  0  0  0  0  0  0  0  0  0
   36.0900   20.2860   33.0530 C   0  0  0  0  0  0  0  0  0  0  0  0
   35.2570   19.2370   33.3150 N   0  0  0  0  0  0  0  0  0  0  0  0
   35.0750   18.5840   32.1310 C   0  0  0  0  0  0  0  0  0  0  0  0
   35.7730   19.2140   31.1770 N   0  0  0  0  0  0  0  0  0  0  0  0
   39.8960   23.8620   28.9880 C   0  0  0  0  0  0  0  0  0  0  0  0
   39.2950   25.0540   28.5570 F   0  0  0  0  0  0  0  0  0  0  0  0
   40.8540   24.1870   29.9060 F   0  0  0  0  0  0  0  0  0  0  0  0
   40.4790   23.1850   27.9640 F   0  0  0  0  0  0  0  0  0  0  0  0
   40.6288   27.3774   32.3956 H   0  0  0  0  0  0  0  0  0  0  0  0
   41.0611   27.9411   34.7584 H   0  0  0  0  0  0  0  0  0  0  0  0
   39.7391   26.7372   36.5239 H   0  0  0  0  0  0  0  0  0  0  0  0
   37.4095   25.4803   36.8645 H   0  0  0  0  0  0  0  0  0  0  0  0
   37.0196   24.2430   35.6362 H   0  0  0  0  0  0  0  0  0  0  0  0
   40.3639   23.1706   35.4142 H   0  0  0  0  0  0  0  0  0  0  0  0
   41.2031   21.7229   37.4975 H   0  0  0  0  0  0  0  0  0  0  0  0
   39.5488   22.2081   39.4288 H   0  0  0  0  0  0  0  0  0  0  0  0
   39.7146   21.2969   28.7603 H   0  0  0  0  0  0  0  0  0  0  0  0
   36.4480   21.0243   33.7856 H   0  0  0  0  0  0  0  0  0  0  0  0
   34.4561   17.6866   31.9838 H   0  0  0  0  0  0  0  0  0  0  0  0
   35.8150   18.9345   30.1865 H   0  0  0  0  0  0  0  0  0  0  0  0
  1  2  2  0
  1  6  1  0
  2  3  1  0
  3  4  2  0
  5  4  1  0
  5  7  1  0
  6  5  2  0
  7  8  1  0
  8 12  2  0
  9  8  1  0
  9 10  2  0
 10 11  1  0
 12 11  1  0
 13  1  1  0
 14 13  1  0
 15 14  2  0
 16 17  2  0
 16 21  1  0
 17 18  1  0
 18 14  1  0
 18 19  2  0
 20 19  1  0
 20 22  1  0
 21 20  2  0
 22 23  2  0
 23 24  1  0
 25 24  2  0
 26 22  1  0
 26 25  1  0
 27 17  1  0
 27 29  1  0
 28 27  1  0
 30 27  1  0
  2 31  1  0
  3 32  1  0
  4 33  1  0
  7 34  1  0
  7 35  1  0
  9 36  1  0
 10 37  1  0
 11 38  1  0
 16 39  1  0
 23 40  1  0
 25 41  1  0
 26 42  1  0
M  ISO  8  31  14  32  14  33  14  34   8  35   8  36  14  37  14  38   9
M  ISO  4  39  14  40  14  41  14  42   9
M  END
>  <minimizedAffinity>  (1) 
-5.44805622

>  <minimizedRMSD>  (1) 
2.80881286

$$$$
