
     RDKit          3D

 47 50  0  0  0  0  0  0  0  0999 V2000
   40.4220   23.0390   33.6830 C   0  0  0  0  0  0  0  0  0  0  0  0
   40.9880   23.9060   32.7710 C   0  0  0  0  0  0  0  0  0  0  0  0
   42.1150   24.6040   33.0580 C   0  0  0  0  0  0  0  0  0  0  0  0
   42.6860   24.4050   34.3210 C   0  0  0  0  0  0  0  0  0  0  0  0
   42.1240   23.5320   35.2390 C   0  0  0  0  0  0  0  0  0  0  0  0
   41.0020   22.8800   34.8770 N   0  0  0  0  0  0  0  0  0  0  0  0
   42.7190   23.2730   36.5780 C   0  0  0  0  0  0  0  0  0  0  0  0
   42.8360   21.7920   36.7510 C   0  0  0  0  0  0  0  0  0  0  0  0
   43.5860   20.8010   36.1340 C   0  0  0  0  0  0  0  0  0  0  0  0
   43.2690   19.6020   36.7170 C   0  0  0  0  0  0  0  0  0  0  0  0
   42.3560   19.8530   37.6620 N   0  0  0  0  0  0  0  0  0  0  0  0
   42.1110   21.1300   37.6730 N   0  0  0  0  0  0  0  0  0  0  0  0
   39.2890   22.4260   33.2420 O   0  0  0  0  0  0  0  0  0  0  0  0
   37.9950   22.9830   33.4870 C   0  0  0  0  0  0  0  0  0  0  0  0
   37.6350   22.5860   34.6290 O   0  0  0  0  0  0  0  0  0  0  0  0
   35.3530   23.8660   31.0960 C   0  0  0  0  0  0  0  0  0  0  0  0
   36.2000   23.1130   31.9110 C   0  0  0  0  0  0  0  0  0  0  0  0
   37.1710   23.8300   32.6850 C   0  0  0  0  0  0  0  0  0  0  0  0
   37.1990   25.1590   32.5750 N   0  0  0  0  0  0  0  0  0  0  0  0
   36.3650   25.8600   31.7770 C   0  0  0  0  0  0  0  0  0  0  0  0
   35.4480   25.2140   31.0420 N   0  0  0  0  0  0  0  0  0  0  0  0
   36.4760   27.2760   31.7300 N   0  0  0  0  0  0  0  0  0  0  0  0
   36.3190   28.1910   32.8430 C   0  0  0  0  0  0  0  0  0  0  0  0
   35.8990   29.4580   32.1680 C   0  0  0  0  0  0  0  0  0  0  0  0
   36.8480   29.4820   30.9630 C   0  0  0  0  0  0  0  0  0  0  0  0
   36.7730   28.0490   30.5220 C   0  0  0  0  0  0  0  0  0  0  0  0
   35.9660   21.6350   31.8530 C   0  0  0  0  0  0  0  0  0  0  0  0
   37.1920   20.9460   31.7910 F   0  0  0  0  0  0  0  0  0  0  0  0
   35.3830   21.3450   33.0500 F   0  0  0  0  0  0  0  0  0  0  0  0
   35.1310   21.2660   30.8460 F   0  0  0  0  0  0  0  0  0  0  0  0
   40.5135   24.0343   31.7869 H   0  0  0  0  0  0  0  0  0  0  0  0
   42.5614   25.2969   32.3296 H   0  0  0  0  0  0  0  0  0  0  0  0
   43.6006   24.9536   34.5904 H   0  0  0  0  0  0  0  0  0  0  0  0
   43.7147   23.7363   36.6404 H   0  0  0  0  0  0  0  0  0  0  0  0
   42.0852   23.7020   37.3681 H   0  0  0  0  0  0  0  0  0  0  0  0
   44.3091   20.9516   35.3189 H   0  0  0  0  0  0  0  0  0  0  0  0
   43.6867   18.6182   36.4568 H   0  0  0  0  0  0  0  0  0  0  0  0
   41.9200   19.1520   38.2779 H   0  0  0  0  0  0  0  0  0  0  0  0
   34.5942   23.3535   30.4864 H   0  0  0  0  0  0  0  0  0  0  0  0
   35.5457   27.8379   33.5411 H   0  0  0  0  0  0  0  0  0  0  0  0
   37.2293   28.3004   33.4508 H   0  0  0  0  0  0  0  0  0  0  0  0
   34.8464   29.4163   31.8514 H   0  0  0  0  0  0  0  0  0  0  0  0
   35.9581   30.3513   32.8072 H   0  0  0  0  0  0  0  0  0  0  0  0
   36.4911   30.1666   30.1794 H   0  0  0  0  0  0  0  0  0  0  0  0
   37.8641   29.8379   31.1887 H   0  0  0  0  0  0  0  0  0  0  0  0
   35.9739   27.9185   29.7774 H   0  0  0  0  0  0  0  0  0  0  0  0
   37.7110   27.7203   30.0508 H   0  0  0  0  0  0  0  0  0  0  0  0
  1  6  2  0
  2  3  2  0
  2  1  1  0
  3  4  1  0
  4  5  2  0
  5  7  1  0
  6  5  1  0
  7  8  1  0
  8 12  2  0
  9 10  2  0
  9  8  1  0
 10 11  1  0
 11 12  1  0
 13 14  1  0
 13  1  1  0
 14 15  2  0
 16 17  2  0
 17 18  1  0
 18 14  1  0
 19 18  2  0
 20 19  1  0
 21 16  1  0
 21 20  2  0
 22 20  1  0
 22 23  1  0
 24 23  1  0
 25 24  1  0
 26 25  1  0
 26 22  1  0
 27 17  1  0
 27 29  1  0
 28 27  1  0
 30 27  1  0
  2 31  1  0
  3 32  1  0
  4 33  1  0
  7 34  1  0
  7 35  1  0
  9 36  1  0
 10 37  1  0
 11 38  1  0
 16 39  1  0
 23 40  1  0
 23 41  1  0
 24 42  1  0
 24 43  1  0
 25 44  1  0
 25 45  1  0
 26 46  1  0
 26 47  1  0
M  ISO  8  31  14  32  14  33  14  34   8  35   8  36  14  37  14  38   9
M  ISO  8  39  14  40  13  41  13  42  13  43  13  44  13  45  13  46  13
M  ISO  1  47  13
M  END
>  <minimizedAffinity>  (1) 
-5.55693197

>  <minimizedRMSD>  (1) 
6.65106678

$$$$
