
     RDKit          3D

 38 40  0  0  0  0  0  0  0  0999 V2000
   38.6130   23.2510   32.9540 C   0  0  0  0  0  0  0  0  0  0  0  0
   38.9140   24.3200   32.1370 C   0  0  0  0  0  0  0  0  0  0  0  0
   38.8340   25.5980   32.5820 C   0  0  0  0  0  0  0  0  0  0  0  0
   38.4330   25.7900   33.9100 C   0  0  0  0  0  0  0  0  0  0  0  0
   38.1330   24.7190   34.7360 C   0  0  0  0  0  0  0  0  0  0  0  0
   38.2360   23.4800   34.2170 N   0  0  0  0  0  0  0  0  0  0  0  0
   37.7360   24.8800   36.1610 C   0  0  0  0  0  0  0  0  0  0  0  0
   38.5930   23.9720   36.9840 C   0  0  0  0  0  0  0  0  0  0  0  0
   39.8440   23.3950   36.8060 C   0  0  0  0  0  0  0  0  0  0  0  0
   40.1210   22.6400   37.9160 C   0  0  0  0  0  0  0  0  0  0  0  0
   39.0770   22.7510   38.7420 N   0  0  0  0  0  0  0  0  0  0  0  0
   38.1880   23.5280   38.1940 N   0  0  0  0  0  0  0  0  0  0  0  0
   38.7370   22.0350   32.3510 O   0  0  0  0  0  0  0  0  0  0  0  0
   37.8220   21.6140   31.3350 C   0  0  0  0  0  0  0  0  0  0  0  0
   36.8050   22.3530   31.4220 O   0  0  0  0  0  0  0  0  0  0  0  0
   38.9440   19.9620   28.2490 C   0  0  0  0  0  0  0  0  0  0  0  0
   38.7800   20.9180   29.2560 C   0  0  0  0  0  0  0  0  0  0  0  0
   37.9290   20.5720   30.3570 C   0  0  0  0  0  0  0  0  0  0  0  0
   37.3540   19.3710   30.3460 N   0  0  0  0  0  0  0  0  0  0  0  0
   37.5270   18.4680   29.3650 C   0  0  0  0  0  0  0  0  0  0  0  0
   38.3190   18.7600   28.3210 N   0  0  0  0  0  0  0  0  0  0  0  0
   39.5380   22.1900   29.0230 C   0  0  0  0  0  0  0  0  0  0  0  0
   38.6940   23.3030   29.1990 F   0  0  0  0  0  0  0  0  0  0  0  0
   40.4660   22.2060   30.0210 F   0  0  0  0  0  0  0  0  0  0  0  0
   40.1740   22.2210   27.8230 F   0  0  0  0  0  0  0  0  0  0  0  0
   36.8390   17.1650   29.4570 C   0  0  0  0  0  0  0  0  0  0  0  0
   39.2265   24.1314   31.0993 H   0  0  0  0  0  0  0  0  0  0  0  0
   39.0740   26.4487   31.9273 H   0  0  0  0  0  0  0  0  0  0  0  0
   38.3545   26.8133   34.3058 H   0  0  0  0  0  0  0  0  0  0  0  0
   37.8877   25.9232   36.4754 H   0  0  0  0  0  0  0  0  0  0  0  0
   36.6737   24.6269   36.2930 H   0  0  0  0  0  0  0  0  0  0  0  0
   40.4966   23.5215   35.9296 H   0  0  0  0  0  0  0  0  0  0  0  0
   41.0335   22.0519   38.0936 H   0  0  0  0  0  0  0  0  0  0  0  0
   38.9898   22.2962   39.6620 H   0  0  0  0  0  0  0  0  0  0  0  0
   39.5886   20.1875   27.3866 H   0  0  0  0  0  0  0  0  0  0  0  0
   36.6983   16.8985   30.5149 H   0  0  0  0  0  0  0  0  0  0  0  0
   35.8588   17.2322   28.9623 H   0  0  0  0  0  0  0  0  0  0  0  0
   37.4473   16.3934   28.9623 H   0  0  0  0  0  0  0  0  0  0  0  0
  1  6  2  0
  2  3  2  0
  2  1  1  0
  3  4  1  0
  4  5  2  0
  5  7  1  0
  6  5  1  0
  7  8  1  0
  8 12  2  0
  9  8  1  0
  9 10  2  0
 10 11  1  0
 12 11  1  0
 13  1  1  0
 14 15  2  0
 14 13  1  0
 16 21  2  0
 16 17  1  0
 17 18  2  0
 18 14  1  0
 19 18  1  0
 20 26  1  0
 20 19  2  0
 21 20  1  0
 22 23  1  0
 22 17  1  0
 22 24  1  0
 25 22  1  0
  2 27  1  0
  3 28  1  0
  4 29  1  0
  7 30  1  0
  7 31  1  0
  9 32  1  0
 10 33  1  0
 11 34  1  0
 16 35  1  0
 26 36  1  0
 26 37  1  0
 26 38  1  0
M  ISO  8  27  14  28  14  29  14  30   8  31   8  32  14  33  14  34   9
M  ISO  4  35  14  36   8  37   8  38   8
M  END
>  <minimizedAffinity>  (1) 
-4.20409393

>  <minimizedRMSD>  (1) 
0.493612498

$$$$
