
     RDKit          3D

 34 36  0  0  0  0  0  0  0  0999 V2000
   40.1140   24.7430   35.5300 C   0  0  0  0  0  0  0  0  0  0  0  0
   39.0980   23.8730   36.0140 C   0  0  0  0  0  0  0  0  0  0  0  0
   38.0210   23.6690   35.1370 C   0  0  0  0  0  0  0  0  0  0  0  0
   38.0110   24.2820   33.9370 N   0  0  0  0  0  0  0  0  0  0  0  0
   38.9900   25.0980   33.5120 C   0  0  0  0  0  0  0  0  0  0  0  0
   40.0400   25.3120   34.3400 N   0  0  0  0  0  0  0  0  0  0  0  0
   39.1790   23.2620   37.2900 N   0  0  0  0  0  0  0  0  0  0  0  0
   38.3680   23.6000   38.3860 C   0  0  0  0  0  0  0  0  0  0  0  0
   38.0990   24.8740   38.5440 N   0  0  0  0  0  0  0  0  0  0  0  0
   37.9320   22.4790   39.2080 N   0  0  0  0  0  0  0  0  0  0  0  0
   37.5140   25.2030   39.3120 H   0  0  0  0  0  0  0  0  0  0  0  0
   38.9180   25.7220   32.2040 C   0  0  0  0  0  0  0  0  0  0  0  0
   39.5180   25.0950   31.1180 C   0  0  0  0  0  0  0  0  0  0  0  0
   39.3820   25.7670   29.9290 C   0  0  0  0  0  0  0  0  0  0  0  0
   38.7190   26.9460   29.8090 N   0  0  0  0  0  0  0  0  0  0  0  0
   38.1590   27.5130   30.8720 C   0  0  0  0  0  0  0  0  0  0  0  0
   38.2630   26.8820   32.0960 N   0  0  0  0  0  0  0  0  0  0  0  0
   37.4390   28.7810   30.7800 C   0  0  0  0  0  0  0  0  0  0  0  0
   36.5680   29.1480   31.7850 C   0  0  0  0  0  0  0  0  0  0  0  0
   35.9030   30.3670   31.6530 C   0  0  0  0  0  0  0  0  0  0  0  0
   36.1830   31.1120   30.5010 C   0  0  0  0  0  0  0  0  0  0  0  0
   37.0590   30.7290   29.5030 C   0  0  0  0  0  0  0  0  0  0  0  0
   37.6820   29.5260   29.6850 N   0  0  0  0  0  0  0  0  0  0  0  0
   40.9878   24.9482   36.1659 H   0  0  0  0  0  0  0  0  0  0  0  0
   37.1886   23.0114   35.4282 H   0  0  0  0  0  0  0  0  0  0  0  0
   39.8803   22.5195   37.4229 H   0  0  0  0  0  0  0  0  0  0  0  0
   37.3345   22.6451   40.0303 H   0  0  0  0  0  0  0  0  0  0  0  0
   38.2213   21.5203   38.9668 H   0  0  0  0  0  0  0  0  0  0  0  0
   40.0568   24.1399   31.2044 H   0  0  0  0  0  0  0  0  0  0  0  0
   39.8332   25.3280   29.0270 H   0  0  0  0  0  0  0  0  0  0  0  0
   36.4037   28.5018   32.6599 H   0  0  0  0  0  0  0  0  0  0  0  0
   35.1948   30.7247   32.4149 H   0  0  0  0  0  0  0  0  0  0  0  0
   35.6663   32.0757   30.3812 H   0  0  0  0  0  0  0  0  0  0  0  0
   37.2435   31.3538   28.6167 H   0  0  0  0  0  0  0  0  0  0  0  0
  1  2  2  0
  2  7  1  0
  3  2  1  0
  4  3  2  0
  5  4  1  0
  5  6  2  0
  6  1  1  0
  7  8  1  0
  8  9  2  0
  8 10  1  0
  9 11  1  0
 12  5  1  0
 13 12  2  0
 14 13  1  0
 15 14  2  0
 15 16  1  0
 16 17  2  0
 17 12  1  0
 18 16  1  0
 18 19  2  0
 20 19  1  0
 21 20  2  0
 22 23  2  0
 22 21  1  0
 23 18  1  0
  1 24  1  0
  3 25  1  0
  7 26  1  0
 10 27  1  0
 10 28  1  0
 13 29  1  0
 14 30  1  0
 19 31  1  0
 20 32  1  0
 21 33  1  0
 22 34  1  0
M  ISO  8  24  14  25  14  29  14  30  14  31  14  32  14  33  14  34  14
M  END
>  <minimizedAffinity>  (1) 
-4.64226866

>  <minimizedRMSD>  (1) 
4.6905942

$$$$
