
     RDKit          3D

 42 45  0  0  0  0  0  0  0  0999 V2000
   38.7580   23.6670   32.9390 C   0  0  0  0  0  0  0  0  0  0  0  0
   38.9890   24.7930   32.1760 C   0  0  0  0  0  0  0  0  0  0  0  0
   38.8170   26.0390   32.6790 C   0  0  0  0  0  0  0  0  0  0  0  0
   38.3980   26.1410   34.0080 C   0  0  0  0  0  0  0  0  0  0  0  0
   38.1680   25.0150   34.7830 C   0  0  0  0  0  0  0  0  0  0  0  0
   38.3590   23.8100   34.2080 N   0  0  0  0  0  0  0  0  0  0  0  0
   37.7530   25.0800   36.2120 C   0  0  0  0  0  0  0  0  0  0  0  0
   38.5770   24.0930   36.9770 C   0  0  0  0  0  0  0  0  0  0  0  0
   39.8010   23.4740   36.7550 C   0  0  0  0  0  0  0  0  0  0  0  0
   40.0520   22.6500   37.8210 C   0  0  0  0  0  0  0  0  0  0  0  0
   39.0190   22.7620   38.6670 N   0  0  0  0  0  0  0  0  0  0  0  0
   38.1650   23.6060   38.1620 N   0  0  0  0  0  0  0  0  0  0  0  0
   38.9690   22.4940   32.2830 O   0  0  0  0  0  0  0  0  0  0  0  0
   37.9260   21.8590   31.5380 C   0  0  0  0  0  0  0  0  0  0  0  0
   36.8950   22.5760   31.6610 O   0  0  0  0  0  0  0  0  0  0  0  0
   38.7490   19.6270   28.7360 C   0  0  0  0  0  0  0  0  0  0  0  0
   38.6880   20.7630   29.5540 C   0  0  0  0  0  0  0  0  0  0  0  0
   37.9310   20.6510   30.7660 C   0  0  0  0  0  0  0  0  0  0  0  0
   37.3450   19.4850   31.0230 N   0  0  0  0  0  0  0  0  0  0  0  0
   37.4140   18.4100   30.2280 C   0  0  0  0  0  0  0  0  0  0  0  0
   38.1220   18.4850   29.0770 N   0  0  0  0  0  0  0  0  0  0  0  0
   36.7380   17.1690   30.5890 C   0  0  0  0  0  0  0  0  0  0  0  0
   36.1180   17.1710   31.7790 C   0  0  0  0  0  0  0  0  0  0  0  0
   35.4070   16.1980   32.4120 C   0  0  0  0  0  0  0  0  0  0  0  0
   35.4390   15.0150   31.4540 C   0  0  0  0  0  0  0  0  0  0  0  0
   36.4570   15.5770   29.9250 S   0  0  0  0  0  0  0  0  0  0  0  0
   39.4410   21.9460   29.0220 C   0  0  0  0  0  0  0  0  0  0  0  0
   38.7150   23.1270   29.2450 F   0  0  0  0  0  0  0  0  0  0  0  0
   40.5610   21.9900   29.7950 F   0  0  0  0  0  0  0  0  0  0  0  0
   39.8050   21.8090   27.7210 F   0  0  0  0  0  0  0  0  0  0  0  0
   39.3209   24.6762   31.1338 H   0  0  0  0  0  0  0  0  0  0  0  0
   38.9998   26.9340   32.0661 H   0  0  0  0  0  0  0  0  0  0  0  0
   38.2473   27.1373   34.4492 H   0  0  0  0  0  0  0  0  0  0  0  0
   37.9238   26.0932   36.6048 H   0  0  0  0  0  0  0  0  0  0  0  0
   36.6833   24.8435   36.3109 H   0  0  0  0  0  0  0  0  0  0  0  0
   40.4520   23.6193   35.8803 H   0  0  0  0  0  0  0  0  0  0  0  0
   40.9388   22.0135   37.9571 H   0  0  0  0  0  0  0  0  0  0  0  0
   38.9175   22.2654   39.5637 H   0  0  0  0  0  0  0  0  0  0  0  0
   39.3202   19.6688   27.7969 H   0  0  0  0  0  0  0  0  0  0  0  0
   36.1975   18.1164   32.3357 H   0  0  0  0  0  0  0  0  0  0  0  0
   34.9184   16.2539   33.3959 H   0  0  0  0  0  0  0  0  0  0  0  0
   34.9710   14.0314   31.6074 H   0  0  0  0  0  0  0  0  0  0  0  0
  1  6  2  0
  2  3  2  0
  2  1  1  0
  3  4  1  0
  4  5  2  0
  5  7  1  0
  6  5  1  0
  7  8  1  0
  8 12  2  0
  9  8  1  0
  9 10  2  0
 10 11  1  0
 12 11  1  0
 13  1  1  0
 14 15  2  0
 14 13  1  0
 16 21  2  0
 16 17  1  0
 17 18  2  0
 18 19  1  0
 18 14  1  0
 20 22  1  0
 20 19  2  0
 21 20  1  0
 22 23  2  0
 23 24  1  0
 25 24  2  0
 26 22  1  0
 26 25  1  0
 27 28  1  0
 27 17  1  0
 27 29  1  0
 30 27  1  0
  2 31  1  0
  3 32  1  0
  4 33  1  0
  7 34  1  0
  7 35  1  0
  9 36  1  0
 10 37  1  0
 11 38  1  0
 16 39  1  0
 23 40  1  0
 24 41  1  0
 25 42  1  0
M  ISO  8  31  14  32  14  33  14  34   8  35   8  36  14  37  14  38   9
M  ISO  4  39  14  40  14  41  14  42  14
M  END
>  <minimizedAffinity>  (1) 
-4.71756697

>  <minimizedRMSD>  (1) 
0.91884768

$$$$
