
     RDKit          3D

 53 56  0  0  0  0  0  0  0  0999 V2000
   39.1260   22.6030   32.2210 O   0  0  0  0  0  0  0  0  0  0  0  0
   38.9740   23.7310   32.9590 C   0  0  0  0  0  0  0  0  0  0  0  0
   39.4320   24.8630   32.3310 C   0  0  0  0  0  0  0  0  0  0  0  0
   39.3560   26.0850   32.9260 C   0  0  0  0  0  0  0  0  0  0  0  0
   38.7920   26.1450   34.2120 C   0  0  0  0  0  0  0  0  0  0  0  0
   38.3340   24.9970   34.8410 C   0  0  0  0  0  0  0  0  0  0  0  0
   38.4440   23.8250   34.1830 N   0  0  0  0  0  0  0  0  0  0  0  0
   37.7400   25.0160   36.2150 C   0  0  0  0  0  0  0  0  0  0  0  0
   38.5440   24.0650   37.0520 C   0  0  0  0  0  0  0  0  0  0  0  0
   39.7550   23.3960   36.8840 C   0  0  0  0  0  0  0  0  0  0  0  0
   39.9880   22.6510   38.0040 C   0  0  0  0  0  0  0  0  0  0  0  0
   38.9600   22.8510   38.8350 N   0  0  0  0  0  0  0  0  0  0  0  0
   38.1230   23.6780   38.2700 N   0  0  0  0  0  0  0  0  0  0  0  0
   38.2160   22.2940   31.1480 C   0  0  0  0  0  0  0  0  0  0  0  0
   37.2470   23.0810   31.2400 O   0  0  0  0  0  0  0  0  0  0  0  0
   39.4040   20.7120   28.0570 C   0  0  0  0  0  0  0  0  0  0  0  0
   39.2470   21.6220   29.0970 C   0  0  0  0  0  0  0  0  0  0  0  0
   38.3060   21.2970   30.1170 C   0  0  0  0  0  0  0  0  0  0  0  0
   37.6510   20.1500   29.9940 N   0  0  0  0  0  0  0  0  0  0  0  0
   37.8080   19.2790   28.9870 C   0  0  0  0  0  0  0  0  0  0  0  0
   38.6920   19.5640   28.0090 N   0  0  0  0  0  0  0  0  0  0  0  0
   40.1230   22.8470   28.9890 C   0  0  0  0  0  0  0  0  0  0  0  0
   39.3620   24.0000   29.1940 F   0  0  0  0  0  0  0  0  0  0  0  0
   40.9980   22.7060   30.0330 F   0  0  0  0  0  0  0  0  0  0  0  0
   40.8240   22.9030   27.8300 F   0  0  0  0  0  0  0  0  0  0  0  0
   37.0300   18.0500   28.9850 C   0  0  0  0  0  0  0  0  0  0  0  0
   36.2740   17.8470   28.0090 O   0  0  0  0  0  0  0  0  0  0  0  0
   37.1950   17.1140   30.1560 C   0  0  0  0  0  0  0  0  0  0  0  0
   36.3330   17.6210   31.3170 C   0  0  0  0  0  0  0  0  0  0  0  0
   36.1050   16.4310   32.2260 C   0  0  0  0  0  0  0  0  0  0  0  0
   37.4020   15.7060   32.3680 C   0  0  0  0  0  0  0  0  0  0  0  0
   38.6020   16.5550   32.0620 C   0  0  0  0  0  0  0  0  0  0  0  0
   38.6060   17.0760   30.6420 C   0  0  0  0  0  0  0  0  0  0  0  0
   39.8698   24.7806   31.3253 H   0  0  0  0  0  0  0  0  0  0  0  0
   39.7219   26.9905   32.4199 H   0  0  0  0  0  0  0  0  0  0  0  0
   38.7129   27.1144   34.7258 H   0  0  0  0  0  0  0  0  0  0  0  0
   37.7953   26.0304   36.6368 H   0  0  0  0  0  0  0  0  0  0  0  0
   36.6812   24.7190   36.1898 H   0  0  0  0  0  0  0  0  0  0  0  0
   40.4095   23.4576   36.0020 H   0  0  0  0  0  0  0  0  0  0  0  0
   40.8597   22.0059   38.1885 H   0  0  0  0  0  0  0  0  0  0  0  0
   38.8473   22.4239   39.7655 H   0  0  0  0  0  0  0  0  0  0  0  0
   40.1242   20.9315   27.2550 H   0  0  0  0  0  0  0  0  0  0  0  0
   36.8983   16.1085   29.8229 H   0  0  0  0  0  0  0  0  0  0  0  0
   36.8576   18.4208   31.8603 H   0  0  0  0  0  0  0  0  0  0  0  0
   35.3810   18.0381   30.9567 H   0  0  0  0  0  0  0  0  0  0  0  0
   35.7593   16.7749   33.2120 H   0  0  0  0  0  0  0  0  0  0  0  0
   35.3391   15.7657   31.8009 H   0  0  0  0  0  0  0  0  0  0  0  0
   37.4867   15.3445   33.4034 H   0  0  0  0  0  0  0  0  0  0  0  0
   37.3937   14.8840   31.6371 H   0  0  0  0  0  0  0  0  0  0  0  0
   38.6104   17.4126   32.7508 H   0  0  0  0  0  0  0  0  0  0  0  0
   39.4941   15.9233   32.1850 H   0  0  0  0  0  0  0  0  0  0  0  0
   39.2025   16.4091   30.0022 H   0  0  0  0  0  0  0  0  0  0  0  0
   39.0473   18.0830   30.6076 H   0  0  0  0  0  0  0  0  0  0  0  0
  1  2  1  0
  2  7  2  0
  3  4  2  0
  3  2  1  0
  4  5  1  0
  5  6  2  0
  6  8  1  0
  7  6  1  0
  8  9  1  0
  9 13  2  0
 10  9  1  0
 10 11  2  0
 11 12  1  0
 13 12  1  0
 14 15  2  0
 14  1  1  0
 16 17  2  0
 17 18  1  0
 18 14  1  0
 19 18  2  0
 20 19  1  0
 21 16  1  0
 21 20  2  0
 22 17  1  0
 22 23  1  0
 22 24  1  0
 25 22  1  0
 26 20  1  0
 26 28  1  0
 27 26  2  0
 28 33  1  0
 28 29  1  0
 29 30  1  0
 30 31  1  0
 32 31  1  0
 33 32  1  0
  3 34  1  0
  4 35  1  0
  5 36  1  0
  8 37  1  0
  8 38  1  0
 10 39  1  0
 11 40  1  0
 12 41  1  0
 16 42  1  0
 28 43  1  0
 29 44  1  0
 29 45  1  0
 30 46  1  0
 30 47  1  0
 31 48  1  0
 31 49  1  0
 32 50  1  0
 32 51  1  0
 33 52  1  0
 33 53  1  0
M  ISO  8  34  14  35  14  36  14  37   8  38   8  39  14  40  14  41   9
M  ISO  8  42  14  43  13  44  13  45  13  46  13  47  13  48  13  49  13
M  ISO  4  50  13  51  13  52  13  53  13
M  END
>  <minimizedAffinity>  (1) 
-4.69359112

>  <minimizedRMSD>  (1) 
0.95133096

$$$$
