
     RDKit          3D

 43 47  0  0  0  0  0  0  0  0999 V2000
   40.4710   22.6730   36.6750 C   0  0  0  0  0  0  0  0  0  0  0  0
   39.9620   23.7000   35.8610 C   0  0  0  0  0  0  0  0  0  0  0  0
   40.8830   24.5380   35.2850 C   0  0  0  0  0  0  0  0  0  0  0  0
   42.1680   24.3010   35.5490 N   0  0  0  0  0  0  0  0  0  0  0  0
   42.6750   23.3330   36.3200 C   0  0  0  0  0  0  0  0  0  0  0  0
   41.7770   22.5180   36.8800 N   0  0  0  0  0  0  0  0  0  0  0  0
   44.1290   23.3620   36.3940 C   0  0  0  0  0  0  0  0  0  0  0  0
   44.8970   22.4800   35.6710 C   0  0  0  0  0  0  0  0  0  0  0  0
   46.2730   22.4560   35.6980 C   0  0  0  0  0  0  0  0  0  0  0  0
   46.9690   23.3460   36.4780 C   0  0  0  0  0  0  0  0  0  0  0  0
   46.2390   24.2450   37.2150 C   0  0  0  0  0  0  0  0  0  0  0  0
   46.9410   25.1420   38.0020 C   0  0  0  0  0  0  0  0  0  0  0  0
   46.2900   26.0760   38.7730 C   0  0  0  0  0  0  0  0  0  0  0  0
   44.8930   26.0610   38.7130 C   0  0  0  0  0  0  0  0  0  0  0  0
   44.2380   25.1530   37.9190 C   0  0  0  0  0  0  0  0  0  0  0  0
   44.8800   24.2200   37.1490 C   0  0  0  0  0  0  0  0  0  0  0  0
   40.4910   25.6300   34.4290 N   0  0  0  0  0  0  0  0  0  0  0  0
   39.2280   25.7790   34.0280 C   0  0  0  0  0  0  0  0  0  0  0  0
   39.2250   26.8940   33.2470 C   0  0  0  0  0  0  0  0  0  0  0  0
   40.4670   27.4070   33.1820 N   0  0  0  0  0  0  0  0  0  0  0  0
   41.2730   26.6170   33.9240 C   0  0  0  0  0  0  0  0  0  0  0  0
   38.0870   27.5230   32.5400 C   0  0  0  0  0  0  0  0  0  0  0  0
   38.2350   27.8320   31.2050 C   0  0  0  0  0  0  0  0  0  0  0  0
   37.1810   28.4270   30.5070 C   0  0  0  0  0  0  0  0  0  0  0  0
   36.0150   28.6810   31.2130 C   0  0  0  0  0  0  0  0  0  0  0  0
   35.8440   28.3790   32.5540 C   0  0  0  0  0  0  0  0  0  0  0  0
   36.9040   27.7990   33.1890 C   0  0  0  0  0  0  0  0  0  0  0  0
   39.7689   21.9767   37.1569 H   0  0  0  0  0  0  0  0  0  0  0  0
   38.8819   23.8251   35.6946 H   0  0  0  0  0  0  0  0  0  0  0  0
   44.3802   21.7489   35.0319 H   0  0  0  0  0  0  0  0  0  0  0  0
   46.8186   21.7189   35.0906 H   0  0  0  0  0  0  0  0  0  0  0  0
   48.0685   23.3389   36.5111 H   0  0  0  0  0  0  0  0  0  0  0  0
   48.0404   25.1068   38.0106 H   0  0  0  0  0  0  0  0  0  0  0  0
   46.8371   26.7943   39.4013 H   0  0  0  0  0  0  0  0  0  0  0  0
   44.3140   26.7832   39.3073 H   0  0  0  0  0  0  0  0  0  0  0  0
   43.1384   25.1759   37.9001 H   0  0  0  0  0  0  0  0  0  0  0  0
   38.3700   25.1368   34.2759 H   0  0  0  0  0  0  0  0  0  0  0  0
   42.3529   26.7483   34.0871 H   0  0  0  0  0  0  0  0  0  0  0  0
   39.1814   27.6105   30.6899 H   0  0  0  0  0  0  0  0  0  0  0  0
   37.2725   28.6834   29.4412 H   0  0  0  0  0  0  0  0  0  0  0  0
   35.1767   29.1498   30.6768 H   0  0  0  0  0  0  0  0  0  0  0  0
   34.9025   28.5954   33.0801 H   0  0  0  0  0  0  0  0  0  0  0  0
   36.8102   27.5435   34.2548 H   0  0  0  0  0  0  0  0  0  0  0  0
  1  6  2  0
  2  1  1  0
  3  4  1  0
  3  2  2  0
  4  5  2  0
  5  7  1  0
  5  6  1  0
  7 16  2  0
  8  9  2  0
  8  7  1  0
  9 10  1  0
 10 11  2  0
 11 12  1  0
 12 13  2  0
 14 13  1  0
 15 14  2  0
 16 11  1  0
 16 15  1  0
 17  3  1  0
 18 17  1  0
 19 18  2  0
 20 19  1  0
 20 21  2  0
 21 17  1  0
 22 27  1  0
 22 19  1  0
 23 22  2  0
 24 23  1  0
 24 25  2  0
 25 26  1  0
 26 27  2  0
  1 28  1  0
  2 29  1  0
  8 30  1  0
  9 31  1  0
 10 32  1  0
 12 33  1  0
 13 34  1  0
 14 35  1  0
 15 36  1  0
 18 37  1  0
 21 38  1  0
 23 39  1  0
 24 40  1  0
 25 41  1  0
 26 42  1  0
 27 43  1  0
M  ISO  8  28  14  29  14  30  14  31  14  32  14  33  14  34  14  35  14
M  ISO  8  36  14  37  14  38  14  39  14  40  14  41  14  42  14  43  14
M  END
>  <minimizedAffinity>  (1) 
-6.40296412

>  <minimizedRMSD>  (1) 
1.29187298

$$$$
