
     RDKit          3D

 43 47  0  0  0  0  0  0  0  0999 V2000
   40.2920   22.3140   37.1120 C   0  0  0  0  0  0  0  0  0  0  0  0
   39.6250   23.3610   36.4480 C   0  0  0  0  0  0  0  0  0  0  0  0
   40.4270   24.2300   35.7570 C   0  0  0  0  0  0  0  0  0  0  0  0
   41.7480   24.0110   35.7750 N   0  0  0  0  0  0  0  0  0  0  0  0
   42.3820   23.0120   36.4080 C   0  0  0  0  0  0  0  0  0  0  0  0
   41.6030   22.1710   37.0770 N   0  0  0  0  0  0  0  0  0  0  0  0
   43.8340   23.0570   36.2270 C   0  0  0  0  0  0  0  0  0  0  0  0
   44.4750   22.1640   35.3990 C   0  0  0  0  0  0  0  0  0  0  0  0
   45.8410   22.1610   35.1890 C   0  0  0  0  0  0  0  0  0  0  0  0
   46.6450   23.0840   35.8250 C   0  0  0  0  0  0  0  0  0  0  0  0
   46.0410   23.9850   36.6550 C   0  0  0  0  0  0  0  0  0  0  0  0
   46.8520   24.9030   37.2850 C   0  0  0  0  0  0  0  0  0  0  0  0
   46.3300   25.8500   38.1410 C   0  0  0  0  0  0  0  0  0  0  0  0
   44.9490   25.8280   38.3310 C   0  0  0  0  0  0  0  0  0  0  0  0
   44.1840   24.8880   37.6760 C   0  0  0  0  0  0  0  0  0  0  0  0
   44.6890   23.9520   36.8320 C   0  0  0  0  0  0  0  0  0  0  0  0
   39.8890   25.3560   35.0260 N   0  0  0  0  0  0  0  0  0  0  0  0
   38.5720   25.5860   34.9770 C   0  0  0  0  0  0  0  0  0  0  0  0
   38.4280   26.7100   34.2150 C   0  0  0  0  0  0  0  0  0  0  0  0
   39.6220   27.1350   33.8220 N   0  0  0  0  0  0  0  0  0  0  0  0
   40.5580   26.2920   34.3240 C   0  0  0  0  0  0  0  0  0  0  0  0
   37.2800   27.4430   33.8050 N   0  0  0  0  0  0  0  0  0  0  0  0
   36.6890   28.3560   34.6040 C   0  0  0  0  0  0  0  0  0  0  0  0
   35.5630   29.0460   34.1420 C   0  0  0  0  0  0  0  0  0  0  0  0
   35.1320   28.7280   32.8690 C   0  0  0  0  0  0  0  0  0  0  0  0
   34.1090   29.3140   32.3760 O   0  0  0  0  0  0  0  0  0  0  0  0
   35.7290   27.8150   32.0800 N   0  0  0  0  0  0  0  0  0  0  0  0
   36.8160   27.1680   32.5600 C   0  0  0  0  0  0  0  0  0  0  0  0
   37.3640   26.3200   31.8170 O   0  0  0  0  0  0  0  0  0  0  0  0
   39.6964   21.5863   37.6827 H   0  0  0  0  0  0  0  0  0  0  0  0
   38.5313   23.4738   36.4819 H   0  0  0  0  0  0  0  0  0  0  0  0
   43.8669   21.4114   34.8757 H   0  0  0  0  0  0  0  0  0  0  0  0
   46.2891   21.4192   34.5116 H   0  0  0  0  0  0  0  0  0  0  0  0
   47.7339   23.0940   35.6692 H   0  0  0  0  0  0  0  0  0  0  0  0
   47.9364   24.8803   37.1019 H   0  0  0  0  0  0  0  0  0  0  0  0
   46.9711   26.5858   38.6484 H   0  0  0  0  0  0  0  0  0  0  0  0
   44.4721   26.5583   39.0013 H   0  0  0  0  0  0  0  0  0  0  0  0
   43.0974   24.8963   37.8473 H   0  0  0  0  0  0  0  0  0  0  0  0
   37.7741   24.9949   35.4503 H   0  0  0  0  0  0  0  0  0  0  0  0
   41.6472   26.3588   34.1857 H   0  0  0  0  0  0  0  0  0  0  0  0
   37.0888   28.5558   35.6091 H   0  0  0  0  0  0  0  0  0  0  0  0
   35.0499   29.7993   34.7579 H   0  0  0  0  0  0  0  0  0  0  0  0
   35.3680   27.6145   31.1364 H   0  0  0  0  0  0  0  0  0  0  0  0
  2  1  2  0
  3  4  2  0
  3  2  1  0
  4  5  1  0
  5  6  2  0
  6  1  1  0
  7  5  1  0
  7 16  1  0
  8  7  2  0
  9  8  1  0
  9 10  2  0
 10 11  1  0
 11 16  2  0
 11 12  1  0
 12 13  2  0
 13 14  1  0
 15 14  2  0
 16 15  1  0
 17  3  1  0
 18 17  1  0
 19 18  2  0
 20 19  1  0
 20 21  2  0
 21 17  1  0
 22 19  1  0
 22 23  1  0
 24 23  2  0
 25 24  1  0
 26 25  2  0
 27 28  1  0
 27 25  1  0
 28 22  1  0
 29 28  2  0
  1 30  1  0
  2 31  1  0
  8 32  1  0
  9 33  1  0
 10 34  1  0
 12 35  1  0
 13 36  1  0
 14 37  1  0
 15 38  1  0
 18 39  1  0
 21 40  1  0
 23 41  1  0
 24 42  1  0
 27 43  1  0
M  ISO  8  30  14  31  14  32  14  33  14  34  14  35  14  36  14  37  14
M  ISO  6  38  14  39  14  40  14  41  14  42  14  43   9
M  END
>  <minimizedAffinity>  (1) 
-6.42540884

>  <minimizedRMSD>  (1) 
2.14497328

$$$$
