
     RDKit          3D

 39 43  0  0  0  0  0  0  0  0999 V2000
   40.4700   22.2760   37.2410 C   0  0  0  0  0  0  0  0  0  0  0  0
   39.7290   23.2140   36.4930 C   0  0  0  0  0  0  0  0  0  0  0  0
   40.4540   24.0920   35.7340 C   0  0  0  0  0  0  0  0  0  0  0  0
   41.7890   23.9740   35.7800 N   0  0  0  0  0  0  0  0  0  0  0  0
   42.4980   23.0910   36.4840 C   0  0  0  0  0  0  0  0  0  0  0  0
   41.7890   22.2340   37.2240 N   0  0  0  0  0  0  0  0  0  0  0  0
   43.9400   23.2430   36.3010 C   0  0  0  0  0  0  0  0  0  0  0  0
   44.6330   22.4610   35.4110 C   0  0  0  0  0  0  0  0  0  0  0  0
   45.9930   22.5580   35.1970 C   0  0  0  0  0  0  0  0  0  0  0  0
   46.7400   23.4860   35.8960 C   0  0  0  0  0  0  0  0  0  0  0  0
   46.0900   24.2860   36.7920 C   0  0  0  0  0  0  0  0  0  0  0  0
   46.8480   25.2080   37.4850 C   0  0  0  0  0  0  0  0  0  0  0  0
   46.2680   26.0520   38.4070 C   0  0  0  0  0  0  0  0  0  0  0  0
   44.8940   25.9230   38.5950 C   0  0  0  0  0  0  0  0  0  0  0  0
   44.1810   24.9860   37.8790 C   0  0  0  0  0  0  0  0  0  0  0  0
   44.7390   24.1460   36.9660 C   0  0  0  0  0  0  0  0  0  0  0  0
   39.8290   25.1080   34.9150 N   0  0  0  0  0  0  0  0  0  0  0  0
   38.7470   24.8330   34.2010 C   0  0  0  0  0  0  0  0  0  0  0  0
   38.4170   25.9930   33.5490 C   0  0  0  0  0  0  0  0  0  0  0  0
   39.3060   26.9170   33.8910 N   0  0  0  0  0  0  0  0  0  0  0  0
   40.2080   26.3890   34.7500 C   0  0  0  0  0  0  0  0  0  0  0  0
   37.2670   26.0900   32.6540 C   0  0  0  0  0  0  0  0  0  0  0  0
   36.7290   24.8510   32.1120 C   0  0  0  0  0  0  0  0  0  0  0  0
   35.2880   25.4360   31.0370 S   0  0  0  0  0  0  0  0  0  0  0  0
   35.6990   27.2210   31.5290 C   0  0  0  0  0  0  0  0  0  0  0  0
   36.5860   27.1460   32.2190 N   0  0  0  0  0  0  0  0  0  0  0  0
   39.9268   21.5500   37.8638 H   0  0  0  0  0  0  0  0  0  0  0  0
   38.6296   23.2386   36.5182 H   0  0  0  0  0  0  0  0  0  0  0  0
   44.0708   21.7122   34.8338 H   0  0  0  0  0  0  0  0  0  0  0  0
   46.4829   21.8951   34.4685 H   0  0  0  0  0  0  0  0  0  0  0  0
   47.8244   23.5778   35.7360 H   0  0  0  0  0  0  0  0  0  0  0  0
   47.9303   25.2700   37.2987 H   0  0  0  0  0  0  0  0  0  0  0  0
   46.8606   26.7907   38.9666 H   0  0  0  0  0  0  0  0  0  0  0  0
   44.3763   26.5712   39.3174 H   0  0  0  0  0  0  0  0  0  0  0  0
   43.0978   24.9131   38.0560 H   0  0  0  0  0  0  0  0  0  0  0  0
   38.2202   23.8691   34.1432 H   0  0  0  0  0  0  0  0  0  0  0  0
   41.0663   26.8971   35.2138 H   0  0  0  0  0  0  0  0  0  0  0  0
   37.0770   23.8221   32.2859 H   0  0  0  0  0  0  0  0  0  0  0  0
   35.1804   28.1365   31.2081 H   0  0  0  0  0  0  0  0  0  0  0  0
  2  1  2  0
  3  4  2  0
  3  2  1  0
  4  5  1  0
  5  6  2  0
  6  1  1  0
  7  5  1  0
  7 16  1  0
  8  7  2  0
  9  8  1  0
  9 10  2  0
 10 11  1  0
 11 16  2  0
 11 12  1  0
 12 13  2  0
 13 14  1  0
 15 14  2  0
 16 15  1  0
 17  3  1  0
 18 17  1  0
 19 20  1  0
 19 18  2  0
 20 21  2  0
 21 17  1  0
 22 19  1  0
 23 22  2  0
 24 25  1  0
 24 23  1  0
 25 26  2  0
 26 22  1  0
  1 27  1  0
  2 28  1  0
  8 29  1  0
  9 30  1  0
 10 31  1  0
 12 32  1  0
 13 33  1  0
 14 34  1  0
 15 35  1  0
 18 36  1  0
 21 37  1  0
 23 38  1  0
 25 39  1  0
M  ISO  8  27  14  28  14  29  14  30  14  31  14  32  14  33  14  34  14
M  ISO  5  35  14  36  14  37  14  38  14  39  14
M  END
>  <minimizedAffinity>  (1) 
-6.04993105

>  <minimizedRMSD>  (1) 
0.950444221

$$$$
