
     RDKit          3D

 40 44  0  0  0  0  0  0  0  0999 V2000
   40.6160   22.1570   37.1180 C   0  0  0  0  0  0  0  0  0  0  0  0
   39.8750   23.1180   36.4030 C   0  0  0  0  0  0  0  0  0  0  0  0
   40.6100   24.0480   35.7030 C   0  0  0  0  0  0  0  0  0  0  0  0
   41.9480   23.9490   35.7710 N   0  0  0  0  0  0  0  0  0  0  0  0
   42.6480   23.0380   36.4490 C   0  0  0  0  0  0  0  0  0  0  0  0
   41.9410   22.1370   37.1270 N   0  0  0  0  0  0  0  0  0  0  0  0
   44.0900   23.2150   36.3090 C   0  0  0  0  0  0  0  0  0  0  0  0
   44.8260   22.4320   35.4550 C   0  0  0  0  0  0  0  0  0  0  0  0
   46.1880   22.5540   35.2830 C   0  0  0  0  0  0  0  0  0  0  0  0
   46.9000   23.4910   35.9760 C   0  0  0  0  0  0  0  0  0  0  0  0
   46.2040   24.2970   36.8420 C   0  0  0  0  0  0  0  0  0  0  0  0
   46.9210   25.2450   37.5440 C   0  0  0  0  0  0  0  0  0  0  0  0
   46.3030   26.0910   38.4290 C   0  0  0  0  0  0  0  0  0  0  0  0
   44.9230   25.9450   38.5850 C   0  0  0  0  0  0  0  0  0  0  0  0
   44.2500   24.9830   37.8620 C   0  0  0  0  0  0  0  0  0  0  0  0
   44.8490   24.1400   36.9830 C   0  0  0  0  0  0  0  0  0  0  0  0
   39.9870   25.0960   34.9240 N   0  0  0  0  0  0  0  0  0  0  0  0
   38.9070   24.8410   34.2010 C   0  0  0  0  0  0  0  0  0  0  0  0
   38.5910   26.0420   33.6030 C   0  0  0  0  0  0  0  0  0  0  0  0
   39.4760   26.9540   33.9810 N   0  0  0  0  0  0  0  0  0  0  0  0
   40.3660   26.3830   34.8120 C   0  0  0  0  0  0  0  0  0  0  0  0
   37.4660   26.2710   32.7000 C   0  0  0  0  0  0  0  0  0  0  0  0
   36.9380   27.4620   32.3660 C   0  0  0  0  0  0  0  0  0  0  0  0
   35.8840   27.5600   31.5100 C   0  0  0  0  0  0  0  0  0  0  0  0
   35.4220   26.1850   31.0170 C   0  0  0  0  0  0  0  0  0  0  0  0
   36.6110   25.0100   31.8940 S   0  0  0  0  0  0  0  0  0  0  0  0
   40.0728   21.3920   37.6922 H   0  0  0  0  0  0  0  0  0  0  0  0
   38.7750   23.1250   36.4039 H   0  0  0  0  0  0  0  0  0  0  0  0
   44.2977   21.6619   34.8737 H   0  0  0  0  0  0  0  0  0  0  0  0
   46.7082   21.8882   34.5786 H   0  0  0  0  0  0  0  0  0  0  0  0
   47.9872   23.5955   35.8454 H   0  0  0  0  0  0  0  0  0  0  0  0
   48.0075   25.3233   37.3908 H   0  0  0  0  0  0  0  0  0  0  0  0
   46.8683   26.8496   38.9901 H   0  0  0  0  0  0  0  0  0  0  0  0
   44.3747   26.5953   39.2824 H   0  0  0  0  0  0  0  0  0  0  0  0
   43.1632   24.8934   38.0061 H   0  0  0  0  0  0  0  0  0  0  0  0
   38.3784   23.8816   34.1000 H   0  0  0  0  0  0  0  0  0  0  0  0
   41.2253   26.8671   35.2991 H   0  0  0  0  0  0  0  0  0  0  0  0
   37.3682   28.3791   32.7949 H   0  0  0  0  0  0  0  0  0  0  0  0
   35.4204   28.5110   31.2089 H   0  0  0  0  0  0  0  0  0  0  0  0
   34.6021   25.9429   30.3248 H   0  0  0  0  0  0  0  0  0  0  0  0
  1  6  2  0
  2  1  1  0
  3  4  1  0
  3  2  2  0
  4  5  2  0
  5  6  1  0
  7  5  1  0
  7 16  1  0
  8  7  2  0
  9  8  1  0
  9 10  2  0
 10 11  1  0
 11 16  2  0
 11 12  1  0
 12 13  2  0
 13 14  1  0
 15 14  2  0
 16 15  1  0
 17  3  1  0
 18 17  1  0
 19 20  1  0
 19 18  2  0
 20 21  2  0
 21 17  1  0
 22 19  1  0
 23 22  2  0
 24 23  1  0
 25 24  2  0
 25 26  1  0
 26 22  1  0
  1 27  1  0
  2 28  1  0
  8 29  1  0
  9 30  1  0
 10 31  1  0
 12 32  1  0
 13 33  1  0
 14 34  1  0
 15 35  1  0
 18 36  1  0
 21 37  1  0
 23 38  1  0
 24 39  1  0
 25 40  1  0
M  ISO  8  27  14  28  14  29  14  30  14  31  14  32  14  33  14  34  14
M  ISO  6  35  14  36  14  37  14  38  14  39  14  40  14
M  END
>  <minimizedAffinity>  (1) 
-6.02909327

>  <minimizedRMSD>  (1) 
0.939570308

$$$$
