
     RDKit          3D

 40 44  0  0  0  0  0  0  0  0999 V2000
   40.2420   22.4910   37.5490 C   0  0  0  0  0  0  0  0  0  0  0  0
   39.4820   23.2830   36.6600 C   0  0  0  0  0  0  0  0  0  0  0  0
   40.2000   23.9580   35.6940 C   0  0  0  0  0  0  0  0  0  0  0  0
   41.5220   23.8090   35.6830 N   0  0  0  0  0  0  0  0  0  0  0  0
   42.2540   23.0590   36.5230 C   0  0  0  0  0  0  0  0  0  0  0  0
   41.5630   22.4000   37.4640 N   0  0  0  0  0  0  0  0  0  0  0  0
   43.6830   23.1150   36.2340 C   0  0  0  0  0  0  0  0  0  0  0  0
   44.2630   22.2430   35.3270 C   0  0  0  0  0  0  0  0  0  0  0  0
   45.6000   22.2530   35.0200 C   0  0  0  0  0  0  0  0  0  0  0  0
   46.4550   23.1560   35.6160 C   0  0  0  0  0  0  0  0  0  0  0  0
   45.9110   24.0330   36.5190 C   0  0  0  0  0  0  0  0  0  0  0  0
   46.7670   24.9330   37.1110 C   0  0  0  0  0  0  0  0  0  0  0  0
   46.3110   25.8490   38.0280 C   0  0  0  0  0  0  0  0  0  0  0  0
   44.9380   25.8200   38.3250 C   0  0  0  0  0  0  0  0  0  0  0  0
   44.1320   24.8980   37.7030 C   0  0  0  0  0  0  0  0  0  0  0  0
   44.5750   23.9900   36.7960 C   0  0  0  0  0  0  0  0  0  0  0  0
   39.5470   24.8040   34.7210 N   0  0  0  0  0  0  0  0  0  0  0  0
   38.4610   24.3810   34.0700 C   0  0  0  0  0  0  0  0  0  0  0  0
   38.1130   25.4240   33.2390 C   0  0  0  0  0  0  0  0  0  0  0  0
   38.9840   26.4310   33.4090 N   0  0  0  0  0  0  0  0  0  0  0  0
   39.8920   26.0610   34.3350 C   0  0  0  0  0  0  0  0  0  0  0  0
   36.9500   25.3460   32.3450 C   0  0  0  0  0  0  0  0  0  0  0  0
   36.2800   26.4330   31.7690 C   0  0  0  0  0  0  0  0  0  0  0  0
   35.2570   26.0170   31.0010 N   0  0  0  0  0  0  0  0  0  0  0  0
   35.2680   24.6740   31.0810 C   0  0  0  0  0  0  0  0  0  0  0  0
   36.2850   24.2650   31.8880 N   0  0  0  0  0  0  0  0  0  0  0  0
   39.7208   21.9304   38.3390 H   0  0  0  0  0  0  0  0  0  0  0  0
   38.3869   23.3570   36.7331 H   0  0  0  0  0  0  0  0  0  0  0  0
   43.6184   21.5048   34.8274 H   0  0  0  0  0  0  0  0  0  0  0  0
   45.9950   21.5318   34.2894 H   0  0  0  0  0  0  0  0  0  0  0  0
   47.5286   23.1721   35.3770 H   0  0  0  0  0  0  0  0  0  0  0  0
   47.8344   24.9189   36.8457 H   0  0  0  0  0  0  0  0  0  0  0  0
   46.9888   26.5709   38.5070 H   0  0  0  0  0  0  0  0  0  0  0  0
   44.5122   26.5297   39.0496 H   0  0  0  0  0  0  0  0  0  0  0  0
   43.0613   24.8951   37.9553 H   0  0  0  0  0  0  0  0  0  0  0  0
   37.9539   23.4105   34.1742 H   0  0  0  0  0  0  0  0  0  0  0  0
   40.7405   26.6562   34.7035 H   0  0  0  0  0  0  0  0  0  0  0  0
   36.5541   27.4870   31.9241 H   0  0  0  0  0  0  0  0  0  0  0  0
   34.5598   24.0053   30.5698 H   0  0  0  0  0  0  0  0  0  0  0  0
   36.5109   23.2858   32.1138 H   0  0  0  0  0  0  0  0  0  0  0  0
  2  1  2  0
  3  2  1  0
  4  3  2  0
  4  5  1  0
  5  6  2  0
  6  1  1  0
  7  5  1  0
  7 16  1  0
  8  7  2  0
  9  8  1  0
  9 10  2  0
 10 11  1  0
 11 16  2  0
 11 12  1  0
 12 13  2  0
 13 14  1  0
 15 14  2  0
 16 15  1  0
 17  3  1  0
 18 17  1  0
 19 20  1  0
 19 18  2  0
 20 21  2  0
 21 17  1  0
 22 19  1  0
 23 22  2  0
 24 25  2  0
 24 23  1  0
 25 26  1  0
 26 22  1  0
  1 27  1  0
  2 28  1  0
  8 29  1  0
  9 30  1  0
 10 31  1  0
 12 32  1  0
 13 33  1  0
 14 34  1  0
 15 35  1  0
 18 36  1  0
 21 37  1  0
 23 38  1  0
 25 39  1  0
 26 40  1  0
M  ISO  8  27  14  28  14  29  14  30  14  31  14  32  14  33  14  34  14
M  ISO  6  35  14  36  14  37  14  38  14  39  14  40   9
M  END
>  <minimizedAffinity>  (1) 
-6.01731586

>  <minimizedRMSD>  (1) 
1.01752365

$$$$
