
     RDKit          3D

 40 43  0  0  0  0  0  0  0  0999 V2000
   40.1760   22.8650   36.9130 C   0  0  0  0  0  0  0  0  0  0  0  0
   39.5960   23.7590   35.9860 C   0  0  0  0  0  0  0  0  0  0  0  0
   40.4820   24.4670   35.1990 C   0  0  0  0  0  0  0  0  0  0  0  0
   41.7810   24.2430   35.3850 N   0  0  0  0  0  0  0  0  0  0  0  0
   42.3320   23.4000   36.2600 C   0  0  0  0  0  0  0  0  0  0  0  0
   41.4820   22.7100   37.0280 N   0  0  0  0  0  0  0  0  0  0  0  0
   43.7900   23.4010   36.2010 C   0  0  0  0  0  0  0  0  0  0  0  0
   44.4700   22.5460   35.3470 C   0  0  0  0  0  0  0  0  0  0  0  0
   45.8410   22.5030   35.2490 C   0  0  0  0  0  0  0  0  0  0  0  0
   46.6240   23.3300   36.0130 C   0  0  0  0  0  0  0  0  0  0  0  0
   45.9890   24.1900   36.8670 C   0  0  0  0  0  0  0  0  0  0  0  0
   46.7790   25.0150   37.6290 C   0  0  0  0  0  0  0  0  0  0  0  0
   46.2330   25.9070   38.5120 C   0  0  0  0  0  0  0  0  0  0  0  0
   44.8310   25.9350   38.5990 C   0  0  0  0  0  0  0  0  0  0  0  0
   44.0920   25.0820   37.8070 C   0  0  0  0  0  0  0  0  0  0  0  0
   44.6280   24.1910   36.9270 C   0  0  0  0  0  0  0  0  0  0  0  0
   40.0270   25.4100   34.2140 N   0  0  0  0  0  0  0  0  0  0  0  0
   39.3540   25.0120   33.1170 C   0  0  0  0  0  0  0  0  0  0  0  0
   39.0770   26.1360   32.4070 C   0  0  0  0  0  0  0  0  0  0  0  0
   39.5830   27.1880   33.0790 N   0  0  0  0  0  0  0  0  0  0  0  0
   40.1750   26.7480   34.2050 C   0  0  0  0  0  0  0  0  0  0  0  0
   38.3820   26.2440   31.1660 N   0  0  0  0  0  0  0  0  0  0  0  0
   36.9910   26.5320   31.1240 C   0  0  0  0  0  0  0  0  0  0  0  0
   36.2450   25.9880   32.0450 N   0  0  0  0  0  0  0  0  0  0  0  0
   36.4860   27.3930   30.0850 N   0  0  0  0  0  0  0  0  0  0  0  0
   35.2250   26.2210   31.9860 H   0  0  0  0  0  0  0  0  0  0  0  0
   39.5141   22.2752   37.5642 H   0  0  0  0  0  0  0  0  0  0  0  0
   38.5067   23.8833   35.8968 H   0  0  0  0  0  0  0  0  0  0  0  0
   43.8813   21.8657   34.7140 H   0  0  0  0  0  0  0  0  0  0  0  0
   46.3147   21.7977   34.5503 H   0  0  0  0  0  0  0  0  0  0  0  0
   47.7214   23.3030   35.9419 H   0  0  0  0  0  0  0  0  0  0  0  0
   47.8728   24.9579   37.5278 H   0  0  0  0  0  0  0  0  0  0  0  0
   46.8618   26.5702   39.1242 H   0  0  0  0  0  0  0  0  0  0  0  0
   44.3294   26.6285   39.2900 H   0  0  0  0  0  0  0  0  0  0  0  0
   42.9960   25.1238   37.8914 H   0  0  0  0  0  0  0  0  0  0  0  0
   39.0824   23.9802   32.8492 H   0  0  0  0  0  0  0  0  0  0  0  0
   40.6797   27.3604   34.9668 H   0  0  0  0  0  0  0  0  0  0  0  0
   38.8977   26.1108   30.2844 H   0  0  0  0  0  0  0  0  0  0  0  0
   35.4804   27.6115   30.0407 H   0  0  0  0  0  0  0  0  0  0  0  0
   37.1306   27.7900   29.3866 H   0  0  0  0  0  0  0  0  0  0  0  0
  1  6  2  0
  2  1  1  0
  3  4  1  0
  3  2  2  0
  4  5  2  0
  5  6  1  0
  7  5  1  0
  7 16  1  0
  8  7  2  0
  9  8  1  0
  9 10  2  0
 10 11  1  0
 11 16  2  0
 11 12  1  0
 12 13  2  0
 13 14  1  0
 15 14  2  0
 16 15  1  0
 17  3  1  0
 18 17  1  0
 19 20  1  0
 19 18  2  0
 20 21  2  0
 21 17  1  0
 22 19  1  0
 23 22  1  0
 23 24  2  0
 25 23  1  0
 26 24  1  0
  1 27  1  0
  2 28  1  0
  8 29  1  0
  9 30  1  0
 10 31  1  0
 12 32  1  0
 13 33  1  0
 14 34  1  0
 15 35  1  0
 18 36  1  0
 21 37  1  0
 22 38  1  0
 25 39  1  0
 25 40  1  0
M  ISO  8  27  14  28  14  29  14  30  14  31  14  32  14  33  14  34  14
M  ISO  3  35  14  36  14  37  14
M  END
>  <minimizedAffinity>  (1) 
-5.90720606

>  <minimizedRMSD>  (1) 
0.515738308

$$$$
