
     RDKit          3D

 39 42  0  0  0  0  0  0  0  0999 V2000
   40.3710   22.6080   36.8770 C   0  0  0  0  0  0  0  0  0  0  0  0
   39.7830   23.5860   36.0480 C   0  0  0  0  0  0  0  0  0  0  0  0
   40.6620   24.3960   35.3620 C   0  0  0  0  0  0  0  0  0  0  0  0
   41.9720   24.1870   35.5400 N   0  0  0  0  0  0  0  0  0  0  0  0
   42.5320   23.2570   36.3280 C   0  0  0  0  0  0  0  0  0  0  0  0
   41.6810   22.4680   36.9960 N   0  0  0  0  0  0  0  0  0  0  0  0
   43.9800   23.2990   36.2940 C   0  0  0  0  0  0  0  0  0  0  0  0
   44.7140   22.4450   35.5000 C   0  0  0  0  0  0  0  0  0  0  0  0
   46.0860   22.4410   35.4290 C   0  0  0  0  0  0  0  0  0  0  0  0
   46.8240   23.3190   36.1730 C   0  0  0  0  0  0  0  0  0  0  0  0
   46.1470   24.1890   36.9790 C   0  0  0  0  0  0  0  0  0  0  0  0
   46.8960   25.0700   37.7250 C   0  0  0  0  0  0  0  0  0  0  0  0
   46.2910   25.9820   38.5650 C   0  0  0  0  0  0  0  0  0  0  0  0
   44.8850   25.9620   38.6160 C   0  0  0  0  0  0  0  0  0  0  0  0
   44.1930   25.0550   37.8440 C   0  0  0  0  0  0  0  0  0  0  0  0
   44.7760   24.1560   37.0160 C   0  0  0  0  0  0  0  0  0  0  0  0
   40.1980   25.4300   34.4850 N   0  0  0  0  0  0  0  0  0  0  0  0
   39.0470   25.2980   33.8050 C   0  0  0  0  0  0  0  0  0  0  0  0
   38.9140   26.4600   33.0730 C   0  0  0  0  0  0  0  0  0  0  0  0
   39.9670   27.2520   33.3230 N   0  0  0  0  0  0  0  0  0  0  0  0
   40.7810   26.6220   34.2060 C   0  0  0  0  0  0  0  0  0  0  0  0
   37.7240   26.6750   32.1750 C   0  0  0  0  0  0  0  0  0  0  0  0
   36.9460   27.8980   32.6150 C   0  0  0  0  0  0  0  0  0  0  0  0
   39.7140   21.9349   37.4473 H   0  0  0  0  0  0  0  0  0  0  0  0
   38.6924   23.6952   35.9550 H   0  0  0  0  0  0  0  0  0  0  0  0
   44.1654   21.7187   34.8824 H   0  0  0  0  0  0  0  0  0  0  0  0
   46.5954   21.7248   34.7675 H   0  0  0  0  0  0  0  0  0  0  0  0
   47.9229   23.3244   36.1242 H   0  0  0  0  0  0  0  0  0  0  0  0
   47.9932   25.0467   37.6505 H   0  0  0  0  0  0  0  0  0  0  0  0
   46.8795   26.6908   39.1660 H   0  0  0  0  0  0  0  0  0  0  0  0
   44.3433   26.6644   39.2665 H   0  0  0  0  0  0  0  0  0  0  0  0
   43.0947   25.0614   37.9041 H   0  0  0  0  0  0  0  0  0  0  0  0
   38.3555   24.4428   33.8271 H   0  0  0  0  0  0  0  0  0  0  0  0
   41.7281   27.0031   34.6154 H   0  0  0  0  0  0  0  0  0  0  0  0
   37.0694   25.7922   32.2228 H   0  0  0  0  0  0  0  0  0  0  0  0
   38.0770   26.8278   31.1444 H   0  0  0  0  0  0  0  0  0  0  0  0
   36.9194   27.9399   33.7139 H   0  0  0  0  0  0  0  0  0  0  0  0
   37.4346   28.8032   32.2253 H   0  0  0  0  0  0  0  0  0  0  0  0
   35.9190   27.8391   32.2253 H   0  0  0  0  0  0  0  0  0  0  0  0
  1  6  2  0
  2  1  1  0
  3  4  1  0
  3  2  2  0
  4  5  2  0
  5  6  1  0
  7  5  1  0
  7 16  1  0
  8  7  2  0
  9  8  1  0
  9 10  2  0
 10 11  1  0
 11 16  2  0
 11 12  1  0
 12 13  2  0
 13 14  1  0
 15 14  2  0
 16 15  1  0
 17  3  1  0
 18 17  1  0
 19 20  1  0
 19 18  2  0
 20 21  2  0
 21 17  1  0
 22 23  1  0
 22 19  1  0
  1 24  1  0
  2 25  1  0
  8 26  1  0
  9 27  1  0
 10 28  1  0
 12 29  1  0
 13 30  1  0
 14 31  1  0
 15 32  1  0
 18 33  1  0
 21 34  1  0
 22 35  1  0
 22 36  1  0
 23 37  1  0
 23 38  1  0
 23 39  1  0
M  ISO  8  24  14  25  14  26  14  27  14  28  14  29  14  30  14  31  14
M  ISO  8  32  14  33  14  34  14  35   8  36   8  37   8  38   8  39   8
M  END
>  <minimizedAffinity>  (1) 
-5.34505367

>  <minimizedRMSD>  (1) 
0.523289263

$$$$
