
     RDKit          3D

 36 39  0  0  0  0  0  0  0  0999 V2000
   40.3470   22.4050   37.0840 C   0  0  0  0  0  0  0  0  0  0  0  0
   39.6960   23.4180   36.3580 C   0  0  0  0  0  0  0  0  0  0  0  0
   40.5180   24.2780   35.6450 C   0  0  0  0  0  0  0  0  0  0  0  0
   41.8360   24.0640   35.7140 N   0  0  0  0  0  0  0  0  0  0  0  0
   42.4580   23.0950   36.4070 C   0  0  0  0  0  0  0  0  0  0  0  0
   41.6640   22.2690   37.0950 N   0  0  0  0  0  0  0  0  0  0  0  0
   43.9020   23.1430   36.2690 C   0  0  0  0  0  0  0  0  0  0  0  0
   44.5740   22.2710   35.4510 C   0  0  0  0  0  0  0  0  0  0  0  0
   45.9430   22.2620   35.2750 C   0  0  0  0  0  0  0  0  0  0  0  0
   46.7240   23.1800   35.9480 C   0  0  0  0  0  0  0  0  0  0  0  0
   46.0990   24.0700   36.7740 C   0  0  0  0  0  0  0  0  0  0  0  0
   46.8900   24.9810   37.4410 C   0  0  0  0  0  0  0  0  0  0  0  0
   46.3420   25.9080   38.2880 C   0  0  0  0  0  0  0  0  0  0  0  0
   44.9560   25.8820   38.4390 C   0  0  0  0  0  0  0  0  0  0  0  0
   44.2070   24.9500   37.7480 C   0  0  0  0  0  0  0  0  0  0  0  0
   44.7340   24.0230   36.9050 C   0  0  0  0  0  0  0  0  0  0  0  0
   39.9860   25.3570   34.8590 N   0  0  0  0  0  0  0  0  0  0  0  0
   38.6980   25.4120   34.5460 C   0  0  0  0  0  0  0  0  0  0  0  0
   38.5410   26.5470   33.8080 C   0  0  0  0  0  0  0  0  0  0  0  0
   39.7240   27.1580   33.6870 N   0  0  0  0  0  0  0  0  0  0  0  0
   40.6430   26.4160   34.3460 C   0  0  0  0  0  0  0  0  0  0  0  0
   37.2970   27.0970   33.1970 C   0  0  0  0  0  0  0  0  0  0  0  0
   36.4690   26.1240   32.6880 F   0  0  0  0  0  0  0  0  0  0  0  0
   37.6150   27.9480   32.1300 F   0  0  0  0  0  0  0  0  0  0  0  0
   36.6390   27.9240   34.1080 F   0  0  0  0  0  0  0  0  0  0  0  0
   39.7380   21.6975   37.6659 H   0  0  0  0  0  0  0  0  0  0  0  0
   38.6009   23.5221   36.3557 H   0  0  0  0  0  0  0  0  0  0  0  0
   43.9814   21.5279   34.8973 H   0  0  0  0  0  0  0  0  0  0  0  0
   46.4092   21.5273   34.6021 H   0  0  0  0  0  0  0  0  0  0  0  0
   47.8168   23.1942   35.8227 H   0  0  0  0  0  0  0  0  0  0  0  0
   47.9795   24.9633   37.2906 H   0  0  0  0  0  0  0  0  0  0  0  0
   46.9660   26.6385   38.8237 H   0  0  0  0  0  0  0  0  0  0  0  0
   44.4605   26.6021   39.1068 H   0  0  0  0  0  0  0  0  0  0  0  0
   43.1160   24.9583   37.8885 H   0  0  0  0  0  0  0  0  0  0  0  0
   37.9168   24.6896   34.8250 H   0  0  0  0  0  0  0  0  0  0  0  0
   41.7167   26.6342   34.4441 H   0  0  0  0  0  0  0  0  0  0  0  0
  1  6  2  0
  2  1  1  0
  3  4  1  0
  3  2  2  0
  4  5  2  0
  5  6  1  0
  7  5  1  0
  7 16  1  0
  8  7  2  0
  9  8  1  0
  9 10  2  0
 10 11  1  0
 11 16  2  0
 11 12  1  0
 12 13  2  0
 13 14  1  0
 15 14  2  0
 16 15  1  0
 17  3  1  0
 18 17  1  0
 19 18  2  0
 20 19  1  0
 20 21  2  0
 21 17  1  0
 22 19  1  0
 22 25  1  0
 23 22  1  0
 24 22  1  0
  1 26  1  0
  2 27  1  0
  8 28  1  0
  9 29  1  0
 10 30  1  0
 12 31  1  0
 13 32  1  0
 14 33  1  0
 15 34  1  0
 18 35  1  0
 21 36  1  0
M  ISO  8  26  14  27  14  28  14  29  14  30  14  31  14  32  14  33  14
M  ISO  3  34  14  35  14  36  14
M  END
>  <minimizedAffinity>  (1) 
-5.74856901

>  <minimizedRMSD>  (1) 
1.02091241

$$$$
