
     RDKit          3D

 43 47  0  0  0  0  0  0  0  0999 V2000
   38.7680   23.1870   38.0510 C   0  0  0  0  0  0  0  0  0  0  0  0
   37.9920   23.2530   36.8790 C   0  0  0  0  0  0  0  0  0  0  0  0
   38.6260   22.8780   35.7010 C   0  0  0  0  0  0  0  0  0  0  0  0
   39.8990   22.4950   35.7960 N   0  0  0  0  0  0  0  0  0  0  0  0
   40.6460   22.4300   36.9150 C   0  0  0  0  0  0  0  0  0  0  0  0
   40.0370   22.7900   38.0450 N   0  0  0  0  0  0  0  0  0  0  0  0
   42.0020   21.9680   36.6630 C   0  0  0  0  0  0  0  0  0  0  0  0
   42.3150   20.6360   36.6650 C   0  0  0  0  0  0  0  0  0  0  0  0
   43.5820   20.1270   36.4340 C   0  0  0  0  0  0  0  0  0  0  0  0
   44.6240   20.9900   36.1790 C   0  0  0  0  0  0  0  0  0  0  0  0
   44.3610   22.3260   36.1660 C   0  0  0  0  0  0  0  0  0  0  0  0
   45.4140   23.1860   35.9090 C   0  0  0  0  0  0  0  0  0  0  0  0
   45.2310   24.5360   35.8780 C   0  0  0  0  0  0  0  0  0  0  0  0
   43.9300   25.0070   36.1190 C   0  0  0  0  0  0  0  0  0  0  0  0
   42.9140   24.1110   36.3700 C   0  0  0  0  0  0  0  0  0  0  0  0
   43.0850   22.7700   36.4020 C   0  0  0  0  0  0  0  0  0  0  0  0
   37.9530   22.8990   34.4400 N   0  0  0  0  0  0  0  0  0  0  0  0
   37.2280   21.8680   34.0190 C   0  0  0  0  0  0  0  0  0  0  0  0
   36.7380   22.2170   32.8040 C   0  0  0  0  0  0  0  0  0  0  0  0
   37.1650   23.4430   32.5010 N   0  0  0  0  0  0  0  0  0  0  0  0
   37.9310   23.8770   33.5290 C   0  0  0  0  0  0  0  0  0  0  0  0
   38.5840   25.1370   33.6140 N   0  0  0  0  0  0  0  0  0  0  0  0
   38.9740   25.9590   32.6060 C   0  0  0  0  0  0  0  0  0  0  0  0
   39.5720   27.0820   33.1630 C   0  0  0  0  0  0  0  0  0  0  0  0
   39.5240   26.8940   34.5110 N   0  0  0  0  0  0  0  0  0  0  0  0
   38.9300   25.7260   34.7880 C   0  0  0  0  0  0  0  0  0  0  0  0
   35.8650   21.4330   31.8890 C   0  0  0  0  0  0  0  0  0  0  0  0
   36.5250   20.3730   31.2920 F   0  0  0  0  0  0  0  0  0  0  0  0
   35.4100   22.2510   30.8350 F   0  0  0  0  0  0  0  0  0  0  0  0
   34.7130   21.0310   32.5470 F   0  0  0  0  0  0  0  0  0  0  0  0
   38.3077   23.4745   39.0078 H   0  0  0  0  0  0  0  0  0  0  0  0
   36.9427   23.5829   36.8946 H   0  0  0  0  0  0  0  0  0  0  0  0
   41.5041   19.9199   36.8639 H   0  0  0  0  0  0  0  0  0  0  0  0
   43.7547   19.0408   36.4541 H   0  0  0  0  0  0  0  0  0  0  0  0
   45.6395   20.6112   35.9912 H   0  0  0  0  0  0  0  0  0  0  0  0
   46.4169   22.7725   35.7264 H   0  0  0  0  0  0  0  0  0  0  0  0
   46.0638   25.2250   35.6737 H   0  0  0  0  0  0  0  0  0  0  0  0
   43.7230   26.0873   36.1074 H   0  0  0  0  0  0  0  0  0  0  0  0
   41.9055   24.5094   36.5550 H   0  0  0  0  0  0  0  0  0  0  0  0
   37.0590   20.9199   34.5506 H   0  0  0  0  0  0  0  0  0  0  0  0
   38.8392   25.7680   31.5311 H   0  0  0  0  0  0  0  0  0  0  0  0
   39.9961   27.9439   32.6270 H   0  0  0  0  0  0  0  0  0  0  0  0
   38.7529   25.3147   35.7927 H   0  0  0  0  0  0  0  0  0  0  0  0
  2  1  2  0
  3  4  2  0
  3  2  1  0
  4  5  1  0
  5  6  2  0
  6  1  1  0
  7  8  2  0
  7  5  1  0
  9  8  1  0
 10  9  2  0
 11 10  1  0
 11 16  2  0
 12 11  1  0
 13 12  2  0
 13 14  1  0
 14 15  2  0
 15 16  1  0
 16  7  1  0
 17  3  1  0
 18 17  1  0
 19 18  2  0
 20 19  1  0
 20 21  2  0
 21 22  1  0
 21 17  1  0
 22 26  1  0
 23 24  2  0
 23 22  1  0
 24 25  1  0
 25 26  2  0
 27 30  1  0
 27 19  1  0
 28 27  1  0
 29 27  1  0
  1 31  1  0
  2 32  1  0
  8 33  1  0
  9 34  1  0
 10 35  1  0
 12 36  1  0
 13 37  1  0
 14 38  1  0
 15 39  1  0
 18 40  1  0
 23 41  1  0
 24 42  1  0
 26 43  1  0
M  ISO  8  31  14  32  14  33  14  34  14  35  14  36  14  37  14  38  14
M  ISO  5  39  14  40  14  41  14  42  14  43  14
M  END
>  <minimizedAffinity>  (1) 
-6.9241066

>  <minimizedRMSD>  (1) 
3.83156419

$$$$
