
     RDKit          3D

 41 45  0  0  0  0  0  0  0  0999 V2000
   40.2730   22.6650   36.9330 C   0  0  0  0  0  0  0  0  0  0  0  0
   39.6540   23.6430   36.1190 C   0  0  0  0  0  0  0  0  0  0  0  0
   40.5020   24.4750   35.3820 C   0  0  0  0  0  0  0  0  0  0  0  0
   41.7930   24.2430   35.5370 N   0  0  0  0  0  0  0  0  0  0  0  0
   42.4000   23.3240   36.2980 C   0  0  0  0  0  0  0  0  0  0  0  0
   41.5910   22.5380   36.9950 N   0  0  0  0  0  0  0  0  0  0  0  0
   43.8510   23.3770   36.2060 C   0  0  0  0  0  0  0  0  0  0  0  0
   44.5360   22.5690   35.3300 C   0  0  0  0  0  0  0  0  0  0  0  0
   45.9140   22.5700   35.1880 C   0  0  0  0  0  0  0  0  0  0  0  0
   46.6830   23.4230   35.9590 C   0  0  0  0  0  0  0  0  0  0  0  0
   46.0400   24.2350   36.8340 C   0  0  0  0  0  0  0  0  0  0  0  0
   46.8150   25.0900   37.6050 C   0  0  0  0  0  0  0  0  0  0  0  0
   46.2520   25.9430   38.5090 C   0  0  0  0  0  0  0  0  0  0  0  0
   44.8630   25.9090   38.6200 C   0  0  0  0  0  0  0  0  0  0  0  0
   44.1220   25.0530   37.8460 C   0  0  0  0  0  0  0  0  0  0  0  0
   44.6700   24.2010   36.9430 C   0  0  0  0  0  0  0  0  0  0  0  0
   39.9900   25.4960   34.5310 N   0  0  0  0  0  0  0  0  0  0  0  0
   38.6880   25.7690   34.4790 C   0  0  0  0  0  0  0  0  0  0  0  0
   38.5550   26.7780   33.5810 C   0  0  0  0  0  0  0  0  0  0  0  0
   39.7490   27.1020   33.1100 N   0  0  0  0  0  0  0  0  0  0  0  0
   40.6680   26.2950   33.7030 C   0  0  0  0  0  0  0  0  0  0  0  0
   42.0920   26.3620   33.4230 C   0  0  0  0  0  0  0  0  0  0  0  0
   43.1170   27.0570   33.9280 N   0  0  0  0  0  0  0  0  0  0  0  0
   44.2280   26.7840   33.3550 O   0  0  0  0  0  0  0  0  0  0  0  0
   44.0280   25.8760   32.4110 C   0  0  0  0  0  0  0  0  0  0  0  0
   42.7130   25.6380   32.4790 N   0  0  0  0  0  0  0  0  0  0  0  0
   37.3150   27.4730   33.1320 C   0  0  0  0  0  0  0  0  0  0  0  0
   36.3630   26.5980   32.6300 F   0  0  0  0  0  0  0  0  0  0  0  0
   37.6130   28.3660   32.0820 F   0  0  0  0  0  0  0  0  0  0  0  0
   36.8080   28.2740   34.1420 F   0  0  0  0  0  0  0  0  0  0  0  0
   39.6425   21.9909   37.5314 H   0  0  0  0  0  0  0  0  0  0  0  0
   38.5598   23.7437   36.0686 H   0  0  0  0  0  0  0  0  0  0  0  0
   43.9535   21.8784   34.7025 H   0  0  0  0  0  0  0  0  0  0  0  0
   46.3949   21.8950   34.4648 H   0  0  0  0  0  0  0  0  0  0  0  0
   47.7789   23.4419   35.8654 H   0  0  0  0  0  0  0  0  0  0  0  0
   47.9083   25.0798   37.4845 H   0  0  0  0  0  0  0  0  0  0  0  0
   46.8637   26.6234   39.1196 H   0  0  0  0  0  0  0  0  0  0  0  0
   44.3567   26.5746   39.3346 H   0  0  0  0  0  0  0  0  0  0  0  0
   43.0283   25.0573   37.9631 H   0  0  0  0  0  0  0  0  0  0  0  0
   37.8846   25.2775   35.0474 H   0  0  0  0  0  0  0  0  0  0  0  0
   44.7672   25.4250   31.7327 H   0  0  0  0  0  0  0  0  0  0  0  0
  1  6  2  0
  2  1  1  0
  3  4  1  0
  3  2  2  0
  4  5  2  0
  5  6  1  0
  7  5  1  0
  7 16  1  0
  8  7  2  0
  9  8  1  0
  9 10  2  0
 10 11  1  0
 11 16  2  0
 11 12  1  0
 12 13  2  0
 13 14  1  0
 15 14  2  0
 16 15  1  0
 17  3  1  0
 18 17  1  0
 19 18  2  0
 20 19  1  0
 20 21  2  0
 21 17  1  0
 22 21  1  0
 22 23  2  0
 24 23  1  0
 25 26  2  0
 25 24  1  0
 26 22  1  0
 27 19  1  0
 27 30  1  0
 28 27  1  0
 29 27  1  0
  1 31  1  0
  2 32  1  0
  8 33  1  0
  9 34  1  0
 10 35  1  0
 12 36  1  0
 13 37  1  0
 14 38  1  0
 15 39  1  0
 18 40  1  0
 25 41  1  0
M  ISO  8  31  14  32  14  33  14  34  14  35  14  36  14  37  14  38  14
M  ISO  3  39  14  40  14  41  14
M  END
>  <minimizedAffinity>  (1) 
-5.92170525

>  <minimizedRMSD>  (1) 
0.707123876

$$$$
