
     RDKit          3D

 37 40  0  0  1  0  0  0  0  0999 V2000
   41.1910   22.8650   36.8970 C   0  0  2  0  0  0  0  0  0  0  0  0
   41.4930   23.1550   35.4430 C   0  0  2  0  0  0  0  0  0  0  0  0
   42.0790   21.8810   34.9710 C   0  0  0  0  0  0  0  0  0  0  0  0
   42.7960   21.3170   36.1490 C   0  0  0  0  0  0  0  0  0  0  0  0
   41.7940   21.5630   37.2560 C   0  0  0  0  0  0  0  0  0  0  0  0
   42.2990   24.3660   35.2290 C   0  0  0  0  0  0  0  0  0  0  0  0
   42.1420   25.5050   34.4670 C   0  0  0  0  0  0  0  0  0  0  0  0
   43.1810   26.3460   34.6140 N   0  0  0  0  0  0  0  0  0  0  0  0
   44.0260   25.7820   35.4620 C   0  0  0  0  0  0  0  0  0  0  0  0
   45.2460   26.2970   35.9110 C   0  0  0  0  0  0  0  0  0  0  0  0
   45.9720   25.5230   36.8100 C   0  0  0  0  0  0  0  0  0  0  0  0
   45.4800   24.3030   37.2200 C   0  0  0  0  0  0  0  0  0  0  0  0
   44.2850   23.8350   36.7590 C   0  0  0  0  0  0  0  0  0  0  0  0
   43.5320   24.5820   35.8610 C   0  0  0  0  0  0  0  0  0  0  0  0
   39.7180   22.8660   37.0700 C   0  0  0  0  0  0  0  0  0  0  0  0
   39.0900   23.2980   38.2620 C   0  0  0  0  0  0  0  0  0  0  0  0
   37.6890   23.2590   38.3080 C   0  0  0  0  0  0  0  0  0  0  0  0
   37.0070   22.8180   37.2260 N   0  0  0  0  0  0  0  0  0  0  0  0
   37.6420   22.4090   36.0940 C   0  0  0  0  0  0  0  0  0  0  0  0
   38.9760   22.4370   36.0270 N   0  0  0  0  0  0  0  0  0  0  0  0
   41.6189   23.6278   37.5641 H   0  0  0  0  0  0  0  0  0  0  0  0
   40.6063   23.4278   34.8519 H   0  0  0  0  0  0  0  0  0  0  0  0
   41.2880   21.1938   34.6363 H   0  0  0  0  0  0  0  0  0  0  0  0
   42.7529   22.0322   34.1149 H   0  0  0  0  0  0  0  0  0  0  0  0
   42.9979   20.2433   36.0207 H   0  0  0  0  0  0  0  0  0  0  0  0
   43.7843   21.7648   36.3300 H   0  0  0  0  0  0  0  0  0  0  0  0
   42.2949   21.6185   38.2338 H   0  0  0  0  0  0  0  0  0  0  0  0
   41.0500   20.7578   37.3455 H   0  0  0  0  0  0  0  0  0  0  0  0
   41.2746   25.7011   33.8195 H   0  0  0  0  0  0  0  0  0  0  0  0
   43.2975   27.2594   34.1524 H   0  0  0  0  0  0  0  0  0  0  0  0
   45.6163   27.2741   35.5673 H   0  0  0  0  0  0  0  0  0  0  0  0
   46.9377   25.8843   37.1932 H   0  0  0  0  0  0  0  0  0  0  0  0
   46.0606   23.6967   37.9308 H   0  0  0  0  0  0  0  0  0  0  0  0
   43.9138   22.8576   37.1009 H   0  0  0  0  0  0  0  0  0  0  0  0
   39.6791   23.6515   39.1211 H   0  0  0  0  0  0  0  0  0  0  0  0
   37.1518   23.5826   39.2117 H   0  0  0  0  0  0  0  0  0  0  0  0
   37.0561   22.0549   35.2330 H   0  0  0  0  0  0  0  0  0  0  0  0
  1 15  1  0
  1  5  1  0
  2  1  1  0
  3  2  1  0
  3  4  1  0
  4  5  1  0
  6  2  1  0
  6 14  1  0
  7  8  1  0
  7  6  2  0
  8  9  1  0
  9 14  2  0
  9 10  1  0
 10 11  2  0
 11 12  1  0
 13 12  2  0
 14 13  1  0
 15 16  2  0
 16 17  1  0
 18 17  2  0
 19 18  1  0
 20 19  2  0
 20 15  1  0
  1 21  1  1
  2 22  1  6
  3 23  1  0
  3 24  1  0
  4 25  1  0
  4 26  1  0
  5 27  1  0
  5 28  1  0
  7 29  1  0
  8 30  1  0
 10 31  1  0
 11 32  1  0
 12 33  1  0
 13 34  1  0
 16 35  1  0
 17 36  1  0
 19 37  1  0
M  ISO  8  21  13  22  13  23  13  24  13  25  13  26  13  27  13  28  13
M  ISO  8  29  14  30   9  31  14  32  14  33  14  34  14  35  14  36  14
M  ISO  1  37  14
M  END
>  <minimizedAffinity>  (1) 
-5.43116236

>  <minimizedRMSD>  (1) 
1.47440386

$$$$
