
     RDKit          3D

 37 40  0  0  1  0  0  0  0  0999 V2000
   40.8820   23.0010   36.5470 C   0  0  2  0  0  0  0  0  0  0  0  0
   41.2260   23.4230   35.1290 C   0  0  1  0  0  0  0  0  0  0  0  0
   41.9050   22.2140   34.5780 C   0  0  0  0  0  0  0  0  0  0  0  0
   42.6580   21.6720   35.7690 C   0  0  0  0  0  0  0  0  0  0  0  0
   41.5980   21.7400   36.8360 C   0  0  0  0  0  0  0  0  0  0  0  0
   40.0920   23.8110   34.3530 N   0  0  0  0  0  0  0  0  0  0  0  0
   39.5800   23.1160   33.2980 C   0  0  0  0  0  0  0  0  0  0  0  0
   38.5250   23.7290   32.7810 N   0  0  0  0  0  0  0  0  0  0  0  0
   38.3100   24.8470   33.4820 C   0  0  0  0  0  0  0  0  0  0  0  0
   37.3420   25.8510   33.3650 C   0  0  0  0  0  0  0  0  0  0  0  0
   36.5080   25.7160   32.4540 O   0  0  0  0  0  0  0  0  0  0  0  0
   37.4170   26.8560   34.2530 N   0  0  0  0  0  0  0  0  0  0  0  0
   38.3790   26.8970   35.2120 C   0  0  0  0  0  0  0  0  0  0  0  0
   38.2920   28.0510   36.0650 N   0  0  0  0  0  0  0  0  0  0  0  0
   39.3200   25.9190   35.3230 N   0  0  0  0  0  0  0  0  0  0  0  0
   39.3050   24.8810   34.4670 C   0  0  0  0  0  0  0  0  0  0  0  0
   39.4040   22.8340   36.6440 C   0  0  0  0  0  0  0  0  0  0  0  0
   38.6320   23.6360   37.5440 C   0  0  0  0  0  0  0  0  0  0  0  0
   37.2540   23.4110   37.5690 C   0  0  0  0  0  0  0  0  0  0  0  0
   36.7290   22.4610   36.7520 N   0  0  0  0  0  0  0  0  0  0  0  0
   37.5000   21.7260   35.9170 C   0  0  0  0  0  0  0  0  0  0  0  0
   38.8240   21.9050   35.8580 N   0  0  0  0  0  0  0  0  0  0  0  0
   41.1903   23.7553   37.2859 H   0  0  0  0  0  0  0  0  0  0  0  0
   41.8523   24.3270   35.1060 H   0  0  0  0  0  0  0  0  0  0  0  0
   41.1710   21.4827   34.2086 H   0  0  0  0  0  0  0  0  0  0  0  0
   42.5558   22.4369   33.7197 H   0  0  0  0  0  0  0  0  0  0  0  0
   42.9934   20.6384   35.5984 H   0  0  0  0  0  0  0  0  0  0  0  0
   43.5797   22.2217   36.0105 H   0  0  0  0  0  0  0  0  0  0  0  0
   42.0522   21.7686   37.8374 H   0  0  0  0  0  0  0  0  0  0  0  0
   40.9330   20.8638   36.8294 H   0  0  0  0  0  0  0  0  0  0  0  0
   39.9905   22.1667   32.9233 H   0  0  0  0  0  0  0  0  0  0  0  0
   36.7253   27.6177   34.2057 H   0  0  0  0  0  0  0  0  0  0  0  0
   38.9734   28.1812   36.8264 H   0  0  0  0  0  0  0  0  0  0  0  0
   37.5483   28.7476   35.9148 H   0  0  0  0  0  0  0  0  0  0  0  0
   39.1027   24.3948   38.1865 H   0  0  0  0  0  0  0  0  0  0  0  0
   36.6044   23.9933   38.2391 H   0  0  0  0  0  0  0  0  0  0  0  0
   37.0288   20.9673   35.2749 H   0  0  0  0  0  0  0  0  0  0  0  0
  1 17  1  0
  1  5  1  0
  2  1  1  0
  3  2  1  0
  3  4  1  0
  4  5  1  0
  6 16  1  0
  6  2  1  0
  7  6  1  0
  8  7  2  0
  8  9  1  0
  9 16  2  0
 10  9  1  0
 10 12  1  0
 11 10  2  0
 12 13  1  0
 13 15  2  0
 13 14  1  0
 16 15  1  0
 17 18  2  0
 18 19  1  0
 20 19  2  0
 21 20  1  0
 22 21  2  0
 22 17  1  0
  1 23  1  1
  2 24  1  1
  3 25  1  0
  3 26  1  0
  4 27  1  0
  4 28  1  0
  5 29  1  0
  5 30  1  0
  7 31  1  0
 12 32  1  0
 14 33  1  0
 14 34  1  0
 18 35  1  0
 19 36  1  0
 21 37  1  0
M  ISO  8  23  13  24  13  25  13  26  13  27  13  28  13  29  13  30  13
M  ISO  5  31  14  32   9  35  14  36  14  37  14
M  END
>  <minimizedAffinity>  (1) 
-4.97925377

>  <minimizedRMSD>  (1) 
1.84550059

$$$$
