
     RDKit          3D

 32 34  0  0  1  0  0  0  0  0999 V2000
   41.4250   22.6080   37.1000 C   0  0  2  0  0  0  0  0  0  0  0  0
   41.9260   23.0160   35.7370 C   0  0  2  0  0  0  0  0  0  0  0  0
   42.3540   21.7140   35.1360 C   0  0  0  0  0  0  0  0  0  0  0  0
   42.9050   20.9550   36.3020 C   0  0  0  0  0  0  0  0  0  0  0  0
   41.8560   21.2130   37.3580 C   0  0  0  0  0  0  0  0  0  0  0  0
   39.9430   22.7530   37.1310 C   0  0  0  0  0  0  0  0  0  0  0  0
   39.2720   23.2680   38.2760 C   0  0  0  0  0  0  0  0  0  0  0  0
   37.8850   23.3700   38.2240 C   0  0  0  0  0  0  0  0  0  0  0  0
   37.2470   22.9780   37.0950 N   0  0  0  0  0  0  0  0  0  0  0  0
   37.9210   22.4900   36.0180 C   0  0  0  0  0  0  0  0  0  0  0  0
   39.2530   22.3780   36.0360 N   0  0  0  0  0  0  0  0  0  0  0  0
   42.9980   24.0090   35.8420 C   0  0  0  0  0  0  0  0  0  0  0  0
   43.7630   24.2240   36.9710 C   0  0  0  0  0  0  0  0  0  0  0  0
   44.7750   25.1490   37.0940 C   0  0  0  0  0  0  0  0  0  0  0  0
   45.0010   25.9030   35.9550 C   0  0  0  0  0  0  0  0  0  0  0  0
   44.2620   25.7320   34.7870 C   0  0  0  0  0  0  0  0  0  0  0  0
   43.2990   24.8020   34.7720 N   0  0  0  0  0  0  0  0  0  0  0  0
   41.8409   23.2482   37.8919 H   0  0  0  0  0  0  0  0  0  0  0  0
   41.1768   23.5216   35.1101 H   0  0  0  0  0  0  0  0  0  0  0  0
   41.4975   21.1854   34.6922 H   0  0  0  0  0  0  0  0  0  0  0  0
   43.0834   21.8373   34.3219 H   0  0  0  0  0  0  0  0  0  0  0  0
   42.9921   19.8818   36.0770 H   0  0  0  0  0  0  0  0  0  0  0  0
   43.9196   21.2621   36.5958 H   0  0  0  0  0  0  0  0  0  0  0  0
   42.2840   21.1159   38.3666 H   0  0  0  0  0  0  0  0  0  0  0  0
   41.0227   20.4964   37.3119 H   0  0  0  0  0  0  0  0  0  0  0  0
   39.8312   23.5751   39.1721 H   0  0  0  0  0  0  0  0  0  0  0  0
   37.3184   23.7609   39.0820 H   0  0  0  0  0  0  0  0  0  0  0  0
   37.3625   22.1838   35.1212 H   0  0  0  0  0  0  0  0  0  0  0  0
   43.5444   23.6006   37.8506 H   0  0  0  0  0  0  0  0  0  0  0  0
   45.3554   25.2783   38.0195 H   0  0  0  0  0  0  0  0  0  0  0  0
   45.7937   26.6654   35.9733 H   0  0  0  0  0  0  0  0  0  0  0  0
   44.4648   26.3467   33.8976 H   0  0  0  0  0  0  0  0  0  0  0  0
  1  6  1  0
  1  5  1  0
  2 12  1  0
  2  1  1  0
  3  2  1  0
  3  4  1  0
  4  5  1  0
  6  7  2  0
  8  7  1  0
  9  8  2  0
 10 11  2  0
 10  9  1  0
 11  6  1  0
 12 13  2  0
 13 14  1  0
 15 14  2  0
 16 15  1  0
 17 16  2  0
 17 12  1  0
  1 18  1  1
  2 19  1  6
  3 20  1  0
  3 21  1  0
  4 22  1  0
  4 23  1  0
  5 24  1  0
  5 25  1  0
  7 26  1  0
  8 27  1  0
 10 28  1  0
 13 29  1  0
 14 30  1  0
 15 31  1  0
 16 32  1  0
M  ISO  8  18  13  19  13  20  13  21  13  22  13  23  13  24  13  25  13
M  ISO  7  26  14  27  14  28  14  29  14  30  14  31  14  32  14
M  END
>  <minimizedAffinity>  (1) 
-4.81258678

>  <minimizedRMSD>  (1) 
1.10139012

$$$$
