
     RDKit          3D

 39 42  0  0  1  0  0  0  0  0999 V2000
   40.8930   23.7040   35.8850 C   0  0  2  0  0  0  0  0  0  0  0  0
   40.8840   24.8780   34.9460 C   0  0  1  0  0  0  0  0  0  0  0  0
   41.3170   24.2260   33.6520 C   0  0  0  0  0  0  0  0  0  0  0  0
   42.3680   23.2560   34.1380 C   0  0  0  0  0  0  0  0  0  0  0  0
   41.6310   22.5820   35.2680 C   0  0  0  0  0  0  0  0  0  0  0  0
   39.6300   25.6140   34.8330 C   0  0  0  0  0  0  0  0  0  0  0  0
   39.1690   26.5700   35.7180 C   0  0  0  0  0  0  0  0  0  0  0  0
   37.9960   27.2460   35.6090 C   0  0  0  0  0  0  0  0  0  0  0  0
   37.1600   26.9850   34.5370 C   0  0  0  0  0  0  0  0  0  0  0  0
   37.5570   26.0460   33.6210 C   0  0  0  0  0  0  0  0  0  0  0  0
   36.6960   25.8180   32.5690 C   0  0  0  0  0  0  0  0  0  0  0  0
   37.0280   24.8870   31.6070 C   0  0  0  0  0  0  0  0  0  0  0  0
   38.2170   24.1960   31.7080 C   0  0  0  0  0  0  0  0  0  0  0  0
   39.0460   24.4580   32.7780 C   0  0  0  0  0  0  0  0  0  0  0  0
   38.7710   25.3690   33.7640 C   0  0  0  0  0  0  0  0  0  0  0  0
   39.5110   23.3510   36.2750 C   0  0  0  0  0  0  0  0  0  0  0  0
   38.8670   23.8800   37.4150 C   0  0  0  0  0  0  0  0  0  0  0  0
   37.5650   23.4730   37.6790 C   0  0  0  0  0  0  0  0  0  0  0  0
   36.9800   22.5800   36.8170 N   0  0  0  0  0  0  0  0  0  0  0  0
   37.6170   22.0920   35.7370 C   0  0  0  0  0  0  0  0  0  0  0  0
   38.8750   22.4870   35.4830 N   0  0  0  0  0  0  0  0  0  0  0  0
   41.4202   23.9633   36.8150 H   0  0  0  0  0  0  0  0  0  0  0  0
   41.5357   25.6903   35.3003 H   0  0  0  0  0  0  0  0  0  0  0  0
   41.7423   24.9623   32.9541 H   0  0  0  0  0  0  0  0  0  0  0  0
   40.4964   23.7535   33.0923 H   0  0  0  0  0  0  0  0  0  0  0  0
   42.6498   22.5382   33.3536 H   0  0  0  0  0  0  0  0  0  0  0  0
   43.3192   23.7246   34.4306 H   0  0  0  0  0  0  0  0  0  0  0  0
   40.9413   21.8131   34.8897 H   0  0  0  0  0  0  0  0  0  0  0  0
   42.2937   22.0550   35.9702 H   0  0  0  0  0  0  0  0  0  0  0  0
   39.8059   26.8032   36.5840 H   0  0  0  0  0  0  0  0  0  0  0  0
   37.7132   27.9934   36.3650 H   0  0  0  0  0  0  0  0  0  0  0  0
   36.2036   27.5165   34.4235 H   0  0  0  0  0  0  0  0  0  0  0  0
   35.7502   26.3750   32.4971 H   0  0  0  0  0  0  0  0  0  0  0  0
   36.3479   24.6967   30.7637 H   0  0  0  0  0  0  0  0  0  0  0  0
   38.4985   23.4504   30.9498 H   0  0  0  0  0  0  0  0  0  0  0  0
   39.9908   23.8987   32.8446 H   0  0  0  0  0  0  0  0  0  0  0  0
   39.3814   24.5939   38.0751 H   0  0  0  0  0  0  0  0  0  0  0  0
   37.0189   23.8557   38.5539 H   0  0  0  0  0  0  0  0  0  0  0  0
   37.1129   21.3775   35.0696 H   0  0  0  0  0  0  0  0  0  0  0  0
  1 16  1  0
  2  1  1  0
  3  4  1  0
  3  2  1  0
  4  5  1  0
  5  1  1  0
  6  2  1  0
  6  7  2  0
  8  7  1  0
  9  8  2  0
 10 15  2  0
 10  9  1  0
 11 10  1  0
 12 13  1  0
 12 11  2  0
 13 14  2  0
 14 15  1  0
 15  6  1  0
 16 17  2  0
 17 18  1  0
 19 18  2  0
 20 19  1  0
 21 20  2  0
 21 16  1  0
  1 22  1  1
  2 23  1  1
  3 24  1  0
  3 25  1  0
  4 26  1  0
  4 27  1  0
  5 28  1  0
  5 29  1  0
  7 30  1  0
  8 31  1  0
  9 32  1  0
 11 33  1  0
 12 34  1  0
 13 35  1  0
 14 36  1  0
 17 37  1  0
 18 38  1  0
 20 39  1  0
M  ISO  8  22  13  23  13  24  13  25  13  26  13  27  13  28  13  29  13
M  ISO  8  30  14  31  14  32  14  33  14  34  14  35  14  36  14  37  14
M  ISO  2  38  14  39  14
M  END
>  <minimizedAffinity>  (1) 
-5.04479313

>  <minimizedRMSD>  (1) 
2.533077

$$$$
