
     RDKit          3D

 33 35  0  0  1  0  0  0  0  0999 V2000
   40.8670   23.7440   35.8820 C   0  0  2  0  0  0  0  0  0  0  0  0
   40.8070   24.8840   34.8840 C   0  0  1  0  0  0  0  0  0  0  0  0
   41.2260   24.2690   33.6090 C   0  0  0  0  0  0  0  0  0  0  0  0
   42.2880   23.2960   34.0540 C   0  0  0  0  0  0  0  0  0  0  0  0
   41.6100   22.6350   35.2530 C   0  0  0  0  0  0  0  0  0  0  0  0
   39.4900   23.3610   36.2740 C   0  0  0  0  0  0  0  0  0  0  0  0
   38.8770   23.8730   37.4370 C   0  0  0  0  0  0  0  0  0  0  0  0
   37.5680   23.4390   37.7150 C   0  0  0  0  0  0  0  0  0  0  0  0
   36.9640   22.5580   36.8570 N   0  0  0  0  0  0  0  0  0  0  0  0
   37.5990   22.0930   35.7450 C   0  0  0  0  0  0  0  0  0  0  0  0
   38.8400   22.5090   35.4880 N   0  0  0  0  0  0  0  0  0  0  0  0
   39.5880   25.6700   34.8940 C   0  0  0  0  0  0  0  0  0  0  0  0
   39.2620   26.7480   35.6830 C   0  0  0  0  0  0  0  0  0  0  0  0
   38.1140   27.4700   35.6520 C   0  0  0  0  0  0  0  0  0  0  0  0
   37.1390   27.1050   34.7360 C   0  0  0  0  0  0  0  0  0  0  0  0
   37.3800   26.0410   33.9090 C   0  0  0  0  0  0  0  0  0  0  0  0
   38.5610   25.3570   33.9910 C   0  0  0  0  0  0  0  0  0  0  0  0
   41.3905   24.0345   36.8048 H   0  0  0  0  0  0  0  0  0  0  0  0
   41.4871   25.7081   35.1452 H   0  0  0  0  0  0  0  0  0  0  0  0
   41.6385   25.0213   32.9207 H   0  0  0  0  0  0  0  0  0  0  0  0
   40.4006   23.7969   33.0560 H   0  0  0  0  0  0  0  0  0  0  0  0
   42.5168   22.5626   33.2667 H   0  0  0  0  0  0  0  0  0  0  0  0
   43.2562   23.7634   34.2868 H   0  0  0  0  0  0  0  0  0  0  0  0
   40.9256   21.8376   34.9276 H   0  0  0  0  0  0  0  0  0  0  0  0
   42.3239   22.1542   35.9380 H   0  0  0  0  0  0  0  0  0  0  0  0
   39.3997   24.5805   38.0975 H   0  0  0  0  0  0  0  0  0  0  0  0
   37.0374   23.8015   38.6078 H   0  0  0  0  0  0  0  0  0  0  0  0
   37.0960   21.3854   35.0695 H   0  0  0  0  0  0  0  0  0  0  0  0
   40.0157   27.0594   36.4212 H   0  0  0  0  0  0  0  0  0  0  0  0
   37.9610   28.3199   36.3334 H   0  0  0  0  0  0  0  0  0  0  0  0
   36.1908   27.6593   34.6751 H   0  0  0  0  0  0  0  0  0  0  0  0
   36.6199   25.7349   33.1751 H   0  0  0  0  0  0  0  0  0  0  0  0
   38.7153   24.5094   33.3071 H   0  0  0  0  0  0  0  0  0  0  0  0
  1  6  1  0
  2 12  1  0
  2  1  1  0
  3  4  1  0
  3  2  1  0
  4  5  1  0
  5  1  1  0
  6  7  2  0
  7  8  1  0
  9  8  2  0
 10  9  1  0
 11 10  2  0
 11  6  1  0
 12 13  2  0
 14 13  1  0
 15 14  2  0
 16 17  2  0
 16 15  1  0
 17 12  1  0
  1 18  1  1
  2 19  1  1
  3 20  1  0
  3 21  1  0
  4 22  1  0
  4 23  1  0
  5 24  1  0
  5 25  1  0
  7 26  1  0
  8 27  1  0
 10 28  1  0
 13 29  1  0
 14 30  1  0
 15 31  1  0
 16 32  1  0
 17 33  1  0
M  ISO  8  18  13  19  13  20  13  21  13  22  13  23  13  24  13  25  13
M  ISO  8  26  14  27  14  28  14  29  14  30  14  31  14  32  14  33  14
M  END
>  <minimizedAffinity>  (1) 
-4.46266794

>  <minimizedRMSD>  (1) 
2.35037184

$$$$
