
     RDKit          3D

 30 32  0  0  1  0  0  0  0  0999 V2000
   41.4010   22.5920   37.1720 C   0  0  2  0  0  0  0  0  0  0  0  0
   41.8820   22.9580   35.7860 C   0  0  2  0  0  0  0  0  0  0  0  0
   42.3170   21.6510   35.2290 C   0  0  0  0  0  0  0  0  0  0  0  0
   42.8470   20.9030   36.4110 C   0  0  0  0  0  0  0  0  0  0  0  0
   41.7890   21.1820   37.4520 C   0  0  0  0  0  0  0  0  0  0  0  0
   39.9130   22.7620   37.2090 C   0  0  0  0  0  0  0  0  0  0  0  0
   39.2590   23.2850   38.3470 C   0  0  0  0  0  0  0  0  0  0  0  0
   37.8590   23.4060   38.2860 C   0  0  0  0  0  0  0  0  0  0  0  0
   37.2190   23.0180   37.1470 N   0  0  0  0  0  0  0  0  0  0  0  0
   37.8840   22.5190   36.0730 C   0  0  0  0  0  0  0  0  0  0  0  0
   39.2150   22.3960   36.1110 N   0  0  0  0  0  0  0  0  0  0  0  0
   42.9000   23.9730   35.8240 N   0  0  0  0  0  0  0  0  0  0  0  0
   43.1650   24.8820   34.9120 N   0  0  0  0  0  0  0  0  0  0  0  0
   44.1980   25.6390   35.3390 C   0  0  0  0  0  0  0  0  0  0  0  0
   44.5770   25.1590   36.5820 C   0  0  0  0  0  0  0  0  0  0  0  0
   43.7320   24.0920   36.8720 C   0  0  0  0  0  0  0  0  0  0  0  0
   41.8531   23.2371   37.9397 H   0  0  0  0  0  0  0  0  0  0  0  0
   41.1164   23.4245   35.1487 H   0  0  0  0  0  0  0  0  0  0  0  0
   41.4671   21.1169   34.7791 H   0  0  0  0  0  0  0  0  0  0  0  0
   43.0667   21.7627   34.4319 H   0  0  0  0  0  0  0  0  0  0  0  0
   42.9278   19.8264   36.2005 H   0  0  0  0  0  0  0  0  0  0  0  0
   43.8603   21.2065   36.7128 H   0  0  0  0  0  0  0  0  0  0  0  0
   42.1983   21.0797   38.4679 H   0  0  0  0  0  0  0  0  0  0  0  0
   40.9409   20.4831   37.4038 H   0  0  0  0  0  0  0  0  0  0  0  0
   39.8214   23.5851   39.2435 H   0  0  0  0  0  0  0  0  0  0  0  0
   37.2924   23.8055   39.1400 H   0  0  0  0  0  0  0  0  0  0  0  0
   37.3284   22.2164   35.1731 H   0  0  0  0  0  0  0  0  0  0  0  0
   44.6547   26.4817   34.7993 H   0  0  0  0  0  0  0  0  0  0  0  0
   45.3881   25.5460   37.2164 H   0  0  0  0  0  0  0  0  0  0  0  0
   43.7431   23.4698   37.7790 H   0  0  0  0  0  0  0  0  0  0  0  0
  1  6  1  0
  1  5  1  0
  2 12  1  0
  2  1  1  0
  3  2  1  0
  3  4  1  0
  4  5  1  0
  6  7  2  0
  8  7  1  0
  9  8  2  0
 10 11  2  0
 10  9  1  0
 11  6  1  0
 12 16  1  0
 13 14  2  0
 13 12  1  0
 14 15  1  0
 15 16  2  0
  1 17  1  1
  2 18  1  6
  3 19  1  0
  3 20  1  0
  4 21  1  0
  4 22  1  0
  5 23  1  0
  5 24  1  0
  7 25  1  0
  8 26  1  0
 10 27  1  0
 14 28  1  0
 15 29  1  0
 16 30  1  0
M  ISO  8  17  13  18  13  19  13  20  13  21  13  22  13  23  13  24  13
M  ISO  6  25  14  26  14  27  14  28  14  29  14  30  14
M  END
>  <minimizedAffinity>  (1) 
-4.4259057

>  <minimizedRMSD>  (1) 
0.994830012

$$$$
