
     RDKit          3D

 35 36  0  0  1  0  0  0  0  0999 V2000
   41.3670   22.5390   37.1590 C   0  0  2  0  0  0  0  0  0  0  0  0
   41.8130   22.6800   35.7340 C   0  0  2  0  0  0  0  0  0  0  0  0
   42.2450   21.3100   35.3740 C   0  0  0  0  0  0  0  0  0  0  0  0
   42.7940   20.7390   36.6410 C   0  0  0  0  0  0  0  0  0  0  0  0
   41.7620   21.2020   37.6510 C   0  0  0  0  0  0  0  0  0  0  0  0
   39.8800   22.7280   37.2010 C   0  0  0  0  0  0  0  0  0  0  0  0
   39.2220   23.2650   38.3350 C   0  0  0  0  0  0  0  0  0  0  0  0
   37.8280   23.4010   38.2700 C   0  0  0  0  0  0  0  0  0  0  0  0
   37.1860   23.0140   37.1370 N   0  0  0  0  0  0  0  0  0  0  0  0
   37.8460   22.5020   36.0650 C   0  0  0  0  0  0  0  0  0  0  0  0
   39.1810   22.3660   36.1140 N   0  0  0  0  0  0  0  0  0  0  0  0
   42.8240   23.7690   35.5380 C   0  0  0  0  0  0  0  0  0  0  0  0
   43.7910   23.3280   34.4520 C   0  0  0  0  0  0  0  0  0  0  0  0
   43.6790   24.0060   36.7550 C   0  0  0  0  0  0  0  0  0  0  0  0
   42.2600   25.0720   35.0840 C   0  0  0  0  0  0  0  0  0  0  0  0
   41.8373   23.2925   37.8079 H   0  0  0  0  0  0  0  0  0  0  0  0
   41.0219   23.0260   35.0525 H   0  0  0  0  0  0  0  0  0  0  0  0
   41.3908   20.7149   35.0187 H   0  0  0  0  0  0  0  0  0  0  0  0
   42.9865   21.3079   34.5615 H   0  0  0  0  0  0  0  0  0  0  0  0
   42.8491   19.6413   36.5967 H   0  0  0  0  0  0  0  0  0  0  0  0
   43.8214   21.0586   36.8697 H   0  0  0  0  0  0  0  0  0  0  0  0
   42.2003   21.2680   38.6578 H   0  0  0  0  0  0  0  0  0  0  0  0
   40.9107   20.5109   37.7387 H   0  0  0  0  0  0  0  0  0  0  0  0
   39.7835   23.5639   39.2324 H   0  0  0  0  0  0  0  0  0  0  0  0
   37.2649   23.8132   39.1203 H   0  0  0  0  0  0  0  0  0  0  0  0
   37.2909   22.2013   35.1642 H   0  0  0  0  0  0  0  0  0  0  0  0
   44.6987   22.9140   34.9153 H   0  0  0  0  0  0  0  0  0  0  0  0
   43.3145   22.5582   33.8273 H   0  0  0  0  0  0  0  0  0  0  0  0
   44.0598   24.1925   33.8273 H   0  0  0  0  0  0  0  0  0  0  0  0
   43.0796   23.8398   37.6622 H   0  0  0  0  0  0  0  0  0  0  0  0
   44.5309   23.3101   36.7458 H   0  0  0  0  0  0  0  0  0  0  0  0
   44.0510   25.0411   36.7458 H   0  0  0  0  0  0  0  0  0  0  0  0
   41.9958   25.6824   35.9601 H   0  0  0  0  0  0  0  0  0  0  0  0
   43.0082   25.6043   34.4784 H   0  0  0  0  0  0  0  0  0  0  0  0
   41.3598   24.8908   34.4784 H   0  0  0  0  0  0  0  0  0  0  0  0
  1  6  1  0
  1  5  1  0
  2  1  1  0
  3  2  1  0
  3  4  1  0
  4  5  1  0
  6  7  2  0
  8  7  1  0
  9  8  2  0
 10 11  2  0
 10  9  1  0
 11  6  1  0
 12  2  1  0
 12 14  1  0
 13 12  1  0
 15 12  1  0
  1 16  1  1
  2 17  1  6
  3 18  1  0
  3 19  1  0
  4 20  1  0
  4 21  1  0
  5 22  1  0
  5 23  1  0
  7 24  1  0
  8 25  1  0
 10 26  1  0
 13 27  1  0
 13 28  1  0
 13 29  1  0
 14 30  1  0
 14 31  1  0
 14 32  1  0
 15 33  1  0
 15 34  1  0
 15 35  1  0
M  ISO  8  16  13  17  13  18  13  19  13  20  13  21  13  22  13  23  13
M  ISO  8  24  14  25  14  26  14  27   8  28   8  29   8  30   8  31   8
M  ISO  4  32   8  33   8  34   8  35   8
M  END
>  <minimizedAffinity>  (1) 
-4.35230494

>  <minimizedRMSD>  (1) 
1.24496961

$$$$
