
     RDKit          3D

 32 33  0  0  1  0  0  0  0  0999 V2000
   41.4370   22.4930   37.0490 C   0  0  2  0  0  0  0  0  0  0  0  0
   41.8380   22.6040   35.5880 C   0  0  2  0  0  0  0  0  0  0  0  0
   42.2070   21.2020   35.2470 C   0  0  0  0  0  0  0  0  0  0  0  0
   42.8230   20.6810   36.5250 C   0  0  0  0  0  0  0  0  0  0  0  0
   41.8300   21.1650   37.5590 C   0  0  0  0  0  0  0  0  0  0  0  0
   39.9630   22.7250   37.1390 C   0  0  0  0  0  0  0  0  0  0  0  0
   39.3460   23.2500   38.2950 C   0  0  0  0  0  0  0  0  0  0  0  0
   37.9560   23.4190   38.2640 C   0  0  0  0  0  0  0  0  0  0  0  0
   37.2810   23.0750   37.1400 N   0  0  0  0  0  0  0  0  0  0  0  0
   37.9010   22.5730   36.0460 C   0  0  0  0  0  0  0  0  0  0  0  0
   39.2340   22.4070   36.0660 N   0  0  0  0  0  0  0  0  0  0  0  0
   42.9820   23.5690   35.3950 C   0  0  0  0  0  0  0  0  0  0  0  0
   44.1190   22.9920   34.6240 C   0  0  0  0  0  0  0  0  0  0  0  0
   43.5040   23.9750   36.7500 C   0  0  0  0  0  0  0  0  0  0  0  0
   41.9466   23.2439   37.6707 H   0  0  0  0  0  0  0  0  0  0  0  0
   41.0442   23.0052   34.9408 H   0  0  0  0  0  0  0  0  0  0  0  0
   41.3173   20.6167   34.9718 H   0  0  0  0  0  0  0  0  0  0  0  0
   42.8862   21.1345   34.3844 H   0  0  0  0  0  0  0  0  0  0  0  0
   42.8933   19.5833   36.5186 H   0  0  0  0  0  0  0  0  0  0  0  0
   43.8535   21.0245   36.6982 H   0  0  0  0  0  0  0  0  0  0  0  0
   42.2998   21.2458   38.5503 H   0  0  0  0  0  0  0  0  0  0  0  0
   40.9772   20.4831   37.6923 H   0  0  0  0  0  0  0  0  0  0  0  0
   39.9341   23.5161   39.1857 H   0  0  0  0  0  0  0  0  0  0  0  0
   37.4216   23.8237   39.1362 H   0  0  0  0  0  0  0  0  0  0  0  0
   37.3201   22.3043   35.1514 H   0  0  0  0  0  0  0  0  0  0  0  0
   42.5870   24.4210   34.8223 H   0  0  0  0  0  0  0  0  0  0  0  0
   44.8773   22.6072   35.3217 H   0  0  0  0  0  0  0  0  0  0  0  0
   43.7531   22.1705   33.9905 H   0  0  0  0  0  0  0  0  0  0  0  0
   44.5660   23.7724   33.9905 H   0  0  0  0  0  0  0  0  0  0  0  0
   42.8953   23.5015   37.5344 H   0  0  0  0  0  0  0  0  0  0  0  0
   44.5502   23.6509   36.8521 H   0  0  0  0  0  0  0  0  0  0  0  0
   43.4474   25.0688   36.8521 H   0  0  0  0  0  0  0  0  0  0  0  0
  1  6  1  0
  1  5  1  0
  2  1  1  0
  3  2  1  0
  3  4  1  0
  4  5  1  0
  6  7  2  0
  8  7  1  0
  9  8  2  0
 10 11  2  0
 10  9  1  0
 11  6  1  0
 12  2  1  0
 12 14  1  0
 13 12  1  0
  1 15  1  1
  2 16  1  6
  3 17  1  0
  3 18  1  0
  4 19  1  0
  4 20  1  0
  5 21  1  0
  5 22  1  0
  7 23  1  0
  8 24  1  0
 10 25  1  0
 12 26  1  0
 13 27  1  0
 13 28  1  0
 13 29  1  0
 14 30  1  0
 14 31  1  0
 14 32  1  0
M  ISO  8  15  13  16  13  17  13  18  13  19  13  20  13  21  13  22  13
M  ISO  8  23  14  24  14  25  14  26   8  27   8  28   8  29   8  30   8
M  ISO  2  31   8  32   8
M  END
>  <minimizedAffinity>  (1) 
-3.98799849

>  <minimizedRMSD>  (1) 
1.19883883

$$$$
