
     RDKit          3D

 24 25  0  0  1  0  0  0  0  0999 V2000
   41.3530   22.5730   37.2600 C   0  0  2  0  0  0  0  0  0  0  0  0
   42.0230   23.3610   36.1460 C   0  0  1  0  0  0  0  0  0  0  0  0
   42.6500   22.2900   35.3160 C   0  0  0  0  0  0  0  0  0  0  0  0
   43.0760   21.2840   36.3360 C   0  0  0  0  0  0  0  0  0  0  0  0
   41.8390   21.1800   37.2200 C   0  0  0  0  0  0  0  0  0  0  0  0
   39.8840   22.6580   37.0800 C   0  0  0  0  0  0  0  0  0  0  0  0
   39.0570   23.3700   37.9920 C   0  0  0  0  0  0  0  0  0  0  0  0
   37.6780   23.3840   37.7290 C   0  0  0  0  0  0  0  0  0  0  0  0
   37.2120   22.7300   36.6390 N   0  0  0  0  0  0  0  0  0  0  0  0
   38.0350   22.0550   35.7830 C   0  0  0  0  0  0  0  0  0  0  0  0
   39.3530   22.0280   36.0130 N   0  0  0  0  0  0  0  0  0  0  0  0
   40.8660   24.4030   35.2590 S   0  0  0  0  0  0  0  0  0  0  0  0
   41.6009   22.9861   38.2489 H   0  0  0  0  0  0  0  0  0  0  0  0
   42.7661   24.0904   36.5007 H   0  0  0  0  0  0  0  0  0  0  0  0
   41.9229   21.8574   34.6130 H   0  0  0  0  0  0  0  0  0  0  0  0
   43.4793   22.6537   34.6916 H   0  0  0  0  0  0  0  0  0  0  0  0
   43.3144   20.3175   35.8679 H   0  0  0  0  0  0  0  0  0  0  0  0
   43.9874   21.5676   36.8827 H   0  0  0  0  0  0  0  0  0  0  0  0
   41.0883   20.5103   36.7751 H   0  0  0  0  0  0  0  0  0  0  0  0
   42.0470   20.7607   38.2155 H   0  0  0  0  0  0  0  0  0  0  0  0
   39.4796   23.8875   38.8659 H   0  0  0  0  0  0  0  0  0  0  0  0
   36.9871   23.9179   38.3980 H   0  0  0  0  0  0  0  0  0  0  0  0
   37.6162   21.5358   34.9083 H   0  0  0  0  0  0  0  0  0  0  0  0
   40.0961   25.0964   36.1553 H   0  0  0  0  0  0  0  0  0  0  0  0
  2  1  1  0
  3  2  1  0
  3  4  1  0
  4  5  1  0
  5  1  1  0
  6  1  1  0
  6  7  2  0
  8  7  1  0
  9  8  2  0
 10 11  2  0
 10  9  1  0
 11  6  1  0
 12  2  1  0
  1 13  1  1
  2 14  1  1
  3 15  1  0
  3 16  1  0
  4 17  1  0
  4 18  1  0
  5 19  1  0
  5 20  1  0
  7 21  1  0
  8 22  1  0
 10 23  1  0
 12 24  1  0
M  ISO  8  13  13  14  13  15  13  16  13  17  13  18  13  19  13  20  13
M  ISO  4  21  14  22  14  23  14  24  11
M  END
>  <minimizedAffinity>  (1) 
-3.59812927

>  <minimizedRMSD>  (1) 
0.214688793

$$$$
