
     RDKit          3D

 49 52  0  0  0  0  0  0  0  0999 V2000
   37.4970   24.9000   32.3080 C   0  0  0  0  0  0  0  0  0  0  0  0
   36.6110   25.8220   31.7910 C   0  0  0  0  0  0  0  0  0  0  0  0
   35.4820   25.2970   31.2080 C   0  0  0  0  0  0  0  0  0  0  0  0
   35.2600   23.9710   31.1480 N   0  0  0  0  0  0  0  0  0  0  0  0
   36.1230   23.1090   31.6490 C   0  0  0  0  0  0  0  0  0  0  0  0
   37.2620   23.5890   32.2390 N   0  0  0  0  0  0  0  0  0  0  0  0
   40.3730   25.1910   34.5590 C   0  0  0  0  0  0  0  0  0  0  0  0
   41.0550   26.3270   34.1210 C   0  0  0  0  0  0  0  0  0  0  0  0
   40.4750   26.9620   33.0320 C   0  0  0  0  0  0  0  0  0  0  0  0
   39.3420   26.4820   32.4780 N   0  0  0  0  0  0  0  0  0  0  0  0
   38.7190   25.3760   32.9420 C   0  0  0  0  0  0  0  0  0  0  0  0
   39.2640   24.7450   33.9950 N   0  0  0  0  0  0  0  0  0  0  0  0
   42.2440   26.8120   34.7190 N   0  0  0  0  0  0  0  0  0  0  0  0
   43.5310   26.7160   34.1730 C   0  0  0  0  0  0  0  0  0  0  0  0
   43.8000   25.5920   33.5280 N   0  0  0  0  0  0  0  0  0  0  0  0
   44.3870   27.8730   34.3980 N   0  0  0  0  0  0  0  0  0  0  0  0
   44.7120   25.4460   33.1020 H   0  0  0  0  0  0  0  0  0  0  0  0
   35.8830   21.6720   31.5830 C   0  0  0  0  0  0  0  0  0  0  0  0
   34.8970   21.0960   32.3760 C   0  0  0  0  0  0  0  0  0  0  0  0
   34.7870   19.7380   32.2060 C   0  0  0  0  0  0  0  0  0  0  0  0
   35.5380   19.0040   31.3700 N   0  0  0  0  0  0  0  0  0  0  0  0
   36.4920   19.6410   30.6200 C   0  0  0  0  0  0  0  0  0  0  0  0
   36.6520   20.9590   30.7360 N   0  0  0  0  0  0  0  0  0  0  0  0
   37.3320   18.8390   29.6900 C   0  0  0  0  0  0  0  0  0  0  0  0
   38.6960   19.4340   29.5770 C   0  0  0  0  0  0  0  0  0  0  0  0
   38.9000   20.0700   28.2030 C   0  0  0  0  0  0  0  0  0  0  0  0
   38.7820   18.9760   27.1770 C   0  0  0  0  0  0  0  0  0  0  0  0
   37.4490   18.2720   27.2540 C   0  0  0  0  0  0  0  0  0  0  0  0
   36.5890   18.8110   28.3740 C   0  0  0  0  0  0  0  0  0  0  0  0
   36.7954   26.9052   31.8418 H   0  0  0  0  0  0  0  0  0  0  0  0
   34.7370   25.9821   30.7772 H   0  0  0  0  0  0  0  0  0  0  0  0
   40.7796   24.6379   35.4185 H   0  0  0  0  0  0  0  0  0  0  0  0
   40.9437   27.8660   32.6160 H   0  0  0  0  0  0  0  0  0  0  0  0
   42.1549   27.2754   35.6345 H   0  0  0  0  0  0  0  0  0  0  0  0
   45.3485   27.8818   34.0289 H   0  0  0  0  0  0  0  0  0  0  0  0
   44.0307   28.6823   34.9262 H   0  0  0  0  0  0  0  0  0  0  0  0
   34.2674   21.6712   33.0708 H   0  0  0  0  0  0  0  0  0  0  0  0
   34.0255   19.2115   32.8001 H   0  0  0  0  0  0  0  0  0  0  0  0
   37.4909   17.8115   30.0492 H   0  0  0  0  0  0  0  0  0  0  0  0
   38.8184   20.2045   30.3525 H   0  0  0  0  0  0  0  0  0  0  0  0
   39.4405   18.6351   29.7090 H   0  0  0  0  0  0  0  0  0  0  0  0
   38.1307   20.8360   28.0256 H   0  0  0  0  0  0  0  0  0  0  0  0
   39.8860   20.5538   28.1423 H   0  0  0  0  0  0  0  0  0  0  0  0
   39.5825   18.2410   27.3475 H   0  0  0  0  0  0  0  0  0  0  0  0
   38.8684   19.4333   26.1803 H   0  0  0  0  0  0  0  0  0  0  0  0
   36.9184   18.4105   26.3004 H   0  0  0  0  0  0  0  0  0  0  0  0
   37.6379   17.2067   27.4526 H   0  0  0  0  0  0  0  0  0  0  0  0
   36.2751   19.8344   28.1207 H   0  0  0  0  0  0  0  0  0  0  0  0
   35.7195   18.1467   28.4869 H   0  0  0  0  0  0  0  0  0  0  0  0
  1 11  1  0
  2  1  2  0
  3  2  1  0
  4  3  2  0
  4  5  1  0
  5  6  2  0
  6  1  1  0
  8  7  2  0
  8 13  1  0
  9  8  1  0
 10 11  1  0
 10  9  2  0
 11 12  2  0
 12  7  1  0
 14 16  1  0
 14 13  1  0
 15 14  2  0
 17 15  1  0
 18  5  1  0
 18 19  2  0
 20 19  1  0
 21 20  2  0
 22 23  2  0
 22 21  1  0
 23 18  1  0
 24 22  1  0
 25 24  1  0
 26 25  1  0
 27 28  1  0
 27 26  1  0
 28 29  1  0
 29 24  1  0
  2 30  1  0
  3 31  1  0
  7 32  1  0
  9 33  1  0
 13 34  1  0
 16 35  1  0
 16 36  1  0
 19 37  1  0
 20 38  1  0
 24 39  1  0
 25 40  1  0
 25 41  1  0
 26 42  1  0
 26 43  1  0
 27 44  1  0
 27 45  1  0
 28 46  1  0
 28 47  1  0
 29 48  1  0
 29 49  1  0
M  ISO  8  30  14  31  14  32  14  33  14  37  14  38  14  39  13  40  13
M  ISO  8  41  13  42  13  43  13  44  13  45  13  46  13  47  13  48  13
M  ISO  1  49  13
M  END
>  <minimizedAffinity>  (1) 
-5.79189968

>  <minimizedRMSD>  (1) 
0.735159397

$$$$
