
     RDKit          3D

 52 56  0  0  1  0  0  0  0  0999 V2000
   43.3800   22.8870   35.2460 N   0  0  0  0  0  0  0  0  0  0  0  0
   43.0140   24.0870   34.5420 C   0  0  0  0  0  0  0  0  0  0  0  0
   43.8440   25.2990   34.8440 C   0  0  0  0  0  0  0  0  0  0  0  0
   44.1350   25.5450   36.2820 C   0  0  0  0  0  0  0  0  0  0  0  0
   44.0570   24.2450   37.0150 C   0  0  0  0  0  0  0  0  0  0  0  0
   44.3860   23.1100   36.1510 C   0  0  2  0  0  0  0  0  0  0  0  0
   45.6310   23.3940   35.4270 N   0  0  0  0  0  0  0  0  0  0  0  0
   45.9200   23.4820   34.1180 C   0  0  0  0  0  0  0  0  0  0  0  0
   47.2130   23.7810   33.9110 N   0  0  0  0  0  0  0  0  0  0  0  0
   47.8020   23.8940   35.1130 C   0  0  0  0  0  0  0  0  0  0  0  0
   49.0880   24.1810   35.4910 C   0  0  0  0  0  0  0  0  0  0  0  0
   49.9410   24.3910   34.6080 O   0  0  0  0  0  0  0  0  0  0  0  0
   49.3860   24.2260   36.8140 N   0  0  0  0  0  0  0  0  0  0  0  0
   48.4360   23.9930   37.7510 C   0  0  0  0  0  0  0  0  0  0  0  0
   48.8280   24.0590   39.1190 N   0  0  0  0  0  0  0  0  0  0  0  0
   47.1780   23.7120   37.3700 N   0  0  0  0  0  0  0  0  0  0  0  0
   46.8230   23.6550   36.0590 C   0  0  0  0  0  0  0  0  0  0  0  0
   41.7520   22.1730   36.9520 C   0  0  2  0  0  0  0  0  0  0  0  0
   42.2440   22.1520   35.5650 C   0  0  2  0  0  0  0  0  0  0  0  0
   42.5460   20.6990   35.3490 C   0  0  0  0  0  0  0  0  0  0  0  0
   42.9260   20.1820   36.6530 C   0  0  0  0  0  0  0  0  0  0  0  0
   42.0550   20.9130   37.6490 C   0  0  0  0  0  0  0  0  0  0  0  0
   40.2890   22.4760   36.9760 C   0  0  0  0  0  0  0  0  0  0  0  0
   39.6790   23.0500   38.1360 C   0  0  0  0  0  0  0  0  0  0  0  0
   38.3160   23.3430   38.0400 C   0  0  0  0  0  0  0  0  0  0  0  0
   37.6820   23.0640   36.8710 N   0  0  0  0  0  0  0  0  0  0  0  0
   38.3130   22.5150   35.7940 C   0  0  0  0  0  0  0  0  0  0  0  0
   39.6220   22.2230   35.8550 N   0  0  0  0  0  0  0  0  0  0  0  0
   43.0934   23.8835   33.4639 H   0  0  0  0  0  0  0  0  0  0  0  0
   41.9951   24.3313   34.8770 H   0  0  0  0  0  0  0  0  0  0  0  0
   44.8047   25.1888   34.3197 H   0  0  0  0  0  0  0  0  0  0  0  0
   43.2466   26.1599   34.5095 H   0  0  0  0  0  0  0  0  0  0  0  0
   45.1440   25.9700   36.3882 H   0  0  0  0  0  0  0  0  0  0  0  0
   43.4034   26.2540   36.6968 H   0  0  0  0  0  0  0  0  0  0  0  0
   44.7651   24.2683   37.8565 H   0  0  0  0  0  0  0  0  0  0  0  0
   43.0238   24.1152   37.3693 H   0  0  0  0  0  0  0  0  0  0  0  0
   44.5085   22.2137   36.7768 H   0  0  0  0  0  0  0  0  0  0  0  0
   45.1864   23.3278   33.3130 H   0  0  0  0  0  0  0  0  0  0  0  0
   50.3489   24.4405   37.1102 H   0  0  0  0  0  0  0  0  0  0  0  0
   48.1354   23.8881   39.8620 H   0  0  0  0  0  0  0  0  0  0  0  0
   49.8040   24.2776   39.3651 H   0  0  0  0  0  0  0  0  0  0  0  0
   42.2777   22.9728   37.4941 H   0  0  0  0  0  0  0  0  0  0  0  0
   41.4810   22.6269   34.9307 H   0  0  0  0  0  0  0  0  0  0  0  0
   41.6562   20.1736   34.9718 H   0  0  0  0  0  0  0  0  0  0  0  0
   43.3435   20.5547   34.6052 H   0  0  0  0  0  0  0  0  0  0  0  0
   42.7427   19.0986   36.7049 H   0  0  0  0  0  0  0  0  0  0  0  0
   43.9958   20.3371   36.8566 H   0  0  0  0  0  0  0  0  0  0  0  0
   42.5971   21.0997   38.5878 H   0  0  0  0  0  0  0  0  0  0  0  0
   41.1567   20.3485   37.9395 H   0  0  0  0  0  0  0  0  0  0  0  0
   40.2518   23.2498   39.0536 H   0  0  0  0  0  0  0  0  0  0  0  0
   37.7718   23.7869   38.8867 H   0  0  0  0  0  0  0  0  0  0  0  0
   37.7479   22.3108   34.8726 H   0  0  0  0  0  0  0  0  0  0  0  0
  1  2  1  0
  1 19  1  0
  1  6  1  0
  2  3  1  0
  3  4  1  0
  4  5  1  0
  6  5  1  0
  7 17  1  0
  7  6  1  0
  8  7  1  0
  9  8  2  0
  9 10  1  0
 10 11  1  0
 10 17  2  0
 11 13  1  0
 12 11  2  0
 13 14  1  0
 14 15  1  0
 16 14  2  0
 17 16  1  0
 18 23  1  0
 18 22  1  0
 19 18  1  0
 20 19  1  0
 20 21  1  0
 21 22  1  0
 23 24  2  0
 25 24  1  0
 26 25  2  0
 27 28  2  0
 27 26  1  0
 28 23  1  0
  2 29  1  0
  2 30  1  0
  3 31  1  0
  3 32  1  0
  4 33  1  0
  4 34  1  0
  5 35  1  0
  5 36  1  0
  6 37  1  1
  8 38  1  0
 13 39  1  0
 15 40  1  0
 15 41  1  0
 18 42  1  1
 19 43  1  6
 20 44  1  0
 20 45  1  0
 21 46  1  0
 21 47  1  0
 22 48  1  0
 22 49  1  0
 24 50  1  0
 25 51  1  0
 27 52  1  0
M  ISO  8  29  13  30  13  31  13  32  13  33  13  34  13  35  13  36  13
M  ISO  8  37  13  38  14  39   9  42  13  43  13  44  13  45  13  46  13
M  ISO  6  47  13  48  13  49  13  50  14  51  14  52  14
M  END
>  <minimizedAffinity>  (1) 
-5.08952808

>  <minimizedRMSD>  (1) 
1.33223796

$$$$
