
     RDKit          3D

 51 55  0  0  1  0  0  0  0  0999 V2000
   43.6610   22.9050   35.5440 N   0  0  0  0  0  0  0  0  0  0  0  0
   43.9240   23.2040   34.1560 C   0  0  0  0  0  0  0  0  0  0  0  0
   44.7770   24.4050   33.9030 C   0  0  0  0  0  0  0  0  0  0  0  0
   44.4260   25.6210   34.6840 C   0  0  0  0  0  0  0  0  0  0  0  0
   43.7600   25.1960   35.9550 C   0  0  0  0  0  0  0  0  0  0  0  0
   44.1910   23.8680   36.3880 C   0  0  2  0  0  0  0  0  0  0  0  0
   41.7500   22.4820   37.0230 C   0  0  2  0  0  0  0  0  0  0  0  0
   42.3860   22.4050   35.6990 C   0  0  2  0  0  0  0  0  0  0  0  0
   42.4240   20.9250   35.4400 C   0  0  0  0  0  0  0  0  0  0  0  0
   42.5370   20.3040   36.7500 C   0  0  0  0  0  0  0  0  0  0  0  0
   41.7310   21.1710   37.6900 C   0  0  0  0  0  0  0  0  0  0  0  0
   40.3780   23.0610   36.9100 C   0  0  0  0  0  0  0  0  0  0  0  0
   39.4540   22.9670   38.0020 C   0  0  0  0  0  0  0  0  0  0  0  0
   38.2130   23.5890   37.8130 C   0  0  0  0  0  0  0  0  0  0  0  0
   37.9850   24.2230   36.6300 N   0  0  0  0  0  0  0  0  0  0  0  0
   38.9060   24.2790   35.6250 C   0  0  0  0  0  0  0  0  0  0  0  0
   40.1080   23.6950   35.7670 N   0  0  0  0  0  0  0  0  0  0  0  0
   45.6430   23.7190   36.4040 N   0  0  0  0  0  0  0  0  0  0  0  0
   46.3010   22.5760   36.0190 C   0  0  0  0  0  0  0  0  0  0  0  0
   47.6320   22.7200   36.1500 N   0  0  0  0  0  0  0  0  0  0  0  0
   47.8730   23.9380   36.6160 C   0  0  0  0  0  0  0  0  0  0  0  0
   49.0330   24.6150   36.9380 C   0  0  0  0  0  0  0  0  0  0  0  0
   48.9670   25.8750   37.4060 N   0  0  0  0  0  0  0  0  0  0  0  0
   47.7520   26.4370   37.5430 C   0  0  0  0  0  0  0  0  0  0  0  0
   46.6240   25.7800   37.2300 N   0  0  0  0  0  0  0  0  0  0  0  0
   46.6400   24.5400   36.7660 C   0  0  0  0  0  0  0  0  0  0  0  0
   50.2640   23.8890   36.7410 N   0  0  0  0  0  0  0  0  0  0  0  0
   44.4269   22.3324   33.7118 H   0  0  0  0  0  0  0  0  0  0  0  0
   42.9457   23.4306   33.7071 H   0  0  0  0  0  0  0  0  0  0  0  0
   45.8167   24.1377   34.1428 H   0  0  0  0  0  0  0  0  0  0  0  0
   44.6167   24.6698   32.8474 H   0  0  0  0  0  0  0  0  0  0  0  0
   45.3391   26.1889   34.9159 H   0  0  0  0  0  0  0  0  0  0  0  0
   43.7478   26.2602   34.0997 H   0  0  0  0  0  0  0  0  0  0  0  0
   44.0056   25.9226   36.7435 H   0  0  0  0  0  0  0  0  0  0  0  0
   42.6763   25.1555   35.7707 H   0  0  0  0  0  0  0  0  0  0  0  0
   43.8255   23.7396   37.4175 H   0  0  0  0  0  0  0  0  0  0  0  0
   42.3523   23.1527   37.6533 H   0  0  0  0  0  0  0  0  0  0  0  0
   41.8079   23.0407   35.0122 H   0  0  0  0  0  0  0  0  0  0  0  0
   41.5011   20.5987   34.9382 H   0  0  0  0  0  0  0  0  0  0  0  0
   43.2614   20.6471   34.7831 H   0  0  0  0  0  0  0  0  0  0  0  0
   42.1284   19.2830   36.7260 H   0  0  0  0  0  0  0  0  0  0  0  0
   43.5862   20.2267   37.0713 H   0  0  0  0  0  0  0  0  0  0  0  0
   42.2030   21.2246   38.6821 H   0  0  0  0  0  0  0  0  0  0  0  0
   40.7152   20.7894   37.8705 H   0  0  0  0  0  0  0  0  0  0  0  0
   39.7046   22.4378   38.9332 H   0  0  0  0  0  0  0  0  0  0  0  0
   37.4438   23.5658   38.5990 H   0  0  0  0  0  0  0  0  0  0  0  0
   38.6627   24.8065   34.6909 H   0  0  0  0  0  0  0  0  0  0  0  0
   45.8056   21.6648   35.6526 H   0  0  0  0  0  0  0  0  0  0  0  0
   47.6809   27.4667   37.9233 H   0  0  0  0  0  0  0  0  0  0  0  0
   51.1659   24.3350   36.9614 H   0  0  0  0  0  0  0  0  0  0  0  0
   50.2410   22.9246   36.3800 H   0  0  0  0  0  0  0  0  0  0  0  0
  1  2  1  0
  1  8  1  0
  1  6  1  0
  3  2  1  0
  3  4  1  0
  4  5  1  0
  5  6  1  0
  6 18  1  0
  7 11  1  0
  8  7  1  0
  9  8  1  0
  9 10  1  0
 10 11  1  0
 12  7  1  0
 12 13  2  0
 14 13  1  0
 15 14  2  0
 16 17  2  0
 16 15  1  0
 17 12  1  0
 18 26  1  0
 19 20  2  0
 19 18  1  0
 20 21  1  0
 21 26  2  0
 21 22  1  0
 22 23  2  0
 23 24  1  0
 25 24  2  0
 26 25  1  0
 27 22  1  0
  2 28  1  0
  2 29  1  0
  3 30  1  0
  3 31  1  0
  4 32  1  0
  4 33  1  0
  5 34  1  0
  5 35  1  0
  6 36  1  1
  7 37  1  1
  8 38  1  6
  9 39  1  0
  9 40  1  0
 10 41  1  0
 10 42  1  0
 11 43  1  0
 11 44  1  0
 13 45  1  0
 14 46  1  0
 16 47  1  0
 19 48  1  0
 24 49  1  0
 27 50  1  0
 27 51  1  0
M  ISO  8  28  13  29  13  30  13  31  13  32  13  33  13  34  13  35  13
M  ISO  8  36  13  37  13  38  13  39  13  40  13  41  13  42  13  43  13
M  ISO  6  44  13  45  14  46  14  47  14  48  14  49  14
M  END
>  <minimizedAffinity>  (1) 
-5.02890635

>  <minimizedRMSD>  (1) 
2.92433906

$$$$
