
     RDKit          3D

 54 58  0  0  1  0  0  0  0  0999 V2000
   42.6200   23.0060   34.6610 N   0  0  0  0  0  0  0  0  0  0  0  0
   42.0010   23.2780   33.3460 C   0  0  0  0  0  0  0  0  0  0  0  0
   42.3590   24.6010   32.7640 C   0  0  0  0  0  0  0  0  0  0  0  0
   42.2880   25.7940   33.6700 C   0  0  0  0  0  0  0  0  0  0  0  0
   42.3250   25.2180   35.0820 C   0  0  0  0  0  0  0  0  0  0  0  0
   43.2800   24.1560   35.1380 C   0  0  1  0  0  0  0  0  0  0  0  0
   41.3640   22.5510   36.7900 C   0  0  2  0  0  0  0  0  0  0  0  0
   41.6690   22.3210   35.4240 C   0  0  2  0  0  0  0  0  0  0  0  0
   42.0870   20.8710   35.4110 C   0  0  0  0  0  0  0  0  0  0  0  0
   42.8380   20.7410   36.6100 C   0  0  0  0  0  0  0  0  0  0  0  0
   41.9020   21.4310   37.5780 C   0  0  0  0  0  0  0  0  0  0  0  0
   39.8680   22.6770   36.9270 C   0  0  0  0  0  0  0  0  0  0  0  0
   39.3030   23.1920   38.1320 C   0  0  0  0  0  0  0  0  0  0  0  0
   37.8970   23.2910   38.1660 C   0  0  0  0  0  0  0  0  0  0  0  0
   37.1820   22.9020   37.0780 N   0  0  0  0  0  0  0  0  0  0  0  0
   37.7680   22.4190   35.9590 C   0  0  0  0  0  0  0  0  0  0  0  0
   39.1080   22.3130   35.8930 N   0  0  0  0  0  0  0  0  0  0  0  0
   44.5570   24.0190   35.7500 C   0  0  0  0  0  0  0  0  0  0  0  0
   45.4130   23.1310   35.0580 C   0  0  0  0  0  0  0  0  0  0  0  0
   46.6930   22.7840   35.4390 C   0  0  0  0  0  0  0  0  0  0  0  0
   47.1420   23.3760   36.5970 C   0  0  0  0  0  0  0  0  0  0  0  0
   46.4210   24.2440   37.3470 C   0  0  0  0  0  0  0  0  0  0  0  0
   46.8920   24.8320   38.4920 C   0  0  0  0  0  0  0  0  0  0  0  0
   46.1120   25.7350   39.2300 C   0  0  0  0  0  0  0  0  0  0  0  0
   44.8330   25.9900   38.7170 C   0  0  0  0  0  0  0  0  0  0  0  0
   44.4050   25.3900   37.5850 C   0  0  0  0  0  0  0  0  0  0  0  0
   45.1610   24.5040   36.8570 C   0  0  0  0  0  0  0  0  0  0  0  0
   42.3230   22.4942   32.6446 H   0  0  0  0  0  0  0  0  0  0  0  0
   40.9126   23.2871   33.5052 H   0  0  0  0  0  0  0  0  0  0  0  0
   43.3918   24.5297   32.3923 H   0  0  0  0  0  0  0  0  0  0  0  0
   41.5957   24.7861   31.9938 H   0  0  0  0  0  0  0  0  0  0  0  0
   43.1472   26.4598   33.5011 H   0  0  0  0  0  0  0  0  0  0  0  0
   41.3845   26.3957   33.4920 H   0  0  0  0  0  0  0  0  0  0  0  0
   42.6120   26.0071   35.7926 H   0  0  0  0  0  0  0  0  0  0  0  0
   41.3299   24.8309   35.3465 H   0  0  0  0  0  0  0  0  0  0  0  0
   44.1633   24.7823   34.9440 H   0  0  0  0  0  0  0  0  0  0  0  0
   41.8196   23.4804   37.1625 H   0  0  0  0  0  0  0  0  0  0  0  0
   40.7639   22.6978   34.9252 H   0  0  0  0  0  0  0  0  0  0  0  0
   41.2099   20.2072   35.4206 H   0  0  0  0  0  0  0  0  0  0  0  0
   42.6567   20.5935   34.5119 H   0  0  0  0  0  0  0  0  0  0  0  0
   42.9997   19.6867   36.8789 H   0  0  0  0  0  0  0  0  0  0  0  0
   43.8548   21.1587   36.5691 H   0  0  0  0  0  0  0  0  0  0  0  0
   42.4475   21.7965   38.4605 H   0  0  0  0  0  0  0  0  0  0  0  0
   41.1188   20.7643   37.9681 H   0  0  0  0  0  0  0  0  0  0  0  0
   39.9283   23.4943   38.9850 H   0  0  0  0  0  0  0  0  0  0  0  0
   37.3863   23.6775   39.0603 H   0  0  0  0  0  0  0  0  0  0  0  0
   37.1493   22.1127   35.1026 H   0  0  0  0  0  0  0  0  0  0  0  0
   45.0241   22.6769   34.1347 H   0  0  0  0  0  0  0  0  0  0  0  0
   47.3108   22.0835   34.8579 H   0  0  0  0  0  0  0  0  0  0  0  0
   48.1578   23.1271   36.9379 H   0  0  0  0  0  0  0  0  0  0  0  0
   47.9067   24.5899   38.8410 H   0  0  0  0  0  0  0  0  0  0  0  0
   46.4801   26.2114   40.1506 H   0  0  0  0  0  0  0  0  0  0  0  0
   44.1675   26.6894   39.2442 H   0  0  0  0  0  0  0  0  0  0  0  0
   43.3923   25.6246   37.2253 H   0  0  0  0  0  0  0  0  0  0  0  0
  1  2  1  0
  1  6  1  0
  1  8  1  0
  3  2  1  0
  3  4  1  0
  4  5  1  0
  5  6  1  0
  6 18  1  0
  7 12  1  0
  7 11  1  0
  8  7  1  0
  9  8  1  0
  9 10  1  0
 10 11  1  0
 12 13  2  0
 13 14  1  0
 15 14  2  0
 16 15  1  0
 17 16  2  0
 17 12  1  0
 18 27  2  0
 19 20  2  0
 19 18  1  0
 20 21  1  0
 21 22  2  0
 22 23  1  0
 23 24  2  0
 25 24  1  0
 26 25  2  0
 27 22  1  0
 27 26  1  0
  2 28  1  0
  2 29  1  0
  3 30  1  0
  3 31  1  0
  4 32  1  0
  4 33  1  0
  5 34  1  0
  5 35  1  0
  6 36  1  6
  7 37  1  1
  8 38  1  6
  9 39  1  0
  9 40  1  0
 10 41  1  0
 10 42  1  0
 11 43  1  0
 11 44  1  0
 13 45  1  0
 14 46  1  0
 16 47  1  0
 19 48  1  0
 20 49  1  0
 21 50  1  0
 23 51  1  0
 24 52  1  0
 25 53  1  0
 26 54  1  0
M  ISO  8  28  13  29  13  30  13  31  13  32  13  33  13  34  13  35  13
M  ISO  8  36  13  37  13  38  13  39  13  40  13  41  13  42  13  43  13
M  ISO  8  44  13  45  14  46  14  47  14  48  14  49  14  50  14  51  14
M  ISO  3  52  14  53  14  54  14
M  END
>  <minimizedAffinity>  (1) 
-6.64047146

>  <minimizedRMSD>  (1) 
2.74068594

$$$$
