
     RDKit          3D

 45 48  0  0  1  0  0  0  0  0999 V2000
   41.5050   22.3120   37.1830 C   0  0  2  0  0  0  0  0  0  0  0  0
   42.0970   22.4520   35.8450 C   0  0  2  0  0  0  0  0  0  0  0  0
   42.4910   21.0420   35.5100 C   0  0  0  0  0  0  0  0  0  0  0  0
   42.8030   20.4180   36.7890 C   0  0  0  0  0  0  0  0  0  0  0  0
   41.8170   20.9940   37.7650 C   0  0  0  0  0  0  0  0  0  0  0  0
   43.2240   23.2600   35.6830 N   0  0  0  0  0  0  0  0  0  0  0  0
   43.7530   23.0930   34.3560 C   0  0  0  0  0  0  0  0  0  0  0  0
   44.3230   24.3300   33.7240 C   0  0  0  0  0  0  0  0  0  0  0  0
   43.5070   25.5570   33.8750 C   0  0  0  0  0  0  0  0  0  0  0  0
   42.6270   25.4400   35.0910 C   0  0  0  0  0  0  0  0  0  0  0  0
   43.2470   24.5630   36.0850 C   0  0  2  0  0  0  0  0  0  0  0  0
   44.6630   24.9980   36.2210 N   0  0  0  0  0  0  0  0  0  0  0  0
   45.1990   26.2050   35.9690 N   0  0  0  0  0  0  0  0  0  0  0  0
   46.5170   26.1560   36.2380 C   0  0  0  0  0  0  0  0  0  0  0  0
   46.8000   24.8560   36.6750 C   0  0  0  0  0  0  0  0  0  0  0  0
   45.6240   24.1300   36.6620 C   0  0  0  0  0  0  0  0  0  0  0  0
   40.0330   22.5470   37.1190 C   0  0  0  0  0  0  0  0  0  0  0  0
   39.3470   23.1890   38.2000 C   0  0  0  0  0  0  0  0  0  0  0  0
   37.9700   23.4060   38.0160 C   0  0  0  0  0  0  0  0  0  0  0  0
   37.4060   22.9980   36.8490 N   0  0  0  0  0  0  0  0  0  0  0  0
   38.1110   22.3890   35.8530 C   0  0  0  0  0  0  0  0  0  0  0  0
   39.4280   22.1630   35.9890 N   0  0  0  0  0  0  0  0  0  0  0  0
   41.9460   23.0720   37.8448 H   0  0  0  0  0  0  0  0  0  0  0  0
   41.3554   22.9584   35.2097 H   0  0  0  0  0  0  0  0  0  0  0  0
   41.6601   20.5162   35.0169 H   0  0  0  0  0  0  0  0  0  0  0  0
   43.3444   21.0074   34.8168 H   0  0  0  0  0  0  0  0  0  0  0  0
   42.6863   19.3262   36.7232 H   0  0  0  0  0  0  0  0  0  0  0  0
   43.8418   20.6103   37.0954 H   0  0  0  0  0  0  0  0  0  0  0  0
   42.2651   21.0991   38.7641 H   0  0  0  0  0  0  0  0  0  0  0  0
   40.9282   20.3617   37.9071 H   0  0  0  0  0  0  0  0  0  0  0  0
   44.5517   22.3381   34.4027 H   0  0  0  0  0  0  0  0  0  0  0  0
   42.8997   22.7997   33.7268 H   0  0  0  0  0  0  0  0  0  0  0  0
   44.4462   24.1351   32.6484 H   0  0  0  0  0  0  0  0  0  0  0  0
   45.2685   24.5295   34.2495 H   0  0  0  0  0  0  0  0  0  0  0  0
   44.1721   26.4258   33.9882 H   0  0  0  0  0  0  0  0  0  0  0  0
   42.8768   25.6853   32.9826 H   0  0  0  0  0  0  0  0  0  0  0  0
   42.4796   26.4380   35.5295 H   0  0  0  0  0  0  0  0  0  0  0  0
   41.6586   25.0127   34.7917 H   0  0  0  0  0  0  0  0  0  0  0  0
   42.6966   24.6316   37.0349 H   0  0  0  0  0  0  0  0  0  0  0  0
   47.2364   26.9817   36.1341 H   0  0  0  0  0  0  0  0  0  0  0  0
   47.7879   24.4779   36.9766 H   0  0  0  0  0  0  0  0  0  0  0  0
   45.4891   23.0760   36.9464 H   0  0  0  0  0  0  0  0  0  0  0  0
   39.8668   23.4944   39.1201 H   0  0  0  0  0  0  0  0  0  0  0  0
   37.3657   23.8928   38.7956 H   0  0  0  0  0  0  0  0  0  0  0  0
   37.5969   22.0804   34.9308 H   0  0  0  0  0  0  0  0  0  0  0  0
  1  5  1  0
  2  1  1  0
  3  2  1  0
  3  4  1  0
  4  5  1  0
  6  7  1  0
  6  2  1  0
  6 11  1  0
  8  9  1  0
  8  7  1  0
  9 10  1  0
 10 11  1  0
 11 12  1  0
 12 16  1  0
 13 12  1  0
 13 14  2  0
 14 15  1  0
 16 15  2  0
 17  1  1  0
 17 18  2  0
 19 18  1  0
 20 19  2  0
 21 22  2  0
 21 20  1  0
 22 17  1  0
  1 23  1  1
  2 24  1  6
  3 25  1  0
  3 26  1  0
  4 27  1  0
  4 28  1  0
  5 29  1  0
  5 30  1  0
  7 31  1  0
  7 32  1  0
  8 33  1  0
  8 34  1  0
  9 35  1  0
  9 36  1  0
 10 37  1  0
 10 38  1  0
 11 39  1  1
 14 40  1  0
 15 41  1  0
 16 42  1  0
 18 43  1  0
 19 44  1  0
 21 45  1  0
M  ISO  8  23  13  24  13  25  13  26  13  27  13  28  13  29  13  30  13
M  ISO  8  31  13  32  13  33  13  34  13  35  13  36  13  37  13  38  13
M  ISO  7  39  13  40  14  41  14  42  14  43  14  44  14  45  14
M  END
>  <minimizedAffinity>  (1) 
-4.84532547

>  <minimizedRMSD>  (1) 
1.74681342

$$$$
