
     RDKit          3D

 52 56  0  0  1  0  0  0  0  0999 V2000
   43.4260   23.2100   35.7750 N   0  0  0  0  0  0  0  0  0  0  0  0
   43.9060   23.1920   34.4140 C   0  0  0  0  0  0  0  0  0  0  0  0
   44.5210   24.4820   33.9450 C   0  0  0  0  0  0  0  0  0  0  0  0
   43.7380   25.6820   34.2550 C   0  0  0  0  0  0  0  0  0  0  0  0
   42.8880   25.4760   35.4700 C   0  0  0  0  0  0  0  0  0  0  0  0
   43.4920   24.4500   36.3570 C   0  0  2  0  0  0  0  0  0  0  0  0
   41.6050   22.2110   37.1290 C   0  0  2  0  0  0  0  0  0  0  0  0
   42.2650   22.4230   35.8320 C   0  0  2  0  0  0  0  0  0  0  0  0
   42.6440   21.0230   35.4270 C   0  0  0  0  0  0  0  0  0  0  0  0
   42.8740   20.3140   36.6630 C   0  0  0  0  0  0  0  0  0  0  0  0
   41.8960   20.8770   37.6700 C   0  0  0  0  0  0  0  0  0  0  0  0
   40.1370   22.4580   37.0130 C   0  0  0  0  0  0  0  0  0  0  0  0
   39.4220   23.1000   38.0550 C   0  0  0  0  0  0  0  0  0  0  0  0
   38.0560   23.3370   37.8310 C   0  0  0  0  0  0  0  0  0  0  0  0
   37.5300   22.9390   36.6440 N   0  0  0  0  0  0  0  0  0  0  0  0
   38.2640   22.3260   35.6770 C   0  0  0  0  0  0  0  0  0  0  0  0
   39.5700   22.0880   35.8690 N   0  0  0  0  0  0  0  0  0  0  0  0
   44.7000   24.8680   37.1060 C   0  0  0  0  0  0  0  0  0  0  0  0
   44.9340   25.9150   37.9800 C   0  0  0  0  0  0  0  0  0  0  0  0
   46.1580   25.9630   38.5170 N   0  0  0  0  0  0  0  0  0  0  0  0
   46.8500   24.9200   38.0280 C   0  0  0  0  0  0  0  0  0  0  0  0
   48.1330   24.4580   38.2140 C   0  0  0  0  0  0  0  0  0  0  0  0
   48.6010   23.3310   37.5730 C   0  0  0  0  0  0  0  0  0  0  0  0
   47.7620   22.6460   36.7210 C   0  0  0  0  0  0  0  0  0  0  0  0
   46.4840   23.1360   36.5570 C   0  0  0  0  0  0  0  0  0  0  0  0
   45.9800   24.2630   37.1840 C   0  0  0  0  0  0  0  0  0  0  0  0
   44.6650   22.4003   34.3293 H   0  0  0  0  0  0  0  0  0  0  0  0
   43.0257   23.0192   33.7774 H   0  0  0  0  0  0  0  0  0  0  0  0
   44.6444   24.4259   32.8534 H   0  0  0  0  0  0  0  0  0  0  0  0
   45.4746   24.5855   34.4834 H   0  0  0  0  0  0  0  0  0  0  0  0
   44.4251   26.5217   34.4362 H   0  0  0  0  0  0  0  0  0  0  0  0
   43.0784   25.8972   33.4014 H   0  0  0  0  0  0  0  0  0  0  0  0
   42.8043   26.4256   36.0189 H   0  0  0  0  0  0  0  0  0  0  0  0
   41.8919   25.1325   35.1542 H   0  0  0  0  0  0  0  0  0  0  0  0
   42.8661   24.3302   37.2536 H   0  0  0  0  0  0  0  0  0  0  0  0
   42.0132   22.9378   37.8467 H   0  0  0  0  0  0  0  0  0  0  0  0
   41.5678   22.9910   35.1985 H   0  0  0  0  0  0  0  0  0  0  0  0
   41.8274   20.5523   34.8598 H   0  0  0  0  0  0  0  0  0  0  0  0
   43.5322   21.0117   34.7782 H   0  0  0  0  0  0  0  0  0  0  0  0
   42.6968   19.2375   36.5221 H   0  0  0  0  0  0  0  0  0  0  0  0
   43.9121   20.4376   37.0050 H   0  0  0  0  0  0  0  0  0  0  0  0
   42.3510   20.9451   38.6692 H   0  0  0  0  0  0  0  0  0  0  0  0
   40.9986   20.2545   37.8010 H   0  0  0  0  0  0  0  0  0  0  0  0
   39.9130   23.3980   38.9931 H   0  0  0  0  0  0  0  0  0  0  0  0
   37.4326   23.8289   38.5921 H   0  0  0  0  0  0  0  0  0  0  0  0
   37.7849   22.0243   34.7339 H   0  0  0  0  0  0  0  0  0  0  0  0
   44.1616   26.6611   38.2182 H   0  0  0  0  0  0  0  0  0  0  0  0
   46.5057   26.6685   39.1820 H   0  0  0  0  0  0  0  0  0  0  0  0
   48.8041   25.0037   38.8936 H   0  0  0  0  0  0  0  0  0  0  0  0
   49.6311   22.9828   37.7394 H   0  0  0  0  0  0  0  0  0  0  0  0
   48.0993   21.7425   36.1919 H   0  0  0  0  0  0  0  0  0  0  0  0
   45.8138   22.5904   35.8765 H   0  0  0  0  0  0  0  0  0  0  0  0
  1  2  1  0
  1  8  1  0
  1  6  1  0
  3  4  1  0
  3  2  1  0
  4  5  1  0
  5  6  1  0
  6 18  1  0
  7 11  1  0
  8  7  1  0
  9  8  1  0
  9 10  1  0
 10 11  1  0
 12  7  1  0
 12 13  2  0
 14 13  1  0
 15 14  2  0
 16 17  2  0
 16 15  1  0
 17 12  1  0
 18 26  1  0
 18 19  2  0
 19 20  1  0
 21 22  2  0
 21 20  1  0
 23 22  1  0
 24 23  2  0
 25 24  1  0
 25 26  2  0
 26 21  1  0
  2 27  1  0
  2 28  1  0
  3 29  1  0
  3 30  1  0
  4 31  1  0
  4 32  1  0
  5 33  1  0
  5 34  1  0
  6 35  1  1
  7 36  1  1
  8 37  1  6
  9 38  1  0
  9 39  1  0
 10 40  1  0
 10 41  1  0
 11 42  1  0
 11 43  1  0
 13 44  1  0
 14 45  1  0
 16 46  1  0
 19 47  1  0
 20 48  1  0
 22 49  1  0
 23 50  1  0
 24 51  1  0
 25 52  1  0
M  ISO  8  27  13  28  13  29  13  30  13  31  13  32  13  33  13  34  13
M  ISO  8  35  13  36  13  37  13  38  13  39  13  40  13  41  13  42  13
M  ISO  8  43  13  44  14  45  14  46  14  47  14  48   9  49  14  50  14
M  ISO  2  51  14  52  14
M  END
>  <minimizedAffinity>  (1) 
-6.04590654

>  <minimizedRMSD>  (1) 
3.0153594

$$$$
