
     RDKit          3D

 48 51  0  0  1  0  0  0  0  0999 V2000
   42.9860   23.1500   35.0810 N   0  0  0  0  0  0  0  0  0  0  0  0
   42.5540   24.4880   34.8210 C   0  0  0  0  0  0  0  0  0  0  0  0
   43.5120   25.5620   35.2060 C   0  0  0  0  0  0  0  0  0  0  0  0
   44.1990   25.4050   36.5230 C   0  0  0  0  0  0  0  0  0  0  0  0
   44.2240   23.9550   36.8660 C   0  0  0  0  0  0  0  0  0  0  0  0
   44.2350   23.0950   35.6770 C   0  0  2  0  0  0  0  0  0  0  0  0
   41.5160   22.3990   36.8890 C   0  0  2  0  0  0  0  0  0  0  0  0
   41.9420   22.3460   35.4800 C   0  0  2  0  0  0  0  0  0  0  0  0
   42.3300   20.9060   35.3080 C   0  0  0  0  0  0  0  0  0  0  0  0
   42.8160   20.4820   36.6070 C   0  0  0  0  0  0  0  0  0  0  0  0
   41.9370   21.1890   37.6180 C   0  0  0  0  0  0  0  0  0  0  0  0
   40.0370   22.6000   36.9710 C   0  0  0  0  0  0  0  0  0  0  0  0
   39.4440   23.1670   38.1350 C   0  0  0  0  0  0  0  0  0  0  0  0
   38.0610   23.3580   38.1020 C   0  0  0  0  0  0  0  0  0  0  0  0
   37.3890   22.9940   36.9790 N   0  0  0  0  0  0  0  0  0  0  0  0
   38.0070   22.4530   35.8910 C   0  0  0  0  0  0  0  0  0  0  0  0
   39.3360   22.2580   35.8910 N   0  0  0  0  0  0  0  0  0  0  0  0
   45.2320   23.5880   34.6760 C   0  0  0  0  0  0  0  0  0  0  0  0
   45.1320   23.7220   33.3140 C   0  0  0  0  0  0  0  0  0  0  0  0
   46.1560   24.1780   32.5170 C   0  0  0  0  0  0  0  0  0  0  0  0
   47.3700   24.5340   33.0640 C   0  0  0  0  0  0  0  0  0  0  0  0
   47.5450   24.4270   34.4250 C   0  0  0  0  0  0  0  0  0  0  0  0
   46.4910   23.9660   35.1790 C   0  0  0  0  0  0  0  0  0  0  0  0
   42.3618   24.5775   33.7416 H   0  0  0  0  0  0  0  0  0  0  0  0
   41.6627   24.6425   35.4469 H   0  0  0  0  0  0  0  0  0  0  0  0
   44.2884   25.6111   34.4284 H   0  0  0  0  0  0  0  0  0  0  0  0
   42.9028   26.4727   35.3035 H   0  0  0  0  0  0  0  0  0  0  0  0
   45.2275   25.7891   36.4545 H   0  0  0  0  0  0  0  0  0  0  0  0
   43.6635   25.9698   37.3003 H   0  0  0  0  0  0  0  0  0  0  0  0
   45.1273   23.7485   37.4588 H   0  0  0  0  0  0  0  0  0  0  0  0
   43.3079   23.7302   37.4319 H   0  0  0  0  0  0  0  0  0  0  0  0
   44.4952   22.0720   35.9865 H   0  0  0  0  0  0  0  0  0  0  0  0
   42.0079   23.2561   37.3721 H   0  0  0  0  0  0  0  0  0  0  0  0
   41.1206   22.7290   34.8566 H   0  0  0  0  0  0  0  0  0  0  0  0
   41.4586   20.3055   35.0080 H   0  0  0  0  0  0  0  0  0  0  0  0
   43.0907   20.7774   34.5239 H   0  0  0  0  0  0  0  0  0  0  0  0
   42.7247   19.3911   36.7144 H   0  0  0  0  0  0  0  0  0  0  0  0
   43.8787   20.7297   36.7461 H   0  0  0  0  0  0  0  0  0  0  0  0
   42.5040   21.4487   38.5241 H   0  0  0  0  0  0  0  0  0  0  0  0
   41.0946   20.5753   37.9697 H   0  0  0  0  0  0  0  0  0  0  0  0
   40.0446   23.4405   39.0151 H   0  0  0  0  0  0  0  0  0  0  0  0
   37.5301   23.7916   38.9623 H   0  0  0  0  0  0  0  0  0  0  0  0
   37.4137   22.1744   35.0076 H   0  0  0  0  0  0  0  0  0  0  0  0
   44.1808   23.4498   32.8333 H   0  0  0  0  0  0  0  0  0  0  0  0
   46.0044   24.2595   31.4306 H   0  0  0  0  0  0  0  0  0  0  0  0
   48.1863   24.8980   32.4228 H   0  0  0  0  0  0  0  0  0  0  0  0
   48.5002   24.7022   34.8961 H   0  0  0  0  0  0  0  0  0  0  0  0
   46.6448   23.8861   36.2653 H   0  0  0  0  0  0  0  0  0  0  0  0
  1  2  1  0
  1  8  1  0
  1  6  1  0
  2  3  1  0
  3  4  1  0
  4  5  1  0
  6  5  1  0
  7 12  1  0
  7 11  1  0
  8  7  1  0
  9  8  1  0
  9 10  1  0
 10 11  1  0
 12 13  2  0
 14 13  1  0
 15 14  2  0
 16 17  2  0
 16 15  1  0
 17 12  1  0
 18 23  1  0
 18  6  1  0
 19 18  2  0
 20 21  2  0
 20 19  1  0
 21 22  1  0
 22 23  2  0
  2 24  1  0
  2 25  1  0
  3 26  1  0
  3 27  1  0
  4 28  1  0
  4 29  1  0
  5 30  1  0
  5 31  1  0
  6 32  1  1
  7 33  1  1
  8 34  1  6
  9 35  1  0
  9 36  1  0
 10 37  1  0
 10 38  1  0
 11 39  1  0
 11 40  1  0
 13 41  1  0
 14 42  1  0
 16 43  1  0
 19 44  1  0
 20 45  1  0
 21 46  1  0
 22 47  1  0
 23 48  1  0
M  ISO  8  24  13  25  13  26  13  27  13  28  13  29  13  30  13  31  13
M  ISO  8  32  13  33  13  34  13  35  13  36  13  37  13  38  13  39  13
M  ISO  8  40  13  41  14  42  14  43  14  44  14  45  14  46  14  47  14
M  ISO  1  48  14
M  END
>  <minimizedAffinity>  (1) 
-4.59983778

>  <minimizedRMSD>  (1) 
0.26912722

$$$$
