
     RDKit          3D

 47 49  0  0  1  0  0  0  0  0999 V2000
   41.4760   22.3600   37.0250 C   0  0  2  0  0  0  0  0  0  0  0  0
   42.0040   22.3790   35.6500 C   0  0  2  0  0  0  0  0  0  0  0  0
   42.4150   20.9600   35.4310 C   0  0  0  0  0  0  0  0  0  0  0  0
   42.7610   20.4450   36.7360 C   0  0  0  0  0  0  0  0  0  0  0  0
   41.8700   21.1330   37.7150 C   0  0  0  0  0  0  0  0  0  0  0  0
   43.1030   23.1900   35.3640 N   0  0  0  0  0  0  0  0  0  0  0  0
   43.3260   23.2020   33.9280 C   0  0  0  0  0  0  0  0  0  0  0  0
   43.7870   24.5110   33.3700 C   0  0  0  0  0  0  0  0  0  0  0  0
   43.1170   25.7180   33.8890 C   0  0  0  0  0  0  0  0  0  0  0  0
   42.4960   25.4330   35.2260 C   0  0  0  0  0  0  0  0  0  0  0  0
   43.2690   24.4160   35.9410 C   0  0  2  0  0  0  0  0  0  0  0  0
   44.7160   24.8560   36.2270 C   0  0  0  0  0  0  0  0  0  0  0  0
   45.5770   23.6360   36.4980 C   0  0  0  0  0  0  0  0  0  0  0  0
   44.8050   25.6620   37.5170 C   0  0  0  0  0  0  0  0  0  0  0  0
   39.9940   22.5500   37.0170 C   0  0  0  0  0  0  0  0  0  0  0  0
   39.3340   23.1680   38.1290 C   0  0  0  0  0  0  0  0  0  0  0  0
   37.9460   23.3500   37.9970 C   0  0  0  0  0  0  0  0  0  0  0  0
   37.3520   22.9330   36.8490 N   0  0  0  0  0  0  0  0  0  0  0  0
   38.0330   22.3480   35.8210 C   0  0  0  0  0  0  0  0  0  0  0  0
   39.3600   22.1600   35.9140 N   0  0  0  0  0  0  0  0  0  0  0  0
   41.9129   23.1996   37.5855 H   0  0  0  0  0  0  0  0  0  0  0  0
   41.2216   22.8032   35.0036 H   0  0  0  0  0  0  0  0  0  0  0  0
   41.5841   20.3827   34.9992 H   0  0  0  0  0  0  0  0  0  0  0  0
   43.2592   20.8864   34.7296 H   0  0  0  0  0  0  0  0  0  0  0  0
   42.5960   19.3580   36.7712 H   0  0  0  0  0  0  0  0  0  0  0  0
   43.8208   20.6282   36.9669 H   0  0  0  0  0  0  0  0  0  0  0  0
   42.4121   21.3627   38.6442 H   0  0  0  0  0  0  0  0  0  0  0  0
   41.0087   20.5168   38.0126 H   0  0  0  0  0  0  0  0  0  0  0  0
   44.0886   22.4443   33.6949 H   0  0  0  0  0  0  0  0  0  0  0  0
   42.3500   22.9971   33.4640 H   0  0  0  0  0  0  0  0  0  0  0  0
   43.6316   24.4840   32.2814 H   0  0  0  0  0  0  0  0  0  0  0  0
   44.8387   24.6056   33.6780 H   0  0  0  0  0  0  0  0  0  0  0  0
   43.8559   26.5257   33.9965 H   0  0  0  0  0  0  0  0  0  0  0  0
   42.3284   26.0212   33.1847 H   0  0  0  0  0  0  0  0  0  0  0  0
   42.4761   26.3580   35.8210 H   0  0  0  0  0  0  0  0  0  0  0  0
   41.4725   25.0606   35.0721 H   0  0  0  0  0  0  0  0  0  0  0  0
   42.8623   24.3005   36.9565 H   0  0  0  0  0  0  0  0  0  0  0  0
   45.0430   25.4394   35.3537 H   0  0  0  0  0  0  0  0  0  0  0  0
   45.6782   23.4925   37.5839 H   0  0  0  0  0  0  0  0  0  0  0  0
   45.1046   22.7477   36.0533 H   0  0  0  0  0  0  0  0  0  0  0  0
   46.5722   23.7835   36.0533 H   0  0  0  0  0  0  0  0  0  0  0  0
   44.7300   24.9832   38.3794 H   0  0  0  0  0  0  0  0  0  0  0  0
   45.7673   26.1937   37.5515 H   0  0  0  0  0  0  0  0  0  0  0  0
   43.9819   26.3909   37.5515 H   0  0  0  0  0  0  0  0  0  0  0  0
   39.8802   23.4810   39.0311 H   0  0  0  0  0  0  0  0  0  0  0  0
   37.3579   23.8169   38.8008 H   0  0  0  0  0  0  0  0  0  0  0  0
   37.4950   22.0302   34.9157 H   0  0  0  0  0  0  0  0  0  0  0  0
  1  5  1  0
  2  1  1  0
  3  2  1  0
  3  4  1  0
  4  5  1  0
  6  7  1  0
  6  2  1  0
  6 11  1  0
  8  9  1  0
  8  7  1  0
  9 10  1  0
 10 11  1  0
 11 12  1  0
 12 13  1  0
 12 14  1  0
 15  1  1  0
 15 16  2  0
 17 16  1  0
 18 17  2  0
 19 20  2  0
 19 18  1  0
 20 15  1  0
  1 21  1  1
  2 22  1  6
  3 23  1  0
  3 24  1  0
  4 25  1  0
  4 26  1  0
  5 27  1  0
  5 28  1  0
  7 29  1  0
  7 30  1  0
  8 31  1  0
  8 32  1  0
  9 33  1  0
  9 34  1  0
 10 35  1  0
 10 36  1  0
 11 37  1  1
 12 38  1  0
 13 39  1  0
 13 40  1  0
 13 41  1  0
 14 42  1  0
 14 43  1  0
 14 44  1  0
 16 45  1  0
 17 46  1  0
 19 47  1  0
M  ISO  8  21  13  22  13  23  13  24  13  25  13  26  13  27  13  28  13
M  ISO  8  29  13  30  13  31  13  32  13  33  13  34  13  35  13  36  13
M  ISO  8  37  13  38   8  39   8  40   8  41   8  42   8  43   8  44   8
M  ISO  3  45  14  46  14  47  14
M  END
>  <minimizedAffinity>  (1) 
-4.7934556

>  <minimizedRMSD>  (1) 
1.5145874

$$$$
