
     RDKit          3D

 36 38  0  0  0  0  0  0  0  0999 V2000
   37.7750   25.0650   32.4730 C   0  0  0  0  0  0  0  0  0  0  0  0
   36.9340   26.0610   32.0190 C   0  0  0  0  0  0  0  0  0  0  0  0
   35.7620   25.6300   31.4510 C   0  0  0  0  0  0  0  0  0  0  0  0
   35.4510   24.3150   31.3410 N   0  0  0  0  0  0  0  0  0  0  0  0
   36.2800   23.3910   31.7870 C   0  0  0  0  0  0  0  0  0  0  0  0
   37.4590   23.7670   32.3600 N   0  0  0  0  0  0  0  0  0  0  0  0
   40.9620   24.8970   34.2660 C   0  0  0  0  0  0  0  0  0  0  0  0
   41.4450   26.2130   34.2500 C   0  0  0  0  0  0  0  0  0  0  0  0
   40.6230   27.1110   33.6040 C   0  0  0  0  0  0  0  0  0  0  0  0
   39.4610   26.7230   33.0470 N   0  0  0  0  0  0  0  0  0  0  0  0
   39.0400   25.4410   33.0890 C   0  0  0  0  0  0  0  0  0  0  0  0
   39.8190   24.5440   33.7110 N   0  0  0  0  0  0  0  0  0  0  0  0
   42.6810   26.5930   34.8490 N   0  0  0  0  0  0  0  0  0  0  0  0
   43.8490   26.9420   34.1450 C   0  0  0  0  0  0  0  0  0  0  0  0
   44.0930   26.2500   33.0510 N   0  0  0  0  0  0  0  0  0  0  0  0
   44.6370   28.0170   34.7080 N   0  0  0  0  0  0  0  0  0  0  0  0
   44.9280   26.4100   32.4840 H   0  0  0  0  0  0  0  0  0  0  0  0
   35.9480   21.9690   31.6700 C   0  0  0  0  0  0  0  0  0  0  0  0
   34.9810   21.4210   32.5070 C   0  0  0  0  0  0  0  0  0  0  0  0
   34.7780   20.0790   32.2790 C   0  0  0  0  0  0  0  0  0  0  0  0
   35.4360   19.3430   31.3460 N   0  0  0  0  0  0  0  0  0  0  0  0
   36.3600   19.9660   30.5810 C   0  0  0  0  0  0  0  0  0  0  0  0
   36.6200   21.2640   30.7330 N   0  0  0  0  0  0  0  0  0  0  0  0
   37.0960   19.1850   29.5520 C   0  0  0  0  0  0  0  0  0  0  0  0
   37.4520   17.9450   30.0120 F   0  0  0  0  0  0  0  0  0  0  0  0
   38.1990   19.9320   29.1640 F   0  0  0  0  0  0  0  0  0  0  0  0
   36.2880   19.0610   28.4190 F   0  0  0  0  0  0  0  0  0  0  0  0
   37.1865   27.1280   32.1067 H   0  0  0  0  0  0  0  0  0  0  0  0
   35.0497   26.3774   31.0716 H   0  0  0  0  0  0  0  0  0  0  0  0
   41.5642   24.1232   34.7645 H   0  0  0  0  0  0  0  0  0  0  0  0
   40.9231   28.1675   33.5424 H   0  0  0  0  0  0  0  0  0  0  0  0
   42.7230   26.6139   35.8779 H   0  0  0  0  0  0  0  0  0  0  0  0
   45.5033   28.3200   34.2404 H   0  0  0  0  0  0  0  0  0  0  0  0
   44.3316   28.4792   35.5763 H   0  0  0  0  0  0  0  0  0  0  0  0
   34.4371   21.9984   33.2691 H   0  0  0  0  0  0  0  0  0  0  0  0
   34.0279   19.5647   32.8977 H   0  0  0  0  0  0  0  0  0  0  0  0
  1 11  1  0
  2  1  2  0
  3  2  1  0
  4  3  2  0
  4  5  1  0
  5  6  2  0
  6  1  1  0
  8  7  2  0
  8 13  1  0
  9  8  1  0
 10 11  1  0
 10  9  2  0
 11 12  2  0
 12  7  1  0
 14 16  1  0
 14 13  1  0
 15 14  2  0
 17 15  1  0
 18  5  1  0
 18 19  2  0
 20 19  1  0
 21 20  2  0
 22 23  2  0
 22 21  1  0
 23 18  1  0
 24 25  1  0
 24 22  1  0
 26 24  1  0
 27 24  1  0
  2 28  1  0
  3 29  1  0
  7 30  1  0
  9 31  1  0
 13 32  1  0
 16 33  1  0
 16 34  1  0
 19 35  1  0
 20 36  1  0
M  ISO  6  28  14  29  14  30  14  31  14  35  14  36  14
M  END
>  <minimizedAffinity>  (1) 
-5.62710094

>  <minimizedRMSD>  (1) 
0.790473104

$$$$
