
     RDKit          3D

 48 51  0  0  1  0  0  0  0  0999 V2000
   42.8850   23.1900   35.0080 N   0  0  0  0  0  0  0  0  0  0  0  0
   42.4430   24.5490   34.8770 C   0  0  0  0  0  0  0  0  0  0  0  0
   43.4680   25.5770   35.2270 C   0  0  0  0  0  0  0  0  0  0  0  0
   44.2020   25.3500   36.5000 C   0  0  0  0  0  0  0  0  0  0  0  0
   44.2450   23.8750   36.7640 C   0  0  0  0  0  0  0  0  0  0  0  0
   44.1650   23.0830   35.5300 C   0  0  2  0  0  0  0  0  0  0  0  0
   41.4520   22.4340   36.8510 C   0  0  2  0  0  0  0  0  0  0  0  0
   41.8520   22.3720   35.4360 C   0  0  2  0  0  0  0  0  0  0  0  0
   42.2600   20.9390   35.2720 C   0  0  0  0  0  0  0  0  0  0  0  0
   42.7660   20.5330   36.5710 C   0  0  0  0  0  0  0  0  0  0  0  0
   41.9170   21.2550   37.5920 C   0  0  0  0  0  0  0  0  0  0  0  0
   39.9730   22.6100   36.9640 C   0  0  0  0  0  0  0  0  0  0  0  0
   39.3960   23.1680   38.1440 C   0  0  0  0  0  0  0  0  0  0  0  0
   38.0020   23.3440   38.1330 C   0  0  0  0  0  0  0  0  0  0  0  0
   37.3220   22.9750   37.0180 N   0  0  0  0  0  0  0  0  0  0  0  0
   37.9300   22.4440   35.9170 C   0  0  0  0  0  0  0  0  0  0  0  0
   39.2590   22.2640   35.8960 N   0  0  0  0  0  0  0  0  0  0  0  0
   45.1370   23.5420   34.4930 C   0  0  0  0  0  0  0  0  0  0  0  0
   46.4150   23.8030   35.0140 C   0  0  0  0  0  0  0  0  0  0  0  0
   47.4630   24.2550   34.2450 C   0  0  0  0  0  0  0  0  0  0  0  0
   47.3070   24.4760   32.9150 C   0  0  0  0  0  0  0  0  0  0  0  0
   46.0570   24.2230   32.3900 C   0  0  0  0  0  0  0  0  0  0  0  0
   44.9950   23.7700   33.1470 C   0  0  0  0  0  0  0  0  0  0  0  0
   42.1388   24.7108   33.8323 H   0  0  0  0  0  0  0  0  0  0  0  0
   41.6185   24.6771   35.5937 H   0  0  0  0  0  0  0  0  0  0  0  0
   44.2065   25.6086   34.4124 H   0  0  0  0  0  0  0  0  0  0  0  0
   42.9140   26.5173   35.3645 H   0  0  0  0  0  0  0  0  0  0  0  0
   45.2261   25.7421   36.4135 H   0  0  0  0  0  0  0  0  0  0  0  0
   43.6940   25.8676   37.3270 H   0  0  0  0  0  0  0  0  0  0  0  0
   45.1880   23.6353   37.2771 H   0  0  0  0  0  0  0  0  0  0  0  0
   43.3728   23.6196   37.3837 H   0  0  0  0  0  0  0  0  0  0  0  0
   44.4104   22.0426   35.7895 H   0  0  0  0  0  0  0  0  0  0  0  0
   41.9353   23.3093   37.3095 H   0  0  0  0  0  0  0  0  0  0  0  0
   41.0128   22.7359   34.8250 H   0  0  0  0  0  0  0  0  0  0  0  0
   41.3951   20.3226   34.9857 H   0  0  0  0  0  0  0  0  0  0  0  0
   43.0147   20.8157   34.4813 H   0  0  0  0  0  0  0  0  0  0  0  0
   42.6704   19.4442   36.6954 H   0  0  0  0  0  0  0  0  0  0  0  0
   43.8316   20.7814   36.6844 H   0  0  0  0  0  0  0  0  0  0  0  0
   42.5139   21.5476   38.4684 H   0  0  0  0  0  0  0  0  0  0  0  0
   41.0973   20.6396   37.9911 H   0  0  0  0  0  0  0  0  0  0  0  0
   40.0089   23.4451   39.0144 H   0  0  0  0  0  0  0  0  0  0  0  0
   37.4776   23.7681   39.0020 H   0  0  0  0  0  0  0  0  0  0  0  0
   37.3263   22.1621   35.0418 H   0  0  0  0  0  0  0  0  0  0  0  0
   46.5864   23.6382   36.0880 H   0  0  0  0  0  0  0  0  0  0  0  0
   48.4404   24.4397   34.7147 H   0  0  0  0  0  0  0  0  0  0  0  0
   48.1350   24.8383   32.2880 H   0  0  0  0  0  0  0  0  0  0  0  0
   45.8983   24.3905   31.3145 H   0  0  0  0  0  0  0  0  0  0  0  0
   44.0227   23.5895   32.6653 H   0  0  0  0  0  0  0  0  0  0  0  0
  1  2  1  0
  1  8  1  0
  1  6  1  0
  2  3  1  0
  3  4  1  0
  4  5  1  0
  6  5  1  0
  7 12  1  0
  7 11  1  0
  8  7  1  0
  9  8  1  0
  9 10  1  0
 10 11  1  0
 12 13  2  0
 14 13  1  0
 15 14  2  0
 16 15  1  0
 17 16  2  0
 17 12  1  0
 18 19  2  0
 18  6  1  0
 20 19  1  0
 21 20  2  0
 22 21  1  0
 22 23  2  0
 23 18  1  0
  2 24  1  0
  2 25  1  0
  3 26  1  0
  3 27  1  0
  4 28  1  0
  4 29  1  0
  5 30  1  0
  5 31  1  0
  6 32  1  1
  7 33  1  1
  8 34  1  6
  9 35  1  0
  9 36  1  0
 10 37  1  0
 10 38  1  0
 11 39  1  0
 11 40  1  0
 13 41  1  0
 14 42  1  0
 16 43  1  0
 19 44  1  0
 20 45  1  0
 21 46  1  0
 22 47  1  0
 23 48  1  0
M  ISO  8  24  13  25  13  26  13  27  13  28  13  29  13  30  13  31  13
M  ISO  8  32  13  33  13  34  13  35  13  36  13  37  13  38  13  39  13
M  ISO  8  40  13  41  14  42  14  43  14  44  14  45  14  46  14  47  14
M  ISO  1  48  14
M  END
>  <minimizedAffinity>  (1) 
-4.57952738

>  <minimizedRMSD>  (1) 
0.144176587

$$$$
