
     RDKit          3D

 42 44  0  0  0  0  0  0  0  0999 V2000
   37.8750   25.1270   32.4910 C   0  0  0  0  0  0  0  0  0  0  0  0
   37.0240   26.1240   32.0850 C   0  0  0  0  0  0  0  0  0  0  0  0
   35.8490   25.6970   31.5250 C   0  0  0  0  0  0  0  0  0  0  0  0
   35.5430   24.3900   31.3800 N   0  0  0  0  0  0  0  0  0  0  0  0
   36.3980   23.4540   31.7900 C   0  0  0  0  0  0  0  0  0  0  0  0
   37.5940   23.8110   32.3590 N   0  0  0  0  0  0  0  0  0  0  0  0
   41.0880   24.9330   34.2760 C   0  0  0  0  0  0  0  0  0  0  0  0
   41.5760   26.2560   34.2330 C   0  0  0  0  0  0  0  0  0  0  0  0
   40.7620   27.1600   33.5840 C   0  0  0  0  0  0  0  0  0  0  0  0
   39.5940   26.7560   33.0440 N   0  0  0  0  0  0  0  0  0  0  0  0
   39.1520   25.4850   33.1000 C   0  0  0  0  0  0  0  0  0  0  0  0
   39.9340   24.5940   33.7280 N   0  0  0  0  0  0  0  0  0  0  0  0
   42.8150   26.6230   34.8190 N   0  0  0  0  0  0  0  0  0  0  0  0
   43.9690   27.0100   34.1180 C   0  0  0  0  0  0  0  0  0  0  0  0
   44.2100   26.3410   32.9900 N   0  0  0  0  0  0  0  0  0  0  0  0
   44.7530   28.0850   34.7030 N   0  0  0  0  0  0  0  0  0  0  0  0
   45.0220   26.5730   32.4080 H   0  0  0  0  0  0  0  0  0  0  0  0
   36.0700   22.0370   31.6350 C   0  0  0  0  0  0  0  0  0  0  0  0
   35.0190   21.5010   32.3690 C   0  0  0  0  0  0  0  0  0  0  0  0
   34.8170   20.1660   32.1310 C   0  0  0  0  0  0  0  0  0  0  0  0
   35.5450   19.4150   31.2760 N   0  0  0  0  0  0  0  0  0  0  0  0
   36.5640   20.0250   30.5930 C   0  0  0  0  0  0  0  0  0  0  0  0
   36.8050   21.3170   30.7840 N   0  0  0  0  0  0  0  0  0  0  0  0
   37.3920   19.2350   29.6420 C   0  0  0  0  0  0  0  0  0  0  0  0
   36.6120   18.7640   28.4500 C   0  0  0  0  0  0  0  0  0  0  0  0
   38.6230   20.0440   29.2150 C   0  0  0  0  0  0  0  0  0  0  0  0
   37.2680   27.1903   32.2010 H   0  0  0  0  0  0  0  0  0  0  0  0
   35.1252   26.4497   31.1793 H   0  0  0  0  0  0  0  0  0  0  0  0
   41.6861   24.1601   34.7809 H   0  0  0  0  0  0  0  0  0  0  0  0
   41.0662   28.2142   33.5064 H   0  0  0  0  0  0  0  0  0  0  0  0
   42.8732   26.6040   35.8472 H   0  0  0  0  0  0  0  0  0  0  0  0
   45.6098   28.4117   34.2339 H   0  0  0  0  0  0  0  0  0  0  0  0
   44.4518   28.5201   35.5866 H   0  0  0  0  0  0  0  0  0  0  0  0
   34.4098   22.0892   33.0711 H   0  0  0  0  0  0  0  0  0  0  0  0
   34.0013   19.6694   32.6769 H   0  0  0  0  0  0  0  0  0  0  0  0
   37.7250   18.3292   30.1698 H   0  0  0  0  0  0  0  0  0  0  0  0
   35.7161   18.2230   28.7885 H   0  0  0  0  0  0  0  0  0  0  0  0
   36.3098   19.6307   27.8438 H   0  0  0  0  0  0  0  0  0  0  0  0
   37.2383   18.0930   27.8438 H   0  0  0  0  0  0  0  0  0  0  0  0
   39.1586   20.3960   30.1090 H   0  0  0  0  0  0  0  0  0  0  0  0
   39.2899   19.4076   28.6149 H   0  0  0  0  0  0  0  0  0  0  0  0
   38.3034   20.9087   28.6149 H   0  0  0  0  0  0  0  0  0  0  0  0
  1 11  1  0
  2  1  2  0
  3  2  1  0
  4  3  2  0
  4  5  1  0
  5  6  2  0
  6  1  1  0
  8  7  2  0
  8 13  1  0
  9  8  1  0
 10 11  1  0
 10  9  2  0
 11 12  2  0
 12  7  1  0
 14 16  1  0
 14 13  1  0
 15 14  2  0
 17 15  1  0
 18  5  1  0
 18 19  2  0
 20 19  1  0
 21 20  2  0
 22 23  2  0
 22 21  1  0
 23 18  1  0
 24 22  1  0
 25 24  1  0
 26 24  1  0
  2 27  1  0
  3 28  1  0
  7 29  1  0
  9 30  1  0
 13 31  1  0
 16 32  1  0
 16 33  1  0
 19 34  1  0
 20 35  1  0
 24 36  1  0
 25 37  1  0
 25 38  1  0
 25 39  1  0
 26 40  1  0
 26 41  1  0
 26 42  1  0
M  ISO  8  27  14  28  14  29  14  30  14  34  14  35  14  36   8  37   8
M  ISO  5  38   8  39   8  40   8  41   8  42   8
M  END
>  <minimizedAffinity>  (1) 
-5.55460882

>  <minimizedRMSD>  (1) 
0.869707048

$$$$
