
     RDKit          3D

 44 46  0  0  1  0  0  0  0  0999 V2000
   41.3520   22.4820   37.0340 C   0  0  2  0  0  0  0  0  0  0  0  0
   41.8450   22.5510   35.6480 C   0  0  2  0  0  0  0  0  0  0  0  0
   42.2880   21.1500   35.3840 C   0  0  0  0  0  0  0  0  0  0  0  0
   42.6840   20.6110   36.6620 C   0  0  0  0  0  0  0  0  0  0  0  0
   41.8000   21.2530   37.6860 C   0  0  0  0  0  0  0  0  0  0  0  0
   42.9110   23.4040   35.3570 N   0  0  0  0  0  0  0  0  0  0  0  0
   43.2590   23.2680   33.9510 C   0  0  0  0  0  0  0  0  0  0  0  0
   43.7020   24.5300   33.2840 C   0  0  0  0  0  0  0  0  0  0  0  0
   42.9060   25.7350   33.5820 C   0  0  0  0  0  0  0  0  0  0  0  0
   42.1700   25.5640   34.8770 C   0  0  0  0  0  0  0  0  0  0  0  0
   42.9330   24.7010   35.7840 C   0  0  2  0  0  0  0  0  0  0  0  0
   44.2990   25.3030   36.1350 C   0  0  0  0  0  0  0  0  0  0  0  0
   45.0950   24.4140   37.0450 C   0  0  0  0  0  0  0  0  0  0  0  0
   39.8680   22.6310   37.0750 C   0  0  0  0  0  0  0  0  0  0  0  0
   39.2300   23.2130   38.2180 C   0  0  0  0  0  0  0  0  0  0  0  0
   37.8320   23.3610   38.1310 C   0  0  0  0  0  0  0  0  0  0  0  0
   37.2110   22.9480   36.9950 N   0  0  0  0  0  0  0  0  0  0  0  0
   37.8790   22.4000   35.9380 C   0  0  0  0  0  0  0  0  0  0  0  0
   39.2120   22.2430   35.9860 N   0  0  0  0  0  0  0  0  0  0  0  0
   41.7798   23.3225   37.6001 H   0  0  0  0  0  0  0  0  0  0  0  0
   41.0369   22.9678   35.0290 H   0  0  0  0  0  0  0  0  0  0  0  0
   41.4612   20.5610   34.9604 H   0  0  0  0  0  0  0  0  0  0  0  0
   43.1152   21.1186   34.6596 H   0  0  0  0  0  0  0  0  0  0  0  0
   42.5478   19.5195   36.6729 H   0  0  0  0  0  0  0  0  0  0  0  0
   43.7451   20.8147   36.8683 H   0  0  0  0  0  0  0  0  0  0  0  0
   42.3624   21.4784   38.6041 H   0  0  0  0  0  0  0  0  0  0  0  0
   40.9661   20.6059   37.9957 H   0  0  0  0  0  0  0  0  0  0  0  0
   44.0755   22.5353   33.8711 H   0  0  0  0  0  0  0  0  0  0  0  0
   42.3388   22.9552   33.4359 H   0  0  0  0  0  0  0  0  0  0  0  0
   43.6684   24.3653   32.1969 H   0  0  0  0  0  0  0  0  0  0  0  0
   44.7081   24.7354   33.6785 H   0  0  0  0  0  0  0  0  0  0  0  0
   43.5766   26.6036   33.6575 H   0  0  0  0  0  0  0  0  0  0  0  0
   42.1768   25.8917   32.7735 H   0  0  0  0  0  0  0  0  0  0  0  0
   42.0276   26.5485   35.3465 H   0  0  0  0  0  0  0  0  0  0  0  0
   41.1938   25.0986   34.6758 H   0  0  0  0  0  0  0  0  0  0  0  0
   42.4380   24.6570   36.7654 H   0  0  0  0  0  0  0  0  0  0  0  0
   44.8669   25.4578   35.2057 H   0  0  0  0  0  0  0  0  0  0  0  0
   44.1235   26.2531   36.6609 H   0  0  0  0  0  0  0  0  0  0  0  0
   44.8700   24.6653   38.0920 H   0  0  0  0  0  0  0  0  0  0  0  0
   44.8301   23.3634   36.8550 H   0  0  0  0  0  0  0  0  0  0  0  0
   46.1684   24.5616   36.8550 H   0  0  0  0  0  0  0  0  0  0  0  0
   39.7964   23.5248   39.1079 H   0  0  0  0  0  0  0  0  0  0  0  0
   37.2580   23.7993   38.9607 H   0  0  0  0  0  0  0  0  0  0  0  0
   37.3228   22.0855   35.0426 H   0  0  0  0  0  0  0  0  0  0  0  0
  1 14  1  0
  1  5  1  0
  2  1  1  0
  3  2  1  0
  3  4  1  0
  4  5  1  0
  6  7  1  0
  6  2  1  0
  6 11  1  0
  8  9  1  0
  8  7  1  0
  9 10  1  0
 10 11  1  0
 11 12  1  0
 12 13  1  0
 14 15  2  0
 16 15  1  0
 17 16  2  0
 18 19  2  0
 18 17  1  0
 19 14  1  0
  1 20  1  1
  2 21  1  6
  3 22  1  0
  3 23  1  0
  4 24  1  0
  4 25  1  0
  5 26  1  0
  5 27  1  0
  7 28  1  0
  7 29  1  0
  8 30  1  0
  8 31  1  0
  9 32  1  0
  9 33  1  0
 10 34  1  0
 10 35  1  0
 11 36  1  1
 12 37  1  0
 12 38  1  0
 13 39  1  0
 13 40  1  0
 13 41  1  0
 15 42  1  0
 16 43  1  0
 18 44  1  0
M  ISO  8  20  13  21  13  22  13  23  13  24  13  25  13  26  13  27  13
M  ISO  8  28  13  29  13  30  13  31  13  32  13  33  13  34  13  35  13
M  ISO  8  36  13  37   8  38   8  39   8  40   8  41   8  42  14  43  14
M  ISO  1  44  14
M  END
>  <minimizedAffinity>  (1) 
-4.55700731

>  <minimizedRMSD>  (1) 
1.52102602

$$$$
