
     RDKit          3D

 34 36  0  0  0  0  0  0  0  0999 V2000
   40.8400   23.8540   35.6770 N   0  0  0  0  0  0  0  0  0  0  0  0
   41.3220   22.7190   36.4130 C   0  0  0  0  0  0  0  0  0  0  0  0
   40.4670   22.3300   37.5620 C   0  0  0  0  0  0  0  0  0  0  0  0
   39.0840   22.4720   37.2570 N   0  0  0  0  0  0  0  0  0  0  0  0
   38.5960   23.6980   36.7100 C   0  0  0  0  0  0  0  0  0  0  0  0
   39.5490   24.4270   35.8580 C   0  0  0  0  0  0  0  0  0  0  0  0
   41.6050   24.1880   33.3210 C   0  0  0  0  0  0  0  0  0  0  0  0
   41.6700   24.4610   34.7130 C   0  0  0  0  0  0  0  0  0  0  0  0
   42.6360   25.3940   35.1000 C   0  0  0  0  0  0  0  0  0  0  0  0
   43.4440   25.9810   34.1700 N   0  0  0  0  0  0  0  0  0  0  0  0
   43.3350   25.6780   32.8560 C   0  0  0  0  0  0  0  0  0  0  0  0
   42.4140   24.7830   32.4370 N   0  0  0  0  0  0  0  0  0  0  0  0
   38.9960   25.6000   35.3460 N   0  0  0  0  0  0  0  0  0  0  0  0
   37.9830   25.5300   34.2860 C   0  0  0  0  0  0  0  0  0  0  0  0
   37.0630   26.7120   34.4950 C   0  0  0  0  0  0  0  0  0  0  0  0
   37.8300   27.6620   35.4010 C   0  0  0  0  0  0  0  0  0  0  0  0
   39.1720   27.0010   35.5960 C   0  0  0  0  0  0  0  0  0  0  0  0
   41.3849   21.8632   35.7248 H   0  0  0  0  0  0  0  0  0  0  0  0
   42.2993   23.0046   36.8293 H   0  0  0  0  0  0  0  0  0  0  0  0
   40.6700   21.2798   37.8188 H   0  0  0  0  0  0  0  0  0  0  0  0
   40.7031   22.9935   38.4070 H   0  0  0  0  0  0  0  0  0  0  0  0
   38.4353   21.6910   37.4306 H   0  0  0  0  0  0  0  0  0  0  0  0
   37.5807   24.0705   36.9112 H   0  0  0  0  0  0  0  0  0  0  0  0
   40.8634   23.4618   32.9567 H   0  0  0  0  0  0  0  0  0  0  0  0
   42.7458   25.6572   36.1624 H   0  0  0  0  0  0  0  0  0  0  0  0
   43.9994   26.1627   32.1255 H   0  0  0  0  0  0  0  0  0  0  0  0
   37.4173   24.5897   34.3620 H   0  0  0  0  0  0  0  0  0  0  0  0
   38.4469   25.5575   33.2890 H   0  0  0  0  0  0  0  0  0  0  0  0
   36.8338   27.1965   33.5344 H   0  0  0  0  0  0  0  0  0  0  0  0
   36.1017   26.4105   34.9367 H   0  0  0  0  0  0  0  0  0  0  0  0
   37.9473   28.6454   34.9223 H   0  0  0  0  0  0  0  0  0  0  0  0
   37.3104   27.8406   36.3539 H   0  0  0  0  0  0  0  0  0  0  0  0
   39.5233   27.1586   36.6264 H   0  0  0  0  0  0  0  0  0  0  0  0
   39.9203   27.4283   34.9122 H   0  0  0  0  0  0  0  0  0  0  0  0
  1  6  1  0
  1  2  1  0
  2  3  1  0
  4  3  1  0
  5  4  1  0
  6  5  2  0
  7  8  2  0
  8  9  1  0
  8  1  1  0
 10  9  2  0
 11 10  1  0
 12 11  2  0
 12  7  1  0
 13 17  1  0
 13  6  1  0
 14 15  1  0
 14 13  1  0
 15 16  1  0
 16 17  1  0
  2 18  1  0
  2 19  1  0
  3 20  1  0
  3 21  1  0
  4 22  1  0
  5 23  1  0
  7 24  1  0
  9 25  1  0
 11 26  1  0
 14 27  1  0
 14 28  1  0
 15 29  1  0
 15 30  1  0
 16 31  1  0
 16 32  1  0
 17 33  1  0
 17 34  1  0
M  ISO  8  18  13  19  13  20  13  21  13  23  13  24  14  25  14  26  14
M  ISO  8  27  13  28  13  29  13  30  13  31  13  32  13  33  13  34  13
M  END
>  <minimizedAffinity>  (1) 
-4.12439871

>  <minimizedRMSD>  (1) 
4.03055716

$$$$
