
     RDKit          3D

 29 30  0  0  0  0  0  0  0  0999 V2000
   39.6570   24.0180   35.8090 N   0  0  0  0  0  0  0  0  0  0  0  0
   40.1960   23.0940   36.7740 C   0  0  0  0  0  0  0  0  0  0  0  0
   39.4280   23.0400   38.0460 C   0  0  0  0  0  0  0  0  0  0  0  0
   38.0240   23.0580   37.7950 N   0  0  0  0  0  0  0  0  0  0  0  0
   37.4730   24.0950   36.9750 C   0  0  0  0  0  0  0  0  0  0  0  0
   38.3590   24.5920   35.9200 C   0  0  0  0  0  0  0  0  0  0  0  0
   40.3060   23.7740   33.4190 C   0  0  0  0  0  0  0  0  0  0  0  0
   40.4260   24.3950   34.6870 C   0  0  0  0  0  0  0  0  0  0  0  0
   41.3670   25.4250   34.7740 C   0  0  0  0  0  0  0  0  0  0  0  0
   42.1040   25.7870   33.6930 N   0  0  0  0  0  0  0  0  0  0  0  0
   41.9480   25.1600   32.5040 C   0  0  0  0  0  0  0  0  0  0  0  0
   41.0520   24.1580   32.3660 N   0  0  0  0  0  0  0  0  0  0  0  0
   37.7980   25.5890   35.1360 N   0  0  0  0  0  0  0  0  0  0  0  0
   37.8120   26.9930   35.4450 C   0  0  0  0  0  0  0  0  0  0  0  0
   38.7230   27.3840   36.2910 N   0  0  0  0  0  0  0  0  0  0  0  0
   36.7960   27.7470   34.7560 N   0  0  0  0  0  0  0  0  0  0  0  0
   38.7080   28.4160   36.4970 H   0  0  0  0  0  0  0  0  0  0  0  0
   40.1991   22.0886   36.3276 H   0  0  0  0  0  0  0  0  0  0  0  0
   41.2076   23.4459   37.0248 H   0  0  0  0  0  0  0  0  0  0  0  0
   39.6858   22.1154   38.5832 H   0  0  0  0  0  0  0  0  0  0  0  0
   39.6879   23.9214   38.6507 H   0  0  0  0  0  0  0  0  0  0  0  0
   37.4134   22.3335   38.1989 H   0  0  0  0  0  0  0  0  0  0  0  0
   36.4575   24.4897   37.1267 H   0  0  0  0  0  0  0  0  0  0  0  0
   39.5829   22.9550   33.2913 H   0  0  0  0  0  0  0  0  0  0  0  0
   41.5121   25.9487   35.7304 H   0  0  0  0  0  0  0  0  0  0  0  0
   42.5566   25.4690   31.6414 H   0  0  0  0  0  0  0  0  0  0  0  0
   37.3343   25.3006   34.2627 H   0  0  0  0  0  0  0  0  0  0  0  0
   36.7180   28.7630   34.9060 H   0  0  0  0  0  0  0  0  0  0  0  0
   36.1476   27.2700   34.1134 H   0  0  0  0  0  0  0  0  0  0  0  0
  1  6  1  0
  1  2  1  0
  2  3  1  0
  4  3  1  0
  5  4  1  0
  6  5  2  0
  7  8  2  0
  8  9  1  0
  8  1  1  0
 10  9  2  0
 11 10  1  0
 12 11  2  0
 12  7  1  0
 13 14  1  0
 13  6  1  0
 14 15  2  0
 15 17  1  0
 16 14  1  0
  2 18  1  0
  2 19  1  0
  3 20  1  0
  3 21  1  0
  4 22  1  0
  5 23  1  0
  7 24  1  0
  9 25  1  0
 11 26  1  0
 13 27  1  0
 16 28  1  0
 16 29  1  0
M  ISO  8  18  13  19  13  20  13  21  13  23  13  24  14  25  14  26  14
M  END
>  <minimizedAffinity>  (1) 
-4.15454102

>  <minimizedRMSD>  (1) 
3.4733305

$$$$
