
     RDKit          3D

 37 40  0  0  1  0  0  0  0  0999 V2000
   40.1980   23.9330   35.7400 N   0  0  0  0  0  0  0  0  0  0  0  0
   40.5650   22.8530   36.6530 C   0  0  0  0  0  0  0  0  0  0  0  0
   39.7250   22.8030   37.8890 C   0  0  0  0  0  0  0  0  0  0  0  0
   38.3720   23.0520   37.5820 N   0  0  0  0  0  0  0  0  0  0  0  0
   38.0060   24.2030   36.8160 C   0  0  0  0  0  0  0  0  0  0  0  0
   38.9840   24.6440   35.8370 C   0  0  0  0  0  0  0  0  0  0  0  0
   41.0610   23.7800   33.4150 C   0  0  0  0  0  0  0  0  0  0  0  0
   41.0950   24.2920   34.7270 C   0  0  0  0  0  0  0  0  0  0  0  0
   42.1170   25.2260   34.9930 C   0  0  0  0  0  0  0  0  0  0  0  0
   43.0090   25.6070   34.0460 N   0  0  0  0  0  0  0  0  0  0  0  0
   42.9250   25.0780   32.8010 C   0  0  0  0  0  0  0  0  0  0  0  0
   41.9660   24.1810   32.4960 N   0  0  0  0  0  0  0  0  0  0  0  0
   38.5280   25.7740   35.0320 C   0  0  2  0  0  0  0  0  0  0  0  0
   38.9570   27.1160   35.6610 C   0  0  0  0  0  0  0  0  0  0  0  0
   37.5340   26.7630   35.3990 C   0  0  1  0  0  0  0  0  0  0  0  0
   36.8360   27.4550   34.2800 C   0  0  0  0  0  0  0  0  0  0  0  0
   36.9150   26.9050   33.0110 C   0  0  0  0  0  0  0  0  0  0  0  0
   36.2810   27.5260   31.9700 C   0  0  0  0  0  0  0  0  0  0  0  0
   35.5730   28.6670   32.1400 N   0  0  0  0  0  0  0  0  0  0  0  0
   35.5170   29.1760   33.3890 C   0  0  0  0  0  0  0  0  0  0  0  0
   36.1330   28.5770   34.4140 N   0  0  0  0  0  0  0  0  0  0  0  0
   40.4580   21.8963   36.1208 H   0  0  0  0  0  0  0  0  0  0  0  0
   41.6005   23.0396   36.9739 H   0  0  0  0  0  0  0  0  0  0  0  0
   39.8141   21.8065   38.3461 H   0  0  0  0  0  0  0  0  0  0  0  0
   40.0773   23.5761   38.5877 H   0  0  0  0  0  0  0  0  0  0  0  0
   37.6437   22.4021   37.9108 H   0  0  0  0  0  0  0  0  0  0  0  0
   37.0460   24.7207   36.9591 H   0  0  0  0  0  0  0  0  0  0  0  0
   40.2900   23.0466   33.1363 H   0  0  0  0  0  0  0  0  0  0  0  0
   42.1930   25.6594   36.0012 H   0  0  0  0  0  0  0  0  0  0  0  0
   43.6478   25.3842   32.0304 H   0  0  0  0  0  0  0  0  0  0  0  0
   38.6008   25.1809   34.1084 H   0  0  0  0  0  0  0  0  0  0  0  0
   39.3425   27.1516   36.6906 H   0  0  0  0  0  0  0  0  0  0  0  0
   39.6340   27.9398   35.3908 H   0  0  0  0  0  0  0  0  0  0  0  0
   36.6357   26.7482   36.0338 H   0  0  0  0  0  0  0  0  0  0  0  0
   37.4821   25.9777   32.8421 H   0  0  0  0  0  0  0  0  0  0  0  0
   36.3486   27.0849   30.9646 H   0  0  0  0  0  0  0  0  0  0  0  0
   34.9527   30.1032   33.5676 H   0  0  0  0  0  0  0  0  0  0  0  0
  1  6  1  0
  1  2  1  0
  2  3  1  0
  4  3  1  0
  5  4  1  0
  6  5  2  0
  7  8  2  0
  8  9  1  0
  8  1  1  0
 10  9  2  0
 11 10  1  0
 12 11  2  0
 12  7  1  0
 13 15  1  0
 13 14  1  0
 13  6  1  0
 15 14  1  0
 16 21  1  0
 16 15  1  0
 17 16  2  0
 18 19  2  0
 18 17  1  0
 19 20  1  0
 20 21  2  0
  2 22  1  0
  2 23  1  0
  3 24  1  0
  3 25  1  0
  4 26  1  0
  5 27  1  0
  7 28  1  0
  9 29  1  0
 11 30  1  0
 13 31  1  6
 14 32  1  0
 14 33  1  0
 15 34  1  1
 17 35  1  0
 18 36  1  0
 20 37  1  0
M  ISO  8  22  13  23  13  24  13  25  13  27  13  28  14  29  14  30  14
M  ISO  7  31  13  32  13  33  13  34  13  35  14  36  14  37  14
M  END
>  <minimizedAffinity>  (1) 
-4.99632645

>  <minimizedRMSD>  (1) 
5.60957718

$$$$
