
     RDKit          3D

 41 44  0  0  1  0  0  0  0  0999 V2000
   40.9610   22.4020   35.3790 N   0  0  0  0  0  0  0  0  0  0  0  0
   41.9940   21.3730   35.4630 C   0  0  0  0  0  0  0  0  0  0  0  0
   42.4850   21.1220   36.8500 C   0  0  0  0  0  0  0  0  0  0  0  0
   41.4260   21.1660   37.7780 N   0  0  0  0  0  0  0  0  0  0  0  0
   40.5120   22.2670   37.7890 C   0  0  0  0  0  0  0  0  0  0  0  0
   40.2720   22.8960   36.5060 C   0  0  0  0  0  0  0  0  0  0  0  0
   39.7350   22.3580   33.2160 C   0  0  0  0  0  0  0  0  0  0  0  0
   40.6470   22.9370   34.1230 C   0  0  0  0  0  0  0  0  0  0  0  0
   41.2610   24.1350   33.7020 C   0  0  0  0  0  0  0  0  0  0  0  0
   40.9840   24.6890   32.4940 N   0  0  0  0  0  0  0  0  0  0  0  0
   40.1020   24.0900   31.6690 C   0  0  0  0  0  0  0  0  0  0  0  0
   39.4920   22.9490   32.0240 N   0  0  0  0  0  0  0  0  0  0  0  0
   39.2690   23.9570   36.5660 C   0  0  2  0  0  0  0  0  0  0  0  0
   37.8890   23.3900   36.9810 C   0  0  0  0  0  0  0  0  0  0  0  0
   38.1160   24.1210   35.7060 C   0  0  1  0  0  0  0  0  0  0  0  0
   37.5470   25.4480   35.5470 N   0  0  0  0  0  0  0  0  0  0  0  0
   37.4950   25.9110   34.1960 C   0  0  0  0  0  0  0  0  0  0  0  0
   37.1550   27.3940   34.4040 C   0  0  0  0  0  0  0  0  0  0  0  0
   38.1480   27.7380   35.4990 C   0  0  0  0  0  0  0  0  0  0  0  0
   38.1850   26.4570   36.3350 C   0  0  0  0  0  0  0  0  0  0  0  0
   41.5807   20.4339   35.0665 H   0  0  0  0  0  0  0  0  0  0  0  0
   42.8538   21.7348   34.8801 H   0  0  0  0  0  0  0  0  0  0  0  0
   42.9569   20.1292   36.8900 H   0  0  0  0  0  0  0  0  0  0  0  0
   43.2114   21.9058   37.1110 H   0  0  0  0  0  0  0  0  0  0  0  0
   41.3085   20.3986   38.4549 H   0  0  0  0  0  0  0  0  0  0  0  0
   40.0233   22.6133   38.7116 H   0  0  0  0  0  0  0  0  0  0  0  0
   39.2196   21.4225   33.4791 H   0  0  0  0  0  0  0  0  0  0  0  0
   41.9814   24.6322   34.3683 H   0  0  0  0  0  0  0  0  0  0  0  0
   39.8794   24.5428   30.6916 H   0  0  0  0  0  0  0  0  0  0  0  0
   40.0298   24.7009   36.8450 H   0  0  0  0  0  0  0  0  0  0  0  0
   37.7073   22.3051   36.9779 H   0  0  0  0  0  0  0  0  0  0  0  0
   37.2159   23.4885   37.8454 H   0  0  0  0  0  0  0  0  0  0  0  0
   37.9179   23.8784   34.6515 H   0  0  0  0  0  0  0  0  0  0  0  0
   38.4633   25.7863   33.6892 H   0  0  0  0  0  0  0  0  0  0  0  0
   36.7809   25.3683   33.5591 H   0  0  0  0  0  0  0  0  0  0  0  0
   37.3301   27.9851   33.4930 H   0  0  0  0  0  0  0  0  0  0  0  0
   36.1027   27.5991   34.6502 H   0  0  0  0  0  0  0  0  0  0  0  0
   39.1386   27.9660   35.0787 H   0  0  0  0  0  0  0  0  0  0  0  0
   37.8666   28.6294   36.0789 H   0  0  0  0  0  0  0  0  0  0  0  0
   37.6419   26.6028   37.2804 H   0  0  0  0  0  0  0  0  0  0  0  0
   39.2170   26.1740   36.5896 H   0  0  0  0  0  0  0  0  0  0  0  0
  1  2  1  0
  1  6  1  0
  2  3  1  0
  3  4  1  0
  4  5  1  0
  6 13  1  0
  6  5  2  0
  7  8  2  0
  8  1  1  0
  9  8  1  0
 10  9  2  0
 11 12  2  0
 11 10  1  0
 12  7  1  0
 13 14  1  0
 15 13  1  0
 15 14  1  0
 16 17  1  0
 16 15  1  0
 16 20  1  0
 17 18  1  0
 18 19  1  0
 19 20  1  0
  2 21  1  0
  2 22  1  0
  3 23  1  0
  3 24  1  0
  4 25  1  0
  5 26  1  0
  7 27  1  0
  9 28  1  0
 11 29  1  0
 13 30  1  1
 14 31  1  0
 14 32  1  0
 15 33  1  6
 17 34  1  0
 17 35  1  0
 18 36  1  0
 18 37  1  0
 19 38  1  0
 19 39  1  0
 20 40  1  0
 20 41  1  0
M  ISO  8  21  13  22  13  23  13  24  13  26  13  27  14  28  14  29  14
M  ISO  8  30  13  31  13  32  13  33  13  34  13  35  13  36  13  37  13
M  ISO  4  38  13  39  13  40  13  41  13
M  END
>  <minimizedAffinity>  (1) 
-4.46869564

>  <minimizedRMSD>  (1) 
4.46700525

$$$$
