
     RDKit          3D

 36 39  0  0  1  0  0  0  0  0999 V2000
   39.7510   23.7710   36.1530 N   0  0  0  0  0  0  0  0  0  0  0  0
   39.9610   22.8030   37.2230 C   0  0  0  0  0  0  0  0  0  0  0  0
   39.1470   23.0880   38.4480 C   0  0  0  0  0  0  0  0  0  0  0  0
   37.8400   23.4810   38.0920 N   0  0  0  0  0  0  0  0  0  0  0  0
   37.6350   24.5290   37.1460 C   0  0  0  0  0  0  0  0  0  0  0  0
   38.6580   24.6600   36.1160 C   0  0  0  0  0  0  0  0  0  0  0  0
   40.5500   23.1850   33.8700 C   0  0  0  0  0  0  0  0  0  0  0  0
   40.6850   23.8350   35.1130 C   0  0  0  0  0  0  0  0  0  0  0  0
   41.8660   24.5930   35.2640 C   0  0  0  0  0  0  0  0  0  0  0  0
   42.7980   24.6860   34.2870 N   0  0  0  0  0  0  0  0  0  0  0  0
   42.6060   24.0350   33.1140 C   0  0  0  0  0  0  0  0  0  0  0  0
   41.5010   23.3010   32.9190 N   0  0  0  0  0  0  0  0  0  0  0  0
   38.3650   25.7030   35.1340 C   0  0  2  0  0  0  0  0  0  0  0  0
   38.9990   27.0520   35.5500 C   0  0  0  0  0  0  0  0  0  0  0  0
   37.5360   26.8750   35.3320 C   0  0  1  0  0  0  0  0  0  0  0  0
   36.9270   27.4740   34.0900 C   0  0  0  0  0  0  0  0  0  0  0  0
   37.0940   26.9770   32.8120 C   0  0  0  0  0  0  0  0  0  0  0  0
   36.4100   27.7570   31.9580 N   0  0  0  0  0  0  0  0  0  0  0  0
   35.8300   28.7250   32.7080 C   0  0  0  0  0  0  0  0  0  0  0  0
   36.1310   28.5740   34.0140 N   0  0  0  0  0  0  0  0  0  0  0  0
   39.6907   21.8046   36.8486 H   0  0  0  0  0  0  0  0  0  0  0  0
   41.0200   22.8637   37.5141 H   0  0  0  0  0  0  0  0  0  0  0  0
   39.0960   22.1808   39.0680 H   0  0  0  0  0  0  0  0  0  0  0  0
   39.6236   23.9048   39.0098 H   0  0  0  0  0  0  0  0  0  0  0  0
   37.0293   23.0089   38.5172 H   0  0  0  0  0  0  0  0  0  0  0  0
   36.7610   25.1954   37.1910 H   0  0  0  0  0  0  0  0  0  0  0  0
   39.6568   22.5743   33.6718 H   0  0  0  0  0  0  0  0  0  0  0  0
   42.0351   25.1277   36.2103 H   0  0  0  0  0  0  0  0  0  0  0  0
   43.3609   24.1092   32.3174 H   0  0  0  0  0  0  0  0  0  0  0  0
   38.3361   24.9683   34.3158 H   0  0  0  0  0  0  0  0  0  0  0  0
   39.3993   27.1912   36.5651 H   0  0  0  0  0  0  0  0  0  0  0  0
   39.7866   27.7141   35.1610 H   0  0  0  0  0  0  0  0  0  0  0  0
   36.6570   27.0986   35.9543 H   0  0  0  0  0  0  0  0  0  0  0  0
   37.6871   26.0917   32.5393 H   0  0  0  0  0  0  0  0  0  0  0  0
   35.1966   29.5288   32.3045 H   0  0  0  0  0  0  0  0  0  0  0  0
   35.8212   29.1702   34.7946 H   0  0  0  0  0  0  0  0  0  0  0  0
  1  2  1  0
  2  3  1  0
  4  3  1  0
  5  4  1  0
  6  1  1  0
  6  5  2  0
  7  8  2  0
  8  9  1  0
  8  1  1  0
 10  9  2  0
 11 10  1  0
 12 11  2  0
 12  7  1  0
 13 15  1  0
 13 14  1  0
 13  6  1  0
 15 14  1  0
 16 15  1  0
 17 16  2  0
 18 19  2  0
 18 17  1  0
 19 20  1  0
 20 16  1  0
  2 21  1  0
  2 22  1  0
  3 23  1  0
  3 24  1  0
  4 25  1  0
  5 26  1  0
  7 27  1  0
  9 28  1  0
 11 29  1  0
 13 30  1  6
 14 31  1  0
 14 32  1  0
 15 33  1  1
 17 34  1  0
 19 35  1  0
 20 36  1  0
M  ISO  8  21  13  22  13  23  13  24  13  26  13  27  14  28  14  29  14
M  ISO  7  30  13  31  13  32  13  33  13  34  14  35  14  36   9
M  END
>  <minimizedAffinity>  (1) 
-4.60224104

>  <minimizedRMSD>  (1) 
5.5358777

$$$$
