
     RDKit          3D

 43 46  0  0  1  0  0  0  0  0999 V2000
   38.8230   24.2910   36.3430 N   0  0  0  0  0  0  0  0  0  0  0  0
   37.6390   24.2800   37.1900 C   0  0  0  0  0  0  0  0  0  0  0  0
   37.5830   23.1100   38.1200 C   0  0  0  0  0  0  0  0  0  0  0  0
   38.8550   22.8330   38.6580 N   0  0  0  0  0  0  0  0  0  0  0  0
   39.9860   22.6940   37.8060 C   0  0  0  0  0  0  0  0  0  0  0  0
   39.9540   23.4850   36.5850 C   0  0  0  0  0  0  0  0  0  0  0  0
   39.4320   26.4120   35.1940 C   0  0  0  0  0  0  0  0  0  0  0  0
   38.8420   25.1330   35.2260 C   0  0  0  0  0  0  0  0  0  0  0  0
   38.2450   24.7190   34.0160 C   0  0  0  0  0  0  0  0  0  0  0  0
   38.2470   25.5080   32.9130 N   0  0  0  0  0  0  0  0  0  0  0  0
   38.8320   26.7240   32.9580 C   0  0  0  0  0  0  0  0  0  0  0  0
   39.4150   27.1680   34.0820 N   0  0  0  0  0  0  0  0  0  0  0  0
   41.1690   23.3560   35.7820 C   0  0  2  0  0  0  0  0  0  0  0  0
   41.0220   22.2420   34.7210 C   0  0  0  0  0  0  0  0  0  0  0  0
   42.0900   22.2390   35.7560 C   0  0  1  0  0  0  0  0  0  0  0  0
   43.4650   22.5110   35.3610 N   0  0  0  0  0  0  0  0  0  0  0  0
   43.8120   23.8970   35.5380 C   0  0  0  0  0  0  0  0  0  0  0  0
   44.9370   24.0040   36.5140 C   0  0  0  0  0  0  0  0  0  0  0  0
   46.1310   23.3320   36.0380 N   0  0  0  0  0  0  0  0  0  0  0  0
   45.8330   22.0220   35.5190 C   0  0  0  0  0  0  0  0  0  0  0  0
   44.4250   21.6160   35.9260 C   0  0  0  0  0  0  0  0  0  0  0  0
   37.6309   25.2023   37.7895 H   0  0  0  0  0  0  0  0  0  0  0  0
   36.7656   24.2076   36.5252 H   0  0  0  0  0  0  0  0  0  0  0  0
   36.8864   23.3357   38.9408 H   0  0  0  0  0  0  0  0  0  0  0  0
   37.2410   22.2295   37.5562 H   0  0  0  0  0  0  0  0  0  0  0  0
   38.9673   22.7302   39.6767 H   0  0  0  0  0  0  0  0  0  0  0  0
   40.8290   22.0323   38.0539 H   0  0  0  0  0  0  0  0  0  0  0  0
   39.9183   26.8016   36.1005 H   0  0  0  0  0  0  0  0  0  0  0  0
   37.7654   23.7303   33.9663 H   0  0  0  0  0  0  0  0  0  0  0  0
   38.8307   27.3598   32.0604 H   0  0  0  0  0  0  0  0  0  0  0  0
   41.3903   24.4270   35.9004 H   0  0  0  0  0  0  0  0  0  0  0  0
   41.2669   22.4394   33.6669 H   0  0  0  0  0  0  0  0  0  0  0  0
   40.2281   21.5535   34.3959 H   0  0  0  0  0  0  0  0  0  0  0  0
   42.4096   21.4905   36.4960 H   0  0  0  0  0  0  0  0  0  0  0  0
   44.1212   24.3244   34.5727 H   0  0  0  0  0  0  0  0  0  0  0  0
   42.9402   24.4491   35.9190 H   0  0  0  0  0  0  0  0  0  0  0  0
   45.1678   25.0673   36.6757 H   0  0  0  0  0  0  0  0  0  0  0  0
   44.6234   23.5197   37.4505 H   0  0  0  0  0  0  0  0  0  0  0  0
   46.5574   23.8982   35.2907 H   0  0  0  0  0  0  0  0  0  0  0  0
   46.5539   21.2961   35.9233 H   0  0  0  0  0  0  0  0  0  0  0  0
   45.9031   22.0410   34.4214 H   0  0  0  0  0  0  0  0  0  0  0  0
   44.3431   21.6420   37.0226 H   0  0  0  0  0  0  0  0  0  0  0  0
   44.2259   20.5995   35.5558 H   0  0  0  0  0  0  0  0  0  0  0  0
  1  6  1  0
  1  2  1  0
  2  3  1  0
  3  4  1  0
  5  4  1  0
  6  5  2  0
  7  8  2  0
  8  1  1  0
  9  8  1  0
 10 11  1  0
 10  9  2  0
 11 12  2  0
 12  7  1  0
 13  6  1  0
 14 15  1  0
 14 13  1  0
 15 13  1  0
 16 17  1  0
 16 15  1  0
 16 21  1  0
 17 18  1  0
 19 18  1  0
 20 21  1  0
 20 19  1  0
  2 22  1  0
  2 23  1  0
  3 24  1  0
  3 25  1  0
  4 26  1  0
  5 27  1  0
  7 28  1  0
  9 29  1  0
 11 30  1  0
 13 31  1  6
 14 32  1  0
 14 33  1  0
 15 34  1  1
 17 35  1  0
 17 36  1  0
 18 37  1  0
 18 38  1  0
 19 39  1  0
 20 40  1  0
 20 41  1  0
 21 42  1  0
 21 43  1  0
M  ISO  8  22  13  23  13  24  13  25  13  27  13  28  14  29  14  30  14
M  ISO  8  31  13  32  13  33  13  34  13  35  13  36  13  37  13  38  13
M  ISO  5  39   5  40  13  41  13  42  13  43  13
M  END
>  <minimizedAffinity>  (1) 
-4.54115057

>  <minimizedRMSD>  (1) 
6.19318247

$$$$
