
     RDKit          3D

 36 38  0  0  1  0  0  0  0  0999 V2000
   39.4700   26.3930   33.3400 N   0  0  0  0  0  0  0  0  0  0  0  0
   40.6460   27.1900   33.0320 C   0  0  0  0  0  0  0  0  0  0  0  0
   41.7800   26.9550   33.9710 C   0  0  0  0  0  0  0  0  0  0  0  0
   41.8960   25.5680   34.3070 N   0  0  0  0  0  0  0  0  0  0  0  0
   40.7510   24.8460   34.7310 C   0  0  0  0  0  0  0  0  0  0  0  0
   39.4790   25.2930   34.2190 C   0  0  0  0  0  0  0  0  0  0  0  0
   37.7780   26.1880   31.5030 C   0  0  0  0  0  0  0  0  0  0  0  0
   38.2390   26.7310   32.7240 C   0  0  0  0  0  0  0  0  0  0  0  0
   37.3940   27.6550   33.3210 C   0  0  0  0  0  0  0  0  0  0  0  0
   36.2090   28.0040   32.7590 N   0  0  0  0  0  0  0  0  0  0  0  0
   35.8210   27.4530   31.5920 C   0  0  0  0  0  0  0  0  0  0  0  0
   36.5990   26.5530   30.9720 N   0  0  0  0  0  0  0  0  0  0  0  0
   38.3720   24.4830   34.6840 C   0  0  2  0  0  0  0  0  0  0  0  0
   37.6900   25.0720   35.9390 C   0  0  0  0  0  0  0  0  0  0  0  0
   38.2670   23.6870   35.8880 C   0  0  2  0  0  0  0  0  0  0  0  0
   39.2060   23.4790   36.9530 N   0  0  0  0  0  0  0  0  0  0  0  0
   38.6010   23.2790   38.2720 C   0  0  0  0  0  0  0  0  0  0  0  0
   37.4530   22.6270   38.3620 N   0  0  0  0  0  0  0  0  0  0  0  0
   39.1720   23.7590   39.5180 N   0  0  0  0  0  0  0  0  0  0  0  0
   37.0570   22.5040   39.3000 H   0  0  0  0  0  0  0  0  0  0  0  0
   40.9790   26.9419   32.0134 H   0  0  0  0  0  0  0  0  0  0  0  0
   40.3574   28.2471   33.1277 H   0  0  0  0  0  0  0  0  0  0  0  0
   42.7143   27.2882   33.4956 H   0  0  0  0  0  0  0  0  0  0  0  0
   41.5905   27.5221   34.8943 H   0  0  0  0  0  0  0  0  0  0  0  0
   42.8089   25.0955   34.2410 H   0  0  0  0  0  0  0  0  0  0  0  0
   40.8293   23.9886   35.4156 H   0  0  0  0  0  0  0  0  0  0  0  0
   38.3991   25.4493   30.9752 H   0  0  0  0  0  0  0  0  0  0  0  0
   37.6919   28.1165   34.2740 H   0  0  0  0  0  0  0  0  0  0  0  0
   34.8591   27.7434   31.1444 H   0  0  0  0  0  0  0  0  0  0  0  0
   38.1756   24.1767   33.6459 H   0  0  0  0  0  0  0  0  0  0  0  0
   38.1834   25.8618   36.5245 H   0  0  0  0  0  0  0  0  0  0  0  0
   36.7147   25.5204   36.1793 H   0  0  0  0  0  0  0  0  0  0  0  0
   37.9924   22.6228   35.9328 H   0  0  0  0  0  0  0  0  0  0  0  0
   40.2248   23.4710   36.8019 H   0  0  0  0  0  0  0  0  0  0  0  0
   38.6878   23.5797   40.4092 H   0  0  0  0  0  0  0  0  0  0  0  0
   40.0612   24.2788   39.5105 H   0  0  0  0  0  0  0  0  0  0  0  0
  1  6  1  0
  2  1  1  0
  2  3  1  0
  3  4  1  0
  4  5  1  0
  6 13  1  0
  6  5  2  0
  7  8  2  0
  8  9  1  0
  8  1  1  0
 10  9  2  0
 11 10  1  0
 12  7  1  0
 12 11  2  0
 13 15  1  0
 13 14  1  0
 15 14  1  0
 15 16  1  0
 16 17  1  0
 17 18  2  0
 17 19  1  0
 18 20  1  0
  2 21  1  0
  2 22  1  0
  3 23  1  0
  3 24  1  0
  4 25  1  0
  5 26  1  0
  7 27  1  0
  9 28  1  0
 11 29  1  0
 13 30  1  6
 14 31  1  0
 14 32  1  0
 15 33  1  6
 16 34  1  0
 19 35  1  0
 19 36  1  0
M  ISO  8  21  13  22  13  23  13  24  13  26  13  27  14  28  14  29  14
M  ISO  4  30  13  31  13  32  13  33  13
M  END
>  <minimizedAffinity>  (1) 
-4.41089296

>  <minimizedRMSD>  (1) 
2.9860518

$$$$
