
     RDKit          3D

 42 45  0  0  1  0  0  0  0  0999 V2000
   42.3440   24.4740   34.8330 N   0  0  0  0  0  0  0  0  0  0  0  0
   43.7300   24.6060   34.3930 C   0  0  0  0  0  0  0  0  0  0  0  0
   44.7250   24.0970   35.3910 C   0  0  0  0  0  0  0  0  0  0  0  0
   44.2710   22.8850   35.9590 N   0  0  0  0  0  0  0  0  0  0  0  0
   42.9520   22.7880   36.5040 C   0  0  0  0  0  0  0  0  0  0  0  0
   41.9500   23.6310   35.8890 C   0  0  0  0  0  0  0  0  0  0  0  0
   40.7810   24.8700   32.9440 C   0  0  0  0  0  0  0  0  0  0  0  0
   41.3550   25.2250   34.1820 C   0  0  0  0  0  0  0  0  0  0  0  0
   40.8730   26.4160   34.7600 C   0  0  0  0  0  0  0  0  0  0  0  0
   39.9180   27.1670   34.1600 N   0  0  0  0  0  0  0  0  0  0  0  0
   39.4080   26.7680   32.9660 C   0  0  0  0  0  0  0  0  0  0  0  0
   39.8340   25.6420   32.3760 N   0  0  0  0  0  0  0  0  0  0  0  0
   40.6120   23.4450   36.4530 C   0  0  2  0  0  0  0  0  0  0  0  0
   40.1020   22.0000   36.2470 C   0  0  0  0  0  0  0  0  0  0  0  0
   39.4010   23.1610   35.6950 C   0  0  1  0  0  0  0  0  0  0  0  0
   38.0470   23.6300   36.0980 C   0  0  0  0  0  0  0  0  0  0  0  0
   37.2930   22.6870   36.9770 C   0  0  0  0  0  0  0  0  0  0  0  0
   37.5370   23.1360   38.4020 C   0  0  0  0  0  0  0  0  0  0  0  0
   38.1240   24.5300   38.3320 C   0  0  0  0  0  0  0  0  0  0  0  0
   38.0750   24.9390   36.8640 C   0  0  0  0  0  0  0  0  0  0  0  0
   43.8539   24.0399   33.4580 H   0  0  0  0  0  0  0  0  0  0  0  0
   43.9262   25.6801   34.2595 H   0  0  0  0  0  0  0  0  0  0  0  0
   45.6880   23.9243   34.8882 H   0  0  0  0  0  0  0  0  0  0  0  0
   44.8466   24.8439   36.1893 H   0  0  0  0  0  0  0  0  0  0  0  0
   44.8946   22.0655   35.9807 H   0  0  0  0  0  0  0  0  0  0  0  0
   42.7141   22.1135   37.3398 H   0  0  0  0  0  0  0  0  0  0  0  0
   41.1103   23.9517   32.4358 H   0  0  0  0  0  0  0  0  0  0  0  0
   41.2836   26.7456   35.7258 H   0  0  0  0  0  0  0  0  0  0  0  0
   38.6344   27.3775   32.4761 H   0  0  0  0  0  0  0  0  0  0  0  0
   40.7977   24.1979   37.2332 H   0  0  0  0  0  0  0  0  0  0  0  0
   40.6421   21.3091   35.5829 H   0  0  0  0  0  0  0  0  0  0  0  0
   39.8388   21.1541   36.8990 H   0  0  0  0  0  0  0  0  0  0  0  0
   39.0533   23.4066   34.6807 H   0  0  0  0  0  0  0  0  0  0  0  0
   37.5459   23.7289   35.1238 H   0  0  0  0  0  0  0  0  0  0  0  0
   36.2186   22.7283   36.7447 H   0  0  0  0  0  0  0  0  0  0  0  0
   37.6267   21.6499   36.8250 H   0  0  0  0  0  0  0  0  0  0  0  0
   36.5894   23.1526   38.9604 H   0  0  0  0  0  0  0  0  0  0  0  0
   38.2212   22.4472   38.9191 H   0  0  0  0  0  0  0  0  0  0  0  0
   37.5286   25.2255   38.9417 H   0  0  0  0  0  0  0  0  0  0  0  0
   39.1531   24.5515   38.7199 H   0  0  0  0  0  0  0  0  0  0  0  0
   38.9655   25.5262   36.5954 H   0  0  0  0  0  0  0  0  0  0  0  0
   37.2037   25.5712   36.6379 H   0  0  0  0  0  0  0  0  0  0  0  0
  1  6  1  0
  2  1  1  0
  2  3  1  0
  3  4  1  0
  4  5  1  0
  6 13  1  0
  6  5  2  0
  7  8  2  0
  8  9  1  0
  8  1  1  0
 10  9  2  0
 11 10  1  0
 12  7  1  0
 12 11  2  0
 14 13  1  0
 15 16  1  0
 15 14  1  0
 15 13  1  0
 16 20  1  0
 16 17  1  0
 17 18  1  0
 19 18  1  0
 20 19  1  0
  2 21  1  0
  2 22  1  0
  3 23  1  0
  3 24  1  0
  4 25  1  0
  5 26  1  0
  7 27  1  0
  9 28  1  0
 11 29  1  0
 13 30  1  1
 14 31  1  0
 14 32  1  0
 15 33  1  6
 16 34  1  0
 17 35  1  0
 17 36  1  0
 18 37  1  0
 18 38  1  0
 19 39  1  0
 19 40  1  0
 20 41  1  0
 20 42  1  0
M  ISO  8  21  13  22  13  23  13  24  13  26  13  27  14  28  14  29  14
M  ISO  8  30  13  31  13  32  13  33  13  34  13  35  13  36  13  37  13
M  ISO  5  38  13  39  13  40  13  41  13  42  13
M  END
>  <minimizedAffinity>  (1) 
-4.15158176

>  <minimizedRMSD>  (1) 
3.2449584

$$$$
