
     RDKit          3D

 31 33  0  0  1  0  0  0  0  0999 V2000
   39.9490   23.4820   36.3700 N   0  0  0  0  0  0  0  0  0  0  0  0
   39.7240   22.7640   37.6200 C   0  0  0  0  0  0  0  0  0  0  0  0
   38.7290   23.4220   38.5160 C   0  0  0  0  0  0  0  0  0  0  0  0
   37.6450   23.9340   37.7780 N   0  0  0  0  0  0  0  0  0  0  0  0
   37.8710   24.7690   36.6440 C   0  0  0  0  0  0  0  0  0  0  0  0
   39.0970   24.5070   35.8990 C   0  0  0  0  0  0  0  0  0  0  0  0
   41.0490   22.2930   34.4810 C   0  0  0  0  0  0  0  0  0  0  0  0
   41.0690   23.1540   35.5990 C   0  0  0  0  0  0  0  0  0  0  0  0
   42.3280   23.6980   35.9260 C   0  0  0  0  0  0  0  0  0  0  0  0
   43.4420   23.4100   35.2060 N   0  0  0  0  0  0  0  0  0  0  0  0
   43.3580   22.5800   34.1460 C   0  0  0  0  0  0  0  0  0  0  0  0
   42.1840   22.0360   33.7940 N   0  0  0  0  0  0  0  0  0  0  0  0
   39.2440   25.3350   34.7080 C   0  0  2  0  0  0  0  0  0  0  0  0
   40.0450   26.6210   35.0260 C   0  0  0  0  0  0  0  0  0  0  0  0
   38.6560   26.6430   34.4880 C   0  0  1  0  0  0  0  0  0  0  0  0
   38.4430   27.1200   33.0760 C   0  0  0  0  0  0  0  0  0  0  0  0
   39.4540   27.2870   32.4120 O   0  0  0  0  0  0  0  0  0  0  0  0
   39.3613   21.7536   37.3802 H   0  0  0  0  0  0  0  0  0  0  0  0
   40.6825   22.7474   38.1595 H   0  0  0  0  0  0  0  0  0  0  0  0
   38.3541   22.6839   39.2404 H   0  0  0  0  0  0  0  0  0  0  0  0
   39.2236   24.2559   39.0356 H   0  0  0  0  0  0  0  0  0  0  0  0
   36.6812   23.7038   38.0592 H   0  0  0  0  0  0  0  0  0  0  0  0
   37.1655   25.5602   36.3501 H   0  0  0  0  0  0  0  0  0  0  0  0
   40.1030   21.8279   34.1666 H   0  0  0  0  0  0  0  0  0  0  0  0
   42.4098   24.3750   36.7891 H   0  0  0  0  0  0  0  0  0  0  0  0
   44.2620   22.3470   33.5643 H   0  0  0  0  0  0  0  0  0  0  0  0
   39.2354   24.4541   34.0493 H   0  0  0  0  0  0  0  0  0  0  0  0
   40.2445   26.9109   36.0682 H   0  0  0  0  0  0  0  0  0  0  0  0
   41.0173   27.0445   34.7340 H   0  0  0  0  0  0  0  0  0  0  0  0
   37.7187   27.1127   34.8211 H   0  0  0  0  0  0  0  0  0  0  0  0
   37.4387   27.3065   32.6678 H   0  0  0  0  0  0  0  0  0  0  0  0
  1  2  1  0
  2  3  1  0
  4  3  1  0
  5  4  1  0
  6  1  1  0
  6  5  2  0
  7  8  2  0
  8  9  1  0
  8  1  1  0
 10  9  2  0
 11 10  1  0
 12 11  2  0
 12  7  1  0
 13 14  1  0
 13  6  1  0
 15 13  1  0
 15 14  1  0
 16 15  1  0
 17 16  2  0
  2 18  1  0
  2 19  1  0
  3 20  1  0
  3 21  1  0
  4 22  1  0
  5 23  1  0
  7 24  1  0
  9 25  1  0
 11 26  1  0
 13 27  1  6
 14 28  1  0
 14 29  1  0
 15 30  1  1
 16 31  1  0
M  ISO  8  18  13  19  13  20  13  21  13  23  13  24  14  25  14  26  14
M  ISO  5  27  13  28  13  29  13  30  13  31   6
M  END
>  <minimizedAffinity>  (1) 
-3.80035901

>  <minimizedRMSD>  (1) 
5.30698347

$$$$
