
     RDKit          3D

 35 37  0  0  0  0  0  0  0  0999 V2000
   37.7750   25.0770   32.4610 C   0  0  0  0  0  0  0  0  0  0  0  0
   36.9410   26.0620   32.0190 C   0  0  0  0  0  0  0  0  0  0  0  0
   35.7660   25.6370   31.4480 C   0  0  0  0  0  0  0  0  0  0  0  0
   35.4620   24.3180   31.3360 N   0  0  0  0  0  0  0  0  0  0  0  0
   36.2980   23.3900   31.7780 C   0  0  0  0  0  0  0  0  0  0  0  0
   37.4750   23.7780   32.3500 N   0  0  0  0  0  0  0  0  0  0  0  0
   40.9680   24.9160   34.2830 C   0  0  0  0  0  0  0  0  0  0  0  0
   41.4590   26.2220   34.2430 C   0  0  0  0  0  0  0  0  0  0  0  0
   40.6410   27.1250   33.5710 C   0  0  0  0  0  0  0  0  0  0  0  0
   39.4820   26.7270   33.0190 N   0  0  0  0  0  0  0  0  0  0  0  0
   39.0420   25.4520   33.0790 C   0  0  0  0  0  0  0  0  0  0  0  0
   39.8160   24.5490   33.7270 N   0  0  0  0  0  0  0  0  0  0  0  0
   42.6900   26.5970   34.8410 N   0  0  0  0  0  0  0  0  0  0  0  0
   43.8620   26.9340   34.1510 C   0  0  0  0  0  0  0  0  0  0  0  0
   44.1140   26.2070   33.0580 N   0  0  0  0  0  0  0  0  0  0  0  0
   44.6440   28.0240   34.7120 N   0  0  0  0  0  0  0  0  0  0  0  0
   44.9450   26.4080   32.4990 H   0  0  0  0  0  0  0  0  0  0  0  0
   35.9710   21.9770   31.6570 C   0  0  0  0  0  0  0  0  0  0  0  0
   35.0150   21.4240   32.5020 C   0  0  0  0  0  0  0  0  0  0  0  0
   34.8000   20.0820   32.2840 C   0  0  0  0  0  0  0  0  0  0  0  0
   35.4420   19.3430   31.3420 N   0  0  0  0  0  0  0  0  0  0  0  0
   36.3560   19.9750   30.5690 C   0  0  0  0  0  0  0  0  0  0  0  0
   36.6240   21.2640   30.7110 N   0  0  0  0  0  0  0  0  0  0  0  0
   37.0550   19.1970   29.5530 C   0  0  0  0  0  0  0  0  0  0  0  0
   36.4980   18.8020   28.4970 O   0  0  0  0  0  0  0  0  0  0  0  0
   37.1933   27.1285   32.1138 H   0  0  0  0  0  0  0  0  0  0  0  0
   35.0525   26.3848   31.0715 H   0  0  0  0  0  0  0  0  0  0  0  0
   41.5643   24.1504   34.8010 H   0  0  0  0  0  0  0  0  0  0  0  0
   40.9469   28.1785   33.4905 H   0  0  0  0  0  0  0  0  0  0  0  0
   42.7250   26.6237   35.8701 H   0  0  0  0  0  0  0  0  0  0  0  0
   45.5168   28.3212   34.2528 H   0  0  0  0  0  0  0  0  0  0  0  0
   44.3252   28.4989   35.5686 H   0  0  0  0  0  0  0  0  0  0  0  0
   34.4820   22.0031   33.2705 H   0  0  0  0  0  0  0  0  0  0  0  0
   34.0573   19.5729   32.9159 H   0  0  0  0  0  0  0  0  0  0  0  0
   38.1132   18.9452   29.7170 H   0  0  0  0  0  0  0  0  0  0  0  0
  1 11  1  0
  2  1  2  0
  3  2  1  0
  4  3  2  0
  4  5  1  0
  5  6  2  0
  6  1  1  0
  8  7  2  0
  8 13  1  0
  9  8  1  0
 10 11  1  0
 10  9  2  0
 11 12  2  0
 12  7  1  0
 14 16  1  0
 14 13  1  0
 15 14  2  0
 17 15  1  0
 18  5  1  0
 18 19  2  0
 20 19  1  0
 21 20  2  0
 22 23  2  0
 22 21  1  0
 23 18  1  0
 24 22  1  0
 25 24  2  0
  2 26  1  0
  3 27  1  0
  7 28  1  0
  9 29  1  0
 13 30  1  0
 16 31  1  0
 16 32  1  0
 19 33  1  0
 20 34  1  0
 24 35  1  0
M  ISO  7  26  14  27  14  28  14  29  14  33  14  34  14  35   6
M  END
>  <minimizedAffinity>  (1) 
-5.35685158

>  <minimizedRMSD>  (1) 
0.723589718

$$$$
