
     RDKit          3D

 38 40  0  0  1  0  0  0  0  0999 V2000
   39.6370   24.0470   35.1180 N   0  0  0  0  0  0  0  0  0  0  0  0
   38.2630   23.5740   35.2150 C   0  0  0  0  0  0  0  0  0  0  0  0
   38.1330   22.2570   35.9130 C   0  0  0  0  0  0  0  0  0  0  0  0
   38.9940   22.1970   37.0270 N   0  0  0  0  0  0  0  0  0  0  0  0
   40.3790   22.5130   36.8880 C   0  0  0  0  0  0  0  0  0  0  0  0
   40.6970   23.5090   35.8760 C   0  0  0  0  0  0  0  0  0  0  0  0
   40.0980   26.4320   34.5770 C   0  0  0  0  0  0  0  0  0  0  0  0
   39.9320   25.0780   34.2200 C   0  0  0  0  0  0  0  0  0  0  0  0
   40.0840   24.7980   32.8470 C   0  0  0  0  0  0  0  0  0  0  0  0
   40.3700   25.7560   31.9350 N   0  0  0  0  0  0  0  0  0  0  0  0
   40.5190   27.0420   32.3420 C   0  0  0  0  0  0  0  0  0  0  0  0
   40.3830   27.3610   33.6370 N   0  0  0  0  0  0  0  0  0  0  0  0
   42.1180   23.8520   35.8330 C   0  0  2  0  0  0  0  0  0  0  0  0
   42.8880   22.9300   34.8610 C   0  0  0  0  0  0  0  0  0  0  0  0
   43.2200   23.0370   36.3090 C   0  0  1  0  0  0  0  0  0  0  0  0
   44.4890   23.7440   36.7400 C   0  0  0  0  0  0  0  0  0  0  0  0
   44.3400   25.2400   36.5960 C   0  0  0  0  0  0  0  0  0  0  0  0
   45.6800   23.3280   35.9350 C   0  0  0  0  0  0  0  0  0  0  0  0
   37.6759   24.3212   35.7691 H   0  0  0  0  0  0  0  0  0  0  0  0
   37.8960   23.4333   34.1876 H   0  0  0  0  0  0  0  0  0  0  0  0
   37.0944   22.1288   36.2519 H   0  0  0  0  0  0  0  0  0  0  0  0
   38.4067   21.4558   35.2107 H   0  0  0  0  0  0  0  0  0  0  0  0
   38.6215   21.9234   37.9475 H   0  0  0  0  0  0  0  0  0  0  0  0
   41.1544   22.0353   37.5049 H   0  0  0  0  0  0  0  0  0  0  0  0
   39.9947   26.7350   35.6294 H   0  0  0  0  0  0  0  0  0  0  0  0
   39.9655   23.7598   32.5032 H   0  0  0  0  0  0  0  0  0  0  0  0
   40.7523   27.8258   31.6064 H   0  0  0  0  0  0  0  0  0  0  0  0
   41.9006   24.9104   36.0393 H   0  0  0  0  0  0  0  0  0  0  0  0
   42.4153   22.0201   34.4628 H   0  0  0  0  0  0  0  0  0  0  0  0
   43.4287   23.0517   33.9108 H   0  0  0  0  0  0  0  0  0  0  0  0
   43.3337   22.2870   37.1056 H   0  0  0  0  0  0  0  0  0  0  0  0
   44.6497   23.4623   37.7911 H   0  0  0  0  0  0  0  0  0  0  0  0
   44.2940   25.7016   37.5934 H   0  0  0  0  0  0  0  0  0  0  0  0
   45.2024   25.6430   36.0449 H   0  0  0  0  0  0  0  0  0  0  0  0
   43.4150   25.4650   36.0449 H   0  0  0  0  0  0  0  0  0  0  0  0
   46.4985   23.0421   36.6120 H   0  0  0  0  0  0  0  0  0  0  0  0
   45.4123   22.4701   35.3006 H   0  0  0  0  0  0  0  0  0  0  0  0
   46.0046   24.1660   35.3006 H   0  0  0  0  0  0  0  0  0  0  0  0
  1  2  1  0
  1  6  1  0
  2  3  1  0
  3  4  1  0
  5  4  1  0
  6  5  2  0
  8  7  2  0
  8  1  1  0
  9  8  1  0
 10 11  1  0
 10  9  2  0
 11 12  2  0
 12  7  1  0
 13  6  1  0
 13 15  1  0
 14 13  1  0
 14 15  1  0
 15 16  1  0
 17 16  1  0
 18 16  1  0
  2 19  1  0
  2 20  1  0
  3 21  1  0
  3 22  1  0
  4 23  1  0
  5 24  1  0
  7 25  1  0
  9 26  1  0
 11 27  1  0
 13 28  1  6
 14 29  1  0
 14 30  1  0
 15 31  1  1
 16 32  1  0
 17 33  1  0
 17 34  1  0
 17 35  1  0
 18 36  1  0
 18 37  1  0
 18 38  1  0
M  ISO  8  19  13  20  13  21  13  22  13  24  13  25  14  26  14  27  14
M  ISO  8  28  13  29  13  30  13  31  13  32   8  33   8  34   8  35   8
M  ISO  3  36   8  37   8  38   8
M  END
>  <minimizedAffinity>  (1) 
-4.03863478

>  <minimizedRMSD>  (1) 
5.19505882

$$$$
