
     RDKit          3D

 32 34  0  0  1  0  0  0  0  0999 V2000
   39.6030   24.5130   35.1300 N   0  0  0  0  0  0  0  0  0  0  0  0
   41.0270   24.7820   35.0170 C   0  0  0  0  0  0  0  0  0  0  0  0
   41.8810   23.7370   35.6730 C   0  0  0  0  0  0  0  0  0  0  0  0
   41.3780   22.4480   35.3930 N   0  0  0  0  0  0  0  0  0  0  0  0
   40.0090   22.1410   35.6370 C   0  0  0  0  0  0  0  0  0  0  0  0
   39.0780   23.2490   35.4850 C   0  0  0  0  0  0  0  0  0  0  0  0
   37.8500   25.6290   33.7590 C   0  0  0  0  0  0  0  0  0  0  0  0
   38.6990   25.5510   34.8850 C   0  0  0  0  0  0  0  0  0  0  0  0
   38.5830   26.6200   35.7980 C   0  0  0  0  0  0  0  0  0  0  0  0
   37.7150   27.6460   35.5960 N   0  0  0  0  0  0  0  0  0  0  0  0
   36.9370   27.6510   34.4950 C   0  0  0  0  0  0  0  0  0  0  0  0
   37.0010   26.6620   33.5910 N   0  0  0  0  0  0  0  0  0  0  0  0
   37.6810   22.8710   35.6870 C   0  0  2  0  0  0  0  0  0  0  0  0
   37.2570   23.0590   37.1610 C   0  0  0  0  0  0  0  0  0  0  0  0
   37.1920   21.7440   36.4620 C   0  0  1  0  0  0  0  0  0  0  0  0
   35.8660   21.1400   36.1600 C   0  0  0  0  0  0  0  0  0  0  0  0
   35.5260   20.7490   35.0360 O   0  0  0  0  0  0  0  0  0  0  0  0
   34.8200   20.9170   37.0530 O   0  0  0  0  0  0  0  0  0  0  0  0
   41.2901   24.8289   33.9500 H   0  0  0  0  0  0  0  0  0  0  0  0
   41.2214   25.7336   35.5333 H   0  0  0  0  0  0  0  0  0  0  0  0
   42.9095   23.8163   35.2909 H   0  0  0  0  0  0  0  0  0  0  0  0
   41.8704   23.8971   36.7612 H   0  0  0  0  0  0  0  0  0  0  0  0
   42.0046   21.7257   35.0102 H   0  0  0  0  0  0  0  0  0  0  0  0
   39.6768   21.1318   35.9219 H   0  0  0  0  0  0  0  0  0  0  0  0
   37.8824   24.8301   33.0036 H   0  0  0  0  0  0  0  0  0  0  0  0
   39.2133   26.6233   36.6995 H   0  0  0  0  0  0  0  0  0  0  0  0
   36.2355   28.4830   34.3347 H   0  0  0  0  0  0  0  0  0  0  0  0
   37.4189   23.1715   34.6618 H   0  0  0  0  0  0  0  0  0  0  0  0
   38.0123   23.2399   37.9399 H   0  0  0  0  0  0  0  0  0  0  0  0
   36.5534   23.7028   37.7091 H   0  0  0  0  0  0  0  0  0  0  0  0
   37.5996   20.7449   36.6755 H   0  0  0  0  0  0  0  0  0  0  0  0
   33.9775   20.5051   36.7357 H   0  0  0  0  0  0  0  0  0  0  0  0
  1  6  1  0
  2  1  1  0
  2  3  1  0
  4  5  1  0
  4  3  1  0
  6  5  2  0
  6 13  1  0
  7  8  2  0
  8  1  1  0
  8  9  1  0
 10  9  2  0
 11 10  1  0
 12  7  1  0
 12 11  2  0
 13 15  1  0
 13 14  1  0
 15 14  1  0
 16 15  1  0
 16 18  1  0
 17 16  2  0
  2 19  1  0
  2 20  1  0
  3 21  1  0
  3 22  1  0
  4 23  1  0
  5 24  1  0
  7 25  1  0
  9 26  1  0
 11 27  1  0
 13 28  1  6
 14 29  1  0
 14 30  1  0
 15 31  1  1
 18 32  1  0
M  ISO  8  19  13  20  13  21  13  22  13  24  13  25  14  26  14  27  14
M  ISO  5  28  13  29  13  30  13  31  13  32   3
M  END
>  <minimizedAffinity>  (1) 
-4.31935549

>  <minimizedRMSD>  (1) 
1.75044119

$$$$
