
     RDKit          3D

 49 53  0  0  1  0  0  0  0  0999 V2000
   38.5680   22.1900   34.3930 C   0  0  2  0  0  0  0  0  0  0  0  0
   38.4370   23.5050   33.5710 C   0  0  0  0  0  0  0  0  0  0  0  0
   37.4460   22.3770   33.5220 C   0  0  1  0  0  0  0  0  0  0  0  0
   39.7870   22.7200   36.6160 N   0  0  0  0  0  0  0  0  0  0  0  0
   39.7120   23.0520   38.0380 C   0  0  0  0  0  0  0  0  0  0  0  0
   38.3490   23.4760   38.4930 C   0  0  0  0  0  0  0  0  0  0  0  0
   37.3590   22.6820   37.8870 N   0  0  0  0  0  0  0  0  0  0  0  0
   37.3540   22.4580   36.4790 C   0  0  0  0  0  0  0  0  0  0  0  0
   38.6530   22.4780   35.8300 C   0  0  0  0  0  0  0  0  0  0  0  0
   41.7930   21.4860   35.8480 C   0  0  0  0  0  0  0  0  0  0  0  0
   41.0340   22.6470   36.0110 C   0  0  0  0  0  0  0  0  0  0  0  0
   41.6370   23.8250   35.4960 C   0  0  0  0  0  0  0  0  0  0  0  0
   42.8490   23.8130   34.8970 N   0  0  0  0  0  0  0  0  0  0  0  0
   43.5190   22.6560   34.7770 C   0  0  0  0  0  0  0  0  0  0  0  0
   42.9990   21.5220   35.2430 N   0  0  0  0  0  0  0  0  0  0  0  0
   37.2580   21.5990   32.2540 C   0  0  2  0  0  0  0  0  0  0  0  0
   35.7770   21.5750   31.7800 C   0  0  0  0  0  0  0  0  0  0  0  0
   36.5130   20.3660   32.2950 C   0  0  1  0  0  0  0  0  0  0  0  0
   36.5440   19.3020   31.3440 N   0  0  0  0  0  0  0  0  0  0  0  0
   37.0380   19.5800   30.0980 C   0  0  0  0  0  0  0  0  0  0  0  0
   37.1270   18.6650   29.0940 C   0  0  0  0  0  0  0  0  0  0  0  0
   37.6800   19.0720   27.7740 C   0  0  0  0  0  0  0  0  0  0  0  0
   36.7030   17.3740   29.3160 C   0  0  0  0  0  0  0  0  0  0  0  0
   36.7950   16.5530   28.3850 O   0  0  0  0  0  0  0  0  0  0  0  0
   36.2190   17.1010   30.5410 N   0  0  0  0  0  0  0  0  0  0  0  0
   36.1400   18.0360   31.5270 C   0  0  0  0  0  0  0  0  0  0  0  0
   35.6870   17.7520   32.6500 O   0  0  0  0  0  0  0  0  0  0  0  0
   39.1895   21.2904   34.5138 H   0  0  0  0  0  0  0  0  0  0  0  0
   38.1834   24.4537   34.0666 H   0  0  0  0  0  0  0  0  0  0  0  0
   39.0514   24.0640   32.8499 H   0  0  0  0  0  0  0  0  0  0  0  0
   36.3622   22.2935   33.6907 H   0  0  0  0  0  0  0  0  0  0  0  0
   40.0096   22.1650   38.6166 H   0  0  0  0  0  0  0  0  0  0  0  0
   40.3829   23.9083   38.2010 H   0  0  0  0  0  0  0  0  0  0  0  0
   38.2819   23.3672   39.5855 H   0  0  0  0  0  0  0  0  0  0  0  0
   38.1884   24.5257   38.2062 H   0  0  0  0  0  0  0  0  0  0  0  0
   36.6252   22.2551   38.4702 H   0  0  0  0  0  0  0  0  0  0  0  0
   36.4239   22.2810   35.9190 H   0  0  0  0  0  0  0  0  0  0  0  0
   41.4017   20.5270   36.2186 H   0  0  0  0  0  0  0  0  0  0  0  0
   41.0994   24.7803   35.5876 H   0  0  0  0  0  0  0  0  0  0  0  0
   44.5052   22.6445   34.2900 H   0  0  0  0  0  0  0  0  0  0  0  0
   38.2426   21.8570   31.8369 H   0  0  0  0  0  0  0  0  0  0  0  0
   34.9881   22.0494   32.3822 H   0  0  0  0  0  0  0  0  0  0  0  0
   35.2245   21.8467   30.8685 H   0  0  0  0  0  0  0  0  0  0  0  0
   36.4732   19.6395   33.1200 H   0  0  0  0  0  0  0  0  0  0  0  0
   37.3839   20.6045   29.8958 H   0  0  0  0  0  0  0  0  0  0  0  0
   38.5573   19.7177   27.9273 H   0  0  0  0  0  0  0  0  0  0  0  0
   37.9782   18.1763   27.2094 H   0  0  0  0  0  0  0  0  0  0  0  0
   36.9134   19.6230   27.2094 H   0  0  0  0  0  0  0  0  0  0  0  0
   35.8945   16.1442   30.7413 H   0  0  0  0  0  0  0  0  0  0  0  0
  1  9  1  0
  2  1  1  0
  3  2  1  0
  3  1  1  0
  4  5  1  0
  5  6  1  0
  7  6  1  0
  8  7  1  0
  9  8  2  0
  9  4  1  0
 10 11  2  0
 11  4  1  0
 12 11  1  0
 13 12  2  0
 14 13  1  0
 14 15  2  0
 15 10  1  0
 16 18  1  0
 16  3  1  0
 17 16  1  0
 17 18  1  0
 19 26  1  0
 19 18  1  0
 20 19  1  0
 21 23  1  0
 21 20  2  0
 22 21  1  0
 23 25  1  0
 24 23  2  0
 25 26  1  0
 26 27  2  0
  1 28  1  6
  2 29  1  0
  2 30  1  0
  3 31  1  1
  5 32  1  0
  5 33  1  0
  6 34  1  0
  6 35  1  0
  7 36  1  0
  8 37  1  0
 10 38  1  0
 12 39  1  0
 14 40  1  0
 16 41  1  6
 17 42  1  0
 17 43  1  0
 18 44  1  1
 20 45  1  0
 22 46  1  0
 22 47  1  0
 22 48  1  0
 25 49  1  0
M  ISO  8  28  13  29  13  30  13  31  13  32  13  33  13  34  13  35  13
M  ISO  8  37  13  38  14  39  14  40  14  41  13  42  13  43  13  44  13
M  ISO  5  45  14  46   8  47   8  48   8  49   9
M  END
>  <minimizedAffinity>  (1) 
-5.29588985

>  <minimizedRMSD>  (1) 
5.33005762

$$$$
