
     RDKit          3D

 13 13  0  0  0  0  0  0  0  0999 V2000
   41.1820   22.0710   36.6260 C   0  0  0  0  0  0  0  0  0  0  0  0
   40.4230   22.6250   37.6920 C   0  0  0  0  0  0  0  0  0  0  0  0
   39.1240   23.0510   37.3760 C   0  0  0  0  0  0  0  0  0  0  0  0
   38.6700   22.9190   36.1040 N   0  0  0  0  0  0  0  0  0  0  0  0
   39.4420   22.3790   35.1220 C   0  0  0  0  0  0  0  0  0  0  0  0
   40.6880   21.9610   35.3880 N   0  0  0  0  0  0  0  0  0  0  0  0
   38.3780   23.6160   38.5010 C   0  0  0  0  0  0  0  0  0  0  0  0
   37.9250   24.8740   38.1700 F   0  0  0  0  0  0  0  0  0  0  0  0
   39.2840   23.8020   39.5320 F   0  0  0  0  0  0  0  0  0  0  0  0
   37.3000   22.8590   38.8820 F   0  0  0  0  0  0  0  0  0  0  0  0
   42.2061   21.7223   36.8249 H   0  0  0  0  0  0  0  0  0  0  0  0
   40.8315   22.7150   38.7094 H   0  0  0  0  0  0  0  0  0  0  0  0
   39.0408   22.2847   34.1021 H   0  0  0  0  0  0  0  0  0  0  0  0
  1  2  2  0
  3  2  1  0
  3  7  1  0
  4  3  2  0
  5  6  2  0
  5  4  1  0
  6  1  1  0
  7 10  1  0
  7  9  1  0
  8  7  1  0
  1 11  1  0
  2 12  1  0
  5 13  1  0
M  ISO  3  11  14  12  14  13  14
M  END
>  <minimizedAffinity>  (1) 
-3.74913096

>  <minimizedRMSD>  (1) 
1.60251093

$$$$
