
     RDKit          3D

 50 54  0  0  1  0  0  0  0  0999 V2000
   40.7300   26.1110   33.9130 N   0  0  0  0  0  0  0  0  0  0  0  0
   41.8850   27.0050   34.0090 C   0  0  0  0  0  0  0  0  0  0  0  0
   43.1920   26.2910   34.1870 C   0  0  0  0  0  0  0  0  0  0  0  0
   43.2370   25.1480   33.3700 N   0  0  0  0  0  0  0  0  0  0  0  0
   42.1700   24.2020   33.3730 C   0  0  0  0  0  0  0  0  0  0  0  0
   40.8510   24.7360   33.6560 C   0  0  0  0  0  0  0  0  0  0  0  0
   38.5290   26.8740   33.0760 C   0  0  0  0  0  0  0  0  0  0  0  0
   39.4590   26.6350   34.0930 C   0  0  0  0  0  0  0  0  0  0  0  0
   39.0150   26.9740   35.3980 C   0  0  0  0  0  0  0  0  0  0  0  0
   37.7860   27.4890   35.6300 N   0  0  0  0  0  0  0  0  0  0  0  0
   36.9450   27.6910   34.6040 C   0  0  0  0  0  0  0  0  0  0  0  0
   37.3120   27.3900   33.3610 N   0  0  0  0  0  0  0  0  0  0  0  0
   39.8030   23.7150   33.5800 C   0  0  2  0  0  0  0  0  0  0  0  0
   39.5720   23.0520   34.9720 C   0  0  0  0  0  0  0  0  0  0  0  0
   39.9460   22.2950   33.7290 C   0  0  1  0  0  0  0  0  0  0  0  0
   38.9930   21.3080   33.1380 C   0  0  2  0  0  0  0  0  0  0  0  0
   38.5570   21.6660   31.6880 C   0  0  0  0  0  0  0  0  0  0  0  0
   37.6220   21.7120   32.8660 C   0  0  1  0  0  0  0  0  0  0  0  0
   36.6360   20.6580   32.8650 N   0  0  0  0  0  0  0  0  0  0  0  0
   35.2800   21.1050   32.8100 C   0  0  0  0  0  0  0  0  0  0  0  0
   34.4210   20.2540   31.8970 C   0  0  0  0  0  0  0  0  0  0  0  0
   34.6030   18.8380   32.1370 N   0  0  0  0  0  0  0  0  0  0  0  0
   35.9760   18.4490   32.3190 C   0  0  0  0  0  0  0  0  0  0  0  0
   36.9470   19.5720   31.9800 C   0  0  0  0  0  0  0  0  0  0  0  0
   41.9390   27.6017   33.0865 H   0  0  0  0  0  0  0  0  0  0  0  0
   41.7352   27.6257   34.9047 H   0  0  0  0  0  0  0  0  0  0  0  0
   44.0153   26.9666   33.9120 H   0  0  0  0  0  0  0  0  0  0  0  0
   43.2926   25.9842   35.2386 H   0  0  0  0  0  0  0  0  0  0  0  0
   44.0524   24.9915   32.7604 H   0  0  0  0  0  0  0  0  0  0  0  0
   42.3367   23.1332   33.1731 H   0  0  0  0  0  0  0  0  0  0  0  0
   38.7903   26.6398   32.0335 H   0  0  0  0  0  0  0  0  0  0  0  0
   39.6931   26.8125   36.2490 H   0  0  0  0  0  0  0  0  0  0  0  0
   35.9448   28.1085   34.7920 H   0  0  0  0  0  0  0  0  0  0  0  0
   39.2919   24.2653   32.7763 H   0  0  0  0  0  0  0  0  0  0  0  0
   40.2991   23.1884   35.7861 H   0  0  0  0  0  0  0  0  0  0  0  0
   38.7654   23.0173   35.7191 H   0  0  0  0  0  0  0  0  0  0  0  0
   40.7607   21.6073   33.4583 H   0  0  0  0  0  0  0  0  0  0  0  0
   39.4236   20.4473   33.6708 H   0  0  0  0  0  0  0  0  0  0  0  0
   38.4560   20.8803   30.9248 H   0  0  0  0  0  0  0  0  0  0  0  0
   38.8884   22.3655   30.9064 H   0  0  0  0  0  0  0  0  0  0  0  0
   36.9704   22.4805   33.3075 H   0  0  0  0  0  0  0  0  0  0  0  0
   34.8566   21.0706   33.8247 H   0  0  0  0  0  0  0  0  0  0  0  0
   35.2832   22.1279   32.4054 H   0  0  0  0  0  0  0  0  0  0  0  0
   34.6887   20.4735   30.8529 H   0  0  0  0  0  0  0  0  0  0  0  0
   33.3679   20.4981   32.1004 H   0  0  0  0  0  0  0  0  0  0  0  0
   34.0785   18.5830   32.9860 H   0  0  0  0  0  0  0  0  0  0  0  0
   36.1246   18.1585   33.3695 H   0  0  0  0  0  0  0  0  0  0  0  0
   36.1806   17.6110   31.6364 H   0  0  0  0  0  0  0  0  0  0  0  0
   37.9836   19.2387   32.1365 H   0  0  0  0  0  0  0  0  0  0  0  0
   36.8526   19.8763   30.9271 H   0  0  0  0  0  0  0  0  0  0  0  0
  1  2  1  0
  1  8  1  0
  2  3  1  0
  4  5  1  0
  4  3  1  0
  5  6  2  0
  6  1  1  0
  7 12  2  0
  7  8  1  0
  8  9  2  0
  9 10  1  0
 11 10  2  0
 12 11  1  0
 13  6  1  0
 13 15  1  0
 13 14  1  0
 15 14  1  0
 16 15  1  0
 17 18  1  0
 17 16  1  0
 18 16  1  0
 19 18  1  0
 20 19  1  0
 21 22  1  0
 21 20  1  0
 22 23  1  0
 24 23  1  0
 24 19  1  0
  2 25  1  0
  2 26  1  0
  3 27  1  0
  3 28  1  0
  4 29  1  0
  5 30  1  0
  7 31  1  0
  9 32  1  0
 11 33  1  0
 13 34  1  6
 14 35  1  0
 14 36  1  0
 15 37  1  1
 16 38  1  6
 17 39  1  0
 17 40  1  0
 18 41  1  1
 20 42  1  0
 20 43  1  0
 21 44  1  0
 21 45  1  0
 22 46  1  0
 23 47  1  0
 23 48  1  0
 24 49  1  0
 24 50  1  0
M  ISO  8  25  13  26  13  27  13  28  13  30  13  31  14  32  14  33  14
M  ISO  8  34  13  35  13  36  13  37  13  38  13  39  13  40  13  41  13
M  ISO  8  42  13  43  13  44  13  45  13  46   5  47  13  48  13  49  13
M  ISO  1  50  13
M  END
>  <minimizedAffinity>  (1) 
-4.5698657

>  <minimizedRMSD>  (1) 
2.9866662

$$$$
