
     RDKit          3D

 50 55  0  0  1  0  0  0  0  0999 V2000
   37.7730   22.6390   34.6170 C   0  0  2  0  0  0  0  0  0  0  0  0
   37.3320   22.1260   36.0210 C   0  0  0  0  0  0  0  0  0  0  0  0
   37.1360   21.3600   34.7420 C   0  0  1  0  0  0  0  0  0  0  0  0
   39.8610   24.1770   34.6960 N   0  0  0  0  0  0  0  0  0  0  0  0
   41.3140   24.3060   34.7480 C   0  0  0  0  0  0  0  0  0  0  0  0
   42.0320   23.0210   35.0290 C   0  0  0  0  0  0  0  0  0  0  0  0
   41.4270   21.9610   34.3290 N   0  0  0  0  0  0  0  0  0  0  0  0
   40.0200   21.7460   34.4120 C   0  0  0  0  0  0  0  0  0  0  0  0
   39.2100   22.9340   34.6000 C   0  0  0  0  0  0  0  0  0  0  0  0
   38.5800   26.0210   33.6530 C   0  0  0  0  0  0  0  0  0  0  0  0
   39.0800   25.3230   34.7540 C   0  0  0  0  0  0  0  0  0  0  0  0
   38.7340   25.8670   36.0160 C   0  0  0  0  0  0  0  0  0  0  0  0
   37.9760   26.9810   36.1360 N   0  0  0  0  0  0  0  0  0  0  0  0
   37.5300   27.6020   35.0320 C   0  0  0  0  0  0  0  0  0  0  0  0
   37.8260   27.1310   33.8220 N   0  0  0  0  0  0  0  0  0  0  0  0
   35.7600   21.0850   34.2290 C   0  0  2  0  0  0  0  0  0  0  0  0
   35.6630   19.7730   33.4040 C   0  0  0  0  0  0  0  0  0  0  0  0
   35.5110   21.1420   32.7960 C   0  0  2  0  0  0  0  0  0  0  0  0
   36.5550   21.5360   31.8690 N   0  0  0  0  0  0  0  0  0  0  0  0
   37.5170   20.8370   31.2750 C   0  0  0  0  0  0  0  0  0  0  0  0
   38.2690   21.6420   30.4810 N   0  0  0  0  0  0  0  0  0  0  0  0
   37.7840   22.8960   30.5610 C   0  0  0  0  0  0  0  0  0  0  0  0
   38.1460   24.1000   29.9810 C   0  0  0  0  0  0  0  0  0  0  0  0
   39.1150   24.1780   29.1910 O   0  0  0  0  0  0  0  0  0  0  0  0
   37.4260   25.1970   30.2870 N   0  0  0  0  0  0  0  0  0  0  0  0
   36.3900   25.0930   31.1360 C   0  0  0  0  0  0  0  0  0  0  0  0
   35.6770   26.2850   31.4130 N   0  0  0  0  0  0  0  0  0  0  0  0
   36.0240   23.9510   31.7040 N   0  0  0  0  0  0  0  0  0  0  0  0
   36.7160   22.8130   31.4310 C   0  0  0  0  0  0  0  0  0  0  0  0
   37.5794   23.4211   33.8681 H   0  0  0  0  0  0  0  0  0  0  0  0
   38.0793   21.8020   36.7603 H   0  0  0  0  0  0  0  0  0  0  0  0
   36.6978   22.4879   36.8437 H   0  0  0  0  0  0  0  0  0  0  0  0
   37.4219   20.3559   34.3954 H   0  0  0  0  0  0  0  0  0  0  0  0
   41.6617   24.6912   33.7781 H   0  0  0  0  0  0  0  0  0  0  0  0
   41.5427   24.9863   35.5816 H   0  0  0  0  0  0  0  0  0  0  0  0
   43.0809   23.1142   34.7109 H   0  0  0  0  0  0  0  0  0  0  0  0
   41.9828   22.8119   36.1078 H   0  0  0  0  0  0  0  0  0  0  0  0
   42.0058   21.3347   33.7514 H   0  0  0  0  0  0  0  0  0  0  0  0
   39.5767   20.7420   34.3381 H   0  0  0  0  0  0  0  0  0  0  0  0
   38.8019   25.6640   32.6365 H   0  0  0  0  0  0  0  0  0  0  0  0
   39.0935   25.3672   36.9276 H   0  0  0  0  0  0  0  0  0  0  0  0
   36.9143   28.5084   35.1280 H   0  0  0  0  0  0  0  0  0  0  0  0
   35.2540   21.5426   35.0919 H   0  0  0  0  0  0  0  0  0  0  0  0
   36.5615   19.1702   33.2055 H   0  0  0  0  0  0  0  0  0  0  0  0
   35.0670   18.8493   33.4446 H   0  0  0  0  0  0  0  0  0  0  0  0
   34.7402   21.6681   32.2136 H   0  0  0  0  0  0  0  0  0  0  0  0
   37.6810   19.7575   31.4080 H   0  0  0  0  0  0  0  0  0  0  0  0
   37.6681   26.1086   29.8731 H   0  0  0  0  0  0  0  0  0  0  0  0
   34.8731   26.2665   32.0567 H   0  0  0  0  0  0  0  0  0  0  0  0
   35.9624   27.1704   30.9708 H   0  0  0  0  0  0  0  0  0  0  0  0
  1  3  1  0
  1  2  1  0
  3  2  1  0
  4  5  1  0
  4 11  1  0
  5  6  1  0
  7  8  1  0
  7  6  1  0
  8  9  2  0
  9  1  1  0
  9  4  1  0
 10 15  2  0
 10 11  1  0
 11 12  2  0
 12 13  1  0
 14 13  2  0
 15 14  1  0
 16  3  1  0
 17 16  1  0
 18 17  1  0
 18 16  1  0
 19 18  1  0
 20 19  1  0
 21 22  1  0
 21 20  2  0
 22 29  2  0
 23 25  1  0
 23 22  1  0
 24 23  2  0
 25 26  1  0
 26 27  1  0
 26 28  2  0
 29 28  1  0
 29 19  1  0
  1 30  1  6
  2 31  1  0
  2 32  1  0
  3 33  1  1
  5 34  1  0
  5 35  1  0
  6 36  1  0
  6 37  1  0
  7 38  1  0
  8 39  1  0
 10 40  1  0
 12 41  1  0
 14 42  1  0
 16 43  1  1
 17 44  1  0
 17 45  1  0
 18 46  1  1
 20 47  1  0
 25 48  1  0
 27 49  1  0
 27 50  1  0
M  ISO  8  30  13  31  13  32  13  33  13  34  13  35  13  36  13  37  13
M  ISO  8  39  13  40  14  41  14  42  14  43  13  44  13  45  13  46  13
M  ISO  2  47  14  48   9
M  END
>  <minimizedAffinity>  (1) 
-5.23712063

>  <minimizedRMSD>  (1) 
1.12779927

$$$$
