
     RDKit          3D

 45 48  0  0  1  0  0  0  0  0999 V2000
   39.4940   24.5350   33.3690 N   0  0  0  0  0  0  0  0  0  0  0  0
   40.8380   24.8630   32.8940 C   0  0  0  0  0  0  0  0  0  0  0  0
   41.7210   23.6770   32.6940 C   0  0  0  0  0  0  0  0  0  0  0  0
   41.0070   22.5970   32.1630 N   0  0  0  0  0  0  0  0  0  0  0  0
   39.7630   22.1880   32.7180 C   0  0  0  0  0  0  0  0  0  0  0  0
   38.9730   23.2310   33.3440 C   0  0  0  0  0  0  0  0  0  0  0  0
   37.6810   26.2120   33.1850 C   0  0  0  0  0  0  0  0  0  0  0  0
   38.6990   25.5520   33.8780 C   0  0  0  0  0  0  0  0  0  0  0  0
   38.8940   25.9930   35.2120 C   0  0  0  0  0  0  0  0  0  0  0  0
   38.1480   26.9780   35.7610 N   0  0  0  0  0  0  0  0  0  0  0  0
   37.1860   27.5680   35.0290 C   0  0  0  0  0  0  0  0  0  0  0  0
   36.9600   27.1930   33.7730 N   0  0  0  0  0  0  0  0  0  0  0  0
   37.6810   22.7450   33.8330 C   0  0  2  0  0  0  0  0  0  0  0  0
   37.8400   21.9790   35.1750 C   0  0  0  0  0  0  0  0  0  0  0  0
   37.2370   21.3860   33.9310 C   0  0  1  0  0  0  0  0  0  0  0  0
   35.7970   21.0010   33.8850 C   0  0  2  0  0  0  0  0  0  0  0  0
   35.5060   19.6790   33.1690 C   0  0  0  0  0  0  0  0  0  0  0  0
   35.0550   21.0380   32.6480 C   0  0  2  0  0  0  0  0  0  0  0  0
   35.5160   21.4420   31.2960 C   0  0  0  0  0  0  0  0  0  0  0  0
   35.8030   22.9100   31.1150 C   0  0  0  0  0  0  0  0  0  0  0  0
   36.7770   20.6450   30.9140 C   0  0  0  0  0  0  0  0  0  0  0  0
   40.7454   25.3904   31.9331 H   0  0  0  0  0  0  0  0  0  0  0  0
   41.3079   25.4797   33.6743 H   0  0  0  0  0  0  0  0  0  0  0  0
   42.5317   23.9463   32.0011 H   0  0  0  0  0  0  0  0  0  0  0  0
   42.1284   23.3780   33.6710 H   0  0  0  0  0  0  0  0  0  0  0  0
   41.3902   22.0879   31.3537 H   0  0  0  0  0  0  0  0  0  0  0  0
   39.4206   21.1435   32.6751 H   0  0  0  0  0  0  0  0  0  0  0  0
   37.4627   25.9290   32.1447 H   0  0  0  0  0  0  0  0  0  0  0  0
   39.6780   25.5179   35.8199 H   0  0  0  0  0  0  0  0  0  0  0  0
   36.5791   28.3701   35.4743 H   0  0  0  0  0  0  0  0  0  0  0  0
   37.1619   23.5986   33.3727 H   0  0  0  0  0  0  0  0  0  0  0  0
   38.8329   21.6595   35.5245 H   0  0  0  0  0  0  0  0  0  0  0  0
   37.5355   22.1250   36.2219 H   0  0  0  0  0  0  0  0  0  0  0  0
   37.4477   20.4895   33.3294 H   0  0  0  0  0  0  0  0  0  0  0  0
   35.5976   21.4431   34.8723 H   0  0  0  0  0  0  0  0  0  0  0  0
   36.3124   19.1259   32.6653 H   0  0  0  0  0  0  0  0  0  0  0  0
   35.0268   18.7220   33.4229 H   0  0  0  0  0  0  0  0  0  0  0  0
   34.1246   21.5738   32.4086 H   0  0  0  0  0  0  0  0  0  0  0  0
   34.6654   21.2173   30.6356 H   0  0  0  0  0  0  0  0  0  0  0  0
   35.8967   23.3895   32.1005 H   0  0  0  0  0  0  0  0  0  0  0  0
   36.7423   23.0338   30.5562 H   0  0  0  0  0  0  0  0  0  0  0  0
   34.9794   23.3784   30.5562 H   0  0  0  0  0  0  0  0  0  0  0  0
   37.2947   20.3178   31.8277 H   0  0  0  0  0  0  0  0  0  0  0  0
   36.4887   19.7647   30.3207 H   0  0  0  0  0  0  0  0  0  0  0  0
   37.4484   21.2832   30.3207 H   0  0  0  0  0  0  0  0  0  0  0  0
  1  8  1  0
  2  1  1  0
  3  2  1  0
  4  3  1  0
  4  5  1  0
  5  6  2  0
  6  1  1  0
  6 13  1  0
  7 12  2  0
  7  8  1  0
  8  9  2  0
  9 10  1  0
 11 10  2  0
 12 11  1  0
 13 15  1  0
 13 14  1  0
 15 14  1  0
 16 15  1  0
 17 16  1  0
 18 17  1  0
 18 16  1  0
 19 18  1  0
 20 19  1  0
 21 19  1  0
  2 22  1  0
  2 23  1  0
  3 24  1  0
  3 25  1  0
  4 26  1  0
  5 27  1  0
  7 28  1  0
  9 29  1  0
 11 30  1  0
 13 31  1  1
 14 32  1  0
 14 33  1  0
 15 34  1  6
 16 35  1  1
 17 36  1  0
 17 37  1  0
 18 38  1  1
 19 39  1  0
 20 40  1  0
 20 41  1  0
 20 42  1  0
 21 43  1  0
 21 44  1  0
 21 45  1  0
M  ISO  8  22  13  23  13  24  13  25  13  27  13  28  14  29  14  30  14
M  ISO  8  31  13  32  13  33  13  34  13  35  13  36  13  37  13  38  13
M  ISO  7  39   8  40   8  41   8  42   8  43   8  44   8  45   8
M  END
>  <minimizedAffinity>  (1) 
-4.41104221

>  <minimizedRMSD>  (1) 
0.614133954

$$$$
