
     RDKit          3D

 48 52  0  0  1  0  0  0  0  0999 V2000
   42.8010   24.9910   34.6720 N   0  0  0  0  0  0  0  0  0  0  0  0
   44.1250   25.0380   35.2960 C   0  0  0  0  0  0  0  0  0  0  0  0
   44.1610   24.4850   36.6890 C   0  0  0  0  0  0  0  0  0  0  0  0
   43.3650   23.3290   36.7790 N   0  0  0  0  0  0  0  0  0  0  0  0
   42.0250   23.3240   36.2920 C   0  0  0  0  0  0  0  0  0  0  0  0
   41.7530   24.2060   35.1740 C   0  0  0  0  0  0  0  0  0  0  0  0
   42.6660   25.3170   32.2210 C   0  0  0  0  0  0  0  0  0  0  0  0
   42.5650   25.7610   33.5430 C   0  0  0  0  0  0  0  0  0  0  0  0
   42.1870   27.1210   33.6870 C   0  0  0  0  0  0  0  0  0  0  0  0
   41.9440   27.9200   32.6260 N   0  0  0  0  0  0  0  0  0  0  0  0
   42.0600   27.4280   31.3820 C   0  0  0  0  0  0  0  0  0  0  0  0
   42.4110   26.1580   31.1940 N   0  0  0  0  0  0  0  0  0  0  0  0
   40.3680   24.0990   34.6970 C   0  0  2  0  0  0  0  0  0  0  0  0
   39.4740   25.1950   35.3470 C   0  0  0  0  0  0  0  0  0  0  0  0
   39.2030   23.7210   35.4430 C   0  0  1  0  0  0  0  0  0  0  0  0
   37.9840   23.1360   34.8060 C   0  0  2  0  0  0  0  0  0  0  0  0
   37.4310   21.8960   35.5660 C   0  0  0  0  0  0  0  0  0  0  0  0
   38.0720   21.8030   34.2120 C   0  0  1  0  0  0  0  0  0  0  0  0
   37.3240   21.3670   33.0930 N   0  0  0  0  0  0  0  0  0  0  0  0
   37.1400   22.2790   32.0180 C   0  0  0  0  0  0  0  0  0  0  0  0
   35.9100   21.7420   31.2990 C   0  0  0  0  0  0  0  0  0  0  0  0
   35.0370   21.3630   32.4730 C   0  0  0  0  0  0  0  0  0  0  0  0
   36.0370   20.8850   33.4990 C   0  0  0  0  0  0  0  0  0  0  0  0
   44.8215   24.4561   34.6744 H   0  0  0  0  0  0  0  0  0  0  0  0
   44.4067   26.0990   35.3667 H   0  0  0  0  0  0  0  0  0  0  0  0
   45.1987   24.2317   36.9516 H   0  0  0  0  0  0  0  0  0  0  0  0
   43.7692   25.2426   37.3836 H   0  0  0  0  0  0  0  0  0  0  0  0
   43.7552   22.4749   37.2022 H   0  0  0  0  0  0  0  0  0  0  0  0
   41.2448   22.6894   36.7376 H   0  0  0  0  0  0  0  0  0  0  0  0
   42.9551   24.2758   32.0153 H   0  0  0  0  0  0  0  0  0  0  0  0
   42.0884   27.5395   34.6995 H   0  0  0  0  0  0  0  0  0  0  0  0
   41.8643   28.0767   30.5155 H   0  0  0  0  0  0  0  0  0  0  0  0
   40.7085   23.7050   33.7281 H   0  0  0  0  0  0  0  0  0  0  0  0
   39.8258   25.7590   36.2234 H   0  0  0  0  0  0  0  0  0  0  0  0
   38.9298   26.0893   35.0092 H   0  0  0  0  0  0  0  0  0  0  0  0
   39.0569   23.0173   36.2758 H   0  0  0  0  0  0  0  0  0  0  0  0
   37.6036   24.0989   34.4344 H   0  0  0  0  0  0  0  0  0  0  0  0
   37.9494   21.5105   36.4563 H   0  0  0  0  0  0  0  0  0  0  0  0
   36.4695   21.6011   36.0117 H   0  0  0  0  0  0  0  0  0  0  0  0
   38.9185   21.2484   33.7808 H   0  0  0  0  0  0  0  0  0  0  0  0
   36.9620   23.2976   32.3933 H   0  0  0  0  0  0  0  0  0  0  0  0
   38.0207   22.3505   31.3628 H   0  0  0  0  0  0  0  0  0  0  0  0
   35.4364   22.5145   30.6754 H   0  0  0  0  0  0  0  0  0  0  0  0
   36.1153   20.9178   30.6000 H   0  0  0  0  0  0  0  0  0  0  0  0
   34.4743   22.2322   32.8443 H   0  0  0  0  0  0  0  0  0  0  0  0
   34.2776   20.6075   32.2227 H   0  0  0  0  0  0  0  0  0  0  0  0
   36.0412   19.7857   33.5375 H   0  0  0  0  0  0  0  0  0  0  0  0
   35.7780   21.2591   34.5005 H   0  0  0  0  0  0  0  0  0  0  0  0
  1  6  1  0
  1  2  1  0
  2  3  1  0
  3  4  1  0
  5  4  1  0
  6  5  2  0
  7  8  2  0
  8  9  1  0
  8  1  1  0
 10  9  2  0
 11 10  1  0
 12 11  2  0
 12  7  1  0
 13  6  1  0
 13 14  1  0
 13 15  1  0
 14 15  1  0
 16 15  1  0
 16 17  1  0
 18 16  1  0
 18 17  1  0
 19 20  1  0
 19 23  1  0
 19 18  1  0
 21 20  1  0
 21 22  1  0
 22 23  1  0
  2 24  1  0
  2 25  1  0
  3 26  1  0
  3 27  1  0
  4 28  1  0
  5 29  1  0
  7 30  1  0
  9 31  1  0
 11 32  1  0
 13 33  1  6
 14 34  1  0
 14 35  1  0
 15 36  1  1
 16 37  1  6
 17 38  1  0
 17 39  1  0
 18 40  1  1
 20 41  1  0
 20 42  1  0
 21 43  1  0
 21 44  1  0
 22 45  1  0
 22 46  1  0
 23 47  1  0
 23 48  1  0
M  ISO  8  24  13  25  13  26  13  27  13  29  13  30  14  31  14  32  14
M  ISO  8  33  13  34  13  35  13  36  13  37  13  38  13  39  13  40  13
M  ISO  8  41  13  42  13  43  13  44  13  45  13  46  13  47  13  48  13
M  END
>  <minimizedAffinity>  (1) 
-4.27554035

>  <minimizedRMSD>  (1) 
4.21682167

$$$$
