
     RDKit          3D

 47 52  0  0  1  0  0  0  0  0999 V2000
   39.0640   23.7120   34.3570 C   0  0  2  0  0  0  0  0  0  0  0  0
   39.0510   25.2560   34.1440 C   0  0  0  0  0  0  0  0  0  0  0  0
   38.0070   24.3200   33.6000 C   0  0  1  0  0  0  0  0  0  0  0  0
   40.1620   23.0050   36.5960 N   0  0  0  0  0  0  0  0  0  0  0  0
   40.0310   22.7680   38.0320 C   0  0  0  0  0  0  0  0  0  0  0  0
   38.7560   23.2930   38.6240 C   0  0  0  0  0  0  0  0  0  0  0  0
   37.6780   23.0660   37.7540 N   0  0  0  0  0  0  0  0  0  0  0  0
   37.7570   23.4300   36.3790 C   0  0  0  0  0  0  0  0  0  0  0  0
   39.0790   23.3840   35.7840 C   0  0  0  0  0  0  0  0  0  0  0  0
   41.9290   21.6760   35.4830 C   0  0  0  0  0  0  0  0  0  0  0  0
   41.4080   22.8630   36.0030 C   0  0  0  0  0  0  0  0  0  0  0  0
   42.2640   23.9890   35.8930 C   0  0  0  0  0  0  0  0  0  0  0  0
   43.4870   23.9110   35.3260 N   0  0  0  0  0  0  0  0  0  0  0  0
   43.9250   22.7350   34.8460 C   0  0  0  0  0  0  0  0  0  0  0  0
   43.1600   21.6490   34.9250 N   0  0  0  0  0  0  0  0  0  0  0  0
   37.8600   24.1440   32.1240 C   0  0  2  0  0  0  0  0  0  0  0  0
   36.6290   23.2920   31.7250 C   0  0  0  0  0  0  0  0  0  0  0  0
   38.0390   22.8140   31.5530 C   0  0  1  0  0  0  0  0  0  0  0  0
   38.6520   22.7480   30.2590 N   0  0  0  0  0  0  0  0  0  0  0  0
   38.8620   23.8470   29.5120 C   0  0  0  0  0  0  0  0  0  0  0  0
   39.4450   23.4760   28.3630 N   0  0  0  0  0  0  0  0  0  0  0  0
   39.5950   22.1360   28.4050 C   0  0  0  0  0  0  0  0  0  0  0  0
   40.1300   21.2070   27.5100 C   0  0  0  0  0  0  0  0  0  0  0  0
   40.1590   19.8820   27.8040 N   0  0  0  0  0  0  0  0  0  0  0  0
   39.6500   19.4820   29.0040 C   0  0  0  0  0  0  0  0  0  0  0  0
   39.1310   20.3650   29.8760 N   0  0  0  0  0  0  0  0  0  0  0  0
   39.0900   21.6640   29.6140 C   0  0  0  0  0  0  0  0  0  0  0  0
   39.6280   22.7982   34.1186 H   0  0  0  0  0  0  0  0  0  0  0  0
   38.8164   25.9354   34.9767 H   0  0  0  0  0  0  0  0  0  0  0  0
   39.7364   26.0148   33.7385 H   0  0  0  0  0  0  0  0  0  0  0  0
   36.9120   24.2535   33.6814 H   0  0  0  0  0  0  0  0  0  0  0  0
   40.0733   21.6831   38.2087 H   0  0  0  0  0  0  0  0  0  0  0  0
   40.8548   23.3094   38.5201 H   0  0  0  0  0  0  0  0  0  0  0  0
   38.5636   22.7824   39.5791 H   0  0  0  0  0  0  0  0  0  0  0  0
   38.8594   24.3761   38.7860 H   0  0  0  0  0  0  0  0  0  0  0  0
   36.8175   22.6300   38.1150 H   0  0  0  0  0  0  0  0  0  0  0  0
   36.8686   23.7281   35.8030 H   0  0  0  0  0  0  0  0  0  0  0  0
   41.3314   20.7536   35.5280 H   0  0  0  0  0  0  0  0  0  0  0  0
   41.9198   24.9583   36.2828 H   0  0  0  0  0  0  0  0  0  0  0  0
   44.9216   22.6695   34.3851 H   0  0  0  0  0  0  0  0  0  0  0  0
   38.2805   25.1296   31.8753 H   0  0  0  0  0  0  0  0  0  0  0  0
   35.9812   22.8519   32.4975 H   0  0  0  0  0  0  0  0  0  0  0  0
   35.7497   23.4217   31.0769 H   0  0  0  0  0  0  0  0  0  0  0  0
   38.5379   21.8843   31.8641 H   0  0  0  0  0  0  0  0  0  0  0  0
   38.5995   24.8768   29.7961 H   0  0  0  0  0  0  0  0  0  0  0  0
   40.5355   21.5555   26.5487 H   0  0  0  0  0  0  0  0  0  0  0  0
   39.6641   18.4135   29.2648 H   0  0  0  0  0  0  0  0  0  0  0  0
  1  9  1  0
  2  1  1  0
  3  2  1  0
  3  1  1  0
  4  5  1  0
  5  6  1  0
  7  6  1  0
  8  7  1  0
  9  8  2  0
  9  4  1  0
 10 11  2  0
 11  4  1  0
 12 11  1  0
 13 12  2  0
 14 15  2  0
 14 13  1  0
 15 10  1  0
 16  3  1  0
 17 16  1  0
 18 17  1  0
 18 16  1  0
 19 18  1  0
 20 19  1  0
 21 22  1  0
 21 20  2  0
 22 27  2  0
 23 24  2  0
 23 22  1  0
 24 25  1  0
 25 26  2  0
 27 26  1  0
 27 19  1  0
  1 28  1  6
  2 29  1  0
  2 30  1  0
  3 31  1  1
  5 32  1  0
  5 33  1  0
  6 34  1  0
  6 35  1  0
  7 36  1  0
  8 37  1  0
 10 38  1  0
 12 39  1  0
 14 40  1  0
 16 41  1  6
 17 42  1  0
 17 43  1  0
 18 44  1  1
 20 45  1  0
 23 46  1  0
 25 47  1  0
M  ISO  8  28  13  29  13  30  13  31  13  32  13  33  13  34  13  35  13
M  ISO  8  37  13  38  14  39  14  40  14  41  13  42  13  43  13  44  13
M  ISO  3  45  14  46  14  47  14
M  END
>  <minimizedAffinity>  (1) 
-4.262918

>  <minimizedRMSD>  (1) 
6.26797199

$$$$
