
     RDKit          3D

 37 40  0  0  1  0  0  0  0  0999 V2000
   39.9350   25.0700   34.3090 N   0  0  0  0  0  0  0  0  0  0  0  0
   41.3550   25.4180   34.3710 C   0  0  0  0  0  0  0  0  0  0  0  0
   42.2550   24.2530   34.6470 C   0  0  0  0  0  0  0  0  0  0  0  0
   41.8200   23.1170   33.9430 N   0  0  0  0  0  0  0  0  0  0  0  0
   40.4600   22.6960   34.0020 C   0  0  0  0  0  0  0  0  0  0  0  0
   39.4790   23.7480   34.1890 C   0  0  0  0  0  0  0  0  0  0  0  0
   38.2260   26.5640   33.3150 C   0  0  0  0  0  0  0  0  0  0  0  0
   38.9930   26.0860   34.3810 C   0  0  0  0  0  0  0  0  0  0  0  0
   38.7530   26.7260   35.6260 C   0  0  0  0  0  0  0  0  0  0  0  0
   37.8500   27.7230   35.7660 N   0  0  0  0  0  0  0  0  0  0  0  0
   37.1460   28.1290   34.6850 C   0  0  0  0  0  0  0  0  0  0  0  0
   37.3340   27.5610   33.4960 N   0  0  0  0  0  0  0  0  0  0  0  0
   38.1020   23.2420   34.1820 C   0  0  2  0  0  0  0  0  0  0  0  0
   37.7670   22.5320   35.5270 C   0  0  0  0  0  0  0  0  0  0  0  0
   37.6650   21.8770   34.1770 C   0  0  1  0  0  0  0  0  0  0  0  0
   36.3340   21.4480   33.6500 C   0  0  2  0  0  0  0  0  0  0  0  0
   35.6220   20.4050   34.5530 C   0  0  0  0  0  0  0  0  0  0  0  0
   36.1620   20.0770   33.1890 C   0  0  1  0  0  0  0  0  0  0  0  0
   34.9400   19.6890   31.8900 S   0  0  0  0  0  0  0  0  0  0  0  0
   41.6457   25.8590   33.4061 H   0  0  0  0  0  0  0  0  0  0  0  0
   41.4750   26.1193   35.2099 H   0  0  0  0  0  0  0  0  0  0  0  0
   43.2787   24.5039   34.3322 H   0  0  0  0  0  0  0  0  0  0  0  0
   42.2325   24.0337   35.7247 H   0  0  0  0  0  0  0  0  0  0  0  0
   42.4934   22.5815   33.3767 H   0  0  0  0  0  0  0  0  0  0  0  0
   40.1718   21.6383   33.9113 H   0  0  0  0  0  0  0  0  0  0  0  0
   38.3508   26.1221   32.3154 H   0  0  0  0  0  0  0  0  0  0  0  0
   39.3223   26.3988   36.5085 H   0  0  0  0  0  0  0  0  0  0  0  0
   36.4088   28.9387   34.7897 H   0  0  0  0  0  0  0  0  0  0  0  0
   37.7807   24.0581   33.5182 H   0  0  0  0  0  0  0  0  0  0  0  0
   38.5669   22.2514   36.2280 H   0  0  0  0  0  0  0  0  0  0  0  0
   37.1005   22.7109   36.3836 H   0  0  0  0  0  0  0  0  0  0  0  0
   38.0919   20.9696   33.7249 H   0  0  0  0  0  0  0  0  0  0  0  0
   36.1032   22.4229   33.1958 H   0  0  0  0  0  0  0  0  0  0  0  0
   36.1162   20.0190   35.4568 H   0  0  0  0  0  0  0  0  0  0  0  0
   34.6512   20.3263   35.0643 H   0  0  0  0  0  0  0  0  0  0  0  0
   36.8725   19.3383   32.7895 H   0  0  0  0  0  0  0  0  0  0  0  0
   33.7581   19.3137   32.4723 H   0  0  0  0  0  0  0  0  0  0  0  0
  1  2  1  0
  1  8  1  0
  2  3  1  0
  4  5  1  0
  4  3  1  0
  5  6  2  0
  6  1  1  0
  7 12  2  0
  7  8  1  0
  8  9  2  0
  9 10  1  0
 11 10  2  0
 12 11  1  0
 13  6  1  0
 13 14  1  0
 15 13  1  0
 15 14  1  0
 16 15  1  0
 16 17  1  0
 18 16  1  0
 18 17  1  0
 19 18  1  0
  2 20  1  0
  2 21  1  0
  3 22  1  0
  3 23  1  0
  4 24  1  0
  5 25  1  0
  7 26  1  0
  9 27  1  0
 11 28  1  0
 13 29  1  6
 14 30  1  0
 14 31  1  0
 15 32  1  1
 16 33  1  6
 17 34  1  0
 17 35  1  0
 18 36  1  1
 19 37  1  0
M  ISO  8  20  13  21  13  22  13  23  13  25  13  26  14  27  14  28  14
M  ISO  8  29  13  30  13  31  13  32  13  33  13  34  13  35  13  36  13
M  ISO  1  37  11
M  END
>  <minimizedAffinity>  (1) 
-3.62386513

>  <minimizedRMSD>  (1) 
1.28398764

$$$$
