
     RDKit          3D

 49 53  0  0  1  0  0  0  0  0999 V2000
   40.2590   23.9570   30.1340 N   0  0  0  0  0  0  0  0  0  0  0  0
   40.9890   23.7460   28.8820 C   0  0  0  0  0  0  0  0  0  0  0  0
   40.9170   22.3350   28.3700 C   0  0  0  0  0  0  0  0  0  0  0  0
   39.6160   21.8270   28.5340 N   0  0  0  0  0  0  0  0  0  0  0  0
   38.9510   21.9130   29.7920 C   0  0  0  0  0  0  0  0  0  0  0  0
   39.3030   23.0530   30.6190 C   0  0  0  0  0  0  0  0  0  0  0  0
   39.9730   26.3580   30.6630 C   0  0  0  0  0  0  0  0  0  0  0  0
   40.5280   25.0940   30.8810 C   0  0  0  0  0  0  0  0  0  0  0  0
   41.4350   25.0220   31.9710 C   0  0  0  0  0  0  0  0  0  0  0  0
   41.7330   26.0980   32.7330 N   0  0  0  0  0  0  0  0  0  0  0  0
   41.1590   27.2830   32.4610 C   0  0  0  0  0  0  0  0  0  0  0  0
   40.3020   27.4040   31.4520 N   0  0  0  0  0  0  0  0  0  0  0  0
   38.5360   23.1000   31.8670 C   0  0  2  0  0  0  0  0  0  0  0  0
   37.0250   23.3530   31.5830 C   0  0  0  0  0  0  0  0  0  0  0  0
   37.8780   24.2300   32.4590 C   0  0  1  0  0  0  0  0  0  0  0  0
   37.5940   24.3340   33.9220 C   0  0  2  0  0  0  0  0  0  0  0  0
   38.0800   25.6690   34.5490 C   0  0  0  0  0  0  0  0  0  0  0  0
   38.7120   24.3420   34.8580 C   0  0  1  0  0  0  0  0  0  0  0  0
   38.5430   23.7120   36.1110 N   0  0  0  0  0  0  0  0  0  0  0  0
   39.4540   22.7370   36.5090 C   0  0  0  0  0  0  0  0  0  0  0  0
   39.8100   22.8760   37.9660 C   0  0  0  0  0  0  0  0  0  0  0  0
   38.6880   23.1100   38.7320 O   0  0  0  0  0  0  0  0  0  0  0  0
   38.0070   24.2520   38.3540 C   0  0  0  0  0  0  0  0  0  0  0  0
   37.4820   24.0710   36.9420 C   0  0  0  0  0  0  0  0  0  0  0  0
   40.5670   24.4147   28.1173 H   0  0  0  0  0  0  0  0  0  0  0  0
   42.0483   23.9590   29.0882 H   0  0  0  0  0  0  0  0  0  0  0  0
   41.6258   21.7079   28.9307 H   0  0  0  0  0  0  0  0  0  0  0  0
   41.1745   22.3266   27.3006 H   0  0  0  0  0  0  0  0  0  0  0  0
   39.1375   21.3872   27.7350 H   0  0  0  0  0  0  0  0  0  0  0  0
   38.2161   21.1615   30.1162 H   0  0  0  0  0  0  0  0  0  0  0  0
   39.2593   26.5029   29.8386 H   0  0  0  0  0  0  0  0  0  0  0  0
   41.9113   24.0580   32.2032 H   0  0  0  0  0  0  0  0  0  0  0  0
   41.4007   28.1603   33.0790 H   0  0  0  0  0  0  0  0  0  0  0  0
   39.2317   22.3945   32.3448 H   0  0  0  0  0  0  0  0  0  0  0  0
   36.6906   23.7024   30.5950 H   0  0  0  0  0  0  0  0  0  0  0  0
   36.0853   22.7903   31.6849 H   0  0  0  0  0  0  0  0  0  0  0  0
   38.1241   25.3020   32.4716 H   0  0  0  0  0  0  0  0  0  0  0  0
   36.6627   23.7506   33.8733 H   0  0  0  0  0  0  0  0  0  0  0  0
   38.6125   26.4118   33.9370 H   0  0  0  0  0  0  0  0  0  0  0  0
   37.6263   26.4874   35.1272 H   0  0  0  0  0  0  0  0  0  0  0  0
   39.7560   23.9969   34.8266 H   0  0  0  0  0  0  0  0  0  0  0  0
   39.0105   21.7442   36.3425 H   0  0  0  0  0  0  0  0  0  0  0  0
   40.3723   22.8601   35.9161 H   0  0  0  0  0  0  0  0  0  0  0  0
   40.2912   21.9479   38.3082 H   0  0  0  0  0  0  0  0  0  0  0  0
   40.4934   23.7306   38.0782 H   0  0  0  0  0  0  0  0  0  0  0  0
   37.1652   24.4236   39.0410 H   0  0  0  0  0  0  0  0  0  0  0  0
   38.6851   25.1174   38.3897 H   0  0  0  0  0  0  0  0  0  0  0  0
   37.0382   25.0135   36.5888 H   0  0  0  0  0  0  0  0  0  0  0  0
   36.7127   23.2849   36.9270 H   0  0  0  0  0  0  0  0  0  0  0  0
  1  6  1  0
  1  8  1  0
  2  1  1  0
  3  4  1  0
  3  2  1  0
  4  5  1  0
  5  6  2  0
  6 13  1  0
  7  8  2  0
  7 12  1  0
  8  9  1  0
  9 10  2  0
 11 10  1  0
 12 11  2  0
 13 15  1  0
 14 13  1  0
 14 15  1  0
 15 16  1  0
 16 17  1  0
 16 18  1  0
 17 18  1  0
 18 19  1  0
 19 20  1  0
 19 24  1  0
 20 21  1  0
 21 22  1  0
 23 22  1  0
 24 23  1  0
  2 25  1  0
  2 26  1  0
  3 27  1  0
  3 28  1  0
  4 29  1  0
  5 30  1  0
  7 31  1  0
  9 32  1  0
 11 33  1  0
 13 34  1  1
 14 35  1  0
 14 36  1  0
 15 37  1  6
 16 38  1  1
 17 39  1  0
 17 40  1  0
 18 41  1  6
 20 42  1  0
 20 43  1  0
 21 44  1  0
 21 45  1  0
 23 46  1  0
 23 47  1  0
 24 48  1  0
 24 49  1  0
M  ISO  8  25  13  26  13  27  13  28  13  30  13  31  14  32  14  33  14
M  ISO  8  34  13  35  13  36  13  37  13  38  13  39  13  40  13  41  13
M  ISO  8  42  13  43  13  44  13  45  13  46  13  47  13  48  13  49  13
M  END
>  <minimizedAffinity>  (1) 
-3.75514102

>  <minimizedRMSD>  (1) 
5.59464884

$$$$
