
     RDKit          3D

 53 58  0  0  1  0  0  0  0  0999 V2000
   37.7920   22.7530   34.3310 C   0  0  2  0  0  0  0  0  0  0  0  0
   37.6010   22.2240   35.7880 C   0  0  0  0  0  0  0  0  0  0  0  0
   37.2640   21.4500   34.5380 C   0  0  1  0  0  0  0  0  0  0  0  0
   39.8070   24.3830   34.1260 N   0  0  0  0  0  0  0  0  0  0  0  0
   41.2400   24.5780   33.9000 C   0  0  0  0  0  0  0  0  0  0  0  0
   42.0450   23.3100   34.0130 C   0  0  0  0  0  0  0  0  0  0  0  0
   41.3600   22.2450   33.4040 N   0  0  0  0  0  0  0  0  0  0  0  0
   40.0010   21.9820   33.7090 C   0  0  0  0  0  0  0  0  0  0  0  0
   39.1910   23.1240   34.0840 C   0  0  0  0  0  0  0  0  0  0  0  0
   38.2760   26.2010   33.4750 C   0  0  0  0  0  0  0  0  0  0  0  0
   39.0200   25.4810   34.3980 C   0  0  0  0  0  0  0  0  0  0  0  0
   38.9260   25.9650   35.7390 C   0  0  0  0  0  0  0  0  0  0  0  0
   38.1710   27.0370   36.0630 N   0  0  0  0  0  0  0  0  0  0  0  0
   37.4850   27.6760   35.1180 C   0  0  0  0  0  0  0  0  0  0  0  0
   37.5360   27.2670   33.8510 N   0  0  0  0  0  0  0  0  0  0  0  0
   35.8560   21.0850   34.2830 C   0  0  2  0  0  0  0  0  0  0  0  0
   35.5930   19.7890   33.5100 C   0  0  0  0  0  0  0  0  0  0  0  0
   35.3320   21.0950   32.8970 C   0  0  2  0  0  0  0  0  0  0  0  0
   36.1910   21.4090   31.7110 C   0  0  0  0  0  0  0  0  0  0  0  0
   35.8290   22.3930   30.9830 O   0  0  0  0  0  0  0  0  0  0  0  0
   37.3460   20.7190   31.3190 O   0  0  0  0  0  0  0  0  0  0  0  0
   37.2300   19.8730   30.2040 C   0  0  0  0  0  0  0  0  0  0  0  0
   36.3100   18.8980   29.9970 C   0  0  0  0  0  0  0  0  0  0  0  0
   36.5900   18.3540   28.7950 N   0  0  0  0  0  0  0  0  0  0  0  0
   37.6460   18.9720   28.2800 C   0  0  0  0  0  0  0  0  0  0  0  0
   38.2500   18.7180   27.0710 C   0  0  0  0  0  0  0  0  0  0  0  0
   39.3580   19.5010   26.7320 C   0  0  0  0  0  0  0  0  0  0  0  0
   39.8260   20.4830   27.5690 C   0  0  0  0  0  0  0  0  0  0  0  0
   39.2180   20.7370   28.7840 C   0  0  0  0  0  0  0  0  0  0  0  0
   38.1210   19.9720   29.1330 C   0  0  0  0  0  0  0  0  0  0  0  0
   37.4390   23.5244   33.6308 H   0  0  0  0  0  0  0  0  0  0  0  0
   38.4687   21.9473   36.4048 H   0  0  0  0  0  0  0  0  0  0  0  0
   37.0785   22.5476   36.7003 H   0  0  0  0  0  0  0  0  0  0  0  0
   37.5589   20.4770   34.1182 H   0  0  0  0  0  0  0  0  0  0  0  0
   41.6152   25.2959   34.6443 H   0  0  0  0  0  0  0  0  0  0  0  0
   41.3577   24.9447   32.8696 H   0  0  0  0  0  0  0  0  0  0  0  0
   43.0156   23.4501   33.5148 H   0  0  0  0  0  0  0  0  0  0  0  0
   42.1994   23.0762   35.0767 H   0  0  0  0  0  0  0  0  0  0  0  0
   41.8528   21.6465   32.7258 H   0  0  0  0  0  0  0  0  0  0  0  0
   39.5833   20.9654   33.6635 H   0  0  0  0  0  0  0  0  0  0  0  0
   38.2887   25.8985   32.4175 H   0  0  0  0  0  0  0  0  0  0  0  0
   39.4861   25.4484   36.5324 H   0  0  0  0  0  0  0  0  0  0  0  0
   36.8711   28.5487   35.3853 H   0  0  0  0  0  0  0  0  0  0  0  0
   35.5341   21.5303   35.2359 H   0  0  0  0  0  0  0  0  0  0  0  0
   36.4353   19.1736   33.1610 H   0  0  0  0  0  0  0  0  0  0  0  0
   35.0047   18.8769   33.6888 H   0  0  0  0  0  0  0  0  0  0  0  0
   34.4745   21.6287   32.4613 H   0  0  0  0  0  0  0  0  0  0  0  0
   35.4951   18.6078   30.6765 H   0  0  0  0  0  0  0  0  0  0  0  0
   36.0696   17.5848   28.3495 H   0  0  0  0  0  0  0  0  0  0  0  0
   37.8771   17.9315   26.3984 H   0  0  0  0  0  0  0  0  0  0  0  0
   39.8662   19.3258   25.7723 H   0  0  0  0  0  0  0  0  0  0  0  0
   40.7004   21.0784   27.2675 H   0  0  0  0  0  0  0  0  0  0  0  0
   39.5958   21.5242   29.4530 H   0  0  0  0  0  0  0  0  0  0  0  0
  1  3  1  0
  1  2  1  0
  3  2  1  0
  4 11  1  0
  5  6  1  0
  5  4  1  0
  7  8  1  0
  7  6  1  0
  8  9  2  0
  9  4  1  0
  9  1  1  0
 10 15  2  0
 10 11  1  0
 11 12  2  0
 12 13  1  0
 14 13  2  0
 15 14  1  0
 16  3  1  0
 17 16  1  0
 18 17  1  0
 18 16  1  0
 19 18  1  0
 20 19  2  0
 21 19  1  0
 22 21  1  0
 23 22  2  0
 24 23  1  0
 25 24  1  0
 25 30  2  0
 26 25  1  0
 27 26  2  0
 27 28  1  0
 28 29  2  0
 29 30  1  0
 30 22  1  0
  1 31  1  1
  2 32  1  0
  2 33  1  0
  3 34  1  6
  5 35  1  0
  5 36  1  0
  6 37  1  0
  6 38  1  0
  7 39  1  0
  8 40  1  0
 10 41  1  0
 12 42  1  0
 14 43  1  0
 16 44  1  1
 17 45  1  0
 17 46  1  0
 18 47  1  1
 23 48  1  0
 24 49  1  0
 26 50  1  0
 27 51  1  0
 28 52  1  0
 29 53  1  0
M  ISO  8  31  13  32  13  33  13  34  13  35  13  36  13  37  13  38  13
M  ISO  8  40  13  41  14  42  14  43  14  44  13  45  13  46  13  47  13
M  ISO  6  48  14  49   9  50  14  51  14  52  14  53  14
M  END
>  <minimizedAffinity>  (1) 
-4.72658396

>  <minimizedRMSD>  (1) 
2.11704302

$$$$
