
     RDKit          3D

 49 53  0  0  1  0  0  0  0  0999 V2000
   37.6520   22.5880   34.2550 C   0  0  2  0  0  0  0  0  0  0  0  0
   37.4210   22.0540   35.7060 C   0  0  0  0  0  0  0  0  0  0  0  0
   37.1470   21.2720   34.4460 C   0  0  1  0  0  0  0  0  0  0  0  0
   39.6280   24.2680   34.1070 N   0  0  0  0  0  0  0  0  0  0  0  0
   41.0650   24.5030   33.9440 C   0  0  0  0  0  0  0  0  0  0  0  0
   41.8980   23.2590   34.1180 C   0  0  0  0  0  0  0  0  0  0  0  0
   41.2720   22.1600   33.4970 N   0  0  0  0  0  0  0  0  0  0  0  0
   39.9060   21.8680   33.7490 C   0  0  0  0  0  0  0  0  0  0  0  0
   39.0470   22.9940   34.0650 C   0  0  0  0  0  0  0  0  0  0  0  0
   37.9610   25.9370   33.3830 C   0  0  0  0  0  0  0  0  0  0  0  0
   38.7990   25.3490   34.3190 C   0  0  0  0  0  0  0  0  0  0  0  0
   38.7570   25.9630   35.6090 C   0  0  0  0  0  0  0  0  0  0  0  0
   37.9690   27.0230   35.8810 N   0  0  0  0  0  0  0  0  0  0  0  0
   37.1920   27.5300   34.9240 C   0  0  0  0  0  0  0  0  0  0  0  0
   37.1890   26.9970   33.7020 N   0  0  0  0  0  0  0  0  0  0  0  0
   35.7570   20.8750   34.1360 C   0  0  2  0  0  0  0  0  0  0  0  0
   35.5600   19.6060   33.3020 C   0  0  0  0  0  0  0  0  0  0  0  0
   35.2700   20.9310   32.7380 C   0  0  2  0  0  0  0  0  0  0  0  0
   36.1550   21.3110   31.5900 C   0  0  0  0  0  0  0  0  0  0  0  0
   35.7910   22.3110   30.8880 O   0  0  0  0  0  0  0  0  0  0  0  0
   37.3270   20.6900   31.1930 O   0  0  0  0  0  0  0  0  0  0  0  0
   37.5770   20.1150   30.0040 C   0  0  0  0  0  0  0  0  0  0  0  0
   38.6260   20.2900   29.1600 C   0  0  0  0  0  0  0  0  0  0  0  0
   38.7170   19.6060   27.9640 C   0  0  0  0  0  0  0  0  0  0  0  0
   37.7340   18.7180   27.5930 C   0  0  0  0  0  0  0  0  0  0  0  0
   36.6450   18.5040   28.4170 C   0  0  0  0  0  0  0  0  0  0  0  0
   36.5780   19.2070   29.6170 C   0  0  0  0  0  0  0  0  0  0  0  0
   37.3070   23.3481   33.5386 H   0  0  0  0  0  0  0  0  0  0  0  0
   38.2723   21.7977   36.3537 H   0  0  0  0  0  0  0  0  0  0  0  0
   36.8587   22.3655   36.5987 H   0  0  0  0  0  0  0  0  0  0  0  0
   37.4791   20.3046   34.0413 H   0  0  0  0  0  0  0  0  0  0  0  0
   41.2408   24.9020   32.9341 H   0  0  0  0  0  0  0  0  0  0  0  0
   41.3697   25.2105   34.7292 H   0  0  0  0  0  0  0  0  0  0  0  0
   42.8868   23.4179   33.6631 H   0  0  0  0  0  0  0  0  0  0  0  0
   42.0066   23.0487   35.1922 H   0  0  0  0  0  0  0  0  0  0  0  0
   41.8109   21.5626   32.8539 H   0  0  0  0  0  0  0  0  0  0  0  0
   39.5180   20.8396   33.7069 H   0  0  0  0  0  0  0  0  0  0  0  0
   37.9250   25.5315   32.3611 H   0  0  0  0  0  0  0  0  0  0  0  0
   39.3913   25.5556   36.4100 H   0  0  0  0  0  0  0  0  0  0  0  0
   36.5485   28.3946   35.1441 H   0  0  0  0  0  0  0  0  0  0  0  0
   35.3940   21.2677   35.0973 H   0  0  0  0  0  0  0  0  0  0  0  0
   36.4321   19.0349   32.9507 H   0  0  0  0  0  0  0  0  0  0  0  0
   34.9993   18.6677   33.4249 H   0  0  0  0  0  0  0  0  0  0  0  0
   34.4085   21.4604   32.3048 H   0  0  0  0  0  0  0  0  0  0  0  0
   39.4240   20.9949   29.4361 H   0  0  0  0  0  0  0  0  0  0  0  0
   39.5809   19.7722   27.3037 H   0  0  0  0  0  0  0  0  0  0  0  0
   37.8148   18.1771   26.6386 H   0  0  0  0  0  0  0  0  0  0  0  0
   35.8521   17.7968   28.1322 H   0  0  0  0  0  0  0  0  0  0  0  0
   35.7166   19.0463   30.2820 H   0  0  0  0  0  0  0  0  0  0  0  0
  1  3  1  0
  1  2  1  0
  3  2  1  0
  4 11  1  0
  5  4  1  0
  5  6  1  0
  7  8  1  0
  7  6  1  0
  8  9  2  0
  9  4  1  0
  9  1  1  0
 10 15  2  0
 10 11  1  0
 11 12  2  0
 12 13  1  0
 14 13  2  0
 15 14  1  0
 16  3  1  0
 17 16  1  0
 18 17  1  0
 18 16  1  0
 19 18  1  0
 20 19  2  0
 21 19  1  0
 22 21  1  0
 23 22  2  0
 24 23  1  0
 25 24  2  0
 25 26  1  0
 26 27  2  0
 27 22  1  0
  1 28  1  6
  2 29  1  0
  2 30  1  0
  3 31  1  1
  5 32  1  0
  5 33  1  0
  6 34  1  0
  6 35  1  0
  7 36  1  0
  8 37  1  0
 10 38  1  0
 12 39  1  0
 14 40  1  0
 16 41  1  1
 17 42  1  0
 17 43  1  0
 18 44  1  1
 23 45  1  0
 24 46  1  0
 25 47  1  0
 26 48  1  0
 27 49  1  0
M  ISO  8  28  13  29  13  30  13  31  13  32  13  33  13  34  13  35  13
M  ISO  8  37  13  38  14  39  14  40  14  41  13  42  13  43  13  44  13
M  ISO  5  45  14  46  14  47  14  48  14  49  14
M  END
>  <minimizedAffinity>  (1) 
-4.745543

>  <minimizedRMSD>  (1) 
1.10331619

$$$$
