
     RDKit          3D

 46 50  0  0  1  0  0  0  0  0999 V2000
   37.6250   23.0290   33.4150 C   0  0  2  0  0  0  0  0  0  0  0  0
   38.1300   22.2660   34.6820 C   0  0  0  0  0  0  0  0  0  0  0  0
   37.3030   21.6540   33.5790 C   0  0  1  0  0  0  0  0  0  0  0  0
   39.3310   24.8760   32.7580 N   0  0  0  0  0  0  0  0  0  0  0  0
   40.4990   25.2780   31.9700 C   0  0  0  0  0  0  0  0  0  0  0  0
   41.2420   24.1210   31.3570 C   0  0  0  0  0  0  0  0  0  0  0  0
   40.3370   23.1590   30.8670 N   0  0  0  0  0  0  0  0  0  0  0  0
   39.2770   22.6820   31.6790 C   0  0  0  0  0  0  0  0  0  0  0  0
   38.7500   23.6020   32.6690 C   0  0  0  0  0  0  0  0  0  0  0  0
   37.6050   26.4990   33.4360 C   0  0  0  0  0  0  0  0  0  0  0  0
   38.7750   25.7810   33.6340 C   0  0  0  0  0  0  0  0  0  0  0  0
   39.4260   26.0460   34.8770 C   0  0  0  0  0  0  0  0  0  0  0  0
   38.9340   26.9210   35.7780 N   0  0  0  0  0  0  0  0  0  0  0  0
   37.7990   27.5730   35.5130 C   0  0  0  0  0  0  0  0  0  0  0  0
   37.1500   27.3650   34.3680 N   0  0  0  0  0  0  0  0  0  0  0  0
   35.9440   21.1640   33.8890 C   0  0  2  0  0  0  0  0  0  0  0  0
   35.6750   19.6680   33.6930 C   0  0  0  0  0  0  0  0  0  0  0  0
   35.0790   20.6600   32.7960 C   0  0  2  0  0  0  0  0  0  0  0  0
   35.5310   20.5850   31.3720 C   0  0  0  0  0  0  0  0  0  0  0  0
   35.5440   21.6780   30.7140 O   0  0  0  0  0  0  0  0  0  0  0  0
   35.9300   19.4190   30.7040 O   0  0  0  0  0  0  0  0  0  0  0  0
   38.7460   19.7590   28.6200 N   0  0  0  0  0  0  0  0  0  0  0  0
   38.1120   19.9330   29.7470 N   0  0  0  0  0  0  0  0  0  0  0  0
   36.8680   19.4170   29.7070 C   0  0  0  0  0  0  0  0  0  0  0  0
   36.7000   18.8700   28.4490 C   0  0  0  0  0  0  0  0  0  0  0  0
   37.8900   19.1000   27.7930 C   0  0  0  0  0  0  0  0  0  0  0  0
   36.9620   23.8462   33.0947 H   0  0  0  0  0  0  0  0  0  0  0  0
   39.1932   22.0085   34.7977 H   0  0  0  0  0  0  0  0  0  0  0  0
   38.0578   22.3812   35.7736 H   0  0  0  0  0  0  0  0  0  0  0  0
   37.4223   20.7972   32.8996 H   0  0  0  0  0  0  0  0  0  0  0  0
   40.1604   25.9414   31.1606 H   0  0  0  0  0  0  0  0  0  0  0  0
   41.1951   25.7787   32.6590 H   0  0  0  0  0  0  0  0  0  0  0  0
   41.8641   24.4886   30.5277 H   0  0  0  0  0  0  0  0  0  0  0  0
   41.8745   23.6555   32.1272 H   0  0  0  0  0  0  0  0  0  0  0  0
   40.4465   22.7982   29.9085 H   0  0  0  0  0  0  0  0  0  0  0  0
   38.8743   21.6648   31.5639 H   0  0  0  0  0  0  0  0  0  0  0  0
   37.0375   26.3610   32.5038 H   0  0  0  0  0  0  0  0  0  0  0  0
   40.3626   25.5175   35.1081 H   0  0  0  0  0  0  0  0  0  0  0  0
   37.3966   28.2877   36.2460 H   0  0  0  0  0  0  0  0  0  0  0  0
   35.8235   21.9024   34.6954 H   0  0  0  0  0  0  0  0  0  0  0  0
   36.4752   19.0060   33.3304 H   0  0  0  0  0  0  0  0  0  0  0  0
   35.2907   18.8530   34.3240 H   0  0  0  0  0  0  0  0  0  0  0  0
   34.0684   20.9630   32.4848 H   0  0  0  0  0  0  0  0  0  0  0  0
   39.7057   20.0611   28.3997 H   0  0  0  0  0  0  0  0  0  0  0  0
   35.8080   18.3604   28.0557 H   0  0  0  0  0  0  0  0  0  0  0  0
   38.1134   18.7972   26.7594 H   0  0  0  0  0  0  0  0  0  0  0  0
  1  3  1  0
  1  2  1  0
  3 16  1  0
  3  2  1  0
  4 11  1  0
  5  4  1  0
  6  5  1  0
  7  6  1  0
  7  8  1  0
  8  9  2  0
  9  4  1  0
  9  1  1  0
 10 11  2  0
 10 15  1  0
 11 12  1  0
 12 13  2  0
 14 13  1  0
 15 14  2  0
 17 16  1  0
 18 17  1  0
 18 16  1  0
 19 18  1  0
 20 19  2  0
 21 19  1  0
 22 23  1  0
 24 23  2  0
 24 21  1  0
 25 24  1  0
 26 25  2  0
 26 22  1  0
  1 27  1  1
  2 28  1  0
  2 29  1  0
  3 30  1  6
  5 31  1  0
  5 32  1  0
  6 33  1  0
  6 34  1  0
  7 35  1  0
  8 36  1  0
 10 37  1  0
 12 38  1  0
 14 39  1  0
 16 40  1  1
 17 41  1  0
 17 42  1  0
 18 43  1  6
 22 44  1  0
 25 45  1  0
 26 46  1  0
M  ISO  8  27  13  28  13  29  13  30  13  31  13  32  13  33  13  34  13
M  ISO  8  36  13  37  14  38  14  39  14  40  13  41  13  42  13  43  13
M  ISO  3  44   9  45  14  46  14
M  END
>  <minimizedAffinity>  (1) 
-4.34948921

>  <minimizedRMSD>  (1) 
1.14499843

$$$$
