
     RDKit          3D

 24 26  0  0  0  0  0  0  0  0999 V2000
   40.5980   22.1830   35.9820 C   0  0  0  0  0  0  0  0  0  0  0  0
   40.0800   22.6550   37.2130 C   0  0  0  0  0  0  0  0  0  0  0  0
   38.7670   23.1290   37.2100 C   0  0  0  0  0  0  0  0  0  0  0  0
   38.0620   23.1190   36.0560 N   0  0  0  0  0  0  0  0  0  0  0  0
   38.6110   22.6530   34.8990 C   0  0  0  0  0  0  0  0  0  0  0  0
   39.8620   22.1920   34.8650 N   0  0  0  0  0  0  0  0  0  0  0  0
   37.8710   22.6410   33.6840 N   0  0  0  0  0  0  0  0  0  0  0  0
   38.1830   23.5800   32.7560 C   0  0  0  0  0  0  0  0  0  0  0  0
   37.3860   23.4260   31.6620 N   0  0  0  0  0  0  0  0  0  0  0  0
   36.5620   22.3890   31.8940 C   0  0  0  0  0  0  0  0  0  0  0  0
   35.5430   21.7140   31.2380 C   0  0  0  0  0  0  0  0  0  0  0  0
   34.9260   20.6710   31.8220 N   0  0  0  0  0  0  0  0  0  0  0  0
   35.2830   20.2500   33.0660 C   0  0  0  0  0  0  0  0  0  0  0  0
   36.2800   20.8860   33.7450 N   0  0  0  0  0  0  0  0  0  0  0  0
   36.8870   21.9250   33.1520 C   0  0  0  0  0  0  0  0  0  0  0  0
   38.2720   23.6060   38.5010 C   0  0  0  0  0  0  0  0  0  0  0  0
   37.8370   24.9030   38.3960 F   0  0  0  0  0  0  0  0  0  0  0  0
   39.3760   23.6490   39.3530 F   0  0  0  0  0  0  0  0  0  0  0  0
   37.2570   22.8380   39.0260 F   0  0  0  0  0  0  0  0  0  0  0  0
   41.6286   21.8005   35.9437 H   0  0  0  0  0  0  0  0  0  0  0  0
   40.6858   22.6483   38.1311 H   0  0  0  0  0  0  0  0  0  0  0  0
   38.9613   24.3490   32.8696 H   0  0  0  0  0  0  0  0  0  0  0  0
   35.2368   22.0345   30.2313 H   0  0  0  0  0  0  0  0  0  0  0  0
   34.7659   19.3944   33.5250 H   0  0  0  0  0  0  0  0  0  0  0  0
  1  2  2  0
  3  2  1  0
  3 16  1  0
  4  3  2  0
  5  4  1  0
  6  5  2  0
  6  1  1  0
  7  5  1  0
  8  7  1  0
  9 10  1  0
  9  8  2  0
 10 15  2  0
 11 12  2  0
 11 10  1  0
 12 13  1  0
 13 14  2  0
 15  7  1  0
 15 14  1  0
 16 19  1  0
 16 18  1  0
 17 16  1  0
  1 20  1  0
  2 21  1  0
  8 22  1  0
 11 23  1  0
 13 24  1  0
M  ISO  5  20  14  21  14  22  14  23  14  24  14
M  END
>  <minimizedAffinity>  (1) 
-5.67986393

>  <minimizedRMSD>  (1) 
1.11646247

$$$$
