
     RDKit          3D

 42 45  0  0  1  0  0  0  0  0999 V2000
   39.4870   24.3830   33.9880 N   0  0  0  0  0  0  0  0  0  0  0  0
   40.9140   24.6700   33.8100 C   0  0  0  0  0  0  0  0  0  0  0  0
   41.8010   23.4800   34.0520 C   0  0  0  0  0  0  0  0  0  0  0  0
   41.2250   22.3260   33.4910 N   0  0  0  0  0  0  0  0  0  0  0  0
   39.8750   21.9810   33.7580 C   0  0  0  0  0  0  0  0  0  0  0  0
   38.9660   23.0830   34.0150 C   0  0  0  0  0  0  0  0  0  0  0  0
   37.7340   25.9170   33.1840 C   0  0  0  0  0  0  0  0  0  0  0  0
   38.6100   25.4360   34.1440 C   0  0  0  0  0  0  0  0  0  0  0  0
   38.5560   26.1310   35.3890 C   0  0  0  0  0  0  0  0  0  0  0  0
   37.7180   27.1670   35.6010 N   0  0  0  0  0  0  0  0  0  0  0  0
   36.9050   27.5720   34.6260 C   0  0  0  0  0  0  0  0  0  0  0  0
   36.9130   26.9560   33.4400 N   0  0  0  0  0  0  0  0  0  0  0  0
   37.5930   22.6220   34.2270 C   0  0  2  0  0  0  0  0  0  0  0  0
   37.4250   22.0010   35.6530 C   0  0  0  0  0  0  0  0  0  0  0  0
   37.1330   21.2850   34.3580 C   0  0  1  0  0  0  0  0  0  0  0  0
   35.7450   20.8640   34.0740 C   0  0  2  0  0  0  0  0  0  0  0  0
   35.5540   19.6120   33.2110 C   0  0  0  0  0  0  0  0  0  0  0  0
   35.2230   20.9400   32.6890 C   0  0  2  0  0  0  0  0  0  0  0  0
   36.0610   21.3880   31.5310 C   0  0  0  0  0  0  0  0  0  0  0  0
   35.6110   22.3730   30.8500 O   0  0  0  0  0  0  0  0  0  0  0  0
   37.2770   20.8220   31.1260 O   0  0  0  0  0  0  0  0  0  0  0  0
   37.3310   19.7950   30.1840 C   0  0  0  0  0  0  0  0  0  0  0  0
   36.0860   19.4170   29.7090 F   0  0  0  0  0  0  0  0  0  0  0  0
   37.8890   18.6710   30.7780 F   0  0  0  0  0  0  0  0  0  0  0  0
   38.1380   20.1740   29.1380 F   0  0  0  0  0  0  0  0  0  0  0  0
   41.0729   25.0185   32.7788 H   0  0  0  0  0  0  0  0  0  0  0  0
   41.1856   25.4323   34.5551 H   0  0  0  0  0  0  0  0  0  0  0  0
   42.7830   23.6581   33.5895 H   0  0  0  0  0  0  0  0  0  0  0  0
   41.9189   23.3332   35.1358 H   0  0  0  0  0  0  0  0  0  0  0  0
   41.7913   21.7228   32.8776 H   0  0  0  0  0  0  0  0  0  0  0  0
   39.5355   20.9348   33.7696 H   0  0  0  0  0  0  0  0  0  0  0  0
   37.7077   25.4415   32.1924 H   0  0  0  0  0  0  0  0  0  0  0  0
   39.2210   25.8109   36.2047 H   0  0  0  0  0  0  0  0  0  0  0  0
   36.2235   28.4181   34.7983 H   0  0  0  0  0  0  0  0  0  0  0  0
   37.2030   23.4099   33.5658 H   0  0  0  0  0  0  0  0  0  0  0  0
   38.3039   21.7343   36.2584 H   0  0  0  0  0  0  0  0  0  0  0  0
   36.8838   22.2442   36.5793 H   0  0  0  0  0  0  0  0  0  0  0  0
   37.4798   20.3541   33.8856 H   0  0  0  0  0  0  0  0  0  0  0  0
   35.3981   21.2248   35.0536 H   0  0  0  0  0  0  0  0  0  0  0  0
   36.4291   19.0691   32.8244 H   0  0  0  0  0  0  0  0  0  0  0  0
   35.0162   18.6590   33.3231 H   0  0  0  0  0  0  0  0  0  0  0  0
   34.3373   21.4529   32.2859 H   0  0  0  0  0  0  0  0  0  0  0  0
  1  6  1  0
  1  8  1  0
  2  1  1  0
  2  3  1  0
  4  5  1  0
  4  3  1  0
  5  6  2  0
  6 13  1  0
  7 12  2  0
  7  8  1  0
  8  9  2  0
  9 10  1  0
 11 10  2  0
 12 11  1  0
 13 15  1  0
 13 14  1  0
 15 14  1  0
 16 15  1  0
 17 16  1  0
 18 17  1  0
 18 16  1  0
 19 18  1  0
 20 19  2  0
 21 19  1  0
 22 24  1  0
 22 21  1  0
 23 22  1  0
 25 22  1  0
  2 26  1  0
  2 27  1  0
  3 28  1  0
  3 29  1  0
  4 30  1  0
  5 31  1  0
  7 32  1  0
  9 33  1  0
 11 34  1  0
 13 35  1  1
 14 36  1  0
 14 37  1  0
 15 38  1  6
 16 39  1  1
 17 40  1  0
 17 41  1  0
 18 42  1  1
M  ISO  8  26  13  27  13  28  13  29  13  31  13  32  14  33  14  34  14
M  ISO  8  35  13  36  13  37  13  38  13  39  13  40  13  41  13  42  13
M  END
>  <minimizedAffinity>  (1) 
-4.4259882

>  <minimizedRMSD>  (1) 
1.03734505

$$$$
