
     RDKit          3D

 44 48  0  0  1  0  0  0  0  0999 V2000
   37.6100   22.6560   34.2190 C   0  0  2  0  0  0  0  0  0  0  0  0
   37.4930   21.8990   35.5820 C   0  0  0  0  0  0  0  0  0  0  0  0
   37.1440   21.3140   34.2350 C   0  0  1  0  0  0  0  0  0  0  0  0
   39.4850   24.4340   33.9630 N   0  0  0  0  0  0  0  0  0  0  0  0
   40.9060   24.7360   33.7930 C   0  0  0  0  0  0  0  0  0  0  0  0
   41.8110   23.5580   34.0090 C   0  0  0  0  0  0  0  0  0  0  0  0
   41.2460   22.3900   33.4730 N   0  0  0  0  0  0  0  0  0  0  0  0
   39.9000   22.0340   33.7490 C   0  0  0  0  0  0  0  0  0  0  0  0
   38.9790   23.1270   34.0000 C   0  0  0  0  0  0  0  0  0  0  0  0
   37.7090   25.9380   33.1430 C   0  0  0  0  0  0  0  0  0  0  0  0
   38.5970   25.4760   34.1030 C   0  0  0  0  0  0  0  0  0  0  0  0
   38.5440   26.1890   35.3420 C   0  0  0  0  0  0  0  0  0  0  0  0
   37.6980   27.2180   35.5470 N   0  0  0  0  0  0  0  0  0  0  0  0
   36.8740   27.6010   34.5710 C   0  0  0  0  0  0  0  0  0  0  0  0
   36.8800   26.9730   33.3950 N   0  0  0  0  0  0  0  0  0  0  0  0
   35.7440   20.9260   33.9650 C   0  0  2  0  0  0  0  0  0  0  0  0
   35.5060   19.8650   32.8890 C   0  0  0  0  0  0  0  0  0  0  0  0
   35.1300   21.2630   32.6590 C   0  0  2  0  0  0  0  0  0  0  0  0
   35.8860   21.9400   31.5580 C   0  0  0  0  0  0  0  0  0  0  0  0
   35.5560   23.1510   31.3040 O   0  0  0  0  0  0  0  0  0  0  0  0
   36.9050   21.3730   30.7810 O   0  0  0  0  0  0  0  0  0  0  0  0
   38.0300   22.1520   30.5470 C   0  0  0  0  0  0  0  0  0  0  0  0
   38.3260   23.4660   30.5390 N   0  0  0  0  0  0  0  0  0  0  0  0
   39.5830   23.6270   30.2440 O   0  0  0  0  0  0  0  0  0  0  0  0
   40.1610   22.4680   30.0490 C   0  0  0  0  0  0  0  0  0  0  0  0
   39.1970   21.5260   30.2350 N   0  0  0  0  0  0  0  0  0  0  0  0
   37.2009   23.5072   33.6551 H   0  0  0  0  0  0  0  0  0  0  0  0
   38.3927   21.5703   36.1228 H   0  0  0  0  0  0  0  0  0  0  0  0
   36.9906   22.0525   36.5484 H   0  0  0  0  0  0  0  0  0  0  0  0
   37.4639   20.4328   33.6596 H   0  0  0  0  0  0  0  0  0  0  0  0
   41.0605   25.1077   32.7693 H   0  0  0  0  0  0  0  0  0  0  0  0
   41.1665   25.4818   34.5584 H   0  0  0  0  0  0  0  0  0  0  0  0
   42.7762   23.7500   33.5176 H   0  0  0  0  0  0  0  0  0  0  0  0
   41.9532   23.4165   35.0905 H   0  0  0  0  0  0  0  0  0  0  0  0
   41.8175   21.7815   32.8697 H   0  0  0  0  0  0  0  0  0  0  0  0
   39.5721   20.9843   33.7715 H   0  0  0  0  0  0  0  0  0  0  0  0
   37.6797   25.4514   32.1569 H   0  0  0  0  0  0  0  0  0  0  0  0
   39.2181   25.8865   36.1569 H   0  0  0  0  0  0  0  0  0  0  0  0
   36.1841   28.4414   34.7375 H   0  0  0  0  0  0  0  0  0  0  0  0
   35.4607   21.0788   35.0169 H   0  0  0  0  0  0  0  0  0  0  0  0
   36.3576   19.4263   32.3484 H   0  0  0  0  0  0  0  0  0  0  0  0
   34.9843   18.8975   32.8464 H   0  0  0  0  0  0  0  0  0  0  0  0
   34.2168   21.8292   32.4237 H   0  0  0  0  0  0  0  0  0  0  0  0
   41.2147   22.2915   29.7873 H   0  0  0  0  0  0  0  0  0  0  0  0
  1  3  1  0
  1  2  1  0
  3  2  1  0
  4  9  1  0
  4 11  1  0
  5  4  1  0
  5  6  1  0
  7  8  1  0
  7  6  1  0
  8  9  2  0
  9  1  1  0
 10 15  2  0
 10 11  1  0
 11 12  2  0
 12 13  1  0
 14 13  2  0
 15 14  1  0
 16  3  1  0
 17 16  1  0
 18 17  1  0
 18 16  1  0
 19 18  1  0
 20 19  2  0
 21 19  1  0
 22 21  1  0
 23 22  2  0
 24 23  1  0
 25 26  2  0
 25 24  1  0
 26 22  1  0
  1 27  1  1
  2 28  1  0
  2 29  1  0
  3 30  1  6
  5 31  1  0
  5 32  1  0
  6 33  1  0
  6 34  1  0
  7 35  1  0
  8 36  1  0
 10 37  1  0
 12 38  1  0
 14 39  1  0
 16 40  1  1
 17 41  1  0
 17 42  1  0
 18 43  1  1
 25 44  1  0
M  ISO  8  27  13  28  13  29  13  30  13  31  13  32  13  33  13  34  13
M  ISO  8  36  13  37  14  38  14  39  14  40  13  41  13  42  13  43  13
M  ISO  1  44  14
M  END
>  <minimizedAffinity>  (1) 
-4.32195187

>  <minimizedRMSD>  (1) 
1.53685737

$$$$
