
     RDKit          3D

 32 34  0  0  1  0  0  0  0  0999 V2000
   37.8720   26.2220   35.5530 C   0  0  1  0  0  0  0  0  0  0  0  0
   37.9640   24.5630   37.3660 C   0  0  0  0  0  0  0  0  0  0  0  0
   38.4930   25.0100   36.1340 C   0  0  0  0  0  0  0  0  0  0  0  0
   39.5420   24.2770   35.5530 C   0  0  0  0  0  0  0  0  0  0  0  0
   39.9780   23.1790   36.2220 N   0  0  0  0  0  0  0  0  0  0  0  0
   39.4620   22.7700   37.3900 C   0  0  0  0  0  0  0  0  0  0  0  0
   38.4630   23.4590   37.9540 N   0  0  0  0  0  0  0  0  0  0  0  0
   38.8270   27.4090   35.7680 C   0  0  0  0  0  0  0  0  0  0  0  0
   37.4790   26.1140   34.1320 C   0  0  0  0  0  0  0  0  0  0  0  0
   36.8320   27.2900   33.5990 N   0  0  0  0  0  0  0  0  0  0  0  0
   36.0320   28.1900   34.1830 C   0  0  0  0  0  0  0  0  0  0  0  0
   35.6380   29.1380   33.3360 N   0  0  0  0  0  0  0  0  0  0  0  0
   36.1860   28.8790   32.1430 C   0  0  0  0  0  0  0  0  0  0  0  0
   36.2010   29.4240   30.8780 C   0  0  0  0  0  0  0  0  0  0  0  0
   36.8860   28.8930   29.8500 N   0  0  0  0  0  0  0  0  0  0  0  0
   37.6050   27.7660   30.0350 C   0  0  0  0  0  0  0  0  0  0  0  0
   37.5970   27.2320   31.2570 N   0  0  0  0  0  0  0  0  0  0  0  0
   36.9260   27.7300   32.3150 C   0  0  0  0  0  0  0  0  0  0  0  0
   35.4440   30.6120   30.6770 N   0  0  0  0  0  0  0  0  0  0  0  0
   36.9186   26.3700   36.0814 H   0  0  0  0  0  0  0  0  0  0  0  0
   37.1437   25.1175   37.8452 H   0  0  0  0  0  0  0  0  0  0  0  0
   39.9912   24.5804   34.5958 H   0  0  0  0  0  0  0  0  0  0  0  0
   39.8588   21.8705   37.8833 H   0  0  0  0  0  0  0  0  0  0  0  0
   38.9637   27.5790   36.8462 H   0  0  0  0  0  0  0  0  0  0  0  0
   39.7998   27.1853   35.3058 H   0  0  0  0  0  0  0  0  0  0  0  0
   38.4002   28.3113   35.3058 H   0  0  0  0  0  0  0  0  0  0  0  0
   38.3850   25.9214   33.5386 H   0  0  0  0  0  0  0  0  0  0  0  0
   36.7440   25.2978   34.0716 H   0  0  0  0  0  0  0  0  0  0  0  0
   35.7344   28.1507   35.2412 H   0  0  0  0  0  0  0  0  0  0  0  0
   38.1736   27.3073   29.2126 H   0  0  0  0  0  0  0  0  0  0  0  0
   35.4229   31.0584   29.7490 H   0  0  0  0  0  0  0  0  0  0  0  0
   34.9172   31.0255   31.4595 H   0  0  0  0  0  0  0  0  0  0  0  0
  1  8  1  0
  1  3  1  0
  2  7  2  0
  3  2  1  0
  4  3  2  0
  4  5  1  0
  5  6  2  0
  6  7  1  0
  9  1  1  0
 10  9  1  0
 10 11  1  0
 12 11  2  0
 13 18  2  0
 13 12  1  0
 14 13  1  0
 15 16  1  0
 15 14  2  0
 16 17  2  0
 17 18  1  0
 18 10  1  0
 19 14  1  0
  1 20  1  1
  2 21  1  0
  4 22  1  0
  6 23  1  0
  8 24  1  0
  8 25  1  0
  8 26  1  0
  9 27  1  0
  9 28  1  0
 11 29  1  0
 16 30  1  0
 19 31  1  0
 19 32  1  0
M  ISO  8  20   8  21  14  22  14  23  14  24   8  25   8  26   8  27   8
M  ISO  3  28   8  29  14  30  14
M  END
>  <minimizedAffinity>  (1) 
-4.88441324

>  <minimizedRMSD>  (1) 
0.583419025

$$$$
