
     RDKit          3D

 33 35  0  0  1  0  0  0  0  0999 V2000
   37.4740   26.0850   34.1270 C   0  0  0  0  0  0  0  0  0  0  0  0
   36.8320   27.2890   33.6620 N   0  0  0  0  0  0  0  0  0  0  0  0
   36.0360   28.1580   34.3120 C   0  0  0  0  0  0  0  0  0  0  0  0
   35.6840   29.1370   33.4290 N   0  0  0  0  0  0  0  0  0  0  0  0
   36.2530   28.8840   32.2370 C   0  0  0  0  0  0  0  0  0  0  0  0
   36.2630   29.4980   31.0000 C   0  0  0  0  0  0  0  0  0  0  0  0
   35.6000   30.5560   30.8840 O   0  0  0  0  0  0  0  0  0  0  0  0
   36.9320   29.0370   29.9250 N   0  0  0  0  0  0  0  0  0  0  0  0
   37.6230   27.8850   30.1400 C   0  0  0  0  0  0  0  0  0  0  0  0
   38.3790   27.2790   29.0900 N   0  0  0  0  0  0  0  0  0  0  0  0
   37.6400   27.2580   31.3250 N   0  0  0  0  0  0  0  0  0  0  0  0
   36.9780   27.7190   32.3820 C   0  0  0  0  0  0  0  0  0  0  0  0
   37.9230   26.2110   35.5310 C   0  0  1  0  0  0  0  0  0  0  0  0
   37.9670   24.5630   37.3530 C   0  0  0  0  0  0  0  0  0  0  0  0
   38.5260   24.9900   36.1190 C   0  0  0  0  0  0  0  0  0  0  0  0
   39.5680   24.2510   35.5420 C   0  0  0  0  0  0  0  0  0  0  0  0
   39.9870   23.1450   36.2180 N   0  0  0  0  0  0  0  0  0  0  0  0
   39.4460   22.7560   37.3860 C   0  0  0  0  0  0  0  0  0  0  0  0
   38.4490   23.4540   37.9490 N   0  0  0  0  0  0  0  0  0  0  0  0
   38.8930   27.3870   35.7120 C   0  0  0  0  0  0  0  0  0  0  0  0
   38.3472   25.8782   33.4908 H   0  0  0  0  0  0  0  0  0  0  0  0
   36.7435   25.2644   34.0731 H   0  0  0  0  0  0  0  0  0  0  0  0
   35.7252   28.0911   35.3651 H   0  0  0  0  0  0  0  0  0  0  0  0
   36.9211   29.5179   29.0142 H   0  0  0  0  0  0  0  0  0  0  0  0
   38.8977   26.4067   29.2661 H   0  0  0  0  0  0  0  0  0  0  0  0
   38.4053   27.7144   28.1569 H   0  0  0  0  0  0  0  0  0  0  0  0
   36.9891   26.3918   36.0834 H   0  0  0  0  0  0  0  0  0  0  0  0
   37.1484   25.1319   37.8180 H   0  0  0  0  0  0  0  0  0  0  0  0
   40.0261   24.5502   34.5877 H   0  0  0  0  0  0  0  0  0  0  0  0
   39.8264   21.8532   37.8863 H   0  0  0  0  0  0  0  0  0  0  0  0
   39.0469   27.5736   36.7851 H   0  0  0  0  0  0  0  0  0  0  0  0
   39.8565   27.1436   35.2403 H   0  0  0  0  0  0  0  0  0  0  0  0
   38.4707   28.2865   35.2403 H   0  0  0  0  0  0  0  0  0  0  0  0
  1 13  1  0
  2  1  1  0
  2  3  1  0
  4  3  2  0
  5 12  2  0
  5  4  1  0
  6  5  1  0
  7  6  2  0
  8  9  1  0
  8  6  1  0
  9 11  2  0
 10  9  1  0
 11 12  1  0
 12  2  1  0
 13 20  1  0
 13 15  1  0
 14 19  2  0
 15 14  1  0
 16 15  2  0
 16 17  1  0
 17 18  2  0
 18 19  1  0
  1 21  1  0
  1 22  1  0
  3 23  1  0
  8 24  1  0
 10 25  1  0
 10 26  1  0
 13 27  1  1
 14 28  1  0
 16 29  1  0
 18 30  1  0
 20 31  1  0
 20 32  1  0
 20 33  1  0
M  ISO  8  21   8  22   8  23  14  24   9  27   8  28  14  29  14  30  14
M  ISO  3  31   8  32   8  33   8
M  END
>  <minimizedAffinity>  (1) 
-5.00018501

>  <minimizedRMSD>  (1) 
0.801472306

$$$$
