
     RDKit          3D

 27 28  0  0  1  0  0  0  0  0999 V2000
   37.9720   25.8060   35.1900 C   0  0  1  0  0  0  0  0  0  0  0  0
   37.9400   24.6330   37.3370 C   0  0  0  0  0  0  0  0  0  0  0  0
   38.5540   24.7950   36.0710 C   0  0  0  0  0  0  0  0  0  0  0  0
   39.6280   23.9740   35.7700 C   0  0  0  0  0  0  0  0  0  0  0  0
   40.0490   23.0520   36.6870 N   0  0  0  0  0  0  0  0  0  0  0  0
   39.4440   22.9260   37.8770 C   0  0  0  0  0  0  0  0  0  0  0  0
   38.3960   23.7100   38.2010 N   0  0  0  0  0  0  0  0  0  0  0  0
   38.1980   27.1960   35.8000 C   0  0  0  0  0  0  0  0  0  0  0  0
   38.4230   25.7890   33.7800 C   0  0  0  0  0  0  0  0  0  0  0  0
   37.3110   25.7090   32.8020 C   0  0  0  0  0  0  0  0  0  0  0  0
   36.8880   24.4890   32.2980 C   0  0  0  0  0  0  0  0  0  0  0  0
   35.8650   24.3330   31.3900 C   0  0  0  0  0  0  0  0  0  0  0  0
   35.2620   25.4510   30.9880 N   0  0  0  0  0  0  0  0  0  0  0  0
   35.6380   26.6470   31.4480 C   0  0  0  0  0  0  0  0  0  0  0  0
   36.6370   26.7930   32.3350 N   0  0  0  0  0  0  0  0  0  0  0  0
   36.9036   25.5513   35.1300 H   0  0  0  0  0  0  0  0  0  0  0  0
   37.0847   25.2665   37.6148 H   0  0  0  0  0  0  0  0  0  0  0  0
   40.1386   24.0633   34.7998 H   0  0  0  0  0  0  0  0  0  0  0  0
   39.8061   22.1760   38.5956 H   0  0  0  0  0  0  0  0  0  0  0  0
   38.1858   27.1212   36.8974 H   0  0  0  0  0  0  0  0  0  0  0  0
   39.1716   27.5874   35.4699 H   0  0  0  0  0  0  0  0  0  0  0  0
   37.3986   27.8757   35.4699 H   0  0  0  0  0  0  0  0  0  0  0  0
   38.9915   26.7104   33.5856 H   0  0  0  0  0  0  0  0  0  0  0  0
   39.0346   24.8843   33.6478 H   0  0  0  0  0  0  0  0  0  0  0  0
   37.4052   23.5833   32.6475 H   0  0  0  0  0  0  0  0  0  0  0  0
   35.5630   23.3428   31.0180 H   0  0  0  0  0  0  0  0  0  0  0  0
   35.1119   27.5436   31.0885 H   0  0  0  0  0  0  0  0  0  0  0  0
  1  8  1  0
  1  3  1  0
  2  7  2  0
  3  2  1  0
  4  3  2  0
  4  5  1  0
  5  6  2  0
  6  7  1  0
  9  1  1  0
 10  9  1  0
 11 10  2  0
 12 11  1  0
 13 12  2  0
 13 14  1  0
 14 15  2  0
 15 10  1  0
  1 16  1  6
  2 17  1  0
  4 18  1  0
  6 19  1  0
  8 20  1  0
  8 21  1  0
  8 22  1  0
  9 23  1  0
  9 24  1  0
 11 25  1  0
 12 26  1  0
 14 27  1  0
M  ISO  8  16   8  17  14  18  14  19  14  20   8  21   8  22   8  23   8
M  ISO  4  24   8  25  14  26  14  27  14
M  END
>  <minimizedAffinity>  (1) 
-4.27244949

>  <minimizedRMSD>  (1) 
1.96812534

$$$$
