
     RDKit          3D

 29 30  0  0  1  0  0  0  0  0999 V2000
   37.9980   25.7970   35.1880 C   0  0  1  0  0  0  0  0  0  0  0  0
   37.9500   24.6130   37.3450 C   0  0  0  0  0  0  0  0  0  0  0  0
   38.5700   24.7750   36.0850 C   0  0  0  0  0  0  0  0  0  0  0  0
   39.6670   23.9550   35.7740 C   0  0  0  0  0  0  0  0  0  0  0  0
   40.0730   23.0450   36.7090 N   0  0  0  0  0  0  0  0  0  0  0  0
   39.4380   22.9310   37.9090 C   0  0  0  0  0  0  0  0  0  0  0  0
   38.3810   23.7140   38.2220 N   0  0  0  0  0  0  0  0  0  0  0  0
   38.2640   27.1890   35.7900 C   0  0  0  0  0  0  0  0  0  0  0  0
   38.4240   25.7230   33.7760 C   0  0  0  0  0  0  0  0  0  0  0  0
   37.3080   25.7170   32.8050 C   0  0  0  0  0  0  0  0  0  0  0  0
   36.6200   26.8220   32.3280 C   0  0  0  0  0  0  0  0  0  0  0  0
   35.5900   26.6780   31.4170 C   0  0  0  0  0  0  0  0  0  0  0  0
   35.2030   25.4400   30.9460 C   0  0  0  0  0  0  0  0  0  0  0  0
   35.8610   24.3070   31.3950 C   0  0  0  0  0  0  0  0  0  0  0  0
   36.8780   24.4860   32.2970 C   0  0  0  0  0  0  0  0  0  0  0  0
   36.9186   25.5921   35.1335 H   0  0  0  0  0  0  0  0  0  0  0  0
   37.0896   25.2471   37.6053 H   0  0  0  0  0  0  0  0  0  0  0  0
   40.1838   24.0427   34.8069 H   0  0  0  0  0  0  0  0  0  0  0  0
   39.7923   22.1871   38.6378 H   0  0  0  0  0  0  0  0  0  0  0  0
   38.2512   27.1222   36.8879 H   0  0  0  0  0  0  0  0  0  0  0  0
   39.2476   27.5510   35.4561 H   0  0  0  0  0  0  0  0  0  0  0  0
   37.4832   27.8882   35.4561 H   0  0  0  0  0  0  0  0  0  0  0  0
   39.0624   26.5929   33.5623 H   0  0  0  0  0  0  0  0  0  0  0  0
   38.9529   24.7661   33.6553 H   0  0  0  0  0  0  0  0  0  0  0  0
   36.8973   27.8269   32.6791 H   0  0  0  0  0  0  0  0  0  0  0  0
   35.0645   27.5751   31.0577 H   0  0  0  0  0  0  0  0  0  0  0  0
   34.3801   25.3539   30.2212 H   0  0  0  0  0  0  0  0  0  0  0  0
   35.5791   23.3040   31.0422 H   0  0  0  0  0  0  0  0  0  0  0  0
   37.4004   23.5852   32.6515 H   0  0  0  0  0  0  0  0  0  0  0  0
  1  8  1  0
  1  3  1  0
  2  7  2  0
  3  2  1  0
  4  3  2  0
  4  5  1  0
  5  6  2  0
  6  7  1  0
  9  1  1  0
 10  9  1  0
 11 10  2  0
 12 11  1  0
 13 14  1  0
 13 12  2  0
 14 15  2  0
 15 10  1  0
  1 16  1  6
  2 17  1  0
  4 18  1  0
  6 19  1  0
  8 20  1  0
  8 21  1  0
  8 22  1  0
  9 23  1  0
  9 24  1  0
 11 25  1  0
 12 26  1  0
 13 27  1  0
 14 28  1  0
 15 29  1  0
M  ISO  8  16   8  17  14  18  14  19  14  20   8  21   8  22   8  23   8
M  ISO  6  24   8  25  14  26  14  27  14  28  14  29  14
M  END
>  <minimizedAffinity>  (1) 
-4.4583621

>  <minimizedRMSD>  (1) 
1.71314991

$$$$
