
     RDKit          3D

 32 33  0  0  1  0  0  0  0  0999 V2000
   37.7830   26.0680   35.5840 C   0  0  1  0  0  0  0  0  0  0  0  0
   38.0010   24.4470   37.4100 C   0  0  0  0  0  0  0  0  0  0  0  0
   38.4890   24.9200   36.1790 C   0  0  0  0  0  0  0  0  0  0  0  0
   39.5920   24.2620   35.6170 C   0  0  0  0  0  0  0  0  0  0  0  0
   40.1360   23.2050   36.2790 N   0  0  0  0  0  0  0  0  0  0  0  0
   39.6180   22.7940   37.4720 C   0  0  0  0  0  0  0  0  0  0  0  0
   38.5650   23.4070   38.0270 N   0  0  0  0  0  0  0  0  0  0  0  0
   38.5980   27.3490   35.8410 C   0  0  0  0  0  0  0  0  0  0  0  0
   37.4750   25.9640   34.1420 C   0  0  0  0  0  0  0  0  0  0  0  0
   37.7590   27.1880   33.3470 C   0  0  0  0  0  0  0  0  0  0  0  0
   36.4430   27.7760   32.8870 C   0  0  0  0  0  0  0  0  0  0  0  0
   36.6690   28.4120   31.5540 C   0  0  0  0  0  0  0  0  0  0  0  0
   38.0640   28.0500   31.1510 C   0  0  0  0  0  0  0  0  0  0  0  0
   38.5100   26.9340   32.0760 C   0  0  0  0  0  0  0  0  0  0  0  0
   36.8016   26.0897   36.0804 H   0  0  0  0  0  0  0  0  0  0  0  0
   37.1366   24.9446   37.8739 H   0  0  0  0  0  0  0  0  0  0  0  0
   40.0111   24.5950   34.6560 H   0  0  0  0  0  0  0  0  0  0  0  0
   40.0762   21.9388   37.9903 H   0  0  0  0  0  0  0  0  0  0  0  0
   38.6991   27.5080   36.9247 H   0  0  0  0  0  0  0  0  0  0  0  0
   39.5963   27.2449   35.3909 H   0  0  0  0  0  0  0  0  0  0  0  0
   38.0807   28.2092   35.3909 H   0  0  0  0  0  0  0  0  0  0  0  0
   38.0723   25.1401   33.7244 H   0  0  0  0  0  0  0  0  0  0  0  0
   36.3900   25.7976   34.0715 H   0  0  0  0  0  0  0  0  0  0  0  0
   38.3568   27.8336   34.0072 H   0  0  0  0  0  0  0  0  0  0  0  0
   35.6880   26.9808   32.7992 H   0  0  0  0  0  0  0  0  0  0  0  0
   36.0800   28.5199   33.6115 H   0  0  0  0  0  0  0  0  0  0  0  0
   35.9472   28.0253   30.8195 H   0  0  0  0  0  0  0  0  0  0  0  0
   36.5355   29.5028   31.6020 H   0  0  0  0  0  0  0  0  0  0  0  0
   38.0794   27.7054   30.1065 H   0  0  0  0  0  0  0  0  0  0  0  0
   38.7352   28.9182   31.2266 H   0  0  0  0  0  0  0  0  0  0  0  0
   38.2469   25.9515   31.6571 H   0  0  0  0  0  0  0  0  0  0  0  0
   39.5997   26.9211   32.2258 H   0  0  0  0  0  0  0  0  0  0  0  0
  1  8  1  0
  1  3  1  0
  2  7  2  0
  3  2  1  0
  4  3  2  0
  4  5  1  0
  5  6  2  0
  6  7  1  0
  9  1  1  0
 10  9  1  0
 11 10  1  0
 12 11  1  0
 13 12  1  0
 13 14  1  0
 14 10  1  0
  1 15  1  1
  2 16  1  0
  4 17  1  0
  6 18  1  0
  8 19  1  0
  8 20  1  0
  8 21  1  0
  9 22  1  0
  9 23  1  0
 10 24  1  0
 11 25  1  0
 11 26  1  0
 12 27  1  0
 12 28  1  0
 13 29  1  0
 13 30  1  0
 14 31  1  0
 14 32  1  0
M  ISO  8  15   8  16  14  17  14  18  14  19   8  20   8  21   8  22   8
M  ISO  8  23   8  24  13  25  13  26  13  27  13  28  13  29  13  30  13
M  ISO  2  31  13  32  13
M  END
>  <minimizedAffinity>  (1) 
-4.17733574

>  <minimizedRMSD>  (1) 
2.98317838

$$$$
