
     RDKit          3D

 29 30  0  0  1  0  0  0  0  0999 V2000
   38.6110   26.1800   35.1840 C   0  0  1  0  0  0  0  0  0  0  0  0
   37.9450   25.2580   37.3670 C   0  0  0  0  0  0  0  0  0  0  0  0
   38.6840   25.1070   36.1790 C   0  0  0  0  0  0  0  0  0  0  0  0
   39.4310   23.9260   36.0280 C   0  0  0  0  0  0  0  0  0  0  0  0
   39.4030   23.0000   37.0270 N   0  0  0  0  0  0  0  0  0  0  0  0
   38.6700   23.1980   38.1590 C   0  0  0  0  0  0  0  0  0  0  0  0
   37.9460   24.3300   38.3170 N   0  0  0  0  0  0  0  0  0  0  0  0
   40.0290   26.7030   34.9040 C   0  0  0  0  0  0  0  0  0  0  0  0
   37.8860   25.8670   33.9350 C   0  0  0  0  0  0  0  0  0  0  0  0
   36.9940   26.9030   33.5300 N   0  0  0  0  0  0  0  0  0  0  0  0
   36.6170   27.8880   34.3660 C   0  0  0  0  0  0  0  0  0  0  0  0
   35.7520   28.9100   34.0070 C   0  0  0  0  0  0  0  0  0  0  0  0
   35.2340   28.9440   32.7260 C   0  0  0  0  0  0  0  0  0  0  0  0
   34.4450   29.8390   32.3300 O   0  0  0  0  0  0  0  0  0  0  0  0
   35.6070   27.9620   31.8880 N   0  0  0  0  0  0  0  0  0  0  0  0
   36.4510   27.0010   32.3030 C   0  0  0  0  0  0  0  0  0  0  0  0
   36.7310   26.1340   31.4360 O   0  0  0  0  0  0  0  0  0  0  0  0
   37.9857   26.9639   35.6361 H   0  0  0  0  0  0  0  0  0  0  0  0
   37.3493   26.1711   37.5130 H   0  0  0  0  0  0  0  0  0  0  0  0
   40.0272   23.7526   35.1200 H   0  0  0  0  0  0  0  0  0  0  0  0
   38.6671   22.4326   38.9491 H   0  0  0  0  0  0  0  0  0  0  0  0
   40.5445   26.8931   35.8569 H   0  0  0  0  0  0  0  0  0  0  0  0
   40.5894   25.9524   34.3273 H   0  0  0  0  0  0  0  0  0  0  0  0
   39.9678   27.6377   34.3273 H   0  0  0  0  0  0  0  0  0  0  0  0
   38.6225   25.7064   33.1339 H   0  0  0  0  0  0  0  0  0  0  0  0
   37.2801   24.9687   34.1245 H   0  0  0  0  0  0  0  0  0  0  0  0
   37.0173   27.8818   35.3906 H   0  0  0  0  0  0  0  0  0  0  0  0
   35.4800   29.6877   34.7358 H   0  0  0  0  0  0  0  0  0  0  0  0
   35.2449   27.9454   30.9239 H   0  0  0  0  0  0  0  0  0  0  0  0
  1  3  1  0
  2  7  2  0
  3  2  1  0
  4  3  2  0
  4  5  1  0
  5  6  2  0
  6  7  1  0
  8  1  1  0
  9  1  1  0
 10  9  1  0
 10 11  1  0
 12 11  2  0
 13 12  1  0
 14 13  2  0
 15 16  1  0
 15 13  1  0
 16 10  1  0
 17 16  2  0
  1 18  1  1
  2 19  1  0
  4 20  1  0
  6 21  1  0
  8 22  1  0
  8 23  1  0
  8 24  1  0
  9 25  1  0
  9 26  1  0
 11 27  1  0
 12 28  1  0
 15 29  1  0
M  ISO  8  18   8  19  14  20  14  21  14  22   8  23   8  24   8  25   8
M  ISO  4  26   8  27  14  28  14  29   9
M  END
>  <minimizedAffinity>  (1) 
-4.35762405

>  <minimizedRMSD>  (1) 
0.963264883

$$$$
