
     RDKit          3D

 26 27  0  0  1  0  0  0  0  0999 V2000
   38.0120   25.8400   35.2640 C   0  0  1  0  0  0  0  0  0  0  0  0
   37.9670   24.6060   37.3830 C   0  0  0  0  0  0  0  0  0  0  0  0
   38.5860   24.8020   36.1210 C   0  0  0  0  0  0  0  0  0  0  0  0
   39.6780   23.9870   35.7910 C   0  0  0  0  0  0  0  0  0  0  0  0
   40.0940   23.0520   36.6880 N   0  0  0  0  0  0  0  0  0  0  0  0
   39.4700   22.8990   37.8890 C   0  0  0  0  0  0  0  0  0  0  0  0
   38.4160   23.6710   38.2280 N   0  0  0  0  0  0  0  0  0  0  0  0
   38.2940   27.2230   35.8780 C   0  0  0  0  0  0  0  0  0  0  0  0
   38.4210   25.8170   33.8440 C   0  0  0  0  0  0  0  0  0  0  0  0
   37.4700   25.2010   32.9320 C   0  0  0  0  0  0  0  0  0  0  0  0
   36.4300   25.7150   32.1200 C   0  0  0  0  0  0  0  0  0  0  0  0
   35.7280   24.8030   31.3820 C   0  0  0  0  0  0  0  0  0  0  0  0
   35.9890   23.4550   31.3970 C   0  0  0  0  0  0  0  0  0  0  0  0
   37.4390   23.3800   32.6250 S   0  0  0  0  0  0  0  0  0  0  0  0
   36.9345   25.6205   35.2340 H   0  0  0  0  0  0  0  0  0  0  0  0
   37.1079   25.2302   37.6698 H   0  0  0  0  0  0  0  0  0  0  0  0
   40.1896   24.1013   34.8239 H   0  0  0  0  0  0  0  0  0  0  0  0
   39.8305   22.1348   38.5933 H   0  0  0  0  0  0  0  0  0  0  0  0
   38.2785   27.1471   36.9753 H   0  0  0  0  0  0  0  0  0  0  0  0
   39.2825   27.5757   35.5488 H   0  0  0  0  0  0  0  0  0  0  0  0
   37.5225   27.9346   35.5488 H   0  0  0  0  0  0  0  0  0  0  0  0
   38.5789   26.8560   33.5192 H   0  0  0  0  0  0  0  0  0  0  0  0
   39.3291   25.1978   33.7996 H   0  0  0  0  0  0  0  0  0  0  0  0
   36.1994   26.7900   32.0849 H   0  0  0  0  0  0  0  0  0  0  0  0
   34.9110   25.1684   30.7425 H   0  0  0  0  0  0  0  0  0  0  0  0
   35.4941   22.6403   30.8481 H   0  0  0  0  0  0  0  0  0  0  0  0
  1  8  1  0
  1  3  1  0
  2  7  2  0
  3  2  1  0
  4  3  2  0
  4  5  1  0
  5  6  2  0
  6  7  1  0
  9  1  1  0
 10  9  1  0
 11 10  2  0
 12 13  2  0
 12 11  1  0
 13 14  1  0
 14 10  1  0
  1 15  1  6
  2 16  1  0
  4 17  1  0
  6 18  1  0
  8 19  1  0
  8 20  1  0
  8 21  1  0
  9 22  1  0
  9 23  1  0
 11 24  1  0
 12 25  1  0
 13 26  1  0
M  ISO  8  15   8  16  14  17  14  18  14  19   8  20   8  21   8  22   8
M  ISO  4  23   8  24  14  25  14  26  14
M  END
>  <minimizedAffinity>  (1) 
-4.04471016

>  <minimizedRMSD>  (1) 
1.5029819

$$$$
