
     RDKit          3D

 23 24  0  0  0  0  0  0  0  0999 V2000
   40.3160   22.3930   35.4610 C   0  0  0  0  0  0  0  0  0  0  0  0
   39.9610   22.8780   36.7500 C   0  0  0  0  0  0  0  0  0  0  0  0
   38.5950   22.9910   37.0060 C   0  0  0  0  0  0  0  0  0  0  0  0
   37.7040   22.6400   36.0340 N   0  0  0  0  0  0  0  0  0  0  0  0
   38.1010   22.1850   34.8240 C   0  0  0  0  0  0  0  0  0  0  0  0
   39.4030   22.0660   34.5500 N   0  0  0  0  0  0  0  0  0  0  0  0
   37.0930   21.8280   33.8330 C   0  0  0  0  0  0  0  0  0  0  0  0
   36.1720   20.8340   34.1300 C   0  0  0  0  0  0  0  0  0  0  0  0
   35.2290   20.5180   33.1690 C   0  0  0  0  0  0  0  0  0  0  0  0
   35.2210   21.1850   31.9600 C   0  0  0  0  0  0  0  0  0  0  0  0
   36.1270   22.1680   31.6590 C   0  0  0  0  0  0  0  0  0  0  0  0
   37.0540   22.4700   32.6160 C   0  0  0  0  0  0  0  0  0  0  0  0
   38.2610   23.4940   38.3480 C   0  0  0  0  0  0  0  0  0  0  0  0
   37.8870   24.8230   38.2450 F   0  0  0  0  0  0  0  0  0  0  0  0
   39.4410   23.4990   39.0620 F   0  0  0  0  0  0  0  0  0  0  0  0
   37.2520   22.8130   38.9550 F   0  0  0  0  0  0  0  0  0  0  0  0
   41.3812   22.2846   35.2087 H   0  0  0  0  0  0  0  0  0  0  0  0
   40.7188   23.1479   37.5002 H   0  0  0  0  0  0  0  0  0  0  0  0
   36.1911   20.3137   35.0990 H   0  0  0  0  0  0  0  0  0  0  0  0
   34.4838   19.7337   33.3682 H   0  0  0  0  0  0  0  0  0  0  0  0
   34.4602   20.9177   31.2118 H   0  0  0  0  0  0  0  0  0  0  0  0
   36.1087   22.6901   30.6910 H   0  0  0  0  0  0  0  0  0  0  0  0
   37.7960   23.2545   32.4065 H   0  0  0  0  0  0  0  0  0  0  0  0
  1  2  2  0
  2  3  1  0
  3 13  1  0
  4  3  2  0
  5  4  1  0
  6  5  2  0
  6  1  1  0
  7  8  2  0
  7  5  1  0
  9  8  1  0
 10  9  2  0
 11 10  1  0
 11 12  2  0
 12  7  1  0
 13 16  1  0
 13 15  1  0
 14 13  1  0
  1 17  1  0
  2 18  1  0
  8 19  1  0
  9 20  1  0
 10 21  1  0
 11 22  1  0
 12 23  1  0
M  ISO  7  17  14  18  14  19  14  20  14  21  14  22  14  23  14
M  END
>  <minimizedAffinity>  (1) 
-5.19223404

>  <minimizedRMSD>  (1) 
1.67872679

$$$$
