
     RDKit          3D

 28 29  0  0  0  0  0  0  0  0999 V2000
   40.3540   22.2040   35.4960 C   0  0  0  0  0  0  0  0  0  0  0  0
   39.9860   22.6910   36.7790 C   0  0  0  0  0  0  0  0  0  0  0  0
   38.6400   23.0100   36.9700 C   0  0  0  0  0  0  0  0  0  0  0  0
   37.7650   22.8400   35.9420 N   0  0  0  0  0  0  0  0  0  0  0  0
   38.1680   22.3700   34.7330 C   0  0  0  0  0  0  0  0  0  0  0  0
   39.4650   22.0550   34.5230 N   0  0  0  0  0  0  0  0  0  0  0  0
   37.2030   22.2160   33.6980 N   0  0  0  0  0  0  0  0  0  0  0  0
   36.2940   21.0960   33.7930 C   0  0  0  0  0  0  0  0  0  0  0  0
   35.3010   21.1490   32.6380 C   0  0  0  0  0  0  0  0  0  0  0  0
   36.0990   21.2590   31.3680 C   0  0  0  0  0  0  0  0  0  0  0  0
   36.8350   22.5700   31.2790 C   0  0  0  0  0  0  0  0  0  0  0  0
   37.1630   23.1630   32.6050 C   0  0  0  0  0  0  0  0  0  0  0  0
   38.3110   23.5080   38.3060 C   0  0  0  0  0  0  0  0  0  0  0  0
   37.9360   24.8340   38.2220 F   0  0  0  0  0  0  0  0  0  0  0  0
   39.4840   23.5020   39.0440 F   0  0  0  0  0  0  0  0  0  0  0  0
   37.2920   22.8170   38.9090 F   0  0  0  0  0  0  0  0  0  0  0  0
   41.4053   21.9433   35.3043 H   0  0  0  0  0  0  0  0  0  0  0  0
   40.7263   22.8111   37.5837 H   0  0  0  0  0  0  0  0  0  0  0  0
   36.8636   20.1562   33.7442 H   0  0  0  0  0  0  0  0  0  0  0  0
   35.7495   21.1453   34.7475 H   0  0  0  0  0  0  0  0  0  0  0  0
   34.6925   20.2328   32.6222 H   0  0  0  0  0  0  0  0  0  0  0  0
   34.6217   22.0072   32.7471 H   0  0  0  0  0  0  0  0  0  0  0  0
   36.8301   20.4378   31.3351 H   0  0  0  0  0  0  0  0  0  0  0  0
   35.4003   21.2021   30.5203 H   0  0  0  0  0  0  0  0  0  0  0  0
   37.7741   22.4046   30.7306 H   0  0  0  0  0  0  0  0  0  0  0  0
   36.1687   23.2788   30.7656 H   0  0  0  0  0  0  0  0  0  0  0  0
   38.1502   23.6426   32.5310 H   0  0  0  0  0  0  0  0  0  0  0  0
   36.3539   23.8711   32.8372 H   0  0  0  0  0  0  0  0  0  0  0  0
  1  2  2  0
  2  3  1  0
  3 13  1  0
  4  3  2  0
  5  4  1  0
  6  5  2  0
  6  1  1  0
  7  8  1  0
  7  5  1  0
  9  8  1  0
 10  9  1  0
 11 10  1  0
 11 12  1  0
 12  7  1  0
 13 16  1  0
 13 15  1  0
 14 13  1  0
  1 17  1  0
  2 18  1  0
  8 19  1  0
  8 20  1  0
  9 21  1  0
  9 22  1  0
 10 23  1  0
 10 24  1  0
 11 25  1  0
 11 26  1  0
 12 27  1  0
 12 28  1  0
M  ISO  8  17  14  18  14  19  13  20  13  21  13  22  13  23  13  24  13
M  ISO  4  25  13  26  13  27  13  28  13
M  END
>  <minimizedAffinity>  (1) 
-5.18504333

>  <minimizedRMSD>  (1) 
1.52969658

$$$$
