
     RDKit          3D

 26 27  0  0  1  0  0  0  0  0999 V2000
   37.7610   25.9100   35.7060 C   0  0  1  0  0  0  0  0  0  0  0  0
   38.0600   24.3970   37.6050 C   0  0  0  0  0  0  0  0  0  0  0  0
   38.5110   24.8060   36.3130 C   0  0  0  0  0  0  0  0  0  0  0  0
   39.5980   24.1230   35.7430 C   0  0  0  0  0  0  0  0  0  0  0  0
   40.1600   23.1090   36.4610 N   0  0  0  0  0  0  0  0  0  0  0  0
   39.7110   22.7470   37.6810 C   0  0  0  0  0  0  0  0  0  0  0  0
   38.6800   23.3810   38.2410 N   0  0  0  0  0  0  0  0  0  0  0  0
   38.4760   27.2360   36.0340 C   0  0  0  0  0  0  0  0  0  0  0  0
   37.5710   25.8150   34.2400 C   0  0  0  0  0  0  0  0  0  0  0  0
   37.3170   27.1140   33.5500 C   0  0  0  0  0  0  0  0  0  0  0  0
   36.6290   26.9600   32.1830 C   0  0  0  0  0  0  0  0  0  0  0  0
   38.0040   27.4610   32.2770 C   0  0  0  0  0  0  0  0  0  0  0  0
   36.7510   25.8588   36.1388 H   0  0  0  0  0  0  0  0  0  0  0  0
   37.2100   24.9085   38.0801 H   0  0  0  0  0  0  0  0  0  0  0  0
   39.9833   24.3971   34.7498 H   0  0  0  0  0  0  0  0  0  0  0  0
   40.2000   21.9212   38.2186 H   0  0  0  0  0  0  0  0  0  0  0  0
   38.5413   27.3571   37.1254 H   0  0  0  0  0  0  0  0  0  0  0  0
   39.4889   27.2222   35.6053 H   0  0  0  0  0  0  0  0  0  0  0  0
   37.9079   28.0747   35.6053 H   0  0  0  0  0  0  0  0  0  0  0  0
   38.4791   25.3705   33.8066 H   0  0  0  0  0  0  0  0  0  0  0  0
   36.6689   25.2045   34.0865 H   0  0  0  0  0  0  0  0  0  0  0  0
   37.1807   27.6580   34.4963 H   0  0  0  0  0  0  0  0  0  0  0  0
   35.8125   27.6391   31.8964 H   0  0  0  0  0  0  0  0  0  0  0  0
   36.1309   26.1391   31.6464 H   0  0  0  0  0  0  0  0  0  0  0  0
   38.8350   26.8343   31.9210 H   0  0  0  0  0  0  0  0  0  0  0  0
   38.5121   28.3640   31.9078 H   0  0  0  0  0  0  0  0  0  0  0  0
  1  8  1  0
  1  3  1  0
  2  7  2  0
  3  2  1  0
  4  3  2  0
  4  5  1  0
  5  6  2  0
  6  7  1  0
  9  1  1  0
 10  9  1  0
 11 12  1  0
 11 10  1  0
 12 10  1  0
  1 13  1  1
  2 14  1  0
  4 15  1  0
  6 16  1  0
  8 17  1  0
  8 18  1  0
  8 19  1  0
  9 20  1  0
  9 21  1  0
 10 22  1  0
 11 23  1  0
 11 24  1  0
 12 25  1  0
 12 26  1  0
M  ISO  8  13   8  14  14  15  14  16  14  17   8  18   8  19   8  20   8
M  ISO  6  21   8  22  13  23  13  24  13  25  13  26  13
M  END
>  <minimizedAffinity>  (1) 
-3.70056629

>  <minimizedRMSD>  (1) 
1.83581781

$$$$
