
     RDKit          3D

 47 50  0  0  1  0  0  0  0  0999 V2000
   37.3000   27.6160   33.3160 C   0  0  2  0  0  0  0  0  0  0  0  0
   35.8670   28.0900   33.1440 C   0  0  0  0  0  0  0  0  0  0  0  0
   35.9880   29.4910   32.5940 C   0  0  0  0  0  0  0  0  0  0  0  0
   36.4400   29.3080   31.1730 C   0  0  0  0  0  0  0  0  0  0  0  0
   37.6270   28.4670   30.9970 C   0  0  0  0  0  0  0  0  0  0  0  0
   38.1020   27.5870   32.0940 C   0  0  0  0  0  0  0  0  0  0  0  0
   39.2440   26.8590   31.6490 C   0  0  0  0  0  0  0  0  0  0  0  0
   39.5260   26.1450   30.5020 C   0  0  0  0  0  0  0  0  0  0  0  0
   40.7570   25.6800   30.3700 N   0  0  0  0  0  0  0  0  0  0  0  0
   41.3860   26.0860   31.4810 C   0  0  0  0  0  0  0  0  0  0  0  0
   42.7180   25.8710   31.8020 C   0  0  0  0  0  0  0  0  0  0  0  0
   43.2310   26.3880   32.9680 C   0  0  0  0  0  0  0  0  0  0  0  0
   42.3900   27.1080   33.7790 C   0  0  0  0  0  0  0  0  0  0  0  0
   41.0800   27.2820   33.4010 C   0  0  0  0  0  0  0  0  0  0  0  0
   40.5000   26.7950   32.2600 C   0  0  0  0  0  0  0  0  0  0  0  0
   37.2030   26.2550   33.9760 C   0  0  0  0  0  0  0  0  0  0  0  0
   37.5670   26.2450   35.3900 C   0  0  1  0  0  0  0  0  0  0  0  0
   37.8470   24.4480   37.0490 C   0  0  0  0  0  0  0  0  0  0  0  0
   38.2940   25.0980   35.8900 C   0  0  0  0  0  0  0  0  0  0  0  0
   39.4270   24.5610   35.3080 C   0  0  0  0  0  0  0  0  0  0  0  0
   40.0440   23.4690   35.8580 N   0  0  0  0  0  0  0  0  0  0  0  0
   39.5660   22.8910   36.9730 C   0  0  0  0  0  0  0  0  0  0  0  0
   38.4670   23.3950   37.5540 N   0  0  0  0  0  0  0  0  0  0  0  0
   38.3540   27.5260   35.7260 C   0  0  0  0  0  0  0  0  0  0  0  0
   37.8502   28.3425   33.9320 H   0  0  0  0  0  0  0  0  0  0  0  0
   35.3265   27.4420   32.4384 H   0  0  0  0  0  0  0  0  0  0  0  0
   35.3039   28.0617   34.0885 H   0  0  0  0  0  0  0  0  0  0  0  0
   35.0166   30.0060   32.6283 H   0  0  0  0  0  0  0  0  0  0  0  0
   36.6892   30.1066   33.1766 H   0  0  0  0  0  0  0  0  0  0  0  0
   35.6131   28.8511   30.6095 H   0  0  0  0  0  0  0  0  0  0  0  0
   36.7197   30.3085   30.8114 H   0  0  0  0  0  0  0  0  0  0  0  0
   38.1719   28.4880   30.0417 H   0  0  0  0  0  0  0  0  0  0  0  0
   38.7605   25.9704   29.7315 H   0  0  0  0  0  0  0  0  0  0  0  0
   41.1444   25.1303   29.5898 H   0  0  0  0  0  0  0  0  0  0  0  0
   43.3617   25.2889   31.1261 H   0  0  0  0  0  0  0  0  0  0  0  0
   44.2842   26.2293   33.2427 H   0  0  0  0  0  0  0  0  0  0  0  0
   42.7599   27.5407   34.7203 H   0  0  0  0  0  0  0  0  0  0  0  0
   40.4385   27.8662   34.0772 H   0  0  0  0  0  0  0  0  0  0  0  0
   36.1654   25.9013   33.8850 H   0  0  0  0  0  0  0  0  0  0  0  0
   37.9239   25.6032   33.4608 H   0  0  0  0  0  0  0  0  0  0  0  0
   36.5964   26.1868   35.9043 H   0  0  0  0  0  0  0  0  0  0  0  0
   36.9480   24.8278   37.5565 H   0  0  0  0  0  0  0  0  0  0  0  0
   39.8371   25.0153   34.3940 H   0  0  0  0  0  0  0  0  0  0  0  0
   40.0705   22.0140   37.4046 H   0  0  0  0  0  0  0  0  0  0  0  0
   38.4229   27.6382   36.8181 H   0  0  0  0  0  0  0  0  0  0  0  0
   39.3658   27.4571   35.2999 H   0  0  0  0  0  0  0  0  0  0  0  0
   37.8353   28.3974   35.2999 H   0  0  0  0  0  0  0  0  0  0  0  0
  1 16  1  0
  2  1  1  0
  3  2  1  0
  4  3  1  0
  5  4  1  0
  5  6  2  0
  6  1  1  0
  7  6  1  0
  7 15  1  0
  8  7  2  0
  9  8  1  0
  9 10  1  0
 10 11  2  0
 10 15  1  0
 11 12  1  0
 12 13  2  0
 14 13  1  0
 15 14  2  0
 16 17  1  0
 17 24  1  0
 17 19  1  0
 18 23  2  0
 19 18  1  0
 20 21  1  0
 20 19  2  0
 21 22  2  0
 22 23  1  0
  1 25  1  1
  2 26  1  0
  2 27  1  0
  3 28  1  0
  3 29  1  0
  4 30  1  0
  4 31  1  0
  5 32  1  0
  8 33  1  0
  9 34  1  0
 11 35  1  0
 12 36  1  0
 13 37  1  0
 14 38  1  0
 16 39  1  0
 16 40  1  0
 17 41  1  1
 18 42  1  0
 20 43  1  0
 22 44  1  0
 24 45  1  0
 24 46  1  0
 24 47  1  0
M  ISO  8  25  13  26  13  27  13  28  13  29  13  30  13  31  13  32  13
M  ISO  8  33  14  34   9  35  14  36  14  37  14  38  14  39   8  40   8
M  ISO  7  41   8  42  14  43  14  44  14  45   8  46   8  47   8
M  END
>  <minimizedAffinity>  (1) 
-5.43945599

>  <minimizedRMSD>  (1) 
1.78369701

$$$$
