
     RDKit          3D

 46 48  0  0  1  0  0  0  0  0999 V2000
   37.6140   26.7870   33.2280 C   0  0  2  0  0  0  0  0  0  0  0  0
   36.3530   26.5530   32.3860 C   0  0  0  0  0  0  0  0  0  0  0  0
   36.0700   27.8920   31.7500 C   0  0  0  0  0  0  0  0  0  0  0  0
   37.1400   28.0650   30.7150 C   0  0  0  0  0  0  0  0  0  0  0  0
   38.5160   27.8370   31.1740 C   0  0  0  0  0  0  0  0  0  0  0  0
   38.7870   27.2030   32.4870 C   0  0  0  0  0  0  0  0  0  0  0  0
   43.0240   27.2740   32.9630 C   0  0  0  0  0  0  0  0  0  0  0  0
   42.4810   27.4690   31.7150 C   0  0  0  0  0  0  0  0  0  0  0  0
   41.1210   27.4110   31.5920 C   0  0  0  0  0  0  0  0  0  0  0  0
   40.2240   27.1730   32.6070 C   0  0  0  0  0  0  0  0  0  0  0  0
   40.8940   26.9980   33.7910 C   0  0  0  0  0  0  0  0  0  0  0  0
   42.2400   27.0280   34.0670 C   0  0  0  0  0  0  0  0  0  0  0  0
   44.7630   27.3410   33.1520 S   0  0  0  0  0  0  0  0  0  0  0  0
   45.2580   28.5060   32.3080 O   0  0  0  0  0  0  0  0  0  0  0  0
   45.1050   27.6200   34.5880 O   0  0  0  0  0  0  0  0  0  0  0  0
   37.8240   25.4730   33.9730 C   0  0  0  0  0  0  0  0  0  0  0  0
   37.7210   25.5920   35.4240 C   0  0  1  0  0  0  0  0  0  0  0  0
   38.0090   24.3510   37.5280 C   0  0  0  0  0  0  0  0  0  0  0  0
   38.4530   24.6400   36.2320 C   0  0  0  0  0  0  0  0  0  0  0  0
   39.5870   23.9680   35.8320 C   0  0  0  0  0  0  0  0  0  0  0  0
   40.2130   23.0880   36.6690 N   0  0  0  0  0  0  0  0  0  0  0  0
   39.7450   22.8480   37.9020 C   0  0  0  0  0  0  0  0  0  0  0  0
   38.6450   23.4840   38.3190 N   0  0  0  0  0  0  0  0  0  0  0  0
   38.0570   27.0120   35.8590 C   0  0  0  0  0  0  0  0  0  0  0  0
   37.4660   27.6437   33.9019 H   0  0  0  0  0  0  0  0  0  0  0  0
   36.5353   25.7879   31.6169 H   0  0  0  0  0  0  0  0  0  0  0  0
   35.5083   26.1895   32.9896 H   0  0  0  0  0  0  0  0  0  0  0  0
   35.0749   27.8945   31.2812 H   0  0  0  0  0  0  0  0  0  0  0  0
   36.0733   28.7082   32.4875 H   0  0  0  0  0  0  0  0  0  0  0  0
   37.0776   29.0950   30.3340 H   0  0  0  0  0  0  0  0  0  0  0  0
   36.9472   27.2941   29.9543 H   0  0  0  0  0  0  0  0  0  0  0  0
   39.3580   28.1409   30.5347 H   0  0  0  0  0  0  0  0  0  0  0  0
   43.1213   27.6656   30.8425 H   0  0  0  0  0  0  0  0  0  0  0  0
   40.7046   27.5696   30.5863 H   0  0  0  0  0  0  0  0  0  0  0  0
   40.2495   26.8018   34.6606 H   0  0  0  0  0  0  0  0  0  0  0  0
   42.6517   26.8703   35.0748 H   0  0  0  0  0  0  0  0  0  0  0  0
   45.3347   26.1556   32.7715 H   0  0  0  0  0  0  0  0  0  0  0  0
   37.0645   24.7552   33.6297 H   0  0  0  0  0  0  0  0  0  0  0  0
   38.8493   25.1415   33.7522 H   0  0  0  0  0  0  0  0  0  0  0  0
   36.6695   25.3369   35.6222 H   0  0  0  0  0  0  0  0  0  0  0  0
   37.1072   24.8545   37.9065 H   0  0  0  0  0  0  0  0  0  0  0  0
   39.9941   24.1422   34.8251 H   0  0  0  0  0  0  0  0  0  0  0  0
   40.2601   22.1358   38.5635 H   0  0  0  0  0  0  0  0  0  0  0  0
   38.0697   27.0656   36.9576 H   0  0  0  0  0  0  0  0  0  0  0  0
   39.0460   27.2913   35.4668 H   0  0  0  0  0  0  0  0  0  0  0  0
   37.2980   27.7049   35.4668 H   0  0  0  0  0  0  0  0  0  0  0  0
  1 16  1  0
  2  1  1  0
  3  2  1  0
  4  5  1  0
  4  3  1  0
  5  6  2  0
  6 10  1  0
  6  1  1  0
  7 13  1  0
  7 12  2  0
  8  7  1  0
  9  8  2  0
  9 10  1  0
 10 11  2  0
 11 12  1  0
 13 15  2  0
 14 13  2  0
 16 17  1  0
 17 24  1  0
 17 19  1  0
 18 23  2  0
 19 18  1  0
 20 19  2  0
 20 21  1  0
 21 22  2  0
 22 23  1  0
  1 25  1  1
  2 26  1  0
  2 27  1  0
  3 28  1  0
  3 29  1  0
  4 30  1  0
  4 31  1  0
  5 32  1  0
  8 33  1  0
  9 34  1  0
 11 35  1  0
 12 36  1  0
 13 37  1  0
 16 38  1  0
 16 39  1  0
 17 40  1  6
 18 41  1  0
 20 42  1  0
 22 43  1  0
 24 44  1  0
 24 45  1  0
 24 46  1  0
M  ISO  8  25  13  26  13  27  13  28  13  29  13  30  13  31  13  32  13
M  ISO  8  33  14  34  14  35  14  36  14  37  11  38   8  39   8  40   8
M  ISO  6  41  14  42  14  43  14  44   8  45   8  46   8
M  END
>  <minimizedAffinity>  (1) 
-5.28960657

>  <minimizedRMSD>  (1) 
1.45356166

$$$$
