
     RDKit          3D

 33 34  0  0  1  0  0  0  0  0999 V2000
   37.7610   25.9240   35.5220 C   0  0  1  0  0  0  0  0  0  0  0  0
   37.9560   24.5310   37.5290 C   0  0  0  0  0  0  0  0  0  0  0  0
   38.4510   24.8520   36.2390 C   0  0  0  0  0  0  0  0  0  0  0  0
   39.5440   24.1140   35.7550 C   0  0  0  0  0  0  0  0  0  0  0  0
   40.0670   23.1310   36.5490 N   0  0  0  0  0  0  0  0  0  0  0  0
   39.5610   22.8580   37.7740 C   0  0  0  0  0  0  0  0  0  0  0  0
   38.5100   23.5600   38.2550 N   0  0  0  0  0  0  0  0  0  0  0  0
   38.4440   27.2630   35.8420 C   0  0  0  0  0  0  0  0  0  0  0  0
   37.6460   25.7560   34.0550 C   0  0  0  0  0  0  0  0  0  0  0  0
   37.8310   27.0540   33.2950 C   0  0  2  0  0  0  0  0  0  0  0  0
   36.4990   27.4460   32.7270 C   0  0  0  0  0  0  0  0  0  0  0  0
   36.7180   28.7840   32.0430 C   0  0  0  0  0  0  0  0  0  0  0  0
   37.5520   28.5070   30.8400 C   0  0  0  0  0  0  0  0  0  0  0  0
   38.7760   27.7020   31.0430 C   0  0  0  0  0  0  0  0  0  0  0  0
   38.9380   26.9800   32.3220 C   0  0  0  0  0  0  0  0  0  0  0  0
   36.7226   25.8931   35.8837 H   0  0  0  0  0  0  0  0  0  0  0  0
   37.1020   25.0919   37.9364 H   0  0  0  0  0  0  0  0  0  0  0  0
   39.9687   24.3217   34.7618 H   0  0  0  0  0  0  0  0  0  0  0  0
   40.0081   22.0588   38.3833 H   0  0  0  0  0  0  0  0  0  0  0  0
   38.5088   27.3901   36.9327 H   0  0  0  0  0  0  0  0  0  0  0  0
   39.4561   27.2706   35.4112 H   0  0  0  0  0  0  0  0  0  0  0  0
   37.8559   28.0868   35.4112 H   0  0  0  0  0  0  0  0  0  0  0  0
   38.4142   25.0423   33.7224 H   0  0  0  0  0  0  0  0  0  0  0  0
   36.6295   25.3925   33.8437 H   0  0  0  0  0  0  0  0  0  0  0  0
   38.1563   27.8620   33.9667 H   0  0  0  0  0  0  0  0  0  0  0  0
   36.1571   26.6953   31.9993 H   0  0  0  0  0  0  0  0  0  0  0  0
   35.7291   27.5129   33.5098 H   0  0  0  0  0  0  0  0  0  0  0  0
   35.7538   29.2220   31.7454 H   0  0  0  0  0  0  0  0  0  0  0  0
   37.2119   29.5008   32.7155 H   0  0  0  0  0  0  0  0  0  0  0  0
   37.8580   29.4757   30.4180 H   0  0  0  0  0  0  0  0  0  0  0  0
   36.9139   27.8966   30.1841 H   0  0  0  0  0  0  0  0  0  0  0  0
   39.5471   27.6422   30.2608 H   0  0  0  0  0  0  0  0  0  0  0  0
   39.8514   26.4076   32.5411 H   0  0  0  0  0  0  0  0  0  0  0  0
  1  8  1  0
  1  3  1  0
  2  7  2  0
  3  2  1  0
  4  3  2  0
  4  5  1  0
  5  6  2  0
  6  7  1  0
  9  1  1  0
 10  9  1  0
 11 10  1  0
 12 11  1  0
 13 14  1  0
 13 12  1  0
 14 15  2  0
 15 10  1  0
  1 16  1  1
  2 17  1  0
  4 18  1  0
  6 19  1  0
  8 20  1  0
  8 21  1  0
  8 22  1  0
  9 23  1  0
  9 24  1  0
 10 25  1  1
 11 26  1  0
 11 27  1  0
 12 28  1  0
 12 29  1  0
 13 30  1  0
 13 31  1  0
 14 32  1  0
 15 33  1  0
M  ISO  8  16   8  17  14  18  14  19  14  20   8  21   8  22   8  23   8
M  ISO  8  24   8  25  13  26  13  27  13  28  13  29  13  30  13  31  13
M  ISO  2  32  13  33  13
M  END
>  <minimizedAffinity>  (1) 
-4.41634321

>  <minimizedRMSD>  (1) 
3.41705298

$$$$
