
     RDKit          3D

 45 46  0  0  1  0  0  0  0  0999 V2000
   37.7090   25.7360   34.0520 C   0  0  0  0  0  0  0  0  0  0  0  0
   37.7920   27.0370   33.3100 C   0  0  2  0  0  0  0  0  0  0  0  0
   36.3930   27.2450   32.7360 C   0  0  0  0  0  0  0  0  0  0  0  0
   36.3840   28.6420   32.1570 C   0  0  0  0  0  0  0  0  0  0  0  0
   37.2470   28.5620   30.9580 C   0  0  0  0  0  0  0  0  0  0  0  0
   38.5860   27.9910   31.1820 C   0  0  0  0  0  0  0  0  0  0  0  0
   38.8960   27.1970   32.3900 C   0  0  0  0  0  0  0  0  0  0  0  0
   40.2960   26.7240   32.3520 C   0  0  0  0  0  0  0  0  0  0  0  0
   40.4810   25.2410   32.3970 C   0  0  0  0  0  0  0  0  0  0  0  0
   41.1050   27.4310   31.2830 C   0  0  0  0  0  0  0  0  0  0  0  0
   41.0480   27.0940   33.6580 C   0  0  0  0  0  0  0  0  0  0  0  0
   37.7390   25.8460   35.5150 C   0  0  1  0  0  0  0  0  0  0  0  0
   37.9890   24.4680   37.5340 C   0  0  0  0  0  0  0  0  0  0  0  0
   38.4390   24.8110   36.2500 C   0  0  0  0  0  0  0  0  0  0  0  0
   39.5340   24.1060   35.7950 C   0  0  0  0  0  0  0  0  0  0  0  0
   40.1190   23.1420   36.5700 N   0  0  0  0  0  0  0  0  0  0  0  0
   39.6400   22.8590   37.7960 C   0  0  0  0  0  0  0  0  0  0  0  0
   38.5770   23.5280   38.2640 N   0  0  0  0  0  0  0  0  0  0  0  0
   38.2640   27.2180   35.9410 C   0  0  0  0  0  0  0  0  0  0  0  0
   38.5597   25.1121   33.7405 H   0  0  0  0  0  0  0  0  0  0  0  0
   36.7297   25.3034   33.7993 H   0  0  0  0  0  0  0  0  0  0  0  0
   38.0667   27.8549   33.9924 H   0  0  0  0  0  0  0  0  0  0  0  0
   36.1884   26.5038   31.9494 H   0  0  0  0  0  0  0  0  0  0  0  0
   35.6185   27.1235   33.5076 H   0  0  0  0  0  0  0  0  0  0  0  0
   35.3620   28.9394   31.8793 H   0  0  0  0  0  0  0  0  0  0  0  0
   36.7439   29.3914   32.8773 H   0  0  0  0  0  0  0  0  0  0  0  0
   37.3740   29.5805   30.5624 H   0  0  0  0  0  0  0  0  0  0  0  0
   36.7379   27.8786   30.2624 H   0  0  0  0  0  0  0  0  0  0  0  0
   39.3738   28.1592   30.4330 H   0  0  0  0  0  0  0  0  0  0  0  0
   40.5225   24.9083   33.4447 H   0  0  0  0  0  0  0  0  0  0  0  0
   39.6371   24.7507   31.8897 H   0  0  0  0  0  0  0  0  0  0  0  0
   41.4195   24.9730   31.8897 H   0  0  0  0  0  0  0  0  0  0  0  0
   41.8515   28.0834   31.7596 H   0  0  0  0  0  0  0  0  0  0  0  0
   41.6163   26.6851   30.6568 H   0  0  0  0  0  0  0  0  0  0  0  0
   40.4343   28.0377   30.6568 H   0  0  0  0  0  0  0  0  0  0  0  0
   40.4425   26.7961   34.5267 H   0  0  0  0  0  0  0  0  0  0  0  0
   42.0138   26.5682   33.6865 H   0  0  0  0  0  0  0  0  0  0  0  0
   41.2208   28.1800   33.6865 H   0  0  0  0  0  0  0  0  0  0  0  0
   36.6839   25.7045   35.7919 H   0  0  0  0  0  0  0  0  0  0  0  0
   37.1186   24.9964   37.9502 H   0  0  0  0  0  0  0  0  0  0  0  0
   39.9420   24.3216   34.7965 H   0  0  0  0  0  0  0  0  0  0  0  0
   40.1187   22.0825   38.4107 H   0  0  0  0  0  0  0  0  0  0  0  0
   38.2866   27.2771   37.0392 H   0  0  0  0  0  0  0  0  0  0  0  0
   39.2803   27.3608   35.5451 H   0  0  0  0  0  0  0  0  0  0  0  0
   37.6026   28.0028   35.5451 H   0  0  0  0  0  0  0  0  0  0  0  0
  1 12  1  0
  2  1  1  0
  3  2  1  0
  4  3  1  0
  5  6  1  0
  5  4  1  0
  6  7  2  0
  7  2  1  0
  8  7  1  0
  8  9  1  0
  8 11  1  0
 10  8  1  0
 12 19  1  0
 12 14  1  0
 13 18  2  0
 14 13  1  0
 15 14  2  0
 15 16  1  0
 16 17  2  0
 17 18  1  0
  1 20  1  0
  1 21  1  0
  2 22  1  1
  3 23  1  0
  3 24  1  0
  4 25  1  0
  4 26  1  0
  5 27  1  0
  5 28  1  0
  6 29  1  0
  9 30  1  0
  9 31  1  0
  9 32  1  0
 10 33  1  0
 10 34  1  0
 10 35  1  0
 11 36  1  0
 11 37  1  0
 11 38  1  0
 12 39  1  1
 13 40  1  0
 15 41  1  0
 17 42  1  0
 19 43  1  0
 19 44  1  0
 19 45  1  0
M  ISO  8  20   8  21   8  22  13  23  13  24  13  25  13  26  13  27  13
M  ISO  8  28  13  29  13  30   8  31   8  32   8  33   8  34   8  35   8
M  ISO  8  36   8  37   8  38   8  39   8  40  14  41  14  42  14  43   8
M  ISO  2  44   8  45   8
M  END
>  <minimizedAffinity>  (1) 
-4.85801697

>  <minimizedRMSD>  (1) 
0.312937915

$$$$
