
     RDKit          3D

 38 40  0  0  1  0  0  0  0  0999 V2000
   37.8800   26.8980   33.4410 C   0  0  2  0  0  0  0  0  0  0  0  0
   36.6940   27.1450   32.5240 C   0  0  0  0  0  0  0  0  0  0  0  0
   36.9720   28.4750   31.8550 C   0  0  0  0  0  0  0  0  0  0  0  0
   38.0910   28.2180   30.9070 C   0  0  0  0  0  0  0  0  0  0  0  0
   39.2810   27.5680   31.4990 C   0  0  0  0  0  0  0  0  0  0  0  0
   39.1920   26.9050   32.8110 C   0  0  0  0  0  0  0  0  0  0  0  0
   40.5110   26.4550   33.1250 C   0  0  0  0  0  0  0  0  0  0  0  0
   41.2620   25.4630   32.6340 N   0  0  0  0  0  0  0  0  0  0  0  0
   42.4230   25.4320   33.1800 O   0  0  0  0  0  0  0  0  0  0  0  0
   42.5190   26.3890   34.0590 C   0  0  0  0  0  0  0  0  0  0  0  0
   41.3410   26.9950   34.0040 N   0  0  0  0  0  0  0  0  0  0  0  0
   37.5430   25.6460   34.2080 C   0  0  0  0  0  0  0  0  0  0  0  0
   37.7140   25.7710   35.6540 C   0  0  1  0  0  0  0  0  0  0  0  0
   38.0540   24.3740   37.6490 C   0  0  0  0  0  0  0  0  0  0  0  0
   38.4480   24.7510   36.3580 C   0  0  0  0  0  0  0  0  0  0  0  0
   39.5430   24.0850   35.8500 C   0  0  0  0  0  0  0  0  0  0  0  0
   40.1960   23.1230   36.5650 N   0  0  0  0  0  0  0  0  0  0  0  0
   39.7590   22.8050   37.8180 C   0  0  0  0  0  0  0  0  0  0  0  0
   38.6970   23.4330   38.3410 N   0  0  0  0  0  0  0  0  0  0  0  0
   38.2960   27.1570   36.0230 C   0  0  0  0  0  0  0  0  0  0  0  0
   38.0125   27.7530   34.1202 H   0  0  0  0  0  0  0  0  0  0  0  0
   36.6155   26.3454   31.7727 H   0  0  0  0  0  0  0  0  0  0  0  0
   35.7441   27.1570   33.0785 H   0  0  0  0  0  0  0  0  0  0  0  0
   36.0817   28.8259   31.3126 H   0  0  0  0  0  0  0  0  0  0  0  0
   37.2290   29.2542   32.5877 H   0  0  0  0  0  0  0  0  0  0  0  0
   38.4059   29.1827   30.4826 H   0  0  0  0  0  0  0  0  0  0  0  0
   37.7003   27.5147   30.1568 H   0  0  0  0  0  0  0  0  0  0  0  0
   40.2376   27.5800   30.9561 H   0  0  0  0  0  0  0  0  0  0  0  0
   43.3787   26.6369   34.6989 H   0  0  0  0  0  0  0  0  0  0  0  0
   36.4932   25.3878   34.0048 H   0  0  0  0  0  0  0  0  0  0  0  0
   38.2433   24.8677   33.8707 H   0  0  0  0  0  0  0  0  0  0  0  0
   36.6810   25.6342   36.0065 H   0  0  0  0  0  0  0  0  0  0  0  0
   37.1857   24.8708   38.1065 H   0  0  0  0  0  0  0  0  0  0  0  0
   39.9004   24.3359   34.8404 H   0  0  0  0  0  0  0  0  0  0  0  0
   40.2800   22.0309   38.4005 H   0  0  0  0  0  0  0  0  0  0  0  0
   38.3381   27.2574   37.1176 H   0  0  0  0  0  0  0  0  0  0  0  0
   39.3098   27.2516   35.6068 H   0  0  0  0  0  0  0  0  0  0  0  0
   37.6536   27.9470   35.6068 H   0  0  0  0  0  0  0  0  0  0  0  0
  1 12  1  0
  2  1  1  0
  3  2  1  0
  4  5  1  0
  4  3  1  0
  5  6  2  0
  6  7  1  0
  6  1  1  0
  7 11  1  0
  8  7  2  0
  8  9  1  0
  9 10  1  0
 11 10  2  0
 12 13  1  0
 13 20  1  0
 13 15  1  0
 14 19  2  0
 15 14  1  0
 16 15  2  0
 16 17  1  0
 17 18  2  0
 18 19  1  0
  1 21  1  1
  2 22  1  0
  2 23  1  0
  3 24  1  0
  3 25  1  0
  4 26  1  0
  4 27  1  0
  5 28  1  0
 10 29  1  0
 12 30  1  0
 12 31  1  0
 13 32  1  1
 14 33  1  0
 16 34  1  0
 18 35  1  0
 20 36  1  0
 20 37  1  0
 20 38  1  0
M  ISO  8  21  13  22  13  23  13  24  13  25  13  26  13  27  13  28  13
M  ISO  8  29  14  30   8  31   8  32   8  33  14  34  14  35  14  36   8
M  ISO  2  37   8  38   8
M  END
>  <minimizedAffinity>  (1) 
-4.78014803

>  <minimizedRMSD>  (1) 
0.818845272

$$$$
