
     RDKit          3D

 42 43  0  0  1  0  0  0  0  0999 V2000
   37.5800   25.6890   34.1710 C   0  0  0  0  0  0  0  0  0  0  0  0
   37.8100   27.0050   33.4360 C   0  0  2  0  0  0  0  0  0  0  0  0
   36.5240   27.2400   32.6620 C   0  0  0  0  0  0  0  0  0  0  0  0
   36.7020   28.6120   32.0340 C   0  0  0  0  0  0  0  0  0  0  0  0
   37.7100   28.4090   30.9430 C   0  0  0  0  0  0  0  0  0  0  0  0
   38.9400   27.7050   31.3170 C   0  0  0  0  0  0  0  0  0  0  0  0
   39.0170   26.9810   32.6090 C   0  0  0  0  0  0  0  0  0  0  0  0
   40.3050   26.3570   32.8030 C   0  0  0  0  0  0  0  0  0  0  0  0
   41.1090   26.1950   31.5350 C   0  0  0  0  0  0  0  0  0  0  0  0
   41.2260   27.0260   33.7990 C   0  0  0  0  0  0  0  0  0  0  0  0
   37.7120   25.8050   35.6230 C   0  0  1  0  0  0  0  0  0  0  0  0
   38.0370   24.4110   37.6120 C   0  0  0  0  0  0  0  0  0  0  0  0
   38.4530   24.7680   36.3180 C   0  0  0  0  0  0  0  0  0  0  0  0
   39.5500   24.0880   35.8090 C   0  0  0  0  0  0  0  0  0  0  0  0
   40.1720   23.1260   36.5510 N   0  0  0  0  0  0  0  0  0  0  0  0
   39.7170   22.8270   37.8020 C   0  0  0  0  0  0  0  0  0  0  0  0
   38.6590   23.4650   38.3230 N   0  0  0  0  0  0  0  0  0  0  0  0
   38.2930   27.1790   35.9990 C   0  0  0  0  0  0  0  0  0  0  0  0
   38.3163   24.9552   33.8113 H   0  0  0  0  0  0  0  0  0  0  0  0
   36.5462   25.3764   33.9624 H   0  0  0  0  0  0  0  0  0  0  0  0
   38.0093   27.8425   34.1207 H   0  0  0  0  0  0  0  0  0  0  0  0
   36.3915   26.4717   31.8861 H   0  0  0  0  0  0  0  0  0  0  0  0
   35.6334   27.1874   33.3055 H   0  0  0  0  0  0  0  0  0  0  0  0
   35.7499   28.9740   31.6188 H   0  0  0  0  0  0  0  0  0  0  0  0
   37.0308   29.3634   32.7670 H   0  0  0  0  0  0  0  0  0  0  0  0
   37.9945   29.4005   30.5610 H   0  0  0  0  0  0  0  0  0  0  0  0
   37.2153   27.7618   30.2038 H   0  0  0  0  0  0  0  0  0  0  0  0
   39.8063   27.7137   30.6391 H   0  0  0  0  0  0  0  0  0  0  0  0
   39.9881   25.3828   33.2037 H   0  0  0  0  0  0  0  0  0  0  0  0
   42.1579   25.9837   31.7904 H   0  0  0  0  0  0  0  0  0  0  0  0
   40.7000   25.3612   30.9455 H   0  0  0  0  0  0  0  0  0  0  0  0
   41.0548   27.1221   30.9455 H   0  0  0  0  0  0  0  0  0  0  0  0
   40.8967   26.7868   34.8209 H   0  0  0  0  0  0  0  0  0  0  0  0
   42.2534   26.6622   33.6502 H   0  0  0  0  0  0  0  0  0  0  0  0
   41.1977   28.1155   33.6502 H   0  0  0  0  0  0  0  0  0  0  0  0
   36.6771   25.6760   35.9727 H   0  0  0  0  0  0  0  0  0  0  0  0
   37.1717   24.9266   38.0541 H   0  0  0  0  0  0  0  0  0  0  0  0
   39.9208   24.3257   34.8010 H   0  0  0  0  0  0  0  0  0  0  0  0
   40.2259   22.0507   38.3922 H   0  0  0  0  0  0  0  0  0  0  0  0
   38.3328   27.2730   37.0943 H   0  0  0  0  0  0  0  0  0  0  0  0
   39.3081   27.2734   35.5858 H   0  0  0  0  0  0  0  0  0  0  0  0
   37.6536   27.9730   35.5858 H   0  0  0  0  0  0  0  0  0  0  0  0
  1 11  1  0
  2  1  1  0
  3  2  1  0
  4  3  1  0
  5  6  1  0
  5  4  1  0
  6  7  2  0
  7  8  1  0
  7  2  1  0
  8 10  1  0
  9  8  1  0
 11 18  1  0
 11 13  1  0
 12 17  2  0
 13 12  1  0
 14 13  2  0
 14 15  1  0
 15 16  2  0
 16 17  1  0
  1 19  1  0
  1 20  1  0
  2 21  1  1
  3 22  1  0
  3 23  1  0
  4 24  1  0
  4 25  1  0
  5 26  1  0
  5 27  1  0
  6 28  1  0
  8 29  1  0
  9 30  1  0
  9 31  1  0
  9 32  1  0
 10 33  1  0
 10 34  1  0
 10 35  1  0
 11 36  1  1
 12 37  1  0
 14 38  1  0
 16 39  1  0
 18 40  1  0
 18 41  1  0
 18 42  1  0
M  ISO  8  19   8  20   8  21  13  22  13  23  13  24  13  25  13  26  13
M  ISO  8  27  13  28  13  29   8  30   8  31   8  32   8  33   8  34   8
M  ISO  8  35   8  36   8  37  14  38  14  39  14  40   8  41   8  42   8
M  END
>  <minimizedAffinity>  (1) 
-4.76059151

>  <minimizedRMSD>  (1) 
0.388872474

$$$$
