
     RDKit          3D

 35 36  0  0  1  0  0  0  0  0999 V2000
   37.5770   25.6910   34.1810 C   0  0  0  0  0  0  0  0  0  0  0  0
   37.8120   26.9580   33.4120 C   0  0  2  0  0  0  0  0  0  0  0  0
   36.5250   27.2700   32.6850 C   0  0  0  0  0  0  0  0  0  0  0  0
   36.7680   28.6260   32.0190 C   0  0  0  0  0  0  0  0  0  0  0  0
   37.7460   28.3660   30.9170 C   0  0  0  0  0  0  0  0  0  0  0  0
   38.9510   27.6150   31.2690 C   0  0  0  0  0  0  0  0  0  0  0  0
   38.9840   26.8980   32.5420 C   0  0  0  0  0  0  0  0  0  0  0  0
   40.2270   26.2390   32.7060 C   0  0  0  0  0  0  0  0  0  0  0  0
   41.0670   26.4470   33.6040 O   0  0  0  0  0  0  0  0  0  0  0  0
   37.7550   25.8300   35.6280 C   0  0  1  0  0  0  0  0  0  0  0  0
   38.0520   24.4250   37.6180 C   0  0  0  0  0  0  0  0  0  0  0  0
   38.4790   24.7760   36.3190 C   0  0  0  0  0  0  0  0  0  0  0  0
   39.5600   24.0710   35.8000 C   0  0  0  0  0  0  0  0  0  0  0  0
   40.1510   23.0940   36.5480 N   0  0  0  0  0  0  0  0  0  0  0  0
   39.7040   22.7950   37.7890 C   0  0  0  0  0  0  0  0  0  0  0  0
   38.6540   23.4630   38.3200 N   0  0  0  0  0  0  0  0  0  0  0  0
   38.4040   27.1870   35.9650 C   0  0  0  0  0  0  0  0  0  0  0  0
   38.2829   24.9298   33.8173 H   0  0  0  0  0  0  0  0  0  0  0  0
   36.5268   25.4087   34.0155 H   0  0  0  0  0  0  0  0  0  0  0  0
   38.0623   27.7817   34.0967 H   0  0  0  0  0  0  0  0  0  0  0  0
   36.3112   26.5002   31.9289 H   0  0  0  0  0  0  0  0  0  0  0  0
   35.6602   27.2913   33.3645 H   0  0  0  0  0  0  0  0  0  0  0  0
   35.8283   29.0270   31.6113 H   0  0  0  0  0  0  0  0  0  0  0  0
   37.1512   29.3675   32.7355 H   0  0  0  0  0  0  0  0  0  0  0  0
   38.0654   29.3403   30.5186 H   0  0  0  0  0  0  0  0  0  0  0  0
   37.2087   27.7287   30.1993 H   0  0  0  0  0  0  0  0  0  0  0  0
   39.8152   27.5905   30.5889 H   0  0  0  0  0  0  0  0  0  0  0  0
   40.4769   25.4647   31.9657 H   0  0  0  0  0  0  0  0  0  0  0  0
   36.7255   25.7522   36.0075 H   0  0  0  0  0  0  0  0  0  0  0  0
   37.1998   24.9591   38.0636 H   0  0  0  0  0  0  0  0  0  0  0  0
   39.9366   24.2996   34.7921 H   0  0  0  0  0  0  0  0  0  0  0  0
   40.1978   22.0028   38.3709 H   0  0  0  0  0  0  0  0  0  0  0  0
   38.4605   27.3052   37.0572 H   0  0  0  0  0  0  0  0  0  0  0  0
   39.4175   27.2245   35.5392 H   0  0  0  0  0  0  0  0  0  0  0  0
   37.7970   27.9996   35.5392 H   0  0  0  0  0  0  0  0  0  0  0  0
  1 10  1  0
  2  1  1  0
  3  2  1  0
  4  3  1  0
  5  6  1  0
  5  4  1  0
  6  7  2  0
  7  8  1  0
  7  2  1  0
  8  9  2  0
 10 17  1  0
 10 12  1  0
 11 16  2  0
 12 11  1  0
 13 12  2  0
 13 14  1  0
 14 15  2  0
 15 16  1  0
  1 18  1  0
  1 19  1  0
  2 20  1  1
  3 21  1  0
  3 22  1  0
  4 23  1  0
  4 24  1  0
  5 25  1  0
  5 26  1  0
  6 27  1  0
  8 28  1  0
 10 29  1  1
 11 30  1  0
 13 31  1  0
 15 32  1  0
 17 33  1  0
 17 34  1  0
 17 35  1  0
M  ISO  8  18   8  19   8  20  13  21  13  22  13  23  13  24  13  25  13
M  ISO  8  26  13  27  13  28   6  29   8  30  14  31  14  32  14  33   8
M  ISO  2  34   8  35   8
M  END
>  <minimizedAffinity>  (1) 
-4.42037582

>  <minimizedRMSD>  (1) 
0.275847405

$$$$
