
     RDKit          3D

 20 21  0  0  0  0  0  0  0  0999 V2000
   40.3010   22.4000   35.4200 C   0  0  0  0  0  0  0  0  0  0  0  0
   39.9220   22.8920   36.7020 C   0  0  0  0  0  0  0  0  0  0  0  0
   38.5640   22.9780   36.9910 C   0  0  0  0  0  0  0  0  0  0  0  0
   37.6760   22.5940   36.0510 N   0  0  0  0  0  0  0  0  0  0  0  0
   38.0750   22.1310   34.8390 C   0  0  0  0  0  0  0  0  0  0  0  0
   39.3670   22.0360   34.5320 N   0  0  0  0  0  0  0  0  0  0  0  0
   37.0580   21.7500   33.9110 C   0  0  0  0  0  0  0  0  0  0  0  0
   36.0510   20.8660   33.9010 C   0  0  0  0  0  0  0  0  0  0  0  0
   35.2080   20.7150   32.8400 C   0  0  0  0  0  0  0  0  0  0  0  0
   35.4810   21.5720   31.7420 C   0  0  0  0  0  0  0  0  0  0  0  0
   36.9730   22.5480   32.3550 S   0  0  0  0  0  0  0  0  0  0  0  0
   38.2590   23.4930   38.3300 C   0  0  0  0  0  0  0  0  0  0  0  0
   37.8630   24.8090   38.2300 F   0  0  0  0  0  0  0  0  0  0  0  0
   39.4230   23.4810   39.0590 F   0  0  0  0  0  0  0  0  0  0  0  0
   37.2450   22.8020   38.9520 F   0  0  0  0  0  0  0  0  0  0  0  0
   41.3663   22.3187   35.1581 H   0  0  0  0  0  0  0  0  0  0  0  0
   40.6794   23.1944   37.4402 H   0  0  0  0  0  0  0  0  0  0  0  0
   35.8976   20.2340   34.7882 H   0  0  0  0  0  0  0  0  0  0  0  0
   34.3828   19.9876   32.8354 H   0  0  0  0  0  0  0  0  0  0  0  0
   34.9557   21.6475   30.7785 H   0  0  0  0  0  0  0  0  0  0  0  0
  1  2  2  0
  2  3  1  0
  3 12  1  0
  4  3  2  0
  5  4  1  0
  6  5  2  0
  6  1  1  0
  7  5  1  0
  8  7  2  0
  9  8  1  0
 10 11  1  0
 10  9  2  0
 11  7  1  0
 12 15  1  0
 12 14  1  0
 13 12  1  0
  1 16  1  0
  2 17  1  0
  8 18  1  0
  9 19  1  0
 10 20  1  0
M  ISO  5  16  14  17  14  18  14  19  14  20  14
M  END
>  <minimizedAffinity>  (1) 
-4.78431702

>  <minimizedRMSD>  (1) 
1.69371092

$$$$
