
     RDKit          3D

 49 52  0  0  1  0  0  0  0  0999 V2000
   37.8300   23.9430   33.5550 C   0  0  0  0  0  0  0  0  0  0  0  0
   37.1930   24.3180   32.2500 C   0  0  2  0  0  0  0  0  0  0  0  0
   36.6840   25.7420   32.4420 C   0  0  0  0  0  0  0  0  0  0  0  0
   36.2130   26.1570   31.0590 C   0  0  0  0  0  0  0  0  0  0  0  0
   34.9110   25.4060   30.9170 C   0  0  0  0  0  0  0  0  0  0  0  0
   35.0450   23.9470   31.0910 C   0  0  0  0  0  0  0  0  0  0  0  0
   36.2190   23.3570   31.7710 C   0  0  0  0  0  0  0  0  0  0  0  0
   36.0150   21.9170   31.7290 C   0  0  0  0  0  0  0  0  0  0  0  0
   35.0210   21.1470   32.5160 C   0  0  0  0  0  0  0  0  0  0  0  0
   35.3310   19.4950   31.8290 S   0  0  0  0  0  0  0  0  0  0  0  0
   36.7000   20.0690   30.6370 C   0  0  0  0  0  0  0  0  0  0  0  0
   36.8140   21.4400   30.8440 N   0  0  0  0  0  0  0  0  0  0  0  0
   39.2540   24.1950   33.6560 C   0  0  1  0  0  0  0  0  0  0  0  0
   40.3860   23.4580   31.6010 C   0  0  0  0  0  0  0  0  0  0  0  0
   40.0070   24.4880   32.4710 C   0  0  0  0  0  0  0  0  0  0  0  0
   40.4050   25.7330   32.0890 C   0  0  0  0  0  0  0  0  0  0  0  0
   41.1200   25.9500   30.9440 N   0  0  0  0  0  0  0  0  0  0  0  0
   41.4500   24.9090   30.1540 C   0  0  0  0  0  0  0  0  0  0  0  0
   41.0790   23.6790   30.4950 N   0  0  0  0  0  0  0  0  0  0  0  0
   39.5330   25.2550   34.7290 C   0  0  0  0  0  0  0  0  0  0  0  0
   39.2220   24.5620   36.0340 C   0  0  0  0  0  0  0  0  0  0  0  0
   39.9660   23.4840   36.4650 C   0  0  0  0  0  0  0  0  0  0  0  0
   39.7390   22.8140   37.6420 C   0  0  0  0  0  0  0  0  0  0  0  0
   38.7070   23.2320   38.4530 C   0  0  0  0  0  0  0  0  0  0  0  0
   37.9360   24.3070   38.0610 C   0  0  0  0  0  0  0  0  0  0  0  0
   38.1840   24.9630   36.8760 C   0  0  0  0  0  0  0  0  0  0  0  0
   37.6653   22.8672   33.7144 H   0  0  0  0  0  0  0  0  0  0  0  0
   37.3580   24.5845   34.3138 H   0  0  0  0  0  0  0  0  0  0  0  0
   37.9162   24.2916   31.4215 H   0  0  0  0  0  0  0  0  0  0  0  0
   35.8520   25.7656   33.1612 H   0  0  0  0  0  0  0  0  0  0  0  0
   37.4551   26.4151   32.8449 H   0  0  0  0  0  0  0  0  0  0  0  0
   36.0529   27.2439   31.0033 H   0  0  0  0  0  0  0  0  0  0  0  0
   36.9381   25.9311   30.2632 H   0  0  0  0  0  0  0  0  0  0  0  0
   34.2084   25.7829   31.6748 H   0  0  0  0  0  0  0  0  0  0  0  0
   34.5528   25.5755   29.8909 H   0  0  0  0  0  0  0  0  0  0  0  0
   34.2556   23.2841   30.7071 H   0  0  0  0  0  0  0  0  0  0  0  0
   34.3086   21.4780   33.2860 H   0  0  0  0  0  0  0  0  0  0  0  0
   37.2772   19.4494   29.9350 H   0  0  0  0  0  0  0  0  0  0  0  0
   39.6342   23.1990   33.9270 H   0  0  0  0  0  0  0  0  0  0  0  0
   40.0966   22.4255   31.8462 H   0  0  0  0  0  0  0  0  0  0  0  0
   40.1425   26.5929   32.7228 H   0  0  0  0  0  0  0  0  0  0  0  0
   42.0240   25.0766   29.2308 H   0  0  0  0  0  0  0  0  0  0  0  0
   40.5859   25.5719   34.6982 H   0  0  0  0  0  0  0  0  0  0  0  0
   38.9320   26.1649   34.5847 H   0  0  0  0  0  0  0  0  0  0  0  0
   40.7927   23.1393   35.8264 H   0  0  0  0  0  0  0  0  0  0  0  0
   40.3691   21.9601   37.9316 H   0  0  0  0  0  0  0  0  0  0  0  0
   38.5001   22.7150   39.4016 H   0  0  0  0  0  0  0  0  0  0  0  0
   37.1107   24.6451   38.7049 H   0  0  0  0  0  0  0  0  0  0  0  0
   37.5535   25.8172   36.5884 H   0  0  0  0  0  0  0  0  0  0  0  0
  1 13  1  0
  2  3  1  0
  2  1  1  0
  4  3  1  0
  5  4  1  0
  5  6  1  0
  6  7  2  0
  7  2  1  0
  8  7  1  0
  8  9  2  0
 10  9  1  0
 11 12  2  0
 11 10  1  0
 12  8  1  0
 13 20  1  0
 14 15  2  0
 15 13  1  0
 16 15  1  0
 17 16  2  0
 18 19  2  0
 18 17  1  0
 19 14  1  0
 20 21  1  0
 21 22  2  0
 21 26  1  0
 22 23  1  0
 23 24  2  0
 25 24  1  0
 26 25  2  0
  1 27  1  0
  1 28  1  0
  2 29  1  6
  3 30  1  0
  3 31  1  0
  4 32  1  0
  4 33  1  0
  5 34  1  0
  5 35  1  0
  6 36  1  0
  9 37  1  0
 11 38  1  0
 13 39  1  1
 14 40  1  0
 16 41  1  0
 18 42  1  0
 20 43  1  0
 20 44  1  0
 22 45  1  0
 23 46  1  0
 24 47  1  0
 25 48  1  0
 26 49  1  0
M  ISO  8  27   8  28   8  29  13  30  13  31  13  32  13  33  13  34  13
M  ISO  8  35  13  36  13  37  14  38  14  39   8  40  14  41  14  42  14
M  ISO  7  43   8  44   8  45  14  46  14  47  14  48  14  49  14
M  END
>  <minimizedAffinity>  (1) 
-5.29880095

>  <minimizedRMSD>  (1) 
5.411201

$$$$
