
     RDKit          3D

 45 48  0  0  1  0  0  0  0  0999 V2000
   38.3110   21.5460   33.7470 C   0  0  0  0  0  0  0  0  0  0  0  0
   37.2250   21.2570   32.7520 C   0  0  2  0  0  0  0  0  0  0  0  0
   35.9440   21.1720   33.5770 C   0  0  0  0  0  0  0  0  0  0  0  0
   34.8370   21.0720   32.5360 C   0  0  0  0  0  0  0  0  0  0  0  0
   34.9650   19.6460   32.0640 C   0  0  0  0  0  0  0  0  0  0  0  0
   36.3070   19.2940   31.5640 C   0  0  0  0  0  0  0  0  0  0  0  0
   37.4970   20.1100   31.8970 C   0  0  0  0  0  0  0  0  0  0  0  0
   38.6080   19.4820   31.2220 C   0  0  0  0  0  0  0  0  0  0  0  0
   39.5210   18.4570   31.7780 C   0  0  0  0  0  0  0  0  0  0  0  0
   40.5390   18.1360   30.3120 S   0  0  0  0  0  0  0  0  0  0  0  0
   39.6270   19.3820   29.2030 C   0  0  0  0  0  0  0  0  0  0  0  0
   38.6410   19.9280   30.0210 N   0  0  0  0  0  0  0  0  0  0  0  0
   38.2590   22.8510   34.3700 C   0  0  1  0  0  0  0  0  0  0  0  0
   37.5610   23.5410   36.6260 C   0  0  0  0  0  0  0  0  0  0  0  0
   38.5200   22.9800   35.7740 C   0  0  0  0  0  0  0  0  0  0  0  0
   39.6690   22.5840   36.3870 C   0  0  0  0  0  0  0  0  0  0  0  0
   39.8680   22.7260   37.7340 N   0  0  0  0  0  0  0  0  0  0  0  0
   38.8940   23.2780   38.4940 C   0  0  0  0  0  0  0  0  0  0  0  0
   37.7520   23.6790   37.9260 N   0  0  0  0  0  0  0  0  0  0  0  0
   39.1120   23.8570   33.5790 C   0  0  0  0  0  0  0  0  0  0  0  0
   38.1300   24.9540   33.2040 C   0  0  0  0  0  0  0  0  0  0  0  0
   38.2830   26.2730   33.9490 C   0  0  0  0  0  0  0  0  0  0  0  0
   37.0250   27.2930   33.2850 S   0  0  0  0  0  0  0  0  0  0  0  0
   36.4170   25.9290   32.1090 C   0  0  0  0  0  0  0  0  0  0  0  0
   37.1900   24.8010   32.2850 N   0  0  0  0  0  0  0  0  0  0  0  0
   39.2771   21.4571   33.2285 H   0  0  0  0  0  0  0  0  0  0  0  0
   38.1736   20.8190   34.5610 H   0  0  0  0  0  0  0  0  0  0  0  0
   37.1383   22.0532   31.9979 H   0  0  0  0  0  0  0  0  0  0  0  0
   35.9540   20.2817   34.2230 H   0  0  0  0  0  0  0  0  0  0  0  0
   35.8160   22.0345   34.2475 H   0  0  0  0  0  0  0  0  0  0  0  0
   33.8500   21.2553   32.9857 H   0  0  0  0  0  0  0  0  0  0  0  0
   34.9257   21.8124   31.7274 H   0  0  0  0  0  0  0  0  0  0  0  0
   34.7251   18.9807   32.9065 H   0  0  0  0  0  0  0  0  0  0  0  0
   34.2713   19.5290   31.2183 H   0  0  0  0  0  0  0  0  0  0  0  0
   36.4269   18.4041   30.9286 H   0  0  0  0  0  0  0  0  0  0  0  0
   39.5679   18.0185   32.7857 H   0  0  0  0  0  0  0  0  0  0  0  0
   39.8326   19.6192   28.1487 H   0  0  0  0  0  0  0  0  0  0  0  0
   37.1823   23.0709   34.3222 H   0  0  0  0  0  0  0  0  0  0  0  0
   36.6080   23.8813   36.1947 H   0  0  0  0  0  0  0  0  0  0  0  0
   40.4666   22.1335   35.7780 H   0  0  0  0  0  0  0  0  0  0  0  0
   39.0416   23.3966   39.5776 H   0  0  0  0  0  0  0  0  0  0  0  0
   39.9252   24.2563   34.2029 H   0  0  0  0  0  0  0  0  0  0  0  0
   39.5972   23.4042   32.7018 H   0  0  0  0  0  0  0  0  0  0  0  0
   39.0173   26.5272   34.7276 H   0  0  0  0  0  0  0  0  0  0  0  0
   35.5810   26.0245   31.4004 H   0  0  0  0  0  0  0  0  0  0  0  0
  1 13  1  0
  2  3  1  0
  2  1  1  0
  4  3  1  0
  5  4  1  0
  6  7  2  0
  6  5  1  0
  7  2  1  0
  8  9  2  0
  8  7  1  0
 10  9  1  0
 11 12  2  0
 11 10  1  0
 12  8  1  0
 13 15  1  0
 14 19  2  0
 15 16  2  0
 15 14  1  0
 16 17  1  0
 17 18  2  0
 19 18  1  0
 20 13  1  0
 21 20  1  0
 21 22  2  0
 23 22  1  0
 24 25  2  0
 24 23  1  0
 25 21  1  0
  1 26  1  0
  1 27  1  0
  2 28  1  6
  3 29  1  0
  3 30  1  0
  4 31  1  0
  4 32  1  0
  5 33  1  0
  5 34  1  0
  6 35  1  0
  9 36  1  0
 11 37  1  0
 13 38  1  1
 14 39  1  0
 16 40  1  0
 18 41  1  0
 20 42  1  0
 20 43  1  0
 22 44  1  0
 24 45  1  0
M  ISO  8  26   8  27   8  28  13  29  13  30  13  31  13  32  13  33  13
M  ISO  8  34  13  35  13  36  14  37  14  38   8  39  14  40  14  41  14
M  ISO  4  42   8  43   8  44  14  45  14
M  END
>  <minimizedAffinity>  (1) 
-4.69294596

>  <minimizedRMSD>  (1) 
6.10952902

$$$$
