
     RDKit          3D

 20 21  0  0  0  0  0  0  0  0999 V2000
   38.6180   26.0430   35.2140 C   0  0  0  0  0  0  0  0  0  0  0  0
   38.9770   26.9870   35.9630 O   0  0  0  0  0  0  0  0  0  0  0  0
   37.7390   26.3850   34.1110 C   0  0  0  0  0  0  0  0  0  0  0  0
   37.4560   25.3420   33.2010 C   0  0  0  0  0  0  0  0  0  0  0  0
   36.6040   25.6060   32.1000 C   0  0  0  0  0  0  0  0  0  0  0  0
   36.1040   26.8650   31.9830 N   0  0  0  0  0  0  0  0  0  0  0  0
   36.3950   27.8270   32.8650 C   0  0  0  0  0  0  0  0  0  0  0  0
   37.2010   27.6050   33.9200 N   0  0  0  0  0  0  0  0  0  0  0  0
   39.0380   24.7420   35.4320 O   0  0  0  0  0  0  0  0  0  0  0  0
   38.7350   24.1280   36.6420 C   0  0  0  0  0  0  0  0  0  0  0  0
   37.7240   24.1970   37.5520 C   0  0  0  0  0  0  0  0  0  0  0  0
   38.0670   23.2870   38.5520 C   0  0  0  0  0  0  0  0  0  0  0  0
   39.2510   22.7030   38.2290 N   0  0  0  0  0  0  0  0  0  0  0  0
   39.6490   23.2120   37.0810 N   0  0  0  0  0  0  0  0  0  0  0  0
   37.8899   24.3415   33.3448 H   0  0  0  0  0  0  0  0  0  0  0  0
   36.3567   24.8228   31.3683 H   0  0  0  0  0  0  0  0  0  0  0  0
   35.9632   28.8289   32.7243 H   0  0  0  0  0  0  0  0  0  0  0  0
   36.8284   24.8342   37.5078 H   0  0  0  0  0  0  0  0  0  0  0  0
   37.4754   23.0763   39.4551 H   0  0  0  0  0  0  0  0  0  0  0  0
   39.7479   21.9904   38.7824 H   0  0  0  0  0  0  0  0  0  0  0  0
  1  9  1  0
  1  2  2  0
  3  1  1  0
  4  3  2  0
  5  4  1  0
  6  5  2  0
  6  7  1  0
  7  8  2  0
  8  3  1  0
  9 10  1  0
 10 14  2  0
 10 11  1  0
 11 12  2  0
 13 12  1  0
 14 13  1  0
  4 15  1  0
  5 16  1  0
  7 17  1  0
 11 18  1  0
 12 19  1  0
 13 20  1  0
M  ISO  6  15  14  16  14  17  14  18  14  19  14  20   9
M  END
>  <minimizedAffinity>  (1) 
-4.03673029

>  <minimizedRMSD>  (1) 
4.04925251

$$$$
