
     RDKit          3D

 20 21  0  0  0  0  0  0  0  0999 V2000
   40.5130   22.1830   36.0110 C   0  0  0  0  0  0  0  0  0  0  0  0
   40.0260   22.6370   37.2560 C   0  0  0  0  0  0  0  0  0  0  0  0
   38.7470   23.1800   37.2810 C   0  0  0  0  0  0  0  0  0  0  0  0
   38.0450   23.2470   36.1310 N   0  0  0  0  0  0  0  0  0  0  0  0
   38.5400   22.8010   34.9460 C   0  0  0  0  0  0  0  0  0  0  0  0
   39.7760   22.2690   34.8910 N   0  0  0  0  0  0  0  0  0  0  0  0
   37.7960   22.8740   33.7400 N   0  0  0  0  0  0  0  0  0  0  0  0
   37.1830   21.7090   33.4040 C   0  0  0  0  0  0  0  0  0  0  0  0
   36.4970   21.9360   32.2060 C   0  0  0  0  0  0  0  0  0  0  0  0
   36.7150   23.2330   31.8550 N   0  0  0  0  0  0  0  0  0  0  0  0
   37.5000   23.7900   32.7880 C   0  0  0  0  0  0  0  0  0  0  0  0
   38.2850   23.6360   38.5830 C   0  0  0  0  0  0  0  0  0  0  0  0
   37.8180   24.9200   38.5070 F   0  0  0  0  0  0  0  0  0  0  0  0
   39.3990   23.6900   39.4190 F   0  0  0  0  0  0  0  0  0  0  0  0
   37.2960   22.8480   39.1330 F   0  0  0  0  0  0  0  0  0  0  0  0
   41.5217   21.7477   35.9566 H   0  0  0  0  0  0  0  0  0  0  0  0
   40.6345   22.5639   38.1695 H   0  0  0  0  0  0  0  0  0  0  0  0
   37.2192   20.7651   33.9677 H   0  0  0  0  0  0  0  0  0  0  0  0
   35.8936   21.2027   31.6509 H   0  0  0  0  0  0  0  0  0  0  0  0
   37.8504   24.8327   32.7812 H   0  0  0  0  0  0  0  0  0  0  0  0
  1  2  2  0
  2  3  1  0
  3 12  1  0
  4  3  2  0
  5  4  1  0
  6  5  2  0
  6  1  1  0
  7  5  1  0
  8  7  1  0
  9  8  2  0
 10  9  1  0
 10 11  2  0
 11  7  1  0
 12 15  1  0
 12 14  1  0
 13 12  1  0
  1 16  1  0
  2 17  1  0
  8 18  1  0
  9 19  1  0
 11 20  1  0
M  ISO  5  16  14  17  14  18  14  19  14  20  14
M  END
>  <minimizedAffinity>  (1) 
-4.6137104

>  <minimizedRMSD>  (1) 
1.07487583

$$$$
