
     RDKit          3D

 33 35  0  0  0  0  0  0  0  0999 V2000
   38.6256   24.2084   36.0316 C   0  0  0  0  0  0  0  0  0  0  0  0
   37.7984   24.6611   37.0532 C   0  0  0  0  0  0  0  0  0  0  0  0
   38.0176   24.1364   38.3481 C   0  0  0  0  0  0  0  0  0  0  0  0
   39.0062   23.2348   38.5215 N   0  0  0  0  0  0  0  0  0  0  0  0
   39.7786   22.8257   37.5147 C   0  0  0  0  0  0  0  0  0  0  0  0
   39.6087   23.2964   36.2639 N   0  0  0  0  0  0  0  0  0  0  0  0
   38.4003   24.7488   34.6966 C   0  0  0  0  0  0  0  0  0  0  0  0
   39.0425   24.2549   33.7369 O   0  0  0  0  0  0  0  0  0  0  0  0
   37.4876   25.7890   34.5210 O   0  0  0  0  0  0  0  0  0  0  0  0
   37.1263   26.0570   33.1561 C   0  0  0  0  0  0  0  0  0  0  0  0
   37.5501   27.4386   32.7495 C   0  0  0  0  0  0  0  0  0  0  0  0
   37.0240   25.3867   36.8430 H   0  0  0  0  0  0  0  0  0  0  0  0
   37.3417   24.5275   39.1011 H   0  0  0  0  0  0  0  0  0  0  0  0
   40.5307   22.1009   37.7972 H   0  0  0  0  0  0  0  0  0  0  0  0
   37.5138   25.3281   32.4488 H   0  0  0  0  0  0  0  0  0  0  0  0
   36.0111   25.9838   33.1309 H   0  0  0  0  0  0  0  0  0  0  0  0
   38.6464   27.5155   32.8555 H   0  0  0  0  0  0  0  0  0  0  0  0
   37.3255   27.5366   31.6681 H   0  0  0  0  0  0  0  0  0  0  0  0
   36.9426   28.4702   33.5564 N   0  0  0  0  0  0  0  0  0  0  0  0
   37.2502   29.7754   33.6971 C   0  0  0  0  0  0  0  0  0  0  0  0
   36.4145   30.3799   34.5622 N   0  0  0  0  0  0  0  0  0  0  0  0
   35.5298   29.4484   35.0062 C   0  0  0  0  0  0  0  0  0  0  0  0
   34.4800   29.5521   35.8959 C   0  0  0  0  0  0  0  0  0  0  0  0
   34.1775   30.6319   36.4680 O   0  0  0  0  0  0  0  0  0  0  0  0
   33.7588   28.4278   36.1481 N   0  0  0  0  0  0  0  0  0  0  0  0
   34.1164   27.2978   35.5160 C   0  0  0  0  0  0  0  0  0  0  0  0
   33.4248   26.0607   35.7099 N   0  0  0  0  0  0  0  0  0  0  0  0
   35.1421   27.1932   34.6455 N   0  0  0  0  0  0  0  0  0  0  0  0
   35.8839   28.2774   34.3645 C   0  0  0  0  0  0  0  0  0  0  0  0
   38.0851   30.2071   33.1438 H   0  0  0  0  0  0  0  0  0  0  0  0
   32.9574   28.4204   36.8014 H   0  0  0  0  0  0  0  0  0  0  0  0
   33.7392   25.7635   36.6770 H   0  0  0  0  0  0  0  0  0  0  0  0
   33.2606   25.2677   36.3686 H   0  0  0  0  0  0  0  0  0  0  0  0
  1  6  1  0
  1  2  2  0
  2  3  1  0
  3  4  2  0
  5  4  1  0
  6  5  2  0
  7  1  1  0
  8  7  2  0
  9  7  1  0
 10  9  1  0
 11 10  1  0
  2 12  1  0
  3 13  1  0
  5 14  1  0
 10 15  1  0
 10 16  1  0
 11 17  1  0
 11 18  1  0
 19 20  1  0
 20 21  2  0
 21 22  1  0
 22 23  1  0
 23 24  2  0
 23 25  1  0
 25 26  1  0
 26 27  1  0
 26 28  2  0
 28 29  1  0
 29 19  1  0
 29 22  2  0
 20 30  1  0
 25 31  1  0
 27 32  1  0
 27 33  1  0
 11 19  1  0
M  END
>  <DihAtoms>  (1) 
9,10,18,19

>  <DihDeg>  (1) 
-90.00042651784534

$$$$
