
     RDKit          3D

 30 31  0  0  0  0  0  0  0  0999 V2000
   37.1170   26.2030   33.4180 C   0  0  0  0  0  0  0  0  0  0  0  0
   37.0600   27.7000   33.2590 C   0  0  0  0  0  0  0  0  0  0  0  0
   37.1970   28.1200   31.8970 N   0  0  0  0  0  0  0  0  0  0  0  0
   38.2460   27.5990   31.1970 C   0  0  0  0  0  0  0  0  0  0  0  0
   38.5010   27.9100   29.8880 C   0  0  0  0  0  0  0  0  0  0  0  0
   37.6450   28.7970   29.2550 C   0  0  0  0  0  0  0  0  0  0  0  0
   37.9290   29.1080   27.8930 N   0  0  0  0  0  0  0  0  0  0  0  0
   36.6030   29.3150   29.9520 N   0  0  0  0  0  0  0  0  0  0  0  0
   36.3940   28.9760   31.2410 C   0  0  0  0  0  0  0  0  0  0  0  0
   35.4250   29.4560   31.8910 O   0  0  0  0  0  0  0  0  0  0  0  0
   37.4610   25.8360   34.7580 O   0  0  0  0  0  0  0  0  0  0  0  0
   38.3710   24.7950   34.8690 C   0  0  0  0  0  0  0  0  0  0  0  0
   38.9730   24.3270   33.8770 O   0  0  0  0  0  0  0  0  0  0  0  0
   38.6580   24.2040   36.1750 C   0  0  0  0  0  0  0  0  0  0  0  0
   37.8570   24.6200   37.2410 C   0  0  0  0  0  0  0  0  0  0  0  0
   38.1350   24.0470   38.5030 C   0  0  0  0  0  0  0  0  0  0  0  0
   39.1310   23.1500   38.6160 N   0  0  0  0  0  0  0  0  0  0  0  0
   39.8730   22.7800   37.5680 C   0  0  0  0  0  0  0  0  0  0  0  0
   39.6490   23.2960   36.3440 N   0  0  0  0  0  0  0  0  0  0  0  0
   37.8736   25.7979   32.7299 H   0  0  0  0  0  0  0  0  0  0  0  0
   36.1231   25.7910   33.1890 H   0  0  0  0  0  0  0  0  0  0  0  0
   36.0923   28.0572   33.6411 H   0  0  0  0  0  0  0  0  0  0  0  0
   37.9038   28.1248   33.8225 H   0  0  0  0  0  0  0  0  0  0  0  0
   38.9191   26.8954   31.7087 H   0  0  0  0  0  0  0  0  0  0  0  0
   39.3575   27.4700   29.3563 H   0  0  0  0  0  0  0  0  0  0  0  0
   37.3232   29.7619   27.3769 H   0  0  0  0  0  0  0  0  0  0  0  0
   38.7400   28.6788   27.4250 H   0  0  0  0  0  0  0  0  0  0  0  0
   37.0509   25.3560   37.1054 H   0  0  0  0  0  0  0  0  0  0  0  0
   37.5422   24.3321   39.3847 H   0  0  0  0  0  0  0  0  0  0  0  0
   40.6782   22.0435   37.7068 H   0  0  0  0  0  0  0  0  0  0  0  0
  1 11  1  0
  2  1  1  0
  3  2  1  0
  4  3  1  0
  5  4  2  0
  6  5  1  0
  6  8  2  0
  7  6  1  0
  8  9  1  0
  9 10  2  0
  9  3  1  0
 11 12  1  0
 12 14  1  0
 13 12  2  0
 14 19  1  0
 14 15  2  0
 15 16  1  0
 16 17  2  0
 18 17  1  0
 19 18  2  0
  1 20  1  0
  1 21  1  0
  2 22  1  0
  2 23  1  0
  4 24  1  0
  5 25  1  0
  7 26  1  0
  7 27  1  0
 15 28  1  0
 16 29  1  0
 18 30  1  0
M  ISO  8  20   8  21   8  22   8  23   8  24  14  25  14  28  14  29  14
M  ISO  1  30  14
M  END
>  <minimizedAffinity>  (1) 
-4.3498807

>  <minimizedRMSD>  (1) 
0.654455602

$$$$
