
     RDKit          3D

 33 34  0  0  0  0  0  0  0  0999 V2000
   37.4480   27.5020   34.6020 C   0  0  0  0  0  0  0  0  0  0  0  0
   36.2790   28.4030   34.3760 C   0  0  0  0  0  0  0  0  0  0  0  0
   35.9630   28.6280   32.9980 N   0  0  0  0  0  0  0  0  0  0  0  0
   35.7620   30.0330   32.6900 C   0  0  0  0  0  0  0  0  0  0  0  0
   35.2030   30.1780   31.2960 C   0  0  0  0  0  0  0  0  0  0  0  0
   36.0560   29.5770   30.3000 N   0  0  0  0  0  0  0  0  0  0  0  0
   36.4580   28.2350   30.6640 C   0  0  0  0  0  0  0  0  0  0  0  0
   36.9600   28.1250   32.0880 C   0  0  0  0  0  0  0  0  0  0  0  0
   37.0610   26.2380   35.1470 O   0  0  0  0  0  0  0  0  0  0  0  0
   38.0150   25.2220   35.0000 C   0  0  0  0  0  0  0  0  0  0  0  0
   38.5210   24.9520   33.8740 O   0  0  0  0  0  0  0  0  0  0  0  0
   38.4560   24.4450   36.1420 C   0  0  0  0  0  0  0  0  0  0  0  0
   37.8160   24.6930   37.3500 C   0  0  0  0  0  0  0  0  0  0  0  0
   38.2000   23.9680   38.4970 C   0  0  0  0  0  0  0  0  0  0  0  0
   39.1800   23.0620   38.3530 N   0  0  0  0  0  0  0  0  0  0  0  0
   39.7790   22.8470   37.1640 C   0  0  0  0  0  0  0  0  0  0  0  0
   39.4390   23.5190   36.0540 N   0  0  0  0  0  0  0  0  0  0  0  0
   38.1419   27.9913   35.3013 H   0  0  0  0  0  0  0  0  0  0  0  0
   37.9239   27.3171   33.6277 H   0  0  0  0  0  0  0  0  0  0  0  0
   35.3999   27.9543   34.8616 H   0  0  0  0  0  0  0  0  0  0  0  0
   36.5504   29.3813   34.7994 H   0  0  0  0  0  0  0  0  0  0  0  0
   35.0561   30.4676   33.4131 H   0  0  0  0  0  0  0  0  0  0  0  0
   36.7264   30.5586   32.7501 H   0  0  0  0  0  0  0  0  0  0  0  0
   34.2171   29.6917   31.2577 H   0  0  0  0  0  0  0  0  0  0  0  0
   35.1293   31.2525   31.0726 H   0  0  0  0  0  0  0  0  0  0  0  0
   36.8994   30.1581   30.1910 H   0  0  0  0  0  0  0  0  0  0  0  0
   35.5917   27.5673   30.5468 H   0  0  0  0  0  0  0  0  0  0  0  0
   37.2909   27.9540   30.0026 H   0  0  0  0  0  0  0  0  0  0  0  0
   37.1682   27.0704   32.3212 H   0  0  0  0  0  0  0  0  0  0  0  0
   37.8807   28.7174   32.1949 H   0  0  0  0  0  0  0  0  0  0  0  0
   37.0177   25.4473   37.4111 H   0  0  0  0  0  0  0  0  0  0  0  0
   37.7161   24.1380   39.4701 H   0  0  0  0  0  0  0  0  0  0  0  0
   40.5766   22.0920   37.1021 H   0  0  0  0  0  0  0  0  0  0  0  0
  1  9  1  0
  2  1  1  0
  3  2  1  0
  4  3  1  0
  5  4  1  0
  6  7  1  0
  6  5  1  0
  7  8  1  0
  8  3  1  0
 10  9  1  0
 10 12  1  0
 11 10  2  0
 12 13  2  0
 13 14  1  0
 15 14  2  0
 16 15  1  0
 17 12  1  0
 17 16  2  0
  1 18  1  0
  1 19  1  0
  2 20  1  0
  2 21  1  0
  4 22  1  0
  4 23  1  0
  5 24  1  0
  5 25  1  0
  6 26  1  0
  7 27  1  0
  7 28  1  0
  8 29  1  0
  8 30  1  0
 13 31  1  0
 14 32  1  0
 16 33  1  0
M  ISO  8  18   8  19   8  20   8  21   8  22  13  23  13  24  13  25  13
M  ISO  8  26   5  27  13  28  13  29  13  30  13  31  14  32  14  33  14
M  END
>  <minimizedAffinity>  (1) 
-4.05873823

>  <minimizedRMSD>  (1) 
1.54401577

$$$$
