
     RDKit          3D

 29 30  0  0  0  0  0  0  0  0999 V2000
   37.2900   25.8220   33.1290 C   0  0  0  0  0  0  0  0  0  0  0  0
   38.1080   26.9420   32.5350 C   0  0  0  0  0  0  0  0  0  0  0  0
   37.1970   28.0520   32.1510 C   0  0  0  0  0  0  0  0  0  0  0  0
   36.2310   28.6600   32.9270 C   0  0  0  0  0  0  0  0  0  0  0  0
   35.4850   29.6830   32.3780 C   0  0  0  0  0  0  0  0  0  0  0  0
   35.6430   30.1440   31.0880 C   0  0  0  0  0  0  0  0  0  0  0  0
   36.6190   29.5330   30.2970 C   0  0  0  0  0  0  0  0  0  0  0  0
   37.3580   28.5170   30.8460 C   0  0  0  0  0  0  0  0  0  0  0  0
   37.6130   25.5640   34.4910 O   0  0  0  0  0  0  0  0  0  0  0  0
   38.2670   24.3700   34.7410 C   0  0  0  0  0  0  0  0  0  0  0  0
   38.6270   23.5940   33.8150 O   0  0  0  0  0  0  0  0  0  0  0  0
   38.5620   23.9680   36.1160 C   0  0  0  0  0  0  0  0  0  0  0  0
   37.7380   24.4770   37.1110 C   0  0  0  0  0  0  0  0  0  0  0  0
   38.0170   24.0920   38.4430 C   0  0  0  0  0  0  0  0  0  0  0  0
   39.0660   23.2540   38.6710 N   0  0  0  0  0  0  0  0  0  0  0  0
   39.8270   22.7930   37.6860 C   0  0  0  0  0  0  0  0  0  0  0  0
   39.5910   23.1370   36.4090 N   0  0  0  0  0  0  0  0  0  0  0  0
   37.4712   24.9072   32.5457 H   0  0  0  0  0  0  0  0  0  0  0  0
   36.2341   26.1280   33.0918 H   0  0  0  0  0  0  0  0  0  0  0  0
   38.8358   27.3016   33.2773 H   0  0  0  0  0  0  0  0  0  0  0  0
   38.6482   26.5793   31.6481 H   0  0  0  0  0  0  0  0  0  0  0  0
   36.0590   28.3352   33.9638 H   0  0  0  0  0  0  0  0  0  0  0  0
   34.7185   30.1592   33.0070 H   0  0  0  0  0  0  0  0  0  0  0  0
   35.0228   30.9635   30.6959 H   0  0  0  0  0  0  0  0  0  0  0  0
   36.7902   29.8587   29.2604 H   0  0  0  0  0  0  0  0  0  0  0  0
   38.1250   28.0393   30.2187 H   0  0  0  0  0  0  0  0  0  0  0  0
   36.9026   25.1519   36.8730 H   0  0  0  0  0  0  0  0  0  0  0  0
   37.4006   24.4611   39.2760 H   0  0  0  0  0  0  0  0  0  0  0  0
   40.6642   22.1186   37.9190 H   0  0  0  0  0  0  0  0  0  0  0  0
  1  9  1  0
  2  1  1  0
  3  2  1  0
  3  4  2  0
  5  4  1  0
  6  5  2  0
  7  8  2  0
  7  6  1  0
  8  3  1  0
  9 10  1  0
 10 12  1  0
 11 10  2  0
 12 17  1  0
 12 13  2  0
 13 14  1  0
 14 15  2  0
 16 15  1  0
 17 16  2  0
  1 18  1  0
  1 19  1  0
  2 20  1  0
  2 21  1  0
  4 22  1  0
  5 23  1  0
  6 24  1  0
  7 25  1  0
  8 26  1  0
 13 27  1  0
 14 28  1  0
 16 29  1  0
M  ISO  8  18   8  19   8  20   8  21   8  22  14  23  14  24  14  25  14
M  ISO  4  26  14  27  14  28  14  29  14
M  END
>  <minimizedAffinity>  (1) 
-4.25702047

>  <minimizedRMSD>  (1) 
1.50658274

$$$$
