
     RDKit          3D

 32 34  0  0  0  0  0  0  0  0999 V2000
   37.0370   26.2890   33.4880 C   0  0  0  0  0  0  0  0  0  0  0  0
   36.9320   27.7410   33.1340 C   0  0  0  0  0  0  0  0  0  0  0  0
   37.1720   27.9920   31.7380 N   0  0  0  0  0  0  0  0  0  0  0  0
   36.3540   28.4390   30.7660 C   0  0  0  0  0  0  0  0  0  0  0  0
   36.9990   28.5310   29.5860 N   0  0  0  0  0  0  0  0  0  0  0  0
   38.2720   28.1370   29.7780 C   0  0  0  0  0  0  0  0  0  0  0  0
   39.3910   28.0110   28.9780 C   0  0  0  0  0  0  0  0  0  0  0  0
   40.5580   27.5650   29.5280 N   0  0  0  0  0  0  0  0  0  0  0  0
   40.6520   27.2420   30.8290 C   0  0  0  0  0  0  0  0  0  0  0  0
   39.5480   27.3720   31.5950 N   0  0  0  0  0  0  0  0  0  0  0  0
   38.3630   27.8100   31.1040 C   0  0  0  0  0  0  0  0  0  0  0  0
   39.3090   28.3480   27.5970 N   0  0  0  0  0  0  0  0  0  0  0  0
   37.9070   26.0660   34.5890 O   0  0  0  0  0  0  0  0  0  0  0  0
   38.3810   24.7680   34.7280 C   0  0  0  0  0  0  0  0  0  0  0  0
   38.5950   24.0310   33.7210 O   0  0  0  0  0  0  0  0  0  0  0  0
   38.6510   24.2030   36.0440 C   0  0  0  0  0  0  0  0  0  0  0  0
   37.8400   24.6390   37.0860 C   0  0  0  0  0  0  0  0  0  0  0  0
   38.0650   24.1180   38.3800 C   0  0  0  0  0  0  0  0  0  0  0  0
   39.0720   23.2150   38.5240 N   0  0  0  0  0  0  0  0  0  0  0  0
   39.8330   22.8180   37.4940 C   0  0  0  0  0  0  0  0  0  0  0  0
   39.6360   23.3010   36.2500 N   0  0  0  0  0  0  0  0  0  0  0  0
   37.4208   25.7388   32.6162 H   0  0  0  0  0  0  0  0  0  0  0  0
   36.0344   25.9380   33.7736 H   0  0  0  0  0  0  0  0  0  0  0  0
   35.9203   28.0921   33.3856 H   0  0  0  0  0  0  0  0  0  0  0  0
   37.7035   28.2783   33.7051 H   0  0  0  0  0  0  0  0  0  0  0  0
   35.2950   28.6961   30.9159 H   0  0  0  0  0  0  0  0  0  0  0  0
   41.5996   26.8826   31.2568 H   0  0  0  0  0  0  0  0  0  0  0  0
   38.4193   28.6828   27.2005 H   0  0  0  0  0  0  0  0  0  0  0  0
   40.1394   28.2570   26.9945 H   0  0  0  0  0  0  0  0  0  0  0  0
   37.0409   25.3734   36.9069 H   0  0  0  0  0  0  0  0  0  0  0  0
   37.4502   24.4303   39.2370 H   0  0  0  0  0  0  0  0  0  0  0  0
   40.6338   22.0839   37.6668 H   0  0  0  0  0  0  0  0  0  0  0  0
  1 13  1  0
  2  1  1  0
  3  2  1  0
  4  3  1  0
  5  6  1  0
  5  4  2  0
  6 11  2  0
  7  8  2  0
  7  6  1  0
  8  9  1  0
  9 10  2  0
 11 10  1  0
 11  3  1  0
 12  7  1  0
 13 14  1  0
 14 16  1  0
 15 14  2  0
 16 21  1  0
 16 17  2  0
 17 18  1  0
 18 19  2  0
 20 19  1  0
 21 20  2  0
  1 22  1  0
  1 23  1  0
  2 24  1  0
  2 25  1  0
  4 26  1  0
  9 27  1  0
 12 28  1  0
 12 29  1  0
 17 30  1  0
 18 31  1  0
 20 32  1  0
M  ISO  8  22   8  23   8  24   8  25   8  26  14  27  14  30  14  31  14
M  ISO  1  32  14
M  END
>  <minimizedAffinity>  (1) 
-4.29892778

>  <minimizedRMSD>  (1) 
3.40099573

$$$$
