
     RDKit          3D

 27 28  0  0  0  0  0  0  0  0999 V2000
   37.8360   26.7150   33.8690 C   0  0  0  0  0  0  0  0  0  0  0  0
   36.8720   27.6500   34.5480 C   0  0  0  0  0  0  0  0  0  0  0  0
   36.2380   28.4840   33.4930 C   0  0  0  0  0  0  0  0  0  0  0  0
   35.1520   29.3280   33.6120 C   0  0  0  0  0  0  0  0  0  0  0  0
   34.6740   30.0400   32.5440 C   0  0  0  0  0  0  0  0  0  0  0  0
   35.2840   29.9130   31.3390 N   0  0  0  0  0  0  0  0  0  0  0  0
   36.3570   29.0720   31.2530 C   0  0  0  0  0  0  0  0  0  0  0  0
   36.8500   28.3580   32.2800 N   0  0  0  0  0  0  0  0  0  0  0  0
   37.6590   25.3680   34.3390 O   0  0  0  0  0  0  0  0  0  0  0  0
   38.7990   24.7280   34.7980 C   0  0  0  0  0  0  0  0  0  0  0  0
   39.8020   24.5860   34.0710 O   0  0  0  0  0  0  0  0  0  0  0  0
   38.8600   24.2010   36.1480 C   0  0  0  0  0  0  0  0  0  0  0  0
   37.9080   24.7000   37.0560 C   0  0  0  0  0  0  0  0  0  0  0  0
   37.9490   24.1980   38.3770 C   0  0  0  0  0  0  0  0  0  0  0  0
   38.8870   23.2830   38.6910 N   0  0  0  0  0  0  0  0  0  0  0  0
   39.7710   22.8360   37.7990 C   0  0  0  0  0  0  0  0  0  0  0  0
   39.7740   23.2800   36.5310 N   0  0  0  0  0  0  0  0  0  0  0  0
   38.8648   27.0395   34.0840 H   0  0  0  0  0  0  0  0  0  0  0  0
   37.6451   26.7380   32.7859 H   0  0  0  0  0  0  0  0  0  0  0  0
   36.1032   27.0730   35.0828 H   0  0  0  0  0  0  0  0  0  0  0  0
   37.3968   28.2833   35.2784 H   0  0  0  0  0  0  0  0  0  0  0  0
   34.6580   29.4313   34.5894 H   0  0  0  0  0  0  0  0  0  0  0  0
   33.8067   30.7062   32.6619 H   0  0  0  0  0  0  0  0  0  0  0  0
   36.8520   28.9720   30.2758 H   0  0  0  0  0  0  0  0  0  0  0  0
   37.1629   25.4494   36.7508 H   0  0  0  0  0  0  0  0  0  0  0  0
   37.2301   24.5471   39.1328 H   0  0  0  0  0  0  0  0  0  0  0  0
   40.5147   22.0868   38.1081 H   0  0  0  0  0  0  0  0  0  0  0  0
  1  9  1  0
  1  2  1  0
  3  4  2  0
  3  2  1  0
  5  4  1  0
  6  5  2  0
  7  6  1  0
  7  8  2  0
  8  3  1  0
  9 10  1  0
 10 12  1  0
 11 10  2  0
 12 17  1  0
 12 13  2  0
 13 14  1  0
 14 15  2  0
 16 15  1  0
 17 16  2  0
  1 18  1  0
  1 19  1  0
  2 20  1  0
  2 21  1  0
  4 22  1  0
  5 23  1  0
  7 24  1  0
 13 25  1  0
 14 26  1  0
 16 27  1  0
M  ISO  8  18   8  19   8  20   8  21   8  22  14  23  14  24  14  25  14
M  ISO  2  26  14  27  14
M  END
>  <minimizedAffinity>  (1) 
-4.02651787

>  <minimizedRMSD>  (1) 
2.04794908

$$$$
