
     RDKit          3D

 26 27  0  0  0  0  0  0  0  0999 V2000
   40.9820   22.0740   36.4350 C   0  0  0  0  0  0  0  0  0  0  0  0
   40.2790   22.5820   37.5550 C   0  0  0  0  0  0  0  0  0  0  0  0
   39.0110   23.0990   37.3170 C   0  0  0  0  0  0  0  0  0  0  0  0
   38.5210   23.0940   36.0600 N   0  0  0  0  0  0  0  0  0  0  0  0
   39.2240   22.5980   35.0070 C   0  0  0  0  0  0  0  0  0  0  0  0
   40.4560   22.0900   35.2100 N   0  0  0  0  0  0  0  0  0  0  0  0
   38.6360   22.6200   33.6640 C   0  0  0  0  0  0  0  0  0  0  0  0
   37.8780   23.8900   33.3690 C   0  0  0  0  0  0  0  0  0  0  0  0
   37.0460   23.4710   32.1760 C   0  0  0  0  0  0  0  0  0  0  0  0
   36.5210   22.1250   32.6060 C   0  0  0  0  0  0  0  0  0  0  0  0
   37.5650   21.5560   33.5220 C   0  0  0  0  0  0  0  0  0  0  0  0
   38.3170   23.6150   38.5090 C   0  0  0  0  0  0  0  0  0  0  0  0
   37.8540   24.8950   38.2480 F   0  0  0  0  0  0  0  0  0  0  0  0
   39.2890   23.7770   39.4930 F   0  0  0  0  0  0  0  0  0  0  0  0
   37.2710   22.8470   38.9220 F   0  0  0  0  0  0  0  0  0  0  0  0
   41.9888   21.6551   36.5799 H   0  0  0  0  0  0  0  0  0  0  0  0
   40.7157   22.5680   38.5645 H   0  0  0  0  0  0  0  0  0  0  0  0
   39.4987   22.4861   32.9948 H   0  0  0  0  0  0  0  0  0  0  0  0
   37.2439   24.1864   34.2176 H   0  0  0  0  0  0  0  0  0  0  0  0
   38.5197   24.7642   33.1849 H   0  0  0  0  0  0  0  0  0  0  0  0
   37.6637   23.3865   31.2697 H   0  0  0  0  0  0  0  0  0  0  0  0
   36.2546   24.1898   31.9171 H   0  0  0  0  0  0  0  0  0  0  0  0
   35.5647   22.2383   33.1377 H   0  0  0  0  0  0  0  0  0  0  0  0
   36.3349   21.4674   31.7441 H   0  0  0  0  0  0  0  0  0  0  0  0
   37.1251   21.3256   34.5036 H   0  0  0  0  0  0  0  0  0  0  0  0
   37.9824   20.6214   33.1191 H   0  0  0  0  0  0  0  0  0  0  0  0
  1  2  2  0
  3  2  1  0
  3 12  1  0
  4  3  2  0
  5  6  2  0
  5  4  1  0
  6  1  1  0
  7  5  1  0
  8  7  1  0
  9 10  1  0
  9  8  1  0
 10 11  1  0
 11  7  1  0
 12 15  1  0
 12 14  1  0
 13 12  1  0
  1 16  1  0
  2 17  1  0
  7 18  1  0
  8 19  1  0
  8 20  1  0
  9 21  1  0
  9 22  1  0
 10 23  1  0
 10 24  1  0
 11 25  1  0
 11 26  1  0
M  ISO  8  16  14  17  14  18  13  19  13  20  13  21  13  22  13  23  13
M  ISO  3  24  13  25  13  26  13
M  END
>  <minimizedAffinity>  (1) 
-4.5530653

>  <minimizedRMSD>  (1) 
0.330785662

$$$$
