
     RDKit          3D

 19 20  0  0  0  0  0  0  0  0999 V2000
   40.5180   22.2130   35.8910 C   0  0  0  0  0  0  0  0  0  0  0  0
   40.0350   22.6760   37.1360 C   0  0  0  0  0  0  0  0  0  0  0  0
   38.7120   23.1340   37.1920 C   0  0  0  0  0  0  0  0  0  0  0  0
   37.9690   23.1080   36.0540 N   0  0  0  0  0  0  0  0  0  0  0  0
   38.4760   22.6540   34.8840 C   0  0  0  0  0  0  0  0  0  0  0  0
   39.7310   22.2130   34.8020 N   0  0  0  0  0  0  0  0  0  0  0  0
   37.6590   22.6370   33.6770 C   0  0  0  0  0  0  0  0  0  0  0  0
   36.9360   21.4630   33.2130 C   0  0  0  0  0  0  0  0  0  0  0  0
   36.1330   22.1500   31.6590 S   0  0  0  0  0  0  0  0  0  0  0  0
   36.9130   23.8270   31.9450 C   0  0  0  0  0  0  0  0  0  0  0  0
   37.5220   23.7070   32.9120 N   0  0  0  0  0  0  0  0  0  0  0  0
   38.2840   23.5940   38.5010 C   0  0  0  0  0  0  0  0  0  0  0  0
   37.8430   24.9000   38.4130 F   0  0  0  0  0  0  0  0  0  0  0  0
   39.4080   23.6310   39.3210 F   0  0  0  0  0  0  0  0  0  0  0  0
   37.2680   22.8420   39.0460 F   0  0  0  0  0  0  0  0  0  0  0  0
   41.5526   21.8476   35.8125 H   0  0  0  0  0  0  0  0  0  0  0  0
   40.6757   22.6768   38.0302 H   0  0  0  0  0  0  0  0  0  0  0  0
   36.8761   20.4551   33.6496 H   0  0  0  0  0  0  0  0  0  0  0  0
   36.8109   24.7292   31.3240 H   0  0  0  0  0  0  0  0  0  0  0  0
  1  2  2  0
  2  3  1  0
  3 12  1  0
  4  3  2  0
  5  4  1  0
  6  5  2  0
  6  1  1  0
  7  5  1  0
  8  7  2  0
  9 10  1  0
  9  8  1  0
 10 11  2  0
 11  7  1  0
 12 15  1  0
 12 14  1  0
 13 12  1  0
  1 16  1  0
  2 17  1  0
  8 18  1  0
 10 19  1  0
M  ISO  4  16  14  17  14  18  14  19  14
M  END
>  <minimizedAffinity>  (1) 
-4.42766428

>  <minimizedRMSD>  (1) 
1.10576773

$$$$
