
     RDKit          3D

 48 51  0  0  0  0  0  0  0  0999 V2000
   37.7010   25.4900   34.7520 O   0  0  0  0  0  0  0  0  0  0  0  0
   37.2560   25.9910   33.5030 C   0  0  0  0  0  0  0  0  0  0  0  0
   36.9010   27.4160   33.5240 C   0  0  0  0  0  0  0  0  0  0  0  0
   37.0300   28.2400   32.3010 C   0  0  0  0  0  0  0  0  0  0  0  0
   35.8170   29.0510   31.9600 C   0  0  0  0  0  0  0  0  0  0  0  0
   36.3350   29.7330   30.6750 C   0  0  0  0  0  0  0  0  0  0  0  0
   36.9440   28.5500   29.9410 C   0  0  0  0  0  0  0  0  0  0  0  0
   37.2900   27.5340   31.0120 C   0  0  0  0  0  0  0  0  0  0  0  0
   38.2990   24.2120   34.6770 C   0  0  0  0  0  0  0  0  0  0  0  0
   38.2850   23.5390   33.6390 O   0  0  0  0  0  0  0  0  0  0  0  0
   38.9520   23.6930   35.8960 C   0  0  0  0  0  0  0  0  0  0  0  0
   38.2880   23.8050   37.1040 C   0  0  0  0  0  0  0  0  0  0  0  0
   38.9480   23.3040   38.2360 C   0  0  0  0  0  0  0  0  0  0  0  0
   40.1610   22.7570   38.0830 N   0  0  0  0  0  0  0  0  0  0  0  0
   40.7820   22.6570   36.9260 C   0  0  0  0  0  0  0  0  0  0  0  0
   40.1690   23.1280   35.8400 N   0  0  0  0  0  0  0  0  0  0  0  0
   42.0930   22.0910   36.5790 C   0  0  0  0  0  0  0  0  0  0  0  0
   42.3190   20.7410   36.3270 C   0  0  0  0  0  0  0  0  0  0  0  0
   43.5350   20.2040   36.0050 C   0  0  0  0  0  0  0  0  0  0  0  0
   44.6400   21.0160   35.9110 C   0  0  0  0  0  0  0  0  0  0  0  0
   44.4910   22.3630   36.1470 C   0  0  0  0  0  0  0  0  0  0  0  0
   45.6200   23.1430   36.0470 C   0  0  0  0  0  0  0  0  0  0  0  0
   45.5410   24.5010   36.2730 C   0  0  0  0  0  0  0  0  0  0  0  0
   44.2940   25.0280   36.5990 C   0  0  0  0  0  0  0  0  0  0  0  0
   43.2130   24.1900   36.6820 C   0  0  0  0  0  0  0  0  0  0  0  0
   43.2420   22.8360   36.4670 C   0  0  0  0  0  0  0  0  0  0  0  0
   36.3686   25.4178   33.1966 H   0  0  0  0  0  0  0  0  0  0  0  0
   38.0942   25.8818   32.7990 H   0  0  0  0  0  0  0  0  0  0  0  0
   35.8470   27.4738   33.8333 H   0  0  0  0  0  0  0  0  0  0  0  0
   37.6567   27.8496   34.1955 H   0  0  0  0  0  0  0  0  0  0  0  0
   37.9019   28.8295   32.6209 H   0  0  0  0  0  0  0  0  0  0  0  0
   34.9389   28.4177   31.7654 H   0  0  0  0  0  0  0  0  0  0  0  0
   35.4670   29.7329   32.7490 H   0  0  0  0  0  0  0  0  0  0  0  0
   35.5142   30.1858   30.0995 H   0  0  0  0  0  0  0  0  0  0  0  0
   37.0342   30.5632   30.8537 H   0  0  0  0  0  0  0  0  0  0  0  0
   36.2195   28.1259   29.2302 H   0  0  0  0  0  0  0  0  0  0  0  0
   37.8309   28.8457   29.3614 H   0  0  0  0  0  0  0  0  0  0  0  0
   36.6516   26.6427   30.9221 H   0  0  0  0  0  0  0  0  0  0  0  0
   38.3291   27.1821   30.9321 H   0  0  0  0  0  0  0  0  0  0  0  0
   37.2910   24.2645   37.1738 H   0  0  0  0  0  0  0  0  0  0  0  0
   38.4787   23.3593   39.2293 H   0  0  0  0  0  0  0  0  0  0  0  0
   41.4592   20.0579   36.3913 H   0  0  0  0  0  0  0  0  0  0  0  0
   43.6285   19.1235   35.8215 H   0  0  0  0  0  0  0  0  0  0  0  0
   45.6237   20.5972   35.6523 H   0  0  0  0  0  0  0  0  0  0  0  0
   46.5850   22.6836   35.7869 H   0  0  0  0  0  0  0  0  0  0  0  0
   46.4302   25.1442   36.1985 H   0  0  0  0  0  0  0  0  0  0  0  0
   44.1779   26.1054   36.7879 H   0  0  0  0  0  0  0  0  0  0  0  0
   42.2435   24.6399   36.9422 H   0  0  0  0  0  0  0  0  0  0  0  0
  2  3  1  0
  2  1  1  0
  4  3  1  0
  5  4  1  0
  6  5  1  0
  7  6  1  0
  7  8  1  0
  8  4  1  0
  9  1  1  0
  9 11  1  0
 10  9  2  0
 11 12  2  0
 12 13  1  0
 14 13  2  0
 15 14  1  0
 16 11  1  0
 16 15  2  0
 17 15  1  0
 18 17  2  0
 19 18  1  0
 20 19  2  0
 20 21  1  0
 21 26  2  0
 22 21  1  0
 22 23  2  0
 23 24  1  0
 24 25  2  0
 26 17  1  0
 26 25  1  0
  2 27  1  0
  2 28  1  0
  3 29  1  0
  3 30  1  0
  4 31  1  0
  5 32  1  0
  5 33  1  0
  6 34  1  0
  6 35  1  0
  7 36  1  0
  7 37  1  0
  8 38  1  0
  8 39  1  0
 12 40  1  0
 13 41  1  0
 18 42  1  0
 19 43  1  0
 20 44  1  0
 22 45  1  0
 23 46  1  0
 24 47  1  0
 25 48  1  0
M  ISO  8  27   8  28   8  29   8  30   8  31  13  32  13  33  13  34  13
M  ISO  8  35  13  36  13  37  13  38  13  39  13  40  14  41  14  42  14
M  ISO  6  43  14  44  14  45  14  46  14  47  14  48  14
M  END
>  <minimizedAffinity>  (1) 
-5.57248735

>  <minimizedRMSD>  (1) 
1.83236408

$$$$
