
     RDKit          3D

 42 44  0  0  0  0  0  0  0  0999 V2000
   37.3170   26.0970   35.3610 O   0  0  0  0  0  0  0  0  0  0  0  0
   37.1460   26.8880   34.1760 C   0  0  0  0  0  0  0  0  0  0  0  0
   36.4050   28.1310   34.4160 C   0  0  0  0  0  0  0  0  0  0  0  0
   36.1310   29.0620   33.3100 C   0  0  0  0  0  0  0  0  0  0  0  0
   34.6780   29.2390   33.0000 C   0  0  0  0  0  0  0  0  0  0  0  0
   34.7520   30.1580   31.8010 C   0  0  0  0  0  0  0  0  0  0  0  0
   35.9280   29.6030   31.0080 C   0  0  0  0  0  0  0  0  0  0  0  0
   36.7340   28.7620   31.9780 C   0  0  0  0  0  0  0  0  0  0  0  0
   37.9370   24.8540   35.1010 C   0  0  0  0  0  0  0  0  0  0  0  0
   37.9380   24.3250   33.9600 O   0  0  0  0  0  0  0  0  0  0  0  0
   38.6030   24.1590   36.2140 C   0  0  0  0  0  0  0  0  0  0  0  0
   37.9520   24.1560   37.4440 C   0  0  0  0  0  0  0  0  0  0  0  0
   38.6000   23.4890   38.4960 C   0  0  0  0  0  0  0  0  0  0  0  0
   39.8020   22.8940   38.2590 N   0  0  0  0  0  0  0  0  0  0  0  0
   40.3810   22.9280   37.0550 C   0  0  0  0  0  0  0  0  0  0  0  0
   39.7990   23.5570   36.0160 N   0  0  0  0  0  0  0  0  0  0  0  0
   41.6340   22.3280   36.7480 N   0  0  0  0  0  0  0  0  0  0  0  0
   41.8150   21.0320   37.1080 C   0  0  0  0  0  0  0  0  0  0  0  0
   43.0590   20.5010   36.7810 C   0  0  0  0  0  0  0  0  0  0  0  0
   44.0530   21.2220   36.1360 C   0  0  0  0  0  0  0  0  0  0  0  0
   45.1620   20.6490   35.8770 O   0  0  0  0  0  0  0  0  0  0  0  0
   43.7950   22.4970   35.8140 N   0  0  0  0  0  0  0  0  0  0  0  0
   42.5980   23.0340   36.1200 C   0  0  0  0  0  0  0  0  0  0  0  0
   42.3350   24.2300   35.8260 O   0  0  0  0  0  0  0  0  0  0  0  0
   36.5971   26.2911   33.4328 H   0  0  0  0  0  0  0  0  0  0  0  0
   38.1488   27.1673   33.8205 H   0  0  0  0  0  0  0  0  0  0  0  0
   35.4293   27.8409   34.8329 H   0  0  0  0  0  0  0  0  0  0  0  0
   37.0871   28.7055   35.0600 H   0  0  0  0  0  0  0  0  0  0  0  0
   36.6060   29.9542   33.7439 H   0  0  0  0  0  0  0  0  0  0  0  0
   34.1988   28.2817   32.7470 H   0  0  0  0  0  0  0  0  0  0  0  0
   34.0790   29.6294   33.8359 H   0  0  0  0  0  0  0  0  0  0  0  0
   33.8237   30.1139   31.2125 H   0  0  0  0  0  0  0  0  0  0  0  0
   34.8782   31.2156   32.0757 H   0  0  0  0  0  0  0  0  0  0  0  0
   35.5669   28.9826   30.1745 H   0  0  0  0  0  0  0  0  0  0  0  0
   36.5371   30.4110   30.5765 H   0  0  0  0  0  0  0  0  0  0  0  0
   36.6397   27.6924   31.7389 H   0  0  0  0  0  0  0  0  0  0  0  0
   37.8095   28.9900   31.9410 H   0  0  0  0  0  0  0  0  0  0  0  0
   36.9797   24.6508   37.5848 H   0  0  0  0  0  0  0  0  0  0  0  0
   38.1439   23.4476   39.4961 H   0  0  0  0  0  0  0  0  0  0  0  0
   41.0373   20.4458   37.6195 H   0  0  0  0  0  0  0  0  0  0  0  0
   43.2650   19.4540   37.0482 H   0  0  0  0  0  0  0  0  0  0  0  0
   44.5089   23.0640   35.3346 H   0  0  0  0  0  0  0  0  0  0  0  0
  2  3  1  0
  2  1  1  0
  4  3  1  0
  5  4  1  0
  6  5  1  0
  7  6  1  0
  7  8  1  0
  8  4  1  0
  9  1  1  0
  9 11  1  0
 10  9  2  0
 11 12  2  0
 12 13  1  0
 14 13  2  0
 15 14  1  0
 16 11  1  0
 16 15  2  0
 17 15  1  0
 17 18  1  0
 19 18  2  0
 20 19  1  0
 21 20  2  0
 22 23  1  0
 22 20  1  0
 23 17  1  0
 24 23  2  0
  2 25  1  0
  2 26  1  0
  3 27  1  0
  3 28  1  0
  4 29  1  0
  5 30  1  0
  5 31  1  0
  6 32  1  0
  6 33  1  0
  7 34  1  0
  7 35  1  0
  8 36  1  0
  8 37  1  0
 12 38  1  0
 13 39  1  0
 18 40  1  0
 19 41  1  0
 22 42  1  0
M  ISO  8  25   8  26   8  27   8  28   8  29  13  30  13  31  13  32  13
M  ISO  8  33  13  34  13  35  13  36  13  37  13  38  14  39  14  40  14
M  ISO  2  41  14  42   9
M  END
>  <minimizedAffinity>  (1) 
-5.20309353

>  <minimizedRMSD>  (1) 
1.75440073

$$$$
