
     RDKit          3D

 39 40  0  0  0  0  0  0  0  0999 V2000
   37.5662   25.6797   34.5735 O   0  0  0  0  0  0  0  0  0  0  0  0
   37.2508   25.9817   33.2244 C   0  0  0  0  0  0  0  0  0  0  0  0
   36.8090   27.3576   33.0168 C   0  0  0  0  0  0  0  0  0  0  0  0
   37.3574   28.1651   31.9132 C   0  0  0  0  0  0  0  0  0  0  0  0
   36.3516   28.5670   30.8585 C   0  0  0  0  0  0  0  0  0  0  0  0
   37.2896   29.3552   29.9381 C   0  0  0  0  0  0  0  0  0  0  0  0
   38.4840   28.3911   29.8281 C   0  0  0  0  0  0  0  0  0  0  0  0
   38.4452   27.5586   31.0951 C   0  0  0  0  0  0  0  0  0  0  0  0
   38.2587   24.4596   34.7491 C   0  0  0  0  0  0  0  0  0  0  0  0
   38.6124   23.7754   33.7776 O   0  0  0  0  0  0  0  0  0  0  0  0
   38.5507   24.0185   36.1236 C   0  0  0  0  0  0  0  0  0  0  0  0
   37.7210   24.4795   37.1411 C   0  0  0  0  0  0  0  0  0  0  0  0
   38.0587   24.0134   38.4319 C   0  0  0  0  0  0  0  0  0  0  0  0
   39.1160   23.1858   38.6036 N   0  0  0  0  0  0  0  0  0  0  0  0
   39.8635   22.7858   37.5926 C   0  0  0  0  0  0  0  0  0  0  0  0
   39.5942   23.1919   36.3548 N   0  0  0  0  0  0  0  0  0  0  0  0
   36.5957   25.2017   32.7829 H   0  0  0  0  0  0  0  0  0  0  0  0
   38.2311   25.8462   32.6851 H   0  0  0  0  0  0  0  0  0  0  0  0
   36.9349   27.8989   33.9920 H   0  0  0  0  0  0  0  0  0  0  0  0
   35.6898   27.3321   32.8897 H   0  0  0  0  0  0  0  0  0  0  0  0
   37.7467   29.1355   32.2907 H   0  0  0  0  0  0  0  0  0  0  0  0
   35.9867   27.6580   30.3730 H   0  0  0  0  0  0  0  0  0  0  0  0
   35.5710   29.2011   31.3082 H   0  0  0  0  0  0  0  0  0  0  0  0
   36.7666   29.4846   28.9873 H   0  0  0  0  0  0  0  0  0  0  0  0
   37.5635   30.2983   30.4325 H   0  0  0  0  0  0  0  0  0  0  0  0
   38.3021   27.8101   28.9077 H   0  0  0  0  0  0  0  0  0  0  0  0
   39.4228   28.9355   29.6858 H   0  0  0  0  0  0  0  0  0  0  0  0
   39.4276   27.6593   31.5671 H   0  0  0  0  0  0  0  0  0  0  0  0
   38.2192   26.5245   30.7575 H   0  0  0  0  0  0  0  0  0  0  0  0
   36.9042   25.1289   36.9472 H   0  0  0  0  0  0  0  0  0  0  0  0
   37.4300   24.3571   39.2339 H   0  0  0  0  0  0  0  0  0  0  0  0
   40.9088   21.9314   38.0066 N   0  0  0  0  0  0  0  0  0  0  0  0
   42.0521   22.0117   37.1926 C   0  0  0  0  0  0  0  0  0  0  0  0
   42.3038   22.3560   36.0251 N   0  0  0  0  0  0  0  0  0  0  0  0
   43.3404   21.6358   37.6793 N   0  0  0  0  0  0  0  0  0  0  0  0
   40.9140   21.2900   38.8039 H   0  0  0  0  0  0  0  0  0  0  0  0
   41.6235   22.6948   35.3399 H   0  0  0  0  0  0  0  0  0  0  0  0
   44.2912   21.3604   38.0391 H   0  0  0  0  0  0  0  0  0  0  0  0
   44.1197   22.1140   38.1605 H   0  0  0  0  0  0  0  0  0  0  0  0
  1  9  1  0
  2  1  1  0
  3  2  1  0
  4  3  1  0
  5  4  1  0
  6  5  1  0
  7  6  1  0
  7  8  1  0
  8  4  1  0
  9 11  1  0
 10  9  2  0
 11 16  1  0
 11 12  2  0
 12 13  1  0
 13 14  2  0
 15 14  1  0
 16 15  2  0
  2 17  1  0
  2 18  1  0
  3 19  1  0
  3 20  1  0
  4 21  1  0
  5 22  1  0
  5 23  1  0
  6 24  1  0
  6 25  1  0
  7 26  1  0
  7 27  1  0
  8 28  1  0
  8 29  1  0
 12 30  1  0
 13 31  1  0
 32 33  1  0
 33 34  2  3
 33 35  1  0
 32 36  1  0
 34 37  1  0
 35 38  1  0
 35 39  1  0
 15 32  1  0
M  END
>  <DihAtoms>  (1) 
13,14,31,32

>  <DihDeg>  (1) 
179.84564621375625

$$$$
