
     RDKit          3D

 38 40  0  0  0  0  0  0  0  0999 V2000
   36.9730   27.2610   34.0780 C   0  0  0  0  0  0  0  0  0  0  0  0
   36.2020   28.4540   34.3930 C   0  0  0  0  0  0  0  0  0  0  0  0
   35.7960   29.3900   33.3290 C   0  0  0  0  0  0  0  0  0  0  0  0
   34.3230   29.3780   32.9960 C   0  0  0  0  0  0  0  0  0  0  0  0
   34.3160   30.4600   31.9100 C   0  0  0  0  0  0  0  0  0  0  0  0
   35.5290   30.0580   31.0690 C   0  0  0  0  0  0  0  0  0  0  0  0
   36.4190   29.2460   31.9880 C   0  0  0  0  0  0  0  0  0  0  0  0
   37.1970   26.4030   35.2070 O   0  0  0  0  0  0  0  0  0  0  0  0
   38.2340   25.4710   34.9900 C   0  0  0  0  0  0  0  0  0  0  0  0
   38.8410   25.3890   33.8920 O   0  0  0  0  0  0  0  0  0  0  0  0
   38.6110   24.5720   36.0850 C   0  0  0  0  0  0  0  0  0  0  0  0
   37.8770   24.6580   37.2640 C   0  0  0  0  0  0  0  0  0  0  0  0
   38.2450   23.7920   38.3050 C   0  0  0  0  0  0  0  0  0  0  0  0
   39.2860   22.9290   38.0990 N   0  0  0  0  0  0  0  0  0  0  0  0
   39.9540   22.8860   36.9550 C   0  0  0  0  0  0  0  0  0  0  0  0
   39.6360   23.7000   35.9270 N   0  0  0  0  0  0  0  0  0  0  0  0
   41.0310   21.9720   36.7820 N   0  0  0  0  0  0  0  0  0  0  0  0
   41.5690   21.5790   35.6130 C   0  0  0  0  0  0  0  0  0  0  0  0
   42.5830   20.7000   35.7790 N   0  0  0  0  0  0  0  0  0  0  0  0
   42.6650   20.5500   37.1300 C   0  0  0  0  0  0  0  0  0  0  0  0
   41.7200   21.3260   37.7150 N   0  0  0  0  0  0  0  0  0  0  0  0
   36.4306   26.6898   33.3102 H   0  0  0  0  0  0  0  0  0  0  0  0
   37.9604   27.5992   33.7308 H   0  0  0  0  0  0  0  0  0  0  0  0
   35.2770   28.1110   34.8796 H   0  0  0  0  0  0  0  0  0  0  0  0
   36.9072   29.0515   34.9894 H   0  0  0  0  0  0  0  0  0  0  0  0
   36.1439   30.3073   33.8266 H   0  0  0  0  0  0  0  0  0  0  0  0
   33.9953   28.4021   32.6085 H   0  0  0  0  0  0  0  0  0  0  0  0
   33.6441   29.5530   33.8436 H   0  0  0  0  0  0  0  0  0  0  0  0
   33.3892   30.4292   31.3184 H   0  0  0  0  0  0  0  0  0  0  0  0
   34.3625   31.4872   32.3008 H   0  0  0  0  0  0  0  0  0  0  0  0
   35.2134   29.4514   30.2074 H   0  0  0  0  0  0  0  0  0  0  0  0
   36.0548   30.9384   30.6708 H   0  0  0  0  0  0  0  0  0  0  0  0
   36.4376   28.1905   31.6789 H   0  0  0  0  0  0  0  0  0  0  0  0
   37.4634   29.5908   31.9720 H   0  0  0  0  0  0  0  0  0  0  0  0
   37.0471   25.3715   37.3748 H   0  0  0  0  0  0  0  0  0  0  0  0
   37.7084   23.8068   39.2651 H   0  0  0  0  0  0  0  0  0  0  0  0
   41.2223   21.9335   34.6311 H   0  0  0  0  0  0  0  0  0  0  0  0
   43.3810   19.9046   37.6599 H   0  0  0  0  0  0  0  0  0  0  0  0
  1  2  1  0
  1  8  1  0
  3  2  1  0
  4  3  1  0
  5  4  1  0
  6  5  1  0
  6  7  1  0
  7  3  1  0
  9  8  1  0
  9 11  1  0
 10  9  2  0
 11 12  2  0
 12 13  1  0
 14 13  2  0
 15 14  1  0
 16 11  1  0
 16 15  2  0
 17 15  1  0
 17 21  1  0
 18 19  2  0
 18 17  1  0
 19 20  1  0
 20 21  2  0
  1 22  1  0
  1 23  1  0
  2 24  1  0
  2 25  1  0
  3 26  1  0
  4 27  1  0
  4 28  1  0
  5 29  1  0
  5 30  1  0
  6 31  1  0
  6 32  1  0
  7 33  1  0
  7 34  1  0
 12 35  1  0
 13 36  1  0
 18 37  1  0
 20 38  1  0
M  ISO  8  22   8  23   8  24   8  25   8  26  13  27  13  28  13  29  13
M  ISO  8  30  13  31  13  32  13  33  13  34  13  35  14  36  14  37  14
M  ISO  1  38  14
M  END
>  <minimizedAffinity>  (1) 
-4.81918859

>  <minimizedRMSD>  (1) 
1.85587478

$$$$
