
     RDKit          3D

 45 47  0  0  0  0  0  0  0  0999 V2000
   37.4340   27.5270   35.0360 C   0  0  0  0  0  0  0  0  0  0  0  0
   36.3660   28.2840   34.3580 C   0  0  0  0  0  0  0  0  0  0  0  0
   36.5390   28.7110   32.9650 C   0  0  0  0  0  0  0  0  0  0  0  0
   35.2980   29.2680   32.3130 C   0  0  0  0  0  0  0  0  0  0  0  0
   35.8990   29.6230   30.9360 C   0  0  0  0  0  0  0  0  0  0  0  0
   36.6710   28.3390   30.6140 C   0  0  0  0  0  0  0  0  0  0  0  0
   37.0120   27.7250   31.9580 C   0  0  0  0  0  0  0  0  0  0  0  0
   37.0420   26.2160   35.4140 O   0  0  0  0  0  0  0  0  0  0  0  0
   37.9370   25.2100   35.0460 C   0  0  0  0  0  0  0  0  0  0  0  0
   38.2370   25.0130   33.8500 O   0  0  0  0  0  0  0  0  0  0  0  0
   38.5430   24.3600   36.0850 C   0  0  0  0  0  0  0  0  0  0  0  0
   37.9950   24.4410   37.3660 C   0  0  0  0  0  0  0  0  0  0  0  0
   38.5850   23.6200   38.3560 C   0  0  0  0  0  0  0  0  0  0  0  0
   39.6230   22.8200   38.0180 N   0  0  0  0  0  0  0  0  0  0  0  0
   40.1010   22.7870   36.7790 C   0  0  0  0  0  0  0  0  0  0  0  0
   39.5840   23.5410   35.8000 N   0  0  0  0  0  0  0  0  0  0  0  0
   41.1870   21.9310   36.4830 N   0  0  0  0  0  0  0  0  0  0  0  0
   41.8030   21.0830   37.4860 C   0  0  0  0  0  0  0  0  0  0  0  0
   43.0230   20.4590   36.8860 C   0  0  0  0  0  0  0  0  0  0  0  0
   43.8720   21.3380   36.2410 O   0  0  0  0  0  0  0  0  0  0  0  0
   43.2510   22.1570   35.3260 C   0  0  0  0  0  0  0  0  0  0  0  0
   41.7840   21.8190   35.1660 C   0  0  0  0  0  0  0  0  0  0  0  0
   37.7307   28.0770   35.9412 H   0  0  0  0  0  0  0  0  0  0  0  0
   38.2640   27.4248   34.3214 H   0  0  0  0  0  0  0  0  0  0  0  0
   35.4637   27.6555   34.3875 H   0  0  0  0  0  0  0  0  0  0  0  0
   36.3395   29.2341   34.9117 H   0  0  0  0  0  0  0  0  0  0  0  0
   37.3268   29.4515   33.1678 H   0  0  0  0  0  0  0  0  0  0  0  0
   34.4987   28.5164   32.2345 H   0  0  0  0  0  0  0  0  0  0  0  0
   34.8095   30.0960   32.8476 H   0  0  0  0  0  0  0  0  0  0  0  0
   35.1138   29.8198   30.1912 H   0  0  0  0  0  0  0  0  0  0  0  0
   36.5139   30.5351   30.9312 H   0  0  0  0  0  0  0  0  0  0  0  0
   36.0460   27.6519   30.0247 H   0  0  0  0  0  0  0  0  0  0  0  0
   37.5724   28.5429   30.0174 H   0  0  0  0  0  0  0  0  0  0  0  0
   36.4936   26.7633   32.0860 H   0  0  0  0  0  0  0  0  0  0  0  0
   38.0881   27.5193   32.0562 H   0  0  0  0  0  0  0  0  0  0  0  0
   37.1499   25.1072   37.5938 H   0  0  0  0  0  0  0  0  0  0  0  0
   38.2045   23.6318   39.3880 H   0  0  0  0  0  0  0  0  0  0  0  0
   42.0856   21.6865   38.3611 H   0  0  0  0  0  0  0  0  0  0  0  0
   41.0976   20.3033   37.8093 H   0  0  0  0  0  0  0  0  0  0  0  0
   43.5878   19.9694   37.6930 H   0  0  0  0  0  0  0  0  0  0  0  0
   42.6636   19.7591   36.1172 H   0  0  0  0  0  0  0  0  0  0  0  0
   43.3403   23.1997   35.6647 H   0  0  0  0  0  0  0  0  0  0  0  0
   43.7413   22.0115   34.3521 H   0  0  0  0  0  0  0  0  0  0  0  0
   41.3055   22.5248   34.4711 H   0  0  0  0  0  0  0  0  0  0  0  0
   41.6525   20.8069   34.7556 H   0  0  0  0  0  0  0  0  0  0  0  0
  1  8  1  0
  2  1  1  0
  3  2  1  0
  4  3  1  0
  5  4  1  0
  6  5  1  0
  6  7  1  0
  7  3  1  0
  9  8  1  0
  9 11  1  0
 10  9  2  0
 11 12  2  0
 12 13  1  0
 14 13  2  0
 15 14  1  0
 16 11  1  0
 16 15  2  0
 17 15  1  0
 17 18  1  0
 19 18  1  0
 20 19  1  0
 21 20  1  0
 22 21  1  0
 22 17  1  0
  1 23  1  0
  1 24  1  0
  2 25  1  0
  2 26  1  0
  3 27  1  0
  4 28  1  0
  4 29  1  0
  5 30  1  0
  5 31  1  0
  6 32  1  0
  6 33  1  0
  7 34  1  0
  7 35  1  0
 12 36  1  0
 13 37  1  0
 18 38  1  0
 18 39  1  0
 19 40  1  0
 19 41  1  0
 21 42  1  0
 21 43  1  0
 22 44  1  0
 22 45  1  0
M  ISO  8  23   8  24   8  25   8  26   8  27  13  28  13  29  13  30  13
M  ISO  8  31  13  32  13  33  13  34  13  35  13  36  14  37  14  38  13
M  ISO  7  39  13  40  13  41  13  42  13  43  13  44  13  45  13
M  END
>  <minimizedAffinity>  (1) 
-4.9103179

>  <minimizedRMSD>  (1) 
1.53950512

$$$$
