
     RDKit          3D

 45 47  0  0  0  0  0  0  0  0999 V2000
   37.0880   26.2730   33.2410 C   0  0  0  0  0  0  0  0  0  0  0  0
   36.7770   27.7020   33.1520 C   0  0  0  0  0  0  0  0  0  0  0  0
   37.0630   28.4480   31.9150 C   0  0  0  0  0  0  0  0  0  0  0  0
   35.9730   29.3810   31.4770 C   0  0  0  0  0  0  0  0  0  0  0  0
   36.6310   29.9380   30.1970 C   0  0  0  0  0  0  0  0  0  0  0  0
   37.1700   28.6780   29.5490 C   0  0  0  0  0  0  0  0  0  0  0  0
   37.3610   27.6760   30.6730 C   0  0  0  0  0  0  0  0  0  0  0  0
   37.4360   25.8340   34.5400 O   0  0  0  0  0  0  0  0  0  0  0  0
   37.9850   24.5490   34.5760 C   0  0  0  0  0  0  0  0  0  0  0  0
   38.0540   23.8420   33.5450 O   0  0  0  0  0  0  0  0  0  0  0  0
   38.4920   24.0120   35.8420 C   0  0  0  0  0  0  0  0  0  0  0  0
   37.6170   24.0000   36.9280 C   0  0  0  0  0  0  0  0  0  0  0  0
   38.0970   23.4860   38.1490 C   0  0  0  0  0  0  0  0  0  0  0  0
   39.3720   23.0380   38.1910 N   0  0  0  0  0  0  0  0  0  0  0  0
   40.1800   23.0660   37.1250 C   0  0  0  0  0  0  0  0  0  0  0  0
   39.7760   23.5440   35.9420 N   0  0  0  0  0  0  0  0  0  0  0  0
   41.5670   22.5340   37.3230 C   0  0  0  0  0  0  0  0  0  0  0  0
   42.6030   23.3030   36.5550 C   0  0  0  0  0  0  0  0  0  0  0  0
   43.3770   22.3090   35.7200 C   0  0  0  0  0  0  0  0  0  0  0  0
   43.1730   21.0260   36.5250 C   0  0  0  0  0  0  0  0  0  0  0  0
   41.6750   21.1090   36.7750 C   0  0  0  0  0  0  0  0  0  0  0  0
   37.9319   26.0613   32.5679 H   0  0  0  0  0  0  0  0  0  0  0  0
   36.1720   25.7326   32.9601 H   0  0  0  0  0  0  0  0  0  0  0  0
   35.6979   27.8032   33.3401 H   0  0  0  0  0  0  0  0  0  0  0  0
   37.4657   28.1536   33.8812 H   0  0  0  0  0  0  0  0  0  0  0  0
   37.9715   28.9544   32.2730 H   0  0  0  0  0  0  0  0  0  0  0  0
   35.0358   28.8474   31.2602 H   0  0  0  0  0  0  0  0  0  0  0  0
   35.6691   30.1344   32.2187 H   0  0  0  0  0  0  0  0  0  0  0  0
   35.8923   30.4355   29.5513 H   0  0  0  0  0  0  0  0  0  0  0  0
   37.3983   30.7027   30.3882 H   0  0  0  0  0  0  0  0  0  0  0  0
   36.4523   28.2913   28.8106 H   0  0  0  0  0  0  0  0  0  0  0  0
   38.1137   28.8711   29.0177 H   0  0  0  0  0  0  0  0  0  0  0  0
   36.6649   26.8313   30.5636 H   0  0  0  0  0  0  0  0  0  0  0  0
   38.3725   27.2438   30.6812 H   0  0  0  0  0  0  0  0  0  0  0  0
   36.5884   24.3785   36.8346 H   0  0  0  0  0  0  0  0  0  0  0  0
   37.4540   23.4503   39.0408 H   0  0  0  0  0  0  0  0  0  0  0  0
   41.7454   22.6031   38.4062 H   0  0  0  0  0  0  0  0  0  0  0  0
   42.1155   24.0427   35.9030 H   0  0  0  0  0  0  0  0  0  0  0  0
   43.2747   23.8408   37.2403 H   0  0  0  0  0  0  0  0  0  0  0  0
   44.4413   22.5793   35.6544 H   0  0  0  0  0  0  0  0  0  0  0  0
   43.0464   22.2434   34.6729 H   0  0  0  0  0  0  0  0  0  0  0  0
   43.4412   20.1317   35.9434 H   0  0  0  0  0  0  0  0  0  0  0  0
   43.7909   20.9435   37.4313 H   0  0  0  0  0  0  0  0  0  0  0  0
   41.0999   20.9859   35.8454 H   0  0  0  0  0  0  0  0  0  0  0  0
   41.2755   20.3289   37.4397 H   0  0  0  0  0  0  0  0  0  0  0  0
  1  8  1  0
  2  1  1  0
  3  2  1  0
  4  3  1  0
  5  4  1  0
  6  5  1  0
  6  7  1  0
  7  3  1  0
  8  9  1  0
  9 11  1  0
 10  9  2  0
 11 16  1  0
 11 12  2  0
 12 13  1  0
 13 14  2  0
 15 17  1  0
 15 14  1  0
 16 15  2  0
 18 17  1  0
 19 20  1  0
 19 18  1  0
 20 21  1  0
 21 17  1  0
  1 22  1  0
  1 23  1  0
  2 24  1  0
  2 25  1  0
  3 26  1  0
  4 27  1  0
  4 28  1  0
  5 29  1  0
  5 30  1  0
  6 31  1  0
  6 32  1  0
  7 33  1  0
  7 34  1  0
 12 35  1  0
 13 36  1  0
 17 37  1  0
 18 38  1  0
 18 39  1  0
 19 40  1  0
 19 41  1  0
 20 42  1  0
 20 43  1  0
 21 44  1  0
 21 45  1  0
M  ISO  8  22   8  23   8  24   8  25   8  26  13  27  13  28  13  29  13
M  ISO  8  30  13  31  13  32  13  33  13  34  13  35  14  36  14  37  13
M  ISO  8  38  13  39  13  40  13  41  13  42  13  43  13  44  13  45  13
M  END
>  <minimizedAffinity>  (1) 
-4.76457596

>  <minimizedRMSD>  (1) 
0.902752817

$$$$
