
     RDKit          3D

 35 36  0  0  0  0  0  0  0  0999 V2000
   37.0180   26.2780   33.2250 C   0  0  0  0  0  0  0  0  0  0  0  0
   36.8430   27.7400   33.1550 C   0  0  0  0  0  0  0  0  0  0  0  0
   37.0920   28.4780   31.9120 C   0  0  0  0  0  0  0  0  0  0  0  0
   36.0100   29.4180   31.4960 C   0  0  0  0  0  0  0  0  0  0  0  0
   36.6060   29.9570   30.1920 C   0  0  0  0  0  0  0  0  0  0  0  0
   37.1500   28.6970   29.5570 C   0  0  0  0  0  0  0  0  0  0  0  0
   37.3100   27.6830   30.6710 C   0  0  0  0  0  0  0  0  0  0  0  0
   37.4470   25.8200   34.4930 O   0  0  0  0  0  0  0  0  0  0  0  0
   37.9820   24.5250   34.5140 C   0  0  0  0  0  0  0  0  0  0  0  0
   38.0140   23.8230   33.4940 O   0  0  0  0  0  0  0  0  0  0  0  0
   38.5210   23.9790   35.7600 C   0  0  0  0  0  0  0  0  0  0  0  0
   37.7660   24.1910   36.9230 C   0  0  0  0  0  0  0  0  0  0  0  0
   38.2500   23.6800   38.1380 C   0  0  0  0  0  0  0  0  0  0  0  0
   39.4220   23.0120   38.1140 N   0  0  0  0  0  0  0  0  0  0  0  0
   40.1180   22.8270   36.9850 C   0  0  0  0  0  0  0  0  0  0  0  0
   39.6950   23.2960   35.8000 N   0  0  0  0  0  0  0  0  0  0  0  0
   41.3960   22.0880   37.0050 C   0  0  0  0  0  0  0  0  0  0  0  0
   41.5320   21.3480   35.8230 F   0  0  0  0  0  0  0  0  0  0  0  0
   42.4440   22.9850   37.0610 F   0  0  0  0  0  0  0  0  0  0  0  0
   41.4630   21.2240   38.0870 F   0  0  0  0  0  0  0  0  0  0  0  0
   37.7669   25.9809   32.4761 H   0  0  0  0  0  0  0  0  0  0  0  0
   36.0338   25.8253   33.0340 H   0  0  0  0  0  0  0  0  0  0  0  0
   35.7982   27.9423   33.4333 H   0  0  0  0  0  0  0  0  0  0  0  0
   37.6418   28.1082   33.8156 H   0  0  0  0  0  0  0  0  0  0  0  0
   38.0150   28.9798   32.2380 H   0  0  0  0  0  0  0  0  0  0  0  0
   35.0588   28.8934   31.3230 H   0  0  0  0  0  0  0  0  0  0  0  0
   35.7559   30.1874   32.2399 H   0  0  0  0  0  0  0  0  0  0  0  0
   35.8344   30.4225   29.5612 H   0  0  0  0  0  0  0  0  0  0  0  0
   37.3607   30.7437   30.3387 H   0  0  0  0  0  0  0  0  0  0  0  0
   36.4471   28.3203   28.7994 H   0  0  0  0  0  0  0  0  0  0  0  0
   38.1100   28.8890   29.0555 H   0  0  0  0  0  0  0  0  0  0  0  0
   36.5609   26.8824   30.5823 H   0  0  0  0  0  0  0  0  0  0  0  0
   38.2901   27.1838   30.6532 H   0  0  0  0  0  0  0  0  0  0  0  0
   36.8164   24.7449   36.8841 H   0  0  0  0  0  0  0  0  0  0  0  0
   37.6932   23.8194   39.0764 H   0  0  0  0  0  0  0  0  0  0  0  0
  1  8  1  0
  2  1  1  0
  3  2  1  0
  4  3  1  0
  5  4  1  0
  6  5  1  0
  6  7  1  0
  7  3  1  0
  8  9  1  0
  9 11  1  0
 10  9  2  0
 11 16  1  0
 11 12  2  0
 12 13  1  0
 14 13  2  0
 15 17  1  0
 15 14  1  0
 16 15  2  0
 17 19  1  0
 17 20  1  0
 18 17  1  0
  1 21  1  0
  1 22  1  0
  2 23  1  0
  2 24  1  0
  3 25  1  0
  4 26  1  0
  4 27  1  0
  5 28  1  0
  5 29  1  0
  6 30  1  0
  6 31  1  0
  7 32  1  0
  7 33  1  0
 12 34  1  0
 13 35  1  0
M  ISO  8  21   8  22   8  23   8  24   8  25  13  26  13  27  13  28  13
M  ISO  7  29  13  30  13  31  13  32  13  33  13  34  14  35  14
M  END
>  <minimizedAffinity>  (1) 
-4.70702028

>  <minimizedRMSD>  (1) 
0.787531376

$$$$
