
     RDKit          3D

 33 34  0  0  0  0  0  0  0  0999 V2000
   36.8180   27.2800   33.0400 C   0  0  0  0  0  0  0  0  0  0  0  0
   37.3520   28.0250   31.8810 C   0  0  0  0  0  0  0  0  0  0  0  0
   36.4310   28.0380   30.6910 C   0  0  0  0  0  0  0  0  0  0  0  0
   37.2920   28.8380   29.7120 C   0  0  0  0  0  0  0  0  0  0  0  0
   38.6640   28.2340   29.9280 C   0  0  0  0  0  0  0  0  0  0  0  0
   38.6350   27.5840   31.2980 C   0  0  0  0  0  0  0  0  0  0  0  0
   37.2360   25.9040   33.3010 C   0  0  0  0  0  0  0  0  0  0  0  0
   38.1620   25.7890   34.3890 O   0  0  0  0  0  0  0  0  0  0  0  0
   38.4910   24.4450   34.6730 C   0  0  0  0  0  0  0  0  0  0  0  0
   38.6580   23.5800   33.7750 O   0  0  0  0  0  0  0  0  0  0  0  0
   38.6440   24.0350   36.0730 C   0  0  0  0  0  0  0  0  0  0  0  0
   37.8380   24.6780   37.0200 C   0  0  0  0  0  0  0  0  0  0  0  0
   37.9860   24.2850   38.3550 C   0  0  0  0  0  0  0  0  0  0  0  0
   38.8820   23.3220   38.6520 N   0  0  0  0  0  0  0  0  0  0  0  0
   39.6330   22.7290   37.7220 C   0  0  0  0  0  0  0  0  0  0  0  0
   39.5320   23.0720   36.4170 N   0  0  0  0  0  0  0  0  0  0  0  0
   40.5710   21.7330   37.9670 O   0  0  0  0  0  0  0  0  0  0  0  0
   35.7245   27.2590   32.9229 H   0  0  0  0  0  0  0  0  0  0  0  0
   37.2352   27.8291   33.8970 H   0  0  0  0  0  0  0  0  0  0  0  0
   37.4804   29.0001   32.3737 H   0  0  0  0  0  0  0  0  0  0  0  0
   36.2249   27.0229   30.3209 H   0  0  0  0  0  0  0  0  0  0  0  0
   35.4295   28.4523   30.8793 H   0  0  0  0  0  0  0  0  0  0  0  0
   37.2846   29.9101   29.9580 H   0  0  0  0  0  0  0  0  0  0  0  0
   36.9438   28.7833   28.6700 H   0  0  0  0  0  0  0  0  0  0  0  0
   38.8743   27.4811   29.1541 H   0  0  0  0  0  0  0  0  0  0  0  0
   39.4510   29.0000   29.8667 H   0  0  0  0  0  0  0  0  0  0  0  0
   38.6676   26.4880   31.2106 H   0  0  0  0  0  0  0  0  0  0  0  0
   39.4988   27.8675   31.9173 H   0  0  0  0  0  0  0  0  0  0  0  0
   36.3431   25.3069   33.5380 H   0  0  0  0  0  0  0  0  0  0  0  0
   37.7488   25.5425   32.3974 H   0  0  0  0  0  0  0  0  0  0  0  0
   37.1197   25.4581   36.7275 H   0  0  0  0  0  0  0  0  0  0  0  0
   37.3828   24.7528   39.1471 H   0  0  0  0  0  0  0  0  0  0  0  0
   41.0880   21.3447   37.2173 H   0  0  0  0  0  0  0  0  0  0  0  0
  1  7  1  0
  2  1  1  0
  3  2  1  0
  4  5  1  0
  4  3  1  0
  5  6  1  0
  6  2  1  0
  7  8  1  0
  8  9  1  0
  9 11  1  0
 10  9  2  0
 11 16  1  0
 11 12  2  0
 12 13  1  0
 13 14  2  0
 15 17  1  0
 15 14  1  0
 16 15  2  0
  1 18  1  0
  1 19  1  0
  2 20  1  0
  3 21  1  0
  3 22  1  0
  4 23  1  0
  4 24  1  0
  5 25  1  0
  5 26  1  0
  6 27  1  0
  6 28  1  0
  7 29  1  0
  7 30  1  0
 12 31  1  0
 13 32  1  0
 17 33  1  0
M  ISO  8  18   8  19   8  20  13  21  13  22  13  23  13  24  13  25  13
M  ISO  8  26  13  27  13  28  13  29   8  30   8  31  14  32  14  33   3
M  END
>  <minimizedAffinity>  (1) 
-4.57789564

>  <minimizedRMSD>  (1) 
0.309654832

$$$$
