
     RDKit          3D

 41 42  0  0  0  0  0  0  0  0999 V2000
   37.0960   26.1860   33.3860 C   0  0  0  0  0  0  0  0  0  0  0  0
   36.9810   27.6480   33.3470 C   0  0  0  0  0  0  0  0  0  0  0  0
   37.1390   28.3910   32.0780 C   0  0  0  0  0  0  0  0  0  0  0  0
   35.9670   29.2470   31.7060 C   0  0  0  0  0  0  0  0  0  0  0  0
   36.4650   29.8060   30.3720 C   0  0  0  0  0  0  0  0  0  0  0  0
   37.0820   28.5830   29.7120 C   0  0  0  0  0  0  0  0  0  0  0  0
   37.3830   27.6170   30.8380 C   0  0  0  0  0  0  0  0  0  0  0  0
   37.6570   25.7030   34.6050 O   0  0  0  0  0  0  0  0  0  0  0  0
   38.0680   24.3620   34.5490 C   0  0  0  0  0  0  0  0  0  0  0  0
   37.8090   23.6340   33.5620 O   0  0  0  0  0  0  0  0  0  0  0  0
   38.8180   23.7920   35.6650 C   0  0  0  0  0  0  0  0  0  0  0  0
   38.2000   23.8160   36.9280 C   0  0  0  0  0  0  0  0  0  0  0  0
   38.9300   23.2630   38.0030 C   0  0  0  0  0  0  0  0  0  0  0  0
   40.1630   22.7500   37.7730 N   0  0  0  0  0  0  0  0  0  0  0  0
   40.6980   22.7560   36.5520 C   0  0  0  0  0  0  0  0  0  0  0  0
   40.0570   23.2660   35.4920 N   0  0  0  0  0  0  0  0  0  0  0  0
   42.0630   22.1520   36.4790 C   0  0  0  0  0  0  0  0  0  0  0  0
   43.1360   23.1800   36.6290 C   0  0  0  0  0  0  0  0  0  0  0  0
   42.1120   21.0480   37.5120 C   0  0  0  0  0  0  0  0  0  0  0  0
   37.7372   25.8626   32.5528 H   0  0  0  0  0  0  0  0  0  0  0  0
   36.0792   25.7739   33.3060 H   0  0  0  0  0  0  0  0  0  0  0  0
   35.9796   27.8932   33.7304 H   0  0  0  0  0  0  0  0  0  0  0  0
   37.8552   27.9750   33.9292 H   0  0  0  0  0  0  0  0  0  0  0  0
   38.0402   28.9549   32.3604 H   0  0  0  0  0  0  0  0  0  0  0  0
   35.0493   28.6531   31.5835 H   0  0  0  0  0  0  0  0  0  0  0  0
   35.6890   30.0050   32.4531 H   0  0  0  0  0  0  0  0  0  0  0  0
   35.6331   30.2040   29.7724 H   0  0  0  0  0  0  0  0  0  0  0  0
   37.1673   30.6453   30.4832 H   0  0  0  0  0  0  0  0  0  0  0  0
   36.3742   28.1334   29.0001 H   0  0  0  0  0  0  0  0  0  0  0  0
   37.9891   28.8417   29.1460 H   0  0  0  0  0  0  0  0  0  0  0  0
   36.7152   26.7443   30.7885 H   0  0  0  0  0  0  0  0  0  0  0  0
   38.4108   27.2283   30.7873 H   0  0  0  0  0  0  0  0  0  0  0  0
   37.1971   24.2445   37.0715 H   0  0  0  0  0  0  0  0  0  0  0  0
   38.5023   23.2488   39.0163 H   0  0  0  0  0  0  0  0  0  0  0  0
   42.2569   21.7194   35.4864 H   0  0  0  0  0  0  0  0  0  0  0  0
   43.3242   23.3603   37.6977 H   0  0  0  0  0  0  0  0  0  0  0  0
   44.0584   22.8199   36.1499 H   0  0  0  0  0  0  0  0  0  0  0  0
   42.8157   24.1169   36.1499 H   0  0  0  0  0  0  0  0  0  0  0  0
   42.0925   21.4879   38.5200 H   0  0  0  0  0  0  0  0  0  0  0  0
   41.2423   20.3868   37.3836 H   0  0  0  0  0  0  0  0  0  0  0  0
   43.0368   20.4665   37.3836 H   0  0  0  0  0  0  0  0  0  0  0  0
  1  8  1  0
  2  1  1  0
  3  2  1  0
  4  3  1  0
  5  4  1  0
  6  5  1  0
  6  7  1  0
  7  3  1  0
  9  8  1  0
  9 11  1  0
 10  9  2  0
 11 12  2  0
 12 13  1  0
 14 13  2  0
 15 14  1  0
 16 11  1  0
 16 15  2  0
 17 15  1  0
 17 18  1  0
 17 19  1  0
  1 20  1  0
  1 21  1  0
  2 22  1  0
  2 23  1  0
  3 24  1  0
  4 25  1  0
  4 26  1  0
  5 27  1  0
  5 28  1  0
  6 29  1  0
  6 30  1  0
  7 31  1  0
  7 32  1  0
 12 33  1  0
 13 34  1  0
 17 35  1  0
 18 36  1  0
 18 37  1  0
 18 38  1  0
 19 39  1  0
 19 40  1  0
 19 41  1  0
M  ISO  8  20   8  21   8  22   8  23   8  24  13  25  13  26  13  27  13
M  ISO  8  28  13  29  13  30  13  31  13  32  13  33  14  34  14  35   8
M  ISO  6  36   8  37   8  38   8  39   8  40   8  41   8
M  END
>  <minimizedAffinity>  (1) 
-4.41669989

>  <minimizedRMSD>  (1) 
1.15464032

$$$$
