
     RDKit          3D

 37 39  0  0  0  0  0  0  0  0999 V2000
   36.9840   26.3540   33.2820 C   0  0  0  0  0  0  0  0  0  0  0  0
   36.8050   27.7980   33.2000 C   0  0  0  0  0  0  0  0  0  0  0  0
   37.0760   28.5250   31.9400 C   0  0  0  0  0  0  0  0  0  0  0  0
   35.9650   29.4290   31.4920 C   0  0  0  0  0  0  0  0  0  0  0  0
   36.5930   29.9670   30.2000 C   0  0  0  0  0  0  0  0  0  0  0  0
   37.1320   28.6920   29.5710 C   0  0  0  0  0  0  0  0  0  0  0  0
   37.3410   27.7170   30.7140 C   0  0  0  0  0  0  0  0  0  0  0  0
   37.5090   25.9090   34.5410 O   0  0  0  0  0  0  0  0  0  0  0  0
   37.9540   24.5720   34.5070 C   0  0  0  0  0  0  0  0  0  0  0  0
   37.9130   23.8820   33.4800 O   0  0  0  0  0  0  0  0  0  0  0  0
   38.4860   23.9940   35.7560 C   0  0  0  0  0  0  0  0  0  0  0  0
   37.8510   24.3310   36.9530 C   0  0  0  0  0  0  0  0  0  0  0  0
   38.3710   23.7720   38.1320 C   0  0  0  0  0  0  0  0  0  0  0  0
   39.4380   22.9530   38.0440 N   0  0  0  0  0  0  0  0  0  0  0  0
   40.0110   22.6590   36.8930 C   0  0  0  0  0  0  0  0  0  0  0  0
   39.5730   23.1560   35.7130 N   0  0  0  0  0  0  0  0  0  0  0  0
   41.1730   21.7650   36.8210 C   0  0  0  0  0  0  0  0  0  0  0  0
   41.7370   21.0790   37.8540 N   0  0  0  0  0  0  0  0  0  0  0  0
   42.7430   20.3900   37.4320 O   0  0  0  0  0  0  0  0  0  0  0  0
   42.8680   20.5990   36.1430 C   0  0  0  0  0  0  0  0  0  0  0  0
   41.9050   21.4550   35.7170 N   0  0  0  0  0  0  0  0  0  0  0  0
   37.6784   26.0443   32.4871 H   0  0  0  0  0  0  0  0  0  0  0  0
   35.9886   25.8995   33.1698 H   0  0  0  0  0  0  0  0  0  0  0  0
   35.7549   27.9990   33.4585 H   0  0  0  0  0  0  0  0  0  0  0  0
   37.5859   28.1793   33.8744 H   0  0  0  0  0  0  0  0  0  0  0  0
   37.9855   29.0499   32.2677 H   0  0  0  0  0  0  0  0  0  0  0  0
   35.0355   28.8738   31.2978 H   0  0  0  0  0  0  0  0  0  0  0  0
   35.6570   30.1937   32.2202 H   0  0  0  0  0  0  0  0  0  0  0  0
   35.8402   30.4455   29.5563 H   0  0  0  0  0  0  0  0  0  0  0  0
   37.3546   30.7441   30.3614 H   0  0  0  0  0  0  0  0  0  0  0  0
   36.4074   28.2858   28.8499 H   0  0  0  0  0  0  0  0  0  0  0  0
   38.0681   28.8775   29.0238 H   0  0  0  0  0  0  0  0  0  0  0  0
   36.6365   26.8753   30.6421 H   0  0  0  0  0  0  0  0  0  0  0  0
   38.3484   27.2753   30.7111 H   0  0  0  0  0  0  0  0  0  0  0  0
   36.9817   25.0047   36.9719 H   0  0  0  0  0  0  0  0  0  0  0  0
   37.9165   23.9981   39.1079 H   0  0  0  0  0  0  0  0  0  0  0  0
   43.6394   20.1472   35.5021 H   0  0  0  0  0  0  0  0  0  0  0  0
  1  8  1  0
  2  1  1  0
  3  2  1  0
  4  3  1  0
  5  4  1  0
  6  5  1  0
  6  7  1  0
  7  3  1  0
  9  8  1  0
  9 11  1  0
 10  9  2  0
 11 12  2  0
 12 13  1  0
 14 13  2  0
 15 14  1  0
 16 11  1  0
 16 15  2  0
 17 15  1  0
 17 18  2  0
 19 18  1  0
 20 19  1  0
 21 20  2  0
 21 17  1  0
  1 22  1  0
  1 23  1  0
  2 24  1  0
  2 25  1  0
  3 26  1  0
  4 27  1  0
  4 28  1  0
  5 29  1  0
  5 30  1  0
  6 31  1  0
  6 32  1  0
  7 33  1  0
  7 34  1  0
 12 35  1  0
 13 36  1  0
 20 37  1  0
M  ISO  8  22   8  23   8  24   8  25   8  26  13  27  13  28  13  29  13
M  ISO  8  30  13  31  13  32  13  33  13  34  13  35  14  36  14  37  14
M  END
>  <minimizedAffinity>  (1) 
-4.57053709

>  <minimizedRMSD>  (1) 
0.899765074

$$$$
