
     RDKit          3D

 36 37  0  0  0  0  0  0  0  0999 V2000
   37.0350   26.3520   33.3770 C   0  0  0  0  0  0  0  0  0  0  0  0
   36.7040   27.7640   33.2590 C   0  0  0  0  0  0  0  0  0  0  0  0
   37.0180   28.4920   32.0210 C   0  0  0  0  0  0  0  0  0  0  0  0
   35.9340   29.4270   31.5500 C   0  0  0  0  0  0  0  0  0  0  0  0
   36.5520   29.9270   30.2630 C   0  0  0  0  0  0  0  0  0  0  0  0
   37.1020   28.6450   29.6440 C   0  0  0  0  0  0  0  0  0  0  0  0
   37.2450   27.6670   30.7820 C   0  0  0  0  0  0  0  0  0  0  0  0
   37.4000   25.9820   34.7240 O   0  0  0  0  0  0  0  0  0  0  0  0
   38.0440   24.7190   34.7370 C   0  0  0  0  0  0  0  0  0  0  0  0
   38.2700   24.0580   33.6850 O   0  0  0  0  0  0  0  0  0  0  0  0
   38.4650   24.1630   36.0320 C   0  0  0  0  0  0  0  0  0  0  0  0
   37.7310   24.5390   37.1510 C   0  0  0  0  0  0  0  0  0  0  0  0
   38.1300   24.0000   38.4040 C   0  0  0  0  0  0  0  0  0  0  0  0
   39.1980   23.1580   38.4060 N   0  0  0  0  0  0  0  0  0  0  0  0
   39.8580   22.8340   37.3170 C   0  0  0  0  0  0  0  0  0  0  0  0
   39.5340   23.3110   36.0910 N   0  0  0  0  0  0  0  0  0  0  0  0
   41.2500   21.7200   37.3160 S   0  0  0  0  0  0  0  0  0  0  0  0
   42.6840   22.4030   36.4820 C   0  0  0  0  0  0  0  0  0  0  0  0
   43.0410   23.6530   36.9370 F   0  0  0  0  0  0  0  0  0  0  0  0
   42.4210   22.4700   35.1090 F   0  0  0  0  0  0  0  0  0  0  0  0
   43.7930   21.5700   36.6280 F   0  0  0  0  0  0  0  0  0  0  0  0
   37.8801   26.1304   32.7087 H   0  0  0  0  0  0  0  0  0  0  0  0
   36.1405   25.7741   33.1016 H   0  0  0  0  0  0  0  0  0  0  0  0
   35.6178   27.8492   33.4106 H   0  0  0  0  0  0  0  0  0  0  0  0
   37.3578   28.2399   34.0047 H   0  0  0  0  0  0  0  0  0  0  0  0
   37.9370   28.9886   32.3656 H   0  0  0  0  0  0  0  0  0  0  0  0
   34.9882   28.8955   31.3682 H   0  0  0  0  0  0  0  0  0  0  0  0
   35.6608   30.2150   32.2672 H   0  0  0  0  0  0  0  0  0  0  0  0
   35.7959   30.3906   29.6123 H   0  0  0  0  0  0  0  0  0  0  0  0
   37.3153   30.7044   30.4149 H   0  0  0  0  0  0  0  0  0  0  0  0
   36.4041   28.2544   28.8888 H   0  0  0  0  0  0  0  0  0  0  0  0
   38.0628   28.8200   29.1379 H   0  0  0  0  0  0  0  0  0  0  0  0
   36.4932   26.8678   30.7042 H   0  0  0  0  0  0  0  0  0  0  0  0
   38.2265   27.1703   30.7850 H   0  0  0  0  0  0  0  0  0  0  0  0
   36.8758   25.2261   37.0699 H   0  0  0  0  0  0  0  0  0  0  0  0
   37.5976   24.2531   39.3327 H   0  0  0  0  0  0  0  0  0  0  0  0
  1  8  1  0
  2  1  1  0
  3  2  1  0
  4  3  1  0
  5  4  1  0
  6  5  1  0
  6  7  1  0
  7  3  1  0
  8  9  1  0
  9 11  1  0
 10  9  2  0
 11 16  1  0
 11 12  2  0
 12 13  1  0
 13 14  2  0
 15 14  1  0
 16 15  2  0
 17 15  1  0
 18 21  1  0
 18 19  1  0
 18 17  1  0
 20 18  1  0
  1 22  1  0
  1 23  1  0
  2 24  1  0
  2 25  1  0
  3 26  1  0
  4 27  1  0
  4 28  1  0
  5 29  1  0
  5 30  1  0
  6 31  1  0
  6 32  1  0
  7 33  1  0
  7 34  1  0
 12 35  1  0
 13 36  1  0
M  ISO  8  22   8  23   8  24   8  25   8  26  13  27  13  28  13  29  13
M  ISO  7  30  13  31  13  32  13  33  13  34  13  35  14  36  14
M  END
>  <minimizedAffinity>  (1) 
-4.63453245

>  <minimizedRMSD>  (1) 
0.690786719

$$$$
