
     RDKit          3D

 48 50  0  0  0  0  0  0  0  0999 V2000
   35.5730   29.1050   32.8970 C   0  0  0  0  0  0  0  0  0  0  0  0
   35.5750   29.3580   34.3460 C   0  0  0  0  0  0  0  0  0  0  0  0
   35.2110   30.6890   34.8690 C   0  0  0  0  0  0  0  0  0  0  0  0
   36.1850   31.2470   35.8560 C   0  0  0  0  0  0  0  0  0  0  0  0
   35.4810   32.5660   36.2010 C   0  0  0  0  0  0  0  0  0  0  0  0
   34.0400   32.0780   36.4060 C   0  0  0  0  0  0  0  0  0  0  0  0
   33.8970   30.8160   35.5920 C   0  0  0  0  0  0  0  0  0  0  0  0
   36.7910   28.5310   32.4250 O   0  0  0  0  0  0  0  0  0  0  0  0
   36.6070   27.3430   31.7140 C   0  0  0  0  0  0  0  0  0  0  0  0
   36.1010   27.3420   30.5550 O   0  0  0  0  0  0  0  0  0  0  0  0
   36.9970   26.0700   32.2910 C   0  0  0  0  0  0  0  0  0  0  0  0
   37.9340   26.1050   33.3380 C   0  0  0  0  0  0  0  0  0  0  0  0
   38.3130   24.8680   33.9040 C   0  0  0  0  0  0  0  0  0  0  0  0
   37.7670   23.7400   33.4220 N   0  0  0  0  0  0  0  0  0  0  0  0
   36.8900   23.7460   32.4350 C   0  0  0  0  0  0  0  0  0  0  0  0
   36.4910   24.9030   31.8560 N   0  0  0  0  0  0  0  0  0  0  0  0
   36.1330   22.2710   31.7620 S   0  0  0  0  0  0  0  0  0  0  0  0
   35.3440   19.0630   31.2820 N   0  0  0  0  0  0  0  0  0  0  0  0
   35.2870   18.9100   32.7290 C   0  0  0  0  0  0  0  0  0  0  0  0
   35.5980   20.2020   33.4600 C   0  0  0  0  0  0  0  0  0  0  0  0
   36.7270   20.8680   32.7440 C   0  0  0  0  0  0  0  0  0  0  0  0
   37.5340   19.9500   31.8670 C   0  0  0  0  0  0  0  0  0  0  0  0
   36.6680   19.3740   30.7970 C   0  0  0  0  0  0  0  0  0  0  0  0
   34.7482   28.4157   32.6636 H   0  0  0  0  0  0  0  0  0  0  0  0
   35.4538   30.0768   32.3956 H   0  0  0  0  0  0  0  0  0  0  0  0
   34.8726   28.6394   34.7935 H   0  0  0  0  0  0  0  0  0  0  0  0
   36.6378   29.2661   34.6143 H   0  0  0  0  0  0  0  0  0  0  0  0
   35.1802   31.2299   33.9117 H   0  0  0  0  0  0  0  0  0  0  0  0
   36.2916   30.5975   36.7374 H   0  0  0  0  0  0  0  0  0  0  0  0
   37.2149   31.3528   35.4843 H   0  0  0  0  0  0  0  0  0  0  0  0
   35.8904   33.0157   37.1176 H   0  0  0  0  0  0  0  0  0  0  0  0
   35.5913   33.3535   35.4409 H   0  0  0  0  0  0  0  0  0  0  0  0
   33.8577   31.8669   37.4701 H   0  0  0  0  0  0  0  0  0  0  0  0
   33.3125   32.8403   36.0904 H   0  0  0  0  0  0  0  0  0  0  0  0
   33.0659   30.9055   34.8770 H   0  0  0  0  0  0  0  0  0  0  0  0
   33.6733   29.9373   36.2147 H   0  0  0  0  0  0  0  0  0  0  0  0
   38.3539   27.0548   33.7008 H   0  0  0  0  0  0  0  0  0  0  0  0
   39.0431   24.8292   34.7258 H   0  0  0  0  0  0  0  0  0  0  0  0
   35.0339   18.1825   30.8468 H   0  0  0  0  0  0  0  0  0  0  0  0
   34.2759   18.5799   33.0097 H   0  0  0  0  0  0  0  0  0  0  0  0
   36.0476   18.1698   33.0181 H   0  0  0  0  0  0  0  0  0  0  0  0
   34.7140   20.8566   33.4566 H   0  0  0  0  0  0  0  0  0  0  0  0
   35.8720   19.9970   34.5054 H   0  0  0  0  0  0  0  0  0  0  0  0
   37.4018   21.2159   33.5400 H   0  0  0  0  0  0  0  0  0  0  0  0
   38.3556   20.5169   31.4048 H   0  0  0  0  0  0  0  0  0  0  0  0
   37.9427   19.1328   32.4794 H   0  0  0  0  0  0  0  0  0  0  0  0
   37.1343   18.4514   30.4209 H   0  0  0  0  0  0  0  0  0  0  0  0
   36.5700   20.1242   29.9985 H   0  0  0  0  0  0  0  0  0  0  0  0
  1  2  1  0
  2  3  1  0
  3  7  1  0
  3  4  1  0
  4  5  1  0
  5  6  1  0
  7  6  1  0
  8  1  1  0
  9 11  1  0
  9  8  1  0
 10  9  2  0
 11 12  2  0
 12 13  1  0
 14 13  2  0
 15 14  1  0
 16 11  1  0
 16 15  2  0
 17 15  1  0
 17 21  1  0
 18 19  1  0
 19 20  1  0
 21 20  1  0
 22 21  1  0
 23 18  1  0
 23 22  1  0
  1 24  1  0
  1 25  1  0
  2 26  1  0
  2 27  1  0
  3 28  1  0
  4 29  1  0
  4 30  1  0
  5 31  1  0
  5 32  1  0
  6 33  1  0
  6 34  1  0
  7 35  1  0
  7 36  1  0
 12 37  1  0
 13 38  1  0
 18 39  1  0
 19 40  1  0
 19 41  1  0
 20 42  1  0
 20 43  1  0
 21 44  1  0
 22 45  1  0
 22 46  1  0
 23 47  1  0
 23 48  1  0
M  ISO  8  24   8  25   8  26   8  27   8  28  13  29  13  30  13  31  13
M  ISO  8  32  13  33  13  34  13  35  13  36  13  37  14  38  14  39   5
M  ISO  8  40  13  41  13  42  13  43  13  44  13  45  13  46  13  47  13
M  ISO  1  48  13
M  END
>  <minimizedAffinity>  (1) 
-5.01429272

>  <minimizedRMSD>  (1) 
6.52788925

$$$$
