
     RDKit          3D

 22 22  0  0  0  0  0  0  0  0999 V2000
   40.9690   22.1230   36.4340 C   0  0  0  0  0  0  0  0  0  0  0  0
   40.2990   22.6480   37.5720 C   0  0  0  0  0  0  0  0  0  0  0  0
   38.9970   23.0950   37.3740 C   0  0  0  0  0  0  0  0  0  0  0  0
   38.4500   23.0080   36.1260 N   0  0  0  0  0  0  0  0  0  0  0  0
   39.1300   22.5000   35.0750 C   0  0  0  0  0  0  0  0  0  0  0  0
   40.3960   22.0580   35.2380 N   0  0  0  0  0  0  0  0  0  0  0  0
   38.3240   23.6330   38.5610 C   0  0  0  0  0  0  0  0  0  0  0  0
   37.8550   24.8910   38.3000 F   0  0  0  0  0  0  0  0  0  0  0  0
   39.3110   23.7800   39.5330 F   0  0  0  0  0  0  0  0  0  0  0  0
   37.2790   22.8490   38.9950 F   0  0  0  0  0  0  0  0  0  0  0  0
   38.4300   22.4550   33.7610 C   0  0  0  0  0  0  0  0  0  0  0  0
   37.1910   21.5950   33.7990 C   0  0  0  0  0  0  0  0  0  0  0  0
   38.0340   23.8650   33.3930 C   0  0  0  0  0  0  0  0  0  0  0  0
   42.0001   21.7571   36.5482 H   0  0  0  0  0  0  0  0  0  0  0  0
   40.7847   22.6982   38.5577 H   0  0  0  0  0  0  0  0  0  0  0  0
   39.1145   22.0155   33.0205 H   0  0  0  0  0  0  0  0  0  0  0  0
   36.9113   21.4009   34.8450 H   0  0  0  0  0  0  0  0  0  0  0  0
   36.3670   22.1164   33.2899 H   0  0  0  0  0  0  0  0  0  0  0  0
   37.3913   20.6407   33.2899 H   0  0  0  0  0  0  0  0  0  0  0  0
   37.8695   24.4507   34.3095 H   0  0  0  0  0  0  0  0  0  0  0  0
   38.8367   24.3286   32.8007 H   0  0  0  0  0  0  0  0  0  0  0  0
   37.1073   23.8429   32.8007 H   0  0  0  0  0  0  0  0  0  0  0  0
  1  2  2  0
  3  2  1  0
  3  7  1  0
  4  3  2  0
  5  6  2  0
  5  4  1  0
  6  1  1  0
  7 10  1  0
  7  9  1  0
  8  7  1  0
 11 12  1  0
 11  5  1  0
 13 11  1  0
  1 14  1  0
  2 15  1  0
 11 16  1  0
 12 17  1  0
 12 18  1  0
 12 19  1  0
 13 20  1  0
 13 21  1  0
 13 22  1  0
M  ISO  8  14  14  15  14  16   8  17   8  18   8  19   8  20   8  21   8
M  ISO  1  22   8
M  END
>  <minimizedAffinity>  (1) 
-4.1081357

>  <minimizedRMSD>  (1) 
0.287759811

$$$$
