
     RDKit          3D

 46 48  0  0  0  0  0  0  0  0999 V2000
   37.2000   26.0730   33.4710 C   0  0  0  0  0  0  0  0  0  0  0  0
   36.9150   27.5160   33.4560 C   0  0  0  0  0  0  0  0  0  0  0  0
   37.0950   28.2800   32.2000 C   0  0  0  0  0  0  0  0  0  0  0  0
   36.0960   29.3720   31.9910 C   0  0  0  0  0  0  0  0  0  0  0  0
   36.4690   29.8700   30.6240 C   0  0  0  0  0  0  0  0  0  0  0  0
   36.9480   28.6330   29.8790 C   0  0  0  0  0  0  0  0  0  0  0  0
   36.9940   27.5240   30.9170 C   0  0  0  0  0  0  0  0  0  0  0  0
   37.6680   25.6070   34.7430 O   0  0  0  0  0  0  0  0  0  0  0  0
   38.1960   24.2970   34.6890 C   0  0  0  0  0  0  0  0  0  0  0  0
   38.0610   23.5710   33.6780 O   0  0  0  0  0  0  0  0  0  0  0  0
   38.9160   23.7800   35.8420 C   0  0  0  0  0  0  0  0  0  0  0  0
   38.2390   23.6760   37.0570 C   0  0  0  0  0  0  0  0  0  0  0  0
   38.9340   23.1780   38.1650 C   0  0  0  0  0  0  0  0  0  0  0  0
   40.2290   22.8200   38.0070 N   0  0  0  0  0  0  0  0  0  0  0  0
   40.8400   22.9300   36.8430 C   0  0  0  0  0  0  0  0  0  0  0  0
   40.2200   23.4050   35.7400 N   0  0  0  0  0  0  0  0  0  0  0  0
   42.5640   22.4690   36.5710 S   0  0  0  0  0  0  0  0  0  0  0  0
   43.3960   23.9690   35.9840 C   0  0  0  0  0  0  0  0  0  0  0  0
   44.1480   24.6770   37.0630 C   0  0  0  0  0  0  0  0  0  0  0  0
   45.6090   24.3060   36.9220 C   0  0  0  0  0  0  0  0  0  0  0  0
   45.6120   23.1510   35.9360 C   0  0  0  0  0  0  0  0  0  0  0  0
   44.4790   23.5570   35.0200 C   0  0  0  0  0  0  0  0  0  0  0  0
   37.9700   25.8601   32.7149 H   0  0  0  0  0  0  0  0  0  0  0  0
   36.2568   25.5494   33.2559 H   0  0  0  0  0  0  0  0  0  0  0  0
   35.8642   27.6381   33.7575 H   0  0  0  0  0  0  0  0  0  0  0  0
   37.6773   27.9378   34.1275 H   0  0  0  0  0  0  0  0  0  0  0  0
   38.1221   28.6295   32.3813 H   0  0  0  0  0  0  0  0  0  0  0  0
   35.0673   28.9829   32.0089 H   0  0  0  0  0  0  0  0  0  0  0  0
   36.1151   30.1490   32.7694 H   0  0  0  0  0  0  0  0  0  0  0  0
   35.5964   30.3121   30.1209 H   0  0  0  0  0  0  0  0  0  0  0  0
   37.2378   30.6557   30.6631 H   0  0  0  0  0  0  0  0  0  0  0  0
   36.2464   28.3749   29.0720 H   0  0  0  0  0  0  0  0  0  0  0  0
   37.9305   28.7942   29.4113 H   0  0  0  0  0  0  0  0  0  0  0  0
   36.0790   26.9142   30.8868 H   0  0  0  0  0  0  0  0  0  0  0  0
   37.8203   26.8147   30.7619 H   0  0  0  0  0  0  0  0  0  0  0  0
   37.1847   23.9780   37.1423 H   0  0  0  0  0  0  0  0  0  0  0  0
   38.4385   23.0799   39.1422 H   0  0  0  0  0  0  0  0  0  0  0  0
   42.6100   24.6146   35.5652 H   0  0  0  0  0  0  0  0  0  0  0  0
   44.0250   25.7647   36.9542 H   0  0  0  0  0  0  0  0  0  0  0  0
   43.7691   24.3848   38.0535 H   0  0  0  0  0  0  0  0  0  0  0  0
   46.1898   25.1539   36.5300 H   0  0  0  0  0  0  0  0  0  0  0  0
   46.0680   24.0366   37.8847 H   0  0  0  0  0  0  0  0  0  0  0  0
   46.5667   23.0841   35.3938 H   0  0  0  0  0  0  0  0  0  0  0  0
   45.4923   22.1591   36.3963 H   0  0  0  0  0  0  0  0  0  0  0  0
   44.7742   24.3971   34.3742 H   0  0  0  0  0  0  0  0  0  0  0  0
   44.1673   22.7557   34.3339 H   0  0  0  0  0  0  0  0  0  0  0  0
  1  8  1  0
  2  1  1  0
  3  2  1  0
  4  3  1  0
  5  4  1  0
  6  5  1  0
  6  7  1  0
  7  3  1  0
  9  8  1  0
  9 11  1  0
 10  9  2  0
 11 12  2  0
 12 13  1  0
 14 13  2  0
 15 14  1  0
 16 11  1  0
 16 15  2  0
 17 15  1  0
 18 17  1  0
 18 19  1  0
 20 19  1  0
 21 20  1  0
 22 21  1  0
 22 18  1  0
  1 23  1  0
  1 24  1  0
  2 25  1  0
  2 26  1  0
  3 27  1  0
  4 28  1  0
  4 29  1  0
  5 30  1  0
  5 31  1  0
  6 32  1  0
  6 33  1  0
  7 34  1  0
  7 35  1  0
 12 36  1  0
 13 37  1  0
 18 38  1  0
 19 39  1  0
 19 40  1  0
 20 41  1  0
 20 42  1  0
 21 43  1  0
 21 44  1  0
 22 45  1  0
 22 46  1  0
M  ISO  8  23   8  24   8  25   8  26   8  27  13  28  13  29  13  30  13
M  ISO  8  31  13  32  13  33  13  34  13  35  13  36  14  37  14  38  13
M  ISO  8  39  13  40  13  41  13  42  13  43  13  44  13  45  13  46  13
M  END
>  <minimizedAffinity>  (1) 
-4.59634638

>  <minimizedRMSD>  (1) 
1.31365764

$$$$
