
     RDKit          3D

 19 19  0  0  0  0  0  0  0  0999 V2000
   41.1810   22.0890   36.6250 C   0  0  0  0  0  0  0  0  0  0  0  0
   40.4350   22.6540   37.6810 C   0  0  0  0  0  0  0  0  0  0  0  0
   39.1270   23.0490   37.3770 C   0  0  0  0  0  0  0  0  0  0  0  0
   38.6630   22.8720   36.1170 N   0  0  0  0  0  0  0  0  0  0  0  0
   39.4250   22.3200   35.1340 C   0  0  0  0  0  0  0  0  0  0  0  0
   40.6780   21.9330   35.3900 N   0  0  0  0  0  0  0  0  0  0  0  0
   38.3840   23.6310   38.5010 C   0  0  0  0  0  0  0  0  0  0  0  0
   37.9380   24.8850   38.1530 F   0  0  0  0  0  0  0  0  0  0  0  0
   39.2840   23.8050   39.5360 F   0  0  0  0  0  0  0  0  0  0  0  0
   37.2990   22.8890   38.8740 F   0  0  0  0  0  0  0  0  0  0  0  0
   38.7340   22.2090   33.8130 C   0  0  0  0  0  0  0  0  0  0  0  0
   37.3030   21.7440   33.9900 C   0  0  0  0  0  0  0  0  0  0  0  0
   42.2135   21.7641   36.8210 H   0  0  0  0  0  0  0  0  0  0  0  0
   40.8584   22.7774   38.6887 H   0  0  0  0  0  0  0  0  0  0  0  0
   39.2729   21.4851   33.1841 H   0  0  0  0  0  0  0  0  0  0  0  0
   38.7255   23.2001   33.3359 H   0  0  0  0  0  0  0  0  0  0  0  0
   37.0719   21.6689   35.0628 H   0  0  0  0  0  0  0  0  0  0  0  0
   36.6215   22.4669   33.5178 H   0  0  0  0  0  0  0  0  0  0  0  0
   37.1766   20.7586   33.5178 H   0  0  0  0  0  0  0  0  0  0  0  0
  1  2  2  0
  3  2  1  0
  3  7  1  0
  4  3  2  0
  5  6  2  0
  5  4  1  0
  6  1  1  0
  7 10  1  0
  7  9  1  0
  8  7  1  0
 11 12  1  0
 11  5  1  0
  1 13  1  0
  2 14  1  0
 11 15  1  0
 11 16  1  0
 12 17  1  0
 12 18  1  0
 12 19  1  0
M  ISO  7  13  14  14  14  15   8  16   8  17   8  18   8  19   8
M  END
>  <minimizedAffinity>  (1) 
-3.96722484

>  <minimizedRMSD>  (1) 
0.128673196

$$$$
