
     RDKit          3D

 43 45  0  0  0  0  0  0  0  0999 V2000
   37.5570   25.8090   34.6870 O   0  0  0  0  0  0  0  0  0  0  0  0
   37.0790   26.2520   33.4000 C   0  0  0  0  0  0  0  0  0  0  0  0
   36.8380   27.7010   33.3520 C   0  0  0  0  0  0  0  0  0  0  0  0
   37.0310   28.4180   32.0830 C   0  0  0  0  0  0  0  0  0  0  0  0
   36.0160   29.4990   31.8220 C   0  0  0  0  0  0  0  0  0  0  0  0
   36.4040   29.9630   30.4520 C   0  0  0  0  0  0  0  0  0  0  0  0
   37.0040   28.7550   29.7670 C   0  0  0  0  0  0  0  0  0  0  0  0
   36.9440   27.6400   30.7930 C   0  0  0  0  0  0  0  0  0  0  0  0
   38.0040   24.4710   34.6390 C   0  0  0  0  0  0  0  0  0  0  0  0
   37.8460   23.7340   33.6340 O   0  0  0  0  0  0  0  0  0  0  0  0
   38.6780   23.9070   35.7940 C   0  0  0  0  0  0  0  0  0  0  0  0
   37.9870   23.9200   37.0250 C   0  0  0  0  0  0  0  0  0  0  0  0
   38.6130   23.3810   38.1620 C   0  0  0  0  0  0  0  0  0  0  0  0
   39.8640   22.8720   38.0030 N   0  0  0  0  0  0  0  0  0  0  0  0
   40.4760   22.8780   36.8320 C   0  0  0  0  0  0  0  0  0  0  0  0
   39.9120   23.3840   35.7220 N   0  0  0  0  0  0  0  0  0  0  0  0
   42.1270   22.2100   36.6090 S   0  0  0  0  0  0  0  0  0  0  0  0
   42.2280   20.6980   37.6350 C   0  0  0  0  0  0  0  0  0  0  0  0
   43.0910   19.6970   36.9870 C   0  0  0  0  0  0  0  0  0  0  0  0
   44.1760   20.1570   36.2520 C   0  0  0  0  0  0  0  0  0  0  0  0
   44.8300   19.0290   35.7440 C   0  0  0  0  0  0  0  0  0  0  0  0
   44.1240   17.9810   36.1890 N   0  0  0  0  0  0  0  0  0  0  0  0
   43.0790   18.3530   36.9330 N   0  0  0  0  0  0  0  0  0  0  0  0
   37.8297   25.9948   32.6383 H   0  0  0  0  0  0  0  0  0  0  0  0
   36.1190   25.7493   33.2113 H   0  0  0  0  0  0  0  0  0  0  0  0
   35.7939   27.8635   33.6575 H   0  0  0  0  0  0  0  0  0  0  0  0
   37.6155   28.1177   34.0091 H   0  0  0  0  0  0  0  0  0  0  0  0
   38.0586   28.7577   32.2796 H   0  0  0  0  0  0  0  0  0  0  0  0
   34.9920   29.0974   31.8333 H   0  0  0  0  0  0  0  0  0  0  0  0
   36.0136   30.2982   32.5778 H   0  0  0  0  0  0  0  0  0  0  0  0
   35.5196   30.3164   29.9017 H   0  0  0  0  0  0  0  0  0  0  0  0
   37.1144   30.8019   30.4928 H   0  0  0  0  0  0  0  0  0  0  0  0
   36.4191   28.4886   28.8743 H   0  0  0  0  0  0  0  0  0  0  0  0
   38.0333   28.9453   29.4290 H   0  0  0  0  0  0  0  0  0  0  0  0
   35.9998   27.0798   30.7238 H   0  0  0  0  0  0  0  0  0  0  0  0
   37.7272   26.8768   30.6743 H   0  0  0  0  0  0  0  0  0  0  0  0
   36.9748   24.3452   37.0932 H   0  0  0  0  0  0  0  0  0  0  0  0
   38.1114   23.3712   39.1409 H   0  0  0  0  0  0  0  0  0  0  0  0
   42.6463   20.9548   38.6194 H   0  0  0  0  0  0  0  0  0  0  0  0
   41.2184   20.2774   37.7524 H   0  0  0  0  0  0  0  0  0  0  0  0
   44.4657   21.2070   36.0986 H   0  0  0  0  0  0  0  0  0  0  0  0
   45.7313   19.0074   35.1138 H   0  0  0  0  0  0  0  0  0  0  0  0
   44.3601   17.0002   35.9811 H   0  0  0  0  0  0  0  0  0  0  0  0
  2  1  1  0
  3  2  1  0
  4  3  1  0
  5  4  1  0
  6  5  1  0
  7  6  1  0
  7  8  1  0
  8  4  1  0
  9  1  1  0
  9 11  1  0
 10  9  2  0
 11 12  2  0
 12 13  1  0
 14 13  2  0
 15 14  1  0
 16 11  1  0
 16 15  2  0
 17 15  1  0
 17 18  1  0
 19 18  1  0
 20 19  1  0
 21 22  1  0
 21 20  2  0
 22 23  1  0
 23 19  2  0
  2 24  1  0
  2 25  1  0
  3 26  1  0
  3 27  1  0
  4 28  1  0
  5 29  1  0
  5 30  1  0
  6 31  1  0
  6 32  1  0
  7 33  1  0
  7 34  1  0
  8 35  1  0
  8 36  1  0
 12 37  1  0
 13 38  1  0
 18 39  1  0
 18 40  1  0
 20 41  1  0
 21 42  1  0
 22 43  1  0
M  ISO  8  24   8  25   8  26   8  27   8  28  13  29  13  30  13  31  13
M  ISO  8  32  13  33  13  34  13  35  13  36  13  37  14  38  14  39   8
M  ISO  4  40   8  41  14  42  14  43   9
M  END
>  <minimizedAffinity>  (1) 
-4.2806468

>  <minimizedRMSD>  (1) 
0.711044371

$$$$
