
     RDKit          3D

 43 45  0  0  0  0  0  0  0  0999 V2000
   37.5680   25.7640   34.7060 O   0  0  0  0  0  0  0  0  0  0  0  0
   37.1160   26.2110   33.4100 C   0  0  0  0  0  0  0  0  0  0  0  0
   36.8670   27.6430   33.3620 C   0  0  0  0  0  0  0  0  0  0  0  0
   37.0860   28.3780   32.0940 C   0  0  0  0  0  0  0  0  0  0  0  0
   36.0200   29.4180   31.8210 C   0  0  0  0  0  0  0  0  0  0  0  0
   36.4310   29.9120   30.4730 C   0  0  0  0  0  0  0  0  0  0  0  0
   36.9990   28.6860   29.7760 C   0  0  0  0  0  0  0  0  0  0  0  0
   37.0120   27.5850   30.8120 C   0  0  0  0  0  0  0  0  0  0  0  0
   38.0310   24.4350   34.6530 C   0  0  0  0  0  0  0  0  0  0  0  0
   37.8640   23.6960   33.6420 O   0  0  0  0  0  0  0  0  0  0  0  0
   38.7300   23.8810   35.8030 C   0  0  0  0  0  0  0  0  0  0  0  0
   38.0380   23.8060   37.0230 C   0  0  0  0  0  0  0  0  0  0  0  0
   38.6840   23.2770   38.1500 C   0  0  0  0  0  0  0  0  0  0  0  0
   39.9670   22.8620   37.9860 N   0  0  0  0  0  0  0  0  0  0  0  0
   40.5810   22.9460   36.8390 C   0  0  0  0  0  0  0  0  0  0  0  0
   40.0020   23.4460   35.7250 N   0  0  0  0  0  0  0  0  0  0  0  0
   42.2880   22.4040   36.5820 S   0  0  0  0  0  0  0  0  0  0  0  0
   42.3490   20.6740   37.1650 C   0  0  0  0  0  0  0  0  0  0  0  0
   43.6570   20.1550   36.8110 N   0  0  0  0  0  0  0  0  0  0  0  0
   44.2330   19.0470   37.2030 N   0  0  0  0  0  0  0  0  0  0  0  0
   45.4550   18.9030   36.6600 C   0  0  0  0  0  0  0  0  0  0  0  0
   45.7090   20.0070   35.8380 C   0  0  0  0  0  0  0  0  0  0  0  0
   44.5370   20.7430   35.9860 C   0  0  0  0  0  0  0  0  0  0  0  0
   37.8861   25.9632   32.6647 H   0  0  0  0  0  0  0  0  0  0  0  0
   36.1639   25.7024   33.1983 H   0  0  0  0  0  0  0  0  0  0  0  0
   35.8142   27.7946   33.6424 H   0  0  0  0  0  0  0  0  0  0  0  0
   37.6271   28.0610   34.0384 H   0  0  0  0  0  0  0  0  0  0  0  0
   38.1007   28.7548   32.2901 H   0  0  0  0  0  0  0  0  0  0  0  0
   35.0162   28.9688   31.7964 H   0  0  0  0  0  0  0  0  0  0  0  0
   35.9514   30.2044   32.5871 H   0  0  0  0  0  0  0  0  0  0  0  0
   35.5641   30.3059   29.9222 H   0  0  0  0  0  0  0  0  0  0  0  0
   37.1590   30.7344   30.5327 H   0  0  0  0  0  0  0  0  0  0  0  0
   36.3633   28.4018   28.9245 H   0  0  0  0  0  0  0  0  0  0  0  0
   38.0073   28.8787   29.3808 H   0  0  0  0  0  0  0  0  0  0  0  0
   36.0946   26.9797   30.7665 H   0  0  0  0  0  0  0  0  0  0  0  0
   37.8297   26.8602   30.6855 H   0  0  0  0  0  0  0  0  0  0  0  0
   36.9986   24.1590   37.0940 H   0  0  0  0  0  0  0  0  0  0  0  0
   38.1750   23.2016   39.1222 H   0  0  0  0  0  0  0  0  0  0  0  0
   42.2101   20.6374   38.2556 H   0  0  0  0  0  0  0  0  0  0  0  0
   41.5500   20.0750   36.7037 H   0  0  0  0  0  0  0  0  0  0  0  0
   46.1396   18.0595   36.8328 H   0  0  0  0  0  0  0  0  0  0  0  0
   46.6001   20.2333   35.2341 H   0  0  0  0  0  0  0  0  0  0  0  0
   44.3521   21.7028   35.4813 H   0  0  0  0  0  0  0  0  0  0  0  0
  2  1  1  0
  3  2  1  0
  4  3  1  0
  5  4  1  0
  6  5  1  0
  7  6  1  0
  7  8  1  0
  8  4  1  0
  9  1  1  0
  9 11  1  0
 10  9  2  0
 11 12  2  0
 12 13  1  0
 14 13  2  0
 15 14  1  0
 16 11  1  0
 16 15  2  0
 17 15  1  0
 17 18  1  0
 19 18  1  0
 19 20  1  0
 21 20  2  0
 22 23  2  0
 22 21  1  0
 23 19  1  0
  2 24  1  0
  2 25  1  0
  3 26  1  0
  3 27  1  0
  4 28  1  0
  5 29  1  0
  5 30  1  0
  6 31  1  0
  6 32  1  0
  7 33  1  0
  7 34  1  0
  8 35  1  0
  8 36  1  0
 12 37  1  0
 13 38  1  0
 18 39  1  0
 18 40  1  0
 21 41  1  0
 22 42  1  0
 23 43  1  0
M  ISO  8  24   8  25   8  26   8  27   8  28  13  29  13  30  13  31  13
M  ISO  8  32  13  33  13  34  13  35  13  36  13  37  14  38  14  39   8
M  ISO  4  40   8  41  14  42  14  43  14
M  END
>  <minimizedAffinity>  (1) 
-4.24803877

>  <minimizedRMSD>  (1) 
0.267000467

$$$$
