
     RDKit          3D

 15 15  0  0  0  0  0  0  0  0999 V2000
   41.1870   22.0840   36.6570 C   0  0  0  0  0  0  0  0  0  0  0  0
   40.4230   22.6500   37.6990 C   0  0  0  0  0  0  0  0  0  0  0  0
   39.1200   23.0560   37.3870 C   0  0  0  0  0  0  0  0  0  0  0  0
   38.6600   22.8930   36.1300 N   0  0  0  0  0  0  0  0  0  0  0  0
   39.4460   22.3380   35.1580 C   0  0  0  0  0  0  0  0  0  0  0  0
   40.6950   21.9390   35.4220 N   0  0  0  0  0  0  0  0  0  0  0  0
   38.7250   22.2790   33.9230 N   0  0  0  0  0  0  0  0  0  0  0  0
   38.3800   23.6340   38.5050 C   0  0  0  0  0  0  0  0  0  0  0  0
   37.9210   24.8780   38.1740 F   0  0  0  0  0  0  0  0  0  0  0  0
   39.2770   23.8050   39.5460 F   0  0  0  0  0  0  0  0  0  0  0  0
   37.3060   22.8600   38.8970 F   0  0  0  0  0  0  0  0  0  0  0  0
   42.2150   21.7530   36.8659 H   0  0  0  0  0  0  0  0  0  0  0  0
   40.8333   22.7673   38.7129 H   0  0  0  0  0  0  0  0  0  0  0  0
   37.7577   22.6296   33.8741 H   0  0  0  0  0  0  0  0  0  0  0  0
   39.1734   21.8860   33.0831 H   0  0  0  0  0  0  0  0  0  0  0  0
  1  2  2  0
  3  2  1  0
  3  8  1  0
  4  3  2  0
  5  6  2  0
  5  4  1  0
  6  1  1  0
  7  5  1  0
  8 11  1  0
  8 10  1  0
  9  8  1  0
  1 12  1  0
  2 13  1  0
  7 14  1  0
  7 15  1  0
M  ISO  2  12  14  13  14
M  END
>  <minimizedAffinity>  (1) 
-3.91741824

>  <minimizedRMSD>  (1) 
0.0379370302

$$$$
