
     RDKit          3D

 35 38  0  0  0  0  0  0  0  0999 V2000
   41.2250   24.4250   34.9010 C   0  0  0  0  0  0  0  0  0  0  0  0
   40.2870   23.6650   35.6310 C   0  0  0  0  0  0  0  0  0  0  0  0
   38.9140   23.8280   35.3100 C   0  0  0  0  0  0  0  0  0  0  0  0
   38.5990   24.7040   34.3230 N   0  0  0  0  0  0  0  0  0  0  0  0
   39.5140   25.4130   33.6450 C   0  0  0  0  0  0  0  0  0  0  0  0
   40.8190   25.2790   33.9270 N   0  0  0  0  0  0  0  0  0  0  0  0
   37.9220   23.0890   36.0130 N   0  0  0  0  0  0  0  0  0  0  0  0
   37.4630   23.2850   37.2720 C   0  0  0  0  0  0  0  0  0  0  0  0
   36.4980   22.4550   37.7610 C   0  0  0  0  0  0  0  0  0  0  0  0
   35.9880   21.4250   36.9950 C   0  0  0  0  0  0  0  0  0  0  0  0
   34.9840   20.5800   37.5420 N   0  0  0  0  0  0  0  0  0  0  0  0
   36.4360   21.2120   35.7320 N   0  0  0  0  0  0  0  0  0  0  0  0
   37.3930   22.0600   35.2870 C   0  0  0  0  0  0  0  0  0  0  0  0
   37.7650   21.7990   34.0930 O   0  0  0  0  0  0  0  0  0  0  0  0
   39.0950   26.3390   32.5920 C   0  0  0  0  0  0  0  0  0  0  0  0
   39.6930   26.4430   31.3520 C   0  0  0  0  0  0  0  0  0  0  0  0
   38.9950   27.4080   30.7060 N   0  0  0  0  0  0  0  0  0  0  0  0
   37.9940   27.9160   31.4670 C   0  0  0  0  0  0  0  0  0  0  0  0
   37.0590   28.8870   31.2180 C   0  0  0  0  0  0  0  0  0  0  0  0
   36.1330   29.2150   32.1950 C   0  0  0  0  0  0  0  0  0  0  0  0
   36.1690   28.5520   33.4100 C   0  0  0  0  0  0  0  0  0  0  0  0
   37.1170   27.5570   33.6810 C   0  0  0  0  0  0  0  0  0  0  0  0
   38.0450   27.2410   32.6780 C   0  0  0  0  0  0  0  0  0  0  0  0
   42.2975   24.3244   35.1236 H   0  0  0  0  0  0  0  0  0  0  0  0
   40.6084   22.9705   36.4212 H   0  0  0  0  0  0  0  0  0  0  0  0
   37.8628   24.1017   37.8910 H   0  0  0  0  0  0  0  0  0  0  0  0
   36.1194   22.6082   38.7824 H   0  0  0  0  0  0  0  0  0  0  0  0
   34.5970   19.8090   36.9792 H   0  0  0  0  0  0  0  0  0  0  0  0
   34.6436   20.7388   38.5011 H   0  0  0  0  0  0  0  0  0  0  0  0
   40.5497   25.8676   30.9713 H   0  0  0  0  0  0  0  0  0  0  0  0
   39.2011   27.7202   29.7463 H   0  0  0  0  0  0  0  0  0  0  0  0
   37.0440   29.4034   30.2469 H   0  0  0  0  0  0  0  0  0  0  0  0
   35.3782   29.9929   32.0076 H   0  0  0  0  0  0  0  0  0  0  0  0
   35.4326   28.8139   34.1840 H   0  0  0  0  0  0  0  0  0  0  0  0
   37.1331   27.0391   34.6513 H   0  0  0  0  0  0  0  0  0  0  0  0
  1  2  2  0
  3  2  1  0
  3  7  1  0
  4  3  2  0
  5  6  2  0
  5  4  1  0
  6  1  1  0
  7  8  1  0
  8  9  2  0
 10 11  1  0
 10  9  1  0
 12 10  2  0
 13 12  1  0
 13  7  1  0
 14 13  2  0
 15 23  1  0
 15  5  1  0
 16 15  2  0
 17 16  1  0
 17 18  1  0
 18 23  2  0
 19 18  1  0
 19 20  2  0
 20 21  1  0
 21 22  2  0
 23 22  1  0
  1 24  1  0
  2 25  1  0
  8 26  1  0
  9 27  1  0
 11 28  1  0
 11 29  1  0
 16 30  1  0
 17 31  1  0
 19 32  1  0
 20 33  1  0
 21 34  1  0
 22 35  1  0
M  ISO  8  24  14  25  14  26  14  27  14  30  14  31   9  32  14  33  14
M  ISO  2  34  14  35  14
M  END
>  <minimizedAffinity>  (1) 
-5.60599136

>  <minimizedRMSD>  (1) 
5.20007277

$$$$
