
     RDKit          3D

 31 34  0  0  0  0  0  0  0  0999 V2000
   38.5910   22.9200   35.5510 C   0  0  0  0  0  0  0  0  0  0  0  0
   38.0020   23.1440   36.8000 C   0  0  0  0  0  0  0  0  0  0  0  0
   38.9320   22.7880   37.6980 N   0  0  0  0  0  0  0  0  0  0  0  0
   40.0690   22.3540   37.1190 C   0  0  0  0  0  0  0  0  0  0  0  0
   41.2710   21.8940   37.6200 C   0  0  0  0  0  0  0  0  0  0  0  0
   42.2860   21.5070   36.7800 C   0  0  0  0  0  0  0  0  0  0  0  0
   42.0840   21.5860   35.4110 C   0  0  0  0  0  0  0  0  0  0  0  0
   40.8790   22.0470   34.8660 C   0  0  0  0  0  0  0  0  0  0  0  0
   39.8610   22.4340   35.7430 C   0  0  0  0  0  0  0  0  0  0  0  0
   36.8500   22.4140   32.3650 C   0  0  0  0  0  0  0  0  0  0  0  0
   36.6820   23.7190   31.8900 C   0  0  0  0  0  0  0  0  0  0  0  0
   37.1730   24.7660   32.6800 C   0  0  0  0  0  0  0  0  0  0  0  0
   37.7790   24.4490   33.8510 N   0  0  0  0  0  0  0  0  0  0  0  0
   37.9260   23.1750   34.2790 C   0  0  0  0  0  0  0  0  0  0  0  0
   37.4660   22.1530   33.5460 N   0  0  0  0  0  0  0  0  0  0  0  0
   37.0310   26.1160   32.2510 N   0  0  0  0  0  0  0  0  0  0  0  0
   36.5660   26.4930   31.0900 N   0  0  0  0  0  0  0  0  0  0  0  0
   36.5550   27.8440   30.9810 C   0  0  0  0  0  0  0  0  0  0  0  0
   37.0650   28.2680   32.1990 C   0  0  0  0  0  0  0  0  0  0  0  0
   37.3680   27.1760   33.0060 C   0  0  0  0  0  0  0  0  0  0  0  0
   36.9919   23.5297   37.0022 H   0  0  0  0  0  0  0  0  0  0  0  0
   38.7929   22.8404   38.7172 H   0  0  0  0  0  0  0  0  0  0  0  0
   41.4175   21.8368   38.7087 H   0  0  0  0  0  0  0  0  0  0  0  0
   43.2409   21.1414   37.1857 H   0  0  0  0  0  0  0  0  0  0  0  0
   42.8935   21.2777   34.7330 H   0  0  0  0  0  0  0  0  0  0  0  0
   40.7371   22.1032   33.7766 H   0  0  0  0  0  0  0  0  0  0  0  0
   36.4716   21.5743   31.7635 H   0  0  0  0  0  0  0  0  0  0  0  0
   36.1820   23.9158   30.9302 H   0  0  0  0  0  0  0  0  0  0  0  0
   36.2216   28.4570   30.1306 H   0  0  0  0  0  0  0  0  0  0  0  0
   37.2096   29.3199   32.4866 H   0  0  0  0  0  0  0  0  0  0  0  0
   37.7856   27.1792   34.0237 H   0  0  0  0  0  0  0  0  0  0  0  0
  1  9  1  0
  1  2  2  0
  2  3  1  0
  4  5  2  0
  4  3  1  0
  6  5  1  0
  7  6  2  0
  8  7  1  0
  8  9  2  0
  9  4  1  0
 10 15  2  0
 11 10  1  0
 11 12  2  0
 12 13  1  0
 13 14  2  0
 14  1  1  0
 15 14  1  0
 16 12  1  0
 16 20  1  0
 17 16  1  0
 18 17  2  0
 18 19  1  0
 19 20  2  0
  2 21  1  0
  3 22  1  0
  5 23  1  0
  6 24  1  0
  7 25  1  0
  8 26  1  0
 10 27  1  0
 11 28  1  0
 18 29  1  0
 19 30  1  0
 20 31  1  0
M  ISO  8  21  14  22   9  23  14  24  14  25  14  26  14  27  14  28  14
M  ISO  3  29  14  30  14  31  14
M  END
>  <minimizedAffinity>  (1) 
-5.38936043

>  <minimizedRMSD>  (1) 
6.23324251

$$$$
