
     RDKit          3D

 32 35  0  0  0  0  0  0  0  0999 V2000
   36.2540   20.5980   32.3650 C   0  0  0  0  0  0  0  0  0  0  0  0
   34.8760   20.3790   32.2700 C   0  0  0  0  0  0  0  0  0  0  0  0
   34.7520   19.1040   31.8540 N   0  0  0  0  0  0  0  0  0  0  0  0
   35.9430   18.5020   31.6790 C   0  0  0  0  0  0  0  0  0  0  0  0
   36.2950   17.2330   31.2730 C   0  0  0  0  0  0  0  0  0  0  0  0
   37.6300   16.8720   31.1800 C   0  0  0  0  0  0  0  0  0  0  0  0
   38.5910   17.8060   31.5000 C   0  0  0  0  0  0  0  0  0  0  0  0
   38.2600   19.0990   31.9150 C   0  0  0  0  0  0  0  0  0  0  0  0
   36.9160   19.4410   32.0020 C   0  0  0  0  0  0  0  0  0  0  0  0
   37.5140   24.0390   32.3140 C   0  0  0  0  0  0  0  0  0  0  0  0
   37.9990   24.2080   33.6250 C   0  0  0  0  0  0  0  0  0  0  0  0
   37.8830   23.1300   34.5100 C   0  0  0  0  0  0  0  0  0  0  0  0
   37.3110   21.9950   34.0390 N   0  0  0  0  0  0  0  0  0  0  0  0
   36.8530   21.8510   32.7830 C   0  0  0  0  0  0  0  0  0  0  0  0
   36.9590   22.8760   31.9300 N   0  0  0  0  0  0  0  0  0  0  0  0
   38.3360   23.1530   35.8890 C   0  0  0  0  0  0  0  0  0  0  0  0
   39.5350   22.6450   36.3010 C   0  0  0  0  0  0  0  0  0  0  0  0
   40.0130   22.6420   37.6000 C   0  0  0  0  0  0  0  0  0  0  0  0
   39.1920   23.2050   38.5350 N   0  0  0  0  0  0  0  0  0  0  0  0
   37.9910   23.7200   38.1490 C   0  0  0  0  0  0  0  0  0  0  0  0
   37.5840   23.6910   36.8670 N   0  0  0  0  0  0  0  0  0  0  0  0
   34.0684   21.0933   32.4878 H   0  0  0  0  0  0  0  0  0  0  0  0
   33.8468   18.6413   31.6883 H   0  0  0  0  0  0  0  0  0  0  0  0
   35.5121   16.5024   31.0213 H   0  0  0  0  0  0  0  0  0  0  0  0
   37.9165   15.8602   30.8572 H   0  0  0  0  0  0  0  0  0  0  0  0
   39.6520   17.5253   31.4266 H   0  0  0  0  0  0  0  0  0  0  0  0
   39.0443   19.8281   32.1666 H   0  0  0  0  0  0  0  0  0  0  0  0
   37.5900   24.8683   31.5953 H   0  0  0  0  0  0  0  0  0  0  0  0
   38.4546   25.1572   33.9435 H   0  0  0  0  0  0  0  0  0  0  0  0
   40.1796   22.1974   35.5302 H   0  0  0  0  0  0  0  0  0  0  0  0
   40.9915   22.2136   37.8625 H   0  0  0  0  0  0  0  0  0  0  0  0
   37.3353   24.1725   38.9075 H   0  0  0  0  0  0  0  0  0  0  0  0
  1 14  1  0
  2  1  2  0
  3  2  1  0
  4  3  1  0
  4  9  2  0
  5  4  1  0
  6  5  2  0
  6  7  1  0
  7  8  2  0
  8  9  1  0
  9  1  1  0
 10 11  2  0
 11 12  1  0
 12 16  1  0
 13 12  2  0
 14 13  1  0
 15 10  1  0
 15 14  2  0
 16 17  2  0
 16 21  1  0
 17 18  1  0
 18 19  2  0
 20 19  1  0
 21 20  2  0
  2 22  1  0
  3 23  1  0
  5 24  1  0
  6 25  1  0
  7 26  1  0
  8 27  1  0
 10 28  1  0
 11 29  1  0
 17 30  1  0
 18 31  1  0
 20 32  1  0
M  ISO  8  22  14  23   9  24  14  25  14  26  14  27  14  28  14  29  14
M  ISO  3  30  14  31  14  32  14
M  END
>  <minimizedAffinity>  (1) 
-5.25923252

>  <minimizedRMSD>  (1) 
4.43658495

$$$$
