
     RDKit          3D

 36 39  0  0  0  0  0  0  0  0999 V2000
   38.9330   22.3320   34.6820 C   0  0  0  0  0  0  0  0  0  0  0  0
   40.3020   22.2810   34.5030 C   0  0  0  0  0  0  0  0  0  0  0  0
   40.8300   22.6120   35.6980 N   0  0  0  0  0  0  0  0  0  0  0  0
   39.8960   22.8690   36.6220 C   0  0  0  0  0  0  0  0  0  0  0  0
   39.9500   23.2380   37.9580 C   0  0  0  0  0  0  0  0  0  0  0  0
   38.7990   23.4410   38.6820 C   0  0  0  0  0  0  0  0  0  0  0  0
   37.5790   23.2700   38.0610 C   0  0  0  0  0  0  0  0  0  0  0  0
   37.4800   22.8980   36.7190 C   0  0  0  0  0  0  0  0  0  0  0  0
   38.6530   22.6950   35.9910 C   0  0  0  0  0  0  0  0  0  0  0  0
   36.4210   22.7770   32.0420 C   0  0  0  0  0  0  0  0  0  0  0  0
   36.0850   21.4630   31.6940 C   0  0  0  0  0  0  0  0  0  0  0  0
   36.7340   20.4260   32.3820 C   0  0  0  0  0  0  0  0  0  0  0  0
   37.6530   20.7690   33.3450 N   0  0  0  0  0  0  0  0  0  0  0  0
   37.9440   22.0450   33.6440 C   0  0  0  0  0  0  0  0  0  0  0  0
   37.3330   23.0330   32.9990 N   0  0  0  0  0  0  0  0  0  0  0  0
   36.5310   19.0370   32.1760 N   0  0  0  0  0  0  0  0  0  0  0  0
   37.4750   17.9900   31.7660 C   0  0  0  0  0  0  0  0  0  0  0  0
   36.5090   17.1110   30.9590 C   0  0  0  0  0  0  0  0  0  0  0  0
   35.4140   16.9580   32.0240 C   0  0  0  0  0  0  0  0  0  0  0  0
   35.2090   18.4280   32.3700 C   0  0  0  0  0  0  0  0  0  0  0  0
   40.8453   22.0248   33.5815 H   0  0  0  0  0  0  0  0  0  0  0  0
   41.8425   22.6618   35.8806 H   0  0  0  0  0  0  0  0  0  0  0  0
   40.9274   23.3701   38.4450 H   0  0  0  0  0  0  0  0  0  0  0  0
   38.8501   23.7354   39.7406 H   0  0  0  0  0  0  0  0  0  0  0  0
   36.6577   23.4314   38.6399 H   0  0  0  0  0  0  0  0  0  0  0  0
   36.4962   22.7674   36.2446 H   0  0  0  0  0  0  0  0  0  0  0  0
   35.9312   23.6150   31.5244 H   0  0  0  0  0  0  0  0  0  0  0  0
   35.3412   21.2516   30.9117 H   0  0  0  0  0  0  0  0  0  0  0  0
   38.2902   18.3882   31.1439 H   0  0  0  0  0  0  0  0  0  0  0  0
   38.0097   17.4840   32.5834 H   0  0  0  0  0  0  0  0  0  0  0  0
   36.1419   17.6180   30.0545 H   0  0  0  0  0  0  0  0  0  0  0  0
   36.9278   16.1750   30.5610 H   0  0  0  0  0  0  0  0  0  0  0  0
   34.5017   16.4998   31.6144 H   0  0  0  0  0  0  0  0  0  0  0  0
   35.6671   16.3039   32.8714 H   0  0  0  0  0  0  0  0  0  0  0  0
   34.8783   18.5398   33.4131 H   0  0  0  0  0  0  0  0  0  0  0  0
   34.4344   18.9008   31.7484 H   0  0  0  0  0  0  0  0  0  0  0  0
  1  9  1  0
  2  1  2  0
  2  3  1  0
  3  4  1  0
  4  5  2  0
  5  6  1  0
  7  6  2  0
  8  7  1  0
  9  4  1  0
  9  8  2  0
 10 15  2  0
 11 10  1  0
 11 12  2  0
 12 13  1  0
 13 14  2  0
 14  1  1  0
 15 14  1  0
 16 20  1  0
 16 12  1  0
 17 16  1  0
 18 17  1  0
 18 19  1  0
 19 20  1  0
  2 21  1  0
  3 22  1  0
  5 23  1  0
  6 24  1  0
  7 25  1  0
  8 26  1  0
 10 27  1  0
 11 28  1  0
 17 29  1  0
 17 30  1  0
 18 31  1  0
 18 32  1  0
 19 33  1  0
 19 34  1  0
 20 35  1  0
 20 36  1  0
M  ISO  8  21  14  22   9  23  14  24  14  25  14  26  14  27  14  28  14
M  ISO  8  29  13  30  13  31  13  32  13  33  13  34  13  35  13  36  13
M  END
>  <minimizedAffinity>  (1) 
-4.96286345

>  <minimizedRMSD>  (1) 
7.02259398

$$$$
