
     RDKit          3D

 27 29  0  0  0  0  0  0  0  0999 V2000
   37.8540   22.9050   33.9420 C   0  0  0  0  0  0  0  0  0  0  0  0
   38.1080   23.8770   32.9760 C   0  0  0  0  0  0  0  0  0  0  0  0
   37.3030   23.5660   31.9390 N   0  0  0  0  0  0  0  0  0  0  0  0
   36.5670   22.4750   32.1830 C   0  0  0  0  0  0  0  0  0  0  0  0
   35.6280   21.7980   31.4390 C   0  0  0  0  0  0  0  0  0  0  0  0
   35.0050   20.6670   31.9520 C   0  0  0  0  0  0  0  0  0  0  0  0
   35.3390   20.2390   33.2110 C   0  0  0  0  0  0  0  0  0  0  0  0
   36.2900   20.9040   33.9950 C   0  0  0  0  0  0  0  0  0  0  0  0
   36.9070   22.0400   33.4620 C   0  0  0  0  0  0  0  0  0  0  0  0
   40.2390   22.1080   36.6200 C   0  0  0  0  0  0  0  0  0  0  0  0
   39.7180   22.8200   37.7180 C   0  0  0  0  0  0  0  0  0  0  0  0
   38.5360   23.5740   37.5200 C   0  0  0  0  0  0  0  0  0  0  0  0
   37.9850   23.5570   36.2720 N   0  0  0  0  0  0  0  0  0  0  0  0
   38.5130   22.8610   35.2340 C   0  0  0  0  0  0  0  0  0  0  0  0
   39.6210   22.1520   35.4140 N   0  0  0  0  0  0  0  0  0  0  0  0
   37.9290   24.3460   38.6230 C   0  0  0  0  0  0  0  0  0  0  0  0
   38.8139   24.7179   33.0445 H   0  0  0  0  0  0  0  0  0  0  0  0
   37.2598   24.1049   31.0623 H   0  0  0  0  0  0  0  0  0  0  0  0
   35.3688   22.1547   30.4312 H   0  0  0  0  0  0  0  0  0  0  0  0
   34.2558   20.1236   31.3575 H   0  0  0  0  0  0  0  0  0  0  0  0
   34.8443   19.3449   33.6182 H   0  0  0  0  0  0  0  0  0  0  0  0
   36.5446   20.5427   35.0023 H   0  0  0  0  0  0  0  0  0  0  0  0
   41.1550   21.5112   36.7420 H   0  0  0  0  0  0  0  0  0  0  0  0
   40.2142   22.7912   38.6993 H   0  0  0  0  0  0  0  0  0  0  0  0
   38.2571   23.9288   39.5865 H   0  0  0  0  0  0  0  0  0  0  0  0
   38.2450   25.3973   38.5520 H   0  0  0  0  0  0  0  0  0  0  0  0
   36.8329   24.2870   38.5520 H   0  0  0  0  0  0  0  0  0  0  0  0
  1 14  1  0
  2  1  2  0
  3  4  1  0
  3  2  1  0
  4  9  2  0
  5  6  2  0
  5  4  1  0
  6  7  1  0
  7  8  2  0
  9  1  1  0
  9  8  1  0
 10 11  2  0
 12 11  1  0
 12 16  1  0
 13 12  2  0
 14 15  2  0
 14 13  1  0
 15 10  1  0
  2 17  1  0
  3 18  1  0
  5 19  1  0
  6 20  1  0
  7 21  1  0
  8 22  1  0
 10 23  1  0
 11 24  1  0
 16 25  1  0
 16 26  1  0
 16 27  1  0
M  ISO  8  17  14  18   9  19  14  20  14  21  14  22  14  23  14  24  14
M  ISO  3  25   8  26   8  27   8
M  END
>  <minimizedAffinity>  (1) 
-5.06517935

>  <minimizedRMSD>  (1) 
0.756555498

$$$$
