
     RDKit          3D

 14 14  0  0  0  0  0  0  0  0999 V2000
   41.2020   22.0940   36.6280 C   0  0  0  0  0  0  0  0  0  0  0  0
   40.4390   22.6480   37.6980 C   0  0  0  0  0  0  0  0  0  0  0  0
   39.1260   23.0270   37.3840 C   0  0  0  0  0  0  0  0  0  0  0  0
   38.6840   22.8480   36.1240 N   0  0  0  0  0  0  0  0  0  0  0  0
   39.4400   22.3190   35.1350 C   0  0  0  0  0  0  0  0  0  0  0  0
   40.7060   21.9440   35.4060 N   0  0  0  0  0  0  0  0  0  0  0  0
   38.3670   23.5920   38.4990 C   0  0  0  0  0  0  0  0  0  0  0  0
   37.9110   24.8390   38.1490 F   0  0  0  0  0  0  0  0  0  0  0  0
   39.2770   23.8140   39.5300 F   0  0  0  0  0  0  0  0  0  0  0  0
   37.3000   22.8380   38.8830 F   0  0  0  0  0  0  0  0  0  0  0  0
   38.7250   22.1370   33.5060 S   0  0  0  0  0  0  0  0  0  0  0  0
   42.2381   21.7799   36.8223 H   0  0  0  0  0  0  0  0  0  0  0  0
   40.8554   22.7706   38.7087 H   0  0  0  0  0  0  0  0  0  0  0  0
   37.4022   21.8003   33.6229 H   0  0  0  0  0  0  0  0  0  0  0  0
  1  2  2  0
  3  2  1  0
  3  7  1  0
  4  3  2  0
  5  6  2  0
  5  4  1  0
  6  1  1  0
  7 10  1  0
  7  9  1  0
  8  7  1  0
 11  5  1  0
  1 12  1  0
  2 13  1  0
 11 14  1  0
M  ISO  3  12  14  13  14  14  11
M  END
>  <minimizedAffinity>  (1) 
-3.91220903

>  <minimizedRMSD>  (1) 
0.0518871769

$$$$
