
     RDKit          3D

 30 32  0  0  0  0  0  0  0  0999 V2000
   38.1840   22.8600   33.9140 C   0  0  0  0  0  0  0  0  0  0  0  0
   38.3970   23.8470   32.9590 C   0  0  0  0  0  0  0  0  0  0  0  0
   37.4580   23.6440   32.0130 N   0  0  0  0  0  0  0  0  0  0  0  0
   36.6600   22.5890   32.3060 C   0  0  0  0  0  0  0  0  0  0  0  0
   35.5880   22.0060   31.6610 C   0  0  0  0  0  0  0  0  0  0  0  0
   34.9480   20.9170   32.1960 C   0  0  0  0  0  0  0  0  0  0  0  0
   35.3930   20.4140   33.3890 C   0  0  0  0  0  0  0  0  0  0  0  0
   36.4720   20.9670   34.0800 C   0  0  0  0  0  0  0  0  0  0  0  0
   37.1110   22.0710   33.5250 C   0  0  0  0  0  0  0  0  0  0  0  0
   40.9150   21.9780   36.1990 C   0  0  0  0  0  0  0  0  0  0  0  0
   40.4380   22.4350   37.4530 C   0  0  0  0  0  0  0  0  0  0  0  0
   39.1760   23.0400   37.4670 C   0  0  0  0  0  0  0  0  0  0  0  0
   38.4740   23.1610   36.2990 N   0  0  0  0  0  0  0  0  0  0  0  0
   38.9730   22.7050   35.1170 C   0  0  0  0  0  0  0  0  0  0  0  0
   40.1690   22.1280   35.0820 N   0  0  0  0  0  0  0  0  0  0  0  0
   38.6930   23.5100   38.7670 C   0  0  0  0  0  0  0  0  0  0  0  0
   37.8650   24.7480   38.6970 C   0  0  0  0  0  0  0  0  0  0  0  0
   39.1697   24.6298   32.9722 H   0  0  0  0  0  0  0  0  0  0  0  0
   37.3589   24.2230   31.1669 H   0  0  0  0  0  0  0  0  0  0  0  0
   35.2415   22.4211   30.7031 H   0  0  0  0  0  0  0  0  0  0  0  0
   34.0943   20.4571   31.6768 H   0  0  0  0  0  0  0  0  0  0  0  0
   34.8806   19.5408   33.8192 H   0  0  0  0  0  0  0  0  0  0  0  0
   36.8080   20.5416   35.0372 H   0  0  0  0  0  0  0  0  0  0  0  0
   41.9019   21.4966   36.1342 H   0  0  0  0  0  0  0  0  0  0  0  0
   41.0316   22.3196   38.3718 H   0  0  0  0  0  0  0  0  0  0  0  0
   38.0846   22.7125   39.2185 H   0  0  0  0  0  0  0  0  0  0  0  0
   39.5822   23.7563   39.3658 H   0  0  0  0  0  0  0  0  0  0  0  0
   37.6343   25.0929   39.7157 H   0  0  0  0  0  0  0  0  0  0  0  0
   38.4215   25.5315   38.1618 H   0  0  0  0  0  0  0  0  0  0  0  0
   36.9284   24.5329   38.1618 H   0  0  0  0  0  0  0  0  0  0  0  0
  1 14  1  0
  2  1  2  0
  3  4  1  0
  3  2  1  0
  4  9  2  0
  5  6  2  0
  5  4  1  0
  6  7  1  0
  7  8  2  0
  9  1  1  0
  9  8  1  0
 10 11  2  0
 11 12  1  0
 12 16  1  0
 13 12  2  0
 14 13  1  0
 15 14  2  0
 15 10  1  0
 17 16  1  0
  2 18  1  0
  3 19  1  0
  5 20  1  0
  6 21  1  0
  7 22  1  0
  8 23  1  0
 10 24  1  0
 11 25  1  0
 16 26  1  0
 16 27  1  0
 17 28  1  0
 17 29  1  0
 17 30  1  0
M  ISO  8  18  14  19   9  20  14  21  14  22  14  23  14  24  14  25  14
M  ISO  5  26   8  27   8  28   8  29   8  30   8
M  END
>  <minimizedAffinity>  (1) 
-5.05557728

>  <minimizedRMSD>  (1) 
1.19641852

$$$$
