
     RDKit          3D

 34 37  0  0  0  0  0  0  0  0999 V2000
   41.7840   21.7540   34.3200 C   0  0  0  0  0  0  0  0  0  0  0  0
   41.3870   22.9900   34.8910 C   0  0  0  0  0  0  0  0  0  0  0  0
   40.1310   23.4950   34.5470 C   0  0  0  0  0  0  0  0  0  0  0  0
   39.3540   22.7790   33.6880 N   0  0  0  0  0  0  0  0  0  0  0  0
   39.7700   21.5930   33.1600 C   0  0  0  0  0  0  0  0  0  0  0  0
   40.9780   21.0830   33.4740 N   0  0  0  0  0  0  0  0  0  0  0  0
   38.8930   20.8820   32.2490 C   0  0  0  0  0  0  0  0  0  0  0  0
   39.3140   20.3100   31.0460 C   0  0  0  0  0  0  0  0  0  0  0  0
   38.2040   19.7520   30.5130 N   0  0  0  0  0  0  0  0  0  0  0  0
   37.1220   19.9280   31.2830 C   0  0  0  0  0  0  0  0  0  0  0  0
   35.8090   19.5450   31.1500 C   0  0  0  0  0  0  0  0  0  0  0  0
   34.8840   19.8670   32.1180 C   0  0  0  0  0  0  0  0  0  0  0  0
   35.2980   20.5850   33.2320 C   0  0  0  0  0  0  0  0  0  0  0  0
   36.6270   20.9880   33.3960 C   0  0  0  0  0  0  0  0  0  0  0  0
   37.5450   20.6490   32.4000 C   0  0  0  0  0  0  0  0  0  0  0  0
   39.5870   24.7470   35.0520 C   0  0  0  0  0  0  0  0  0  0  0  0
   40.1030   25.9160   34.5470 C   0  0  0  0  0  0  0  0  0  0  0  0
   39.6090   27.1430   35.0030 C   0  0  0  0  0  0  0  0  0  0  0  0
   38.5970   27.1910   35.9670 C   0  0  0  0  0  0  0  0  0  0  0  0
   38.0760   26.0040   36.4760 C   0  0  0  0  0  0  0  0  0  0  0  0
   38.5920   24.8160   35.9990 C   0  0  0  0  0  0  0  0  0  0  0  0
   42.7692   21.3349   34.5727 H   0  0  0  0  0  0  0  0  0  0  0  0
   42.0472   23.5337   35.5828 H   0  0  0  0  0  0  0  0  0  0  0  0
   40.3296   20.3130   30.6236 H   0  0  0  0  0  0  0  0  0  0  0  0
   38.1916   19.2477   29.6150 H   0  0  0  0  0  0  0  0  0  0  0  0
   35.4941   18.9763   30.2626 H   0  0  0  0  0  0  0  0  0  0  0  0
   33.8332   19.5601   32.0103 H   0  0  0  0  0  0  0  0  0  0  0  0
   34.5608   20.8438   34.0063 H   0  0  0  0  0  0  0  0  0  0  0  0
   36.9403   21.5559   34.2844 H   0  0  0  0  0  0  0  0  0  0  0  0
   40.8995   25.8874   33.7889 H   0  0  0  0  0  0  0  0  0  0  0  0
   40.0209   28.0796   34.5991 H   0  0  0  0  0  0  0  0  0  0  0  0
   38.2150   28.1599   36.3209 H   0  0  0  0  0  0  0  0  0  0  0  0
   37.2788   26.0129   37.2339 H   0  0  0  0  0  0  0  0  0  0  0  0
   38.1859   23.8745   36.3974 H   0  0  0  0  0  0  0  0  0  0  0  0
  1  2  2  0
  3  2  1  0
  3 16  1  0
  4  3  2  0
  5  6  2  0
  5  4  1  0
  6  1  1  0
  7 15  1  0
  7  5  1  0
  8  7  2  0
  9  8  1  0
  9 10  1  0
 10 15  2  0
 11 10  1  0
 11 12  2  0
 12 13  1  0
 13 14  2  0
 15 14  1  0
 16 21  2  0
 17 18  2  0
 17 16  1  0
 18 19  1  0
 19 20  2  0
 21 20  1  0
  1 22  1  0
  2 23  1  0
  8 24  1  0
  9 25  1  0
 11 26  1  0
 12 27  1  0
 13 28  1  0
 14 29  1  0
 17 30  1  0
 18 31  1  0
 19 32  1  0
 20 33  1  0
 21 34  1  0
M  ISO  8  22  14  23  14  24  14  25   9  26  14  27  14  28  14  29  14
M  ISO  5  30  14  31  14  32  14  33  14  34  14
M  END
>  <minimizedAffinity>  (1) 
-4.95884609

>  <minimizedRMSD>  (1) 
3.91210699

$$$$
