
     RDKit          3D

 29 32  0  0  0  0  0  0  0  0999 V2000
   38.7950   23.3750   35.1040 C   0  0  0  0  0  0  0  0  0  0  0  0
   38.1650   22.4650   35.9590 C   0  0  0  0  0  0  0  0  0  0  0  0
   39.1420   22.0450   36.7850 N   0  0  0  0  0  0  0  0  0  0  0  0
   40.3210   22.6120   36.5190 C   0  0  0  0  0  0  0  0  0  0  0  0
   41.5790   22.4890   37.0920 C   0  0  0  0  0  0  0  0  0  0  0  0
   42.6530   23.2190   36.6000 C   0  0  0  0  0  0  0  0  0  0  0  0
   42.4460   24.0610   35.5390 C   0  0  0  0  0  0  0  0  0  0  0  0
   41.1950   24.2190   34.9280 C   0  0  0  0  0  0  0  0  0  0  0  0
   40.1340   23.4800   35.4370 C   0  0  0  0  0  0  0  0  0  0  0  0
   37.2680   24.1790   31.8680 C   0  0  0  0  0  0  0  0  0  0  0  0
   36.8050   25.4970   32.0460 C   0  0  0  0  0  0  0  0  0  0  0  0
   37.0360   26.0830   33.2990 C   0  0  0  0  0  0  0  0  0  0  0  0
   37.6860   25.3610   34.2670 N   0  0  0  0  0  0  0  0  0  0  0  0
   38.1090   24.0890   34.0310 C   0  0  0  0  0  0  0  0  0  0  0  0
   37.9030   23.5110   32.8540 N   0  0  0  0  0  0  0  0  0  0  0  0
   36.6060   27.4420   33.6080 C   0  0  0  0  0  0  0  0  0  0  0  0
   36.5680   28.2640   34.6690 N   0  0  0  0  0  0  0  0  0  0  0  0
   36.0530   29.4040   34.3200 O   0  0  0  0  0  0  0  0  0  0  0  0
   35.7370   29.3860   33.0480 C   0  0  0  0  0  0  0  0  0  0  0  0
   36.0810   28.1640   32.5990 N   0  0  0  0  0  0  0  0  0  0  0  0
   37.1080   22.1605   35.9571 H   0  0  0  0  0  0  0  0  0  0  0  0
   38.9955   21.3603   37.5404 H   0  0  0  0  0  0  0  0  0  0  0  0
   41.7266   21.8077   37.9429 H   0  0  0  0  0  0  0  0  0  0  0  0
   43.6507   23.1232   37.0533 H   0  0  0  0  0  0  0  0  0  0  0  0
   43.2984   24.6375   35.1503 H   0  0  0  0  0  0  0  0  0  0  0  0
   41.0579   24.9025   34.0771 H   0  0  0  0  0  0  0  0  0  0  0  0
   37.1080   23.6810   30.9003 H   0  0  0  0  0  0  0  0  0  0  0  0
   36.2875   26.0403   31.2416 H   0  0  0  0  0  0  0  0  0  0  0  0
   35.2836   30.2021   32.4664 H   0  0  0  0  0  0  0  0  0  0  0  0
  1  9  1  0
  1  2  2  0
  2  3  1  0
  4  3  1  0
  4  5  2  0
  6  5  1  0
  7  6  2  0
  8  9  2  0
  8  7  1  0
  9  4  1  0
 10 11  2  0
 10 15  1  0
 11 12  1  0
 12 16  1  0
 12 13  2  0
 14 13  1  0
 14  1  1  0
 15 14  2  0
 16 17  2  0
 18 17  1  0
 19 18  1  0
 20 19  2  0
 20 16  1  0
  2 21  1  0
  3 22  1  0
  5 23  1  0
  6 24  1  0
  7 25  1  0
  8 26  1  0
 10 27  1  0
 11 28  1  0
 19 29  1  0
M  ISO  8  21  14  22   9  23  14  24  14  25  14  26  14  27  14  28  14
M  ISO  1  29  14
M  END
>  <minimizedAffinity>  (1) 
-4.98827076

>  <minimizedRMSD>  (1) 
5.92636013

$$$$
