
     RDKit          3D

 44 48  0  0  0  0  0  0  0  0999 V2000
   43.4890   26.0730   32.0840 C   0  0  0  0  0  0  0  0  0  0  0  0
   43.5550   25.1380   33.1350 C   0  0  0  0  0  0  0  0  0  0  0  0
   42.3470   24.8340   33.7830 C   0  0  0  0  0  0  0  0  0  0  0  0
   41.2060   25.4370   33.3780 N   0  0  0  0  0  0  0  0  0  0  0  0
   41.1760   26.3350   32.3610 C   0  0  0  0  0  0  0  0  0  0  0  0
   42.3110   26.6460   31.7220 N   0  0  0  0  0  0  0  0  0  0  0  0
   39.9330   26.9440   31.9740 C   0  0  0  0  0  0  0  0  0  0  0  0
   39.6240   27.3320   30.6730 C   0  0  0  0  0  0  0  0  0  0  0  0
   38.3730   27.8560   30.7360 N   0  0  0  0  0  0  0  0  0  0  0  0
   37.8830   27.8200   31.9940 C   0  0  0  0  0  0  0  0  0  0  0  0
   36.6840   28.2290   32.5350 C   0  0  0  0  0  0  0  0  0  0  0  0
   36.4390   28.0700   33.8810 C   0  0  0  0  0  0  0  0  0  0  0  0
   37.4070   27.4960   34.6880 C   0  0  0  0  0  0  0  0  0  0  0  0
   38.6320   27.0750   34.1550 C   0  0  0  0  0  0  0  0  0  0  0  0
   38.8620   27.2420   32.8000 C   0  0  0  0  0  0  0  0  0  0  0  0
   42.3700   23.8750   34.8730 C   0  0  0  0  0  0  0  0  0  0  0  0
   43.4880   23.2410   35.3610 C   0  0  0  0  0  0  0  0  0  0  0  0
   42.9770   22.4410   36.3820 C   0  0  0  0  0  0  0  0  0  0  0  0
   41.6340   22.5900   36.4940 N   0  0  0  0  0  0  0  0  0  0  0  0
   41.2720   23.4870   35.5470 N   0  0  0  0  0  0  0  0  0  0  0  0
   40.7270   21.9760   37.3870 C   0  0  0  0  0  0  0  0  0  0  0  0
   40.0730   23.0440   38.2230 C   0  0  0  0  0  0  0  0  0  0  0  0
   38.6320   23.1200   37.7060 C   0  0  0  0  0  0  0  0  0  0  0  0
   38.1790   24.4520   37.1470 C   0  0  0  0  0  0  0  0  0  0  0  0
   37.6040   23.8990   38.4190 C   0  0  0  0  0  0  0  0  0  0  0  0
   44.4089   26.3449   31.5455 H   0  0  0  0  0  0  0  0  0  0  0  0
   44.5046   24.6696   33.4331 H   0  0  0  0  0  0  0  0  0  0  0  0
   40.2602   27.2344   29.7809 H   0  0  0  0  0  0  0  0  0  0  0  0
   37.8616   28.2338   29.9256 H   0  0  0  0  0  0  0  0  0  0  0  0
   35.9189   28.6846   31.8892 H   0  0  0  0  0  0  0  0  0  0  0  0
   35.4811   28.3967   34.3120 H   0  0  0  0  0  0  0  0  0  0  0  0
   37.2111   27.3689   35.7629 H   0  0  0  0  0  0  0  0  0  0  0  0
   39.3972   26.6201   34.8011 H   0  0  0  0  0  0  0  0  0  0  0  0
   44.5314   23.3407   35.0272 H   0  0  0  0  0  0  0  0  0  0  0  0
   43.5839   21.7760   37.0140 H   0  0  0  0  0  0  0  0  0  0  0  0
   39.9600   21.4301   36.8180 H   0  0  0  0  0  0  0  0  0  0  0  0
   41.2626   21.2679   38.0365 H   0  0  0  0  0  0  0  0  0  0  0  0
   40.0885   22.7664   39.2873 H   0  0  0  0  0  0  0  0  0  0  0  0
   40.5936   24.0097   38.1435 H   0  0  0  0  0  0  0  0  0  0  0  0
   38.6755   22.0770   37.3592 H   0  0  0  0  0  0  0  0  0  0  0  0
   38.8513   25.3222   37.1752 H   0  0  0  0  0  0  0  0  0  0  0  0
   37.7718   24.8049   36.1880 H   0  0  0  0  0  0  0  0  0  0  0  0
   36.5637   23.5422   38.4390 H   0  0  0  0  0  0  0  0  0  0  0  0
   37.4986   24.2782   39.4462 H   0  0  0  0  0  0  0  0  0  0  0  0
  1  2  2  0
  2  3  1  0
  3 16  1  0
  4  3  2  0
  5  4  1  0
  6  1  1  0
  6  5  2  0
  7  5  1  0
  7 15  1  0
  8  9  1  0
  8  7  2  0
  9 10  1  0
 10 11  1  0
 10 15  2  0
 11 12  2  0
 12 13  1  0
 14 13  2  0
 15 14  1  0
 16 17  1  0
 16 20  2  0
 17 18  2  0
 18 19  1  0
 19 21  1  0
 20 19  1  0
 21 22  1  0
 23 22  1  0
 23 25  1  0
 24 23  1  0
 24 25  1  0
  1 26  1  0
  2 27  1  0
  8 28  1  0
  9 29  1  0
 11 30  1  0
 12 31  1  0
 13 32  1  0
 14 33  1  0
 17 34  1  0
 18 35  1  0
 21 36  1  0
 21 37  1  0
 22 38  1  0
 22 39  1  0
 23 40  1  0
 24 41  1  0
 24 42  1  0
 25 43  1  0
 25 44  1  0
M  ISO  8  26  14  27  14  28  14  29   9  30  14  31  14  32  14  33  14
M  ISO  8  34  14  35  14  36   8  37   8  38   8  39   8  40  13  41  13
M  ISO  3  42  13  43  13  44  13
M  END
>  <minimizedAffinity>  (1) 
-4.86027718

>  <minimizedRMSD>  (1) 
2.35006213

$$$$
