
     RDKit          3D

 38 41  0  0  0  0  0  0  0  0999 V2000
   42.1010   25.3550   31.7780 C   0  0  0  0  0  0  0  0  0  0  0  0
   42.1980   24.6510   33.0010 C   0  0  0  0  0  0  0  0  0  0  0  0
   41.0420   24.6010   33.7940 C   0  0  0  0  0  0  0  0  0  0  0  0
   39.9090   25.2120   33.3690 N   0  0  0  0  0  0  0  0  0  0  0  0
   39.8570   25.8750   32.1970 C   0  0  0  0  0  0  0  0  0  0  0  0
   40.9450   25.9420   31.4120 N   0  0  0  0  0  0  0  0  0  0  0  0
   38.6230   26.5140   31.7820 C   0  0  0  0  0  0  0  0  0  0  0  0
   38.1380   26.5390   30.4900 C   0  0  0  0  0  0  0  0  0  0  0  0
   36.9810   27.2270   30.5440 N   0  0  0  0  0  0  0  0  0  0  0  0
   36.7020   27.6390   31.7920 C   0  0  0  0  0  0  0  0  0  0  0  0
   35.6480   28.3600   32.3150 C   0  0  0  0  0  0  0  0  0  0  0  0
   35.6150   28.6490   33.6640 C   0  0  0  0  0  0  0  0  0  0  0  0
   36.6390   28.2130   34.4830 C   0  0  0  0  0  0  0  0  0  0  0  0
   37.7170   27.4780   33.9600 C   0  0  0  0  0  0  0  0  0  0  0  0
   37.7370   27.1940   32.5970 C   0  0  0  0  0  0  0  0  0  0  0  0
   41.1070   23.8830   35.0610 C   0  0  0  0  0  0  0  0  0  0  0  0
   42.1950   23.1930   35.5370 C   0  0  0  0  0  0  0  0  0  0  0  0
   41.7340   22.7020   36.7680 C   0  0  0  0  0  0  0  0  0  0  0  0
   40.4620   23.0830   36.9950 N   0  0  0  0  0  0  0  0  0  0  0  0
   40.0830   23.8150   35.9320 N   0  0  0  0  0  0  0  0  0  0  0  0
   39.6140   22.8100   38.1110 C   0  0  0  0  0  0  0  0  0  0  0  0
   38.2600   23.4060   37.8250 C   0  0  0  0  0  0  0  0  0  0  0  0
   37.3340   22.6260   38.5470 O   0  0  0  0  0  0  0  0  0  0  0  0
   42.9788   25.4239   31.1187 H   0  0  0  0  0  0  0  0  0  0  0  0
   43.1343   24.1664   33.3149 H   0  0  0  0  0  0  0  0  0  0  0  0
   38.6011   26.0895   29.5992 H   0  0  0  0  0  0  0  0  0  0  0  0
   36.3825   27.4146   29.7270 H   0  0  0  0  0  0  0  0  0  0  0  0
   34.8356   28.7037   31.6578 H   0  0  0  0  0  0  0  0  0  0  0  0
   34.7772   29.2239   34.0855 H   0  0  0  0  0  0  0  0  0  0  0  0
   36.6102   28.4441   35.5581 H   0  0  0  0  0  0  0  0  0  0  0  0
   38.5302   27.1334   34.6157 H   0  0  0  0  0  0  0  0  0  0  0  0
   43.1817   23.0588   35.0697 H   0  0  0  0  0  0  0  0  0  0  0  0
   42.3322   22.0872   37.4566 H   0  0  0  0  0  0  0  0  0  0  0  0
   39.5210   21.7230   38.2518 H   0  0  0  0  0  0  0  0  0  0  0  0
   40.0372   23.2464   39.0278 H   0  0  0  0  0  0  0  0  0  0  0  0
   38.2237   24.4525   38.1620 H   0  0  0  0  0  0  0  0  0  0  0  0
   38.0370   23.4034   36.7478 H   0  0  0  0  0  0  0  0  0  0  0  0
   37.4829   22.7514   39.5177 H   0  0  0  0  0  0  0  0  0  0  0  0
  1  2  2  0
  2  3  1  0
  3 16  1  0
  4  3  2  0
  5  4  1  0
  6  1  1  0
  6  5  2  0
  7  5  1  0
  7 15  1  0
  8  9  1  0
  8  7  2  0
  9 10  1  0
 10 11  1  0
 10 15  2  0
 11 12  2  0
 12 13  1  0
 14 13  2  0
 15 14  1  0
 16 17  1  0
 16 20  2  0
 17 18  2  0
 18 19  1  0
 19 21  1  0
 20 19  1  0
 22 21  1  0
 22 23  1  0
  1 24  1  0
  2 25  1  0
  8 26  1  0
  9 27  1  0
 11 28  1  0
 12 29  1  0
 13 30  1  0
 14 31  1  0
 17 32  1  0
 18 33  1  0
 21 34  1  0
 21 35  1  0
 22 36  1  0
 22 37  1  0
 23 38  1  0
M  ISO  8  24  14  25  14  26  14  27   9  28  14  29  14  30  14  31  14
M  ISO  7  32  14  33  14  34   8  35   8  36   8  37   8  38   3
M  END
>  <minimizedAffinity>  (1) 
-4.71259928

>  <minimizedRMSD>  (1) 
1.05941999

$$$$
