
     RDKit          3D

 19 19  0  0  0  0  0  0  0  0999 V2000
   39.2470   22.2580   34.2100 C   0  0  0  0  0  0  0  0  0  0  0  0
   39.1780   22.6680   35.5390 C   0  0  0  0  0  0  0  0  0  0  0  0
   37.9560   22.4200   36.1900 C   0  0  0  0  0  0  0  0  0  0  0  0
   36.9370   21.8150   35.5240 N   0  0  0  0  0  0  0  0  0  0  0  0
   37.0580   21.4360   34.2320 C   0  0  0  0  0  0  0  0  0  0  0  0
   38.2120   21.6600   33.5870 N   0  0  0  0  0  0  0  0  0  0  0  0
   37.6830   22.7670   37.5560 N   0  0  0  0  0  0  0  0  0  0  0  0
   40.2020   23.3000   36.2620 N   0  0  0  0  0  0  0  0  0  0  0  0
   41.2070   22.6160   37.0010 C   0  0  0  0  0  0  0  0  0  0  0  0
   40.7690   21.6050   37.7170 N   0  0  0  0  0  0  0  0  0  0  0  0
   42.5760   23.0680   36.9140 N   0  0  0  0  0  0  0  0  0  0  0  0
   41.5210   21.1190   38.2500 H   0  0  0  0  0  0  0  0  0  0  0  0
   40.1780   22.4280   33.6494 H   0  0  0  0  0  0  0  0  0  0  0  0
   36.2182   20.9487   33.7150 H   0  0  0  0  0  0  0  0  0  0  0  0
   36.7630   22.5543   37.9674 H   0  0  0  0  0  0  0  0  0  0  0  0
   38.4071   23.2286   38.1247 H   0  0  0  0  0  0  0  0  0  0  0  0
   40.2275   24.3297   36.2571 H   0  0  0  0  0  0  0  0  0  0  0  0
   43.3135   22.5819   37.4438 H   0  0  0  0  0  0  0  0  0  0  0  0
   42.8148   23.8765   36.3222 H   0  0  0  0  0  0  0  0  0  0  0  0
  1  2  2  0
  2  3  1  0
  2  8  1  0
  3  7  1  0
  4  3  2  0
  5  4  1  0
  6  1  1  0
  6  5  2  0
  8  9  1  0
  9 10  2  0
 10 12  1  0
 11  9  1  0
  1 13  1  0
  5 14  1  0
  7 15  1  0
  7 16  1  0
  8 17  1  0
 11 18  1  0
 11 19  1  0
M  ISO  2  13  14  14  14
M  END
>  <minimizedAffinity>  (1) 
-3.36383605

>  <minimizedRMSD>  (1) 
2.66447377

$$$$
