
     RDKit          3D

 14 14  0  0  0  0  0  0  0  0999 V2000
   38.7530   24.4940   36.1160 C   0  0  0  0  0  0  0  0  0  0  0  0
   39.6800   23.4650   36.3040 C   0  0  0  0  0  0  0  0  0  0  0  0
   39.7320   22.8100   37.5250 C   0  0  0  0  0  0  0  0  0  0  0  0
   38.8610   23.1950   38.5230 N   0  0  0  0  0  0  0  0  0  0  0  0
   37.9730   24.1960   38.3080 C   0  0  0  0  0  0  0  0  0  0  0  0
   37.9190   24.8340   37.1310 N   0  0  0  0  0  0  0  0  0  0  0  0
   40.6180   21.7540   37.8530 N   0  0  0  0  0  0  0  0  0  0  0  0
   40.6010   23.0450   35.2780 C   0  0  0  0  0  0  0  0  0  0  0  0
   40.4070   21.9120   34.7650 O   0  0  0  0  0  0  0  0  0  0  0  0
   38.6999   25.0237   35.1534 H   0  0  0  0  0  0  0  0  0  0  0  0
   37.2845   24.4899   39.1140 H   0  0  0  0  0  0  0  0  0  0  0  0
   40.5846   21.3257   38.7891 H   0  0  0  0  0  0  0  0  0  0  0  0
   41.2954   21.4146   37.1553 H   0  0  0  0  0  0  0  0  0  0  0  0
   41.4358   23.6857   34.9577 H   0  0  0  0  0  0  0  0  0  0  0  0
  1  2  2  0
  1  6  1  0
  2  3  1  0
  3  7  1  0
  3  4  2  0
  5  4  1  0
  6  5  2  0
  8  2  1  0
  9  8  2  0
  1 10  1  0
  5 11  1  0
  7 12  1  0
  7 13  1  0
  8 14  1  0
M  ISO  3  10  14  11  14  14   6
M  END
>  <minimizedAffinity>  (1) 
-3.34196091

>  <minimizedRMSD>  (1) 
3.23469257

$$$$
