
     RDKit          3D

 35 37  0  0  1  0  0  0  0  0999 V2000
   39.7690   22.6130   34.9890 C   0  0  2  0  0  0  0  0  0  0  0  0
   38.1930   24.2370   36.1560 C   0  0  0  0  0  0  0  0  0  0  0  0
   39.1590   23.2170   36.1740 C   0  0  0  0  0  0  0  0  0  0  0  0
   39.5410   22.7220   37.4310 C   0  0  0  0  0  0  0  0  0  0  0  0
   38.9720   23.2400   38.5680 N   0  0  0  0  0  0  0  0  0  0  0  0
   38.0530   24.2170   38.4810 C   0  0  0  0  0  0  0  0  0  0  0  0
   37.6590   24.7190   37.2890 N   0  0  0  0  0  0  0  0  0  0  0  0
   40.5110   21.6960   37.6230 N   0  0  0  0  0  0  0  0  0  0  0  0
   41.1110   23.3420   34.7600 C   0  0  0  0  0  0  0  0  0  0  0  0
   38.8960   22.7700   33.7870 C   0  0  0  0  0  0  0  0  0  0  0  0
   38.8610   21.4950   33.0380 C   0  0  0  0  0  0  0  0  0  0  0  0
   39.8870   20.7200   32.6470 N   0  0  0  0  0  0  0  0  0  0  0  0
   39.7080   19.5740   31.9670 C   0  0  0  0  0  0  0  0  0  0  0  0
   38.4810   19.1250   31.6310 N   0  0  0  0  0  0  0  0  0  0  0  0
   37.4050   19.8640   31.9970 C   0  0  0  0  0  0  0  0  0  0  0  0
   36.1830   19.3520   31.6230 C   0  0  0  0  0  0  0  0  0  0  0  0
   35.0550   20.0530   31.9650 C   0  0  0  0  0  0  0  0  0  0  0  0
   35.1910   21.2320   32.6620 C   0  0  0  0  0  0  0  0  0  0  0  0
   36.4430   21.6930   33.0070 C   0  0  0  0  0  0  0  0  0  0  0  0
   37.6030   21.0260   32.6890 C   0  0  0  0  0  0  0  0  0  0  0  0
   39.9132   21.5337   35.1450 H   0  0  0  0  0  0  0  0  0  0  0  0
   37.8666   24.6504   35.1903 H   0  0  0  0  0  0  0  0  0  0  0  0
   37.6097   24.6188   39.4041 H   0  0  0  0  0  0  0  0  0  0  0  0
   40.7443   21.3795   38.5750 H   0  0  0  0  0  0  0  0  0  0  0  0
   40.9788   21.2709   36.8098 H   0  0  0  0  0  0  0  0  0  0  0  0
   41.5648   23.5885   35.7313 H   0  0  0  0  0  0  0  0  0  0  0  0
   41.7908   22.6892   34.1928 H   0  0  0  0  0  0  0  0  0  0  0  0
   40.9334   24.2676   34.1928 H   0  0  0  0  0  0  0  0  0  0  0  0
   37.8775   23.0373   34.1051 H   0  0  0  0  0  0  0  0  0  0  0  0
   39.2972   23.5654   33.1417 H   0  0  0  0  0  0  0  0  0  0  0  0
   40.5895   18.9841   31.6755 H   0  0  0  0  0  0  0  0  0  0  0  0
   36.1133   18.4065   31.0651 H   0  0  0  0  0  0  0  0  0  0  0  0
   34.0585   19.6793   31.6870 H   0  0  0  0  0  0  0  0  0  0  0  0
   34.2975   21.8081   32.9445 H   0  0  0  0  0  0  0  0  0  0  0  0
   36.5182   22.6392   33.5630 H   0  0  0  0  0  0  0  0  0  0  0  0
  1  3  1  0
  2  3  2  0
  2  7  1  0
  3  4  1  0
  4  8  1  0
  4  5  2  0
  6  5  1  0
  7  6  2  0
  9  1  1  0
 10  1  1  0
 11 10  1  0
 12 11  2  0
 13 12  1  0
 14 13  2  0
 14 15  1  0
 15 20  2  0
 16 17  2  0
 16 15  1  0
 17 18  1  0
 18 19  2  0
 20 19  1  0
 20 11  1  0
  1 21  1  1
  2 22  1  0
  6 23  1  0
  8 24  1  0
  8 25  1  0
  9 26  1  0
  9 27  1  0
  9 28  1  0
 10 29  1  0
 10 30  1  0
 13 31  1  0
 16 32  1  0
 17 33  1  0
 18 34  1  0
 19 35  1  0
M  ISO  8  21   8  22  14  23  14  26   8  27   8  28   8  29   8  30   8
M  ISO  5  31  14  32  14  33  14  34  14  35  14
M  END
>  <minimizedAffinity>  (1) 
-5.16194963

>  <minimizedRMSD>  (1) 
1.86753666

$$$$
