
     RDKit          3D

 34 37  0  0  0  0  0  0  0  0999 V2000
   38.6040   24.2800   33.7410 C   0  0  0  0  0  0  0  0  0  0  0  0
   37.4860   23.8680   33.0440 C   0  0  0  0  0  0  0  0  0  0  0  0
   37.3370   24.7130   31.9440 C   0  0  0  0  0  0  0  0  0  0  0  0
   38.3400   25.6030   31.9850 N   0  0  0  0  0  0  0  0  0  0  0  0
   39.0940   25.3390   33.0600 N   0  0  0  0  0  0  0  0  0  0  0  0
   38.7180   26.6910   31.1560 C   0  0  0  0  0  0  0  0  0  0  0  0
   39.9430   26.5630   30.6040 N   0  0  0  0  0  0  0  0  0  0  0  0
   40.4470   27.4970   29.8010 C   0  0  0  0  0  0  0  0  0  0  0  0
   39.6890   28.5900   29.5510 N   0  0  0  0  0  0  0  0  0  0  0  0
   38.4730   28.7560   30.0750 C   0  0  0  0  0  0  0  0  0  0  0  0
   37.7540   29.8930   29.7790 C   0  0  0  0  0  0  0  0  0  0  0  0
   36.4990   30.0260   30.3440 C   0  0  0  0  0  0  0  0  0  0  0  0
   35.9960   29.0310   31.1820 C   0  0  0  0  0  0  0  0  0  0  0  0
   36.7200   27.8780   31.4850 C   0  0  0  0  0  0  0  0  0  0  0  0
   37.9500   27.7930   30.9050 C   0  0  0  0  0  0  0  0  0  0  0  0
   40.6830   22.4010   36.0880 C   0  0  0  0  0  0  0  0  0  0  0  0
   40.0610   22.6620   37.3270 C   0  0  0  0  0  0  0  0  0  0  0  0
   38.9370   23.4850   37.3040 C   0  0  0  0  0  0  0  0  0  0  0  0
   38.5070   23.9830   36.1190 N   0  0  0  0  0  0  0  0  0  0  0  0
   39.1450   23.6980   34.9520 C   0  0  0  0  0  0  0  0  0  0  0  0
   40.2250   22.9120   34.9420 N   0  0  0  0  0  0  0  0  0  0  0  0
   38.3210   23.7300   38.6220 C   0  0  0  0  0  0  0  0  0  0  0  0
   37.7380   24.9590   38.6400 F   0  0  0  0  0  0  0  0  0  0  0  0
   39.3410   23.7430   39.5470 F   0  0  0  0  0  0  0  0  0  0  0  0
   37.3610   22.7790   38.9290 F   0  0  0  0  0  0  0  0  0  0  0  0
   36.8305   23.0251   33.3083 H   0  0  0  0  0  0  0  0  0  0  0  0
   36.5439   24.6594   31.1837 H   0  0  0  0  0  0  0  0  0  0  0  0
   41.4463   27.3844   29.3553 H   0  0  0  0  0  0  0  0  0  0  0  0
   38.1642   30.6688   29.1157 H   0  0  0  0  0  0  0  0  0  0  0  0
   35.8948   30.9203   30.1317 H   0  0  0  0  0  0  0  0  0  0  0  0
   34.9946   29.1599   31.6186 H   0  0  0  0  0  0  0  0  0  0  0  0
   36.3256   27.0922   32.1460 H   0  0  0  0  0  0  0  0  0  0  0  0
   41.5737   21.7560   36.0649 H   0  0  0  0  0  0  0  0  0  0  0  0
   40.4448   22.2363   38.2659 H   0  0  0  0  0  0  0  0  0  0  0  0
  1 20  1  0
  2  1  1  0
  3  4  1  0
  3  2  2  0
  4  5  1  0
  5  1  2  0
  6  4  1  0
  7  6  2  0
  8  7  1  0
  9  8  2  0
  9 10  1  0
 10 15  2  0
 11 10  1  0
 11 12  2  0
 12 13  1  0
 13 14  2  0
 15  6  1  0
 15 14  1  0
 16 17  2  0
 18 17  1  0
 18 22  1  0
 19 18  2  0
 20 19  1  0
 21 20  2  0
 21 16  1  0
 22 23  1  0
 22 25  1  0
 22 24  1  0
  2 26  1  0
  3 27  1  0
  8 28  1  0
 11 29  1  0
 12 30  1  0
 13 31  1  0
 14 32  1  0
 16 33  1  0
 17 34  1  0
M  ISO  8  26  14  27  14  28  14  29  14  30  14  31  14  32  14  33  14
M  ISO  1  34  14
M  END
>  <minimizedAffinity>  (1) 
-6.11338568

>  <minimizedRMSD>  (1) 
3.02997017

$$$$
