
     RDKit          3D

 32 34  0  0  1  0  0  0  0  0999 V2000
   39.8840   22.7160   35.0470 C   0  0  2  0  0  0  0  0  0  0  0  0
   38.2920   24.3110   36.1950 C   0  0  0  0  0  0  0  0  0  0  0  0
   39.2520   23.2850   36.2190 C   0  0  0  0  0  0  0  0  0  0  0  0
   39.5770   22.7500   37.4700 C   0  0  0  0  0  0  0  0  0  0  0  0
   38.9650   23.2320   38.6060 N   0  0  0  0  0  0  0  0  0  0  0  0
   38.0420   24.2310   38.5090 C   0  0  0  0  0  0  0  0  0  0  0  0
   37.7090   24.7640   37.3140 N   0  0  0  0  0  0  0  0  0  0  0  0
   40.5200   21.7140   37.6850 N   0  0  0  0  0  0  0  0  0  0  0  0
   41.2700   23.3840   34.9100 C   0  0  0  0  0  0  0  0  0  0  0  0
   39.0690   22.9220   33.8160 C   0  0  0  0  0  0  0  0  0  0  0  0
   38.7140   21.7220   33.1040 N   0  0  0  0  0  0  0  0  0  0  0  0
   39.6140   20.8250   32.6140 C   0  0  0  0  0  0  0  0  0  0  0  0
   38.9630   19.8000   31.9930 N   0  0  0  0  0  0  0  0  0  0  0  0
   37.6480   20.0190   32.0720 C   0  0  0  0  0  0  0  0  0  0  0  0
   36.5440   19.3160   31.6230 C   0  0  0  0  0  0  0  0  0  0  0  0
   35.3410   19.8380   31.8830 N   0  0  0  0  0  0  0  0  0  0  0  0
   35.1870   21.0120   32.5610 C   0  0  0  0  0  0  0  0  0  0  0  0
   36.2740   21.6900   32.9960 N   0  0  0  0  0  0  0  0  0  0  0  0
   37.5150   21.2070   32.7610 C   0  0  0  0  0  0  0  0  0  0  0  0
   39.9811   21.6268   35.1658 H   0  0  0  0  0  0  0  0  0  0  0  0
   38.0105   24.7557   35.2291 H   0  0  0  0  0  0  0  0  0  0  0  0
   37.5594   24.6100   39.4219 H   0  0  0  0  0  0  0  0  0  0  0  0
   40.7033   21.3745   38.6400 H   0  0  0  0  0  0  0  0  0  0  0  0
   41.0220   21.3006   36.8862 H   0  0  0  0  0  0  0  0  0  0  0  0
   41.6819   23.5825   35.9105 H   0  0  0  0  0  0  0  0  0  0  0  0
   41.9475   22.7135   34.3610 H   0  0  0  0  0  0  0  0  0  0  0  0
   41.1676   24.3317   34.3610 H   0  0  0  0  0  0  0  0  0  0  0  0
   38.1388   23.4326   34.1060 H   0  0  0  0  0  0  0  0  0  0  0  0
   39.6983   23.5075   33.1296 H   0  0  0  0  0  0  0  0  0  0  0  0
   40.7065   20.9142   32.7057 H   0  0  0  0  0  0  0  0  0  0  0  0
   36.6516   18.3680   31.0755 H   0  0  0  0  0  0  0  0  0  0  0  0
   34.1788   21.4073   32.7540 H   0  0  0  0  0  0  0  0  0  0  0  0
  1  3  1  0
  2  3  2  0
  2  7  1  0
  3  4  1  0
  4  8  1  0
  4  5  2  0
  6  5  1  0
  7  6  2  0
  9  1  1  0
 10  1  1  0
 11 10  1  0
 12 11  1  0
 13 14  1  0
 13 12  2  0
 14 19  2  0
 15 16  2  0
 15 14  1  0
 16 17  1  0
 17 18  2  0
 19 18  1  0
 19 11  1  0
  1 20  1  1
  2 21  1  0
  6 22  1  0
  8 23  1  0
  8 24  1  0
  9 25  1  0
  9 26  1  0
  9 27  1  0
 10 28  1  0
 10 29  1  0
 12 30  1  0
 15 31  1  0
 17 32  1  0
M  ISO  8  20   8  21  14  22  14  25   8  26   8  27   8  28   8  29   8
M  ISO  3  30  14  31  14  32  14
M  END
>  <minimizedAffinity>  (1) 
-4.72877645

>  <minimizedRMSD>  (1) 
2.1761179

$$$$
