
     RDKit          3D

 35 37  0  0  1  0  0  0  0  0999 V2000
   38.7950   22.9180   34.3920 C   0  0  2  0  0  0  0  0  0  0  0  0
   37.7420   23.8180   36.5270 C   0  0  0  0  0  0  0  0  0  0  0  0
   38.7640   23.1330   35.8430 C   0  0  0  0  0  0  0  0  0  0  0  0
   39.7880   22.6000   36.6240 C   0  0  0  0  0  0  0  0  0  0  0  0
   39.7740   22.7500   37.9900 N   0  0  0  0  0  0  0  0  0  0  0  0
   38.7670   23.4140   38.5820 C   0  0  0  0  0  0  0  0  0  0  0  0
   37.7550   23.9480   37.8630 N   0  0  0  0  0  0  0  0  0  0  0  0
   40.9100   21.8930   36.0770 N   0  0  0  0  0  0  0  0  0  0  0  0
   39.3730   24.2120   33.7700 C   0  0  0  0  0  0  0  0  0  0  0  0
   37.4270   22.6430   33.8650 C   0  0  0  0  0  0  0  0  0  0  0  0
   37.4090   21.9810   32.5840 N   0  0  0  0  0  0  0  0  0  0  0  0
   38.0280   22.4910   31.5120 C   0  0  0  0  0  0  0  0  0  0  0  0
   37.8830   21.7080   30.4180 N   0  0  0  0  0  0  0  0  0  0  0  0
   37.1330   20.6440   30.8160 C   0  0  0  0  0  0  0  0  0  0  0  0
   36.6230   19.4970   30.2300 C   0  0  0  0  0  0  0  0  0  0  0  0
   36.8780   19.3230   29.0090 O   0  0  0  0  0  0  0  0  0  0  0  0
   35.8960   18.6310   30.9520 N   0  0  0  0  0  0  0  0  0  0  0  0
   35.6290   18.8250   32.2570 C   0  0  0  0  0  0  0  0  0  0  0  0
   34.8490   17.8680   32.9700 N   0  0  0  0  0  0  0  0  0  0  0  0
   36.1170   19.9450   32.8630 N   0  0  0  0  0  0  0  0  0  0  0  0
   36.8560   20.8340   32.1450 C   0  0  0  0  0  0  0  0  0  0  0  0
   39.4130   22.0447   34.1362 H   0  0  0  0  0  0  0  0  0  0  0  0
   36.9128   24.2573   35.9530 H   0  0  0  0  0  0  0  0  0  0  0  0
   38.7663   23.5254   39.6763 H   0  0  0  0  0  0  0  0  0  0  0  0
   41.6384   21.5200   36.7025 H   0  0  0  0  0  0  0  0  0  0  0  0
   40.9872   21.7584   35.0588 H   0  0  0  0  0  0  0  0  0  0  0  0
   39.6799   24.8991   34.5723 H   0  0  0  0  0  0  0  0  0  0  0  0
   40.2450   23.9620   33.1478 H   0  0  0  0  0  0  0  0  0  0  0  0
   38.6049   24.6946   33.1478 H   0  0  0  0  0  0  0  0  0  0  0  0
   36.8997   22.0057   34.5901 H   0  0  0  0  0  0  0  0  0  0  0  0
   36.9408   23.6194   33.7230 H   0  0  0  0  0  0  0  0  0  0  0  0
   38.5894   23.4369   31.5197 H   0  0  0  0  0  0  0  0  0  0  0  0
   35.5286   17.7865   30.4908 H   0  0  0  0  0  0  0  0  0  0  0  0
   34.6426   18.0130   33.9686 H   0  0  0  0  0  0  0  0  0  0  0  0
   34.4919   17.0316   32.4865 H   0  0  0  0  0  0  0  0  0  0  0  0
  1  3  1  0
  2  7  2  0
  3  2  1  0
  3  4  2  0
  4  5  1  0
  5  6  2  0
  7  6  1  0
  8  4  1  0
  9  1  1  0
 10  1  1  0
 11 10  1  0
 12 11  1  0
 13 14  1  0
 13 12  2  0
 14 21  2  0
 15 14  1  0
 15 17  1  0
 16 15  2  0
 17 18  1  0
 18 20  2  0
 18 19  1  0
 21 11  1  0
 21 20  1  0
  1 22  1  1
  2 23  1  0
  6 24  1  0
  8 25  1  0
  8 26  1  0
  9 27  1  0
  9 28  1  0
  9 29  1  0
 10 30  1  0
 10 31  1  0
 12 32  1  0
 17 33  1  0
 19 34  1  0
 19 35  1  0
M  ISO  8  22   8  23  14  24  14  27   8  28   8  29   8  30   8  31   8
M  ISO  2  32  14  33   9
M  END
>  <minimizedAffinity>  (1) 
-5.01703119

>  <minimizedRMSD>  (1) 
2.89432502

$$$$
