
     RDKit          3D

 36 37  0  0  1  0  0  0  0  0999 V2000
   39.1420   23.3100   34.7470 C   0  0  2  0  0  0  0  0  0  0  0  0
   38.1020   24.8250   36.5200 C   0  0  0  0  0  0  0  0  0  0  0  0
   38.8410   23.6950   36.1280 C   0  0  0  0  0  0  0  0  0  0  0  0
   39.2800   22.8560   37.1630 C   0  0  0  0  0  0  0  0  0  0  0  0
   38.9900   23.1460   38.4700 N   0  0  0  0  0  0  0  0  0  0  0  0
   38.2680   24.2590   38.7690 C   0  0  0  0  0  0  0  0  0  0  0  0
   37.8310   25.0880   37.7970 N   0  0  0  0  0  0  0  0  0  0  0  0
   40.0560   21.6840   36.9540 N   0  0  0  0  0  0  0  0  0  0  0  0
   40.4060   24.1050   34.3430 C   0  0  0  0  0  0  0  0  0  0  0  0
   38.0040   23.6480   33.8320 C   0  0  0  0  0  0  0  0  0  0  0  0
   37.5240   22.4730   33.2060 N   0  0  0  0  0  0  0  0  0  0  0  0
   37.0740   21.4020   33.9850 C   0  0  0  0  0  0  0  0  0  0  0  0
   35.7050   20.8660   33.6710 C   0  0  0  0  0  0  0  0  0  0  0  0
   35.1810   21.2020   32.3210 C   0  0  0  0  0  0  0  0  0  0  0  0
   35.5720   22.5530   31.7970 C   0  0  0  0  0  0  0  0  0  0  0  0
   37.1020   22.5770   31.8590 C   0  0  0  0  0  0  0  0  0  0  0  0
   39.3019   22.2244   34.6700 H   0  0  0  0  0  0  0  0  0  0  0  0
   37.7353   25.5151   35.7458 H   0  0  0  0  0  0  0  0  0  0  0  0
   38.0363   24.4876   39.8197 H   0  0  0  0  0  0  0  0  0  0  0  0
   40.3474   21.1092   37.7575 H   0  0  0  0  0  0  0  0  0  0  0  0
   40.3270   21.4093   35.9990 H   0  0  0  0  0  0  0  0  0  0  0  0
   40.9349   24.4376   35.2483 H   0  0  0  0  0  0  0  0  0  0  0  0
   41.0691   23.4611   33.7467 H   0  0  0  0  0  0  0  0  0  0  0  0
   40.1128   24.9816   33.7467 H   0  0  0  0  0  0  0  0  0  0  0  0
   37.1923   24.1087   34.4142 H   0  0  0  0  0  0  0  0  0  0  0  0
   38.3548   24.3511   33.0622 H   0  0  0  0  0  0  0  0  0  0  0  0
   37.7910   20.5768   33.8628 H   0  0  0  0  0  0  0  0  0  0  0  0
   37.0006   21.7998   35.0079 H   0  0  0  0  0  0  0  0  0  0  0  0
   35.7421   19.7700   33.7572 H   0  0  0  0  0  0  0  0  0  0  0  0
   35.0214   21.3439   34.3882 H   0  0  0  0  0  0  0  0  0  0  0  0
   35.5510   20.4440   31.6149 H   0  0  0  0  0  0  0  0  0  0  0  0
   34.0853   21.2193   32.4167 H   0  0  0  0  0  0  0  0  0  0  0  0
   35.1474   23.3491   32.4263 H   0  0  0  0  0  0  0  0  0  0  0  0
   35.1980   22.7236   30.7767 H   0  0  0  0  0  0  0  0  0  0  0  0
   37.5051   21.7312   31.2827 H   0  0  0  0  0  0  0  0  0  0  0  0
   37.4702   23.5218   31.4326 H   0  0  0  0  0  0  0  0  0  0  0  0
  1  3  1  0
  2  7  2  0
  3  2  1  0
  3  4  2  0
  4  5  1  0
  5  6  2  0
  7  6  1  0
  8  4  1  0
  9  1  1  0
 10  1  1  0
 11 10  1  0
 11 12  1  0
 13 12  1  0
 14 13  1  0
 15 16  1  0
 15 14  1  0
 16 11  1  0
  1 17  1  1
  2 18  1  0
  6 19  1  0
  8 20  1  0
  8 21  1  0
  9 22  1  0
  9 23  1  0
  9 24  1  0
 10 25  1  0
 10 26  1  0
 12 27  1  0
 12 28  1  0
 13 29  1  0
 13 30  1  0
 14 31  1  0
 14 32  1  0
 15 33  1  0
 15 34  1  0
 16 35  1  0
 16 36  1  0
M  ISO  8  17   8  18  14  19  14  22   8  23   8  24   8  25   8  26   8
M  ISO  8  27  13  28  13  29  13  30  13  31  13  32  13  33  13  34  13
M  ISO  2  35  13  36  13
M  END
>  <minimizedAffinity>  (1) 
-4.40217972

>  <minimizedRMSD>  (1) 
2.45264721

$$$$
