
     RDKit          3D

 27 28  0  0  1  0  0  0  0  0999 V2000
   39.4470   22.6400   35.2780 C   0  0  2  0  0  0  0  0  0  0  0  0
   38.1810   24.4750   36.4540 C   0  0  0  0  0  0  0  0  0  0  0  0
   39.0290   23.3530   36.4580 C   0  0  0  0  0  0  0  0  0  0  0  0
   39.4360   22.8990   37.7130 C   0  0  0  0  0  0  0  0  0  0  0  0
   39.0170   23.5270   38.8550 N   0  0  0  0  0  0  0  0  0  0  0  0
   38.1920   24.6090   38.7700 C   0  0  0  0  0  0  0  0  0  0  0  0
   37.7720   25.0850   37.5770 N   0  0  0  0  0  0  0  0  0  0  0  0
   40.3020   21.7890   37.9090 N   0  0  0  0  0  0  0  0  0  0  0  0
   40.7570   23.2990   34.7860 C   0  0  0  0  0  0  0  0  0  0  0  0
   38.4320   22.6860   34.1870 C   0  0  0  0  0  0  0  0  0  0  0  0
   37.3050   21.8370   34.3950 N   0  0  0  0  0  0  0  0  0  0  0  0
   36.5950   21.2590   33.3820 C   0  0  0  0  0  0  0  0  0  0  0  0
   35.5860   20.5100   33.8870 N   0  0  0  0  0  0  0  0  0  0  0  0
   35.6660   20.6220   35.2440 C   0  0  0  0  0  0  0  0  0  0  0  0
   36.7040   21.4220   35.4950 N   0  0  0  0  0  0  0  0  0  0  0  0
   39.5852   21.5795   35.5352 H   0  0  0  0  0  0  0  0  0  0  0  0
   37.8376   24.8703   35.4866 H   0  0  0  0  0  0  0  0  0  0  0  0
   37.8606   25.1060   39.6937 H   0  0  0  0  0  0  0  0  0  0  0  0
   40.5654   21.5034   38.8629 H   0  0  0  0  0  0  0  0  0  0  0  0
   40.6661   21.2702   37.0971 H   0  0  0  0  0  0  0  0  0  0  0  0
   41.3622   23.6035   35.6526 H   0  0  0  0  0  0  0  0  0  0  0  0
   41.3238   22.5788   34.1778 H   0  0  0  0  0  0  0  0  0  0  0  0
   40.5166   24.1834   34.1778 H   0  0  0  0  0  0  0  0  0  0  0  0
   38.9212   22.3848   33.2489 H   0  0  0  0  0  0  0  0  0  0  0  0
   38.0480   23.7164   34.1585 H   0  0  0  0  0  0  0  0  0  0  0  0
   36.8113   21.3837   32.3107 H   0  0  0  0  0  0  0  0  0  0  0  0
   35.0058   20.1470   35.9846 H   0  0  0  0  0  0  0  0  0  0  0  0
  1  3  1  0
  2  3  2  0
  2  7  1  0
  3  4  1  0
  4  8  1  0
  4  5  2  0
  6  5  1  0
  7  6  2  0
  9  1  1  0
 10 11  1  0
 10  1  1  0
 11 15  1  0
 12 13  2  0
 12 11  1  0
 13 14  1  0
 14 15  2  0
  1 16  1  1
  2 17  1  0
  6 18  1  0
  8 19  1  0
  8 20  1  0
  9 21  1  0
  9 22  1  0
  9 23  1  0
 10 24  1  0
 10 25  1  0
 12 26  1  0
 14 27  1  0
M  ISO  8  16   8  17  14  18  14  21   8  22   8  23   8  24   8  25   8
M  ISO  2  26  14  27  14
M  END
>  <minimizedAffinity>  (1) 
-4.17204237

>  <minimizedRMSD>  (1) 
0.851451159

$$$$
