
     RDKit          3D

 34 35  0  0  1  0  0  0  0  0999 V2000
   40.0020   22.8040   35.1230 C   0  0  2  0  0  0  0  0  0  0  0  0
   38.3890   24.4030   36.2380 C   0  0  0  0  0  0  0  0  0  0  0  0
   39.3310   23.3590   36.2830 C   0  0  0  0  0  0  0  0  0  0  0  0
   39.5830   22.8070   37.5390 C   0  0  0  0  0  0  0  0  0  0  0  0
   38.9390   23.2690   38.6550 N   0  0  0  0  0  0  0  0  0  0  0  0
   38.0380   24.2850   38.5310 C   0  0  0  0  0  0  0  0  0  0  0  0
   37.7610   24.8500   37.3350 N   0  0  0  0  0  0  0  0  0  0  0  0
   40.5140   21.7510   37.7690 N   0  0  0  0  0  0  0  0  0  0  0  0
   41.2790   23.6450   34.8940 C   0  0  0  0  0  0  0  0  0  0  0  0
   39.1470   22.8460   33.9020 C   0  0  0  0  0  0  0  0  0  0  0  0
   38.5560   21.5330   33.5260 C   0  0  0  0  0  0  0  0  0  0  0  0
   38.5900   21.2780   32.0400 C   0  0  0  0  0  0  0  0  0  0  0  0
   37.1470   21.1730   31.5880 C   0  0  0  0  0  0  0  0  0  0  0  0
   36.2960   21.7810   32.6620 C   0  0  0  0  0  0  0  0  0  0  0  0
   37.0790   21.5850   33.9180 C   0  0  0  0  0  0  0  0  0  0  0  0
   40.2350   21.7451   35.3084 H   0  0  0  0  0  0  0  0  0  0  0  0
   38.1596   24.8691   35.2684 H   0  0  0  0  0  0  0  0  0  0  0  0
   37.5223   24.6550   39.4294 H   0  0  0  0  0  0  0  0  0  0  0  0
   40.6545   21.3868   38.7222 H   0  0  0  0  0  0  0  0  0  0  0  0
   41.0457   21.3527   36.9819 H   0  0  0  0  0  0  0  0  0  0  0  0
   41.7101   23.9289   35.8653 H   0  0  0  0  0  0  0  0  0  0  0  0
   42.0117   23.0521   34.3269 H   0  0  0  0  0  0  0  0  0  0  0  0
   41.0237   24.5523   34.3269 H   0  0  0  0  0  0  0  0  0  0  0  0
   38.3257   23.5557   34.0802 H   0  0  0  0  0  0  0  0  0  0  0  0
   39.7991   23.1492   33.0696 H   0  0  0  0  0  0  0  0  0  0  0  0
   39.1333   20.7434   34.0293 H   0  0  0  0  0  0  0  0  0  0  0  0
   39.0905   22.1100   31.5231 H   0  0  0  0  0  0  0  0  0  0  0  0
   39.1477   20.3589   31.8069 H   0  0  0  0  0  0  0  0  0  0  0  0
   37.0080   21.7195   30.6435 H   0  0  0  0  0  0  0  0  0  0  0  0
   36.8681   20.1224   31.4193 H   0  0  0  0  0  0  0  0  0  0  0  0
   36.1329   22.8516   32.4690 H   0  0  0  0  0  0  0  0  0  0  0  0
   35.2987   21.3199   32.7155 H   0  0  0  0  0  0  0  0  0  0  0  0
   36.7842   20.6426   34.4028 H   0  0  0  0  0  0  0  0  0  0  0  0
   36.8916   22.4048   34.6271 H   0  0  0  0  0  0  0  0  0  0  0  0
  1  3  1  0
  2  3  2  0
  2  7  1  0
  3  4  1  0
  4  8  1  0
  4  5  2  0
  6  5  1  0
  7  6  2  0
  9  1  1  0
 10  1  1  0
 11 10  1  0
 11 15  1  0
 12 11  1  0
 13 12  1  0
 13 14  1  0
 14 15  1  0
  1 16  1  1
  2 17  1  0
  6 18  1  0
  8 19  1  0
  8 20  1  0
  9 21  1  0
  9 22  1  0
  9 23  1  0
 10 24  1  0
 10 25  1  0
 11 26  1  0
 12 27  1  0
 12 28  1  0
 13 29  1  0
 13 30  1  0
 14 31  1  0
 14 32  1  0
 15 33  1  0
 15 34  1  0
M  ISO  8  16   8  17  14  18  14  21   8  22   8  23   8  24   8  25   8
M  ISO  8  26  13  27  13  28  13  29  13  30  13  31  13  32  13  33  13
M  ISO  1  34  13
M  END
>  <minimizedAffinity>  (1) 
-4.12799263

>  <minimizedRMSD>  (1) 
1.27112234

$$$$
