
     RDKit          3D

 28 28  0  0  1  0  0  0  0  0999 V2000
   39.8470   22.6830   35.1710 C   0  0  2  0  0  0  0  0  0  0  0  0
   38.3340   24.3810   36.2940 C   0  0  0  0  0  0  0  0  0  0  0  0
   39.2450   23.3140   36.3300 C   0  0  0  0  0  0  0  0  0  0  0  0
   39.5510   22.8210   37.5990 C   0  0  0  0  0  0  0  0  0  0  0  0
   38.9830   23.3660   38.7130 N   0  0  0  0  0  0  0  0  0  0  0  0
   38.1040   24.4040   38.5960 C   0  0  0  0  0  0  0  0  0  0  0  0
   37.7780   24.9140   37.3870 N   0  0  0  0  0  0  0  0  0  0  0  0
   40.4490   21.7470   37.8370 N   0  0  0  0  0  0  0  0  0  0  0  0
   40.9970   23.5960   34.7020 C   0  0  0  0  0  0  0  0  0  0  0  0
   38.8550   22.4990   34.0610 C   0  0  0  0  0  0  0  0  0  0  0  0
   37.7220   21.7380   34.5570 N   0  0  0  0  0  0  0  0  0  0  0  0
   36.6650   21.4630   33.6450 C   0  0  0  0  0  0  0  0  0  0  0  0
   36.4610   22.1240   32.5530 N   0  0  0  0  0  0  0  0  0  0  0  0
   35.6880   20.4230   33.8120 N   0  0  0  0  0  0  0  0  0  0  0  0
   37.0780   22.9170   32.2750 H   0  0  0  0  0  0  0  0  0  0  0  0
   40.2126   21.6817   35.4424 H   0  0  0  0  0  0  0  0  0  0  0  0
   38.0629   24.8013   35.3143 H   0  0  0  0  0  0  0  0  0  0  0  0
   37.6525   24.8335   39.5024 H   0  0  0  0  0  0  0  0  0  0  0  0
   40.6308   21.4316   38.8005 H   0  0  0  0  0  0  0  0  0  0  0  0
   40.9185   21.2834   37.0461 H   0  0  0  0  0  0  0  0  0  0  0  0
   41.5177   24.0094   35.5784 H   0  0  0  0  0  0  0  0  0  0  0  0
   41.7054   23.0117   34.0965 H   0  0  0  0  0  0  0  0  0  0  0  0
   40.5885   24.4185   34.0965 H   0  0  0  0  0  0  0  0  0  0  0  0
   39.3285   21.9553   33.2303 H   0  0  0  0  0  0  0  0  0  0  0  0
   38.5132   23.4814   33.7031 H   0  0  0  0  0  0  0  0  0  0  0  0
   37.6849   21.4096   35.5325 H   0  0  0  0  0  0  0  0  0  0  0  0
   34.9524   20.2889   33.1036 H   0  0  0  0  0  0  0  0  0  0  0  0
   35.7232   19.8115   34.6401 H   0  0  0  0  0  0  0  0  0  0  0  0
  1  3  1  0
  2  3  2  0
  2  7  1  0
  3  4  1  0
  4  8  1  0
  4  5  2  0
  6  5  1  0
  7  6  2  0
  9  1  1  0
 10 11  1  0
 10  1  1  0
 12 14  1  0
 12 11  1  0
 13 12  2  0
 15 13  1  0
  1 16  1  1
  2 17  1  0
  6 18  1  0
  8 19  1  0
  8 20  1  0
  9 21  1  0
  9 22  1  0
  9 23  1  0
 10 24  1  0
 10 25  1  0
 11 26  1  0
 14 27  1  0
 14 28  1  0
M  ISO  8  16   8  17  14  18  14  21   8  22   8  23   8  24   8  25   8
M  END
>  <minimizedAffinity>  (1) 
-4.04440498

>  <minimizedRMSD>  (1) 
0.599057019

$$$$
