
     RDKit          3D

 22 22  0  0  1  0  0  0  0  0999 V2000
   38.1620   24.0340   36.1930 C   0  0  0  0  0  0  0  0  0  0  0  0
   39.1690   23.0600   36.2940 C   0  0  0  0  0  0  0  0  0  0  0  0
   39.5810   22.7120   37.5900 C   0  0  0  0  0  0  0  0  0  0  0  0
   39.0100   23.3120   38.6780 N   0  0  0  0  0  0  0  0  0  0  0  0
   38.0350   24.2510   38.5120 C   0  0  0  0  0  0  0  0  0  0  0  0
   37.6210   24.6030   37.2900 N   0  0  0  0  0  0  0  0  0  0  0  0
   40.5980   21.7580   37.8710 N   0  0  0  0  0  0  0  0  0  0  0  0
   39.7810   22.3700   35.1750 C   0  0  2  0  0  0  0  0  0  0  0  0
   40.8250   23.3400   34.5720 C   0  0  0  0  0  0  0  0  0  0  0  0
   38.7740   22.0010   34.1310 C   0  0  0  0  0  0  0  0  0  0  0  0
   39.3230   21.2200   33.1160 O   0  0  0  0  0  0  0  0  0  0  0  0
   37.8068   24.3395   35.1977 H   0  0  0  0  0  0  0  0  0  0  0  0
   37.5828   24.7254   39.3954 H   0  0  0  0  0  0  0  0  0  0  0  0
   40.8524   21.5488   38.8469 H   0  0  0  0  0  0  0  0  0  0  0  0
   41.0800   21.2764   37.0986 H   0  0  0  0  0  0  0  0  0  0  0  0
   40.2411   21.4325   35.5205 H   0  0  0  0  0  0  0  0  0  0  0  0
   41.3685   23.8449   35.3842 H   0  0  0  0  0  0  0  0  0  0  0  0
   41.5357   22.7743   33.9516 H   0  0  0  0  0  0  0  0  0  0  0  0
   40.3130   24.0903   33.9516 H   0  0  0  0  0  0  0  0  0  0  0  0
   37.9596   21.4371   34.6094 H   0  0  0  0  0  0  0  0  0  0  0  0
   38.4061   22.9324   33.6758 H   0  0  0  0  0  0  0  0  0  0  0  0
   39.8440   20.4788   33.5151 H   0  0  0  0  0  0  0  0  0  0  0  0
  1  2  2  0
  1  6  1  0
  2  3  1  0
  3  7  1  0
  3  4  2  0
  5  4  1  0
  6  5  2  0
  8  2  1  0
  9  8  1  0
 10  8  1  0
 11 10  1  0
  1 12  1  0
  5 13  1  0
  7 14  1  0
  7 15  1  0
  8 16  1  1
  9 17  1  0
  9 18  1  0
  9 19  1  0
 10 20  1  0
 10 21  1  0
 11 22  1  0
M  ISO  8  12  14  13  14  16   8  17   8  18   8  19   8  20   8  21   8
M  ISO  1  22   3
M  END
>  <minimizedAffinity>  (1) 
-3.50543571

>  <minimizedRMSD>  (1) 
0.155898586

$$$$
