
     RDKit          3D

 43 45  0  0  1  0  0  0  0  0999 V2000
   37.4030   22.4760   33.2270 C   0  0  2  0  0  0  0  0  0  0  0  0
   36.4810   21.2930   33.4670 C   0  0  0  0  0  0  0  0  0  0  0  0
   35.2230   21.3550   32.6660 C   0  0  0  0  0  0  0  0  0  0  0  0
   35.5380   21.4420   31.2140 C   0  0  0  0  0  0  0  0  0  0  0  0
   36.9660   21.7770   30.9500 C   0  0  0  0  0  0  0  0  0  0  0  0
   37.3470   22.9660   31.8060 C   0  0  1  0  0  0  0  0  0  0  0  0
   36.5630   24.1750   31.5930 C   0  0  0  0  0  0  0  0  0  0  0  0
   36.9500   25.4220   32.1140 C   0  0  0  0  0  0  0  0  0  0  0  0
   35.6840   26.5680   31.6030 S   0  0  0  0  0  0  0  0  0  0  0  0
   34.7540   25.1580   30.7130 C   0  0  0  0  0  0  0  0  0  0  0  0
   35.4360   24.2980   30.9330 N   0  0  0  0  0  0  0  0  0  0  0  0
   38.7760   21.8900   33.4200 C   0  0  0  0  0  0  0  0  0  0  0  0
   39.2960   22.0930   34.7640 C   0  0  2  0  0  0  0  0  0  0  0  0
   39.4830   24.6240   34.7070 C   0  0  0  0  0  0  0  0  0  0  0  0
   38.9800   23.4470   35.2400 C   0  0  0  0  0  0  0  0  0  0  0  0
   38.0690   23.5750   36.3140 C   0  0  0  0  0  0  0  0  0  0  0  0
   37.7390   24.8260   36.7620 N   0  0  0  0  0  0  0  0  0  0  0  0
   38.2660   25.9230   36.1960 C   0  0  0  0  0  0  0  0  0  0  0  0
   39.1230   25.8160   35.1860 N   0  0  0  0  0  0  0  0  0  0  0  0
   37.4800   22.4410   36.9720 N   0  0  0  0  0  0  0  0  0  0  0  0
   40.8190   21.9210   34.7960 C   0  0  0  0  0  0  0  0  0  0  0  0
   37.1356   23.3166   33.8841 H   0  0  0  0  0  0  0  0  0  0  0  0
   37.0192   20.3711   33.2017 H   0  0  0  0  0  0  0  0  0  0  0  0
   36.1935   21.3132   34.5286 H   0  0  0  0  0  0  0  0  0  0  0  0
   34.6280   20.4492   32.8544 H   0  0  0  0  0  0  0  0  0  0  0  0
   34.6541   22.2485   32.9625 H   0  0  0  0  0  0  0  0  0  0  0  0
   35.3129   20.4718   30.7471 H   0  0  0  0  0  0  0  0  0  0  0  0
   34.9251   22.2515   30.7909 H   0  0  0  0  0  0  0  0  0  0  0  0
   37.6022   20.9168   31.2056 H   0  0  0  0  0  0  0  0  0  0  0  0
   37.1058   22.0186   29.8860 H   0  0  0  0  0  0  0  0  0  0  0  0
   38.3367   23.3357   31.4996 H   0  0  0  0  0  0  0  0  0  0  0  0
   37.8463   25.6440   32.7118 H   0  0  0  0  0  0  0  0  0  0  0  0
   33.8129   25.1835   30.1441 H   0  0  0  0  0  0  0  0  0  0  0  0
   38.7269   20.8090   33.2225 H   0  0  0  0  0  0  0  0  0  0  0  0
   39.4545   22.4038   32.7231 H   0  0  0  0  0  0  0  0  0  0  0  0
   38.8234   21.3415   35.4135 H   0  0  0  0  0  0  0  0  0  0  0  0
   40.1951   24.5738   33.8701 H   0  0  0  0  0  0  0  0  0  0  0  0
   37.9863   26.9185   36.5711 H   0  0  0  0  0  0  0  0  0  0  0  0
   36.8208   22.5825   37.7506 H   0  0  0  0  0  0  0  0  0  0  0  0
   37.7171   21.4869   36.6649 H   0  0  0  0  0  0  0  0  0  0  0  0
   41.1618   21.8823   35.8405 H   0  0  0  0  0  0  0  0  0  0  0  0
   41.0932   20.9862   34.2852 H   0  0  0  0  0  0  0  0  0  0  0  0
   41.2948   22.7711   34.2852 H   0  0  0  0  0  0  0  0  0  0  0  0
  1 12  1  0
  1  2  1  0
  3  2  1  0
  4  3  1  0
  5  4  1  0
  5  6  1  0
  6  1  1  0
  7  6  1  0
  7  8  2  0
  9  8  1  0
 10 11  2  0
 10  9  1  0
 11  7  1  0
 12 13  1  0
 13 21  1  0
 13 15  1  0
 14 19  2  0
 14 15  1  0
 15 16  2  0
 16 17  1  0
 16 20  1  0
 18 17  2  0
 19 18  1  0
  1 22  1  1
  2 23  1  0
  2 24  1  0
  3 25  1  0
  3 26  1  0
  4 27  1  0
  4 28  1  0
  5 29  1  0
  5 30  1  0
  6 31  1  6
  8 32  1  0
 10 33  1  0
 12 34  1  0
 12 35  1  0
 13 36  1  1
 14 37  1  0
 18 38  1  0
 20 39  1  0
 20 40  1  0
 21 41  1  0
 21 42  1  0
 21 43  1  0
M  ISO  8  22  13  23  13  24  13  25  13  26  13  27  13  28  13  29  13
M  ISO  8  30  13  31  13  32  14  33  14  34   8  35   8  36   8  37  14
M  ISO  4  38  14  41   8  42   8  43   8
M  END
>  <minimizedAffinity>  (1) 
-4.9871645

>  <minimizedRMSD>  (1) 
2.9790318

$$$$
