
     RDKit          3D

 45 47  0  0  1  0  0  0  0  0999 V2000
   38.3150   23.8400   33.1100 C   0  0  2  0  0  0  0  0  0  0  0  0
   39.4190   24.2000   32.1320 C   0  0  0  0  0  0  0  0  0  0  0  0
   39.2810   23.5130   30.8160 C   0  0  0  0  0  0  0  0  0  0  0  0
   37.9700   23.8460   30.1960 C   0  0  0  0  0  0  0  0  0  0  0  0
   37.0200   24.4750   31.1570 C   0  0  0  0  0  0  0  0  0  0  0  0
   36.9920   23.6360   32.4220 C   0  0  1  0  0  0  0  0  0  0  0  0
   36.4990   22.2920   32.2820 C   0  0  0  0  0  0  0  0  0  0  0  0
   35.2360   21.8440   31.9600 C   0  0  0  0  0  0  0  0  0  0  0  0
   34.8520   20.5230   31.8650 C   0  0  0  0  0  0  0  0  0  0  0  0
   35.7580   19.5320   32.0970 N   0  0  0  0  0  0  0  0  0  0  0  0
   36.9960   19.9590   32.4110 C   0  0  0  0  0  0  0  0  0  0  0  0
   37.3600   21.2480   32.5020 N   0  0  0  0  0  0  0  0  0  0  0  0
   38.1700   25.0860   33.9420 C   0  0  0  0  0  0  0  0  0  0  0  0
   39.2740   25.2890   34.8640 C   0  0  2  0  0  0  0  0  0  0  0  0
   37.9820   24.8530   37.0090 C   0  0  0  0  0  0  0  0  0  0  0  0
   39.0240   24.5830   36.1330 C   0  0  0  0  0  0  0  0  0  0  0  0
   39.8950   23.5300   36.4870 C   0  0  0  0  0  0  0  0  0  0  0  0
   39.6740   22.8400   37.6500 N   0  0  0  0  0  0  0  0  0  0  0  0
   38.6420   23.1590   38.4490 C   0  0  0  0  0  0  0  0  0  0  0  0
   37.8150   24.1480   38.1300 N   0  0  0  0  0  0  0  0  0  0  0  0
   41.0260   23.1510   35.6790 N   0  0  0  0  0  0  0  0  0  0  0  0
   39.4630   26.7750   35.1810 C   0  0  0  0  0  0  0  0  0  0  0  0
   38.5615   22.9168   33.6549 H   0  0  0  0  0  0  0  0  0  0  0  0
   39.3970   25.2868   31.9636 H   0  0  0  0  0  0  0  0  0  0  0  0
   40.3704   23.8713   32.5756 H   0  0  0  0  0  0  0  0  0  0  0  0
   40.0919   23.8404   30.1487 H   0  0  0  0  0  0  0  0  0  0  0  0
   39.3379   22.4256   30.9717 H   0  0  0  0  0  0  0  0  0  0  0  0
   38.1420   24.5444   29.3638 H   0  0  0  0  0  0  0  0  0  0  0  0
   37.5178   22.9043   29.8514 H   0  0  0  0  0  0  0  0  0  0  0  0
   37.3541   25.4956   31.3954 H   0  0  0  0  0  0  0  0  0  0  0  0
   36.0140   24.5261   30.7151 H   0  0  0  0  0  0  0  0  0  0  0  0
   36.1993   23.9878   33.0986 H   0  0  0  0  0  0  0  0  0  0  0  0
   34.4679   22.6061   31.7616 H   0  0  0  0  0  0  0  0  0  0  0  0
   33.8145   20.2693   31.6020 H   0  0  0  0  0  0  0  0  0  0  0  0
   37.7644   19.1967   32.6071 H   0  0  0  0  0  0  0  0  0  0  0  0
   38.1141   25.9528   33.2670 H   0  0  0  0  0  0  0  0  0  0  0  0
   37.2568   24.9727   34.5447 H   0  0  0  0  0  0  0  0  0  0  0  0
   40.1784   24.8945   34.3777 H   0  0  0  0  0  0  0  0  0  0  0  0
   37.2786   25.6655   36.7744 H   0  0  0  0  0  0  0  0  0  0  0  0
   38.4801   22.5940   39.3788 H   0  0  0  0  0  0  0  0  0  0  0  0
   41.6350   22.3755   35.9769 H   0  0  0  0  0  0  0  0  0  0  0  0
   41.2256   23.6555   34.8035 H   0  0  0  0  0  0  0  0  0  0  0  0
   39.4812   26.9179   36.2715 H   0  0  0  0  0  0  0  0  0  0  0  0
   40.4128   27.1240   34.7496 H   0  0  0  0  0  0  0  0  0  0  0  0
   38.6308   27.3507   34.7496 H   0  0  0  0  0  0  0  0  0  0  0  0
  1 13  1  0
  2  1  1  0
  3  2  1  0
  4  3  1  0
  4  5  1  0
  5  6  1  0
  6  1  1  0
  7  6  1  0
  7 12  1  0
  8  7  2  0
  9  8  1  0
  9 10  2  0
 10 11  1  0
 11 12  2  0
 13 14  1  0
 14 22  1  0
 14 16  1  0
 15 20  2  0
 16 17  2  0
 16 15  1  0
 17 18  1  0
 18 19  2  0
 20 19  1  0
 21 17  1  0
  1 23  1  1
  2 24  1  0
  2 25  1  0
  3 26  1  0
  3 27  1  0
  4 28  1  0
  4 29  1  0
  5 30  1  0
  5 31  1  0
  6 32  1  1
  8 33  1  0
  9 34  1  0
 11 35  1  0
 13 36  1  0
 13 37  1  0
 14 38  1  6
 15 39  1  0
 19 40  1  0
 21 41  1  0
 21 42  1  0
 22 43  1  0
 22 44  1  0
 22 45  1  0
M  ISO  8  23  13  24  13  25  13  26  13  27  13  28  13  29  13  30  13
M  ISO  8  31  13  32  13  33  14  34  14  35  14  36   8  37   8  38   8
M  ISO  5  39  14  40  14  43   8  44   8  45   8
M  END
>  <minimizedAffinity>  (1) 
-4.8821559

>  <minimizedRMSD>  (1) 
4.04310369

$$$$
