
     RDKit          3D

 40 41  0  0  1  0  0  0  0  0999 V2000
   37.8170   22.5590   32.9060 C   0  0  0  0  0  0  0  0  0  0  0  0
   36.4280   22.1020   33.1390 C   0  0  2  0  0  0  0  0  0  0  0  0
   36.5670   20.6180   33.4310 C   0  0  0  0  0  0  0  0  0  0  0  0
   35.3290   19.8770   33.0170 C   0  0  0  0  0  0  0  0  0  0  0  0
   35.1370   19.9970   31.5430 C   0  0  0  0  0  0  0  0  0  0  0  0
   35.9010   21.1830   30.9670 C   0  0  0  0  0  0  0  0  0  0  0  0
   35.6260   22.3500   31.8870 C   0  0  2  0  0  0  0  0  0  0  0  0
   35.9870   23.5870   31.1650 C   0  0  0  0  0  0  0  0  0  0  0  0
   35.1940   24.5760   31.1980 O   0  0  0  0  0  0  0  0  0  0  0  0
   36.8720   24.2810   30.3740 O   0  0  0  0  0  0  0  0  0  0  0  0
   38.6580   22.4270   34.0820 C   0  0  2  0  0  0  0  0  0  0  0  0
   38.9010   24.8990   34.6160 C   0  0  0  0  0  0  0  0  0  0  0  0
   38.5360   23.6010   34.9500 C   0  0  0  0  0  0  0  0  0  0  0  0
   37.9870   23.4150   36.2380 C   0  0  0  0  0  0  0  0  0  0  0  0
   37.8290   24.4690   37.0940 N   0  0  0  0  0  0  0  0  0  0  0  0
   38.2120   25.7060   36.6850 C   0  0  0  0  0  0  0  0  0  0  0  0
   38.7350   25.9060   35.4730 N   0  0  0  0  0  0  0  0  0  0  0  0
   37.5730   22.1210   36.7300 N   0  0  0  0  0  0  0  0  0  0  0  0
   40.1350   22.2870   33.6790 C   0  0  0  0  0  0  0  0  0  0  0  0
   38.2526   21.9591   32.0934 H   0  0  0  0  0  0  0  0  0  0  0  0
   37.7749   23.6274   32.6475 H   0  0  0  0  0  0  0  0  0  0  0  0
   35.9142   22.6224   33.9607 H   0  0  0  0  0  0  0  0  0  0  0  0
   37.4288   20.2199   32.8753 H   0  0  0  0  0  0  0  0  0  0  0  0
   36.7146   20.4830   34.5127 H   0  0  0  0  0  0  0  0  0  0  0  0
   35.4316   18.8155   33.2866 H   0  0  0  0  0  0  0  0  0  0  0  0
   34.4583   20.3082   33.5327 H   0  0  0  0  0  0  0  0  0  0  0  0
   35.4948   19.0751   31.0612 H   0  0  0  0  0  0  0  0  0  0  0  0
   34.0656   20.1542   31.3497 H   0  0  0  0  0  0  0  0  0  0  0  0
   36.9788   20.9651   30.9396 H   0  0  0  0  0  0  0  0  0  0  0  0
   35.5834   21.4018   29.9368 H   0  0  0  0  0  0  0  0  0  0  0  0
   34.5716   22.4592   32.1807 H   0  0  0  0  0  0  0  0  0  0  0  0
   37.7138   23.8517   30.0787 H   0  0  0  0  0  0  0  0  0  0  0  0
   38.3234   21.5280   34.6203 H   0  0  0  0  0  0  0  0  0  0  0  0
   39.3353   25.0995   33.6254 H   0  0  0  0  0  0  0  0  0  0  0  0
   38.0888   26.5608   37.3663 H   0  0  0  0  0  0  0  0  0  0  0  0
   37.1775   22.0325   37.6769 H   0  0  0  0  0  0  0  0  0  0  0  0
   37.6734   21.2871   36.1338 H   0  0  0  0  0  0  0  0  0  0  0  0
   40.7579   22.2280   34.5837 H   0  0  0  0  0  0  0  0  0  0  0  0
   40.2672   21.3723   33.0825 H   0  0  0  0  0  0  0  0  0  0  0  0
   40.4367   23.1606   33.0825 H   0  0  0  0  0  0  0  0  0  0  0  0
  1  2  1  0
  1 11  1  0
  2  3  1  0
  4  3  1  0
  5  4  1  0
  6  5  1  0
  6  7  1  0
  7  2  1  0
  8  9  2  0
  8  7  1  0
 10  8  1  0
 11 13  1  0
 12 13  2  0
 12 17  1  0
 13 14  1  0
 14 18  1  0
 14 15  2  0
 16 15  1  0
 17 16  2  0
 19 11  1  0
  1 20  1  0
  1 21  1  0
  2 22  1  1
  3 23  1  0
  3 24  1  0
  4 25  1  0
  4 26  1  0
  5 27  1  0
  5 28  1  0
  6 29  1  0
  6 30  1  0
  7 31  1  1
 10 32  1  0
 11 33  1  1
 12 34  1  0
 16 35  1  0
 18 36  1  0
 18 37  1  0
 19 38  1  0
 19 39  1  0
 19 40  1  0
M  ISO  8  20   8  21   8  22  13  23  13  24  13  25  13  26  13  27  13
M  ISO  8  28  13  29  13  30  13  31  13  32   3  33   8  34  14  35  14
M  ISO  3  38   8  39   8  40   8
M  END
>  <minimizedAffinity>  (1) 
-4.59425926

>  <minimizedRMSD>  (1) 
1.15010726

$$$$
