
     RDKit          3D

 43 44  0  0  1  0  0  0  0  0999 V2000
   38.4460   22.3120   33.0280 C   0  0  0  0  0  0  0  0  0  0  0  0
   36.9450   22.3460   32.9850 C   0  0  2  0  0  0  0  0  0  0  0  0
   36.5490   21.0170   33.6040 C   0  0  0  0  0  0  0  0  0  0  0  0
   35.2710   20.4590   33.0570 C   0  0  0  0  0  0  0  0  0  0  0  0
   35.3880   20.2760   31.5720 C   0  0  0  0  0  0  0  0  0  0  0  0
   36.5360   21.0430   31.0030 C   0  0  0  0  0  0  0  0  0  0  0  0
   36.5410   22.4410   31.5370 C   0  0  1  0  0  0  0  0  0  0  0  0
   35.4990   23.3520   31.1180 C   0  0  0  0  0  0  0  0  0  0  0  0
   35.5930   24.8100   31.1750 C   0  0  0  0  0  0  0  0  0  0  0  0
   38.9930   22.2880   34.3660 C   0  0  2  0  0  0  0  0  0  0  0  0
   39.2030   24.8120   34.5650 C   0  0  0  0  0  0  0  0  0  0  0  0
   38.7710   23.5810   35.0410 C   0  0  0  0  0  0  0  0  0  0  0  0
   38.0510   23.5920   36.2540 C   0  0  0  0  0  0  0  0  0  0  0  0
   37.8190   24.7860   36.8860 N   0  0  0  0  0  0  0  0  0  0  0  0
   38.2680   25.9380   36.3640 C   0  0  0  0  0  0  0  0  0  0  0  0
   38.9480   25.9400   35.2220 N   0  0  0  0  0  0  0  0  0  0  0  0
   37.5550   22.3940   36.8700 N   0  0  0  0  0  0  0  0  0  0  0  0
   40.4880   22.0110   34.3480 C   0  0  0  0  0  0  0  0  0  0  0  0
   38.8276   23.2064   32.5137 H   0  0  0  0  0  0  0  0  0  0  0  0
   38.7585   21.3779   32.5383 H   0  0  0  0  0  0  0  0  0  0  0  0
   36.4714   23.1864   33.5136 H   0  0  0  0  0  0  0  0  0  0  0  0
   37.3542   20.2917   33.4155 H   0  0  0  0  0  0  0  0  0  0  0  0
   36.3902   21.1953   34.6778 H   0  0  0  0  0  0  0  0  0  0  0  0
   35.0657   19.4870   33.5293 H   0  0  0  0  0  0  0  0  0  0  0  0
   34.4492   21.1578   33.2722 H   0  0  0  0  0  0  0  0  0  0  0  0
   35.5330   19.2072   31.3561 H   0  0  0  0  0  0  0  0  0  0  0  0
   34.4642   20.6534   31.1091 H   0  0  0  0  0  0  0  0  0  0  0  0
   36.4449   21.0733   29.9072 H   0  0  0  0  0  0  0  0  0  0  0  0
   37.4752   20.5469   31.2890 H   0  0  0  0  0  0  0  0  0  0  0  0
   37.2953   23.0489   31.0160 H   0  0  0  0  0  0  0  0  0  0  0  0
   34.6183   23.0900   31.7228 H   0  0  0  0  0  0  0  0  0  0  0  0
   35.5185   23.1922   30.0298 H   0  0  0  0  0  0  0  0  0  0  0  0
   35.6140   25.1353   32.2256 H   0  0  0  0  0  0  0  0  0  0  0  0
   36.5142   25.1380   30.6711 H   0  0  0  0  0  0  0  0  0  0  0  0
   34.7216   25.2536   30.6711 H   0  0  0  0  0  0  0  0  0  0  0  0
   38.4780   21.4824   34.9098 H   0  0  0  0  0  0  0  0  0  0  0  0
   39.7691   24.8552   33.6229 H   0  0  0  0  0  0  0  0  0  0  0  0
   38.0719   26.8869   36.8848 H   0  0  0  0  0  0  0  0  0  0  0  0
   37.0337   22.4486   37.7567 H   0  0  0  0  0  0  0  0  0  0  0  0
   37.7204   21.4798   36.4253 H   0  0  0  0  0  0  0  0  0  0  0  0
   40.8606   21.9420   35.3807 H   0  0  0  0  0  0  0  0  0  0  0  0
   40.6788   21.0622   33.8252 H   0  0  0  0  0  0  0  0  0  0  0  0
   41.0061   22.8284   33.8252 H   0  0  0  0  0  0  0  0  0  0  0  0
  1 10  1  0
  2  1  1  0
  2  3  1  0
  4  3  1  0
  5  4  1  0
  6  7  1  0
  6  5  1  0
  7  2  1  0
  8  9  1  0
  8  7  1  0
 10 12  1  0
 11 12  2  0
 11 16  1  0
 12 13  1  0
 13 17  1  0
 13 14  2  0
 15 14  1  0
 16 15  2  0
 18 10  1  0
  1 19  1  0
  1 20  1  0
  2 21  1  1
  3 22  1  0
  3 23  1  0
  4 24  1  0
  4 25  1  0
  5 26  1  0
  5 27  1  0
  6 28  1  0
  6 29  1  0
  7 30  1  6
  8 31  1  0
  8 32  1  0
  9 33  1  0
  9 34  1  0
  9 35  1  0
 10 36  1  1
 11 37  1  0
 15 38  1  0
 17 39  1  0
 17 40  1  0
 18 41  1  0
 18 42  1  0
 18 43  1  0
M  ISO  8  19   8  20   8  21  13  22  13  23  13  24  13  25  13  26  13
M  ISO  8  27  13  28  13  29  13  30  13  31   8  32   8  33   8  34   8
M  ISO  7  35   8  36   8  37  14  38  14  41   8  42   8  43   8
M  END
>  <minimizedAffinity>  (1) 
-4.48491764

>  <minimizedRMSD>  (1) 
1.52695036

$$$$
