
     RDKit          3D

 44 46  0  0  1  0  0  0  0  0999 V2000
   38.7740   22.2080   33.2950 C   0  0  0  0  0  0  0  0  0  0  0  0
   37.3330   22.4460   32.9690 C   0  0  2  0  0  0  0  0  0  0  0  0
   36.6240   21.2770   33.6020 C   0  0  0  0  0  0  0  0  0  0  0  0
   35.3610   20.9310   32.8780 C   0  0  0  0  0  0  0  0  0  0  0  0
   35.6850   20.5240   31.4710 C   0  0  0  0  0  0  0  0  0  0  0  0
   37.0060   21.0630   31.0330 C   0  0  0  0  0  0  0  0  0  0  0  0
   37.2190   22.4710   31.4540 C   0  0  1  0  0  0  0  0  0  0  0  0
   36.4900   23.5750   30.8540 C   0  0  0  0  0  0  0  0  0  0  0  0
   36.5710   25.0120   31.0970 C   0  0  0  0  0  0  0  0  0  0  0  0
   35.3550   24.2420   31.5680 C   0  0  0  0  0  0  0  0  0  0  0  0
   39.0600   22.2910   34.7170 C   0  0  2  0  0  0  0  0  0  0  0  0
   39.3400   24.8190   34.5670 C   0  0  0  0  0  0  0  0  0  0  0  0
   38.8550   23.6720   35.1910 C   0  0  0  0  0  0  0  0  0  0  0  0
   38.0850   23.8600   36.3630 C   0  0  0  0  0  0  0  0  0  0  0  0
   37.8550   25.1330   36.8180 N   0  0  0  0  0  0  0  0  0  0  0  0
   38.3550   26.1920   36.1620 C   0  0  0  0  0  0  0  0  0  0  0  0
   39.0820   26.0320   35.0600 N   0  0  0  0  0  0  0  0  0  0  0  0
   37.5380   22.7660   37.1170 N   0  0  0  0  0  0  0  0  0  0  0  0
   40.5150   21.9080   35.0130 C   0  0  0  0  0  0  0  0  0  0  0  0
   39.3801   22.9623   32.7718 H   0  0  0  0  0  0  0  0  0  0  0  0
   39.0179   21.1853   32.9715 H   0  0  0  0  0  0  0  0  0  0  0  0
   36.9043   23.3895   33.3378 H   0  0  0  0  0  0  0  0  0  0  0  0
   37.2934   20.4043   33.5861 H   0  0  0  0  0  0  0  0  0  0  0  0
   36.3602   21.5562   34.6328 H   0  0  0  0  0  0  0  0  0  0  0  0
   34.8592   20.0990   33.3938 H   0  0  0  0  0  0  0  0  0  0  0  0
   34.6965   21.8075   32.8617 H   0  0  0  0  0  0  0  0  0  0  0  0
   35.7111   19.4258   31.4142 H   0  0  0  0  0  0  0  0  0  0  0  0
   34.9093   20.9337   30.8073 H   0  0  0  0  0  0  0  0  0  0  0  0
   37.0605   21.0118   29.9355 H   0  0  0  0  0  0  0  0  0  0  0  0
   37.7879   20.4524   31.5082 H   0  0  0  0  0  0  0  0  0  0  0  0
   38.1465   22.8039   30.9652 H   0  0  0  0  0  0  0  0  0  0  0  0
   36.6641   22.9933   29.9368 H   0  0  0  0  0  0  0  0  0  0  0  0
   37.2900   25.4048   31.8310 H   0  0  0  0  0  0  0  0  0  0  0  0
   36.7306   25.8975   30.4642 H   0  0  0  0  0  0  0  0  0  0  0  0
   34.3848   24.3749   31.0669 H   0  0  0  0  0  0  0  0  0  0  0  0
   34.8322   24.1004   32.5254 H   0  0  0  0  0  0  0  0  0  0  0  0
   38.3816   21.5940   35.2308 H   0  0  0  0  0  0  0  0  0  0  0  0
   39.9452   24.7235   33.6534 H   0  0  0  0  0  0  0  0  0  0  0  0
   38.1607   27.2061   36.5412 H   0  0  0  0  0  0  0  0  0  0  0  0
   36.9831   22.9513   37.9647 H   0  0  0  0  0  0  0  0  0  0  0  0
   37.7008   21.7965   36.8098 H   0  0  0  0  0  0  0  0  0  0  0  0
   40.6693   21.8674   36.1014 H   0  0  0  0  0  0  0  0  0  0  0  0
   40.7311   20.9224   34.5750 H   0  0  0  0  0  0  0  0  0  0  0  0
   41.1884   22.6595   34.5750 H   0  0  0  0  0  0  0  0  0  0  0  0
  1 11  1  0
  2  1  1  0
  2  3  1  0
  4  3  1  0
  5  4  1  0
  6  7  1  0
  6  5  1  0
  7  2  1  0
  8  9  1  0
  8  7  1  0
  8 10  1  0
  9 10  1  0
 11 19  1  0
 11 13  1  0
 12 17  2  0
 12 13  1  0
 13 14  2  0
 14 15  1  0
 14 18  1  0
 16 15  2  0
 17 16  1  0
  1 20  1  0
  1 21  1  0
  2 22  1  1
  3 23  1  0
  3 24  1  0
  4 25  1  0
  4 26  1  0
  5 27  1  0
  5 28  1  0
  6 29  1  0
  6 30  1  0
  7 31  1  6
  8 32  1  0
  9 33  1  0
  9 34  1  0
 10 35  1  0
 10 36  1  0
 11 37  1  1
 12 38  1  0
 16 39  1  0
 18 40  1  0
 18 41  1  0
 19 42  1  0
 19 43  1  0
 19 44  1  0
M  ISO  8  20   8  21   8  22  13  23  13  24  13  25  13  26  13  27  13
M  ISO  8  28  13  29  13  30  13  31  13  32  13  33  13  34  13  35  13
M  ISO  7  36  13  37   8  38  14  39  14  42   8  43   8  44   8
M  END
>  <minimizedAffinity>  (1) 
-4.44494724

>  <minimizedRMSD>  (1) 
1.9680078

$$$$
