
     RDKit          3D

 39 40  0  0  1  0  0  0  0  0999 V2000
   37.8610   22.7090   32.5480 C   0  0  0  0  0  0  0  0  0  0  0  0
   36.5360   22.2510   33.0360 C   0  0  2  0  0  0  0  0  0  0  0  0
   36.7510   20.8020   33.4110 C   0  0  0  0  0  0  0  0  0  0  0  0
   35.4720   20.0340   33.2570 C   0  0  0  0  0  0  0  0  0  0  0  0
   35.0610   20.0420   31.8050 C   0  0  0  0  0  0  0  0  0  0  0  0
   35.7120   21.1710   31.0390 C   0  0  0  0  0  0  0  0  0  0  0  0
   35.5400   22.4070   31.9110 C   0  0  2  0  0  0  0  0  0  0  0  0
   35.6900   23.6440   31.1360 C   0  0  0  0  0  0  0  0  0  0  0  0
   35.1070   24.6940   30.9380 O   0  0  0  0  0  0  0  0  0  0  0  0
   38.8680   22.7030   33.5970 C   0  0  2  0  0  0  0  0  0  0  0  0
   38.4460   25.1200   34.2550 C   0  0  0  0  0  0  0  0  0  0  0  0
   38.6170   23.7780   34.5630 C   0  0  0  0  0  0  0  0  0  0  0  0
   38.5250   23.4220   35.9290 C   0  0  0  0  0  0  0  0  0  0  0  0
   38.2770   24.3620   36.8870 N   0  0  0  0  0  0  0  0  0  0  0  0
   38.1210   25.6590   36.5060 C   0  0  0  0  0  0  0  0  0  0  0  0
   38.2040   26.0220   35.2190 N   0  0  0  0  0  0  0  0  0  0  0  0
   38.6960   22.0590   36.3950 N   0  0  0  0  0  0  0  0  0  0  0  0
   40.2740   22.9160   33.0050 C   0  0  0  0  0  0  0  0  0  0  0  0
   38.1899   22.0411   31.7382 H   0  0  0  0  0  0  0  0  0  0  0  0
   37.7497   23.7447   32.1945 H   0  0  0  0  0  0  0  0  0  0  0  0
   36.1459   22.8187   33.8936 H   0  0  0  0  0  0  0  0  0  0  0  0
   37.5182   20.3663   32.7541 H   0  0  0  0  0  0  0  0  0  0  0  0
   37.0800   20.7466   34.4592 H   0  0  0  0  0  0  0  0  0  0  0  0
   35.6230   18.9969   33.5911 H   0  0  0  0  0  0  0  0  0  0  0  0
   34.6845   20.5008   33.8669 H   0  0  0  0  0  0  0  0  0  0  0  0
   35.3553   19.0861   31.3472 H   0  0  0  0  0  0  0  0  0  0  0  0
   33.9712   20.1852   31.7609 H   0  0  0  0  0  0  0  0  0  0  0  0
   36.7794   20.9603   30.8771 H   0  0  0  0  0  0  0  0  0  0  0  0
   35.2576   21.3057   30.0463 H   0  0  0  0  0  0  0  0  0  0  0  0
   34.5242   22.4908   32.3247 H   0  0  0  0  0  0  0  0  0  0  0  0
   36.6208   23.6125   30.5507 H   0  0  0  0  0  0  0  0  0  0  0  0
   38.8131   21.7247   34.0969 H   0  0  0  0  0  0  0  0  0  0  0  0
   38.5096   25.4489   33.2073 H   0  0  0  0  0  0  0  0  0  0  0  0
   37.9227   26.4250   37.2702 H   0  0  0  0  0  0  0  0  0  0  0  0
   38.6205   21.8449   37.3997 H   0  0  0  0  0  0  0  0  0  0  0  0
   38.8929   21.3052   35.7212 H   0  0  0  0  0  0  0  0  0  0  0  0
   41.0028   23.0264   33.8215 H   0  0  0  0  0  0  0  0  0  0  0  0
   40.5462   22.0488   32.3854 H   0  0  0  0  0  0  0  0  0  0  0  0
   40.2771   23.8249   32.3854 H   0  0  0  0  0  0  0  0  0  0  0  0
  1  2  1  0
  1 10  1  0
  2  3  1  0
  4  3  1  0
  5  4  1  0
  6  5  1  0
  6  7  1  0
  7  2  1  0
  8  7  1  0
  9  8  2  0
 10 12  1  0
 11 12  2  0
 11 16  1  0
 12 13  1  0
 13 17  1  0
 13 14  2  0
 15 14  1  0
 16 15  2  0
 18 10  1  0
  1 19  1  0
  1 20  1  0
  2 21  1  1
  3 22  1  0
  3 23  1  0
  4 24  1  0
  4 25  1  0
  5 26  1  0
  5 27  1  0
  6 28  1  0
  6 29  1  0
  7 30  1  1
  8 31  1  0
 10 32  1  1
 11 33  1  0
 15 34  1  0
 17 35  1  0
 17 36  1  0
 18 37  1  0
 18 38  1  0
 18 39  1  0
M  ISO  8  19   8  20   8  21  13  22  13  23  13  24  13  25  13  26  13
M  ISO  8  27  13  28  13  29  13  30  13  31   6  32   8  33  14  34  14
M  ISO  3  37   8  38   8  39   8
M  END
>  <minimizedAffinity>  (1) 
-4.35254765

>  <minimizedRMSD>  (1) 
1.1302464

$$$$
