
     RDKit          3D

 27 29  0  0  0  0  0  0  0  0999 V2000
   38.6110   22.7170   33.8680 C   0  0  0  0  0  0  0  0  0  0  0  0
   38.7920   21.8650   32.8090 C   0  0  0  0  0  0  0  0  0  0  0  0
   37.9940   22.2930   31.7600 C   0  0  0  0  0  0  0  0  0  0  0  0
   37.3460   23.3870   32.1880 N   0  0  0  0  0  0  0  0  0  0  0  0
   37.7160   23.6480   33.4610 N   0  0  0  0  0  0  0  0  0  0  0  0
   41.0140   22.0780   36.5530 C   0  0  0  0  0  0  0  0  0  0  0  0
   40.3380   22.5870   37.6830 C   0  0  0  0  0  0  0  0  0  0  0  0
   39.0640   23.1380   37.4890 C   0  0  0  0  0  0  0  0  0  0  0  0
   38.5510   23.1550   36.2330 N   0  0  0  0  0  0  0  0  0  0  0  0
   39.2430   22.6530   35.1700 C   0  0  0  0  0  0  0  0  0  0  0  0
   40.4670   22.1200   35.3460 N   0  0  0  0  0  0  0  0  0  0  0  0
   38.4090   23.6510   38.7000 C   0  0  0  0  0  0  0  0  0  0  0  0
   37.8760   24.8720   38.4480 F   0  0  0  0  0  0  0  0  0  0  0  0
   39.3990   23.8160   39.6530 F   0  0  0  0  0  0  0  0  0  0  0  0
   37.3960   22.8030   39.1320 F   0  0  0  0  0  0  0  0  0  0  0  0
   36.4000   24.3000   31.6380 C   0  0  0  0  0  0  0  0  0  0  0  0
   35.1230   24.1330   31.1000 C   0  0  0  0  0  0  0  0  0  0  0  0
   34.7460   25.4180   30.7460 C   0  0  0  0  0  0  0  0  0  0  0  0
   35.7780   26.2850   31.0720 C   0  0  0  0  0  0  0  0  0  0  0  0
   36.7560   25.5590   31.6100 O   0  0  0  0  0  0  0  0  0  0  0  0
   39.4581   20.9897   32.7946 H   0  0  0  0  0  0  0  0  0  0  0  0
   37.9084   21.8259   30.7678 H   0  0  0  0  0  0  0  0  0  0  0  0
   42.0145   21.6378   36.6764 H   0  0  0  0  0  0  0  0  0  0  0  0
   40.7960   22.5523   38.6825 H   0  0  0  0  0  0  0  0  0  0  0  0
   34.5508   23.2007   30.9844 H   0  0  0  0  0  0  0  0  0  0  0  0
   33.7892   25.7028   30.2841 H   0  0  0  0  0  0  0  0  0  0  0  0
   35.7870   27.3737   30.9148 H   0  0  0  0  0  0  0  0  0  0  0  0
  1 10  1  0
  2  1  1  0
  3  4  1  0
  3  2  2  0
  4  5  1  0
  5  1  2  0
  6  7  2  0
  8  7  1  0
  8 12  1  0
  9  8  2  0
 10 11  2  0
 10  9  1  0
 11  6  1  0
 12 15  1  0
 12 14  1  0
 13 12  1  0
 16  4  1  0
 17 16  2  0
 18 19  2  0
 18 17  1  0
 19 20  1  0
 20 16  1  0
  2 21  1  0
  3 22  1  0
  6 23  1  0
  7 24  1  0
 17 25  1  0
 18 26  1  0
 19 27  1  0
M  ISO  7  21  14  22  14  23  14  24  14  25  14  26  14  27  14
M  END
>  <minimizedAffinity>  (1) 
-5.53337955

>  <minimizedRMSD>  (1) 
0.882744193

$$$$
