
     RDKit          3D

 38 39  0  0  1  0  0  0  0  0999 V2000
   37.3680   22.4980   32.9580 C   0  0  0  0  0  0  0  0  0  0  0  0
   36.0510   21.8130   33.0060 C   0  0  2  0  0  0  0  0  0  0  0  0
   36.3590   20.4200   33.5280 C   0  0  0  0  0  0  0  0  0  0  0  0
   35.3410   19.4520   33.0080 C   0  0  0  0  0  0  0  0  0  0  0  0
   35.4740   19.3500   31.5100 C   0  0  0  0  0  0  0  0  0  0  0  0
   36.1340   20.5770   30.9260 C   0  0  0  0  0  0  0  0  0  0  0  0
   35.4900   21.7750   31.6010 C   0  0  2  0  0  0  0  0  0  0  0  0
   35.9120   22.9060   30.9090 O   0  0  0  0  0  0  0  0  0  0  0  0
   38.1860   22.1920   34.1200 C   0  0  2  0  0  0  0  0  0  0  0  0
   38.7790   24.5670   34.7820 C   0  0  0  0  0  0  0  0  0  0  0  0
   38.2240   23.3240   35.0500 C   0  0  0  0  0  0  0  0  0  0  0  0
   37.6340   23.1540   36.3240 C   0  0  0  0  0  0  0  0  0  0  0  0
   37.6150   24.1680   37.2360 N   0  0  0  0  0  0  0  0  0  0  0  0
   38.1800   25.3610   36.8960 C   0  0  0  0  0  0  0  0  0  0  0  0
   38.7430   25.5420   35.7000 N   0  0  0  0  0  0  0  0  0  0  0  0
   37.0320   21.9030   36.7420 N   0  0  0  0  0  0  0  0  0  0  0  0
   39.6330   21.8770   33.7020 C   0  0  0  0  0  0  0  0  0  0  0  0
   37.9029   22.1752   32.0527 H   0  0  0  0  0  0  0  0  0  0  0  0
   37.1856   23.5827   32.9483 H   0  0  0  0  0  0  0  0  0  0  0  0
   35.3068   22.3109   33.6450 H   0  0  0  0  0  0  0  0  0  0  0  0
   37.3603   20.1153   33.1895 H   0  0  0  0  0  0  0  0  0  0  0  0
   36.3283   20.4269   34.6275 H   0  0  0  0  0  0  0  0  0  0  0  0
   35.5085   18.4634   33.4604 H   0  0  0  0  0  0  0  0  0  0  0  0
   34.3311   19.8033   33.2663 H   0  0  0  0  0  0  0  0  0  0  0  0
   36.0819   18.4667   31.2648 H   0  0  0  0  0  0  0  0  0  0  0  0
   34.4652   19.2640   31.0799 H   0  0  0  0  0  0  0  0  0  0  0  0
   37.2147   20.5610   31.1305 H   0  0  0  0  0  0  0  0  0  0  0  0
   36.0037   20.6176   29.8345 H   0  0  0  0  0  0  0  0  0  0  0  0
   34.3912   21.7260   31.6145 H   0  0  0  0  0  0  0  0  0  0  0  0
   36.1744   23.6091   31.5547 H   0  0  0  0  0  0  0  0  0  0  0  0
   37.7327   21.3178   34.6103 H   0  0  0  0  0  0  0  0  0  0  0  0
   39.2528   24.7536   33.8070 H   0  0  0  0  0  0  0  0  0  0  0  0
   38.1716   26.1889   37.6203 H   0  0  0  0  0  0  0  0  0  0  0  0
   36.6127   21.8211   37.6792 H   0  0  0  0  0  0  0  0  0  0  0  0
   37.0236   21.0962   36.1017 H   0  0  0  0  0  0  0  0  0  0  0  0
   40.2531   21.7420   34.6005 H   0  0  0  0  0  0  0  0  0  0  0  0
   39.6491   20.9543   33.1033 H   0  0  0  0  0  0  0  0  0  0  0  0
   40.0312   22.7095   33.1033 H   0  0  0  0  0  0  0  0  0  0  0  0
  1  2  1  0
  1  9  1  0
  2  3  1  0
  4  3  1  0
  5  4  1  0
  6  5  1  0
  6  7  1  0
  7  2  1  0
  8  7  1  0
  9 11  1  0
 10 11  2  0
 10 15  1  0
 11 12  1  0
 12 16  1  0
 12 13  2  0
 14 13  1  0
 15 14  2  0
 17  9  1  0
  1 18  1  0
  1 19  1  0
  2 20  1  1
  3 21  1  0
  3 22  1  0
  4 23  1  0
  4 24  1  0
  5 25  1  0
  5 26  1  0
  6 27  1  0
  6 28  1  0
  7 29  1  1
  8 30  1  0
  9 31  1  1
 10 32  1  0
 14 33  1  0
 16 34  1  0
 16 35  1  0
 17 36  1  0
 17 37  1  0
 17 38  1  0
M  ISO  8  18   8  19   8  20  13  21  13  22  13  23  13  24  13  25  13
M  ISO  8  26  13  27  13  28  13  29  13  30   3  31   8  32  14  33  14
M  ISO  3  36   8  37   8  38   8
M  END
>  <minimizedAffinity>  (1) 
-4.13487196

>  <minimizedRMSD>  (1) 
0.704292834

$$$$
