
     RDKit          3D

 38 41  0  0  1  0  0  0  0  0999 V2000
   40.7590   24.8070   34.9540 C   0  0  0  0  0  0  0  0  0  0  0  0
   41.9950   24.1210   34.9320 C   0  0  0  0  0  0  0  0  0  0  0  0
   43.0950   24.8740   34.5600 C   0  0  0  0  0  0  0  0  0  0  0  0
   42.9320   26.2220   34.2380 C   0  0  0  0  0  0  0  0  0  0  0  0
   41.6790   26.8190   34.2850 C   0  0  0  0  0  0  0  0  0  0  0  0
   40.5460   26.1320   34.6450 C   0  0  0  0  0  0  0  0  0  0  0  0
   39.3830   26.9660   34.6200 C   0  0  2  0  0  0  0  0  0  0  0  0
   38.5740   26.9930   35.9050 C   0  0  0  0  0  0  0  0  0  0  0  0
   37.4210   27.8860   35.4300 C   0  0  0  0  0  0  0  0  0  0  0  0
   37.2500   27.5410   33.9550 C   0  0  0  0  0  0  0  0  0  0  0  0
   38.2550   26.4010   33.7170 C   0  0  1  0  0  0  0  0  0  0  0  0
   38.6430   26.3610   32.3120 C   0  0  0  0  0  0  0  0  0  0  0  0
   38.7850   25.3560   31.4380 N   0  0  0  0  0  0  0  0  0  0  0  0
   39.1510   25.8040   30.2870 O   0  0  0  0  0  0  0  0  0  0  0  0
   39.2680   27.1270   30.3450 C   0  0  0  0  0  0  0  0  0  0  0  0
   38.9500   27.4660   31.6080 N   0  0  0  0  0  0  0  0  0  0  0  0
   39.2750   23.9260   36.7210 C   0  0  0  0  0  0  0  0  0  0  0  0
   39.6250   23.9880   35.3470 C   0  0  0  0  0  0  0  0  0  0  0  0
   38.8860   23.2710   34.4140 C   0  0  0  0  0  0  0  0  0  0  0  0
   37.8440   22.5180   34.8030 N   0  0  0  0  0  0  0  0  0  0  0  0
   37.5130   22.4660   36.1530 C   0  0  0  0  0  0  0  0  0  0  0  0
   38.2210   23.1610   37.0930 N   0  0  0  0  0  0  0  0  0  0  0  0
   42.0772   23.0558   35.1941 H   0  0  0  0  0  0  0  0  0  0  0  0
   44.0926   24.4123   34.5184 H   0  0  0  0  0  0  0  0  0  0  0  0
   43.8073   26.8194   33.9431 H   0  0  0  0  0  0  0  0  0  0  0  0
   41.5908   27.8838   34.0236 H   0  0  0  0  0  0  0  0  0  0  0  0
   39.8433   27.9221   34.3302 H   0  0  0  0  0  0  0  0  0  0  0  0
   38.2282   25.9907   36.1980 H   0  0  0  0  0  0  0  0  0  0  0  0
   39.1106   27.3418   36.7997 H   0  0  0  0  0  0  0  0  0  0  0  0
   36.5009   27.6630   35.9902 H   0  0  0  0  0  0  0  0  0  0  0  0
   37.6290   28.9547   35.5871 H   0  0  0  0  0  0  0  0  0  0  0  0
   36.2229   27.2053   33.7491 H   0  0  0  0  0  0  0  0  0  0  0  0
   37.4271   28.4041   33.2964 H   0  0  0  0  0  0  0  0  0  0  0  0
   37.9307   25.3724   33.9334 H   0  0  0  0  0  0  0  0  0  0  0  0
   39.5634   27.8040   29.5299 H   0  0  0  0  0  0  0  0  0  0  0  0
   39.8497   24.4894   37.4708 H   0  0  0  0  0  0  0  0  0  0  0  0
   39.1563   23.3204   33.3489 H   0  0  0  0  0  0  0  0  0  0  0  0
   36.6596   21.8497   36.4722 H   0  0  0  0  0  0  0  0  0  0  0  0
  1 18  1  0
  2  1  2  0
  3  2  1  0
  4  5  1  0
  4  3  2  0
  5  6  2  0
  6  1  1  0
  7  6  1  0
  7  8  1  0
  9  8  1  0
 10  9  1  0
 11 10  1  0
 11  7  1  0
 12 11  1  0
 13 12  2  0
 14 15  1  0
 14 13  1  0
 15 16  2  0
 16 12  1  0
 17 22  2  0
 18 17  1  0
 19 20  1  0
 19 18  2  0
 20 21  2  0
 21 22  1  0
  2 23  1  0
  3 24  1  0
  4 25  1  0
  5 26  1  0
  7 27  1  6
  8 28  1  0
  8 29  1  0
  9 30  1  0
  9 31  1  0
 10 32  1  0
 10 33  1  0
 11 34  1  1
 15 35  1  0
 17 36  1  0
 19 37  1  0
 21 38  1  0
M  ISO  8  23  14  24  14  25  14  26  14  27  13  28  13  29  13  30  13
M  ISO  8  31  13  32  13  33  13  34  13  35  14  36  14  37  14  38  14
M  END
>  <minimizedAffinity>  (1) 
-5.06801414

>  <minimizedRMSD>  (1) 
6.61430073

$$$$
