
     RDKit          3D

 40 43  0  0  1  0  0  0  0  0999 V2000
   37.5010   22.9980   32.4430 C   0  0  2  0  0  0  0  0  0  0  0  0
   37.0250   21.8720   31.5490 C   0  0  0  0  0  0  0  0  0  0  0  0
   35.5550   22.3030   31.4020 C   0  0  0  0  0  0  0  0  0  0  0  0
   35.5930   23.8310   31.4590 C   0  0  0  0  0  0  0  0  0  0  0  0
   37.1010   24.1360   31.4780 C   0  0  1  0  0  0  0  0  0  0  0  0
   39.6280   23.2170   33.8940 C   0  0  0  0  0  0  0  0  0  0  0  0
   41.0260   23.1800   34.0400 C   0  0  0  0  0  0  0  0  0  0  0  0
   41.7310   22.8750   32.8800 C   0  0  0  0  0  0  0  0  0  0  0  0
   41.0500   22.6350   31.6890 C   0  0  0  0  0  0  0  0  0  0  0  0
   39.6600   22.6940   31.6400 C   0  0  0  0  0  0  0  0  0  0  0  0
   38.9010   22.9900   32.7480 C   0  0  0  0  0  0  0  0  0  0  0  0
   38.8560   24.8810   35.5520 C   0  0  0  0  0  0  0  0  0  0  0  0
   38.9150   23.5310   35.1250 C   0  0  0  0  0  0  0  0  0  0  0  0
   38.2970   22.5390   35.8790 C   0  0  0  0  0  0  0  0  0  0  0  0
   37.6440   22.8510   37.0130 N   0  0  0  0  0  0  0  0  0  0  0  0
   37.5940   24.1780   37.4190 C   0  0  0  0  0  0  0  0  0  0  0  0
   38.1910   25.1730   36.7000 N   0  0  0  0  0  0  0  0  0  0  0  0
   37.4040   25.4290   31.9590 N   0  0  0  0  0  0  0  0  0  0  0  0
   36.8000   26.0410   32.9420 N   0  0  0  0  0  0  0  0  0  0  0  0
   37.3500   27.2660   33.1330 C   0  0  0  0  0  0  0  0  0  0  0  0
   38.3680   27.4090   32.1910 C   0  0  0  0  0  0  0  0  0  0  0  0
   38.3850   26.2420   31.4620 C   0  0  0  0  0  0  0  0  0  0  0  0
   37.0899   23.0106   33.4632 H   0  0  0  0  0  0  0  0  0  0  0  0
   37.5515   21.8587   30.5833 H   0  0  0  0  0  0  0  0  0  0  0  0
   37.1882   20.8547   31.9343 H   0  0  0  0  0  0  0  0  0  0  0  0
   34.9477   21.8987   32.2252 H   0  0  0  0  0  0  0  0  0  0  0  0
   35.1027   21.9316   30.4706 H   0  0  0  0  0  0  0  0  0  0  0  0
   35.1110   24.2723   30.5742 H   0  0  0  0  0  0  0  0  0  0  0  0
   35.0543   24.2473   32.3230 H   0  0  0  0  0  0  0  0  0  0  0  0
   37.6173   24.1559   30.5069 H   0  0  0  0  0  0  0  0  0  0  0  0
   41.5252   23.3775   35.0001 H   0  0  0  0  0  0  0  0  0  0  0  0
   42.8295   22.8232   32.9036 H   0  0  0  0  0  0  0  0  0  0  0  0
   41.6168   22.3962   30.7770 H   0  0  0  0  0  0  0  0  0  0  0  0
   39.1523   22.4975   30.6841 H   0  0  0  0  0  0  0  0  0  0  0  0
   39.3390   25.6765   34.9656 H   0  0  0  0  0  0  0  0  0  0  0  0
   38.3425   21.4917   35.5456 H   0  0  0  0  0  0  0  0  0  0  0  0
   37.0588   24.4344   38.3452 H   0  0  0  0  0  0  0  0  0  0  0  0
   37.0496   28.0069   33.8885 H   0  0  0  0  0  0  0  0  0  0  0  0
   39.0259   28.2804   32.0573 H   0  0  0  0  0  0  0  0  0  0  0  0
   39.0647   26.0058   30.6300 H   0  0  0  0  0  0  0  0  0  0  0  0
  1 11  1  0
  2  1  1  0
  3  4  1  0
  3  2  1  0
  4  5  1  0
  5 18  1  0
  5  1  1  0
  6  7  2  0
  6 13  1  0
  8  7  1  0
  9  8  2  0
 10  9  1  0
 10 11  2  0
 11  6  1  0
 12 17  2  0
 13 12  1  0
 13 14  2  0
 14 15  1  0
 15 16  2  0
 17 16  1  0
 18 19  1  0
 19 20  2  0
 21 20  1  0
 22 18  1  0
 22 21  2  0
  1 23  1  1
  2 24  1  0
  2 25  1  0
  3 26  1  0
  3 27  1  0
  4 28  1  0
  4 29  1  0
  5 30  1  6
  7 31  1  0
  8 32  1  0
  9 33  1  0
 10 34  1  0
 12 35  1  0
 14 36  1  0
 16 37  1  0
 20 38  1  0
 21 39  1  0
 22 40  1  0
M  ISO  8  23  13  24  13  25  13  26  13  27  13  28  13  29  13  30  13
M  ISO  8  31  14  32  14  33  14  34  14  35  14  36  14  37  14  38  14
M  ISO  2  39  14  40  14
M  END
>  <minimizedAffinity>  (1) 
-4.52826357

>  <minimizedRMSD>  (1) 
4.54721403

$$$$
