
     RDKit          3D

 49 53  0  0  1  0  0  0  0  0999 V2000
   37.3300   23.3930   32.7510 C   0  0  0  0  0  0  0  0  0  0  0  0
   37.2580   24.7940   32.6710 C   0  0  0  0  0  0  0  0  0  0  0  0
   36.2660   25.3130   31.8680 C   0  0  0  0  0  0  0  0  0  0  0  0
   35.4070   24.4440   31.1910 C   0  0  0  0  0  0  0  0  0  0  0  0
   35.5360   23.0710   31.3140 C   0  0  0  0  0  0  0  0  0  0  0  0
   36.5150   22.4960   32.1100 C   0  0  0  0  0  0  0  0  0  0  0  0
   38.2350   23.0020   35.0240 C   0  0  0  0  0  0  0  0  0  0  0  0
   38.3870   22.8840   33.6100 C   0  0  0  0  0  0  0  0  0  0  0  0
   39.5200   22.3010   33.0820 C   0  0  0  0  0  0  0  0  0  0  0  0
   40.4820   21.8440   33.9090 N   0  0  0  0  0  0  0  0  0  0  0  0
   40.3340   21.9580   35.2730 C   0  0  0  0  0  0  0  0  0  0  0  0
   39.2160   22.5350   35.8250 N   0  0  0  0  0  0  0  0  0  0  0  0
   41.4220   21.4370   36.0310 N   0  0  0  0  0  0  0  0  0  0  0  0
   41.6150   21.3520   37.3600 C   0  0  0  0  0  0  0  0  0  0  0  0
   42.8290   20.7660   37.5590 N   0  0  0  0  0  0  0  0  0  0  0  0
   43.3930   20.4860   36.3680 C   0  0  0  0  0  0  0  0  0  0  0  0
   44.5960   19.9010   35.9790 C   0  0  0  0  0  0  0  0  0  0  0  0
   45.4210   19.5070   36.8710 O   0  0  0  0  0  0  0  0  0  0  0  0
   44.9230   19.7340   34.6670 N   0  0  0  0  0  0  0  0  0  0  0  0
   44.0220   20.1650   33.7690 C   0  0  0  0  0  0  0  0  0  0  0  0
   44.3080   20.0170   32.3820 N   0  0  0  0  0  0  0  0  0  0  0  0
   42.8720   20.7230   34.1330 N   0  0  0  0  0  0  0  0  0  0  0  0
   42.4980   20.9120   35.4150 C   0  0  0  0  0  0  0  0  0  0  0  0
   36.4540   21.0590   32.0530 C   0  0  2  0  0  0  0  0  0  0  0  0
   36.0120   20.4520   30.7620 C   0  0  0  0  0  0  0  0  0  0  0  0
   36.0140   18.9730   31.2060 C   0  0  0  0  0  0  0  0  0  0  0  0
   35.5050   19.0340   32.6550 C   0  0  0  0  0  0  0  0  0  0  0  0
   35.2450   20.5210   32.9030 C   0  0  1  0  0  0  0  0  0  0  0  0
   35.4840   20.7960   34.2930 N   0  0  0  0  0  0  0  0  0  0  0  0
   37.9567   25.4421   33.2204 H   0  0  0  0  0  0  0  0  0  0  0  0
   36.1515   26.4018   31.7610 H   0  0  0  0  0  0  0  0  0  0  0  0
   34.6149   24.8575   30.5495 H   0  0  0  0  0  0  0  0  0  0  0  0
   34.8421   22.4177   30.7646 H   0  0  0  0  0  0  0  0  0  0  0  0
   37.3345   23.4652   35.4535 H   0  0  0  0  0  0  0  0  0  0  0  0
   39.6382   22.2093   31.9922 H   0  0  0  0  0  0  0  0  0  0  0  0
   40.9205   21.6929   38.1420 H   0  0  0  0  0  0  0  0  0  0  0  0
   45.8123   19.3010   34.3796 H   0  0  0  0  0  0  0  0  0  0  0  0
   45.1944   19.5867   32.0820 H   0  0  0  0  0  0  0  0  0  0  0  0
   43.6284   20.3402   31.6787 H   0  0  0  0  0  0  0  0  0  0  0  0
   37.4856   20.8069   32.3400 H   0  0  0  0  0  0  0  0  0  0  0  0
   36.7251   20.6429   29.9465 H   0  0  0  0  0  0  0  0  0  0  0  0
   35.0646   20.8306   30.3506 H   0  0  0  0  0  0  0  0  0  0  0  0
   35.3401   18.3726   30.5773 H   0  0  0  0  0  0  0  0  0  0  0  0
   37.0034   18.5002   31.1185 H   0  0  0  0  0  0  0  0  0  0  0  0
   34.5780   18.4525   32.7670 H   0  0  0  0  0  0  0  0  0  0  0  0
   36.2236   18.6083   33.3708 H   0  0  0  0  0  0  0  0  0  0  0  0
   34.2470   20.9171   32.6639 H   0  0  0  0  0  0  0  0  0  0  0  0
   34.9249   20.1527   34.8713 H   0  0  0  0  0  0  0  0  0  0  0  0
   36.4840   20.6645   34.5020 H   0  0  0  0  0  0  0  0  0  0  0  0
  1  8  1  0
  2  1  2  0
  3  2  1  0
  4  5  1  0
  4  3  2  0
  5  6  2  0
  6  1  1  0
  7 12  2  0
  8  7  1  0
  9  8  2  0
  9 10  1  0
 10 11  2  0
 11 12  1  0
 11 13  1  0
 13 14  1  0
 14 15  2  0
 16 15  1  0
 17 16  1  0
 17 18  2  0
 19 17  1  0
 20 22  2  0
 20 19  1  0
 21 20  1  0
 22 23  1  0
 23 13  1  0
 23 16  2  0
 24  6  1  0
 24 28  1  0
 25 26  1  0
 25 24  1  0
 26 27  1  0
 27 28  1  0
 28 29  1  0
  2 30  1  0
  3 31  1  0
  4 32  1  0
  5 33  1  0
  7 34  1  0
  9 35  1  0
 14 36  1  0
 19 37  1  0
 21 38  1  0
 21 39  1  0
 24 40  1  1
 25 41  1  0
 25 42  1  0
 26 43  1  0
 26 44  1  0
 27 45  1  0
 27 46  1  0
 28 47  1  6
 29 48  1  0
 29 49  1  0
M  ISO  8  30  14  31  14  32  14  33  14  34  14  35  14  36  14  37   9
M  ISO  8  40  13  41  13  42  13  43  13  44  13  45  13  46  13  47  13
M  ISO  2  48   5  49   5
M  END
>  <minimizedAffinity>  (1) 
-5.86458302

>  <minimizedRMSD>  (1) 
0.427238345

$$$$
