
     RDKit          3D

 46 50  0  0  1  0  0  0  0  0999 V2000
   37.3200   23.3990   32.7090 C   0  0  0  0  0  0  0  0  0  0  0  0
   37.2490   24.7990   32.6600 C   0  0  0  0  0  0  0  0  0  0  0  0
   36.2430   25.3270   31.8690 C   0  0  0  0  0  0  0  0  0  0  0  0
   35.3830   24.4750   31.1870 C   0  0  0  0  0  0  0  0  0  0  0  0
   35.5260   23.0910   31.2930 C   0  0  0  0  0  0  0  0  0  0  0  0
   36.5010   22.5170   32.0590 C   0  0  0  0  0  0  0  0  0  0  0  0
   38.1330   22.6500   34.9280 C   0  0  0  0  0  0  0  0  0  0  0  0
   38.3920   22.8790   33.5520 C   0  0  0  0  0  0  0  0  0  0  0  0
   39.6450   22.6130   33.0360 C   0  0  0  0  0  0  0  0  0  0  0  0
   40.6210   22.1380   33.8330 N   0  0  0  0  0  0  0  0  0  0  0  0
   40.3510   21.9200   35.1700 C   0  0  0  0  0  0  0  0  0  0  0  0
   39.1250   22.1710   35.7110 N   0  0  0  0  0  0  0  0  0  0  0  0
   41.4180   21.4200   35.9470 N   0  0  0  0  0  0  0  0  0  0  0  0
   41.5020   21.4850   37.2940 C   0  0  0  0  0  0  0  0  0  0  0  0
   42.6550   20.9090   37.6960 N   0  0  0  0  0  0  0  0  0  0  0  0
   43.3200   20.4700   36.5980 C   0  0  0  0  0  0  0  0  0  0  0  0
   44.5350   19.8210   36.4930 C   0  0  0  0  0  0  0  0  0  0  0  0
   44.9480   19.5020   35.2330 N   0  0  0  0  0  0  0  0  0  0  0  0
   44.1830   19.8190   34.1780 C   0  0  0  0  0  0  0  0  0  0  0  0
   42.9990   20.4560   34.3270 N   0  0  0  0  0  0  0  0  0  0  0  0
   42.5200   20.8050   35.5210 C   0  0  0  0  0  0  0  0  0  0  0  0
   36.4570   21.0800   31.9710 C   0  0  2  0  0  0  0  0  0  0  0  0
   36.0970   20.4950   30.6380 C   0  0  0  0  0  0  0  0  0  0  0  0
   36.0480   19.0050   31.0520 C   0  0  0  0  0  0  0  0  0  0  0  0
   35.5120   19.0290   32.4840 C   0  0  0  0  0  0  0  0  0  0  0  0
   35.2320   20.5070   32.7600 C   0  0  1  0  0  0  0  0  0  0  0  0
   35.4110   20.7560   34.1650 N   0  0  0  0  0  0  0  0  0  0  0  0
   37.9501   25.4385   33.2163 H   0  0  0  0  0  0  0  0  0  0  0  0
   36.1249   26.4171   31.7807 H   0  0  0  0  0  0  0  0  0  0  0  0
   34.5835   24.8947   30.5588 H   0  0  0  0  0  0  0  0  0  0  0  0
   34.8309   22.4407   30.7417 H   0  0  0  0  0  0  0  0  0  0  0  0
   37.1395   22.8592   35.3513 H   0  0  0  0  0  0  0  0  0  0  0  0
   39.8467   22.7899   31.9692 H   0  0  0  0  0  0  0  0  0  0  0  0
   40.7499   21.9359   37.9581 H   0  0  0  0  0  0  0  0  0  0  0  0
   45.1379   19.5744   37.3794 H   0  0  0  0  0  0  0  0  0  0  0  0
   44.5267   19.5546   33.1671 H   0  0  0  0  0  0  0  0  0  0  0  0
   37.4757   20.8319   32.3037 H   0  0  0  0  0  0  0  0  0  0  0  0
   36.8676   20.6894   29.8775 H   0  0  0  0  0  0  0  0  0  0  0  0
   35.1841   20.8929   30.1708 H   0  0  0  0  0  0  0  0  0  0  0  0
   35.3733   18.4392   30.3927 H   0  0  0  0  0  0  0  0  0  0  0  0
   37.0304   18.5156   30.9788 H   0  0  0  0  0  0  0  0  0  0  0  0
   34.5888   18.4363   32.5642 H   0  0  0  0  0  0  0  0  0  0  0  0
   36.2206   18.5946   33.2045 H   0  0  0  0  0  0  0  0  0  0  0  0
   34.2384   20.8965   32.4933 H   0  0  0  0  0  0  0  0  0  0  0  0
   34.8999   20.0451   34.7075 H   0  0  0  0  0  0  0  0  0  0  0  0
   36.4135   20.7097   34.3969 H   0  0  0  0  0  0  0  0  0  0  0  0
  1  8  1  0
  2  1  2  0
  3  2  1  0
  4  5  1  0
  4  3  2  0
  5  6  2  0
  6  1  1  0
  7 12  2  0
  8  7  1  0
  9  8  2  0
  9 10  1  0
 10 11  2  0
 11 12  1  0
 11 13  1  0
 13 14  1  0
 14 15  2  0
 16 15  1  0
 17 16  2  0
 18 17  1  0
 19 20  1  0
 19 18  2  0
 20 21  2  0
 21 13  1  0
 21 16  1  0
 22  6  1  0
 22 26  1  0
 23 24  1  0
 23 22  1  0
 24 25  1  0
 25 26  1  0
 26 27  1  0
  2 28  1  0
  3 29  1  0
  4 30  1  0
  5 31  1  0
  7 32  1  0
  9 33  1  0
 14 34  1  0
 17 35  1  0
 19 36  1  0
 22 37  1  1
 23 38  1  0
 23 39  1  0
 24 40  1  0
 24 41  1  0
 25 42  1  0
 25 43  1  0
 26 44  1  6
 27 45  1  0
 27 46  1  0
M  ISO  8  28  14  29  14  30  14  31  14  32  14  33  14  34  14  35  14
M  ISO  8  36  14  37  13  38  13  39  13  40  13  41  13  42  13  43  13
M  ISO  3  44  13  45   5  46   5
M  END
>  <minimizedAffinity>  (1) 
-5.63813543

>  <minimizedRMSD>  (1) 
0.221907035

$$$$
