
     RDKit          3D

 38 40  0  0  1  0  0  0  0  0999 V2000
   37.3190   23.3910   32.8610 C   0  0  0  0  0  0  0  0  0  0  0  0
   37.2270   24.7790   32.7220 C   0  0  0  0  0  0  0  0  0  0  0  0
   36.3040   25.2410   31.7950 C   0  0  0  0  0  0  0  0  0  0  0  0
   35.5470   24.3190   31.0780 C   0  0  0  0  0  0  0  0  0  0  0  0
   35.6930   22.9580   31.2700 C   0  0  0  0  0  0  0  0  0  0  0  0
   36.5980   22.4460   32.1820 C   0  0  0  0  0  0  0  0  0  0  0  0
   36.5780   21.0050   32.1820 C   0  0  2  0  0  0  0  0  0  0  0  0
   36.2790   20.3300   30.8870 C   0  0  0  0  0  0  0  0  0  0  0  0
   36.2510   18.8710   31.3930 C   0  0  0  0  0  0  0  0  0  0  0  0
   35.6320   18.9800   32.7960 C   0  0  0  0  0  0  0  0  0  0  0  0
   35.3110   20.4650   32.9450 C   0  0  1  0  0  0  0  0  0  0  0  0
   35.4160   20.8100   34.3380 N   0  0  0  0  0  0  0  0  0  0  0  0
   37.9670   23.0460   35.2320 C   0  0  0  0  0  0  0  0  0  0  0  0
   38.2930   22.9470   33.8470 C   0  0  0  0  0  0  0  0  0  0  0  0
   39.5230   22.4320   33.4680 C   0  0  0  0  0  0  0  0  0  0  0  0
   40.4120   22.0250   34.3970 N   0  0  0  0  0  0  0  0  0  0  0  0
   40.0700   22.1330   35.7370 C   0  0  0  0  0  0  0  0  0  0  0  0
   38.8790   22.6300   36.1460 N   0  0  0  0  0  0  0  0  0  0  0  0
   41.0660   21.6790   36.7020 C   0  0  0  0  0  0  0  0  0  0  0  0
   42.2180   21.4110   36.2860 O   0  0  0  0  0  0  0  0  0  0  0  0
   40.7010   21.5630   38.0350 O   0  0  0  0  0  0  0  0  0  0  0  0
   37.8506   25.4654   33.3136 H   0  0  0  0  0  0  0  0  0  0  0  0
   36.1723   26.3204   31.6290 H   0  0  0  0  0  0  0  0  0  0  0  0
   34.8153   24.6820   30.3412 H   0  0  0  0  0  0  0  0  0  0  0  0
   35.0736   22.2644   30.6825 H   0  0  0  0  0  0  0  0  0  0  0  0
   37.5853   20.7976   32.5723 H   0  0  0  0  0  0  0  0  0  0  0  0
   37.0701   20.4951   30.1408 H   0  0  0  0  0  0  0  0  0  0  0  0
   35.3729   20.6734   30.3664 H   0  0  0  0  0  0  0  0  0  0  0  0
   35.6300   18.2414   30.7388 H   0  0  0  0  0  0  0  0  0  0  0  0
   37.2476   18.4056   31.4032 H   0  0  0  0  0  0  0  0  0  0  0  0
   34.7172   18.3733   32.8678 H   0  0  0  0  0  0  0  0  0  0  0  0
   36.3044   18.6115   33.5847 H   0  0  0  0  0  0  0  0  0  0  0  0
   34.3288   20.8171   32.5966 H   0  0  0  0  0  0  0  0  0  0  0  0
   35.1673   19.9929   34.9137 H   0  0  0  0  0  0  0  0  0  0  0  0
   36.3825   21.0971   34.5487 H   0  0  0  0  0  0  0  0  0  0  0  0
   36.9959   23.4514   35.5524 H   0  0  0  0  0  0  0  0  0  0  0  0
   39.7761   22.3546   32.4003 H   0  0  0  0  0  0  0  0  0  0  0  0
   41.3627   21.2566   38.7046 H   0  0  0  0  0  0  0  0  0  0  0  0
  1 14  1  0
  2  1  2  0
  3  2  1  0
  4  5  1  0
  4  3  2  0
  5  6  2  0
  6  7  1  0
  6  1  1  0
  7 11  1  0
  8  9  1  0
  8  7  1  0
  9 10  1  0
 10 11  1  0
 11 12  1  0
 13 18  2  0
 14 13  1  0
 15 14  2  0
 15 16  1  0
 16 17  2  0
 17 18  1  0
 17 19  1  0
 19 21  1  0
 20 19  2  0
  2 22  1  0
  3 23  1  0
  4 24  1  0
  5 25  1  0
  7 26  1  1
  8 27  1  0
  8 28  1  0
  9 29  1  0
  9 30  1  0
 10 31  1  0
 10 32  1  0
 11 33  1  6
 12 34  1  0
 12 35  1  0
 13 36  1  0
 15 37  1  0
 21 38  1  0
M  ISO  8  22  14  23  14  24  14  25  14  26  13  27  13  28  13  29  13
M  ISO  8  30  13  31  13  32  13  33  13  34   5  35   5  36  14  37  14
M  ISO  1  38   3
M  END
>  <minimizedAffinity>  (1) 
-5.62731934

>  <minimizedRMSD>  (1) 
0.391195267

$$$$
