
     RDKit          3D

 42 45  0  0  1  0  0  0  0  0999 V2000
   37.3070   23.4250   32.7990 C   0  0  0  0  0  0  0  0  0  0  0  0
   37.2580   24.8220   32.7230 C   0  0  0  0  0  0  0  0  0  0  0  0
   36.3170   25.3530   31.8670 C   0  0  0  0  0  0  0  0  0  0  0  0
   35.4850   24.4920   31.1400 C   0  0  0  0  0  0  0  0  0  0  0  0
   35.6050   23.1110   31.2790 C   0  0  0  0  0  0  0  0  0  0  0  0
   36.5230   22.5380   32.1140 C   0  0  0  0  0  0  0  0  0  0  0  0
   36.4650   21.1050   32.0440 C   0  0  2  0  0  0  0  0  0  0  0  0
   36.0950   20.5030   30.7200 C   0  0  0  0  0  0  0  0  0  0  0  0
   36.0380   19.0180   31.1530 C   0  0  0  0  0  0  0  0  0  0  0  0
   35.5270   19.0610   32.5970 C   0  0  0  0  0  0  0  0  0  0  0  0
   35.2450   20.5470   32.8550 C   0  0  1  0  0  0  0  0  0  0  0  0
   35.4430   20.8090   34.2510 N   0  0  0  0  0  0  0  0  0  0  0  0
   38.0670   22.9840   35.1190 C   0  0  0  0  0  0  0  0  0  0  0  0
   38.3170   22.9080   33.7220 C   0  0  0  0  0  0  0  0  0  0  0  0
   39.4940   22.3560   33.2660 C   0  0  0  0  0  0  0  0  0  0  0  0
   40.4070   21.8900   34.1420 N   0  0  0  0  0  0  0  0  0  0  0  0
   40.1510   21.9710   35.4960 C   0  0  0  0  0  0  0  0  0  0  0  0
   39.0010   22.5090   35.9750 N   0  0  0  0  0  0  0  0  0  0  0  0
   41.2340   21.4240   36.3080 C   0  0  0  0  0  0  0  0  0  0  0  0
   42.4580   20.9830   35.8030 C   0  0  0  0  0  0  0  0  0  0  0  0
   43.1620   20.5550   36.9270 C   0  0  0  0  0  0  0  0  0  0  0  0
   42.3950   20.7330   38.0400 N   0  0  0  0  0  0  0  0  0  0  0  0
   41.2330   21.2600   37.6460 N   0  0  0  0  0  0  0  0  0  0  0  0
   37.9324   25.4600   33.3131 H   0  0  0  0  0  0  0  0  0  0  0  0
   36.2203   26.4431   31.7558 H   0  0  0  0  0  0  0  0  0  0  0  0
   34.7321   24.9089   30.4550 H   0  0  0  0  0  0  0  0  0  0  0  0
   34.9376   22.4589   30.6964 H   0  0  0  0  0  0  0  0  0  0  0  0
   37.4850   20.8554   32.3716 H   0  0  0  0  0  0  0  0  0  0  0  0
   36.8634   20.6823   29.9536 H   0  0  0  0  0  0  0  0  0  0  0  0
   35.1820   20.9002   30.2524 H   0  0  0  0  0  0  0  0  0  0  0  0
   35.3461   18.4520   30.5120 H   0  0  0  0  0  0  0  0  0  0  0  0
   37.0147   18.5191   31.0687 H   0  0  0  0  0  0  0  0  0  0  0  0
   34.6080   18.4658   32.7031 H   0  0  0  0  0  0  0  0  0  0  0  0
   36.2498   18.6401   33.3114 H   0  0  0  0  0  0  0  0  0  0  0  0
   34.2496   20.9359   32.5945 H   0  0  0  0  0  0  0  0  0  0  0  0
   34.9205   20.1176   34.8076 H   0  0  0  0  0  0  0  0  0  0  0  0
   36.4463   20.7418   34.4740 H   0  0  0  0  0  0  0  0  0  0  0  0
   37.1312   23.4210   35.4975 H   0  0  0  0  0  0  0  0  0  0  0  0
   39.6893   22.2953   32.1852 H   0  0  0  0  0  0  0  0  0  0  0  0
   42.7916   20.9750   34.7548 H   0  0  0  0  0  0  0  0  0  0  0  0
   44.1798   20.1378   36.9176 H   0  0  0  0  0  0  0  0  0  0  0  0
   42.6628   20.5031   39.0076 H   0  0  0  0  0  0  0  0  0  0  0  0
  1 14  1  0
  2  1  2  0
  3  2  1  0
  4  5  1  0
  4  3  2  0
  5  6  2  0
  6  1  1  0
  7  6  1  0
  7 11  1  0
  8  9  1  0
  8  7  1  0
  9 10  1  0
 10 11  1  0
 11 12  1  0
 13 18  2  0
 14 13  1  0
 15 14  2  0
 15 16  1  0
 16 17  2  0
 17 18  1  0
 17 19  1  0
 19 23  2  0
 20 19  1  0
 20 21  2  0
 21 22  1  0
 23 22  1  0
  2 24  1  0
  3 25  1  0
  4 26  1  0
  5 27  1  0
  7 28  1  1
  8 29  1  0
  8 30  1  0
  9 31  1  0
  9 32  1  0
 10 33  1  0
 10 34  1  0
 11 35  1  6
 12 36  1  0
 12 37  1  0
 13 38  1  0
 15 39  1  0
 20 40  1  0
 21 41  1  0
 22 42  1  0
M  ISO  8  24  14  25  14  26  14  27  14  28  13  29  13  30  13  31  13
M  ISO  8  32  13  33  13  34  13  35  13  36   5  37   5  38  14  39  14
M  ISO  3  40  14  41  14  42   9
M  END
>  <minimizedAffinity>  (1) 
-5.35607004

>  <minimizedRMSD>  (1) 
0.322266102

$$$$
