
     RDKit          3D

 40 43  0  0  1  0  0  0  0  0999 V2000
   37.2820   23.4070   32.7700 C   0  0  0  0  0  0  0  0  0  0  0  0
   37.2190   24.7990   32.6790 C   0  0  0  0  0  0  0  0  0  0  0  0
   36.2690   25.3130   31.8180 C   0  0  0  0  0  0  0  0  0  0  0  0
   35.4450   24.4350   31.1060 C   0  0  0  0  0  0  0  0  0  0  0  0
   35.5770   23.0570   31.2610 C   0  0  0  0  0  0  0  0  0  0  0  0
   36.5020   22.5050   32.1000 C   0  0  0  0  0  0  0  0  0  0  0  0
   36.4640   21.0710   32.0440 C   0  0  2  0  0  0  0  0  0  0  0  0
   36.1110   20.4450   30.7280 C   0  0  0  0  0  0  0  0  0  0  0  0
   36.0560   18.9650   31.1860 C   0  0  0  0  0  0  0  0  0  0  0  0
   35.5360   19.0260   32.6220 C   0  0  0  0  0  0  0  0  0  0  0  0
   35.2450   20.5110   32.8590 C   0  0  1  0  0  0  0  0  0  0  0  0
   35.4330   20.7940   34.2550 N   0  0  0  0  0  0  0  0  0  0  0  0
   38.0470   22.9750   35.0920 C   0  0  0  0  0  0  0  0  0  0  0  0
   38.2990   22.9110   33.6930 C   0  0  0  0  0  0  0  0  0  0  0  0
   39.4940   22.3890   33.2390 C   0  0  0  0  0  0  0  0  0  0  0  0
   40.4190   21.9420   34.1110 N   0  0  0  0  0  0  0  0  0  0  0  0
   40.1550   22.0120   35.4640 C   0  0  0  0  0  0  0  0  0  0  0  0
   38.9940   22.5180   35.9450 N   0  0  0  0  0  0  0  0  0  0  0  0
   41.2570   21.4870   36.2580 C   0  0  0  0  0  0  0  0  0  0  0  0
   41.3990   21.3770   37.5940 N   0  0  0  0  0  0  0  0  0  0  0  0
   42.5430   20.8510   37.8740 O   0  0  0  0  0  0  0  0  0  0  0  0
   43.2190   20.5820   36.7780 C   0  0  0  0  0  0  0  0  0  0  0  0
   42.4000   20.9860   35.7890 N   0  0  0  0  0  0  0  0  0  0  0  0
   37.8885   25.4499   33.2605 H   0  0  0  0  0  0  0  0  0  0  0  0
   36.1616   26.4007   31.6936 H   0  0  0  0  0  0  0  0  0  0  0  0
   34.6864   24.8362   30.4179 H   0  0  0  0  0  0  0  0  0  0  0  0
   34.9141   22.3915   30.6885 H   0  0  0  0  0  0  0  0  0  0  0  0
   37.4867   20.8379   32.3754 H   0  0  0  0  0  0  0  0  0  0  0  0
   36.8866   20.6149   29.9667 H   0  0  0  0  0  0  0  0  0  0  0  0
   35.2011   20.8298   30.2444 H   0  0  0  0  0  0  0  0  0  0  0  0
   35.3709   18.3864   30.5490 H   0  0  0  0  0  0  0  0  0  0  0  0
   37.0359   18.4700   31.1174 H   0  0  0  0  0  0  0  0  0  0  0  0
   34.6193   18.4277   32.7298 H   0  0  0  0  0  0  0  0  0  0  0  0
   36.2567   18.6191   33.3466 H   0  0  0  0  0  0  0  0  0  0  0  0
   34.2479   20.8887   32.5885 H   0  0  0  0  0  0  0  0  0  0  0  0
   34.9558   20.0757   34.8182 H   0  0  0  0  0  0  0  0  0  0  0  0
   36.4395   20.7892   34.4738 H   0  0  0  0  0  0  0  0  0  0  0  0
   37.1012   23.3877   35.4731 H   0  0  0  0  0  0  0  0  0  0  0  0
   39.6922   22.3377   32.1582 H   0  0  0  0  0  0  0  0  0  0  0  0
   44.2191   20.1324   36.6903 H   0  0  0  0  0  0  0  0  0  0  0  0
  1 14  1  0
  2  1  2  0
  3  2  1  0
  4  5  1  0
  4  3  2  0
  5  6  2  0
  6  1  1  0
  7  6  1  0
  7 11  1  0
  8  9  1  0
  8  7  1  0
  9 10  1  0
 10 11  1  0
 11 12  1  0
 13 18  2  0
 14 13  1  0
 15 14  2  0
 15 16  1  0
 16 17  2  0
 17 18  1  0
 17 19  1  0
 19 20  2  0
 20 21  1  0
 22 21  1  0
 23 19  1  0
 23 22  2  0
  2 24  1  0
  3 25  1  0
  4 26  1  0
  5 27  1  0
  7 28  1  1
  8 29  1  0
  8 30  1  0
  9 31  1  0
  9 32  1  0
 10 33  1  0
 10 34  1  0
 11 35  1  6
 12 36  1  0
 12 37  1  0
 13 38  1  0
 15 39  1  0
 22 40  1  0
M  ISO  8  24  14  25  14  26  14  27  14  28  13  29  13  30  13  31  13
M  ISO  8  32  13  33  13  34  13  35  13  36   5  37   5  38  14  39  14
M  ISO  1  40  14
M  END
>  <minimizedAffinity>  (1) 
-5.25407743

>  <minimizedRMSD>  (1) 
0.282599241

$$$$
