
     RDKit          3D

 25 27  0  0  0  0  0  0  0  0999 V2000
   39.9890   23.3650   35.8440 C   0  0  0  0  0  0  0  0  0  0  0  0
   39.3960   23.1050   37.0930 C   0  0  0  0  0  0  0  0  0  0  0  0
   38.2440   23.8430   37.4600 C   0  0  0  0  0  0  0  0  0  0  0  0
   37.7760   24.7650   36.5740 N   0  0  0  0  0  0  0  0  0  0  0  0
   38.3760   24.9780   35.3910 C   0  0  0  0  0  0  0  0  0  0  0  0
   39.4750   24.2890   35.0160 N   0  0  0  0  0  0  0  0  0  0  0  0
   37.7170   25.9850   34.6280 N   0  0  0  0  0  0  0  0  0  0  0  0
   37.1780   27.1510   35.0440 C   0  0  0  0  0  0  0  0  0  0  0  0
   36.6450   27.8260   34.0070 N   0  0  0  0  0  0  0  0  0  0  0  0
   36.8540   27.0580   32.8990 C   0  0  0  0  0  0  0  0  0  0  0  0
   36.5170   27.2620   31.5760 C   0  0  0  0  0  0  0  0  0  0  0  0
   35.9030   28.3070   31.1840 O   0  0  0  0  0  0  0  0  0  0  0  0
   36.8250   26.3530   30.6050 N   0  0  0  0  0  0  0  0  0  0  0  0
   37.4740   25.2530   31.0300 C   0  0  0  0  0  0  0  0  0  0  0  0
   37.8160   24.2750   30.0550 N   0  0  0  0  0  0  0  0  0  0  0  0
   37.8160   25.0240   32.3100 N   0  0  0  0  0  0  0  0  0  0  0  0
   37.5200   25.9170   33.2940 C   0  0  0  0  0  0  0  0  0  0  0  0
   37.7140   23.5480   38.6830 O   0  0  0  0  0  0  0  0  0  0  0  0
   40.8856   22.8040   35.5416 H   0  0  0  0  0  0  0  0  0  0  0  0
   39.8172   22.3462   37.7689 H   0  0  0  0  0  0  0  0  0  0  0  0
   37.1745   27.5017   36.0866 H   0  0  0  0  0  0  0  0  0  0  0  0
   36.5779   26.4989   29.6158 H   0  0  0  0  0  0  0  0  0  0  0  0
   38.3131   23.4182   30.3373 H   0  0  0  0  0  0  0  0  0  0  0  0
   37.5665   24.4238   29.0668 H   0  0  0  0  0  0  0  0  0  0  0  0
   36.9083   24.0268   39.0018 H   0  0  0  0  0  0  0  0  0  0  0  0
  1  2  2  0
  2  3  1  0
  3 18  1  0
  4  3  2  0
  5  4  1  0
  6  5  2  0
  6  1  1  0
  7  8  1  0
  7  5  1  0
  9  8  2  0
 10 17  2  0
 10  9  1  0
 11 10  1  0
 12 11  2  0
 13 14  1  0
 13 11  1  0
 14 16  2  0
 15 14  1  0
 16 17  1  0
 17  7  1  0
  1 19  1  0
  2 20  1  0
  8 21  1  0
 13 22  1  0
 15 23  1  0
 15 24  1  0
 18 25  1  0
M  ISO  5  19  14  20  14  21  14  22   9  25   3
M  END
>  <minimizedAffinity>  (1) 
-5.43703651

>  <minimizedRMSD>  (1) 
5.42083788

$$$$
