
     RDKit          3D

 24 26  0  0  0  0  0  0  0  0999 V2000
   41.0140   21.9510   36.2990 C   0  0  0  0  0  0  0  0  0  0  0  0
   40.5880   22.2940   37.6120 C   0  0  0  0  0  0  0  0  0  0  0  0
   39.4000   23.0330   37.7540 C   0  0  0  0  0  0  0  0  0  0  0  0
   38.7220   23.3770   36.6290 N   0  0  0  0  0  0  0  0  0  0  0  0
   39.1600   23.0320   35.4000 C   0  0  0  0  0  0  0  0  0  0  0  0
   40.2900   22.3280   35.2220 N   0  0  0  0  0  0  0  0  0  0  0  0
   38.4540   23.3930   34.2290 N   0  0  0  0  0  0  0  0  0  0  0  0
   38.2230   22.5250   33.2420 C   0  0  0  0  0  0  0  0  0  0  0  0
   37.5290   23.1290   32.2420 N   0  0  0  0  0  0  0  0  0  0  0  0
   37.3030   24.4180   32.5900 C   0  0  0  0  0  0  0  0  0  0  0  0
   36.6870   25.5300   32.0560 C   0  0  0  0  0  0  0  0  0  0  0  0
   36.6690   26.6900   32.7330 N   0  0  0  0  0  0  0  0  0  0  0  0
   37.2540   26.8090   33.9570 C   0  0  0  0  0  0  0  0  0  0  0  0
   37.8700   25.7250   34.5100 N   0  0  0  0  0  0  0  0  0  0  0  0
   37.8950   24.5570   33.8400 C   0  0  0  0  0  0  0  0  0  0  0  0
   36.0830   25.3830   30.7760 N   0  0  0  0  0  0  0  0  0  0  0  0
   39.0470   23.3280   39.0350 O   0  0  0  0  0  0  0  0  0  0  0  0
   41.9402   21.3743   36.1591 H   0  0  0  0  0  0  0  0  0  0  0  0
   41.1722   21.9893   38.4928 H   0  0  0  0  0  0  0  0  0  0  0  0
   38.5471   21.4738   33.2385 H   0  0  0  0  0  0  0  0  0  0  0  0
   37.2300   27.7688   34.4938 H   0  0  0  0  0  0  0  0  0  0  0  0
   35.6103   26.1846   30.3345 H   0  0  0  0  0  0  0  0  0  0  0  0
   36.1185   24.4750   30.2910 H   0  0  0  0  0  0  0  0  0  0  0  0
   38.2225   23.8458   39.2145 H   0  0  0  0  0  0  0  0  0  0  0  0
  1  2  2  0
  2  3  1  0
  3 17  1  0
  4  3  2  0
  5  4  1  0
  6  5  2  0
  6  1  1  0
  7  5  1  0
  8  7  1  0
  9 10  1  0
  9  8  2  0
 10 15  2  0
 11 10  1  0
 11 12  2  0
 12 13  1  0
 13 14  2  0
 15  7  1  0
 15 14  1  0
 16 11  1  0
  1 18  1  0
  2 19  1  0
  8 20  1  0
 13 21  1  0
 16 22  1  0
 16 23  1  0
 17 24  1  0
M  ISO  5  18  14  19  14  20  14  21  14  24   3
M  END
>  <minimizedAffinity>  (1) 
-5.1465621

>  <minimizedRMSD>  (1) 
2.42605257

$$$$
