
     RDKit          3D

 22 23  0  0  0  0  0  0  0  0999 V2000
   40.2020   22.4160   37.1080 C   0  0  0  0  0  0  0  0  0  0  0  0
   39.4680   23.1910   38.0440 C   0  0  0  0  0  0  0  0  0  0  0  0
   38.1140   23.4490   37.8080 C   0  0  0  0  0  0  0  0  0  0  0  0
   37.5640   22.9290   36.6620 N   0  0  0  0  0  0  0  0  0  0  0  0
   38.2970   22.1990   35.7990 C   0  0  0  0  0  0  0  0  0  0  0  0
   39.6070   21.9390   36.0110 N   0  0  0  0  0  0  0  0  0  0  0  0
   37.4700   21.7940   34.7090 N   0  0  0  0  0  0  0  0  0  0  0  0
   37.6460   21.9260   33.3830 C   0  0  0  0  0  0  0  0  0  0  0  0
   36.6860   21.4430   32.5430 C   0  0  0  0  0  0  0  0  0  0  0  0
   35.5580   20.8340   33.0040 C   0  0  0  0  0  0  0  0  0  0  0  0
   34.5760   20.3420   32.1050 N   0  0  0  0  0  0  0  0  0  0  0  0
   35.3900   20.7060   34.3270 N   0  0  0  0  0  0  0  0  0  0  0  0
   36.3420   21.1840   35.1690 C   0  0  0  0  0  0  0  0  0  0  0  0
   36.0390   20.9890   36.3880 O   0  0  0  0  0  0  0  0  0  0  0  0
   37.4750   24.1990   38.7500 O   0  0  0  0  0  0  0  0  0  0  0  0
   41.2670   22.2070   37.2870 H   0  0  0  0  0  0  0  0  0  0  0  0
   39.9595   23.5846   38.9459 H   0  0  0  0  0  0  0  0  0  0  0  0
   38.5469   22.4142   32.9829 H   0  0  0  0  0  0  0  0  0  0  0  0
   36.8273   21.5487   31.4573 H   0  0  0  0  0  0  0  0  0  0  0  0
   33.7282   19.8838   32.4687 H   0  0  0  0  0  0  0  0  0  0  0  0
   34.7111   20.4432   31.0889 H   0  0  0  0  0  0  0  0  0  0  0  0
   36.5154   24.4170   38.6418 H   0  0  0  0  0  0  0  0  0  0  0  0
  1  2  2  0
  3  2  1  0
  3 15  1  0
  4  3  2  0
  5  6  2  0
  5  4  1  0
  6  1  1  0
  7 13  1  0
  7  5  1  0
  8  7  1  0
  9 10  1  0
  9  8  2  0
 10 12  2  0
 11 10  1  0
 12 13  1  0
 13 14  2  0
  1 16  1  0
  2 17  1  0
  8 18  1  0
  9 19  1  0
 11 20  1  0
 11 21  1  0
 15 22  1  0
M  ISO  5  16  14  17  14  18  14  19  14  22   3
M  END
>  <minimizedAffinity>  (1) 
-4.77732515

>  <minimizedRMSD>  (1) 
0.705736816

$$$$
