
     RDKit          3D

 26 27  0  0  0  0  0  0  0  0999 V2000
   40.9740   22.7790   36.2180 C   0  0  0  0  0  0  0  0  0  0  0  0
   40.3070   22.3860   37.4140 C   0  0  0  0  0  0  0  0  0  0  0  0
   39.1510   23.0830   37.7850 C   0  0  0  0  0  0  0  0  0  0  0  0
   38.7270   24.0930   36.9930 N   0  0  0  0  0  0  0  0  0  0  0  0
   39.3760   24.4450   35.8670 C   0  0  0  0  0  0  0  0  0  0  0  0
   40.4990   23.7970   35.4700 N   0  0  0  0  0  0  0  0  0  0  0  0
   38.8930   25.5170   35.0600 N   0  0  0  0  0  0  0  0  0  0  0  0
   39.0860   25.5740   33.6190 C   0  0  0  0  0  0  0  0  0  0  0  0
   38.8730   27.0450   33.2370 C   0  0  0  0  0  0  0  0  0  0  0  0
   37.3590   27.2410   33.3860 C   0  0  0  0  0  0  0  0  0  0  0  0
   37.0180   27.1150   34.8560 C   0  0  0  0  0  0  0  0  0  0  0  0
   38.1750   26.6110   35.6830 C   0  0  0  0  0  0  0  0  0  0  0  0
   38.5620   22.6540   38.9410 O   0  0  0  0  0  0  0  0  0  0  0  0
   41.8840   22.2481   35.9015 H   0  0  0  0  0  0  0  0  0  0  0  0
   40.6897   21.5580   38.0288 H   0  0  0  0  0  0  0  0  0  0  0  0
   40.1036   25.2510   33.3540 H   0  0  0  0  0  0  0  0  0  0  0  0
   38.3907   24.9084   33.0866 H   0  0  0  0  0  0  0  0  0  0  0  0
   39.1932   27.2321   32.2014 H   0  0  0  0  0  0  0  0  0  0  0  0
   39.4570   27.7374   33.8611 H   0  0  0  0  0  0  0  0  0  0  0  0
   37.0730   28.2380   33.0197 H   0  0  0  0  0  0  0  0  0  0  0  0
   36.8145   26.4864   32.7994 H   0  0  0  0  0  0  0  0  0  0  0  0
   36.7204   28.1043   35.2339 H   0  0  0  0  0  0  0  0  0  0  0  0
   36.2026   26.3821   34.9454 H   0  0  0  0  0  0  0  0  0  0  0  0
   37.7867   26.2661   36.6527 H   0  0  0  0  0  0  0  0  0  0  0  0
   38.8840   27.4448   35.7925 H   0  0  0  0  0  0  0  0  0  0  0  0
   37.7399   23.0958   39.2712 H   0  0  0  0  0  0  0  0  0  0  0  0
  1  2  2  0
  2  3  1  0
  3 13  1  0
  4  3  2  0
  5  4  1  0
  6  5  2  0
  6  1  1  0
  7 12  1  0
  7  5  1  0
  8  7  1  0
  9 10  1  0
  9  8  1  0
 10 11  1  0
 11 12  1  0
  1 14  1  0
  2 15  1  0
  8 16  1  0
  8 17  1  0
  9 18  1  0
  9 19  1  0
 10 20  1  0
 10 21  1  0
 11 22  1  0
 11 23  1  0
 12 24  1  0
 12 25  1  0
 13 26  1  0
M  ISO  8  14  14  15  14  16  13  17  13  18  13  19  13  20  13  21  13
M  ISO  5  22  13  23  13  24  13  25  13  26   3
M  END
>  <minimizedAffinity>  (1) 
-4.52289295

>  <minimizedRMSD>  (1) 
3.87629843

$$$$
