
     RDKit          3D

 26 27  0  0  0  0  0  0  0  0999 V2000
   40.5830   22.1640   36.0690 C   0  0  0  0  0  0  0  0  0  0  0  0
   40.0770   22.6580   37.3040 C   0  0  0  0  0  0  0  0  0  0  0  0
   38.7690   23.1310   37.3030 C   0  0  0  0  0  0  0  0  0  0  0  0
   38.0610   23.0960   36.1470 N   0  0  0  0  0  0  0  0  0  0  0  0
   38.5850   22.6150   34.9960 C   0  0  0  0  0  0  0  0  0  0  0  0
   39.8400   22.1520   34.9600 N   0  0  0  0  0  0  0  0  0  0  0  0
   37.7350   22.6250   33.8140 C   0  0  0  0  0  0  0  0  0  0  0  0
   36.9070   21.6030   33.3810 C   0  0  0  0  0  0  0  0  0  0  0  0
   36.2910   22.0540   32.2140 C   0  0  0  0  0  0  0  0  0  0  0  0
   36.7390   23.3030   31.9640 N   0  0  0  0  0  0  0  0  0  0  0  0
   37.5970   23.6230   32.9280 N   0  0  0  0  0  0  0  0  0  0  0  0
   36.4030   24.1920   30.8790 C   0  0  0  0  0  0  0  0  0  0  0  0
   35.0890   24.8960   31.0790 C   0  0  0  0  0  0  0  0  0  0  0  0
   38.2970   23.6300   38.6060 C   0  0  0  0  0  0  0  0  0  0  0  0
   37.8190   24.9010   38.4630 F   0  0  0  0  0  0  0  0  0  0  0  0
   39.4050   23.7030   39.4340 F   0  0  0  0  0  0  0  0  0  0  0  0
   37.2880   22.8390   39.1240 F   0  0  0  0  0  0  0  0  0  0  0  0
   41.6137   21.7819   36.0271 H   0  0  0  0  0  0  0  0  0  0  0  0
   40.6914   22.6654   38.2164 H   0  0  0  0  0  0  0  0  0  0  0  0
   36.7631   20.6252   33.8639 H   0  0  0  0  0  0  0  0  0  0  0  0
   35.5680   21.4917   31.6049 H   0  0  0  0  0  0  0  0  0  0  0  0
   36.3482   23.6056   29.9500 H   0  0  0  0  0  0  0  0  0  0  0  0
   37.1853   24.9640   30.8330 H   0  0  0  0  0  0  0  0  0  0  0  0
   34.8902   25.0025   32.1556 H   0  0  0  0  0  0  0  0  0  0  0  0
   35.1320   25.8919   30.6138 H   0  0  0  0  0  0  0  0  0  0  0  0
   34.2837   24.3085   30.6138 H   0  0  0  0  0  0  0  0  0  0  0  0
  1  2  2  0
  3  2  1  0
  3 14  1  0
  4  3  2  0
  5  4  1  0
  6  5  2  0
  6  1  1  0
  7  5  1  0
  8  7  1  0
  9  8  2  0
 10  9  1  0
 10 11  1  0
 11  7  2  0
 12 13  1  0
 12 10  1  0
 14 17  1  0
 14 16  1  0
 15 14  1  0
  1 18  1  0
  2 19  1  0
  8 20  1  0
  9 21  1  0
 12 22  1  0
 12 23  1  0
 13 24  1  0
 13 25  1  0
 13 26  1  0
M  ISO  8  18  14  19  14  20  14  21  14  22   8  23   8  24   8  25   8
M  ISO  1  26   8
M  END
>  <minimizedAffinity>  (1) 
-4.93457794

>  <minimizedRMSD>  (1) 
0.525469542

$$$$
