
     RDKit          3D

 23 24  0  0  0  0  0  0  0  0999 V2000
   40.7770   23.1050   36.2880 C   0  0  0  0  0  0  0  0  0  0  0  0
   40.2360   22.6720   37.5320 C   0  0  0  0  0  0  0  0  0  0  0  0
   38.9550   23.1270   37.8750 C   0  0  0  0  0  0  0  0  0  0  0  0
   38.3030   23.9570   37.0010 N   0  0  0  0  0  0  0  0  0  0  0  0
   38.8580   24.3330   35.8470 C   0  0  0  0  0  0  0  0  0  0  0  0
   40.0870   23.9180   35.4780 N   0  0  0  0  0  0  0  0  0  0  0  0
   38.1360   25.1910   34.9840 N   0  0  0  0  0  0  0  0  0  0  0  0
   38.0230   24.9940   33.5430 C   0  0  0  0  0  0  0  0  0  0  0  0
   37.1120   26.0680   33.0520 C   0  0  0  0  0  0  0  0  0  0  0  0
   37.4020   27.2010   34.0440 C   0  0  0  0  0  0  0  0  0  0  0  0
   37.3920   26.3940   35.3460 C   0  0  0  0  0  0  0  0  0  0  0  0
   38.4660   22.6890   39.0820 O   0  0  0  0  0  0  0  0  0  0  0  0
   41.7792   22.7657   35.9872 H   0  0  0  0  0  0  0  0  0  0  0  0
   40.8021   22.0053   38.1991 H   0  0  0  0  0  0  0  0  0  0  0  0
   39.0104   25.0828   33.0664 H   0  0  0  0  0  0  0  0  0  0  0  0
   37.6336   23.9938   33.3022 H   0  0  0  0  0  0  0  0  0  0  0  0
   37.3599   26.3639   32.0220 H   0  0  0  0  0  0  0  0  0  0  0  0
   36.0536   25.7710   33.0111 H   0  0  0  0  0  0  0  0  0  0  0  0
   38.3791   27.6708   33.8583 H   0  0  0  0  0  0  0  0  0  0  0  0
   36.7018   28.0486   34.0094 H   0  0  0  0  0  0  0  0  0  0  0  0
   36.3645   26.1478   35.6521 H   0  0  0  0  0  0  0  0  0  0  0  0
   37.8269   26.9360   36.1987 H   0  0  0  0  0  0  0  0  0  0  0  0
   37.5672   22.9731   39.3844 H   0  0  0  0  0  0  0  0  0  0  0  0
  1  2  2  0
  2  3  1  0
  3 12  1  0
  4  3  2  0
  5  4  1  0
  6  5  2  0
  6  1  1  0
  7 11  1  0
  7  5  1  0
  8  7  1  0
  9  8  1  0
  9 10  1  0
 10 11  1  0
  1 13  1  0
  2 14  1  0
  8 15  1  0
  8 16  1  0
  9 17  1  0
  9 18  1  0
 10 19  1  0
 10 20  1  0
 11 21  1  0
 11 22  1  0
 12 23  1  0
M  ISO  8  13  14  14  14  15  13  16  13  17  13  18  13  19  13  20  13
M  ISO  3  21  13  22  13  23   3
M  END
>  <minimizedAffinity>  (1) 
-4.26505184

>  <minimizedRMSD>  (1) 
3.2917254

$$$$
