
     RDKit          3D

 23 24  0  0  0  0  0  0  0  0999 V2000
   40.6160   22.1730   36.0800 C   0  0  0  0  0  0  0  0  0  0  0  0
   40.1040   22.6700   37.3000 C   0  0  0  0  0  0  0  0  0  0  0  0
   38.7900   23.1250   37.3030 C   0  0  0  0  0  0  0  0  0  0  0  0
   38.0790   23.0700   36.1620 N   0  0  0  0  0  0  0  0  0  0  0  0
   38.6010   22.5870   35.0090 C   0  0  0  0  0  0  0  0  0  0  0  0
   39.8730   22.1400   34.9790 N   0  0  0  0  0  0  0  0  0  0  0  0
   37.7570   22.5690   33.8340 C   0  0  0  0  0  0  0  0  0  0  0  0
   37.0910   21.4900   33.2970 C   0  0  0  0  0  0  0  0  0  0  0  0
   36.3970   21.9380   32.1640 C   0  0  0  0  0  0  0  0  0  0  0  0
   36.6520   23.2420   32.0450 N   0  0  0  0  0  0  0  0  0  0  0  0
   37.4590   23.6160   33.0370 N   0  0  0  0  0  0  0  0  0  0  0  0
   36.1350   24.1140   31.0050 C   0  0  0  0  0  0  0  0  0  0  0  0
   38.3210   23.6290   38.6060 C   0  0  0  0  0  0  0  0  0  0  0  0
   37.8370   24.8960   38.4620 F   0  0  0  0  0  0  0  0  0  0  0  0
   39.4130   23.7020   39.4350 F   0  0  0  0  0  0  0  0  0  0  0  0
   37.3090   22.8400   39.1340 F   0  0  0  0  0  0  0  0  0  0  0  0
   41.6521   21.8055   36.0412 H   0  0  0  0  0  0  0  0  0  0  0  0
   40.7203   22.6958   38.2108 H   0  0  0  0  0  0  0  0  0  0  0  0
   37.1015   20.4614   33.6868 H   0  0  0  0  0  0  0  0  0  0  0  0
   35.7638   21.3307   31.5005 H   0  0  0  0  0  0  0  0  0  0  0  0
   35.6257   24.9730   31.4663 H   0  0  0  0  0  0  0  0  0  0  0  0
   36.9664   24.4728   30.3805 H   0  0  0  0  0  0  0  0  0  0  0  0
   35.4213   23.5567   30.3805 H   0  0  0  0  0  0  0  0  0  0  0  0
  1  2  2  0
  2  3  1  0
  3 13  1  0
  4  3  2  0
  5  4  1  0
  6  5  2  0
  6  1  1  0
  7  5  1  0
  8  7  1  0
  9  8  2  0
 10  9  1  0
 10 11  1  0
 11  7  2  0
 12 10  1  0
 13 16  1  0
 13 15  1  0
 14 13  1  0
  1 17  1  0
  2 18  1  0
  8 19  1  0
  9 20  1  0
 12 21  1  0
 12 22  1  0
 12 23  1  0
M  ISO  7  17  14  18  14  19  14  20  14  21   8  22   8  23   8
M  END
>  <minimizedAffinity>  (1) 
-4.70578957

>  <minimizedRMSD>  (1) 
0.131485984

$$$$
