
     RDKit          3D

 24 25  0  0  0  0  0  0  0  0999 V2000
   40.0740   22.2160   36.8650 C   0  0  0  0  0  0  0  0  0  0  0  0
   39.6890   23.0750   37.9350 C   0  0  0  0  0  0  0  0  0  0  0  0
   38.3890   23.5950   37.9440 C   0  0  0  0  0  0  0  0  0  0  0  0
   37.5610   23.2510   36.9250 N   0  0  0  0  0  0  0  0  0  0  0  0
   37.9610   22.4350   35.9320 C   0  0  0  0  0  0  0  0  0  0  0  0
   39.2060   21.9190   35.8940 N   0  0  0  0  0  0  0  0  0  0  0  0
   37.0450   22.0770   34.8390 C   0  0  0  0  0  0  0  0  0  0  0  0
   36.1600   20.8880   35.1540 C   0  0  0  0  0  0  0  0  0  0  0  0
   35.5570   20.6260   33.7760 C   0  0  0  0  0  0  0  0  0  0  0  0
   36.8010   20.6360   32.9130 C   0  0  0  0  0  0  0  0  0  0  0  0
   37.7790   21.5610   33.6140 C   0  0  0  0  0  0  0  0  0  0  0  0
   38.0890   24.4100   39.0000 O   0  0  0  0  0  0  0  0  0  0  0  0
   41.0902   21.7958   36.8386 H   0  0  0  0  0  0  0  0  0  0  0  0
   40.3987   23.3244   38.7375 H   0  0  0  0  0  0  0  0  0  0  0  0
   36.4895   23.0139   34.6853 H   0  0  0  0  0  0  0  0  0  0  0  0
   36.7452   20.0284   35.5125 H   0  0  0  0  0  0  0  0  0  0  0  0
   35.4247   21.0597   35.9539 H   0  0  0  0  0  0  0  0  0  0  0  0
   35.0453   19.6530   33.7368 H   0  0  0  0  0  0  0  0  0  0  0  0
   34.7868   21.3500   33.4717 H   0  0  0  0  0  0  0  0  0  0  0  0
   36.5673   21.0157   31.9074 H   0  0  0  0  0  0  0  0  0  0  0  0
   37.2165   19.6252   32.7875 H   0  0  0  0  0  0  0  0  0  0  0  0
   38.6831   21.0097   33.9118 H   0  0  0  0  0  0  0  0  0  0  0  0
   38.1048   22.3820   32.9583 H   0  0  0  0  0  0  0  0  0  0  0  0
   37.1883   24.8143   39.0730 H   0  0  0  0  0  0  0  0  0  0  0  0
  1  2  2  0
  2  3  1  0
  3 12  1  0
  4  3  2  0
  5  4  1  0
  6  5  2  0
  6  1  1  0
  7  8  1  0
  7  5  1  0
  9  8  1  0
 10 11  1  0
 10  9  1  0
 11  7  1  0
  1 13  1  0
  2 14  1  0
  7 15  1  0
  8 16  1  0
  8 17  1  0
  9 18  1  0
  9 19  1  0
 10 20  1  0
 10 21  1  0
 11 22  1  0
 11 23  1  0
 12 24  1  0
M  ISO  8  13  14  14  14  15  13  16  13  17  13  18  13  19  13  20  13
M  ISO  4  21  13  22  13  23  13  24   3
M  END
>  <minimizedAffinity>  (1) 
-3.76653433

>  <minimizedRMSD>  (1) 
1.3062197

$$$$
