
     RDKit          3D

 20 20  0  0  0  0  0  0  0  0999 V2000
   40.3170   22.3350   37.3530 C   0  0  0  0  0  0  0  0  0  0  0  0
   39.5890   23.1520   38.2560 C   0  0  0  0  0  0  0  0  0  0  0  0
   38.3070   23.5970   37.8730 C   0  0  0  0  0  0  0  0  0  0  0  0
   37.8520   23.2110   36.6570 N   0  0  0  0  0  0  0  0  0  0  0  0
   38.5640   22.4410   35.8280 C   0  0  0  0  0  0  0  0  0  0  0  0
   39.7910   21.9970   36.1580 N   0  0  0  0  0  0  0  0  0  0  0  0
   38.0280   22.0420   34.5030 C   0  0  0  0  0  0  0  0  0  0  0  0
   36.7010   21.3560   34.6510 C   0  0  0  0  0  0  0  0  0  0  0  0
   37.9600   23.3070   33.6670 C   0  0  0  0  0  0  0  0  0  0  0  0
   37.6630   24.3770   38.7880 O   0  0  0  0  0  0  0  0  0  0  0  0
   41.3186   21.9743   37.6298 H   0  0  0  0  0  0  0  0  0  0  0  0
   40.0143   23.4315   39.2312 H   0  0  0  0  0  0  0  0  0  0  0  0
   38.6745   21.3070   34.0011 H   0  0  0  0  0  0  0  0  0  0  0  0
   36.4677   21.2354   35.7192 H   0  0  0  0  0  0  0  0  0  0  0  0
   35.9190   21.9628   34.1711 H   0  0  0  0  0  0  0  0  0  0  0  0
   36.7439   20.3671   34.1711 H   0  0  0  0  0  0  0  0  0  0  0  0
   37.9129   24.1830   34.3306 H   0  0  0  0  0  0  0  0  0  0  0  0
   38.8558   23.3756   33.0322 H   0  0  0  0  0  0  0  0  0  0  0  0
   37.0621   23.2792   33.0322 H   0  0  0  0  0  0  0  0  0  0  0  0
   36.7584   24.7275   38.5904 H   0  0  0  0  0  0  0  0  0  0  0  0
  1  2  2  0
  3  2  1  0
  3 10  1  0
  4  3  2  0
  5  6  2  0
  5  4  1  0
  6  1  1  0
  7  8  1  0
  7  5  1  0
  9  7  1  0
  1 11  1  0
  2 12  1  0
  7 13  1  0
  8 14  1  0
  8 15  1  0
  8 16  1  0
  9 17  1  0
  9 18  1  0
  9 19  1  0
 10 20  1  0
M  ISO  8  11  14  12  14  13   8  14   8  15   8  16   8  17   8  18   8
M  ISO  2  19   8  20   3
M  END
>  <minimizedAffinity>  (1) 
-3.17445636

>  <minimizedRMSD>  (1) 
0.283999205

$$$$
