
     RDKit          3D

 18 19  0  0  0  0  0  0  0  0999 V2000
   40.2230   22.3550   37.2660 C   0  0  0  0  0  0  0  0  0  0  0  0
   39.5770   23.2000   38.2010 C   0  0  0  0  0  0  0  0  0  0  0  0
   38.2810   23.6370   37.9050 C   0  0  0  0  0  0  0  0  0  0  0  0
   37.7120   23.2300   36.7390 N   0  0  0  0  0  0  0  0  0  0  0  0
   38.3510   22.4300   35.8770 C   0  0  0  0  0  0  0  0  0  0  0  0
   39.6140   21.9890   36.1390 N   0  0  0  0  0  0  0  0  0  0  0  0
   37.6800   22.0110   34.6100 C   0  0  0  0  0  0  0  0  0  0  0  0
   38.4950   21.6220   33.4310 C   0  0  0  0  0  0  0  0  0  0  0  0
   37.8320   22.9670   33.4320 C   0  0  0  0  0  0  0  0  0  0  0  0
   37.7240   24.4510   38.8580 O   0  0  0  0  0  0  0  0  0  0  0  0
   41.2419   21.9958   37.4732 H   0  0  0  0  0  0  0  0  0  0  0  0
   40.0787   23.5036   39.1316 H   0  0  0  0  0  0  0  0  0  0  0  0
   36.8541   21.5253   35.1504 H   0  0  0  0  0  0  0  0  0  0  0  0
   38.1330   20.8354   32.7526 H   0  0  0  0  0  0  0  0  0  0  0  0
   39.5293   21.2743   33.2917 H   0  0  0  0  0  0  0  0  0  0  0  0
   38.4351   23.8811   33.5355 H   0  0  0  0  0  0  0  0  0  0  0  0
   37.1432   23.5028   32.7623 H   0  0  0  0  0  0  0  0  0  0  0  0
   36.8090   24.8072   38.7313 H   0  0  0  0  0  0  0  0  0  0  0  0
  1  2  2  0
  3  2  1  0
  3 10  1  0
  4  3  2  0
  5  6  2  0
  5  4  1  0
  6  1  1  0
  7  5  1  0
  8  9  1  0
  8  7  1  0
  9  7  1  0
  1 11  1  0
  2 12  1  0
  7 13  1  0
  8 14  1  0
  8 15  1  0
  9 16  1  0
  9 17  1  0
 10 18  1  0
M  ISO  8  11  14  12  14  13  13  14  13  15  13  16  13  17  13  18   3
M  END
>  <minimizedAffinity>  (1) 
-3.19723868

>  <minimizedRMSD>  (1) 
0.475901902

$$$$
