
     RDKit          3D

 29 31  0  0  0  0  0  0  0  0999 V2000
   38.9490   23.1780   34.0410 C   0  0  0  0  0  0  0  0  0  0  0  0
   39.3860   22.6820   32.8380 C   0  0  0  0  0  0  0  0  0  0  0  0
   38.5920   23.1890   31.8260 C   0  0  0  0  0  0  0  0  0  0  0  0
   37.6900   23.9780   32.4170 N   0  0  0  0  0  0  0  0  0  0  0  0
   37.9070   23.9700   33.7480 N   0  0  0  0  0  0  0  0  0  0  0  0
   41.1140   22.0020   36.7440 C   0  0  0  0  0  0  0  0  0  0  0  0
   40.4290   22.4540   37.8980 C   0  0  0  0  0  0  0  0  0  0  0  0
   39.2310   23.1540   37.6980 C   0  0  0  0  0  0  0  0  0  0  0  0
   38.8130   23.3510   36.4310 N   0  0  0  0  0  0  0  0  0  0  0  0
   39.4940   22.9060   35.3560 C   0  0  0  0  0  0  0  0  0  0  0  0
   40.6450   22.2330   35.5260 N   0  0  0  0  0  0  0  0  0  0  0  0
   38.5630   23.5970   38.9310 C   0  0  0  0  0  0  0  0  0  0  0  0
   37.9050   24.7630   38.6960 F   0  0  0  0  0  0  0  0  0  0  0  0
   39.5510   23.8680   39.8630 F   0  0  0  0  0  0  0  0  0  0  0  0
   37.6530   22.6580   39.3950 F   0  0  0  0  0  0  0  0  0  0  0  0
   36.6780   24.6970   31.7240 C   0  0  0  0  0  0  0  0  0  0  0  0
   35.5140   24.1160   31.2280 C   0  0  0  0  0  0  0  0  0  0  0  0
   34.6230   24.9430   30.5760 C   0  0  0  0  0  0  0  0  0  0  0  0
   34.8260   26.2960   30.3940 C   0  0  0  0  0  0  0  0  0  0  0  0
   36.0130   26.8230   30.9130 C   0  0  0  0  0  0  0  0  0  0  0  0
   36.8820   26.0180   31.5490 N   0  0  0  0  0  0  0  0  0  0  0  0
   40.2318   21.9922   32.7011 H   0  0  0  0  0  0  0  0  0  0  0  0
   38.6844   22.9838   30.7493 H   0  0  0  0  0  0  0  0  0  0  0  0
   42.0564   21.4468   36.8610 H   0  0  0  0  0  0  0  0  0  0  0  0
   40.8203   22.2639   38.9083 H   0  0  0  0  0  0  0  0  0  0  0  0
   35.3131   23.0415   31.3510 H   0  0  0  0  0  0  0  0  0  0  0  0
   33.6984   24.4990   30.1786 H   0  0  0  0  0  0  0  0  0  0  0  0
   34.0933   26.9262   29.8687 H   0  0  0  0  0  0  0  0  0  0  0  0
   36.2353   27.8945   30.8010 H   0  0  0  0  0  0  0  0  0  0  0  0
  1 10  1  0
  2  1  1  0
  3  4  1  0
  3  2  2  0
  4  5  1  0
  5  1  2  0
  6  7  2  0
  8  7  1  0
  8 12  1  0
  9  8  2  0
 10 11  2  0
 10  9  1  0
 11  6  1  0
 12 15  1  0
 12 14  1  0
 13 12  1  0
 16  4  1  0
 17 16  2  0
 18 17  1  0
 19 18  2  0
 19 20  1  0
 20 21  2  0
 21 16  1  0
  2 22  1  0
  3 23  1  0
  6 24  1  0
  7 25  1  0
 17 26  1  0
 18 27  1  0
 19 28  1  0
 20 29  1  0
M  ISO  8  22  14  23  14  24  14  25  14  26  14  27  14  28  14  29  14
M  END
>  <minimizedAffinity>  (1) 
-4.33941936

>  <minimizedRMSD>  (1) 
1.21560717

$$$$
