
     RDKit          3D

 30 32  0  0  1  0  0  0  0  0999 V2000
   37.6100   26.2680   35.1010 C   0  0  1  0  0  0  0  0  0  0  0  0
   37.8740   27.6680   35.5130 C   0  0  0  0  0  0  0  0  0  0  0  0
   39.0350   26.7120   35.3270 C   0  0  2  0  0  0  0  0  0  0  0  0
   39.9450   26.9300   34.1780 C   0  0  0  0  0  0  0  0  0  0  0  0
   39.3290   27.0330   32.9350 C   0  0  0  0  0  0  0  0  0  0  0  0
   40.1440   27.2380   31.8280 C   0  0  0  0  0  0  0  0  0  0  0  0
   41.5190   27.3320   32.0000 C   0  0  0  0  0  0  0  0  0  0  0  0
   42.1050   27.2250   33.2610 C   0  0  0  0  0  0  0  0  0  0  0  0
   41.3020   27.0190   34.3750 C   0  0  0  0  0  0  0  0  0  0  0  0
   37.1950   25.3370   36.1060 O   0  0  0  0  0  0  0  0  0  0  0  0
   38.9140   23.3890   38.6050 C   0  0  0  0  0  0  0  0  0  0  0  0
   38.0200   24.2960   37.9770 C   0  0  0  0  0  0  0  0  0  0  0  0
   38.1060   24.4240   36.5600 C   0  0  0  0  0  0  0  0  0  0  0  0
   39.0300   23.6710   35.8950 N   0  0  0  0  0  0  0  0  0  0  0  0
   39.8270   22.8480   36.5510 C   0  0  0  0  0  0  0  0  0  0  0  0
   39.7940   22.6870   37.8890 N   0  0  0  0  0  0  0  0  0  0  0  0
   40.7710   22.1200   35.7760 N   0  0  0  0  0  0  0  0  0  0  0  0
   37.0083   25.8430   34.2841 H   0  0  0  0  0  0  0  0  0  0  0  0
   37.7192   28.4891   34.7975 H   0  0  0  0  0  0  0  0  0  0  0  0
   37.5252   28.3138   36.3323 H   0  0  0  0  0  0  0  0  0  0  0  0
   39.8711   26.3429   35.9391 H   0  0  0  0  0  0  0  0  0  0  0  0
   38.2366   26.9550   32.8320 H   0  0  0  0  0  0  0  0  0  0  0  0
   39.7036   27.3251   30.8238 H   0  0  0  0  0  0  0  0  0  0  0  0
   42.1606   27.4946   31.1214 H   0  0  0  0  0  0  0  0  0  0  0  0
   43.1965   27.3033   33.3725 H   0  0  0  0  0  0  0  0  0  0  0  0
   41.7375   26.9301   35.3812 H   0  0  0  0  0  0  0  0  0  0  0  0
   38.8805   23.2634   39.6973 H   0  0  0  0  0  0  0  0  0  0  0  0
   37.2904   24.8765   38.5606 H   0  0  0  0  0  0  0  0  0  0  0  0
   41.4179   21.4635   36.2358 H   0  0  0  0  0  0  0  0  0  0  0  0
   40.8079   22.2491   34.7548 H   0  0  0  0  0  0  0  0  0  0  0  0
  1  3  1  0
  1  2  1  0
  1 10  1  0
  3  2  1  0
  4  9  1  0
  4  3  1  0
  5  4  2  0
  6  7  2  0
  6  5  1  0
  7  8  1  0
  8  9  2  0
 10 13  1  0
 12 11  2  0
 13 12  1  0
 14 15  1  0
 14 13  2  0
 15 16  2  0
 16 11  1  0
 17 15  1  0
  1 18  1  6
  2 19  1  0
  2 20  1  0
  3 21  1  1
  5 22  1  0
  6 23  1  0
  7 24  1  0
  8 25  1  0
  9 26  1  0
 11 27  1  0
 12 28  1  0
 17 29  1  0
 17 30  1  0
M  ISO  8  18  13  19  13  20  13  21  13  22  14  23  14  24  14  25  14
M  ISO  3  26  14  27  14  28  14
M  END
>  <minimizedAffinity>  (1) 
-4.88393593

>  <minimizedRMSD>  (1) 
1.22250557

$$$$
