
     RDKit          3D

 27 29  0  0  1  0  0  0  0  0999 V2000
   39.5660   25.4090   34.1470 C   0  0  1  0  0  0  0  0  0  0  0  0
   39.5800   26.7730   33.5630 C   0  0  0  0  0  0  0  0  0  0  0  0
   40.4080   26.4710   34.8050 C   0  0  2  0  0  0  0  0  0  0  0  0
   41.8590   26.4310   34.5030 C   0  0  0  0  0  0  0  0  0  0  0  0
   42.6670   25.3170   34.6060 C   0  0  0  0  0  0  0  0  0  0  0  0
   43.9470   25.6330   34.2520 N   0  0  0  0  0  0  0  0  0  0  0  0
   43.8770   26.9590   33.9370 C   0  0  0  0  0  0  0  0  0  0  0  0
   42.6220   27.4520   34.0840 N   0  0  0  0  0  0  0  0  0  0  0  0
   38.4530   25.0640   34.9860 O   0  0  0  0  0  0  0  0  0  0  0  0
   37.9980   24.2650   38.4760 C   0  0  0  0  0  0  0  0  0  0  0  0
   37.8840   24.8630   37.1690 C   0  0  0  0  0  0  0  0  0  0  0  0
   38.6970   24.3710   36.1320 C   0  0  0  0  0  0  0  0  0  0  0  0
   39.5580   23.3490   36.4100 N   0  0  0  0  0  0  0  0  0  0  0  0
   39.6300   22.8350   37.6140 C   0  0  0  0  0  0  0  0  0  0  0  0
   38.8800   23.2620   38.6500 N   0  0  0  0  0  0  0  0  0  0  0  0
   40.5530   21.7820   37.8300 N   0  0  0  0  0  0  0  0  0  0  0  0
   39.7144   24.4163   33.6969 H   0  0  0  0  0  0  0  0  0  0  0  0
   40.0797   26.9534   32.5998 H   0  0  0  0  0  0  0  0  0  0  0  0
   38.8107   27.5151   33.3035 H   0  0  0  0  0  0  0  0  0  0  0  0
   40.4956   26.8483   35.8345 H   0  0  0  0  0  0  0  0  0  0  0  0
   42.3291   24.3204   34.9264 H   0  0  0  0  0  0  0  0  0  0  0  0
   44.7373   27.5577   33.6031 H   0  0  0  0  0  0  0  0  0  0  0  0
   42.3152   28.4195   33.9086 H   0  0  0  0  0  0  0  0  0  0  0  0
   37.3783   24.6201   39.3126 H   0  0  0  0  0  0  0  0  0  0  0  0
   37.1769   25.6857   36.9869 H   0  0  0  0  0  0  0  0  0  0  0  0
   40.6369   21.3540   38.7631 H   0  0  0  0  0  0  0  0  0  0  0  0
   41.1401   21.4445   37.0539 H   0  0  0  0  0  0  0  0  0  0  0  0
  1  3  1  0
  1  9  1  0
  2  1  1  0
  2  3  1  0
  4  5  2  0
  4  3  1  0
  6  5  1  0
  7  8  1  0
  7  6  2  0
  8  4  1  0
  9 12  1  0
 10 15  2  0
 11 10  1  0
 12 13  1  0
 12 11  2  0
 13 14  2  0
 14 16  1  0
 14 15  1  0
  1 17  1  6
  2 18  1  0
  2 19  1  0
  3 20  1  1
  5 21  1  0
  7 22  1  0
  8 23  1  0
 10 24  1  0
 11 25  1  0
 16 26  1  0
 16 27  1  0
M  ISO  8  17  13  18  13  19  13  20  13  21  14  22  14  23   9  24  14
M  ISO  1  25  14
M  END
>  <minimizedAffinity>  (1) 
-4.87464571

>  <minimizedRMSD>  (1) 
2.70483947

$$$$
