
     RDKit          3D

 33 36  0  0  1  0  0  0  0  0999 V2000
   39.5410   25.0730   33.9580 C   0  0  1  0  0  0  0  0  0  0  0  0
   39.4890   26.4050   33.3230 C   0  0  0  0  0  0  0  0  0  0  0  0
   40.3070   26.2010   34.5940 C   0  0  2  0  0  0  0  0  0  0  0  0
   41.7540   26.2560   34.4870 N   0  0  0  0  0  0  0  0  0  0  0  0
   42.4840   27.1500   33.7930 C   0  0  0  0  0  0  0  0  0  0  0  0
   43.7910   26.8620   33.9470 N   0  0  0  0  0  0  0  0  0  0  0  0
   43.9160   25.8000   34.7240 C   0  0  0  0  0  0  0  0  0  0  0  0
   45.0420   25.1350   35.1640 C   0  0  0  0  0  0  0  0  0  0  0  0
   44.8430   24.0680   35.9610 N   0  0  0  0  0  0  0  0  0  0  0  0
   43.5920   23.6820   36.3040 C   0  0  0  0  0  0  0  0  0  0  0  0
   42.5060   24.3440   35.8650 N   0  0  0  0  0  0  0  0  0  0  0  0
   42.6340   25.4190   35.0650 C   0  0  0  0  0  0  0  0  0  0  0  0
   46.3760   25.5050   34.8300 N   0  0  0  0  0  0  0  0  0  0  0  0
   38.4350   24.6800   34.7800 O   0  0  0  0  0  0  0  0  0  0  0  0
   38.0290   24.2160   38.3370 C   0  0  0  0  0  0  0  0  0  0  0  0
   37.8760   24.6960   36.9890 C   0  0  0  0  0  0  0  0  0  0  0  0
   38.6970   24.1090   35.9870 C   0  0  0  0  0  0  0  0  0  0  0  0
   39.5700   23.1360   36.3520 N   0  0  0  0  0  0  0  0  0  0  0  0
   39.6610   22.7410   37.6110 C   0  0  0  0  0  0  0  0  0  0  0  0
   38.9200   23.2510   38.6020 N   0  0  0  0  0  0  0  0  0  0  0  0
   40.6160   21.7250   37.8970 N   0  0  0  0  0  0  0  0  0  0  0  0
   39.7568   24.0754   33.5479 H   0  0  0  0  0  0  0  0  0  0  0  0
   39.9983   26.5766   32.3632 H   0  0  0  0  0  0  0  0  0  0  0  0
   38.6838   27.0899   33.0188 H   0  0  0  0  0  0  0  0  0  0  0  0
   40.3441   26.6393   35.6022 H   0  0  0  0  0  0  0  0  0  0  0  0
   42.0787   27.9809   33.1969 H   0  0  0  0  0  0  0  0  0  0  0  0
   43.4600   22.8066   36.9569 H   0  0  0  0  0  0  0  0  0  0  0  0
   47.1689   24.9595   35.1969 H   0  0  0  0  0  0  0  0  0  0  0  0
   46.5479   26.3181   34.2216 H   0  0  0  0  0  0  0  0  0  0  0  0
   37.4168   24.6397   39.1468 H   0  0  0  0  0  0  0  0  0  0  0  0
   37.1518   25.4866   36.7430 H   0  0  0  0  0  0  0  0  0  0  0  0
   40.7282   21.3804   38.8611 H   0  0  0  0  0  0  0  0  0  0  0  0
   41.1948   21.3344   37.1398 H   0  0  0  0  0  0  0  0  0  0  0  0
  1  3  1  0
  1 14  1  0
  2  1  1  0
  2  3  1  0
  4  3  1  0
  4 12  1  0
  5  6  2  0
  5  4  1  0
  6  7  1  0
  7 12  2  0
  7  8  1  0
  8  9  2  0
  9 10  1  0
 11 10  2  0
 12 11  1  0
 13  8  1  0
 14 17  1  0
 15 20  2  0
 16 15  1  0
 17 18  1  0
 17 16  2  0
 18 19  2  0
 19 21  1  0
 19 20  1  0
  1 22  1  6
  2 23  1  0
  2 24  1  0
  3 25  1  1
  5 26  1  0
 10 27  1  0
 13 28  1  0
 13 29  1  0
 15 30  1  0
 16 31  1  0
 21 32  1  0
 21 33  1  0
M  ISO  8  22  13  23  13  24  13  25  13  26  14  27  14  30  14  31  14
M  END
>  <minimizedAffinity>  (1) 
-5.11818695

>  <minimizedRMSD>  (1) 
3.14774036

$$$$
