
     RDKit          3D

 30 32  0  0  1  0  0  0  0  0999 V2000
   37.5980   25.9540   34.6840 C   0  0  1  0  0  0  0  0  0  0  0  0
   37.1950   27.3380   34.3870 C   0  0  0  0  0  0  0  0  0  0  0  0
   38.6490   27.0070   34.7080 C   0  0  2  0  0  0  0  0  0  0  0  0
   39.6390   27.1490   33.7020 N   0  0  0  0  0  0  0  0  0  0  0  0
   40.9690   27.2080   34.0140 C   0  0  0  0  0  0  0  0  0  0  0  0
   41.9890   27.3440   33.1120 C   0  0  0  0  0  0  0  0  0  0  0  0
   41.6320   27.4290   31.7870 C   0  0  0  0  0  0  0  0  0  0  0  0
   42.5220   27.5580   30.8810 O   0  0  0  0  0  0  0  0  0  0  0  0
   40.3410   27.3780   31.4200 N   0  0  0  0  0  0  0  0  0  0  0  0
   39.3970   27.2410   32.3880 C   0  0  0  0  0  0  0  0  0  0  0  0
   38.2280   27.2010   31.9780 O   0  0  0  0  0  0  0  0  0  0  0  0
   37.3360   25.4190   35.9870 O   0  0  0  0  0  0  0  0  0  0  0  0
   38.8090   23.3920   38.5900 C   0  0  0  0  0  0  0  0  0  0  0  0
   37.9830   24.3290   37.8660 C   0  0  0  0  0  0  0  0  0  0  0  0
   38.2030   24.4870   36.4890 C   0  0  0  0  0  0  0  0  0  0  0  0
   39.1870   23.7470   35.8950 N   0  0  0  0  0  0  0  0  0  0  0  0
   39.9150   22.9070   36.5910 C   0  0  0  0  0  0  0  0  0  0  0  0
   39.7540   22.7120   37.9080 N   0  0  0  0  0  0  0  0  0  0  0  0
   40.9290   22.1990   35.8810 N   0  0  0  0  0  0  0  0  0  0  0  0
   37.4133   25.0110   34.1485 H   0  0  0  0  0  0  0  0  0  0  0  0
   36.9068   27.6209   33.3638 H   0  0  0  0  0  0  0  0  0  0  0  0
   36.4462   28.0365   34.7889 H   0  0  0  0  0  0  0  0  0  0  0  0
   39.4060   27.3144   35.4445 H   0  0  0  0  0  0  0  0  0  0  0  0
   41.2414   27.1406   35.0776 H   0  0  0  0  0  0  0  0  0  0  0  0
   43.0411   27.3833   33.4308 H   0  0  0  0  0  0  0  0  0  0  0  0
   40.0726   27.4413   30.4276 H   0  0  0  0  0  0  0  0  0  0  0  0
   38.6714   23.2364   39.6702 H   0  0  0  0  0  0  0  0  0  0  0  0
   37.2002   24.9051   38.3812 H   0  0  0  0  0  0  0  0  0  0  0  0
   41.5309   21.5263   36.3771 H   0  0  0  0  0  0  0  0  0  0  0  0
   41.0595   22.3603   34.8721 H   0  0  0  0  0  0  0  0  0  0  0  0
  1  3  1  0
  1 12  1  0
  2  1  1  0
  2  3  1  0
  4  5  1  0
  4  3  1  0
  6  5  2  0
  7  6  1  0
  8  7  2  0
  9  7  1  0
  9 10  1  0
 10  4  1  0
 11 10  2  0
 12 15  1  0
 14 13  2  0
 15 14  1  0
 16 15  2  0
 16 17  1  0
 17 18  2  0
 18 13  1  0
 19 17  1  0
  1 20  1  6
  2 21  1  0
  2 22  1  0
  3 23  1  1
  5 24  1  0
  6 25  1  0
  9 26  1  0
 13 27  1  0
 14 28  1  0
 19 29  1  0
 19 30  1  0
M  ISO  8  20  13  21  13  22  13  23  13  24  14  25  14  26   9  27  14
M  ISO  1  28  14
M  END
>  <minimizedAffinity>  (1) 
-4.46407557

>  <minimizedRMSD>  (1) 
1.44738483

$$$$
