
     RDKit          3D

 27 29  0  0  1  0  0  0  0  0999 V2000
   39.1880   25.3110   34.1410 C   0  0  1  0  0  0  0  0  0  0  0  0
   39.0840   26.6730   33.5780 C   0  0  0  0  0  0  0  0  0  0  0  0
   39.9890   26.4200   34.7780 C   0  0  2  0  0  0  0  0  0  0  0  0
   41.4540   26.3810   34.5400 C   0  0  0  0  0  0  0  0  0  0  0  0
   42.3590   25.4110   34.9230 C   0  0  0  0  0  0  0  0  0  0  0  0
   43.6090   25.7760   34.4970 C   0  0  0  0  0  0  0  0  0  0  0  0
   43.4290   26.9750   33.8570 C   0  0  0  0  0  0  0  0  0  0  0  0
   42.1640   27.3040   33.8970 O   0  0  0  0  0  0  0  0  0  0  0  0
   38.1510   24.8610   35.0210 O   0  0  0  0  0  0  0  0  0  0  0  0
   38.0300   24.2200   38.5800 C   0  0  0  0  0  0  0  0  0  0  0  0
   37.7700   24.7590   37.2660 C   0  0  0  0  0  0  0  0  0  0  0  0
   38.5140   24.2340   36.1760 C   0  0  0  0  0  0  0  0  0  0  0  0
   39.4310   23.2530   36.4200 N   0  0  0  0  0  0  0  0  0  0  0  0
   39.6270   22.8020   37.6310 C   0  0  0  0  0  0  0  0  0  0  0  0
   38.9610   23.2510   38.7090 N   0  0  0  0  0  0  0  0  0  0  0  0
   40.5930   21.7850   37.8250 N   0  0  0  0  0  0  0  0  0  0  0  0
   39.3790   24.3375   33.6658 H   0  0  0  0  0  0  0  0  0  0  0  0
   39.5248   26.8960   32.5952 H   0  0  0  0  0  0  0  0  0  0  0  0
   38.2543   27.3627   33.3638 H   0  0  0  0  0  0  0  0  0  0  0  0
   40.0901   26.8565   35.7826 H   0  0  0  0  0  0  0  0  0  0  0  0
   42.1158   24.4940   35.4798 H   0  0  0  0  0  0  0  0  0  0  0  0
   44.5516   25.2267   34.6378 H   0  0  0  0  0  0  0  0  0  0  0  0
   44.2251   27.5682   33.3834 H   0  0  0  0  0  0  0  0  0  0  0  0
   37.4808   24.5913   39.4578 H   0  0  0  0  0  0  0  0  0  0  0  0
   37.0207   25.5499   37.1142 H   0  0  0  0  0  0  0  0  0  0  0  0
   40.7662   21.4127   38.7696 H   0  0  0  0  0  0  0  0  0  0  0  0
   41.1225   21.4176   37.0215 H   0  0  0  0  0  0  0  0  0  0  0  0
  1  3  1  0
  1  9  1  0
  2  1  1  0
  2  3  1  0
  4  3  1  0
  4  5  2  0
  6  5  1  0
  7  8  1  0
  7  6  2  0
  8  4  1  0
  9 12  1  0
 10 15  2  0
 11 10  1  0
 12 13  1  0
 12 11  2  0
 13 14  2  0
 14 16  1  0
 14 15  1  0
  1 17  1  6
  2 18  1  0
  2 19  1  0
  3 20  1  1
  5 21  1  0
  6 22  1  0
  7 23  1  0
 10 24  1  0
 11 25  1  0
 16 26  1  0
 16 27  1  0
M  ISO  8  17  13  18  13  19  13  20  13  21  14  22  14  23  14  24  14
M  ISO  1  25  14
M  END
>  <minimizedAffinity>  (1) 
-4.68221521

>  <minimizedRMSD>  (1) 
2.45987535

$$$$
