
     RDKit          3D

 34 36  0  0  1  0  0  0  0  0999 V2000
   37.6580   26.3090   35.0670 C   0  0  1  0  0  0  0  0  0  0  0  0
   37.8050   27.7350   35.4430 C   0  0  0  0  0  0  0  0  0  0  0  0
   39.0360   26.8440   35.3650 C   0  0  2  0  0  0  0  0  0  0  0  0
   39.9570   27.0810   34.3010 N   0  0  0  0  0  0  0  0  0  0  0  0
   39.4660   26.8610   32.9800 C   0  0  0  0  0  0  0  0  0  0  0  0
   40.6350   26.9840   32.0220 C   0  0  0  0  0  0  0  0  0  0  0  0
   41.5050   25.8310   32.1840 N   0  0  0  0  0  0  0  0  0  0  0  0
   41.6630   25.4610   33.5660 C   0  0  0  0  0  0  0  0  0  0  0  0
   41.2820   26.5810   34.5070 C   0  0  0  0  0  0  0  0  0  0  0  0
   37.2470   25.3860   36.0870 O   0  0  0  0  0  0  0  0  0  0  0  0
   38.8770   23.3480   38.5920 C   0  0  0  0  0  0  0  0  0  0  0  0
   37.9930   24.2760   37.9290 C   0  0  0  0  0  0  0  0  0  0  0  0
   38.1550   24.4740   36.5290 C   0  0  0  0  0  0  0  0  0  0  0  0
   39.1360   23.7770   35.8870 N   0  0  0  0  0  0  0  0  0  0  0  0
   39.9110   22.9460   36.5390 C   0  0  0  0  0  0  0  0  0  0  0  0
   39.8120   22.7130   37.8570 N   0  0  0  0  0  0  0  0  0  0  0  0
   40.9120   22.2610   35.8050 N   0  0  0  0  0  0  0  0  0  0  0  0
   37.1345   25.8235   34.2302 H   0  0  0  0  0  0  0  0  0  0  0  0
   37.6471   28.5208   34.6896 H   0  0  0  0  0  0  0  0  0  0  0  0
   37.3640   28.3840   36.2139 H   0  0  0  0  0  0  0  0  0  0  0  0
   39.8512   26.5438   36.0398 H   0  0  0  0  0  0  0  0  0  0  0  0
   39.0272   25.8549   32.9070 H   0  0  0  0  0  0  0  0  0  0  0  0
   38.6883   27.5985   32.7324 H   0  0  0  0  0  0  0  0  0  0  0  0
   41.1970   27.9035   32.2425 H   0  0  0  0  0  0  0  0  0  0  0  0
   40.2638   27.0261   30.9874 H   0  0  0  0  0  0  0  0  0  0  0  0
   41.0999   25.0348   31.6714 H   0  0  0  0  0  0  0  0  0  0  0  0
   41.0233   24.5908   33.7746 H   0  0  0  0  0  0  0  0  0  0  0  0
   42.7251   25.2281   33.7327 H   0  0  0  0  0  0  0  0  0  0  0  0
   41.9915   27.4096   34.3656 H   0  0  0  0  0  0  0  0  0  0  0  0
   41.3148   26.1690   35.5264 H   0  0  0  0  0  0  0  0  0  0  0  0
   38.7900   23.1628   39.6728 H   0  0  0  0  0  0  0  0  0  0  0  0
   37.2156   24.8153   38.4900 H   0  0  0  0  0  0  0  0  0  0  0  0
   41.5400   21.5998   36.2838 H   0  0  0  0  0  0  0  0  0  0  0  0
   41.0112   22.4246   34.7929 H   0  0  0  0  0  0  0  0  0  0  0  0
  1  3  1  0
  1  2  1  0
  1 10  1  0
  3  2  1  0
  4  9  1  0
  4  3  1  0
  5  4  1  0
  6  7  1  0
  6  5  1  0
  7  8  1  0
  8  9  1  0
 10 13  1  0
 12 11  2  0
 13 12  1  0
 14 13  2  0
 14 15  1  0
 15 16  2  0
 16 11  1  0
 17 15  1  0
  1 18  1  6
  2 19  1  0
  2 20  1  0
  3 21  1  1
  5 22  1  0
  5 23  1  0
  6 24  1  0
  6 25  1  0
  7 26  1  0
  8 27  1  0
  8 28  1  0
  9 29  1  0
  9 30  1  0
 11 31  1  0
 12 32  1  0
 17 33  1  0
 17 34  1  0
M  ISO  8  18  13  19  13  20  13  21  13  22  13  23  13  24  13  25  13
M  ISO  7  26   5  27  13  28  13  29  13  30  13  31  14  32  14
M  END
>  <minimizedAffinity>  (1) 
-4.21198702

>  <minimizedRMSD>  (1) 
1.47625434

$$$$
