
     RDKit          3D

 26 27  0  0  1  0  0  0  0  0999 V2000
   38.0100   24.1200   38.4100 C   0  0  0  0  0  0  0  0  0  0  0  0
   38.0000   24.7770   37.1270 C   0  0  0  0  0  0  0  0  0  0  0  0
   38.9220   24.3360   36.1440 C   0  0  0  0  0  0  0  0  0  0  0  0
   39.7670   23.3120   36.4600 N   0  0  0  0  0  0  0  0  0  0  0  0
   39.7330   22.7480   37.6450 C   0  0  0  0  0  0  0  0  0  0  0  0
   38.8910   23.1220   38.6100 N   0  0  0  0  0  0  0  0  0  0  0  0
   40.6590   21.7010   37.8930 N   0  0  0  0  0  0  0  0  0  0  0  0
   38.7760   25.0750   35.0080 O   0  0  0  0  0  0  0  0  0  0  0  0
   39.4470   26.3400   34.9240 C   0  0  1  0  0  0  0  0  0  0  0  0
   39.5180   26.9910   33.5980 C   0  0  0  0  0  0  0  0  0  0  0  0
   38.4660   27.4350   34.5960 C   0  0  1  0  0  0  0  0  0  0  0  0
   37.0260   27.1170   34.3300 C   0  0  0  0  0  0  0  0  0  0  0  0
   36.2370   28.4190   34.3870 C   0  0  0  0  0  0  0  0  0  0  0  0
   37.3151   24.4265   39.2057 H   0  0  0  0  0  0  0  0  0  0  0  0
   37.2974   25.5968   36.9165 H   0  0  0  0  0  0  0  0  0  0  0  0
   40.6695   21.2288   38.8083 H   0  0  0  0  0  0  0  0  0  0  0  0
   41.3204   21.4135   37.1576 H   0  0  0  0  0  0  0  0  0  0  0  0
   40.2166   26.1350   35.6827 H   0  0  0  0  0  0  0  0  0  0  0  0
   39.2199   26.4351   32.6968 H   0  0  0  0  0  0  0  0  0  0  0  0
   40.3072   27.4997   33.0249 H   0  0  0  0  0  0  0  0  0  0  0  0
   38.1708   28.3822   35.0710 H   0  0  0  0  0  0  0  0  0  0  0  0
   36.6507   26.4196   35.0934 H   0  0  0  0  0  0  0  0  0  0  0  0
   36.9152   26.6465   33.3419 H   0  0  0  0  0  0  0  0  0  0  0  0
   36.0672   28.6992   35.4371 H   0  0  0  0  0  0  0  0  0  0  0  0
   36.8052   29.2144   33.8825 H   0  0  0  0  0  0  0  0  0  0  0  0
   35.2689   28.2835   33.8825 H   0  0  0  0  0  0  0  0  0  0  0  0
  1  6  2  0
  2  1  1  0
  3  4  1  0
  3  2  2  0
  4  5  2  0
  5  7  1  0
  5  6  1  0
  8  3  1  0
  9  8  1  0
 10 11  1  0
 10  9  1  0
 11  9  1  0
 12 13  1  0
 12 11  1  0
  1 14  1  0
  2 15  1  0
  7 16  1  0
  7 17  1  0
  9 18  1  1
 10 19  1  0
 10 20  1  0
 11 21  1  1
 12 22  1  0
 12 23  1  0
 13 24  1  0
 13 25  1  0
 13 26  1  0
M  ISO  8  14  14  15  14  18  13  19  13  20  13  21  13  22   8  23   8
M  ISO  3  24   8  25   8  26   8
M  END
>  <minimizedAffinity>  (1) 
-4.3691144

>  <minimizedRMSD>  (1) 
2.80075645

$$$$
