
     RDKit          3D

 21 22  0  0  1  0  0  0  0  0999 V2000
   40.2860   22.3520   37.6700 C   0  0  0  0  0  0  0  0  0  0  0  0
   39.3510   23.4390   37.5350 C   0  0  0  0  0  0  0  0  0  0  0  0
   39.0300   23.8860   36.2270 C   0  0  0  0  0  0  0  0  0  0  0  0
   39.6150   23.2730   35.1720 N   0  0  0  0  0  0  0  0  0  0  0  0
   40.4690   22.2790   35.3520 C   0  0  0  0  0  0  0  0  0  0  0  0
   40.8140   21.8100   36.5550 N   0  0  0  0  0  0  0  0  0  0  0  0
   41.0450   21.7080   34.1800 N   0  0  0  0  0  0  0  0  0  0  0  0
   38.1460   24.9160   36.3090 O   0  0  0  0  0  0  0  0  0  0  0  0
   38.1720   25.9280   35.2960 C   0  0  1  0  0  0  0  0  0  0  0  0
   38.0780   27.3330   35.7450 C   0  0  0  0  0  0  0  0  0  0  0  0
   39.4330   26.7420   35.3840 C   0  0  2  0  0  0  0  0  0  0  0  0
   39.9130   27.2140   34.1670 O   0  0  0  0  0  0  0  0  0  0  0  0
   40.5638   21.9716   38.6640 H   0  0  0  0  0  0  0  0  0  0  0  0
   38.8986   23.9093   38.4205 H   0  0  0  0  0  0  0  0  0  0  0  0
   41.7163   20.9312   34.2621 H   0  0  0  0  0  0  0  0  0  0  0  0
   40.7899   22.0722   33.2509 H   0  0  0  0  0  0  0  0  0  0  0  0
   37.6270   25.3625   34.5258 H   0  0  0  0  0  0  0  0  0  0  0  0
   37.6166   28.0888   35.0925 H   0  0  0  0  0  0  0  0  0  0  0  0
   37.6619   27.8404   36.6279 H   0  0  0  0  0  0  0  0  0  0  0  0
   40.4086   26.6106   35.8749 H   0  0  0  0  0  0  0  0  0  0  0  0
   40.6093   27.8987   34.3300 H   0  0  0  0  0  0  0  0  0  0  0  0
  2  1  2  0
  3  8  1  0
  3  2  1  0
  4  5  1  0
  4  3  2  0
  5  6  2  0
  6  1  1  0
  7  5  1  0
  9 11  1  0
  9 10  1  0
  9  8  1  0
 11 10  1  0
 12 11  1  0
  1 13  1  0
  2 14  1  0
  7 15  1  0
  7 16  1  0
  9 17  1  6
 10 18  1  0
 10 19  1  0
 11 20  1  1
 12 21  1  0
M  ISO  7  13  14  14  14  17  13  18  13  19  13  20  13  21   3
M  END
>  <minimizedAffinity>  (1) 
-3.24803042

>  <minimizedRMSD>  (1) 
0.0836306736

$$$$
