
     RDKit          3D

 27 29  0  0  1  0  0  0  0  0999 V2000
   38.1900   24.8100   36.7390 O   0  0  0  0  0  0  0  0  0  0  0  0
   40.5210   22.1910   37.5850 C   0  0  0  0  0  0  0  0  0  0  0  0
   39.5770   23.2760   37.6730 C   0  0  0  0  0  0  0  0  0  0  0  0
   39.0500   23.7880   36.4600 C   0  0  0  0  0  0  0  0  0  0  0  0
   39.4560   23.2320   35.2830 N   0  0  0  0  0  0  0  0  0  0  0  0
   40.3180   22.2480   35.2640 C   0  0  0  0  0  0  0  0  0  0  0  0
   40.8580   21.7150   36.3700 N   0  0  0  0  0  0  0  0  0  0  0  0
   40.7020   21.7320   34.0000 N   0  0  0  0  0  0  0  0  0  0  0  0
   37.9460   25.7910   35.7310 C   0  0  1  0  0  0  0  0  0  0  0  0
   38.2580   27.1980   36.0590 C   0  0  0  0  0  0  0  0  0  0  0  0
   39.2320   26.3800   35.2210 C   0  0  2  0  0  0  0  0  0  0  0  0
   39.2170   26.7690   33.8250 N   0  0  0  0  0  0  0  0  0  0  0  0
   38.2300   26.9270   32.9260 C   0  0  0  0  0  0  0  0  0  0  0  0
   38.7670   27.3180   31.7070 C   0  0  0  0  0  0  0  0  0  0  0  0
   40.0980   27.4020   31.8590 N   0  0  0  0  0  0  0  0  0  0  0  0
   40.3560   27.0670   33.1460 C   0  0  0  0  0  0  0  0  0  0  0  0
   40.9600   21.7577   38.4958 H   0  0  0  0  0  0  0  0  0  0  0  0
   39.2760   23.6921   38.6458 H   0  0  0  0  0  0  0  0  0  0  0  0
   41.3784   20.9573   33.9439 H   0  0  0  0  0  0  0  0  0  0  0  0
   40.3044   22.1320   33.1381 H   0  0  0  0  0  0  0  0  0  0  0  0
   37.0502   25.3157   35.3047 H   0  0  0  0  0  0  0  0  0  0  0  0
   37.6818   28.0116   35.5942 H   0  0  0  0  0  0  0  0  0  0  0  0
   38.3323   27.7812   36.9887 H   0  0  0  0  0  0  0  0  0  0  0  0
   40.2915   26.0888   35.2730 H   0  0  0  0  0  0  0  0  0  0  0  0
   37.1597   26.7703   33.1259 H   0  0  0  0  0  0  0  0  0  0  0  0
   38.2041   27.5219   30.7842 H   0  0  0  0  0  0  0  0  0  0  0  0
   41.3633   27.0395   33.5872 H   0  0  0  0  0  0  0  0  0  0  0  0
  2  3  2  0
  4  1  1  0
  4  3  1  0
  5  4  2  0
  6  5  1  0
  6  7  2  0
  7  2  1  0
  8  6  1  0
  9 10  1  0
  9  1  1  0
 11  9  1  0
 11 10  1  0
 12 11  1  0
 13 12  1  0
 14 15  1  0
 14 13  2  0
 15 16  2  0
 16 12  1  0
  2 17  1  0
  3 18  1  0
  8 19  1  0
  8 20  1  0
  9 21  1  6
 10 22  1  0
 10 23  1  0
 11 24  1  1
 13 25  1  0
 14 26  1  0
 16 27  1  0
M  ISO  8  17  14  18  14  21  13  22  13  23  13  24  13  25  14  26  14
M  ISO  1  27  14
M  END
>  <minimizedAffinity>  (1) 
-3.78408051

>  <minimizedRMSD>  (1) 
1.00656223

$$$$
