
     RDKit          3D

 49 53  0  0  1  0  0  0  0  0999 V2000
   42.8390   24.2780   34.0900 C   0  0  1  0  0  0  0  0  0  0  0  0
   43.3800   25.2320   33.0980 C   0  0  0  0  0  0  0  0  0  0  0  0
   43.3870   25.6840   34.5280 C   0  0  2  0  0  0  0  0  0  0  0  0
   44.7540   25.7480   35.0780 C   0  0  0  0  0  0  0  0  0  0  0  0
   45.9210   25.9930   34.3480 C   0  0  0  0  0  0  0  0  0  0  0  0
   46.9900   26.1170   35.1520 N   0  0  0  0  0  0  0  0  0  0  0  0
   46.5610   25.9580   36.4070 C   0  0  0  0  0  0  0  0  0  0  0  0
   47.1880   25.9380   37.6460 C   0  0  0  0  0  0  0  0  0  0  0  0
   46.5100   25.7030   38.8300 C   0  0  0  0  0  0  0  0  0  0  0  0
   45.1390   25.4790   38.7910 C   0  0  0  0  0  0  0  0  0  0  0  0
   44.5320   25.5020   37.5670 C   0  0  0  0  0  0  0  0  0  0  0  0
   45.1900   25.7330   36.3560 C   0  0  0  0  0  0  0  0  0  0  0  0
   41.3940   24.3110   34.2410 O   0  0  0  0  0  0  0  0  0  0  0  0
   38.8500   23.8700   36.7410 C   0  0  0  0  0  0  0  0  0  0  0  0
   39.5880   24.3520   35.6110 C   0  0  0  0  0  0  0  0  0  0  0  0
   40.8460   23.7020   35.3340 C   0  0  0  0  0  0  0  0  0  0  0  0
   41.2360   22.7010   36.1390 N   0  0  0  0  0  0  0  0  0  0  0  0
   40.5310   22.2970   37.1550 C   0  0  0  0  0  0  0  0  0  0  0  0
   39.3690   22.8460   37.4740 N   0  0  0  0  0  0  0  0  0  0  0  0
   41.0110   21.2470   37.9500 N   0  0  0  0  0  0  0  0  0  0  0  0
   38.9990   25.4220   34.8800 N   0  0  0  0  0  0  0  0  0  0  0  0
   39.3840   26.8170   34.9960 C   0  0  0  0  0  0  0  0  0  0  0  0
   39.8500   27.2240   33.5940 C   0  0  0  0  0  0  0  0  0  0  0  0
   38.5740   27.1850   32.7530 C   0  0  0  0  0  0  0  0  0  0  0  0
   38.0410   25.7940   32.6610 C   0  0  0  0  0  0  0  0  0  0  0  0
   37.9440   25.0620   33.9660 C   0  0  0  0  0  0  0  0  0  0  0  0
   43.0297   23.2126   34.2865 H   0  0  0  0  0  0  0  0  0  0  0  0
   44.3340   25.0078   32.5983 H   0  0  0  0  0  0  0  0  0  0  0  0
   42.9788   25.6661   32.1703 H   0  0  0  0  0  0  0  0  0  0  0  0
   42.9795   26.5032   35.1386 H   0  0  0  0  0  0  0  0  0  0  0  0
   45.9591   26.0741   33.2517 H   0  0  0  0  0  0  0  0  0  0  0  0
   47.9594   26.3004   34.8560 H   0  0  0  0  0  0  0  0  0  0  0  0
   48.2725   26.1170   37.6886 H   0  0  0  0  0  0  0  0  0  0  0  0
   47.0492   25.6937   39.7887 H   0  0  0  0  0  0  0  0  0  0  0  0
   44.5646   25.2905   39.7100 H   0  0  0  0  0  0  0  0  0  0  0  0
   43.4467   25.3259   37.5324 H   0  0  0  0  0  0  0  0  0  0  0  0
   37.8827   24.3186   37.0113 H   0  0  0  0  0  0  0  0  0  0  0  0
   40.4612   20.9190   38.7569 H   0  0  0  0  0  0  0  0  0  0  0  0
   41.9135   20.8034   37.7273 H   0  0  0  0  0  0  0  0  0  0  0  0
   38.5256   27.4291   35.3098 H   0  0  0  0  0  0  0  0  0  0  0  0
   40.1716   26.9645   35.7496 H   0  0  0  0  0  0  0  0  0  0  0  0
   40.2808   28.2361   33.6038 H   0  0  0  0  0  0  0  0  0  0  0  0
   40.6359   26.5624   33.2009 H   0  0  0  0  0  0  0  0  0  0  0  0
   37.8156   27.8316   33.2186 H   0  0  0  0  0  0  0  0  0  0  0  0
   38.8098   27.5396   31.7388 H   0  0  0  0  0  0  0  0  0  0  0  0
   37.0334   25.8435   32.2225 H   0  0  0  0  0  0  0  0  0  0  0  0
   38.7591   25.2310   32.0468 H   0  0  0  0  0  0  0  0  0  0  0  0
   36.9766   25.2993   34.4327 H   0  0  0  0  0  0  0  0  0  0  0  0
   38.0375   23.9867   33.7541 H   0  0  0  0  0  0  0  0  0  0  0  0
  1 13  1  0
  1  3  1  0
  2  1  1  0
  2  3  1  0
  3  4  1  0
  4 12  1  0
  5  4  2  0
  5  6  1  0
  6  7  1  0
  7  8  2  0
  8  9  1  0
 10  9  2  0
 11 10  1  0
 12  7  1  0
 12 11  2  0
 13 16  1  0
 14 19  2  0
 15 14  1  0
 16 15  2  0
 16 17  1  0
 17 18  2  0
 18 19  1  0
 18 20  1  0
 21 22  1  0
 21 15  1  0
 23 22  1  0
 24 23  1  0
 25 24  1  0
 25 26  1  0
 26 21  1  0
  1 27  1  1
  2 28  1  0
  2 29  1  0
  3 30  1  6
  5 31  1  0
  6 32  1  0
  8 33  1  0
  9 34  1  0
 10 35  1  0
 11 36  1  0
 14 37  1  0
 20 38  1  0
 20 39  1  0
 22 40  1  0
 22 41  1  0
 23 42  1  0
 23 43  1  0
 24 44  1  0
 24 45  1  0
 25 46  1  0
 25 47  1  0
 26 48  1  0
 26 49  1  0
M  ISO  8  27  13  28  13  29  13  30  13  31  14  32   9  33  14  34  14
M  ISO  8  35  14  36  14  37  14  40  13  41  13  42  13  43  13  44  13
M  ISO  5  45  13  46  13  47  13  48  13  49  13
M  END
>  <minimizedAffinity>  (1) 
-6.00736284

>  <minimizedRMSD>  (1) 
3.59640241

$$$$
