
     RDKit          3D

 35 38  0  0  1  0  0  0  0  0999 V2000
   39.9240   24.5490   33.4730 C   0  0  1  0  0  0  0  0  0  0  0  0
   39.6400   25.6010   32.4830 C   0  0  0  0  0  0  0  0  0  0  0  0
   40.2070   26.0590   33.7970 C   0  0  2  0  0  0  0  0  0  0  0  0
   41.5930   26.5440   33.6560 C   0  0  0  0  0  0  0  0  0  0  0  0
   42.0190   27.5720   32.8060 C   0  0  0  0  0  0  0  0  0  0  0  0
   43.3090   27.8770   33.0090 N   0  0  0  0  0  0  0  0  0  0  0  0
   43.7580   27.0710   33.9790 C   0  0  0  0  0  0  0  0  0  0  0  0
   44.9980   26.8750   34.5940 C   0  0  0  0  0  0  0  0  0  0  0  0
   45.2190   25.9290   35.5530 C   0  0  0  0  0  0  0  0  0  0  0  0
   44.1740   25.1120   35.9520 C   0  0  0  0  0  0  0  0  0  0  0  0
   42.9580   25.2980   35.3560 C   0  0  0  0  0  0  0  0  0  0  0  0
   42.7030   26.2580   34.3720 C   0  0  0  0  0  0  0  0  0  0  0  0
   38.7850   24.1440   34.2810 O   0  0  0  0  0  0  0  0  0  0  0  0
   38.2650   24.1660   37.8390 C   0  0  0  0  0  0  0  0  0  0  0  0
   38.1750   24.4570   36.4330 C   0  0  0  0  0  0  0  0  0  0  0  0
   39.0160   23.7060   35.5460 C   0  0  0  0  0  0  0  0  0  0  0  0
   39.8320   22.7780   36.0790 N   0  0  0  0  0  0  0  0  0  0  0  0
   39.8830   22.5450   37.3610 C   0  0  0  0  0  0  0  0  0  0  0  0
   39.1340   23.2030   38.2420 N   0  0  0  0  0  0  0  0  0  0  0  0
   40.7680   21.5640   37.8390 N   0  0  0  0  0  0  0  0  0  0  0  0
   37.2720   25.4400   36.1110 O   0  0  0  0  0  0  0  0  0  0  0  0
   40.4675   23.5946   33.4118 H   0  0  0  0  0  0  0  0  0  0  0  0
   40.2582   25.6690   31.5757 H   0  0  0  0  0  0  0  0  0  0  0  0
   38.7422   25.8769   31.9104 H   0  0  0  0  0  0  0  0  0  0  0  0
   39.9363   26.7236   34.6307 H   0  0  0  0  0  0  0  0  0  0  0  0
   41.3756   28.0677   32.0641 H   0  0  0  0  0  0  0  0  0  0  0  0
   43.8526   28.5967   32.5117 H   0  0  0  0  0  0  0  0  0  0  0  0
   45.8386   27.5158   34.2896 H   0  0  0  0  0  0  0  0  0  0  0  0
   46.2160   25.8167   36.0040 H   0  0  0  0  0  0  0  0  0  0  0  0
   44.3178   24.3399   36.7222 H   0  0  0  0  0  0  0  0  0  0  0  0
   42.1263   24.6506   35.6709 H   0  0  0  0  0  0  0  0  0  0  0  0
   37.6463   24.7091   38.5685 H   0  0  0  0  0  0  0  0  0  0  0  0
   40.8216   21.3666   38.8485 H   0  0  0  0  0  0  0  0  0  0  0  0
   41.3632   21.0422   37.1799 H   0  0  0  0  0  0  0  0  0  0  0  0
   37.1448   25.7049   35.1656 H   0  0  0  0  0  0  0  0  0  0  0  0
  1  3  1  0
  1 13  1  0
  2  1  1  0
  2  3  1  0
  4  3  1  0
  4 12  1  0
  5  6  1  0
  5  4  2  0
  6  7  1  0
  7 12  2  0
  7  8  1  0
  8  9  2  0
  9 10  1  0
 11 10  2  0
 12 11  1  0
 13 16  1  0
 14 19  2  0
 15 14  1  0
 16 17  1  0
 16 15  2  0
 17 18  2  0
 18 20  1  0
 18 19  1  0
 21 15  1  0
  1 22  1  6
  2 23  1  0
  2 24  1  0
  3 25  1  1
  5 26  1  0
  6 27  1  0
  8 28  1  0
  9 29  1  0
 10 30  1  0
 11 31  1  0
 14 32  1  0
 20 33  1  0
 20 34  1  0
 21 35  1  0
M  ISO  8  22  13  23  13  24  13  25  13  26  14  27   9  28  14  29  14
M  ISO  4  30  14  31  14  32  14  35   3
M  END
>  <minimizedAffinity>  (1) 
-5.08273411

>  <minimizedRMSD>  (1) 
0.817409217

$$$$
