
     RDKit          3D

 37 40  0  0  1  0  0  0  0  0999 V2000
   39.6210   25.0620   33.8840 C   0  0  1  0  0  0  0  0  0  0  0  0
   39.2130   26.4780   33.7450 C   0  0  0  0  0  0  0  0  0  0  0  0
   40.4030   26.2090   34.6120 C   0  0  2  0  0  0  0  0  0  0  0  0
   41.6560   26.6830   33.9960 C   0  0  0  0  0  0  0  0  0  0  0  0
   41.7540   27.6810   33.0180 C   0  0  0  0  0  0  0  0  0  0  0  0
   43.0300   28.0070   32.7700 N   0  0  0  0  0  0  0  0  0  0  0  0
   43.7880   27.2430   33.5620 C   0  0  0  0  0  0  0  0  0  0  0  0
   45.1700   27.0830   33.7480 C   0  0  0  0  0  0  0  0  0  0  0  0
   45.7160   26.1700   34.6250 C   0  0  0  0  0  0  0  0  0  0  0  0
   44.8730   25.3700   35.3630 C   0  0  0  0  0  0  0  0  0  0  0  0
   43.5240   25.5230   35.1870 C   0  0  0  0  0  0  0  0  0  0  0  0
   42.9450   26.4330   34.3120 C   0  0  0  0  0  0  0  0  0  0  0  0
   38.8910   24.3250   34.9080 O   0  0  0  0  0  0  0  0  0  0  0  0
   39.7280   22.8390   38.0740 C   0  0  0  0  0  0  0  0  0  0  0  0
   39.0990   23.6420   37.0510 C   0  0  0  0  0  0  0  0  0  0  0  0
   39.5950   23.4830   35.7130 C   0  0  0  0  0  0  0  0  0  0  0  0
   40.5960   22.6060   35.5010 N   0  0  0  0  0  0  0  0  0  0  0  0
   41.1300   21.9050   36.4580 C   0  0  0  0  0  0  0  0  0  0  0  0
   40.7210   22.0010   37.7320 N   0  0  0  0  0  0  0  0  0  0  0  0
   42.1750   21.0170   36.1510 N   0  0  0  0  0  0  0  0  0  0  0  0
   38.0090   24.5240   37.4850 C   0  0  0  0  0  0  0  0  0  0  0  0
   37.8590   24.4300   38.8530 F   0  0  0  0  0  0  0  0  0  0  0  0
   38.2590   25.8150   37.0890 F   0  0  0  0  0  0  0  0  0  0  0  0
   36.8400   24.0310   36.9360 F   0  0  0  0  0  0  0  0  0  0  0  0
   39.8094   24.2593   33.1558 H   0  0  0  0  0  0  0  0  0  0  0  0
   39.3521   26.9877   32.7802 H   0  0  0  0  0  0  0  0  0  0  0  0
   38.2645   27.0112   33.9065 H   0  0  0  0  0  0  0  0  0  0  0  0
   40.7193   26.3732   35.6527 H   0  0  0  0  0  0  0  0  0  0  0  0
   40.8901   28.1405   32.5155 H   0  0  0  0  0  0  0  0  0  0  0  0
   43.3630   28.7121   32.0971 H   0  0  0  0  0  0  0  0  0  0  0  0
   45.8522   27.7185   33.1643 H   0  0  0  0  0  0  0  0  0  0  0  0
   46.8071   26.0822   34.7333 H   0  0  0  0  0  0  0  0  0  0  0  0
   45.2714   24.6301   36.0728 H   0  0  0  0  0  0  0  0  0  0  0  0
   42.8535   24.8821   35.7784 H   0  0  0  0  0  0  0  0  0  0  0  0
   39.3978   22.9128   39.1207 H   0  0  0  0  0  0  0  0  0  0  0  0
   42.6088   20.4546   36.8969 H   0  0  0  0  0  0  0  0  0  0  0  0
   42.5072   20.9286   35.1801 H   0  0  0  0  0  0  0  0  0  0  0  0
  1  3  1  0
  1 13  1  0
  2  1  1  0
  2  3  1  0
  4 12  1  0
  4  3  1  0
  5  4  2  0
  6  5  1  0
  6  7  1  0
  7  8  2  0
  7 12  1  0
  8  9  1  0
  9 10  2  0
 11 10  1  0
 12 11  2  0
 13 16  1  0
 15 21  1  0
 15 14  2  0
 16 15  1  0
 17 16  2  0
 17 18  1  0
 18 19  2  0
 19 14  1  0
 20 18  1  0
 21 22  1  0
 23 21  1  0
 24 21  1  0
  1 25  1  6
  2 26  1  0
  2 27  1  0
  3 28  1  1
  5 29  1  0
  6 30  1  0
  8 31  1  0
  9 32  1  0
 10 33  1  0
 11 34  1  0
 14 35  1  0
 20 36  1  0
 20 37  1  0
M  ISO  8  25  13  26  13  27  13  28  13  29  14  30   9  31  14  32  14
M  ISO  3  33  14  34  14  35  14
M  END
>  <minimizedAffinity>  (1) 
-5.33036947

>  <minimizedRMSD>  (1) 
1.49935818

$$$$
