
     RDKit          3D

 23 24  0  0  0  0  0  0  0  0999 V2000
   37.3190   21.8690   35.0180 C   0  0  0  0  0  0  0  0  0  0  0  0
   37.8320   22.1000   33.7530 C   0  0  0  0  0  0  0  0  0  0  0  0
   37.2030   21.5820   32.6270 C   0  0  0  0  0  0  0  0  0  0  0  0
   36.0410   20.8300   32.8650 C   0  0  0  0  0  0  0  0  0  0  0  0
   35.5230   20.5950   34.1100 C   0  0  0  0  0  0  0  0  0  0  0  0
   36.1790   21.1270   35.2040 C   0  0  0  0  0  0  0  0  0  0  0  0
   39.8310   22.6540   37.5900 C   0  0  0  0  0  0  0  0  0  0  0  0
   39.1490   23.5360   38.4260 C   0  0  0  0  0  0  0  0  0  0  0  0
   37.8290   23.8420   38.0800 C   0  0  0  0  0  0  0  0  0  0  0  0
   37.2850   23.2800   36.9740 N   0  0  0  0  0  0  0  0  0  0  0  0
   37.9920   22.4180   36.1820 C   0  0  0  0  0  0  0  0  0  0  0  0
   39.2600   22.1120   36.4970 N   0  0  0  0  0  0  0  0  0  0  0  0
   35.6770   20.9130   36.5920 C   0  0  0  0  0  0  0  0  0  0  0  0
   38.7469   22.6997   33.6379 H   0  0  0  0  0  0  0  0  0  0  0  0
   37.5915   21.7507   31.6118 H   0  0  0  0  0  0  0  0  0  0  0  0
   35.5150   20.4038   31.9980 H   0  0  0  0  0  0  0  0  0  0  0  0
   34.6079   19.9979   34.2366 H   0  0  0  0  0  0  0  0  0  0  0  0
   40.8716   22.3913   37.8310 H   0  0  0  0  0  0  0  0  0  0  0  0
   39.6265   23.9711   39.3163 H   0  0  0  0  0  0  0  0  0  0  0  0
   37.2382   24.5324   38.7000 H   0  0  0  0  0  0  0  0  0  0  0  0
   36.4414   21.2389   37.3127 H   0  0  0  0  0  0  0  0  0  0  0  0
   34.7574   21.4973   36.7435 H   0  0  0  0  0  0  0  0  0  0  0  0
   35.4619   19.8449   36.7435 H   0  0  0  0  0  0  0  0  0  0  0  0
  1  6  1  0
  1 11  1  0
  2  1  2  0
  3  4  2  0
  3  2  1  0
  4  5  1  0
  5  6  2  0
  6 13  1  0
  7  8  2  0
  9  8  1  0
 10  9  2  0
 11 12  2  0
 11 10  1  0
 12  7  1  0
  2 14  1  0
  3 15  1  0
  4 16  1  0
  5 17  1  0
  7 18  1  0
  8 19  1  0
  9 20  1  0
 13 21  1  0
 13 22  1  0
 13 23  1  0
M  ISO  8  14  14  15  14  16  14  17  14  18  14  19  14  20  14  21   8
M  ISO  2  22   8  23   8
M  END
>  <minimizedAffinity>  (1) 
-4.32711029

>  <minimizedRMSD>  (1) 
0.219032928

$$$$
