
     RDKit          3D

 29 30  0  0  0  0  0  0  0  0999 V2000
   39.4830   25.3300   34.7160 C   0  0  0  0  0  0  0  0  0  0  0  0
   40.2420   26.4930   34.8030 C   0  0  0  0  0  0  0  0  0  0  0  0
   40.4710   27.2140   33.6280 C   0  0  0  0  0  0  0  0  0  0  0  0
   39.9300   26.7280   32.4510 C   0  0  0  0  0  0  0  0  0  0  0  0
   39.1830   25.5820   32.3760 C   0  0  0  0  0  0  0  0  0  0  0  0
   38.9370   24.8390   33.5350 C   0  0  0  0  0  0  0  0  0  0  0  0
   39.7540   22.8440   37.4290 C   0  0  0  0  0  0  0  0  0  0  0  0
   38.6680   23.1980   38.2630 C   0  0  0  0  0  0  0  0  0  0  0  0
   37.8660   24.2950   37.8650 C   0  0  0  0  0  0  0  0  0  0  0  0
   38.2040   24.9140   36.7230 N   0  0  0  0  0  0  0  0  0  0  0  0
   39.2400   24.5640   35.9380 C   0  0  0  0  0  0  0  0  0  0  0  0
   40.0040   23.5310   36.3040 N   0  0  0  0  0  0  0  0  0  0  0  0
   38.1350   23.6130   33.4510 C   0  0  0  0  0  0  0  0  0  0  0  0
   37.0470   23.8380   32.4490 C   0  0  0  0  0  0  0  0  0  0  0  0
   39.0420   22.5160   32.9340 C   0  0  0  0  0  0  0  0  0  0  0  0
   40.6489   26.8341   35.7663 H   0  0  0  0  0  0  0  0  0  0  0  0
   41.0638   28.1405   33.6386 H   0  0  0  0  0  0  0  0  0  0  0  0
   40.1095   27.2929   31.5244 H   0  0  0  0  0  0  0  0  0  0  0  0
   38.7788   25.2480   31.4090 H   0  0  0  0  0  0  0  0  0  0  0  0
   40.3998   21.9975   37.7053 H   0  0  0  0  0  0  0  0  0  0  0  0
   38.4541   22.6413   39.1873 H   0  0  0  0  0  0  0  0  0  0  0  0
   37.0049   24.6250   38.4646 H   0  0  0  0  0  0  0  0  0  0  0  0
   37.7066   23.3452   34.4281 H   0  0  0  0  0  0  0  0  0  0  0  0
   36.1002   24.0338   32.9736 H   0  0  0  0  0  0  0  0  0  0  0  0
   37.3023   24.7023   31.8184 H   0  0  0  0  0  0  0  0  0  0  0  0
   36.9386   22.9433   31.8184 H   0  0  0  0  0  0  0  0  0  0  0  0
   39.4872   21.9775   33.7836 H   0  0  0  0  0  0  0  0  0  0  0  0
   38.4566   21.8145   32.3214 H   0  0  0  0  0  0  0  0  0  0  0  0
   39.8410   22.9591   32.3214 H   0  0  0  0  0  0  0  0  0  0  0  0
  1  2  2  0
  1 11  1  0
  3  2  1  0
  4  3  2  0
  5  4  1  0
  5  6  2  0
  6  1  1  0
  7  8  2  0
  9  8  1  0
 10  9  2  0
 11 12  2  0
 11 10  1  0
 12  7  1  0
 13  6  1  0
 14 13  1  0
 15 13  1  0
  2 16  1  0
  3 17  1  0
  4 18  1  0
  5 19  1  0
  7 20  1  0
  8 21  1  0
  9 22  1  0
 13 23  1  0
 14 24  1  0
 14 25  1  0
 14 26  1  0
 15 27  1  0
 15 28  1  0
 15 29  1  0
M  ISO  8  16  14  17  14  18  14  19  14  20  14  21  14  22  14  23   8
M  ISO  6  24   8  25   8  26   8  27   8  28   8  29   8
M  END
>  <minimizedAffinity>  (1) 
-3.89813566

>  <minimizedRMSD>  (1) 
4.55707598

$$$$
