
     RDKit          3D

 34 36  0  0  0  0  0  0  0  0999 V2000
   38.6160   25.4660   35.3400 C   0  0  0  0  0  0  0  0  0  0  0  0
   38.5930   26.7160   35.9490 C   0  0  0  0  0  0  0  0  0  0  0  0
   37.8520   27.7590   35.4070 C   0  0  0  0  0  0  0  0  0  0  0  0
   37.1610   27.4700   34.2570 C   0  0  0  0  0  0  0  0  0  0  0  0
   37.1740   26.2470   33.6480 C   0  0  0  0  0  0  0  0  0  0  0  0
   37.9220   25.1980   34.1940 C   0  0  0  0  0  0  0  0  0  0  0  0
   41.3160   23.0560   36.0650 C   0  0  0  0  0  0  0  0  0  0  0  0
   40.7910   22.3590   37.1690 C   0  0  0  0  0  0  0  0  0  0  0  0
   39.5220   22.7340   37.6380 C   0  0  0  0  0  0  0  0  0  0  0  0
   38.9040   23.7340   36.9940 N   0  0  0  0  0  0  0  0  0  0  0  0
   39.3990   24.4080   35.9340 C   0  0  0  0  0  0  0  0  0  0  0  0
   40.6100   24.0490   35.4880 N   0  0  0  0  0  0  0  0  0  0  0  0
   37.8870   23.9220   33.4900 C   0  0  0  0  0  0  0  0  0  0  0  0
   38.6980   23.6240   32.4620 N   0  0  0  0  0  0  0  0  0  0  0  0
   38.4640   22.4290   32.0150 O   0  0  0  0  0  0  0  0  0  0  0  0
   37.5140   21.9010   32.7090 C   0  0  0  0  0  0  0  0  0  0  0  0
   37.1540   22.8090   33.6150 N   0  0  0  0  0  0  0  0  0  0  0  0
   36.9290   20.5380   32.5320 C   0  0  0  0  0  0  0  0  0  0  0  0
   36.5420   20.2930   31.1000 C   0  0  0  0  0  0  0  0  0  0  0  0
   35.7270   20.3530   33.4050 C   0  0  0  0  0  0  0  0  0  0  0  0
   39.1688   26.8812   36.8716 H   0  0  0  0  0  0  0  0  0  0  0  0
   37.8211   28.7557   35.8714 H   0  0  0  0  0  0  0  0  0  0  0  0
   36.5613   28.2701   33.7985 H   0  0  0  0  0  0  0  0  0  0  0  0
   36.5952   26.0866   32.7265 H   0  0  0  0  0  0  0  0  0  0  0  0
   42.3077   22.7892   35.6708 H   0  0  0  0  0  0  0  0  0  0  0  0
   41.3566   21.5467   37.6489 H   0  0  0  0  0  0  0  0  0  0  0  0
   39.0552   22.2291   38.4966 H   0  0  0  0  0  0  0  0  0  0  0  0
   37.7036   19.8130   32.8225 H   0  0  0  0  0  0  0  0  0  0  0  0
   35.6130   19.7049   31.0667 H   0  0  0  0  0  0  0  0  0  0  0  0
   36.3845   21.2563   30.5928 H   0  0  0  0  0  0  0  0  0  0  0  0
   37.3453   19.7386   30.5928 H   0  0  0  0  0  0  0  0  0  0  0  0
   36.0303   20.3997   34.4613 H   0  0  0  0  0  0  0  0  0  0  0  0
   34.9971   21.1494   33.1976 H   0  0  0  0  0  0  0  0  0  0  0  0
   35.2704   19.3740   33.1976 H   0  0  0  0  0  0  0  0  0  0  0  0
  1 11  1  0
  1  2  2  0
  3  2  1  0
  4  3  2  0
  5  6  2  0
  5  4  1  0
  6  1  1  0
  7  8  2  0
  8  9  1  0
 10  9  2  0
 11 10  1  0
 12 11  2  0
 12  7  1  0
 13 17  1  0
 13  6  1  0
 14 13  2  0
 15 14  1  0
 15 16  1  0
 16 17  2  0
 18 16  1  0
 18 20  1  0
 19 18  1  0
  2 21  1  0
  3 22  1  0
  4 23  1  0
  5 24  1  0
  7 25  1  0
  8 26  1  0
  9 27  1  0
 18 28  1  0
 19 29  1  0
 19 30  1  0
 19 31  1  0
 20 32  1  0
 20 33  1  0
 20 34  1  0
M  ISO  8  21  14  22  14  23  14  24  14  25  14  26  14  27  14  28   8
M  ISO  6  29   8  30   8  31   8  32   8  33   8  34   8
M  END
>  <minimizedAffinity>  (1) 
-4.89568186

>  <minimizedRMSD>  (1) 
3.48223352

$$$$
