
     RDKit          3D

 27 29  0  0  0  0  0  0  0  0999 V2000
   39.1860   23.2760   34.6580 C   0  0  0  0  0  0  0  0  0  0  0  0
   40.2250   23.9320   33.9850 C   0  0  0  0  0  0  0  0  0  0  0  0
   40.3760   23.8180   32.6150 C   0  0  0  0  0  0  0  0  0  0  0  0
   39.4450   23.0260   31.9700 C   0  0  0  0  0  0  0  0  0  0  0  0
   38.4140   22.3710   32.6160 C   0  0  0  0  0  0  0  0  0  0  0  0
   38.2780   22.4970   33.9950 C   0  0  0  0  0  0  0  0  0  0  0  0
   39.6420   22.8580   38.2840 C   0  0  0  0  0  0  0  0  0  0  0  0
   38.7520   23.8160   38.7990 C   0  0  0  0  0  0  0  0  0  0  0  0
   38.0150   24.5860   37.8870 C   0  0  0  0  0  0  0  0  0  0  0  0
   38.2100   24.3530   36.5780 N   0  0  0  0  0  0  0  0  0  0  0  0
   39.0700   23.4270   36.0930 C   0  0  0  0  0  0  0  0  0  0  0  0
   39.7670   22.7010   36.9590 N   0  0  0  0  0  0  0  0  0  0  0  0
   37.1780   21.7850   34.6020 C   0  0  0  0  0  0  0  0  0  0  0  0
   36.2960   21.0260   33.9230 N   0  0  0  0  0  0  0  0  0  0  0  0
   35.4110   20.4980   34.6970 O   0  0  0  0  0  0  0  0  0  0  0  0
   35.6450   20.8670   35.9080 C   0  0  0  0  0  0  0  0  0  0  0  0
   36.7250   21.6560   35.8660 N   0  0  0  0  0  0  0  0  0  0  0  0
   35.0970   20.6710   37.1960 N   0  0  0  0  0  0  0  0  0  0  0  0
   40.9337   24.5491   34.5568 H   0  0  0  0  0  0  0  0  0  0  0  0
   41.1868   24.3262   32.0724 H   0  0  0  0  0  0  0  0  0  0  0  0
   39.5296   22.9104   30.8794 H   0  0  0  0  0  0  0  0  0  0  0  0
   37.7055   21.7540   32.0439 H   0  0  0  0  0  0  0  0  0  0  0  0
   40.2367   22.2363   38.9694 H   0  0  0  0  0  0  0  0  0  0  0  0
   38.6369   23.9577   39.8837 H   0  0  0  0  0  0  0  0  0  0  0  0
   37.3041   25.3519   38.2305 H   0  0  0  0  0  0  0  0  0  0  0  0
   35.5298   21.1231   38.0141 H   0  0  0  0  0  0  0  0  0  0  0  0
   34.2649   20.0761   37.3166 H   0  0  0  0  0  0  0  0  0  0  0  0
  1 11  1  0
  2  1  2  0
  3  2  1  0
  4  3  2  0
  4  5  1  0
  5  6  2  0
  6 13  1  0
  6  1  1  0
  7  8  2  0
  9  8  1  0
 10  9  2  0
 11 10  1  0
 11 12  2  0
 12  7  1  0
 13 17  1  0
 14 13  2  0
 14 15  1  0
 15 16  1  0
 16 18  1  0
 17 16  2  0
  2 19  1  0
  3 20  1  0
  4 21  1  0
  5 22  1  0
  7 23  1  0
  8 24  1  0
  9 25  1  0
 18 26  1  0
 18 27  1  0
M  ISO  7  19  14  20  14  21  14  22  14  23  14  24  14  25  14
M  END
>  <minimizedAffinity>  (1) 
-4.83618021

>  <minimizedRMSD>  (1) 
0.546920896

$$$$
