
     RDKit          3D

 32 35  0  0  0  0  0  0  0  0999 V2000
   39.9200   25.1210   34.6120 C   0  0  0  0  0  0  0  0  0  0  0  0
   40.4330   26.4090   34.7000 C   0  0  0  0  0  0  0  0  0  0  0  0
   40.5150   27.2350   33.5750 C   0  0  0  0  0  0  0  0  0  0  0  0
   40.0630   26.6890   32.4080 C   0  0  0  0  0  0  0  0  0  0  0  0
   39.5480   25.4130   32.2940 C   0  0  0  0  0  0  0  0  0  0  0  0
   39.4750   24.6020   33.4310 C   0  0  0  0  0  0  0  0  0  0  0  0
   38.9200   23.2640   33.2350 C   0  0  0  0  0  0  0  0  0  0  0  0
   39.6680   22.1530   33.1340 N   0  0  0  0  0  0  0  0  0  0  0  0
   38.9250   21.1020   32.9630 O   0  0  0  0  0  0  0  0  0  0  0  0
   37.6910   21.4650   32.9450 C   0  0  0  0  0  0  0  0  0  0  0  0
   37.6740   22.7910   33.1100 N   0  0  0  0  0  0  0  0  0  0  0  0
   36.5900   20.5770   32.7760 N   0  0  0  0  0  0  0  0  0  0  0  0
   35.6590   19.9510   33.5240 C   0  0  0  0  0  0  0  0  0  0  0  0
   34.8720   19.2180   32.7090 N   0  0  0  0  0  0  0  0  0  0  0  0
   35.3110   19.3860   31.4570 C   0  0  0  0  0  0  0  0  0  0  0  0
   36.3680   20.2250   31.5150 N   0  0  0  0  0  0  0  0  0  0  0  0
   40.7300   22.7080   37.2800 C   0  0  0  0  0  0  0  0  0  0  0  0
   39.6000   22.7990   38.1080 C   0  0  0  0  0  0  0  0  0  0  0  0
   38.5690   23.7010   37.7250 C   0  0  0  0  0  0  0  0  0  0  0  0
   38.7540   24.4010   36.5950 N   0  0  0  0  0  0  0  0  0  0  0  0
   39.8550   24.3060   35.7990 C   0  0  0  0  0  0  0  0  0  0  0  0
   40.8160   23.4560   36.1690 N   0  0  0  0  0  0  0  0  0  0  0  0
   37.4370   23.8500   38.4730 O   0  0  0  0  0  0  0  0  0  0  0  0
   40.7812   26.7860   35.6730 H   0  0  0  0  0  0  0  0  0  0  0  0
   40.9172   28.2575   33.6266 H   0  0  0  0  0  0  0  0  0  0  0  0
   40.1124   27.3063   31.4989 H   0  0  0  0  0  0  0  0  0  0  0  0
   39.1992   25.0387   31.3202 H   0  0  0  0  0  0  0  0  0  0  0  0
   35.5579   20.0255   34.6168 H   0  0  0  0  0  0  0  0  0  0  0  0
   34.8903   18.9271   30.5502 H   0  0  0  0  0  0  0  0  0  0  0  0
   41.5480   22.0211   37.5428 H   0  0  0  0  0  0  0  0  0  0  0  0
   39.5148   22.1932   39.0222 H   0  0  0  0  0  0  0  0  0  0  0  0
   36.7335   24.4844   38.1853 H   0  0  0  0  0  0  0  0  0  0  0  0
  1  2  2  0
  1 21  1  0
  3  2  1  0
  4  3  2  0
  5  4  1  0
  5  6  2  0
  6  1  1  0
  7  6  1  0
  8  7  2  0
  9  8  1  0
 10  9  1  0
 10 11  2  0
 11  7  1  0
 12 10  1  0
 12 13  1  0
 14 13  2  0
 15 16  2  0
 15 14  1  0
 16 12  1  0
 17 18  2  0
 19 18  1  0
 19 23  1  0
 20 19  2  0
 21 22  2  0
 21 20  1  0
 22 17  1  0
  2 24  1  0
  3 25  1  0
  4 26  1  0
  5 27  1  0
 13 28  1  0
 15 29  1  0
 17 30  1  0
 18 31  1  0
 23 32  1  0
M  ISO  8  24  14  25  14  26  14  27  14  28  14  29  14  30  14  31  14
M  ISO  1  32   3
M  END
>  <minimizedAffinity>  (1) 
-5.08871365

>  <minimizedRMSD>  (1) 
0.531034291

$$$$
