
     RDKit          3D

 41 45  0  0  0  0  0  0  0  0999 V2000
   37.6930   26.5140   34.4290 C   0  0  0  0  0  0  0  0  0  0  0  0
   37.5760   27.6640   35.2170 C   0  0  0  0  0  0  0  0  0  0  0  0
   36.7600   28.7160   34.8350 C   0  0  0  0  0  0  0  0  0  0  0  0
   36.0850   28.5480   33.6400 C   0  0  0  0  0  0  0  0  0  0  0  0
   36.1950   27.4210   32.8590 C   0  0  0  0  0  0  0  0  0  0  0  0
   37.0250   26.3670   33.2630 C   0  0  0  0  0  0  0  0  0  0  0  0
   37.0770   25.2130   32.3720 C   0  0  0  0  0  0  0  0  0  0  0  0
   37.0830   25.3110   31.0240 N   0  0  0  0  0  0  0  0  0  0  0  0
   37.1340   24.1420   30.4710 O   0  0  0  0  0  0  0  0  0  0  0  0
   37.1630   23.2450   31.4090 C   0  0  0  0  0  0  0  0  0  0  0  0
   37.1290   23.8950   32.5710 N   0  0  0  0  0  0  0  0  0  0  0  0
   37.2210   21.8410   31.1710 N   0  0  0  0  0  0  0  0  0  0  0  0
   38.1120   20.8490   31.1670 C   0  0  0  0  0  0  0  0  0  0  0  0
   37.5160   19.7030   30.8490 N   0  0  0  0  0  0  0  0  0  0  0  0
   36.2160   19.9710   30.6470 C   0  0  0  0  0  0  0  0  0  0  0  0
   36.0460   21.3030   30.8490 N   0  0  0  0  0  0  0  0  0  0  0  0
   40.6050   24.3190   34.9190 C   0  0  0  0  0  0  0  0  0  0  0  0
   40.0810   23.3490   35.8110 C   0  0  0  0  0  0  0  0  0  0  0  0
   38.7440   23.4820   36.2150 C   0  0  0  0  0  0  0  0  0  0  0  0
   38.0520   24.5160   35.7310 N   0  0  0  0  0  0  0  0  0  0  0  0
   38.5570   25.4460   34.8730 C   0  0  0  0  0  0  0  0  0  0  0  0
   39.8270   25.3130   34.4970 N   0  0  0  0  0  0  0  0  0  0  0  0
   38.1370   22.5680   37.0970 N   0  0  0  0  0  0  0  0  0  0  0  0
   40.9880   22.3010   36.2270 C   0  0  0  0  0  0  0  0  0  0  0  0
   41.2140   21.8090   37.4830 C   0  0  0  0  0  0  0  0  0  0  0  0
   42.0860   20.8110   37.8320 C   0  0  0  0  0  0  0  0  0  0  0  0
   42.8130   20.2330   36.8450 N   0  0  0  0  0  0  0  0  0  0  0  0
   42.6070   20.7020   35.5840 C   0  0  0  0  0  0  0  0  0  0  0  0
   41.7430   21.6770   35.3120 N   0  0  0  0  0  0  0  0  0  0  0  0
   38.1425   27.7341   36.1573 H   0  0  0  0  0  0  0  0  0  0  0  0
   36.6557   29.6266   35.4432 H   0  0  0  0  0  0  0  0  0  0  0  0
   35.4254   29.3582   33.2958 H   0  0  0  0  0  0  0  0  0  0  0  0
   35.6313   27.3473   31.9173 H   0  0  0  0  0  0  0  0  0  0  0  0
   39.1825   20.9617   31.3934 H   0  0  0  0  0  0  0  0  0  0  0  0
   35.4352   19.2474   30.3699 H   0  0  0  0  0  0  0  0  0  0  0  0
   41.6485   24.2503   34.5778 H   0  0  0  0  0  0  0  0  0  0  0  0
   37.1530   22.6951   37.3734 H   0  0  0  0  0  0  0  0  0  0  0  0
   38.6769   21.7722   37.4659 H   0  0  0  0  0  0  0  0  0  0  0  0
   40.6340   22.2627   38.3002 H   0  0  0  0  0  0  0  0  0  0  0  0
   42.1923   20.4897   38.8786 H   0  0  0  0  0  0  0  0  0  0  0  0
   43.1780   20.2569   34.7558 H   0  0  0  0  0  0  0  0  0  0  0  0
  1 21  1  0
  1  2  2  0
  3  2  1  0
  4  3  2  0
  5  6  2  0
  5  4  1  0
  6  1  1  0
  7 11  1  0
  7  6  1  0
  8  7  2  0
  9  8  1  0
  9 10  1  0
 10 11  2  0
 12 10  1  0
 13 12  1  0
 14 13  2  0
 15 14  1  0
 15 16  2  0
 16 12  1  0
 17 18  2  0
 18 19  1  0
 18 24  1  0
 19 23  1  0
 20 19  2  0
 21 20  1  0
 22 21  2  0
 22 17  1  0
 24 25  2  0
 25 26  1  0
 27 26  2  0
 28 27  1  0
 29 28  2  0
 29 24  1  0
  2 30  1  0
  3 31  1  0
  4 32  1  0
  5 33  1  0
 13 34  1  0
 15 35  1  0
 17 36  1  0
 23 37  1  0
 23 38  1  0
 25 39  1  0
 26 40  1  0
 28 41  1  0
M  ISO  8  30  14  31  14  32  14  33  14  34  14  35  14  36  14  39  14
M  ISO  2  40  14  41  14
M  END
>  <minimizedAffinity>  (1) 
-6.37636232

>  <minimizedRMSD>  (1) 
3.08190727

$$$$
