
     RDKit          3D

 43 46  0  0  0  0  0  0  0  0999 V2000
   37.8260   24.4700   33.5700 C   0  0  0  0  0  0  0  0  0  0  0  0
   37.1450   23.8550   32.5390 C   0  0  0  0  0  0  0  0  0  0  0  0
   36.6410   24.8620   31.7230 C   0  0  0  0  0  0  0  0  0  0  0  0
   37.0020   26.0340   32.2400 N   0  0  0  0  0  0  0  0  0  0  0  0
   37.7220   25.7990   33.3620 N   0  0  0  0  0  0  0  0  0  0  0  0
   36.6870   27.3260   31.7070 C   0  0  0  0  0  0  0  0  0  0  0  0
   35.7430   28.0770   32.3660 C   0  0  0  0  0  0  0  0  0  0  0  0
   35.4580   29.3320   31.8210 C   0  0  0  0  0  0  0  0  0  0  0  0
   36.0850   29.7470   30.7230 N   0  0  0  0  0  0  0  0  0  0  0  0
   37.0050   29.0140   30.0820 C   0  0  0  0  0  0  0  0  0  0  0  0
   37.2800   27.7970   30.6110 N   0  0  0  0  0  0  0  0  0  0  0  0
   37.7150   29.3980   28.9020 N   0  0  0  0  0  0  0  0  0  0  0  0
   38.7050   28.5080   28.2860 C   0  0  0  0  0  0  0  0  0  0  0  0
   39.5600   29.3300   27.3720 C   0  0  0  0  0  0  0  0  0  0  0  0
   39.9690   30.6690   27.9930 C   0  0  0  0  0  0  0  0  0  0  0  0
   38.7490   31.5230   28.2620 C   0  0  0  0  0  0  0  0  0  0  0  0
   37.4920   30.6750   28.2630 C   0  0  0  0  0  0  0  0  0  0  0  0
   40.1670   22.4080   35.4780 C   0  0  0  0  0  0  0  0  0  0  0  0
   39.7490   22.6480   36.8090 C   0  0  0  0  0  0  0  0  0  0  0  0
   38.6880   23.5020   37.0030 C   0  0  0  0  0  0  0  0  0  0  0  0
   38.0780   24.0850   35.9300 N   0  0  0  0  0  0  0  0  0  0  0  0
   38.5210   23.8180   34.6660 C   0  0  0  0  0  0  0  0  0  0  0  0
   39.5460   22.9930   34.4610 N   0  0  0  0  0  0  0  0  0  0  0  0
   38.2980   23.7170   38.4050 C   0  0  0  0  0  0  0  0  0  0  0  0
   37.8970   25.0160   38.5870 F   0  0  0  0  0  0  0  0  0  0  0  0
   39.4420   23.5650   39.1700 F   0  0  0  0  0  0  0  0  0  0  0  0
   37.2710   22.9030   38.8040 F   0  0  0  0  0  0  0  0  0  0  0  0
   37.0237   22.7718   32.3906 H   0  0  0  0  0  0  0  0  0  0  0  0
   36.0470   24.7153   30.8089 H   0  0  0  0  0  0  0  0  0  0  0  0
   35.2395   27.7103   33.2726 H   0  0  0  0  0  0  0  0  0  0  0  0
   34.7111   29.9804   32.3024 H   0  0  0  0  0  0  0  0  0  0  0  0
   39.3285   28.0464   29.0658 H   0  0  0  0  0  0  0  0  0  0  0  0
   38.2020   27.7082   27.7226 H   0  0  0  0  0  0  0  0  0  0  0  0
   38.9982   29.5277   26.4472 H   0  0  0  0  0  0  0  0  0  0  0  0
   40.4798   28.7599   27.1743 H   0  0  0  0  0  0  0  0  0  0  0  0
   40.4965   30.4827   28.9401 H   0  0  0  0  0  0  0  0  0  0  0  0
   40.6276   31.2007   27.2904 H   0  0  0  0  0  0  0  0  0  0  0  0
   38.8575   32.0093   29.2427 H   0  0  0  0  0  0  0  0  0  0  0  0
   38.6648   32.2800   27.4684 H   0  0  0  0  0  0  0  0  0  0  0  0
   36.6991   31.2119   28.8043 H   0  0  0  0  0  0  0  0  0  0  0  0
   37.1985   30.4918   27.2188 H   0  0  0  0  0  0  0  0  0  0  0  0
   41.0128   21.7317   35.2850 H   0  0  0  0  0  0  0  0  0  0  0  0
   40.2554   22.1679   37.6594 H   0  0  0  0  0  0  0  0  0  0  0  0
  1 22  1  0
  2  1  1  0
  3  4  1  0
  3  2  2  0
  4  5  1  0
  5  1  2  0
  6  4  1  0
  6  7  2  0
  8  7  1  0
  9  8  2  0
 10 11  2  0
 10  9  1  0
 11  6  1  0
 12 10  1  0
 13 12  1  0
 14 15  1  0
 14 13  1  0
 15 16  1  0
 16 17  1  0
 17 12  1  0
 18 19  2  0
 19 20  1  0
 20 24  1  0
 21 20  2  0
 22 21  1  0
 23 22  2  0
 23 18  1  0
 24 25  1  0
 24 27  1  0
 24 26  1  0
  2 28  1  0
  3 29  1  0
  7 30  1  0
  8 31  1  0
 13 32  1  0
 13 33  1  0
 14 34  1  0
 14 35  1  0
 15 36  1  0
 15 37  1  0
 16 38  1  0
 16 39  1  0
 17 40  1  0
 17 41  1  0
 18 42  1  0
 19 43  1  0
M  ISO  8  28  14  29  14  30  14  31  14  32  13  33  13  34  13  35  13
M  ISO  8  36  13  37  13  38  13  39  13  40  13  41  13  42  14  43  14
M  END
>  <minimizedAffinity>  (1) 
-6.32411385

>  <minimizedRMSD>  (1) 
2.59303761

$$$$
