
     RDKit          3D

 36 39  0  0  0  0  0  0  0  0999 V2000
   38.7990   25.5800   34.9720 C   0  0  0  0  0  0  0  0  0  0  0  0
   38.8450   26.7100   35.7850 C   0  0  0  0  0  0  0  0  0  0  0  0
   37.9750   27.7740   35.5960 C   0  0  0  0  0  0  0  0  0  0  0  0
   37.0770   27.6310   34.5610 C   0  0  0  0  0  0  0  0  0  0  0  0
   37.0220   26.5170   33.7490 C   0  0  0  0  0  0  0  0  0  0  0  0
   37.9100   25.4610   33.9620 C   0  0  0  0  0  0  0  0  0  0  0  0
   37.7780   24.3220   33.0530 C   0  0  0  0  0  0  0  0  0  0  0  0
   37.9580   24.4090   31.7160 N   0  0  0  0  0  0  0  0  0  0  0  0
   37.7840   23.2630   31.1380 O   0  0  0  0  0  0  0  0  0  0  0  0
   37.4880   22.3880   32.0510 C   0  0  0  0  0  0  0  0  0  0  0  0
   37.4860   23.0400   33.2130 N   0  0  0  0  0  0  0  0  0  0  0  0
   37.2270   21.0110   31.7850 N   0  0  0  0  0  0  0  0  0  0  0  0
   37.8440   19.8330   31.8590 C   0  0  0  0  0  0  0  0  0  0  0  0
   37.0120   18.8750   31.4410 N   0  0  0  0  0  0  0  0  0  0  0  0
   35.8610   19.4510   31.1010 C   0  0  0  0  0  0  0  0  0  0  0  0
   36.0020   20.7810   31.3180 N   0  0  0  0  0  0  0  0  0  0  0  0
   41.6270   23.2190   34.6740 C   0  0  0  0  0  0  0  0  0  0  0  0
   41.4200   22.4100   35.7900 C   0  0  0  0  0  0  0  0  0  0  0  0
   40.3270   22.6660   36.6360 C   0  0  0  0  0  0  0  0  0  0  0  0
   39.5250   23.7060   36.3080 N   0  0  0  0  0  0  0  0  0  0  0  0
   39.7250   24.5050   35.2110 C   0  0  0  0  0  0  0  0  0  0  0  0
   40.7710   24.2320   34.4340 N   0  0  0  0  0  0  0  0  0  0  0  0
   40.0320   21.9080   37.7860 N   0  0  0  0  0  0  0  0  0  0  0  0
   42.2990   21.2960   36.1210 C   0  0  0  0  0  0  0  0  0  0  0  0
   42.7150   21.2310   37.3010 O   0  0  0  0  0  0  0  0  0  0  0  0
   42.6310   20.3770   35.1330 O   0  0  0  0  0  0  0  0  0  0  0  0
   39.5876   26.7599   36.5949 H   0  0  0  0  0  0  0  0  0  0  0  0
   38.0005   28.6722   36.2304 H   0  0  0  0  0  0  0  0  0  0  0  0
   36.3659   28.4487   34.3720 H   0  0  0  0  0  0  0  0  0  0  0  0
   36.2817   26.4611   32.9373 H   0  0  0  0  0  0  0  0  0  0  0  0
   38.8748   19.6741   32.2087 H   0  0  0  0  0  0  0  0  0  0  0  0
   34.9644   18.9429   30.7164 H   0  0  0  0  0  0  0  0  0  0  0  0
   42.4759   23.0335   33.9995 H   0  0  0  0  0  0  0  0  0  0  0  0
   39.2146   22.1476   38.3650 H   0  0  0  0  0  0  0  0  0  0  0  0
   40.6337   21.1141   38.0479 H   0  0  0  0  0  0  0  0  0  0  0  0
   43.2273   19.6158   35.3452 H   0  0  0  0  0  0  0  0  0  0  0  0
  1 21  1  0
  1  2  2  0
  3  2  1  0
  4  3  2  0
  5  6  2  0
  5  4  1  0
  6  1  1  0
  7 11  1  0
  7  6  1  0
  8  7  2  0
  9  8  1  0
  9 10  1  0
 10 11  2  0
 12 13  1  0
 12 10  1  0
 14 13  2  0
 15 16  2  0
 15 14  1  0
 16 12  1  0
 17 18  2  0
 18 24  1  0
 18 19  1  0
 19 23  1  0
 20 19  2  0
 21 20  1  0
 22 17  1  0
 22 21  2  0
 24 25  2  0
 26 24  1  0
  2 27  1  0
  3 28  1  0
  4 29  1  0
  5 30  1  0
 13 31  1  0
 15 32  1  0
 17 33  1  0
 23 34  1  0
 23 35  1  0
 26 36  1  0
M  ISO  8  27  14  28  14  29  14  30  14  31  14  32  14  33  14  36   3
M  END
>  <minimizedAffinity>  (1) 
-5.77113152

>  <minimizedRMSD>  (1) 
2.34626961

$$$$
