
     RDKit          3D

 36 39  0  0  0  0  0  0  0  0999 V2000
   38.8620   25.6780   35.0690 C   0  0  0  0  0  0  0  0  0  0  0  0
   38.7580   26.8190   35.8590 C   0  0  0  0  0  0  0  0  0  0  0  0
   37.8180   27.8000   35.5850 C   0  0  0  0  0  0  0  0  0  0  0  0
   37.0120   27.5670   34.4910 C   0  0  0  0  0  0  0  0  0  0  0  0
   37.1050   26.4430   33.7010 C   0  0  0  0  0  0  0  0  0  0  0  0
   38.0580   25.4650   33.9960 C   0  0  0  0  0  0  0  0  0  0  0  0
   38.0870   24.3040   33.1050 C   0  0  0  0  0  0  0  0  0  0  0  0
   38.7650   24.2690   31.9390 N   0  0  0  0  0  0  0  0  0  0  0  0
   38.6210   23.1210   31.3490 O   0  0  0  0  0  0  0  0  0  0  0  0
   37.8600   22.3720   32.0870 C   0  0  0  0  0  0  0  0  0  0  0  0
   37.5340   23.0900   33.1550 N   0  0  0  0  0  0  0  0  0  0  0  0
   37.4870   21.0410   31.7480 N   0  0  0  0  0  0  0  0  0  0  0  0
   37.8180   19.7820   32.0540 C   0  0  0  0  0  0  0  0  0  0  0  0
   37.0570   18.9400   31.3560 N   0  0  0  0  0  0  0  0  0  0  0  0
   36.2250   19.6690   30.5940 C   0  0  0  0  0  0  0  0  0  0  0  0
   36.5070   20.9740   30.8490 N   0  0  0  0  0  0  0  0  0  0  0  0
   41.9470   23.6670   35.1220 C   0  0  0  0  0  0  0  0  0  0  0  0
   41.6450   22.7220   36.1280 C   0  0  0  0  0  0  0  0  0  0  0  0
   40.3950   22.7920   36.7650 C   0  0  0  0  0  0  0  0  0  0  0  0
   39.5590   23.7640   36.3740 N   0  0  0  0  0  0  0  0  0  0  0  0
   39.8510   24.6870   35.3930 C   0  0  0  0  0  0  0  0  0  0  0  0
   41.0370   24.5960   34.8090 N   0  0  0  0  0  0  0  0  0  0  0  0
   39.9930   21.9030   37.7780 N   0  0  0  0  0  0  0  0  0  0  0  0
   42.5470   21.6390   36.5820 C   0  0  0  0  0  0  0  0  0  0  0  0
   42.2790   21.2240   37.8700 F   0  0  0  0  0  0  0  0  0  0  0  0
   43.8750   21.9640   36.4840 F   0  0  0  0  0  0  0  0  0  0  0  0
   42.3330   20.5090   35.7860 F   0  0  0  0  0  0  0  0  0  0  0  0
   39.4346   26.9447   36.7171 H   0  0  0  0  0  0  0  0  0  0  0  0
   37.7213   28.7063   36.2009 H   0  0  0  0  0  0  0  0  0  0  0  0
   36.2527   28.3206   34.2351 H   0  0  0  0  0  0  0  0  0  0  0  0
   36.4314   26.3156   32.8408 H   0  0  0  0  0  0  0  0  0  0  0  0
   38.5981   19.4870   32.7712 H   0  0  0  0  0  0  0  0  0  0  0  0
   35.4638   19.2848   29.8991 H   0  0  0  0  0  0  0  0  0  0  0  0
   42.9168   23.6391   34.6035 H   0  0  0  0  0  0  0  0  0  0  0  0
   39.0634   22.0015   38.2106 H   0  0  0  0  0  0  0  0  0  0  0  0
   40.6282   21.1535   38.0873 H   0  0  0  0  0  0  0  0  0  0  0  0
  1 21  1  0
  1  2  2  0
  3  2  1  0
  4  3  2  0
  5  6  2  0
  5  4  1  0
  6  1  1  0
  7 11  1  0
  7  6  1  0
  8  7  2  0
  9  8  1  0
  9 10  1  0
 10 11  2  0
 12 13  1  0
 12 10  1  0
 14 13  2  0
 15 16  2  0
 15 14  1  0
 16 12  1  0
 17 18  2  0
 18 24  1  0
 18 19  1  0
 19 23  1  0
 20 19  2  0
 21 20  1  0
 22 17  1  0
 22 21  2  0
 24 25  1  0
 26 24  1  0
 27 24  1  0
  2 28  1  0
  3 29  1  0
  4 30  1  0
  5 31  1  0
 13 32  1  0
 15 33  1  0
 17 34  1  0
 23 35  1  0
 23 36  1  0
M  ISO  7  28  14  29  14  30  14  31  14  32  14  33  14  34  14
M  END
>  <minimizedAffinity>  (1) 
-6.2065382

>  <minimizedRMSD>  (1) 
2.29003739

$$$$
