
     RDKit          3D

 42 45  0  0  0  0  0  0  0  0999 V2000
   38.8620   25.7310   35.0590 C   0  0  0  0  0  0  0  0  0  0  0  0
   38.7330   26.8630   35.8520 C   0  0  0  0  0  0  0  0  0  0  0  0
   37.7570   27.8140   35.5920 C   0  0  0  0  0  0  0  0  0  0  0  0
   36.9400   27.5550   34.5080 C   0  0  0  0  0  0  0  0  0  0  0  0
   37.0570   26.4360   33.7140 C   0  0  0  0  0  0  0  0  0  0  0  0
   38.0540   25.4900   33.9990 C   0  0  0  0  0  0  0  0  0  0  0  0
   38.1090   24.3360   33.1090 C   0  0  0  0  0  0  0  0  0  0  0  0
   38.8060   24.3100   31.9540 N   0  0  0  0  0  0  0  0  0  0  0  0
   38.6860   23.1680   31.3550 O   0  0  0  0  0  0  0  0  0  0  0  0
   37.9190   22.4000   32.0690 C   0  0  0  0  0  0  0  0  0  0  0  0
   37.5650   23.1160   33.1450 N   0  0  0  0  0  0  0  0  0  0  0  0
   37.5630   21.0700   31.7230 N   0  0  0  0  0  0  0  0  0  0  0  0
   37.9010   19.8170   32.0340 C   0  0  0  0  0  0  0  0  0  0  0  0
   37.1500   18.9710   31.3160 N   0  0  0  0  0  0  0  0  0  0  0  0
   36.3380   19.6860   30.5520 C   0  0  0  0  0  0  0  0  0  0  0  0
   36.5990   20.9950   30.8090 N   0  0  0  0  0  0  0  0  0  0  0  0
   42.0320   23.8360   35.0770 C   0  0  0  0  0  0  0  0  0  0  0  0
   41.7740   22.8700   36.0610 C   0  0  0  0  0  0  0  0  0  0  0  0
   40.5190   22.8880   36.6980 C   0  0  0  0  0  0  0  0  0  0  0  0
   39.6340   23.8310   36.3290 N   0  0  0  0  0  0  0  0  0  0  0  0
   39.8880   24.7750   35.3660 C   0  0  0  0  0  0  0  0  0  0  0  0
   41.0810   24.7480   34.7690 N   0  0  0  0  0  0  0  0  0  0  0  0
   40.1540   21.9620   37.7040 N   0  0  0  0  0  0  0  0  0  0  0  0
   42.7560   21.8540   36.4450 C   0  0  0  0  0  0  0  0  0  0  0  0
   42.6940   20.6080   35.5920 C   0  0  0  0  0  0  0  0  0  0  0  0
   44.1630   22.4250   36.2310 C   0  0  0  0  0  0  0  0  0  0  0  0
   39.4166   27.0085   36.7014 H   0  0  0  0  0  0  0  0  0  0  0  0
   37.6408   28.7169   36.2095 H   0  0  0  0  0  0  0  0  0  0  0  0
   36.1521   28.2834   34.2658 H   0  0  0  0  0  0  0  0  0  0  0  0
   36.3753   26.2849   32.8641 H   0  0  0  0  0  0  0  0  0  0  0  0
   38.6720   19.5257   32.7625 H   0  0  0  0  0  0  0  0  0  0  0  0
   35.5932   19.2945   29.8435 H   0  0  0  0  0  0  0  0  0  0  0  0
   43.0021   23.8520   34.5586 H   0  0  0  0  0  0  0  0  0  0  0  0
   39.2227   22.0163   38.1406 H   0  0  0  0  0  0  0  0  0  0  0  0
   40.8197   21.2337   37.9996 H   0  0  0  0  0  0  0  0  0  0  0  0
   42.5334   21.5925   37.4900 H   0  0  0  0  0  0  0  0  0  0  0  0
   42.6499   19.7211   36.2412 H   0  0  0  0  0  0  0  0  0  0  0  0
   41.7965   20.6426   34.9570 H   0  0  0  0  0  0  0  0  0  0  0  0
   43.5905   20.5534   34.9570 H   0  0  0  0  0  0  0  0  0  0  0  0
   44.6335   22.6160   37.2068 H   0  0  0  0  0  0  0  0  0  0  0  0
   44.7701   21.7021   35.6664 H   0  0  0  0  0  0  0  0  0  0  0  0
   44.0946   23.3665   35.6664 H   0  0  0  0  0  0  0  0  0  0  0  0
  1 21  1  0
  1  2  2  0
  3  2  1  0
  4  3  2  0
  5  6  2  0
  5  4  1  0
  6  1  1  0
  7 11  1  0
  7  6  1  0
  8  7  2  0
  9  8  1  0
  9 10  1  0
 10 11  2  0
 12 13  1  0
 12 10  1  0
 14 13  2  0
 15 16  2  0
 15 14  1  0
 16 12  1  0
 17 18  2  0
 18 24  1  0
 18 19  1  0
 19 23  1  0
 20 19  2  0
 21 20  1  0
 22 17  1  0
 22 21  2  0
 25 24  1  0
 26 24  1  0
  2 27  1  0
  3 28  1  0
  4 29  1  0
  5 30  1  0
 13 31  1  0
 15 32  1  0
 17 33  1  0
 23 34  1  0
 23 35  1  0
 24 36  1  0
 25 37  1  0
 25 38  1  0
 25 39  1  0
 26 40  1  0
 26 41  1  0
 26 42  1  0
M  ISO  8  27  14  28  14  29  14  30  14  31  14  32  14  33  14  36   8
M  ISO  6  37   8  38   8  39   8  40   8  41   8  42   8
M  END
>  <minimizedAffinity>  (1) 
-5.92569923

>  <minimizedRMSD>  (1) 
2.33812952

$$$$
