
     RDKit          3D

 25 27  0  0  0  0  0  0  0  0999 V2000
   36.0550   21.1670   35.7220 C   0  0  0  0  0  0  0  0  0  0  0  0
   35.6310   20.5810   34.4880 C   0  0  0  0  0  0  0  0  0  0  0  0
   36.4030   20.8680   33.3630 C   0  0  0  0  0  0  0  0  0  0  0  0
   37.4940   21.6690   33.4870 N   0  0  0  0  0  0  0  0  0  0  0  0
   37.8520   22.2030   34.6920 C   0  0  0  0  0  0  0  0  0  0  0  0
   37.1300   21.9430   35.7800 N   0  0  0  0  0  0  0  0  0  0  0  0
   39.0300   23.0500   34.7420 C   0  0  0  0  0  0  0  0  0  0  0  0
   40.3280   22.6160   34.6760 C   0  0  0  0  0  0  0  0  0  0  0  0
   41.1390   23.7050   34.7550 N   0  0  0  0  0  0  0  0  0  0  0  0
   40.3500   24.8130   34.8690 C   0  0  0  0  0  0  0  0  0  0  0  0
   40.6330   26.1650   34.9830 C   0  0  0  0  0  0  0  0  0  0  0  0
   39.6170   27.0950   35.0860 C   0  0  0  0  0  0  0  0  0  0  0  0
   38.2950   26.7000   35.0790 C   0  0  0  0  0  0  0  0  0  0  0  0
   38.0050   25.3560   34.9670 C   0  0  0  0  0  0  0  0  0  0  0  0
   39.0150   24.4230   34.8630 C   0  0  0  0  0  0  0  0  0  0  0  0
   35.1810   20.9030   37.2540 S   0  0  0  0  0  0  0  0  0  0  0  0
   34.7413   19.9368   34.4296 H   0  0  0  0  0  0  0  0  0  0  0  0
   36.1312   20.4494   32.3827 H   0  0  0  0  0  0  0  0  0  0  0  0
   40.6563   21.5709   34.5766 H   0  0  0  0  0  0  0  0  0  0  0  0
   42.1687   23.6953   34.7327 H   0  0  0  0  0  0  0  0  0  0  0  0
   41.6802   26.5017   34.9916 H   0  0  0  0  0  0  0  0  0  0  0  0
   39.8647   28.1631   35.1746 H   0  0  0  0  0  0  0  0  0  0  0  0
   37.4877   27.4426   35.1612 H   0  0  0  0  0  0  0  0  0  0  0  0
   36.9561   25.0248   34.9606 H   0  0  0  0  0  0  0  0  0  0  0  0
   36.0194   21.1562   38.3075 H   0  0  0  0  0  0  0  0  0  0  0  0
  1  6  2  0
  1 16  1  0
  2  1  1  0
  3  4  1  0
  3  2  2  0
  4  5  2  0
  5  7  1  0
  5  6  1  0
  7 15  1  0
  8  7  2  0
  8  9  1  0
  9 10  1  0
 10 11  2  0
 11 12  1  0
 13 12  2  0
 14 13  1  0
 15 10  1  0
 15 14  2  0
  2 17  1  0
  3 18  1  0
  8 19  1  0
  9 20  1  0
 11 21  1  0
 12 22  1  0
 13 23  1  0
 14 24  1  0
 16 25  1  0
M  ISO  8  17  14  18  14  19  14  20   9  21  14  22  14  23  14  24  14
M  ISO  1  25  11
M  END
>  <minimizedAffinity>  (1) 
-4.18779373

>  <minimizedRMSD>  (1) 
5.05788946

$$$$
