
     RDKit          3D

 25 27  0  0  0  0  0  0  0  0999 V2000
   37.1928   21.6453   34.6732 C   0  0  0  0  0  0  0  0  0  0  0  0
   35.9600   20.9342   34.8174 C   0  0  0  0  0  0  0  0  0  0  0  0
   35.4960   20.2441   33.6879 C   0  0  0  0  0  0  0  0  0  0  0  0
   36.2044   20.2728   32.5405 N   0  0  0  0  0  0  0  0  0  0  0  0
   37.3759   20.9664   32.4534 C   0  0  0  0  0  0  0  0  0  0  0  0
   37.8443   21.6329   33.5090 N   0  0  0  0  0  0  0  0  0  0  0  0
   37.9446   22.5802   35.9897 S   0  0  0  0  0  0  0  0  0  0  0  0
   35.4931   20.9890   35.7801 H   0  0  0  0  0  0  0  0  0  0  0  0
   34.5787   19.7212   33.8126 H   0  0  0  0  0  0  0  0  0  0  0  0
   39.3518   22.4288   35.8988 H   0  0  0  0  0  0  0  0  0  0  0  0
   38.0300   20.9208   31.1919 N   0  0  0  0  0  0  0  0  0  0  0  0
   38.6413   21.9229   30.5319 C   0  0  0  0  0  0  0  0  0  0  0  0
   39.1480   21.4958   29.3601 N   0  0  0  0  0  0  0  0  0  0  0  0
   38.8717   20.1728   29.2262 C   0  0  0  0  0  0  0  0  0  0  0  0
   39.1338   19.2295   28.2612 C   0  0  0  0  0  0  0  0  0  0  0  0
   39.7692   19.5461   27.2151 O   0  0  0  0  0  0  0  0  0  0  0  0
   38.7135   17.9402   28.4169 N   0  0  0  0  0  0  0  0  0  0  0  0
   38.0333   17.6358   29.5540 C   0  0  0  0  0  0  0  0  0  0  0  0
   37.5452   16.3261   29.8278 N   0  0  0  0  0  0  0  0  0  0  0  0
   37.7691   18.5673   30.5170 N   0  0  0  0  0  0  0  0  0  0  0  0
   38.1797   19.8467   30.3750 C   0  0  0  0  0  0  0  0  0  0  0  0
   38.6705   22.9271   30.9753 H   0  0  0  0  0  0  0  0  0  0  0  0
   38.8914   17.1923   27.7085 H   0  0  0  0  0  0  0  0  0  0  0  0
   36.6112   16.4378   29.3334 H   0  0  0  0  0  0  0  0  0  0  0  0
   36.6918   15.7584   29.6365 H   0  0  0  0  0  0  0  0  0  0  0  0
  1  2  2  0
  1  7  1  0
  3  2  1  0
  4  3  2  0
  5  4  1  0
  5  6  2  0
  6  1  1  0
  2  8  1  0
  3  9  1  0
  7 10  1  0
 11 12  1  0
 12 13  2  0
 13 14  1  0
 14 15  1  0
 15 16  2  0
 15 17  1  0
 17 18  1  0
 18 19  1  0
 18 20  2  0
 20 21  1  0
 21 11  1  0
 21 14  2  0
 12 22  1  0
 17 23  1  0
 19 24  1  0
 19 25  1  0
  5 11  1  0
M  END
>  <DihAtoms>  (1) 
3,4,10,11

>  <DihDeg>  (1) 
-86.44393994778684

$$$$
