
     RDKit          3D

 34 37  0  0  0  0  0  0  0  0999 V2000
   40.5250   25.0190   34.4750 C   0  0  0  0  0  0  0  0  0  0  0  0
   41.1170   26.2570   34.6850 C   0  0  0  0  0  0  0  0  0  0  0  0
   40.8380   27.3420   33.8630 C   0  0  0  0  0  0  0  0  0  0  0  0
   39.9480   27.1030   32.8420 C   0  0  0  0  0  0  0  0  0  0  0  0
   39.3490   25.8850   32.6130 C   0  0  0  0  0  0  0  0  0  0  0  0
   39.6470   24.8030   33.4600 C   0  0  0  0  0  0  0  0  0  0  0  0
   38.9670   23.5450   33.1470 C   0  0  0  0  0  0  0  0  0  0  0  0
   39.5740   22.5110   32.5180 N   0  0  0  0  0  0  0  0  0  0  0  0
   38.7590   21.5230   32.3600 O   0  0  0  0  0  0  0  0  0  0  0  0
   37.6040   21.8500   32.8670 C   0  0  0  0  0  0  0  0  0  0  0  0
   37.7390   23.0820   33.3440 N   0  0  0  0  0  0  0  0  0  0  0  0
   36.4650   21.0000   32.8720 N   0  0  0  0  0  0  0  0  0  0  0  0
   35.8070   20.1930   33.7060 C   0  0  0  0  0  0  0  0  0  0  0  0
   34.7610   19.6580   33.0660 N   0  0  0  0  0  0  0  0  0  0  0  0
   34.7530   20.1270   31.8240 C   0  0  0  0  0  0  0  0  0  0  0  0
   35.8160   20.9610   31.7090 N   0  0  0  0  0  0  0  0  0  0  0  0
   42.1550   22.1050   36.0200 C   0  0  0  0  0  0  0  0  0  0  0  0
   41.3330   21.8670   37.1230 C   0  0  0  0  0  0  0  0  0  0  0  0
   40.2210   22.7110   37.3270 C   0  0  0  0  0  0  0  0  0  0  0  0
   40.0220   23.7050   36.4340 N   0  0  0  0  0  0  0  0  0  0  0  0
   40.8430   23.9290   35.3510 C   0  0  0  0  0  0  0  0  0  0  0  0
   41.8760   23.1190   35.1900 N   0  0  0  0  0  0  0  0  0  0  0  0
   39.3220   22.5680   38.4030 N   0  0  0  0  0  0  0  0  0  0  0  0
   41.4680   20.8710   38.0820 O   0  0  0  0  0  0  0  0  0  0  0  0
   41.8221   26.3817   35.5200 H   0  0  0  0  0  0  0  0  0  0  0  0
   41.2992   28.3284   34.0188 H   0  0  0  0  0  0  0  0  0  0  0  0
   39.6998   27.9357   32.1675 H   0  0  0  0  0  0  0  0  0  0  0  0
   38.6452   25.7596   31.7769 H   0  0  0  0  0  0  0  0  0  0  0  0
   36.0809   19.9984   34.7534 H   0  0  0  0  0  0  0  0  0  0  0  0
   34.0228   19.8850   31.0377 H   0  0  0  0  0  0  0  0  0  0  0  0
   43.0282   21.4626   35.8331 H   0  0  0  0  0  0  0  0  0  0  0  0
   38.5271   23.2159   38.4996 H   0  0  0  0  0  0  0  0  0  0  0  0
   39.4599   21.8156   39.0928 H   0  0  0  0  0  0  0  0  0  0  0  0
   40.8146   20.8053   38.8228 H   0  0  0  0  0  0  0  0  0  0  0  0
  1  2  2  0
  1 21  1  0
  3  2  1  0
  4  3  2  0
  5  4  1  0
  5  6  2  0
  6  1  1  0
  7 11  1  0
  7  6  1  0
  8  7  2  0
  9  8  1  0
  9 10  1  0
 10 12  1  0
 10 11  2  0
 12 13  1  0
 14 13  2  0
 15 14  1  0
 16 15  2  0
 16 12  1  0
 17 18  2  0
 18 19  1  0
 18 24  1  0
 19 23  1  0
 20 19  2  0
 21 20  1  0
 22 21  2  0
 22 17  1  0
  2 25  1  0
  3 26  1  0
  4 27  1  0
  5 28  1  0
 13 29  1  0
 15 30  1  0
 17 31  1  0
 23 32  1  0
 23 33  1  0
 24 34  1  0
M  ISO  8  25  14  26  14  27  14  28  14  29  14  30  14  31  14  34   3
M  END
>  <minimizedAffinity>  (1) 
-5.67967844

>  <minimizedRMSD>  (1) 
0.920761824

$$$$
