
     RDKit          3D

 23 23  0  0  0  0  0  0  0  0999 V2000
   37.6430   22.0670   35.1210 C   0  0  0  0  0  0  0  0  0  0  0  0
   36.8320   21.5800   36.1700 C   0  0  0  0  0  0  0  0  0  0  0  0
   35.7110   20.8510   35.8120 C   0  0  0  0  0  0  0  0  0  0  0  0
   35.4450   20.6390   34.5050 N   0  0  0  0  0  0  0  0  0  0  0  0
   36.2520   21.1250   33.5240 C   0  0  0  0  0  0  0  0  0  0  0  0
   37.3370   21.8310   33.8370 N   0  0  0  0  0  0  0  0  0  0  0  0
   35.9360   20.8790   32.0730 C   0  0  0  0  0  0  0  0  0  0  0  0
   37.0750   20.2400   31.3550 C   0  0  0  0  0  0  0  0  0  0  0  0
   35.6330   22.2350   31.4750 C   0  0  0  0  0  0  0  0  0  0  0  0
   34.6710   20.0450   32.0270 C   0  0  0  0  0  0  0  0  0  0  0  0
   39.1390   23.0340   35.3850 S   0  0  0  0  0  0  0  0  0  0  0  0
   37.0802   21.7715   37.2244 H   0  0  0  0  0  0  0  0  0  0  0  0
   35.0419   20.4474   36.5862 H   0  0  0  0  0  0  0  0  0  0  0  0
   37.7910   19.8383   32.0872 H   0  0  0  0  0  0  0  0  0  0  0  0
   36.6979   19.4217   30.7240 H   0  0  0  0  0  0  0  0  0  0  0  0
   37.5768   20.9883   30.7240 H   0  0  0  0  0  0  0  0  0  0  0  0
   35.4701   22.9638   32.2827 H   0  0  0  0  0  0  0  0  0  0  0  0
   36.4808   22.5595   30.8537 H   0  0  0  0  0  0  0  0  0  0  0  0
   34.7277   22.1678   30.8537 H   0  0  0  0  0  0  0  0  0  0  0  0
   34.3387   19.8259   33.0525 H   0  0  0  0  0  0  0  0  0  0  0  0
   33.8838   20.6018   31.4976 H   0  0  0  0  0  0  0  0  0  0  0  0
   34.8725   19.1021   31.4976 H   0  0  0  0  0  0  0  0  0  0  0  0
   39.3593   23.1764   36.7296 H   0  0  0  0  0  0  0  0  0  0  0  0
  1 11  1  0
  1  2  2  0
  3  2  1  0
  4  3  2  0
  5  6  2  0
  5  4  1  0
  6  1  1  0
  7  5  1  0
  8  7  1  0
  9  7  1  0
 10  7  1  0
  2 12  1  0
  3 13  1  0
  8 14  1  0
  8 15  1  0
  8 16  1  0
  9 17  1  0
  9 18  1  0
  9 19  1  0
 10 20  1  0
 10 21  1  0
 10 22  1  0
 11 23  1  0
M  ISO  8  12  14  13  14  14   8  15   8  16   8  17   8  18   8  19   8
M  ISO  4  20   8  21   8  22   8  23  11
M  END
>  <minimizedAffinity>  (1) 
-3.37322354

>  <minimizedRMSD>  (1) 
2.13405371

$$$$
