
     RDKit          3D

 20 20  0  0  0  0  0  0  0  0999 V2000
   37.6610   22.0650   35.1350 C   0  0  0  0  0  0  0  0  0  0  0  0
   36.8230   21.6090   36.1750 C   0  0  0  0  0  0  0  0  0  0  0  0
   35.6950   20.8660   35.8210 C   0  0  0  0  0  0  0  0  0  0  0  0
   35.4620   20.6200   34.5140 N   0  0  0  0  0  0  0  0  0  0  0  0
   36.2860   21.0710   33.5360 C   0  0  0  0  0  0  0  0  0  0  0  0
   37.3710   21.7860   33.8650 N   0  0  0  0  0  0  0  0  0  0  0  0
   35.9110   20.7270   32.1230 C   0  0  0  0  0  0  0  0  0  0  0  0
   35.6360   22.0310   31.3630 C   0  0  0  0  0  0  0  0  0  0  0  0
   34.7530   19.7770   32.0400 C   0  0  0  0  0  0  0  0  0  0  0  0
   39.1390   23.0260   35.4070 S   0  0  0  0  0  0  0  0  0  0  0  0
   37.0506   21.8312   37.2280 H   0  0  0  0  0  0  0  0  0  0  0  0
   35.0086   20.4879   36.5930 H   0  0  0  0  0  0  0  0  0  0  0  0
   36.7514   20.1930   31.6556 H   0  0  0  0  0  0  0  0  0  0  0  0
   35.4643   22.8454   32.0823 H   0  0  0  0  0  0  0  0  0  0  0  0
   36.5021   22.2766   30.7309 H   0  0  0  0  0  0  0  0  0  0  0  0
   34.7445   21.9060   30.7309 H   0  0  0  0  0  0  0  0  0  0  0  0
   34.4256   19.5084   33.0552 H   0  0  0  0  0  0  0  0  0  0  0  0
   33.9225   20.2574   31.5020 H   0  0  0  0  0  0  0  0  0  0  0  0
   35.0618   18.8686   31.5020 H   0  0  0  0  0  0  0  0  0  0  0  0
   39.3523   23.1647   36.7532 H   0  0  0  0  0  0  0  0  0  0  0  0
  1 10  1  0
  1  2  2  0
  3  2  1  0
  4  3  2  0
  5  6  2  0
  5  4  1  0
  6  1  1  0
  7  5  1  0
  8  7  1  0
  9  7  1  0
  2 11  1  0
  3 12  1  0
  7 13  1  0
  8 14  1  0
  8 15  1  0
  8 16  1  0
  9 17  1  0
  9 18  1  0
  9 19  1  0
 10 20  1  0
M  ISO  8  11  14  12  14  13   8  14   8  15   8  16   8  17   8  18   8
M  ISO  2  19   8  20  11
M  END
>  <minimizedAffinity>  (1) 
-3.1689384

>  <minimizedRMSD>  (1) 
2.14032173

$$$$
