
     RDKit          3D

 19 20  0  0  0  0  0  0  0  0999 V2000
   36.8060   21.0220   33.2140 C   0  0  0  0  0  0  0  0  0  0  0  0
   35.5610   20.4700   33.6150 C   0  0  0  0  0  0  0  0  0  0  0  0
   34.9120   19.6650   32.6950 C   0  0  0  0  0  0  0  0  0  0  0  0
   35.4780   19.4390   31.4730 N   0  0  0  0  0  0  0  0  0  0  0  0
   36.6640   19.9870   31.1390 C   0  0  0  0  0  0  0  0  0  0  0  0
   37.3110   20.7660   32.0040 N   0  0  0  0  0  0  0  0  0  0  0  0
   37.2240   19.7110   29.8160 C   0  0  0  0  0  0  0  0  0  0  0  0
   38.4640   20.2160   29.4740 C   0  0  0  0  0  0  0  0  0  0  0  0
   38.9580   19.9240   28.1960 C   0  0  0  0  0  0  0  0  0  0  0  0
   38.2550   19.1850   27.3400 N   0  0  0  0  0  0  0  0  0  0  0  0
   37.0490   18.7080   27.7040 C   0  0  0  0  0  0  0  0  0  0  0  0
   36.5320   18.9660   28.9330 N   0  0  0  0  0  0  0  0  0  0  0  0
   37.7890   22.0840   34.2630 S   0  0  0  0  0  0  0  0  0  0  0  0
   35.1332   20.6721   34.6080 H   0  0  0  0  0  0  0  0  0  0  0  0
   33.9434   19.2088   32.9474 H   0  0  0  0  0  0  0  0  0  0  0  0
   39.0438   20.8269   30.1816 H   0  0  0  0  0  0  0  0  0  0  0  0
   39.9425   20.3114   27.8948 H   0  0  0  0  0  0  0  0  0  0  0  0
   36.4724   18.0984   26.9928 H   0  0  0  0  0  0  0  0  0  0  0  0
   37.5252   21.7990   35.5768 H   0  0  0  0  0  0  0  0  0  0  0  0
  1  2  2  0
  1 13  1  0
  3  2  1  0
  4  3  2  0
  5  4  1  0
  5  6  2  0
  6  1  1  0
  7  5  1  0
  8  7  2  0
  9  8  1  0
 10 11  1  0
 10  9  2  0
 11 12  2  0
 12  7  1  0
  2 14  1  0
  3 15  1  0
  8 16  1  0
  9 17  1  0
 11 18  1  0
 13 19  1  0
M  ISO  6  14  14  15  14  16  14  17  14  18  14  19  11
M  END
>  <minimizedAffinity>  (1) 
-2.87762785

>  <minimizedRMSD>  (1) 
2.03038478

$$$$
