
     RDKit          3D

 24 25  0  0  0  0  0  0  0  0999 V2000
   36.8010   21.0050   33.2020 C   0  0  0  0  0  0  0  0  0  0  0  0
   35.5650   20.4400   33.5880 C   0  0  0  0  0  0  0  0  0  0  0  0
   34.9250   19.6230   32.6490 C   0  0  0  0  0  0  0  0  0  0  0  0
   35.5110   19.4200   31.4480 N   0  0  0  0  0  0  0  0  0  0  0  0
   36.6950   19.9800   31.1220 C   0  0  0  0  0  0  0  0  0  0  0  0
   37.3350   20.7730   32.0080 N   0  0  0  0  0  0  0  0  0  0  0  0
   38.4040   19.2640   27.3420 C   0  0  0  0  0  0  0  0  0  0  0  0
   37.2010   18.7130   27.6610 C   0  0  0  0  0  0  0  0  0  0  0  0
   36.6180   18.9350   28.9010 C   0  0  0  0  0  0  0  0  0  0  0  0
   37.2810   19.7260   29.8070 C   0  0  0  0  0  0  0  0  0  0  0  0
   38.4920   20.2820   29.4900 C   0  0  0  0  0  0  0  0  0  0  0  0
   39.0570   20.0500   28.2490 C   0  0  0  0  0  0  0  0  0  0  0  0
   39.1340   18.9770   25.7710 S   0  0  0  0  0  0  0  0  0  0  0  0
   39.5960   20.2830   25.1880 O   0  0  0  0  0  0  0  0  0  0  0  0
   38.1700   18.3720   24.8150 O   0  0  0  0  0  0  0  0  0  0  0  0
   37.7580   22.0740   34.2760 S   0  0  0  0  0  0  0  0  0  0  0  0
   35.1269   20.6328   34.5784 H   0  0  0  0  0  0  0  0  0  0  0  0
   33.9590   19.1528   32.8850 H   0  0  0  0  0  0  0  0  0  0  0  0
   36.6825   18.0817   26.9244 H   0  0  0  0  0  0  0  0  0  0  0  0
   35.6455   18.4868   29.1527 H   0  0  0  0  0  0  0  0  0  0  0  0
   39.0156   20.9135   30.2229 H   0  0  0  0  0  0  0  0  0  0  0  0
   40.0290   20.4969   27.9931 H   0  0  0  0  0  0  0  0  0  0  0  0
   40.1801   18.1127   25.9595 H   0  0  0  0  0  0  0  0  0  0  0  0
   37.4856   21.7697   35.5837 H   0  0  0  0  0  0  0  0  0  0  0  0
  1  2  2  0
  1 16  1  0
  3  2  1  0
  4  3  2  0
  5  4  1  0
  5  6  2  0
  6  1  1  0
  7  8  2  0
  7 12  1  0
  8  9  1  0
  9 10  2  0
 10  5  1  0
 11 10  1  0
 12 11  2  0
 13  7  1  0
 14 13  2  0
 15 13  2  0
  2 17  1  0
  3 18  1  0
  8 19  1  0
  9 20  1  0
 11 21  1  0
 12 22  1  0
 13 23  1  0
 16 24  1  0
M  ISO  8  17  14  18  14  19  14  20  14  21  14  22  14  23  11  24  11
M  END
>  <minimizedAffinity>  (1) 
-3.11442733

>  <minimizedRMSD>  (1) 
2.42458463

$$$$
