
     RDKit          3D

 14 14  0  0  0  0  0  0  0  0999 V2000
   37.5910   22.0490   35.2160 C   0  0  0  0  0  0  0  0  0  0  0  0
   36.6060   21.4260   36.0390 C   0  0  0  0  0  0  0  0  0  0  0  0
   35.5890   20.7300   35.4080 C   0  0  0  0  0  0  0  0  0  0  0  0
   35.5730   20.6740   34.0460 N   0  0  0  0  0  0  0  0  0  0  0  0
   36.5260   21.2780   33.3070 C   0  0  0  0  0  0  0  0  0  0  0  0
   37.5210   21.9570   33.8760 N   0  0  0  0  0  0  0  0  0  0  0  0
   38.9710   22.9860   35.8510 S   0  0  0  0  0  0  0  0  0  0  0  0
   36.4030   21.1480   31.8580 C   0  0  0  0  0  0  0  0  0  0  0  0
   36.8040   22.0790   31.1170 O   0  0  0  0  0  0  0  0  0  0  0  0
   35.8600   20.0330   31.2320 O   0  0  0  0  0  0  0  0  0  0  0  0
   36.6529   21.4962   37.1358 H   0  0  0  0  0  0  0  0  0  0  0  0
   34.8059   20.2298   35.9967 H   0  0  0  0  0  0  0  0  0  0  0  0
   38.9439   22.9676   37.2206 H   0  0  0  0  0  0  0  0  0  0  0  0
   35.8015   19.9993   30.2443 H   0  0  0  0  0  0  0  0  0  0  0  0
  1  7  1  0
  1  2  2  0
  3  2  1  0
  4  3  2  0
  5  6  2  0
  5  4  1  0
  6  1  1  0
  8  5  1  0
  9  8  2  0
 10  8  1  0
  2 11  1  0
  3 12  1  0
  7 13  1  0
 10 14  1  0
M  ISO  4  11  14  12  14  13  11  14   3
M  END
>  <minimizedAffinity>  (1) 
-2.62650347

>  <minimizedRMSD>  (1) 
1.58449006

$$$$
