
     RDKit          3D

 40 43  0  0  0  0  0  0  0  0999 V2000
   37.9520   24.7800   33.8730 C   0  0  0  0  0  0  0  0  0  0  0  0
   37.3640   24.2500   32.7480 C   0  0  0  0  0  0  0  0  0  0  0  0
   36.8840   25.3180   31.9830 C   0  0  0  0  0  0  0  0  0  0  0  0
   37.1800   26.4390   32.6380 N   0  0  0  0  0  0  0  0  0  0  0  0
   37.8280   26.1250   33.7880 N   0  0  0  0  0  0  0  0  0  0  0  0
   36.8660   27.7710   32.2040 C   0  0  0  0  0  0  0  0  0  0  0  0
   36.1770   28.5850   33.0840 C   0  0  0  0  0  0  0  0  0  0  0  0
   35.8800   29.8830   32.6400 C   0  0  0  0  0  0  0  0  0  0  0  0
   36.2650   30.2650   31.4180 N   0  0  0  0  0  0  0  0  0  0  0  0
   36.9290   29.4700   30.5780 C   0  0  0  0  0  0  0  0  0  0  0  0
   37.2280   28.2120   30.9820 N   0  0  0  0  0  0  0  0  0  0  0  0
   37.3050   29.9370   29.3030 N   0  0  0  0  0  0  0  0  0  0  0  0
   37.0250   31.2650   28.7940 C   0  0  0  0  0  0  0  0  0  0  0  0
   37.9430   31.4860   27.6240 C   0  0  0  0  0  0  0  0  0  0  0  0
   38.9470   30.3630   27.7840 C   0  0  0  0  0  0  0  0  0  0  0  0
   38.0220   29.2410   28.2540 C   0  0  0  0  0  0  0  0  0  0  0  0
   40.1720   22.5540   35.7390 C   0  0  0  0  0  0  0  0  0  0  0  0
   39.7200   22.7220   37.0630 C   0  0  0  0  0  0  0  0  0  0  0  0
   38.6670   23.5930   37.2730 C   0  0  0  0  0  0  0  0  0  0  0  0
   38.1140   24.2480   36.2180 N   0  0  0  0  0  0  0  0  0  0  0  0
   38.5900   24.0480   34.9620 C   0  0  0  0  0  0  0  0  0  0  0  0
   39.6110   23.2060   34.7330 N   0  0  0  0  0  0  0  0  0  0  0  0
   38.2280   23.7380   38.6700 C   0  0  0  0  0  0  0  0  0  0  0  0
   37.6930   24.9790   38.8700 F   0  0  0  0  0  0  0  0  0  0  0  0
   39.3610   23.6720   39.4520 F   0  0  0  0  0  0  0  0  0  0  0  0
   37.2810   22.7960   39.0240 F   0  0  0  0  0  0  0  0  0  0  0  0
   37.2857   23.1821   32.4962 H   0  0  0  0  0  0  0  0  0  0  0  0
   36.3592   25.2454   31.0190 H   0  0  0  0  0  0  0  0  0  0  0  0
   35.8767   28.2330   34.0820 H   0  0  0  0  0  0  0  0  0  0  0  0
   35.3346   30.5807   33.2925 H   0  0  0  0  0  0  0  0  0  0  0  0
   35.9760   31.3326   28.4700 H   0  0  0  0  0  0  0  0  0  0  0  0
   37.1864   32.0269   29.5709 H   0  0  0  0  0  0  0  0  0  0  0  0
   38.4327   32.4693   27.6822 H   0  0  0  0  0  0  0  0  0  0  0  0
   37.4272   31.4802   26.6525 H   0  0  0  0  0  0  0  0  0  0  0  0
   39.4369   30.1152   26.8308 H   0  0  0  0  0  0  0  0  0  0  0  0
   39.7850   30.5852   28.4610 H   0  0  0  0  0  0  0  0  0  0  0  0
   37.3485   28.9032   27.4526 H   0  0  0  0  0  0  0  0  0  0  0  0
   38.5318   28.3192   28.5709 H   0  0  0  0  0  0  0  0  0  0  0  0
   41.0075   21.8675   35.5375 H   0  0  0  0  0  0  0  0  0  0  0  0
   40.1875   22.1803   37.8984 H   0  0  0  0  0  0  0  0  0  0  0  0
  1 21  1  0
  2  1  1  0
  3  4  1  0
  3  2  2  0
  4  5  1  0
  5  1  2  0
  6  4  1  0
  6  7  2  0
  8  7  1  0
  9  8  2  0
 10 11  2  0
 10  9  1  0
 11  6  1  0
 12 10  1  0
 13 12  1  0
 14 15  1  0
 14 13  1  0
 15 16  1  0
 16 12  1  0
 17 18  2  0
 18 19  1  0
 19 23  1  0
 20 19  2  0
 21 20  1  0
 22 21  2  0
 22 17  1  0
 23 24  1  0
 23 26  1  0
 23 25  1  0
  2 27  1  0
  3 28  1  0
  7 29  1  0
  8 30  1  0
 13 31  1  0
 13 32  1  0
 14 33  1  0
 14 34  1  0
 15 35  1  0
 15 36  1  0
 16 37  1  0
 16 38  1  0
 17 39  1  0
 18 40  1  0
M  ISO  8  27  14  28  14  29  14  30  14  31  13  32  13  33  13  34  13
M  ISO  6  35  13  36  13  37  13  38  13  39  14  40  14
M  END
>  <minimizedAffinity>  (1) 
-6.21997643

>  <minimizedRMSD>  (1) 
2.56771612

$$$$
