
     RDKit          3D

 39 42  0  0  0  0  0  0  0  0999 V2000
   38.9580   23.1460   34.0110 C   0  0  0  0  0  0  0  0  0  0  0  0
   39.3230   22.5310   32.8350 C   0  0  0  0  0  0  0  0  0  0  0  0
   38.5540   23.1030   31.8140 C   0  0  0  0  0  0  0  0  0  0  0  0
   37.7630   24.0260   32.3690 N   0  0  0  0  0  0  0  0  0  0  0  0
   38.0010   24.0590   33.6970 N   0  0  0  0  0  0  0  0  0  0  0  0
   36.8110   24.8540   31.6720 C   0  0  0  0  0  0  0  0  0  0  0  0
   35.6080   24.2850   31.3330 C   0  0  0  0  0  0  0  0  0  0  0  0
   34.6990   25.0950   30.6600 C   0  0  0  0  0  0  0  0  0  0  0  0
   35.0260   26.3600   30.3800 N   0  0  0  0  0  0  0  0  0  0  0  0
   36.2080   26.9240   30.7120 C   0  0  0  0  0  0  0  0  0  0  0  0
   37.0920   26.1220   31.3710 N   0  0  0  0  0  0  0  0  0  0  0  0
   36.5070   28.2770   30.3890 N   0  0  0  0  0  0  0  0  0  0  0  0
   37.2010   28.7920   29.3640 C   0  0  0  0  0  0  0  0  0  0  0  0
   37.3520   30.1610   29.2730 C   0  0  0  0  0  0  0  0  0  0  0  0
   36.7980   30.9980   30.2190 C   0  0  0  0  0  0  0  0  0  0  0  0
   37.0170   32.4080   30.0270 N   0  0  0  0  0  0  0  0  0  0  0  0
   36.0940   30.4620   31.2590 N   0  0  0  0  0  0  0  0  0  0  0  0
   35.9660   29.1150   31.3170 C   0  0  0  0  0  0  0  0  0  0  0  0
   35.2870   28.7780   32.3350 O   0  0  0  0  0  0  0  0  0  0  0  0
   41.0910   21.9800   36.7510 C   0  0  0  0  0  0  0  0  0  0  0  0
   40.3950   22.4390   37.8870 C   0  0  0  0  0  0  0  0  0  0  0  0
   39.2180   23.1340   37.6820 C   0  0  0  0  0  0  0  0  0  0  0  0
   38.7750   23.3490   36.4120 N   0  0  0  0  0  0  0  0  0  0  0  0
   39.4900   22.8810   35.3470 C   0  0  0  0  0  0  0  0  0  0  0  0
   40.6330   22.2050   35.5230 N   0  0  0  0  0  0  0  0  0  0  0  0
   38.5290   23.5940   38.9010 C   0  0  0  0  0  0  0  0  0  0  0  0
   37.8680   24.7650   38.6570 F   0  0  0  0  0  0  0  0  0  0  0  0
   39.4980   23.8690   39.8320 F   0  0  0  0  0  0  0  0  0  0  0  0
   37.6090   22.6690   39.3570 F   0  0  0  0  0  0  0  0  0  0  0  0
   40.0773   21.7388   32.7189 H   0  0  0  0  0  0  0  0  0  0  0  0
   38.5939   22.8398   30.7467 H   0  0  0  0  0  0  0  0  0  0  0  0
   35.3744   23.2392   31.5816 H   0  0  0  0  0  0  0  0  0  0  0  0
   33.7182   24.6970   30.3605 H   0  0  0  0  0  0  0  0  0  0  0  0
   37.6448   28.1314   28.6046 H   0  0  0  0  0  0  0  0  0  0  0  0
   37.9214   30.5900   28.4353 H   0  0  0  0  0  0  0  0  0  0  0  0
   36.6292   33.0856   30.6988 H   0  0  0  0  0  0  0  0  0  0  0  0
   37.5615   32.7391   29.2178 H   0  0  0  0  0  0  0  0  0  0  0  0
   42.0314   21.4248   36.8825 H   0  0  0  0  0  0  0  0  0  0  0  0
   40.7753   22.2507   38.9019 H   0  0  0  0  0  0  0  0  0  0  0  0
  1 24  1  0
  2  1  1  0
  3  4  1  0
  3  2  2  0
  4  5  1  0
  5  1  2  0
  6  4  1  0
  7  6  2  0
  8  7  1  0
  9  8  2  0
  9 10  1  0
 10 11  2  0
 11  6  1  0
 12 10  1  0
 12 18  1  0
 13 12  1  0
 14 13  2  0
 14 15  1  0
 15 17  2  0
 16 15  1  0
 17 18  1  0
 18 19  2  0
 20 21  2  0
 22 21  1  0
 22 26  1  0
 23 22  2  0
 24 25  2  0
 24 23  1  0
 25 20  1  0
 26 29  1  0
 26 28  1  0
 27 26  1  0
  2 30  1  0
  3 31  1  0
  7 32  1  0
  8 33  1  0
 13 34  1  0
 14 35  1  0
 16 36  1  0
 16 37  1  0
 20 38  1  0
 21 39  1  0
M  ISO  8  30  14  31  14  32  14  33  14  34  14  35  14  38  14  39  14
M  END
>  <minimizedAffinity>  (1) 
-6.19403601

>  <minimizedRMSD>  (1) 
0.0790820569

$$$$
