
     RDKit          3D

 31 33  0  0  0  0  0  0  0  0999 V2000
   39.8820   25.6140   32.5740 C   0  0  0  0  0  0  0  0  0  0  0  0
   40.7940   26.6850   32.7610 C   0  0  0  0  0  0  0  0  0  0  0  0
   41.1320   26.9810   34.0590 C   0  0  0  0  0  0  0  0  0  0  0  0
   40.5990   26.2630   35.0670 N   0  0  0  0  0  0  0  0  0  0  0  0
   39.7320   25.2480   34.8600 C   0  0  0  0  0  0  0  0  0  0  0  0
   39.3700   24.9200   33.6020 N   0  0  0  0  0  0  0  0  0  0  0  0
   39.1900   24.5100   35.9550 N   0  0  0  0  0  0  0  0  0  0  0  0
   37.9800   24.8160   36.6840 C   0  0  0  0  0  0  0  0  0  0  0  0
   37.6830   23.4760   37.3470 C   0  0  0  0  0  0  0  0  0  0  0  0
   39.0970   23.1850   37.8480 C   0  0  0  0  0  0  0  0  0  0  0  0
   39.8070   23.2980   36.5120 C   0  0  0  0  0  0  0  0  0  0  0  0
   39.3250   25.0740   30.9620 S   0  0  0  0  0  0  0  0  0  0  0  0
   37.5280   25.2560   31.0160 C   0  0  0  0  0  0  0  0  0  0  0  0
   36.8060   26.4340   31.1130 C   0  0  0  0  0  0  0  0  0  0  0  0
   35.4300   26.3250   31.1370 C   0  0  0  0  0  0  0  0  0  0  0  0
   34.8320   25.1230   31.0680 N   0  0  0  0  0  0  0  0  0  0  0  0
   35.5620   23.9810   30.9740 C   0  0  0  0  0  0  0  0  0  0  0  0
   36.9050   24.0660   30.9500 N   0  0  0  0  0  0  0  0  0  0  0  0
   41.2082   27.2481   31.9117 H   0  0  0  0  0  0  0  0  0  0  0  0
   41.8341   27.7999   34.2745 H   0  0  0  0  0  0  0  0  0  0  0  0
   38.1487   25.6060   37.4307 H   0  0  0  0  0  0  0  0  0  0  0  0
   37.1615   25.1994   36.0571 H   0  0  0  0  0  0  0  0  0  0  0  0
   36.9577   23.5669   38.1690 H   0  0  0  0  0  0  0  0  0  0  0  0
   37.2235   22.7069   36.7087 H   0  0  0  0  0  0  0  0  0  0  0  0
   39.4470   23.9346   38.5730 H   0  0  0  0  0  0  0  0  0  0  0  0
   39.2358   22.2413   38.3958 H   0  0  0  0  0  0  0  0  0  0  0  0
   39.6127   22.4203   35.8780 H   0  0  0  0  0  0  0  0  0  0  0  0
   40.9032   23.3471   36.5890 H   0  0  0  0  0  0  0  0  0  0  0  0
   37.3063   27.4121   31.1684 H   0  0  0  0  0  0  0  0  0  0  0  0
   34.8148   27.2337   31.2136 H   0  0  0  0  0  0  0  0  0  0  0  0
   35.0632   23.0022   30.9184 H   0  0  0  0  0  0  0  0  0  0  0  0
  1  2  2  0
  1  6  1  0
  2  3  1  0
  3  4  2  0
  5  4  1  0
  5  7  1  0
  6  5  2  0
  7 11  1  0
  7  8  1  0
  8  9  1  0
  9 10  1  0
 11 10  1  0
 12 13  1  0
 12  1  1  0
 13 14  2  0
 14 15  1  0
 16 15  2  0
 17 16  1  0
 18 17  2  0
 18 13  1  0
  2 19  1  0
  3 20  1  0
  8 21  1  0
  8 22  1  0
  9 23  1  0
  9 24  1  0
 10 25  1  0
 10 26  1  0
 11 27  1  0
 11 28  1  0
 14 29  1  0
 15 30  1  0
 17 31  1  0
M  ISO  8  19  14  20  14  21  13  22  13  23  13  24  13  25  13  26  13
M  ISO  5  27  13  28  13  29  14  30  14  31  14
M  END
>  <minimizedAffinity>  (1) 
-4.5410223

>  <minimizedRMSD>  (1) 
7.5100503

$$$$
