
     RDKit          3D

 29 31  0  0  0  0  0  0  0  0999 V2000
   37.5550   24.2770   32.9290 C   0  0  0  0  0  0  0  0  0  0  0  0
   36.7100   25.1540   32.1970 C   0  0  0  0  0  0  0  0  0  0  0  0
   35.6800   24.5850   31.4560 C   0  0  0  0  0  0  0  0  0  0  0  0
   35.5340   23.2450   31.4690 N   0  0  0  0  0  0  0  0  0  0  0  0
   36.3470   22.4330   32.1710 C   0  0  0  0  0  0  0  0  0  0  0  0
   37.3590   22.9540   32.9010 N   0  0  0  0  0  0  0  0  0  0  0  0
   36.1640   21.0160   32.1610 N   0  0  0  0  0  0  0  0  0  0  0  0
   36.7660   20.0740   31.2220 C   0  0  0  0  0  0  0  0  0  0  0  0
   36.6070   18.7660   31.9760 C   0  0  0  0  0  0  0  0  0  0  0  0
   35.1620   18.9530   32.4070 C   0  0  0  0  0  0  0  0  0  0  0  0
   35.3240   20.2930   33.1160 C   0  0  0  0  0  0  0  0  0  0  0  0
   38.9060   24.8520   33.9170 S   0  0  0  0  0  0  0  0  0  0  0  0
   38.9410   24.0710   35.5450 C   0  0  0  0  0  0  0  0  0  0  0  0
   40.1440   23.4070   35.9410 C   0  0  0  0  0  0  0  0  0  0  0  0
   39.7080   22.8080   37.5790 S   0  0  0  0  0  0  0  0  0  0  0  0
   37.9610   23.5470   37.4830 C   0  0  0  0  0  0  0  0  0  0  0  0
   37.9380   24.0670   36.3990 N   0  0  0  0  0  0  0  0  0  0  0  0
   36.8649   26.2429   32.2158 H   0  0  0  0  0  0  0  0  0  0  0  0
   34.9967   25.2170   30.8698 H   0  0  0  0  0  0  0  0  0  0  0  0
   37.8252   20.3080   31.0392 H   0  0  0  0  0  0  0  0  0  0  0  0
   36.3081   20.0778   30.2219 H   0  0  0  0  0  0  0  0  0  0  0  0
   36.7386   17.8895   31.3245 H   0  0  0  0  0  0  0  0  0  0  0  0
   37.3331   18.5783   32.7807 H   0  0  0  0  0  0  0  0  0  0  0  0
   34.4761   19.0156   31.5493 H   0  0  0  0  0  0  0  0  0  0  0  0
   34.7277   18.1391   33.0062 H   0  0  0  0  0  0  0  0  0  0  0  0
   35.8256   20.1774   34.0881 H   0  0  0  0  0  0  0  0  0  0  0  0
   34.3756   20.7958   33.3563 H   0  0  0  0  0  0  0  0  0  0  0  0
   41.0883   23.2927   35.3884 H   0  0  0  0  0  0  0  0  0  0  0  0
   37.1619   23.5085   38.2380 H   0  0  0  0  0  0  0  0  0  0  0  0
  1 12  1  0
  2  1  2  0
  3  4  2  0
  3  2  1  0
  4  5  1  0
  5  6  2  0
  6  1  1  0
  7  5  1  0
  7 11  1  0
  8  9  1  0
  8  7  1  0
  9 10  1  0
 10 11  1  0
 12 13  1  0
 13 14  2  0
 13 17  1  0
 14 15  1  0
 16 15  1  0
 17 16  2  0
  2 18  1  0
  3 19  1  0
  8 20  1  0
  8 21  1  0
  9 22  1  0
  9 23  1  0
 10 24  1  0
 10 25  1  0
 11 26  1  0
 11 27  1  0
 14 28  1  0
 16 29  1  0
M  ISO  8  18  14  19  14  20  13  21  13  22  13  23  13  24  13  25  13
M  ISO  4  26  13  27  13  28  14  29  14
M  END
>  <minimizedAffinity>  (1) 
-4.52458858

>  <minimizedRMSD>  (1) 
3.65834904

$$$$
