
     RDKit          3D

 28 30  0  0  0  0  0  0  0  0999 V2000
   37.7380   22.1900   35.7110 C   0  0  0  0  0  0  0  0  0  0  0  0
   36.7710   21.8680   36.7090 C   0  0  0  0  0  0  0  0  0  0  0  0
   35.6620   21.1410   36.3150 C   0  0  0  0  0  0  0  0  0  0  0  0
   35.5430   20.7680   35.0190 N   0  0  0  0  0  0  0  0  0  0  0  0
   36.4780   21.0870   34.0890 C   0  0  0  0  0  0  0  0  0  0  0  0
   37.5500   21.7900   34.4600 N   0  0  0  0  0  0  0  0  0  0  0  0
   36.3270   20.6800   32.7220 N   0  0  0  0  0  0  0  0  0  0  0  0
   35.6620   21.4610   31.6810 C   0  0  0  0  0  0  0  0  0  0  0  0
   36.2350   20.7920   30.4330 C   0  0  0  0  0  0  0  0  0  0  0  0
   36.0340   19.3440   30.8820 C   0  0  0  0  0  0  0  0  0  0  0  0
   36.8190   19.4230   32.1880 C   0  0  0  0  0  0  0  0  0  0  0  0
   39.1970   23.1150   36.0830 S   0  0  0  0  0  0  0  0  0  0  0  0
   38.9350   24.8580   35.9440 C   0  0  0  0  0  0  0  0  0  0  0  0
   39.8450   25.5370   35.2070 N   0  0  0  0  0  0  0  0  0  0  0  0
   39.5320   26.8070   35.1890 O   0  0  0  0  0  0  0  0  0  0  0  0
   38.4450   27.0120   35.8850 C   0  0  0  0  0  0  0  0  0  0  0  0
   38.0540   25.8090   36.3670 N   0  0  0  0  0  0  0  0  0  0  0  0
   36.9024   22.1862   37.7538 H   0  0  0  0  0  0  0  0  0  0  0  0
   34.8862   20.8692   37.0459 H   0  0  0  0  0  0  0  0  0  0  0  0
   34.5679   21.3593   31.7318 H   0  0  0  0  0  0  0  0  0  0  0  0
   35.8297   22.5465   31.7407 H   0  0  0  0  0  0  0  0  0  0  0  0
   37.2950   21.0389   30.2733 H   0  0  0  0  0  0  0  0  0  0  0  0
   35.7802   21.0751   29.4723 H   0  0  0  0  0  0  0  0  0  0  0  0
   34.9738   19.1008   31.0459 H   0  0  0  0  0  0  0  0  0  0  0  0
   36.3517   18.5670   30.1711 H   0  0  0  0  0  0  0  0  0  0  0  0
   36.5836   18.5798   32.8541 H   0  0  0  0  0  0  0  0  0  0  0  0
   37.9113   19.3743   32.0678 H   0  0  0  0  0  0  0  0  0  0  0  0
   37.9437   27.9775   36.0480 H   0  0  0  0  0  0  0  0  0  0  0  0
  1 12  1  0
  1  2  2  0
  3  2  1  0
  4  3  2  0
  5  6  2  0
  5  4  1  0
  6  1  1  0
  7  5  1  0
  8  7  1  0
  9 10  1  0
  9  8  1  0
 10 11  1  0
 11  7  1  0
 13 12  1  0
 13 17  1  0
 14 13  2  0
 15 14  1  0
 15 16  1  0
 16 17  2  0
  2 18  1  0
  3 19  1  0
  8 20  1  0
  8 21  1  0
  9 22  1  0
  9 23  1  0
 10 24  1  0
 10 25  1  0
 11 26  1  0
 11 27  1  0
 16 28  1  0
M  ISO  8  18  14  19  14  20  13  21  13  22  13  23  13  24  13  25  13
M  ISO  3  26  13  27  13  28  14
M  END
>  <minimizedAffinity>  (1) 
-4.13366747

>  <minimizedRMSD>  (1) 
1.9762876

$$$$
