
     RDKit          3D

 28 31  0  0  0  0  0  0  0  0999 V2000
   36.6920   21.3700   33.4280 C   0  0  0  0  0  0  0  0  0  0  0  0
   37.5340   22.4780   33.6220 C   0  0  0  0  0  0  0  0  0  0  0  0
   37.3830   23.5760   32.7890 C   0  0  0  0  0  0  0  0  0  0  0  0
   36.4330   23.5090   31.8390 N   0  0  0  0  0  0  0  0  0  0  0  0
   35.6290   22.4490   31.6540 C   0  0  0  0  0  0  0  0  0  0  0  0
   35.7690   21.3640   32.4690 N   0  0  0  0  0  0  0  0  0  0  0  0
   38.2040   24.7340   32.9290 N   0  0  0  0  0  0  0  0  0  0  0  0
   38.0790   25.5610   33.9740 C   0  0  0  0  0  0  0  0  0  0  0  0
   39.0040   26.5500   33.7950 C   0  0  0  0  0  0  0  0  0  0  0  0
   39.6710   26.3160   32.6570 N   0  0  0  0  0  0  0  0  0  0  0  0
   39.1780   25.1670   32.0920 C   0  0  0  0  0  0  0  0  0  0  0  0
   38.5040   22.4620   34.6430 N   0  0  0  0  0  0  0  0  0  0  0  0
   39.7720   22.0700   34.3280 C   0  0  0  0  0  0  0  0  0  0  0  0
   40.5740   22.1110   35.4120 N   0  0  0  0  0  0  0  0  0  0  0  0
   39.8290   22.5360   36.4540 C   0  0  0  0  0  0  0  0  0  0  0  0
   39.9820   22.8040   37.8110 C   0  0  0  0  0  0  0  0  0  0  0  0
   38.9540   23.2280   38.5360 N   0  0  0  0  0  0  0  0  0  0  0  0
   37.7330   23.4200   38.0140 C   0  0  0  0  0  0  0  0  0  0  0  0
   37.5210   23.1740   36.6880 N   0  0  0  0  0  0  0  0  0  0  0  0
   38.5590   22.7440   35.9520 C   0  0  0  0  0  0  0  0  0  0  0  0
   36.7976   20.4910   34.0809 H   0  0  0  0  0  0  0  0  0  0  0  0
   34.8698   22.4557   30.8580 H   0  0  0  0  0  0  0  0  0  0  0  0
   37.3718   25.4635   34.8108 H   0  0  0  0  0  0  0  0  0  0  0  0
   39.1734   27.3990   34.4737 H   0  0  0  0  0  0  0  0  0  0  0  0
   39.5055   24.6950   31.1539 H   0  0  0  0  0  0  0  0  0  0  0  0
   40.0974   21.7614   33.3235 H   0  0  0  0  0  0  0  0  0  0  0  0
   40.9636   22.6632   38.2871 H   0  0  0  0  0  0  0  0  0  0  0  0
   36.9082   23.7733   38.6503 H   0  0  0  0  0  0  0  0  0  0  0  0
  1  2  2  0
  2 12  1  0
  3  7  1  0
  3  2  1  0
  4  3  2  0
  5  4  1  0
  5  6  2  0
  6  1  1  0
  7  8  1  0
  9  8  2  0
 10  9  1  0
 11 10  2  0
 11  7  1  0
 12 20  1  0
 13 12  1  0
 13 14  2  0
 14 15  1  0
 15 16  2  0
 16 17  1  0
 18 17  2  0
 19 18  1  0
 20 15  1  0
 20 19  2  0
  1 21  1  0
  5 22  1  0
  8 23  1  0
  9 24  1  0
 11 25  1  0
 13 26  1  0
 16 27  1  0
 18 28  1  0
M  ISO  8  21  14  22  14  23  14  24  14  25  14  26  14  27  14  28  14
M  END
>  <minimizedAffinity>  (1) 
-4.94117117

>  <minimizedRMSD>  (1) 
4.91932535

$$$$
