
     RDKit          3D

 22 24  0  0  0  0  0  0  0  0999 V2000
   37.4870   21.7870   34.6010 C   0  0  0  0  0  0  0  0  0  0  0  0
   38.0210   22.9760   35.1210 C   0  0  0  0  0  0  0  0  0  0  0  0
   38.1340   24.0670   34.2730 C   0  0  0  0  0  0  0  0  0  0  0  0
   37.7190   23.9310   32.9780 N   0  0  0  0  0  0  0  0  0  0  0  0
   37.2070   22.7680   32.5080 C   0  0  0  0  0  0  0  0  0  0  0  0
   37.0950   21.6960   33.3370 N   0  0  0  0  0  0  0  0  0  0  0  0
   38.6660   25.3120   34.7180 N   0  0  0  0  0  0  0  0  0  0  0  0
   37.9870   26.0900   35.5720 C   0  0  0  0  0  0  0  0  0  0  0  0
   38.7660   27.1880   35.7900 C   0  0  0  0  0  0  0  0  0  0  0  0
   39.9020   27.0620   35.0680 N   0  0  0  0  0  0  0  0  0  0  0  0
   39.8500   25.8840   34.3900 C   0  0  0  0  0  0  0  0  0  0  0  0
   38.4490   23.0650   36.5120 C   0  0  0  0  0  0  0  0  0  0  0  0
   39.6540   22.9530   37.1000 N   0  0  0  0  0  0  0  0  0  0  0  0
   39.5560   23.1070   38.3820 O   0  0  0  0  0  0  0  0  0  0  0  0
   38.3010   23.3270   38.6950 C   0  0  0  0  0  0  0  0  0  0  0  0
   37.6160   23.3010   37.5430 N   0  0  0  0  0  0  0  0  0  0  0  0
   37.3912   20.9094   35.2573 H   0  0  0  0  0  0  0  0  0  0  0  0
   36.8831   22.6912   31.4596 H   0  0  0  0  0  0  0  0  0  0  0  0
   36.9990   25.8842   36.0096 H   0  0  0  0  0  0  0  0  0  0  0  0
   38.5123   28.0350   36.4443 H   0  0  0  0  0  0  0  0  0  0  0  0
   40.6149   25.4775   33.7120 H   0  0  0  0  0  0  0  0  0  0  0  0
   37.8924   23.4985   39.7018 H   0  0  0  0  0  0  0  0  0  0  0  0
  1  2  2  0
  2 12  1  0
  3  7  1  0
  3  2  1  0
  4  3  2  0
  5  4  1  0
  5  6  2  0
  6  1  1  0
  7  8  1  0
  8  9  2  0
 10  9  1  0
 11  7  1  0
 11 10  2  0
 12 13  2  0
 12 16  1  0
 13 14  1  0
 14 15  1  0
 16 15  2  0
  1 17  1  0
  5 18  1  0
  8 19  1  0
  9 20  1  0
 11 21  1  0
 15 22  1  0
M  ISO  6  17  14  18  14  19  14  20  14  21  14  22  14
M  END
>  <minimizedAffinity>  (1) 
-4.50583029

>  <minimizedRMSD>  (1) 
3.49254799

$$$$
