
     RDKit          3D

 36 39  0  0  0  0  0  0  0  0999 V2000
   38.0810   24.7350   33.8820 C   0  0  0  0  0  0  0  0  0  0  0  0
   37.4420   24.1670   32.7980 C   0  0  0  0  0  0  0  0  0  0  0  0
   37.0000   25.2140   31.9980 C   0  0  0  0  0  0  0  0  0  0  0  0
   37.3570   26.3580   32.5720 N   0  0  0  0  0  0  0  0  0  0  0  0
   38.0140   26.0720   33.7160 N   0  0  0  0  0  0  0  0  0  0  0  0
   40.3210   22.5970   35.8390 C   0  0  0  0  0  0  0  0  0  0  0  0
   39.8130   22.7620   37.1500 C   0  0  0  0  0  0  0  0  0  0  0  0
   38.7250   23.5990   37.3140 C   0  0  0  0  0  0  0  0  0  0  0  0
   38.1860   24.2240   36.2330 N   0  0  0  0  0  0  0  0  0  0  0  0
   38.7100   24.0330   34.9920 C   0  0  0  0  0  0  0  0  0  0  0  0
   39.7630   23.2270   34.8100 N   0  0  0  0  0  0  0  0  0  0  0  0
   38.2400   23.7340   38.6960 C   0  0  0  0  0  0  0  0  0  0  0  0
   37.6640   24.9680   38.8740 F   0  0  0  0  0  0  0  0  0  0  0  0
   39.3420   23.7160   39.5190 F   0  0  0  0  0  0  0  0  0  0  0  0
   37.3070   22.7870   39.0260 F   0  0  0  0  0  0  0  0  0  0  0  0
   37.0910   27.6780   32.0670 C   0  0  0  0  0  0  0  0  0  0  0  0
   36.1770   28.4560   32.7570 C   0  0  0  0  0  0  0  0  0  0  0  0
   35.9350   29.7270   32.2500 C   0  0  0  0  0  0  0  0  0  0  0  0
   36.5800   30.1290   31.1500 N   0  0  0  0  0  0  0  0  0  0  0  0
   37.4610   29.3780   30.4840 C   0  0  0  0  0  0  0  0  0  0  0  0
   37.7140   28.1260   30.9650 N   0  0  0  0  0  0  0  0  0  0  0  0
   38.1230   29.8900   29.2900 C   0  0  0  0  0  0  0  0  0  0  0  0
   39.4600   29.6850   29.0700 C   0  0  0  0  0  0  0  0  0  0  0  0
   39.9460   30.2380   27.8820 C   0  0  0  0  0  0  0  0  0  0  0  0
   39.1550   30.9200   27.0220 N   0  0  0  0  0  0  0  0  0  0  0  0
   37.8480   31.0940   27.2840 C   0  0  0  0  0  0  0  0  0  0  0  0
   37.3470   30.5710   28.4270 N   0  0  0  0  0  0  0  0  0  0  0  0
   37.3084   23.0924   32.6047 H   0  0  0  0  0  0  0  0  0  0  0  0
   36.4488   25.1129   31.0514 H   0  0  0  0  0  0  0  0  0  0  0  0
   41.1870   21.9402   35.6699 H   0  0  0  0  0  0  0  0  0  0  0  0
   40.2674   22.2432   38.0069 H   0  0  0  0  0  0  0  0  0  0  0  0
   35.6686   28.0871   33.6600 H   0  0  0  0  0  0  0  0  0  0  0  0
   35.2191   30.3965   32.7493 H   0  0  0  0  0  0  0  0  0  0  0  0
   40.0994   29.1298   29.7721 H   0  0  0  0  0  0  0  0  0  0  0  0
   41.0112   30.1141   27.6371 H   0  0  0  0  0  0  0  0  0  0  0  0
   37.2020   31.6476   26.5867 H   0  0  0  0  0  0  0  0  0  0  0  0
  1 10  1  0
  2  1  1  0
  3  4  1  0
  3  2  2  0
  4  5  1  0
  5  1  2  0
  6  7  2  0
  7  8  1  0
  8 12  1  0
  9  8  2  0
 10  9  1  0
 11 10  2  0
 11  6  1  0
 12 13  1  0
 12 15  1  0
 12 14  1  0
 16  4  1  0
 16 17  2  0
 18 17  1  0
 19 18  2  0
 20 21  2  0
 20 19  1  0
 21 16  1  0
 22 20  1  0
 23 22  2  0
 24 23  1  0
 25 26  1  0
 25 24  2  0
 26 27  2  0
 27 22  1  0
  2 28  1  0
  3 29  1  0
  6 30  1  0
  7 31  1  0
 17 32  1  0
 18 33  1  0
 23 34  1  0
 24 35  1  0
 26 36  1  0
M  ISO  8  28  14  29  14  30  14  31  14  32  14  33  14  34  14  35  14
M  ISO  1  36  14
M  END
>  <minimizedAffinity>  (1) 
-5.86817598

>  <minimizedRMSD>  (1) 
2.53911138

$$$$
