
     RDKit          3D

 27 29  0  0  0  0  0  0  0  0999 V2000
   41.6330   23.3770   35.2540 C   0  0  0  0  0  0  0  0  0  0  0  0
   40.3380   23.9260   35.1280 C   0  0  0  0  0  0  0  0  0  0  0  0
   40.2510   25.3000   34.9590 C   0  0  0  0  0  0  0  0  0  0  0  0
   41.3960   26.0440   34.9240 N   0  0  0  0  0  0  0  0  0  0  0  0
   42.6170   25.4710   35.0500 C   0  0  0  0  0  0  0  0  0  0  0  0
   42.7300   24.1370   35.2150 N   0  0  0  0  0  0  0  0  0  0  0  0
   38.9860   25.9590   34.8210 N   0  0  0  0  0  0  0  0  0  0  0  0
   38.2490   25.7940   33.7100 C   0  0  0  0  0  0  0  0  0  0  0  0
   37.1230   26.5500   33.9040 C   0  0  0  0  0  0  0  0  0  0  0  0
   37.1870   27.1490   35.0990 N   0  0  0  0  0  0  0  0  0  0  0  0
   38.3630   26.7800   35.6860 C   0  0  0  0  0  0  0  0  0  0  0  0
   39.1660   23.1240   35.1690 N   0  0  0  0  0  0  0  0  0  0  0  0
   38.5310   22.4870   34.1680 C   0  0  0  0  0  0  0  0  0  0  0  0
   37.4010   21.7530   34.4110 C   0  0  0  0  0  0  0  0  0  0  0  0
   36.8870   21.6540   35.7060 C   0  0  0  0  0  0  0  0  0  0  0  0
   35.8380   20.9590   35.8670 O   0  0  0  0  0  0  0  0  0  0  0  0
   37.5460   22.3010   36.6720 N   0  0  0  0  0  0  0  0  0  0  0  0
   38.6540   23.0160   36.4190 C   0  0  0  0  0  0  0  0  0  0  0  0
   39.1390   23.5550   37.4440 O   0  0  0  0  0  0  0  0  0  0  0  0
   41.7411   22.2906   35.3883 H   0  0  0  0  0  0  0  0  0  0  0  0
   43.5210   26.0968   35.0176 H   0  0  0  0  0  0  0  0  0  0  0  0
   38.4971   25.1815   32.8306 H   0  0  0  0  0  0  0  0  0  0  0  0
   36.2940   26.6493   33.1878 H   0  0  0  0  0  0  0  0  0  0  0  0
   38.7301   27.0932   36.6745 H   0  0  0  0  0  0  0  0  0  0  0  0
   38.9242   22.5568   33.1430 H   0  0  0  0  0  0  0  0  0  0  0  0
   36.8948   21.2381   33.5812 H   0  0  0  0  0  0  0  0  0  0  0  0
   37.1938   22.2497   37.6385 H   0  0  0  0  0  0  0  0  0  0  0  0
  2 12  1  0
  2  1  2  0
  3  2  1  0
  4  3  2  0
  4  5  1  0
  5  6  2  0
  6  1  1  0
  7  3  1  0
  7 11  1  0
  8  9  2  0
  8  7  1  0
  9 10  1  0
 10 11  2  0
 12 18  1  0
 13 14  2  0
 13 12  1  0
 14 15  1  0
 15 16  2  0
 15 17  1  0
 18 17  1  0
 18 19  2  0
  1 20  1  0
  5 21  1  0
  8 22  1  0
  9 23  1  0
 11 24  1  0
 13 25  1  0
 14 26  1  0
 17 27  1  0
M  ISO  8  20  14  21  14  22  14  23  14  24  14  25  14  26  14  27   9
M  END
>  <minimizedAffinity>  (1) 
-4.70326805

>  <minimizedRMSD>  (1) 
4.11867857

$$$$
