
     RDKit          3D

 24 26  0  0  0  0  0  0  0  0999 V2000
   37.6490   23.2800   32.8910 C   0  0  0  0  0  0  0  0  0  0  0  0
   38.1510   23.5520   34.1700 C   0  0  0  0  0  0  0  0  0  0  0  0
   37.8520   22.6880   35.1930 C   0  0  0  0  0  0  0  0  0  0  0  0
   37.0750   21.6090   34.8910 N   0  0  0  0  0  0  0  0  0  0  0  0
   36.6000   21.3610   33.6570 C   0  0  0  0  0  0  0  0  0  0  0  0
   36.9020   22.2180   32.6580 N   0  0  0  0  0  0  0  0  0  0  0  0
   38.3320   22.8830   36.5220 N   0  0  0  0  0  0  0  0  0  0  0  0
   39.6450   22.6920   36.8160 C   0  0  0  0  0  0  0  0  0  0  0  0
   39.7660   22.9490   38.1470 C   0  0  0  0  0  0  0  0  0  0  0  0
   38.5470   23.2840   38.6370 N   0  0  0  0  0  0  0  0  0  0  0  0
   37.6500   23.2420   37.6130 C   0  0  0  0  0  0  0  0  0  0  0  0
   38.9600   24.7460   34.3720 C   0  0  0  0  0  0  0  0  0  0  0  0
   38.4730   25.9300   34.9420 C   0  0  0  0  0  0  0  0  0  0  0  0
   39.3630   26.9600   35.0590 C   0  0  0  0  0  0  0  0  0  0  0  0
   40.6900   26.7890   34.6140 C   0  0  0  0  0  0  0  0  0  0  0  0
   40.6580   25.1340   34.0230 S   0  0  0  0  0  0  0  0  0  0  0  0
   37.8825   23.9662   32.0636 H   0  0  0  0  0  0  0  0  0  0  0  0
   35.9764   20.4754   33.4651 H   0  0  0  0  0  0  0  0  0  0  0  0
   40.4441   22.3920   36.1222 H   0  0  0  0  0  0  0  0  0  0  0  0
   40.6980   22.8941   38.7286 H   0  0  0  0  0  0  0  0  0  0  0  0
   36.5737   23.4610   37.6727 H   0  0  0  0  0  0  0  0  0  0  0  0
   37.4297   26.0250   35.2774 H   0  0  0  0  0  0  0  0  0  0  0  0
   39.0460   27.9175   35.4980 H   0  0  0  0  0  0  0  0  0  0  0  0
   41.5259   27.5038   34.6320 H   0  0  0  0  0  0  0  0  0  0  0  0
  1  2  2  0
  2 12  1  0
  2  3  1  0
  3  7  1  0
  4  3  2  0
  5  4  1  0
  6  1  1  0
  6  5  2  0
  7  8  1  0
  7 11  1  0
  8  9  2  0
  9 10  1  0
 11 10  2  0
 12 13  2  0
 13 14  1  0
 15 14  2  0
 16 12  1  0
 16 15  1  0
  1 17  1  0
  5 18  1  0
  8 19  1  0
  9 20  1  0
 11 21  1  0
 13 22  1  0
 14 23  1  0
 15 24  1  0
M  ISO  8  17  14  18  14  19  14  20  14  21  14  22  14  23  14  24  14
M  END
>  <minimizedAffinity>  (1) 
-4.44835806

>  <minimizedRMSD>  (1) 
4.99210501

$$$$
