
     RDKit          3D

 18 19  0  0  0  0  0  0  0  0999 V2000
   40.1630   22.4330   37.5230 C   0  0  0  0  0  0  0  0  0  0  0  0
   39.3740   23.4310   36.9430 C   0  0  0  0  0  0  0  0  0  0  0  0
   39.8880   24.1470   35.8660 C   0  0  0  0  0  0  0  0  0  0  0  0
   41.1420   23.8380   35.4290 N   0  0  0  0  0  0  0  0  0  0  0  0
   41.8910   22.8630   36.0090 C   0  0  0  0  0  0  0  0  0  0  0  0
   41.3840   22.1650   37.0630 N   0  0  0  0  0  0  0  0  0  0  0  0
   39.1430   25.1780   35.2230 N   0  0  0  0  0  0  0  0  0  0  0  0
   38.0610   24.8790   34.4760 C   0  0  0  0  0  0  0  0  0  0  0  0
   37.5980   26.0850   34.0180 C   0  0  0  0  0  0  0  0  0  0  0  0
   38.3840   27.0640   34.4820 N   0  0  0  0  0  0  0  0  0  0  0  0
   39.3580   26.4980   35.2410 C   0  0  0  0  0  0  0  0  0  0  0  0
   37.7390   23.7900   37.5610 S   0  0  0  0  0  0  0  0  0  0  0  0
   39.7684   21.8589   38.3743 H   0  0  0  0  0  0  0  0  0  0  0  0
   42.8991   22.6394   35.6299 H   0  0  0  0  0  0  0  0  0  0  0  0
   37.6406   23.8822   34.2771 H   0  0  0  0  0  0  0  0  0  0  0  0
   36.7194   26.2260   33.3714 H   0  0  0  0  0  0  0  0  0  0  0  0
   40.1674   27.0238   35.7686 H   0  0  0  0  0  0  0  0  0  0  0  0
   37.7575   23.7859   38.9309 H   0  0  0  0  0  0  0  0  0  0  0  0
  2  1  2  0
  2 12  1  0
  3  2  1  0
  4  3  2  0
  4  5  1  0
  5  6  2  0
  6  1  1  0
  7 11  1  0
  7  3  1  0
  8  7  1  0
  9  8  2  0
  9 10  1  0
 10 11  2  0
  1 13  1  0
  5 14  1  0
  8 15  1  0
  9 16  1  0
 11 17  1  0
 12 18  1  0
M  ISO  6  13  14  14  14  15  14  16  14  17  14  18  11
M  END
>  <minimizedAffinity>  (1) 
-3.22327971

>  <minimizedRMSD>  (1) 
1.96069551

$$$$
