
     RDKit          3D

 36 39  0  0  0  0  0  0  0  0999 V2000
   40.5130   22.0910   35.7980 C   0  0  0  0  0  0  0  0  0  0  0  0
   39.8060   21.6310   33.4060 C   0  0  0  0  0  0  0  0  0  0  0  0
   39.6230   22.2700   34.6400 C   0  0  0  0  0  0  0  0  0  0  0  0
   38.5250   23.1340   34.7760 C   0  0  0  0  0  0  0  0  0  0  0  0
   37.7260   23.2910   33.7180 N   0  0  0  0  0  0  0  0  0  0  0  0
   37.9090   22.6710   32.5310 C   0  0  0  0  0  0  0  0  0  0  0  0
   38.9730   21.8290   32.3900 N   0  0  0  0  0  0  0  0  0  0  0  0
   38.2800   23.8100   35.9920 N   0  0  0  0  0  0  0  0  0  0  0  0
   37.8800   23.1390   37.0950 C   0  0  0  0  0  0  0  0  0  0  0  0
   37.7370   24.0570   38.0750 C   0  0  0  0  0  0  0  0  0  0  0  0
   38.0480   25.2820   37.5700 N   0  0  0  0  0  0  0  0  0  0  0  0
   38.3870   25.1170   36.2620 C   0  0  0  0  0  0  0  0  0  0  0  0
   41.9600   21.9570   35.3380 C   0  0  0  0  0  0  0  0  0  0  0  0
   42.7110   23.1670   35.4650 N   0  0  0  0  0  0  0  0  0  0  0  0
   43.4660   23.4400   36.5650 C   0  0  0  0  0  0  0  0  0  0  0  0
   44.0400   24.6420   36.3780 N   0  0  0  0  0  0  0  0  0  0  0  0
   43.6620   25.1430   35.1670 C   0  0  0  0  0  0  0  0  0  0  0  0
   43.9570   26.3210   34.4960 C   0  0  0  0  0  0  0  0  0  0  0  0
   43.4110   26.5290   33.2790 N   0  0  0  0  0  0  0  0  0  0  0  0
   42.5980   25.5690   32.7800 C   0  0  0  0  0  0  0  0  0  0  0  0
   42.2740   24.3990   33.3920 N   0  0  0  0  0  0  0  0  0  0  0  0
   42.8350   24.2050   34.6200 C   0  0  0  0  0  0  0  0  0  0  0  0
   44.8360   27.2100   35.1890 N   0  0  0  0  0  0  0  0  0  0  0  0
   40.4229   22.9626   36.4629 H   0  0  0  0  0  0  0  0  0  0  0  0
   40.2221   21.1758   36.3345 H   0  0  0  0  0  0  0  0  0  0  0  0
   40.6595   20.9494   33.2756 H   0  0  0  0  0  0  0  0  0  0  0  0
   37.2141   22.8419   31.6956 H   0  0  0  0  0  0  0  0  0  0  0  0
   37.7050   22.0562   37.1782 H   0  0  0  0  0  0  0  0  0  0  0  0
   37.4220   23.8495   39.1083 H   0  0  0  0  0  0  0  0  0  0  0  0
   38.6911   25.9075   35.5601 H   0  0  0  0  0  0  0  0  0  0  0  0
   41.9630   21.6542   34.2805 H   0  0  0  0  0  0  0  0  0  0  0  0
   42.4387   21.2084   35.9864 H   0  0  0  0  0  0  0  0  0  0  0  0
   43.5850   22.7940   37.4473 H   0  0  0  0  0  0  0  0  0  0  0  0
   42.1590   25.7522   31.7882 H   0  0  0  0  0  0  0  0  0  0  0  0
   45.1051   28.1067   34.7596 H   0  0  0  0  0  0  0  0  0  0  0  0
   45.2003   26.9539   36.1178 H   0  0  0  0  0  0  0  0  0  0  0  0
  2  3  2  0
  3  4  1  0
  3  1  1  0
  4  8  1  0
  5  4  2  0
  6  5  1  0
  7  6  2  0
  7  2  1  0
  8 12  1  0
  8  9  1  0
  9 10  2  0
 11 10  1  0
 12 11  2  0
 13 14  1  0
 13  1  1  0
 14 15  1  0
 16 15  2  0
 17 16  1  0
 18 17  2  0
 18 23  1  0
 19 18  1  0
 20 19  2  0
 20 21  1  0
 21 22  2  0
 22 17  1  0
 22 14  1  0
  1 24  1  0
  1 25  1  0
  2 26  1  0
  6 27  1  0
  9 28  1  0
 10 29  1  0
 12 30  1  0
 13 31  1  0
 13 32  1  0
 15 33  1  0
 20 34  1  0
 23 35  1  0
 23 36  1  0
M  ISO  8  24   8  25   8  26  14  27  14  28  14  29  14  30  14  31   8
M  ISO  3  32   8  33  14  34  14
M  END
>  <minimizedAffinity>  (1) 
-4.16001701

>  <minimizedRMSD>  (1) 
7.31593466

$$$$
