
     RDKit          3D

 34 36  0  0  0  0  0  0  0  0999 V2000
   37.7850   25.0900   33.8760 C   0  0  0  0  0  0  0  0  0  0  0  0
   37.3050   24.7240   32.6360 C   0  0  0  0  0  0  0  0  0  0  0  0
   36.7840   25.8630   32.0320 C   0  0  0  0  0  0  0  0  0  0  0  0
   36.9430   26.8770   32.8740 N   0  0  0  0  0  0  0  0  0  0  0  0
   37.5470   26.4080   33.9850 N   0  0  0  0  0  0  0  0  0  0  0  0
   39.8810   22.5280   35.4330 C   0  0  0  0  0  0  0  0  0  0  0  0
   39.5310   22.6630   36.7980 C   0  0  0  0  0  0  0  0  0  0  0  0
   38.6020   23.6160   37.1300 C   0  0  0  0  0  0  0  0  0  0  0  0
   38.0500   24.3920   36.1610 N   0  0  0  0  0  0  0  0  0  0  0  0
   38.4170   24.2260   34.8570 C   0  0  0  0  0  0  0  0  0  0  0  0
   39.3160   23.3090   34.5070 N   0  0  0  0  0  0  0  0  0  0  0  0
   38.2840   23.7050   38.5650 C   0  0  0  0  0  0  0  0  0  0  0  0
   37.8230   24.9680   38.8610 F   0  0  0  0  0  0  0  0  0  0  0  0
   39.4670   23.5580   39.2550 F   0  0  0  0  0  0  0  0  0  0  0  0
   37.3210   22.8110   38.9500 F   0  0  0  0  0  0  0  0  0  0  0  0
   36.5430   28.2430   32.6460 C   0  0  0  0  0  0  0  0  0  0  0  0
   35.8870   28.8920   33.6610 C   0  0  0  0  0  0  0  0  0  0  0  0
   35.5200   30.2190   33.3870 C   0  0  0  0  0  0  0  0  0  0  0  0
   35.8070   30.7720   32.2150 N   0  0  0  0  0  0  0  0  0  0  0  0
   36.4450   30.1400   31.2280 C   0  0  0  0  0  0  0  0  0  0  0  0
   36.8020   28.8500   31.4930 N   0  0  0  0  0  0  0  0  0  0  0  0
   36.8140   30.6570   29.8930 C   0  0  0  0  0  0  0  0  0  0  0  0
   37.6390   31.9210   29.9720 C   0  0  0  0  0  0  0  0  0  0  0  0
   37.3298   23.7132   32.2028 H   0  0  0  0  0  0  0  0  0  0  0  0
   36.3226   25.9146   31.0348 H   0  0  0  0  0  0  0  0  0  0  0  0
   40.6237   21.7745   35.1320 H   0  0  0  0  0  0  0  0  0  0  0  0
   39.9892   22.0243   37.5675 H   0  0  0  0  0  0  0  0  0  0  0  0
   35.6641   28.4065   34.6225 H   0  0  0  0  0  0  0  0  0  0  0  0
   34.9894   30.8062   34.1510 H   0  0  0  0  0  0  0  0  0  0  0  0
   35.8934   30.8707   29.3302 H   0  0  0  0  0  0  0  0  0  0  0  0
   37.4233   29.8897   29.3931 H   0  0  0  0  0  0  0  0  0  0  0  0
   37.8095   32.1822   31.0268 H   0  0  0  0  0  0  0  0  0  0  0  0
   38.6061   31.7594   29.4733 H   0  0  0  0  0  0  0  0  0  0  0  0
   37.1018   32.7412   29.4733 H   0  0  0  0  0  0  0  0  0  0  0  0
  1  5  2  0
  1 10  1  0
  2  1  1  0
  3  2  2  0
  3  4  1  0
  4  5  1  0
  6  7  2  0
  7  8  1  0
  8 12  1  0
  9  8  2  0
 10  9  1  0
 11 10  2  0
 11  6  1  0
 12 13  1  0
 12 15  1  0
 12 14  1  0
 16  4  1  0
 16 17  2  0
 18 17  1  0
 19 18  2  0
 20 21  2  0
 20 19  1  0
 21 16  1  0
 22 23  1  0
 22 20  1  0
  2 24  1  0
  3 25  1  0
  6 26  1  0
  7 27  1  0
 17 28  1  0
 18 29  1  0
 22 30  1  0
 22 31  1  0
 23 32  1  0
 23 33  1  0
 23 34  1  0
M  ISO  8  24  14  25  14  26  14  27  14  28  14  29  14  30   8  31   8
M  ISO  3  32   8  33   8  34   8
M  END
>  <minimizedAffinity>  (1) 
-5.7108984

>  <minimizedRMSD>  (1) 
2.85575175

$$$$
