
     RDKit          3D

 46 49  0  0  0  0  0  0  0  0999 V2000
   38.8570   24.3070   35.6600 C   0  0  0  0  0  0  0  0  0  0  0  0
   38.0970   24.4010   34.4250 N   0  0  0  0  0  0  0  0  0  0  0  0
   37.7880   25.5800   33.8310 C   0  0  0  0  0  0  0  0  0  0  0  0
   37.0920   25.6140   32.6440 C   0  0  0  0  0  0  0  0  0  0  0  0
   36.6890   24.4360   32.0270 C   0  0  0  0  0  0  0  0  0  0  0  0
   36.0480   24.3700   30.9410 O   0  0  0  0  0  0  0  0  0  0  0  0
   37.0050   23.2710   32.6330 N   0  0  0  0  0  0  0  0  0  0  0  0
   37.6840   23.2930   33.7850 C   0  0  0  0  0  0  0  0  0  0  0  0
   37.9650   22.1910   34.3150 O   0  0  0  0  0  0  0  0  0  0  0  0
   36.6260   22.0240   32.0600 C   0  0  0  0  0  0  0  0  0  0  0  0
   35.4130   21.4150   32.4010 C   0  0  0  0  0  0  0  0  0  0  0  0
   35.1100   20.2120   31.8090 C   0  0  0  0  0  0  0  0  0  0  0  0
   35.9320   19.5770   30.9050 C   0  0  0  0  0  0  0  0  0  0  0  0
   37.1420   20.1560   30.5490 C   0  0  0  0  0  0  0  0  0  0  0  0
   37.4260   21.3620   31.1530 C   0  0  0  0  0  0  0  0  0  0  0  0
   36.7540   26.8980   31.9820 C   0  0  0  0  0  0  0  0  0  0  0  0
   40.3410   24.4240   35.4350 C   0  0  0  0  0  0  0  0  0  0  0  0
   40.5030   22.3290   36.7570 C   0  0  0  0  0  0  0  0  0  0  0  0
   41.1000   23.3270   36.0090 C   0  0  0  0  0  0  0  0  0  0  0  0
   42.4740   23.2490   35.7940 C   0  0  0  0  0  0  0  0  0  0  0  0
   43.1280   22.2170   36.3200 N   0  0  0  0  0  0  0  0  0  0  0  0
   42.5550   21.2440   37.0460 C   0  0  0  0  0  0  0  0  0  0  0  0
   41.2020   21.3120   37.2650 N   0  0  0  0  0  0  0  0  0  0  0  0
   43.1420   24.2580   35.0460 N   0  0  0  0  0  0  0  0  0  0  0  0
   43.2970   24.1620   33.7190 C   0  0  0  0  0  0  0  0  0  0  0  0
   43.9640   25.2710   33.3290 C   0  0  0  0  0  0  0  0  0  0  0  0
   44.2090   26.0290   34.4070 N   0  0  0  0  0  0  0  0  0  0  0  0
   43.6960   25.3970   35.4830 C   0  0  0  0  0  0  0  0  0  0  0  0
   38.5375   25.1163   36.3331 H   0  0  0  0  0  0  0  0  0  0  0  0
   38.6626   23.3164   36.0971 H   0  0  0  0  0  0  0  0  0  0  0  0
   38.0981   26.5231   34.3046 H   0  0  0  0  0  0  0  0  0  0  0  0
   34.7244   21.8838   33.1194 H   0  0  0  0  0  0  0  0  0  0  0  0
   34.1572   19.7294   32.0722 H   0  0  0  0  0  0  0  0  0  0  0  0
   35.6307   18.6142   30.4666 H   0  0  0  0  0  0  0  0  0  0  0  0
   37.8293   19.6835   29.8319 H   0  0  0  0  0  0  0  0  0  0  0  0
   38.3798   21.8409   30.8866 H   0  0  0  0  0  0  0  0  0  0  0  0
   36.5527   27.6628   32.7465 H   0  0  0  0  0  0  0  0  0  0  0  0
   37.5979   27.2202   31.3543 H   0  0  0  0  0  0  0  0  0  0  0  0
   35.8608   26.7629   31.3543 H   0  0  0  0  0  0  0  0  0  0  0  0
   40.5285   24.4482   34.3514 H   0  0  0  0  0  0  0  0  0  0  0  0
   40.6735   25.3455   35.9353 H   0  0  0  0  0  0  0  0  0  0  0  0
   39.4191   22.3747   36.9388 H   0  0  0  0  0  0  0  0  0  0  0  0
   43.1530   20.4157   37.4538 H   0  0  0  0  0  0  0  0  0  0  0  0
   42.9497   23.3418   33.0735 H   0  0  0  0  0  0  0  0  0  0  0  0
   44.2575   25.5119   32.2966 H   0  0  0  0  0  0  0  0  0  0  0  0
   43.7268   25.7506   36.5241 H   0  0  0  0  0  0  0  0  0  0  0  0
  2  1  1  0
  3  2  1  0
  4  3  2  0
  5  7  1  0
  5  4  1  0
  6  5  2  0
  7  8  1  0
  8  9  2  0
  8  2  1  0
 10 11  2  0
 10  7  1  0
 12 11  1  0
 13 12  2  0
 14 13  1  0
 14 15  2  0
 15 10  1  0
 16  4  1  0
 17  1  1  0
 17 19  1  0
 18 23  2  0
 19 18  1  0
 20 19  2  0
 20 21  1  0
 21 22  2  0
 22 23  1  0
 24 28  1  0
 24 20  1  0
 25 24  1  0
 26 25  2  0
 26 27  1  0
 27 28  2  0
  1 29  1  0
  1 30  1  0
  3 31  1  0
 11 32  1  0
 12 33  1  0
 13 34  1  0
 14 35  1  0
 15 36  1  0
 16 37  1  0
 16 38  1  0
 16 39  1  0
 17 40  1  0
 17 41  1  0
 18 42  1  0
 22 43  1  0
 25 44  1  0
 26 45  1  0
 28 46  1  0
M  ISO  8  29   8  30   8  31  14  32  14  33  14  34  14  35  14  36  14
M  ISO  8  37   8  38   8  39   8  40   8  41   8  42  14  43  14  44  14
M  ISO  2  45  14  46  14
M  END
>  <minimizedAffinity>  (1) 
-5.36943102

>  <minimizedRMSD>  (1) 
4.50275993

$$$$
