
     RDKit          3D

 48 51  0  0  1  0  0  0  0  0999 V2000
   38.7730   24.8040   35.3440 C   0  0  0  0  0  0  0  0  0  0  0  0
   38.0440   25.1400   34.1370 N   0  0  0  0  0  0  0  0  0  0  0  0
   37.5660   24.2190   33.2610 C   0  0  0  0  0  0  0  0  0  0  0  0
   36.8560   24.6110   32.1560 C   0  0  0  0  0  0  0  0  0  0  0  0
   36.6020   25.9530   31.8930 C   0  0  0  0  0  0  0  0  0  0  0  0
   35.9560   26.3710   30.8940 O   0  0  0  0  0  0  0  0  0  0  0  0
   37.0790   26.8510   32.7660 N   0  0  0  0  0  0  0  0  0  0  0  0
   37.7650   26.4210   33.8300 C   0  0  0  0  0  0  0  0  0  0  0  0
   38.1960   27.2960   34.6350 O   0  0  0  0  0  0  0  0  0  0  0  0
   37.3040   28.7840   31.3180 N   0  0  0  0  0  0  0  0  0  0  0  0
   36.2600   29.4950   30.6670 C   0  0  0  0  0  0  0  0  0  0  0  0
   35.1970   29.7310   31.7160 C   0  0  0  0  0  0  0  0  0  0  0  0
   35.3890   28.6310   32.7090 C   0  0  0  0  0  0  0  0  0  0  0  0
   36.8550   28.2680   32.5610 C   0  0  1  0  0  0  0  0  0  0  0  0
   36.3250   23.6050   31.1950 C   0  0  0  0  0  0  0  0  0  0  0  0
   40.2480   24.6240   35.0880 C   0  0  0  0  0  0  0  0  0  0  0  0
   40.0650   22.6500   36.5880 C   0  0  0  0  0  0  0  0  0  0  0  0
   40.8330   23.5400   35.8570 C   0  0  0  0  0  0  0  0  0  0  0  0
   42.2190   23.3570   35.8620 C   0  0  0  0  0  0  0  0  0  0  0  0
   42.7200   22.3440   36.5630 N   0  0  0  0  0  0  0  0  0  0  0  0
   41.9700   21.4780   37.2730 C   0  0  0  0  0  0  0  0  0  0  0  0
   40.6080   21.6480   37.2770 N   0  0  0  0  0  0  0  0  0  0  0  0
   43.0560   24.2510   35.1390 N   0  0  0  0  0  0  0  0  0  0  0  0
   43.4040   24.0210   33.8670 C   0  0  0  0  0  0  0  0  0  0  0  0
   44.1920   25.0510   33.4890 C   0  0  0  0  0  0  0  0  0  0  0  0
   44.3210   25.8980   34.5210 N   0  0  0  0  0  0  0  0  0  0  0  0
   43.6120   25.3990   35.5540 C   0  0  0  0  0  0  0  0  0  0  0  0
   38.6369   25.6131   36.0767 H   0  0  0  0  0  0  0  0  0  0  0  0
   38.3774   23.8499   35.7225 H   0  0  0  0  0  0  0  0  0  0  0  0
   37.7501   23.1493   33.4397 H   0  0  0  0  0  0  0  0  0  0  0  0
   38.0966   29.4210   31.4820 H   0  0  0  0  0  0  0  0  0  0  0  0
   36.6346   30.4543   30.2803 H   0  0  0  0  0  0  0  0  0  0  0  0
   35.8619   28.9305   29.8109 H   0  0  0  0  0  0  0  0  0  0  0  0
   35.3350   30.7123   32.1934 H   0  0  0  0  0  0  0  0  0  0  0  0
   34.1839   29.7311   31.2875 H   0  0  0  0  0  0  0  0  0  0  0  0
   35.1721   28.9806   33.7292 H   0  0  0  0  0  0  0  0  0  0  0  0
   34.7178   27.7770   32.5357 H   0  0  0  0  0  0  0  0  0  0  0  0
   37.4670   28.7315   33.3487 H   0  0  0  0  0  0  0  0  0  0  0  0
   35.8818   22.7654   31.7506 H   0  0  0  0  0  0  0  0  0  0  0  0
   35.5562   24.0725   30.5623 H   0  0  0  0  0  0  0  0  0  0  0  0
   37.1447   23.2340   30.5623 H   0  0  0  0  0  0  0  0  0  0  0  0
   40.3942   24.4127   34.0184 H   0  0  0  0  0  0  0  0  0  0  0  0
   40.7497   25.5527   35.3975 H   0  0  0  0  0  0  0  0  0  0  0  0
   38.9721   22.7743   36.6002 H   0  0  0  0  0  0  0  0  0  0  0  0
   42.4375   20.6560   37.8349 H   0  0  0  0  0  0  0  0  0  0  0  0
   43.1062   23.1606   33.2497 H   0  0  0  0  0  0  0  0  0  0  0  0
   44.6523   25.1748   32.4976 H   0  0  0  0  0  0  0  0  0  0  0  0
   43.5088   25.8499   36.5520 H   0  0  0  0  0  0  0  0  0  0  0  0
  2  1  1  0
  3  2  1  0
  4  3  2  0
  5  4  1  0
  5  7  1  0
  6  5  2  0
  7  8  1  0
  8  2  1  0
  8  9  2  0
 10 14  1  0
 11 10  1  0
 11 12  1  0
 12 13  1  0
 14 13  1  0
 14  7  1  0
 15  4  1  0
 16  1  1  0
 16 18  1  0
 17 22  2  0
 18 19  2  0
 18 17  1  0
 19 20  1  0
 20 21  2  0
 21 22  1  0
 23 27  1  0
 23 19  1  0
 24 23  1  0
 25 24  2  0
 25 26  1  0
 26 27  2  0
  1 28  1  0
  1 29  1  0
  3 30  1  0
 10 31  1  0
 11 32  1  0
 11 33  1  0
 12 34  1  0
 12 35  1  0
 13 36  1  0
 13 37  1  0
 14 38  1  1
 15 39  1  0
 15 40  1  0
 15 41  1  0
 16 42  1  0
 16 43  1  0
 17 44  1  0
 21 45  1  0
 24 46  1  0
 25 47  1  0
 27 48  1  0
M  ISO  8  28   8  29   8  30  14  31   5  32  13  33  13  34  13  35  13
M  ISO  8  36  13  37  13  38  13  39   8  40   8  41   8  42   8  43   8
M  ISO  5  44  14  45  14  46  14  47  14  48  14
M  END
>  <minimizedAffinity>  (1) 
-4.99172926

>  <minimizedRMSD>  (1) 
2.07066083

$$$$
