
     RDKit          3D

 39 41  0  0  0  0  0  0  0  0999 V2000
   38.6680   25.1740   35.3650 C   0  0  0  0  0  0  0  0  0  0  0  0
   37.9060   25.4570   34.1600 N   0  0  0  0  0  0  0  0  0  0  0  0
   37.6590   24.5520   33.1930 C   0  0  0  0  0  0  0  0  0  0  0  0
   36.8990   24.8880   32.0990 C   0  0  0  0  0  0  0  0  0  0  0  0
   36.3660   26.1530   31.9470 C   0  0  0  0  0  0  0  0  0  0  0  0
   35.6620   26.5300   30.9690 O   0  0  0  0  0  0  0  0  0  0  0  0
   36.6220   27.0560   32.9270 N   0  0  0  0  0  0  0  0  0  0  0  0
   37.3700   26.6820   33.9800 C   0  0  0  0  0  0  0  0  0  0  0  0
   37.5760   27.5450   34.8610 O   0  0  0  0  0  0  0  0  0  0  0  0
   36.6180   23.8920   31.0320 C   0  0  0  0  0  0  0  0  0  0  0  0
   36.0990   28.4110   32.8440 C   0  0  0  0  0  0  0  0  0  0  0  0
   36.8900   29.1960   32.0000 F   0  0  0  0  0  0  0  0  0  0  0  0
   36.2060   28.9800   34.0980 F   0  0  0  0  0  0  0  0  0  0  0  0
   34.8240   28.4650   32.3510 F   0  0  0  0  0  0  0  0  0  0  0  0
   40.1110   24.8660   35.0570 C   0  0  0  0  0  0  0  0  0  0  0  0
   39.8160   22.9070   36.5610 C   0  0  0  0  0  0  0  0  0  0  0  0
   40.6320   23.7510   35.8260 C   0  0  0  0  0  0  0  0  0  0  0  0
   42.0090   23.4860   35.8330 C   0  0  0  0  0  0  0  0  0  0  0  0
   42.4530   22.4470   36.5360 N   0  0  0  0  0  0  0  0  0  0  0  0
   41.6520   21.6290   37.2480 C   0  0  0  0  0  0  0  0  0  0  0  0
   40.3010   21.8770   37.2500 N   0  0  0  0  0  0  0  0  0  0  0  0
   42.8950   24.3300   35.1120 N   0  0  0  0  0  0  0  0  0  0  0  0
   43.1670   24.1290   33.8180 C   0  0  0  0  0  0  0  0  0  0  0  0
   44.0290   25.0970   33.4470 C   0  0  0  0  0  0  0  0  0  0  0  0
   44.2810   25.8850   34.5090 N   0  0  0  0  0  0  0  0  0  0  0  0
   43.5730   25.4040   35.5500 C   0  0  0  0  0  0  0  0  0  0  0  0
   38.6249   26.0511   36.0274 H   0  0  0  0  0  0  0  0  0  0  0  0
   38.2261   24.2904   35.8486 H   0  0  0  0  0  0  0  0  0  0  0  0
   38.0694   23.5352   33.2802 H   0  0  0  0  0  0  0  0  0  0  0  0
   36.3465   22.9298   31.4908 H   0  0  0  0  0  0  0  0  0  0  0  0
   35.7854   24.2484   30.4078 H   0  0  0  0  0  0  0  0  0  0  0  0
   37.5142   23.7607   30.4078 H   0  0  0  0  0  0  0  0  0  0  0  0
   40.1967   24.6239   33.9874 H   0  0  0  0  0  0  0  0  0  0  0  0
   40.7008   25.7545   35.3268 H   0  0  0  0  0  0  0  0  0  0  0  0
   38.7321   23.0941   36.5757 H   0  0  0  0  0  0  0  0  0  0  0  0
   42.0703   20.7834   37.8137 H   0  0  0  0  0  0  0  0  0  0  0  0
   42.7650   23.3284   33.1797 H   0  0  0  0  0  0  0  0  0  0  0  0
   44.4564   25.2224   32.4412 H   0  0  0  0  0  0  0  0  0  0  0  0
   43.5538   25.8150   36.5702 H   0  0  0  0  0  0  0  0  0  0  0  0
  2  1  1  0
  3  2  1  0
  4  3  2  0
  5  4  1  0
  5  7  1  0
  6  5  2  0
  7  8  1  0
  8  2  1  0
  8  9  2  0
 10  4  1  0
 11  7  1  0
 11 13  1  0
 12 11  1  0
 14 11  1  0
 15  1  1  0
 15 17  1  0
 16 21  2  0
 17 18  2  0
 17 16  1  0
 18 19  1  0
 19 20  2  0
 20 21  1  0
 22 26  1  0
 22 18  1  0
 23 22  1  0
 24 23  2  0
 24 25  1  0
 25 26  2  0
  1 27  1  0
  1 28  1  0
  3 29  1  0
 10 30  1  0
 10 31  1  0
 10 32  1  0
 15 33  1  0
 15 34  1  0
 16 35  1  0
 20 36  1  0
 23 37  1  0
 24 38  1  0
 26 39  1  0
M  ISO  8  27   8  28   8  29  14  30   8  31   8  32   8  33   8  34   8
M  ISO  5  35  14  36  14  37  14  38  14  39  14
M  END
>  <minimizedAffinity>  (1) 
-5.02006054

>  <minimizedRMSD>  (1) 
2.04029298

$$$$
