
     RDKit          3D

 41 44  0  0  0  0  0  0  0  0999 V2000
   38.8710   24.5410   33.7870 C   0  0  0  0  0  0  0  0  0  0  0  0
   38.9560   24.0590   32.4950 C   0  0  0  0  0  0  0  0  0  0  0  0
   38.4250   25.0500   31.6640 C   0  0  0  0  0  0  0  0  0  0  0  0
   38.0450   26.0640   32.4300 N   0  0  0  0  0  0  0  0  0  0  0  0
   38.3150   25.7580   33.7150 N   0  0  0  0  0  0  0  0  0  0  0  0
   40.6910   22.3590   36.1020 C   0  0  0  0  0  0  0  0  0  0  0  0
   40.0180   22.6170   37.3230 C   0  0  0  0  0  0  0  0  0  0  0  0
   38.9690   23.5240   37.3140 C   0  0  0  0  0  0  0  0  0  0  0  0
   38.6300   24.1280   36.1370 N   0  0  0  0  0  0  0  0  0  0  0  0
   39.3090   23.8440   34.9940 C   0  0  0  0  0  0  0  0  0  0  0  0
   40.3180   22.9750   34.9890 N   0  0  0  0  0  0  0  0  0  0  0  0
   38.3240   23.7390   38.6060 C   0  0  0  0  0  0  0  0  0  0  0  0
   37.7450   24.9860   38.6300 F   0  0  0  0  0  0  0  0  0  0  0  0
   39.3180   23.7650   39.5660 F   0  0  0  0  0  0  0  0  0  0  0  0
   37.3420   22.8170   38.8760 F   0  0  0  0  0  0  0  0  0  0  0  0
   37.4450   27.2900   31.9650 C   0  0  0  0  0  0  0  0  0  0  0  0
   36.2470   27.6620   32.5190 C   0  0  0  0  0  0  0  0  0  0  0  0
   35.7050   28.8630   32.0300 C   0  0  0  0  0  0  0  0  0  0  0  0
   36.3400   29.5620   31.0960 N   0  0  0  0  0  0  0  0  0  0  0  0
   37.5100   29.1910   30.5590 C   0  0  0  0  0  0  0  0  0  0  0  0
   38.0470   28.0310   31.0210 N   0  0  0  0  0  0  0  0  0  0  0  0
   38.2900   29.9030   29.5150 C   0  0  0  0  0  0  0  0  0  0  0  0
   39.0760   28.9020   28.6950 C   0  0  0  0  0  0  0  0  0  0  0  0
   39.3030   29.5920   27.3500 C   0  0  0  0  0  0  0  0  0  0  0  0
   38.3430   30.7440   27.3190 C   0  0  0  0  0  0  0  0  0  0  0  0
   37.4190   30.5810   28.5050 C   0  0  0  0  0  0  0  0  0  0  0  0
   39.3620   23.0859   32.1815 H   0  0  0  0  0  0  0  0  0  0  0  0
   38.3378   24.9980   30.5687 H   0  0  0  0  0  0  0  0  0  0  0  0
   41.5267   21.6442   36.0782 H   0  0  0  0  0  0  0  0  0  0  0  0
   40.3198   22.1115   38.2522 H   0  0  0  0  0  0  0  0  0  0  0  0
   35.7451   27.0621   33.2924 H   0  0  0  0  0  0  0  0  0  0  0  0
   34.7453   29.2278   32.4248 H   0  0  0  0  0  0  0  0  0  0  0  0
   38.9119   30.6298   30.0581 H   0  0  0  0  0  0  0  0  0  0  0  0
   40.0364   28.6727   29.1799 H   0  0  0  0  0  0  0  0  0  0  0  0
   38.5443   27.9452   28.5865 H   0  0  0  0  0  0  0  0  0  0  0  0
   40.3391   29.9537   27.2743 H   0  0  0  0  0  0  0  0  0  0  0  0
   39.1396   28.9039   26.5075 H   0  0  0  0  0  0  0  0  0  0  0  0
   38.8911   31.6947   27.3949 H   0  0  0  0  0  0  0  0  0  0  0  0
   37.7748   30.7565   26.3772 H   0  0  0  0  0  0  0  0  0  0  0  0
   37.0717   31.5575   28.8735 H   0  0  0  0  0  0  0  0  0  0  0  0
   36.5050   30.0160   28.2698 H   0  0  0  0  0  0  0  0  0  0  0  0
  1 10  1  0
  2  1  1  0
  3  4  1  0
  3  2  2  0
  4  5  1  0
  5  1  2  0
  6  7  2  0
  8  7  1  0
  8 12  1  0
  9  8  2  0
 10  9  1  0
 11 10  2  0
 11  6  1  0
 12 13  1  0
 12 15  1  0
 12 14  1  0
 16  4  1  0
 16 17  2  0
 18 17  1  0
 19 18  2  0
 20 21  2  0
 20 19  1  0
 21 16  1  0
 22 20  1  0
 23 22  1  0
 24 23  1  0
 25 24  1  0
 25 26  1  0
 26 22  1  0
  2 27  1  0
  3 28  1  0
  6 29  1  0
  7 30  1  0
 17 31  1  0
 18 32  1  0
 22 33  1  0
 23 34  1  0
 23 35  1  0
 24 36  1  0
 24 37  1  0
 25 38  1  0
 25 39  1  0
 26 40  1  0
 26 41  1  0
M  ISO  8  27  14  28  14  29  14  30  14  31  14  32  14  33  13  34  13
M  ISO  7  35  13  36  13  37  13  38  13  39  13  40  13  41  13
M  END
>  <minimizedAffinity>  (1) 
-5.63623047

>  <minimizedRMSD>  (1) 
2.03673601

$$$$
