
     RDKit          3D

 51 54  0  0  0  0  0  0  0  0999 V2000
   39.0640   24.9340   35.4530 C   0  0  0  0  0  0  0  0  0  0  0  0
   38.2880   25.0530   34.2310 N   0  0  0  0  0  0  0  0  0  0  0  0
   37.8010   23.9790   33.5600 C   0  0  0  0  0  0  0  0  0  0  0  0
   37.0470   24.1380   32.4240 C   0  0  0  0  0  0  0  0  0  0  0  0
   36.7630   25.4020   31.9320 C   0  0  0  0  0  0  0  0  0  0  0  0
   36.0800   25.6510   30.8970 O   0  0  0  0  0  0  0  0  0  0  0  0
   37.2530   26.4720   32.6080 N   0  0  0  0  0  0  0  0  0  0  0  0
   37.9870   26.2520   33.7160 C   0  0  0  0  0  0  0  0  0  0  0  0
   38.4270   27.2610   34.3290 O   0  0  0  0  0  0  0  0  0  0  0  0
   36.0630   29.7890   30.2550 N   0  0  0  0  0  0  0  0  0  0  0  0
   35.3850   29.5230   31.4870 C   0  0  0  0  0  0  0  0  0  0  0  0
   35.5420   28.1140   32.0000 C   0  0  0  0  0  0  0  0  0  0  0  0
   36.9970   27.8260   32.1520 C   0  0  0  0  0  0  0  0  0  0  0  0
   37.7760   28.1530   30.8990 C   0  0  0  0  0  0  0  0  0  0  0  0
   36.9180   28.7180   29.8060 C   0  0  0  0  0  0  0  0  0  0  0  0
   36.5060   22.9690   31.6800 C   0  0  0  0  0  0  0  0  0  0  0  0
   40.5240   24.6770   35.1910 C   0  0  0  0  0  0  0  0  0  0  0  0
   40.2170   22.6520   36.6010 C   0  0  0  0  0  0  0  0  0  0  0  0
   41.0400   23.5370   35.9270 C   0  0  0  0  0  0  0  0  0  0  0  0
   42.4130   23.2930   35.9540 C   0  0  0  0  0  0  0  0  0  0  0  0
   42.8540   22.2290   36.6210 N   0  0  0  0  0  0  0  0  0  0  0  0
   42.0490   21.3680   37.2760 C   0  0  0  0  0  0  0  0  0  0  0  0
   40.6980   21.5960   37.2590 N   0  0  0  0  0  0  0  0  0  0  0  0
   43.3100   24.1820   35.2970 N   0  0  0  0  0  0  0  0  0  0  0  0
   43.6580   24.0110   34.0170 C   0  0  0  0  0  0  0  0  0  0  0  0
   44.5090   25.0170   33.7130 C   0  0  0  0  0  0  0  0  0  0  0  0
   44.6740   25.7890   34.8010 N   0  0  0  0  0  0  0  0  0  0  0  0
   43.9250   25.2690   35.7900 C   0  0  0  0  0  0  0  0  0  0  0  0
   38.9681   25.8697   36.0233 H   0  0  0  0  0  0  0  0  0  0  0  0
   38.6705   24.0736   36.0142 H   0  0  0  0  0  0  0  0  0  0  0  0
   38.0135   22.9658   33.9318 H   0  0  0  0  0  0  0  0  0  0  0  0
   35.3546   29.9630   29.5278 H   0  0  0  0  0  0  0  0  0  0  0  0
   35.7776   30.2113   32.2499 H   0  0  0  0  0  0  0  0  0  0  0  0
   34.3123   29.6641   31.2885 H   0  0  0  0  0  0  0  0  0  0  0  0
   35.0404   28.0156   32.9740 H   0  0  0  0  0  0  0  0  0  0  0  0
   35.0885   27.4028   31.2940 H   0  0  0  0  0  0  0  0  0  0  0  0
   37.3614   28.4974   32.9435 H   0  0  0  0  0  0  0  0  0  0  0  0
   38.5526   28.8900   31.1514 H   0  0  0  0  0  0  0  0  0  0  0  0
   38.2080   27.2129   30.5254 H   0  0  0  0  0  0  0  0  0  0  0  0
   36.2872   27.9116   29.4037 H   0  0  0  0  0  0  0  0  0  0  0  0
   37.5913   29.1339   29.0420 H   0  0  0  0  0  0  0  0  0  0  0  0
   36.1548   22.2101   32.3947 H   0  0  0  0  0  0  0  0  0  0  0  0
   35.6665   23.2934   31.0476 H   0  0  0  0  0  0  0  0  0  0  0  0
   37.2967   22.5390   31.0476 H   0  0  0  0  0  0  0  0  0  0  0  0
   40.6596   24.4905   34.1155 H   0  0  0  0  0  0  0  0  0  0  0  0
   41.0800   25.5647   35.5270 H   0  0  0  0  0  0  0  0  0  0  0  0
   39.1307   22.8249   36.5940 H   0  0  0  0  0  0  0  0  0  0  0  0
   42.4671   20.5029   37.8114 H   0  0  0  0  0  0  0  0  0  0  0  0
   43.3188   23.2098   33.3440 H   0  0  0  0  0  0  0  0  0  0  0  0
   44.9877   25.1773   32.7357 H   0  0  0  0  0  0  0  0  0  0  0  0
   43.8333   25.6617   36.8134 H   0  0  0  0  0  0  0  0  0  0  0  0
  2  1  1  0
  3  2  1  0
  4  3  2  0
  5  4  1  0
  5  7  1  0
  6  5  2  0
  7  8  1  0
  8  2  1  0
  8  9  2  0
 10 11  1  0
 11 12  1  0
 12 13  1  0
 13  7  1  0
 14 13  1  0
 15 10  1  0
 15 14  1  0
 16  4  1  0
 17  1  1  0
 17 19  1  0
 18 23  2  0
 19 20  2  0
 19 18  1  0
 20 21  1  0
 21 22  2  0
 23 22  1  0
 24 28  1  0
 24 20  1  0
 25 24  1  0
 26 25  2  0
 26 27  1  0
 27 28  2  0
  1 29  1  0
  1 30  1  0
  3 31  1  0
 10 32  1  0
 11 33  1  0
 11 34  1  0
 12 35  1  0
 12 36  1  0
 13 37  1  0
 14 38  1  0
 14 39  1  0
 15 40  1  0
 15 41  1  0
 16 42  1  0
 16 43  1  0
 16 44  1  0
 17 45  1  0
 17 46  1  0
 18 47  1  0
 22 48  1  0
 25 49  1  0
 26 50  1  0
 28 51  1  0
M  ISO  8  29   8  30   8  31  14  32   5  33  13  34  13  35  13  36  13
M  ISO  8  37  13  38  13  39  13  40  13  41  13  42   8  43   8  44   8
M  ISO  7  45   8  46   8  47  14  48  14  49  14  50  14  51  14
M  END
>  <minimizedAffinity>  (1) 
-5.22529697

>  <minimizedRMSD>  (1) 
2.38637185

$$$$
