
     RDKit          3D

 48 50  0  0  0  0  0  0  0  0999 V2000
   38.8710   23.8580   35.6460 C   0  0  0  0  0  0  0  0  0  0  0  0
   38.0950   24.7110   34.7600 N   0  0  0  0  0  0  0  0  0  0  0  0
   37.8460   26.0180   35.0190 C   0  0  0  0  0  0  0  0  0  0  0  0
   37.1330   26.7830   34.1270 C   0  0  0  0  0  0  0  0  0  0  0  0
   36.6480   26.2350   32.9360 C   0  0  0  0  0  0  0  0  0  0  0  0
   35.9910   26.8820   32.0860 O   0  0  0  0  0  0  0  0  0  0  0  0
   36.8990   24.9440   32.6920 N   0  0  0  0  0  0  0  0  0  0  0  0
   37.6070   24.2290   33.5990 C   0  0  0  0  0  0  0  0  0  0  0  0
   37.8330   23.0260   33.3480 O   0  0  0  0  0  0  0  0  0  0  0  0
   36.8540   28.2180   34.4020 C   0  0  0  0  0  0  0  0  0  0  0  0
   36.4100   24.3470   31.4650 C   0  0  0  0  0  0  0  0  0  0  0  0
   35.8900   22.9260   31.7230 C   0  0  0  0  0  0  0  0  0  0  0  0
   35.3130   25.0880   30.7910 C   0  0  0  0  0  0  0  0  0  0  0  0
   37.6020   24.3070   30.5260 C   0  0  0  0  0  0  0  0  0  0  0  0
   40.3380   24.1930   35.6230 C   0  0  0  0  0  0  0  0  0  0  0  0
   40.6760   22.0680   36.8730 C   0  0  0  0  0  0  0  0  0  0  0  0
   41.1810   23.1240   36.1320 C   0  0  0  0  0  0  0  0  0  0  0  0
   42.5470   23.1310   35.8620 C   0  0  0  0  0  0  0  0  0  0  0  0
   43.2900   22.1290   36.3270 N   0  0  0  0  0  0  0  0  0  0  0  0
   42.7980   21.1000   37.0480 C   0  0  0  0  0  0  0  0  0  0  0  0
   41.4520   21.0850   37.3190 N   0  0  0  0  0  0  0  0  0  0  0  0
   43.1250   24.1970   35.1140 N   0  0  0  0  0  0  0  0  0  0  0  0
   43.2220   24.1450   33.7810 C   0  0  0  0  0  0  0  0  0  0  0  0
   43.8100   25.2990   33.3930 C   0  0  0  0  0  0  0  0  0  0  0  0
   44.0670   26.0410   34.4790 N   0  0  0  0  0  0  0  0  0  0  0  0
   43.6380   25.3520   35.5580 C   0  0  0  0  0  0  0  0  0  0  0  0
   38.4963   23.9811   36.6729 H   0  0  0  0  0  0  0  0  0  0  0  0
   38.7577   22.8207   35.2980 H   0  0  0  0  0  0  0  0  0  0  0  0
   38.2175   26.4700   35.9505 H   0  0  0  0  0  0  0  0  0  0  0  0
   36.8218   28.3835   35.4890 H   0  0  0  0  0  0  0  0  0  0  0  0
   37.6486   28.8372   33.9602 H   0  0  0  0  0  0  0  0  0  0  0  0
   35.8853   28.4944   33.9602 H   0  0  0  0  0  0  0  0  0  0  0  0
   35.8257   22.7503   32.8070 H   0  0  0  0  0  0  0  0  0  0  0  0
   34.8924   22.8134   31.2735 H   0  0  0  0  0  0  0  0  0  0  0  0
   36.5793   22.1961   31.2735 H   0  0  0  0  0  0  0  0  0  0  0  0
   34.6523   25.5343   31.5488 H   0  0  0  0  0  0  0  0  0  0  0  0
   35.7399   25.8835   30.1625 H   0  0  0  0  0  0  0  0  0  0  0  0
   34.7345   24.3949   30.1625 H   0  0  0  0  0  0  0  0  0  0  0  0
   38.5311   24.2758   31.1140 H   0  0  0  0  0  0  0  0  0  0  0  0
   37.5392   23.4105   29.8918 H   0  0  0  0  0  0  0  0  0  0  0  0
   37.5995   25.2057   29.8918 H   0  0  0  0  0  0  0  0  0  0  0  0
   40.6314   24.4041   34.5841 H   0  0  0  0  0  0  0  0  0  0  0  0
   40.4834   25.0629   36.2804 H   0  0  0  0  0  0  0  0  0  0  0  0
   39.5998   22.0421   37.0993 H   0  0  0  0  0  0  0  0  0  0  0  0
   43.4565   20.2960   37.4084 H   0  0  0  0  0  0  0  0  0  0  0  0
   42.8888   23.3245   33.1285 H   0  0  0  0  0  0  0  0  0  0  0  0
   44.0399   25.5826   32.3553 H   0  0  0  0  0  0  0  0  0  0  0  0
   43.6985   25.6784   36.6067 H   0  0  0  0  0  0  0  0  0  0  0  0
  2  3  1  0
  2  1  1  0
  4 10  1  0
  4  3  2  0
  5  4  1  0
  6  5  2  0
  7  5  1  0
  7  8  1  0
  8  2  1  0
  9  8  2  0
 11 12  1  0
 11  7  1  0
 13 11  1  0
 14 11  1  0
 15  1  1  0
 15 17  1  0
 16 21  2  0
 17 16  1  0
 18 17  2  0
 18 19  1  0
 19 20  2  0
 20 21  1  0
 22 26  1  0
 22 18  1  0
 23 22  1  0
 24 23  2  0
 24 25  1  0
 25 26  2  0
  1 27  1  0
  1 28  1  0
  3 29  1  0
 10 30  1  0
 10 31  1  0
 10 32  1  0
 12 33  1  0
 12 34  1  0
 12 35  1  0
 13 36  1  0
 13 37  1  0
 13 38  1  0
 14 39  1  0
 14 40  1  0
 14 41  1  0
 15 42  1  0
 15 43  1  0
 16 44  1  0
 20 45  1  0
 23 46  1  0
 24 47  1  0
 26 48  1  0
M  ISO  8  27   8  28   8  29  14  30   8  31   8  32   8  33   8  34   8
M  ISO  8  35   8  36   8  37   8  38   8  39   8  40   8  41   8  42   8
M  ISO  6  43   8  44  14  45  14  46  14  47  14  48  14
M  END
>  <minimizedAffinity>  (1) 
-4.84807301

>  <minimizedRMSD>  (1) 
2.89791822

$$$$
