
     RDKit          3D

 49 52  0  0  0  0  0  0  0  0999 V2000
   38.7910   24.5530   35.3850 C   0  0  0  0  0  0  0  0  0  0  0  0
   38.0580   24.9910   34.2050 N   0  0  0  0  0  0  0  0  0  0  0  0
   37.5430   24.1320   33.2910 C   0  0  0  0  0  0  0  0  0  0  0  0
   36.8380   24.6010   32.2050 C   0  0  0  0  0  0  0  0  0  0  0  0
   36.6350   25.9650   32.0100 C   0  0  0  0  0  0  0  0  0  0  0  0
   35.9970   26.4720   31.0420 O   0  0  0  0  0  0  0  0  0  0  0  0
   37.1640   26.7870   32.9390 N   0  0  0  0  0  0  0  0  0  0  0  0
   37.8360   26.2990   33.9770 C   0  0  0  0  0  0  0  0  0  0  0  0
   38.2900   27.1120   34.8100 O   0  0  0  0  0  0  0  0  0  0  0  0
   36.9920   28.2280   32.7940 C   0  0  0  0  0  0  0  0  0  0  0  0
   35.5950   28.7000   33.0550 C   0  0  0  0  0  0  0  0  0  0  0  0
   35.1060   29.3620   31.7890 C   0  0  0  0  0  0  0  0  0  0  0  0
   36.1610   29.1960   30.7390 C   0  0  0  0  0  0  0  0  0  0  0  0
   37.3960   28.6820   31.4120 C   0  0  0  0  0  0  0  0  0  0  0  0
   36.2610   23.6670   31.2040 C   0  0  0  0  0  0  0  0  0  0  0  0
   40.2770   24.4860   35.1450 C   0  0  0  0  0  0  0  0  0  0  0  0
   40.2220   22.4930   36.6300 C   0  0  0  0  0  0  0  0  0  0  0  0
   40.9310   23.4240   35.8900 C   0  0  0  0  0  0  0  0  0  0  0  0
   42.3240   23.3160   35.8410 C   0  0  0  0  0  0  0  0  0  0  0  0
   42.8820   22.3030   36.5240 N   0  0  0  0  0  0  0  0  0  0  0  0
   42.1960   21.3990   37.2410 C   0  0  0  0  0  0  0  0  0  0  0  0
   40.8290   21.5050   37.2900 N   0  0  0  0  0  0  0  0  0  0  0  0
   43.1000   24.2420   35.1180 N   0  0  0  0  0  0  0  0  0  0  0  0
   43.3830   24.0420   33.8210 C   0  0  0  0  0  0  0  0  0  0  0  0
   44.1340   25.0920   33.4260 C   0  0  0  0  0  0  0  0  0  0  0  0
   44.3040   25.9210   34.4730 N   0  0  0  0  0  0  0  0  0  0  0  0
   43.6560   25.3860   35.5270 C   0  0  0  0  0  0  0  0  0  0  0  0
   38.5969   25.2607   36.2045 H   0  0  0  0  0  0  0  0  0  0  0  0
   38.4457   23.5397   35.6378 H   0  0  0  0  0  0  0  0  0  0  0  0
   37.6899   23.0493   33.4183 H   0  0  0  0  0  0  0  0  0  0  0  0
   37.6451   28.6720   33.5597 H   0  0  0  0  0  0  0  0  0  0  0  0
   34.9493   27.8461   33.3079 H   0  0  0  0  0  0  0  0  0  0  0  0
   35.5712   29.4045   33.8995 H   0  0  0  0  0  0  0  0  0  0  0  0
   34.1714   28.8865   31.4568 H   0  0  0  0  0  0  0  0  0  0  0  0
   34.9117   30.4298   31.9682 H   0  0  0  0  0  0  0  0  0  0  0  0
   36.3701   30.1647   30.2615 H   0  0  0  0  0  0  0  0  0  0  0  0
   35.8245   28.4934   29.9624 H   0  0  0  0  0  0  0  0  0  0  0  0
   37.8115   27.8369   30.8436 H   0  0  0  0  0  0  0  0  0  0  0  0
   38.1668   29.4649   31.4667 H   0  0  0  0  0  0  0  0  0  0  0  0
   35.7514   22.8420   31.7233 H   0  0  0  0  0  0  0  0  0  0  0  0
   35.5381   24.2058   30.5738 H   0  0  0  0  0  0  0  0  0  0  0  0
   37.0663   23.2617   30.5738 H   0  0  0  0  0  0  0  0  0  0  0  0
   40.4503   24.3178   34.0718 H   0  0  0  0  0  0  0  0  0  0  0  0
   40.7064   25.4384   35.4893 H   0  0  0  0  0  0  0  0  0  0  0  0
   39.1256   22.5702   36.6751 H   0  0  0  0  0  0  0  0  0  0  0  0
   42.7176   20.5922   37.7767 H   0  0  0  0  0  0  0  0  0  0  0  0
   43.0654   23.1901   33.2019 H   0  0  0  0  0  0  0  0  0  0  0  0
   44.5401   25.2450   32.4152 H   0  0  0  0  0  0  0  0  0  0  0  0
   43.5959   25.8132   36.5389 H   0  0  0  0  0  0  0  0  0  0  0  0
  2  1  1  0
  3  2  1  0
  4  3  2  0
  5  4  1  0
  5  7  1  0
  6  5  2  0
  7  8  1  0
  8  2  1  0
  8  9  2  0
 10  7  1  0
 10 11  1  0
 12 11  1  0
 13 14  1  0
 13 12  1  0
 14 10  1  0
 15  4  1  0
 16  1  1  0
 16 18  1  0
 17 22  2  0
 18 17  1  0
 19 18  2  0
 19 20  1  0
 20 21  2  0
 21 22  1  0
 23 27  1  0
 23 19  1  0
 24 23  1  0
 25 24  2  0
 25 26  1  0
 26 27  2  0
  1 28  1  0
  1 29  1  0
  3 30  1  0
 10 31  1  0
 11 32  1  0
 11 33  1  0
 12 34  1  0
 12 35  1  0
 13 36  1  0
 13 37  1  0
 14 38  1  0
 14 39  1  0
 15 40  1  0
 15 41  1  0
 15 42  1  0
 16 43  1  0
 16 44  1  0
 17 45  1  0
 21 46  1  0
 24 47  1  0
 25 48  1  0
 27 49  1  0
M  ISO  8  28   8  29   8  30  14  31  13  32  13  33  13  34  13  35  13
M  ISO  8  36  13  37  13  38  13  39  13  40   8  41   8  42   8  43   8
M  ISO  6  44   8  45  14  46  14  47  14  48  14  49  14
M  END
>  <minimizedAffinity>  (1) 
-4.91997576

>  <minimizedRMSD>  (1) 
1.94364536

$$$$
