
     RDKit          3D

 45 47  0  0  0  0  0  0  0  0999 V2000
   39.9120   24.8860   34.3700 C   0  0  0  0  0  0  0  0  0  0  0  0
   39.1450   23.4780   36.2690 C   0  0  0  0  0  0  0  0  0  0  0  0
   40.1660   24.0050   35.4970 C   0  0  0  0  0  0  0  0  0  0  0  0
   41.4740   23.6470   35.8170 C   0  0  0  0  0  0  0  0  0  0  0  0
   41.6690   22.8230   36.8390 N   0  0  0  0  0  0  0  0  0  0  0  0
   40.6750   22.3060   37.5920 C   0  0  0  0  0  0  0  0  0  0  0  0
   39.3820   22.6520   37.2880 N   0  0  0  0  0  0  0  0  0  0  0  0
   42.5640   24.1730   35.0680 N   0  0  0  0  0  0  0  0  0  0  0  0
   43.0880   23.5070   34.0310 C   0  0  0  0  0  0  0  0  0  0  0  0
   44.0890   24.2700   33.5480 C   0  0  0  0  0  0  0  0  0  0  0  0
   44.1740   25.3900   34.2840 N   0  0  0  0  0  0  0  0  0  0  0  0
   43.2210   25.3280   35.2360 C   0  0  0  0  0  0  0  0  0  0  0  0
   38.7050   25.7640   34.5610 C   0  0  0  0  0  0  0  0  0  0  0  0
   37.7450   25.6420   33.4780 N   0  0  0  0  0  0  0  0  0  0  0  0
   37.4080   24.4480   32.9260 C   0  0  0  0  0  0  0  0  0  0  0  0
   36.4700   24.3700   31.9230 C   0  0  0  0  0  0  0  0  0  0  0  0
   35.8440   25.5180   31.4470 C   0  0  0  0  0  0  0  0  0  0  0  0
   34.9770   25.5300   30.5310 O   0  0  0  0  0  0  0  0  0  0  0  0
   36.1950   26.7020   32.0110 N   0  0  0  0  0  0  0  0  0  0  0  0
   37.1150   26.7090   32.9880 C   0  0  0  0  0  0  0  0  0  0  0  0
   37.4080   27.8280   33.4870 O   0  0  0  0  0  0  0  0  0  0  0  0
   36.0870   23.0660   31.3210 C   0  0  0  0  0  0  0  0  0  0  0  0
   35.5470   27.9150   31.5240 C   0  0  0  0  0  0  0  0  0  0  0  0
   36.5660   28.7120   30.7010 C   0  0  0  0  0  0  0  0  0  0  0  0
   35.0400   28.8150   32.5980 C   0  0  0  0  0  0  0  0  0  0  0  0
   39.7565   24.2690   33.4727 H   0  0  0  0  0  0  0  0  0  0  0  0
   40.7845   25.5486   34.2714 H   0  0  0  0  0  0  0  0  0  0  0  0
   38.1052   23.7494   36.0341 H   0  0  0  0  0  0  0  0  0  0  0  0
   40.8955   21.6252   38.4274 H   0  0  0  0  0  0  0  0  0  0  0  0
   42.7646   22.5279   33.6479 H   0  0  0  0  0  0  0  0  0  0  0  0
   44.7309   24.0167   32.6914 H   0  0  0  0  0  0  0  0  0  0  0  0
   43.0203   26.0857   36.0077 H   0  0  0  0  0  0  0  0  0  0  0  0
   38.2107   25.4825   35.5025 H   0  0  0  0  0  0  0  0  0  0  0  0
   39.0532   26.8073   34.5798 H   0  0  0  0  0  0  0  0  0  0  0  0
   37.8927   23.5288   33.2866 H   0  0  0  0  0  0  0  0  0  0  0  0
   35.8742   22.3413   32.1207 H   0  0  0  0  0  0  0  0  0  0  0  0
   35.1900   23.1989   30.6984 H   0  0  0  0  0  0  0  0  0  0  0  0
   36.9134   22.6927   30.6984 H   0  0  0  0  0  0  0  0  0  0  0  0
   34.6770   27.5841   30.9378 H   0  0  0  0  0  0  0  0  0  0  0  0
   37.2482   29.2455   31.3792 H   0  0  0  0  0  0  0  0  0  0  0  0
   37.1438   28.0237   30.0667 H   0  0  0  0  0  0  0  0  0  0  0  0
   36.0371   29.4386   30.0667 H   0  0  0  0  0  0  0  0  0  0  0  0
   35.2821   28.3852   33.5812 H   0  0  0  0  0  0  0  0  0  0  0  0
   35.5143   29.8029   32.5028 H   0  0  0  0  0  0  0  0  0  0  0  0
   33.9493   28.9213   32.5028 H   0  0  0  0  0  0  0  0  0  0  0  0
  1 13  1  0
  1  3  1  0
  2  7  2  0
  3  4  2  0
  3  2  1  0
  4  5  1  0
  5  6  2  0
  7  6  1  0
  8 12  1  0
  8  4  1  0
  9  8  1  0
 10  9  2  0
 10 11  1  0
 11 12  2  0
 14 13  1  0
 15 14  1  0
 16 15  2  0
 17 16  1  0
 17 19  1  0
 18 17  2  0
 19 20  1  0
 20 14  1  0
 20 21  2  0
 22 16  1  0
 23 19  1  0
 23 25  1  0
 24 23  1  0
  1 26  1  0
  1 27  1  0
  2 28  1  0
  6 29  1  0
  9 30  1  0
 10 31  1  0
 12 32  1  0
 13 33  1  0
 13 34  1  0
 15 35  1  0
 22 36  1  0
 22 37  1  0
 22 38  1  0
 23 39  1  0
 24 40  1  0
 24 41  1  0
 24 42  1  0
 25 43  1  0
 25 44  1  0
 25 45  1  0
M  ISO  8  26   8  27   8  28  14  29  14  30  14  31  14  32  14  33   8
M  ISO  8  34   8  35  14  36   8  37   8  38   8  39   8  40   8  41   8
M  ISO  4  42   8  43   8  44   8  45   8
M  END
>  <minimizedAffinity>  (1) 
-4.82946491

>  <minimizedRMSD>  (1) 
2.86963391

$$$$
