
     RDKit          3D

 27 29  0  0  0  0  0  0  0  0999 V2000
   37.7950   22.6740   34.7770 C   0  0  0  0  0  0  0  0  0  0  0  0
   38.1040   23.5510   33.7610 C   0  0  0  0  0  0  0  0  0  0  0  0
   37.6720   23.2940   32.4950 C   0  0  0  0  0  0  0  0  0  0  0  0
   36.9340   22.1680   32.2430 N   0  0  0  0  0  0  0  0  0  0  0  0
   36.6260   21.3010   33.2380 C   0  0  0  0  0  0  0  0  0  0  0  0
   37.0640   21.5640   34.5090 N   0  0  0  0  0  0  0  0  0  0  0  0
   37.8690   23.6910   38.3090 C   0  0  0  0  0  0  0  0  0  0  0  0
   39.1490   23.2840   38.7090 C   0  0  0  0  0  0  0  0  0  0  0  0
   39.9640   22.6630   37.7410 C   0  0  0  0  0  0  0  0  0  0  0  0
   39.4660   22.4910   36.4720 N   0  0  0  0  0  0  0  0  0  0  0  0
   38.2300   22.9010   36.1410 C   0  0  0  0  0  0  0  0  0  0  0  0
   37.4340   23.4980   37.0530 N   0  0  0  0  0  0  0  0  0  0  0  0
   38.8890   24.7550   34.0070 C   0  0  0  0  0  0  0  0  0  0  0  0
   38.1930   25.9000   34.3780 C   0  0  0  0  0  0  0  0  0  0  0  0
   38.9620   27.0440   34.6090 C   0  0  0  0  0  0  0  0  0  0  0  0
   40.3250   27.0820   34.4880 C   0  0  0  0  0  0  0  0  0  0  0  0
   40.9540   25.8910   34.1110 C   0  0  0  0  0  0  0  0  0  0  0  0
   40.2290   24.7730   33.8830 N   0  0  0  0  0  0  0  0  0  0  0  0
   37.9151   23.9887   31.6775 H   0  0  0  0  0  0  0  0  0  0  0  0
   36.0327   20.3989   33.0280 H   0  0  0  0  0  0  0  0  0  0  0  0
   37.2065   24.1789   39.0392 H   0  0  0  0  0  0  0  0  0  0  0  0
   39.5038   23.4429   39.7380 H   0  0  0  0  0  0  0  0  0  0  0  0
   40.9784   22.3229   37.9964 H   0  0  0  0  0  0  0  0  0  0  0  0
   37.0981   25.9052   34.4838 H   0  0  0  0  0  0  0  0  0  0  0  0
   38.4420   27.9670   34.9051 H   0  0  0  0  0  0  0  0  0  0  0  0
   40.8966   28.0025   34.6776 H   0  0  0  0  0  0  0  0  0  0  0  0
   42.0480   25.8638   33.9991 H   0  0  0  0  0  0  0  0  0  0  0  0
  1 11  1  0
  2 13  1  0
  2  1  1  0
  3  2  2  0
  4  3  1  0
  4  5  2  0
  5  6  1  0
  6  1  2  0
  7  8  2  0
  9  8  1  0
 10  9  2  0
 11 10  1  0
 11 12  2  0
 12  7  1  0
 13 14  2  0
 14 15  1  0
 16 15  2  0
 17 16  1  0
 18 13  1  0
 18 17  2  0
  3 19  1  0
  5 20  1  0
  7 21  1  0
  8 22  1  0
  9 23  1  0
 14 24  1  0
 15 25  1  0
 16 26  1  0
 17 27  1  0
M  ISO  8  19  14  20  14  21  14  22  14  23  14  24  14  25  14  26  14
M  ISO  1  27  14
M  END
>  <minimizedAffinity>  (1) 
-4.7049036

>  <minimizedRMSD>  (1) 
5.12974644

$$$$
