
     RDKit          3D

 29 31  0  0  0  0  0  0  0  0999 V2000
   39.3150   22.7750   34.8250 C   0  0  0  0  0  0  0  0  0  0  0  0
   39.5380   23.9890   34.2120 C   0  0  0  0  0  0  0  0  0  0  0  0
   40.7230   24.6280   34.4200 C   0  0  0  0  0  0  0  0  0  0  0  0
   41.6660   24.0750   35.2220 N   0  0  0  0  0  0  0  0  0  0  0  0
   41.4400   22.8760   35.8260 C   0  0  0  0  0  0  0  0  0  0  0  0
   40.2540   22.2200   35.6250 N   0  0  0  0  0  0  0  0  0  0  0  0
   38.5580   24.5830   33.3670 N   0  0  0  0  0  0  0  0  0  0  0  0
   38.7530   24.2450   32.0600 C   0  0  0  0  0  0  0  0  0  0  0  0
   37.9130   24.7150   31.0740 C   0  0  0  0  0  0  0  0  0  0  0  0
   36.8710   25.5360   31.4430 C   0  0  0  0  0  0  0  0  0  0  0  0
   35.9870   26.0380   30.4560 N   0  0  0  0  0  0  0  0  0  0  0  0
   36.7090   25.8480   32.7410 N   0  0  0  0  0  0  0  0  0  0  0  0
   37.5290   25.3880   33.6980 C   0  0  0  0  0  0  0  0  0  0  0  0
   37.4520   25.6280   34.9300 O   0  0  0  0  0  0  0  0  0  0  0  0
   36.5240   20.8820   33.3560 C   0  0  0  0  0  0  0  0  0  0  0  0
   35.6740   20.6880   34.4590 C   0  0  0  0  0  0  0  0  0  0  0  0
   36.0920   21.2210   35.6940 C   0  0  0  0  0  0  0  0  0  0  0  0
   37.2840   21.8870   35.7410 N   0  0  0  0  0  0  0  0  0  0  0  0
   38.0680   22.0450   34.6380 C   0  0  0  0  0  0  0  0  0  0  0  0
   37.6830   21.5460   33.4680 N   0  0  0  0  0  0  0  0  0  0  0  0
   40.9156   25.5965   33.9353 H   0  0  0  0  0  0  0  0  0  0  0  0
   42.2098   22.4338   36.4756 H   0  0  0  0  0  0  0  0  0  0  0  0
   39.5927   23.5880   31.7893 H   0  0  0  0  0  0  0  0  0  0  0  0
   38.0706   24.4416   30.0202 H   0  0  0  0  0  0  0  0  0  0  0  0
   35.2064   26.6524   30.7283 H   0  0  0  0  0  0  0  0  0  0  0  0
   36.1250   25.7885   29.4662 H   0  0  0  0  0  0  0  0  0  0  0  0
   36.2303   20.4784   32.3758 H   0  0  0  0  0  0  0  0  0  0  0  0
   34.7233   20.1433   34.3617 H   0  0  0  0  0  0  0  0  0  0  0  0
   35.4748   21.1041   36.5970 H   0  0  0  0  0  0  0  0  0  0  0  0
  1  6  2  0
  2  3  2  0
  2  1  1  0
  3  4  1  0
  4  5  2  0
  6  5  1  0
  7 13  1  0
  7  2  1  0
  8  7  1  0
  9 10  1  0
  9  8  2  0
 10 12  2  0
 11 10  1  0
 12 13  1  0
 13 14  2  0
 15 20  2  0
 15 16  1  0
 16 17  2  0
 17 18  1  0
 19  1  1  0
 19 18  2  0
 20 19  1  0
  3 21  1  0
  5 22  1  0
  8 23  1  0
  9 24  1  0
 11 25  1  0
 11 26  1  0
 15 27  1  0
 16 28  1  0
 17 29  1  0
M  ISO  7  21  14  22  14  23  14  24  14  27  14  28  14  29  14
M  END
>  <minimizedAffinity>  (1) 
-4.42813206

>  <minimizedRMSD>  (1) 
6.32132196

$$$$
