
     RDKit          3D

 34 36  0  0  0  0  0  0  0  0999 V2000
   40.6010   24.1470   35.5360 C   0  0  0  0  0  0  0  0  0  0  0  0
   39.3900   23.9850   36.2110 C   0  0  0  0  0  0  0  0  0  0  0  0
   39.3520   23.0290   37.2090 C   0  0  0  0  0  0  0  0  0  0  0  0
   40.4370   22.2860   37.5140 N   0  0  0  0  0  0  0  0  0  0  0  0
   41.6100   22.4640   36.8380 C   0  0  0  0  0  0  0  0  0  0  0  0
   41.6830   23.4040   35.8410 N   0  0  0  0  0  0  0  0  0  0  0  0
   41.1530   27.2890   33.7020 C   0  0  0  0  0  0  0  0  0  0  0  0
   40.9290   26.8880   32.3660 C   0  0  0  0  0  0  0  0  0  0  0  0
   40.5880   25.5290   32.1170 C   0  0  0  0  0  0  0  0  0  0  0  0
   40.5080   24.7250   33.2100 N   0  0  0  0  0  0  0  0  0  0  0  0
   40.7270   25.1340   34.4720 C   0  0  0  0  0  0  0  0  0  0  0  0
   41.0480   26.4100   34.7120 N   0  0  0  0  0  0  0  0  0  0  0  0
   38.1940   24.8030   35.8750 C   0  0  0  0  0  0  0  0  0  0  0  0
   38.2420   26.1340   36.5450 C   0  0  0  0  0  0  0  0  0  0  0  0
   38.4460   27.3150   35.6340 C   0  0  0  0  0  0  0  0  0  0  0  0
   37.3080   27.2240   34.6280 C   0  0  0  0  0  0  0  0  0  0  0  0
   37.7670   26.0820   33.7240 C   0  0  0  0  0  0  0  0  0  0  0  0
   37.8940   24.7810   34.4180 C   0  0  0  0  0  0  0  0  0  0  0  0
   38.4172   22.8703   37.7667 H   0  0  0  0  0  0  0  0  0  0  0  0
   42.4917   21.8571   37.0913 H   0  0  0  0  0  0  0  0  0  0  0  0
   41.4169   28.3348   33.9178 H   0  0  0  0  0  0  0  0  0  0  0  0
   41.0160   27.6081   31.5390 H   0  0  0  0  0  0  0  0  0  0  0  0
   40.4004   25.1518   31.1009 H   0  0  0  0  0  0  0  0  0  0  0  0
   37.2949   24.3383   36.3058 H   0  0  0  0  0  0  0  0  0  0  0  0
   37.2909   26.2786   37.0784 H   0  0  0  0  0  0  0  0  0  0  0  0
   39.1225   26.1071   37.2038 H   0  0  0  0  0  0  0  0  0  0  0  0
   38.3897   28.2565   36.2000 H   0  0  0  0  0  0  0  0  0  0  0  0
   39.4335   27.3027   35.1494 H   0  0  0  0  0  0  0  0  0  0  0  0
   36.3561   26.9825   35.1235 H   0  0  0  0  0  0  0  0  0  0  0  0
   37.1183   28.1643   34.0897 H   0  0  0  0  0  0  0  0  0  0  0  0
   38.7480   26.3468   33.3026 H   0  0  0  0  0  0  0  0  0  0  0  0
   36.9947   25.9571   32.9508 H   0  0  0  0  0  0  0  0  0  0  0  0
   36.9433   24.2436   34.2860 H   0  0  0  0  0  0  0  0  0  0  0  0
   38.7732   24.3049   33.9594 H   0  0  0  0  0  0  0  0  0  0  0  0
  1  6  2  0
  1  2  1  0
  2  3  2  0
  3  4  1  0
  5  4  2  0
  6  5  1  0
  7 12  2  0
  8  7  1  0
  9  8  2  0
  9 10  1  0
 10 11  2  0
 11 12  1  0
 11  1  1  0
 13  2  1  0
 13 14  1  0
 15 14  1  0
 16 15  1  0
 17 18  1  0
 17 16  1  0
 18 13  1  0
  3 19  1  0
  5 20  1  0
  7 21  1  0
  8 22  1  0
  9 23  1  0
 13 24  1  0
 14 25  1  0
 14 26  1  0
 15 27  1  0
 15 28  1  0
 16 29  1  0
 16 30  1  0
 17 31  1  0
 17 32  1  0
 18 33  1  0
 18 34  1  0
M  ISO  8  19  14  20  14  21  14  22  14  23  14  24  13  25  13  26  13
M  ISO  8  27  13  28  13  29  13  30  13  31  13  32  13  33  13  34  13
M  END
>  <minimizedAffinity>  (1) 
-4.61126661

>  <minimizedRMSD>  (1) 
5.87914801

$$$$
