
     RDKit          3D

 32 35  0  0  0  0  0  0  0  0999 V2000
   38.0140   25.0870   33.3670 C   0  0  0  0  0  0  0  0  0  0  0  0
   39.1280   25.6800   32.8170 C   0  0  0  0  0  0  0  0  0  0  0  0
   39.0730   26.1870   31.5500 C   0  0  0  0  0  0  0  0  0  0  0  0
   37.9040   26.0990   30.8410 N   0  0  0  0  0  0  0  0  0  0  0  0
   36.8030   25.5150   31.3780 C   0  0  0  0  0  0  0  0  0  0  0  0
   36.8780   25.0160   32.6420 N   0  0  0  0  0  0  0  0  0  0  0  0
   40.3700   25.7710   33.5810 C   0  0  0  0  0  0  0  0  0  0  0  0
   40.8130   26.9380   34.2080 C   0  0  0  0  0  0  0  0  0  0  0  0
   41.9880   26.7300   34.8390 N   0  0  0  0  0  0  0  0  0  0  0  0
   42.3450   25.4300   34.6440 C   0  0  0  0  0  0  0  0  0  0  0  0
   43.4150   24.6870   35.0460 C   0  0  0  0  0  0  0  0  0  0  0  0
   43.5200   23.3580   34.6930 C   0  0  0  0  0  0  0  0  0  0  0  0
   42.5200   22.7690   33.9160 C   0  0  0  0  0  0  0  0  0  0  0  0
   41.4140   23.5100   33.4930 C   0  0  0  0  0  0  0  0  0  0  0  0
   41.3690   24.8360   33.8790 C   0  0  0  0  0  0  0  0  0  0  0  0
   37.9180   24.7050   37.0140 C   0  0  0  0  0  0  0  0  0  0  0  0
   38.0340   23.3160   37.1700 C   0  0  0  0  0  0  0  0  0  0  0  0
   38.1440   22.5360   36.0090 C   0  0  0  0  0  0  0  0  0  0  0  0
   38.1300   23.1750   34.8010 N   0  0  0  0  0  0  0  0  0  0  0  0
   38.0140   24.5320   34.7080 C   0  0  0  0  0  0  0  0  0  0  0  0
   37.9090   25.2990   35.7970 N   0  0  0  0  0  0  0  0  0  0  0  0
   39.9590   26.6615   31.1030 H   0  0  0  0  0  0  0  0  0  0  0  0
   35.8679   25.4463   30.8027 H   0  0  0  0  0  0  0  0  0  0  0  0
   40.2762   27.8980   34.1899 H   0  0  0  0  0  0  0  0  0  0  0  0
   42.5208   27.4308   35.3737 H   0  0  0  0  0  0  0  0  0  0  0  0
   44.2021   25.1520   35.6578 H   0  0  0  0  0  0  0  0  0  0  0  0
   44.3864   22.7652   35.0215 H   0  0  0  0  0  0  0  0  0  0  0  0
   42.6043   21.7092   33.6338 H   0  0  0  0  0  0  0  0  0  0  0  0
   40.6176   23.0598   32.8823 H   0  0  0  0  0  0  0  0  0  0  0  0
   37.8313   25.3343   37.9121 H   0  0  0  0  0  0  0  0  0  0  0  0
   38.0386   22.8540   38.1683 H   0  0  0  0  0  0  0  0  0  0  0  0
   38.2388   21.4417   36.0693 H   0  0  0  0  0  0  0  0  0  0  0  0
  1 20  1  0
  2  1  1  0
  2  7  1  0
  3  2  2  0
  4  5  2  0
  4  3  1  0
  5  6  1  0
  6  1  2  0
  7 15  1  0
  7  8  2  0
  8  9  1  0
 10  9  1  0
 10 11  2  0
 12 11  1  0
 13 12  2  0
 14 15  2  0
 14 13  1  0
 15 10  1  0
 16 17  2  0
 18 17  1  0
 19 18  2  0
 20 19  1  0
 20 21  2  0
 21 16  1  0
  3 22  1  0
  5 23  1  0
  8 24  1  0
  9 25  1  0
 11 26  1  0
 12 27  1  0
 13 28  1  0
 14 29  1  0
 16 30  1  0
 17 31  1  0
 18 32  1  0
M  ISO  8  22  14  23  14  24  14  25   9  26  14  27  14  28  14  29  14
M  ISO  3  30  14  31  14  32  14
M  END
>  <minimizedAffinity>  (1) 
-4.43106651

>  <minimizedRMSD>  (1) 
6.66351509

$$$$
