
     RDKit          3D

 31 33  0  0  0  0  0  0  0  0999 V2000
   37.2340   21.8830   33.4130 C   0  0  0  0  0  0  0  0  0  0  0  0
   37.8140   22.2200   34.6170 C   0  0  0  0  0  0  0  0  0  0  0  0
   37.2400   21.7690   35.7790 C   0  0  0  0  0  0  0  0  0  0  0  0
   36.1250   21.0070   35.7380 N   0  0  0  0  0  0  0  0  0  0  0  0
   35.5500   20.6710   34.5530 C   0  0  0  0  0  0  0  0  0  0  0  0
   36.1170   21.1170   33.3950 N   0  0  0  0  0  0  0  0  0  0  0  0
   39.1950   22.0910   30.3190 C   0  0  0  0  0  0  0  0  0  0  0  0
   38.7570   23.2930   29.7650 C   0  0  0  0  0  0  0  0  0  0  0  0
   37.7870   24.0180   30.4720 C   0  0  0  0  0  0  0  0  0  0  0  0
   37.3240   23.5090   31.6620 N   0  0  0  0  0  0  0  0  0  0  0  0
   37.7930   22.3270   32.1490 C   0  0  0  0  0  0  0  0  0  0  0  0
   38.7240   21.6120   31.4900 N   0  0  0  0  0  0  0  0  0  0  0  0
   41.2000   24.7170   34.7910 C   0  0  0  0  0  0  0  0  0  0  0  0
   41.3990   23.3410   34.6650 C   0  0  0  0  0  0  0  0  0  0  0  0
   40.3000   22.4930   34.6070 C   0  0  0  0  0  0  0  0  0  0  0  0
   39.0180   23.0420   34.6730 C   0  0  0  0  0  0  0  0  0  0  0  0
   38.8190   24.4010   34.7960 C   0  0  0  0  0  0  0  0  0  0  0  0
   39.9210   25.2560   34.8560 C   0  0  0  0  0  0  0  0  0  0  0  0
   42.5560   25.8390   34.8700 S   0  0  0  0  0  0  0  0  0  0  0  0
   42.2150   27.0410   34.0600 O   0  0  0  0  0  0  0  0  0  0  0  0
   43.8020   25.2410   34.2690 O   0  0  0  0  0  0  0  0  0  0  0  0
   37.6898   22.0291   36.7485 H   0  0  0  0  0  0  0  0  0  0  0  0
   34.6425   20.0498   34.5281 H   0  0  0  0  0  0  0  0  0  0  0  0
   39.9562   21.5085   29.7794 H   0  0  0  0  0  0  0  0  0  0  0  0
   39.1577   23.6593   28.8083 H   0  0  0  0  0  0  0  0  0  0  0  0
   37.4049   24.9733   30.0828 H   0  0  0  0  0  0  0  0  0  0  0  0
   42.4184   22.9312   34.6120 H   0  0  0  0  0  0  0  0  0  0  0  0
   40.4378   21.4059   34.5106 H   0  0  0  0  0  0  0  0  0  0  0  0
   37.7986   24.8087   34.8465 H   0  0  0  0  0  0  0  0  0  0  0  0
   39.7786   26.3424   34.9535 H   0  0  0  0  0  0  0  0  0  0  0  0
   42.7852   26.1408   36.1865 H   0  0  0  0  0  0  0  0  0  0  0  0
  1  2  1  0
  2 16  1  0
  2  3  2  0
  4  3  1  0
  5  4  2  0
  6  1  2  0
  6  5  1  0
  7 12  2  0
  8  7  1  0
  8  9  2  0
  9 10  1  0
 10 11  2  0
 11  1  1  0
 12 11  1  0
 13 18  2  0
 13 19  1  0
 14 13  1  0
 15 14  2  0
 15 16  1  0
 16 17  2  0
 17 18  1  0
 20 19  2  0
 21 19  2  0
  3 22  1  0
  5 23  1  0
  7 24  1  0
  8 25  1  0
  9 26  1  0
 14 27  1  0
 15 28  1  0
 17 29  1  0
 18 30  1  0
 19 31  1  0
M  ISO  8  22  14  23  14  24  14  25  14  26  14  27  14  28  14  29  14
M  ISO  2  30  14  31  11
M  END
>  <minimizedAffinity>  (1) 
-3.77727413

>  <minimizedRMSD>  (1) 
7.21132708

$$$$
