
     RDKit          3D

 35 38  0  0  0  0  0  0  0  0999 V2000
   38.9770   23.1880   34.0200 C   0  0  0  0  0  0  0  0  0  0  0  0
   39.3560   22.5810   32.8450 C   0  0  0  0  0  0  0  0  0  0  0  0
   38.6020   23.1510   31.8190 C   0  0  0  0  0  0  0  0  0  0  0  0
   37.8030   24.0660   32.3810 N   0  0  0  0  0  0  0  0  0  0  0  0
   38.0230   24.0960   33.7130 N   0  0  0  0  0  0  0  0  0  0  0  0
   41.0990   21.9810   36.7480 C   0  0  0  0  0  0  0  0  0  0  0  0
   40.3920   22.4360   37.8890 C   0  0  0  0  0  0  0  0  0  0  0  0
   39.2160   23.1380   37.6800 C   0  0  0  0  0  0  0  0  0  0  0  0
   38.7950   23.3590   36.4130 N   0  0  0  0  0  0  0  0  0  0  0  0
   39.5060   22.9040   35.3450 C   0  0  0  0  0  0  0  0  0  0  0  0
   40.6410   22.2260   35.5250 N   0  0  0  0  0  0  0  0  0  0  0  0
   38.5290   23.5830   38.8990 C   0  0  0  0  0  0  0  0  0  0  0  0
   37.8650   24.7500   38.6630 F   0  0  0  0  0  0  0  0  0  0  0  0
   39.4920   23.8690   39.8360 F   0  0  0  0  0  0  0  0  0  0  0  0
   37.6030   22.6660   39.3460 F   0  0  0  0  0  0  0  0  0  0  0  0
   36.8550   24.8930   31.6770 C   0  0  0  0  0  0  0  0  0  0  0  0
   35.6170   24.3500   31.3810 C   0  0  0  0  0  0  0  0  0  0  0  0
   34.7190   25.1670   30.7040 C   0  0  0  0  0  0  0  0  0  0  0  0
   35.0780   26.4070   30.3740 N   0  0  0  0  0  0  0  0  0  0  0  0
   36.2710   26.9330   30.6580 C   0  0  0  0  0  0  0  0  0  0  0  0
   37.1720   26.1550   31.3230 N   0  0  0  0  0  0  0  0  0  0  0  0
   36.6020   28.2860   30.2740 C   0  0  0  0  0  0  0  0  0  0  0  0
   36.0570   29.4700   30.9860 C   0  0  0  0  0  0  0  0  0  0  0  0
   36.4660   30.6720   30.5000 C   0  0  0  0  0  0  0  0  0  0  0  0
   37.3210   30.8120   29.4320 C   0  0  0  0  0  0  0  0  0  0  0  0
   37.6340   28.9880   28.9960 S   0  0  0  0  0  0  0  0  0  0  0  0
   40.1140   21.7915   32.7348 H   0  0  0  0  0  0  0  0  0  0  0  0
   38.6542   22.8966   30.7501 H   0  0  0  0  0  0  0  0  0  0  0  0
   42.0362   21.4195   36.8762 H   0  0  0  0  0  0  0  0  0  0  0  0
   40.7641   22.2386   38.9052 H   0  0  0  0  0  0  0  0  0  0  0  0
   35.3559   23.3206   31.6679 H   0  0  0  0  0  0  0  0  0  0  0  0
   33.7184   24.7922   30.4424 H   0  0  0  0  0  0  0  0  0  0  0  0
   35.3732   29.3810   31.8430 H   0  0  0  0  0  0  0  0  0  0  0  0
   36.0920   31.5839   30.9885 H   0  0  0  0  0  0  0  0  0  0  0  0
   37.7143   31.7250   28.9611 H   0  0  0  0  0  0  0  0  0  0  0  0
  1 10  1  0
  2  1  1  0
  3  4  1  0
  3  2  2  0
  4  5  1  0
  5  1  2  0
  6  7  2  0
  8  7  1  0
  8 12  1  0
  9  8  2  0
 10 11  2  0
 10  9  1  0
 11  6  1  0
 12 15  1  0
 12 14  1  0
 13 12  1  0
 16  4  1  0
 17 16  2  0
 18 17  1  0
 19 20  1  0
 19 18  2  0
 20 21  2  0
 21 16  1  0
 22 20  1  0
 22 23  2  0
 24 23  1  0
 25 24  2  0
 26 25  1  0
 26 22  1  0
  2 27  1  0
  3 28  1  0
  6 29  1  0
  7 30  1  0
 17 31  1  0
 18 32  1  0
 23 33  1  0
 24 34  1  0
 25 35  1  0
M  ISO  8  27  14  28  14  29  14  30  14  31  14  32  14  33  14  34  14
M  ISO  1  35  14
M  END
>  <minimizedAffinity>  (1) 
-5.54595757

>  <minimizedRMSD>  (1) 
0.180954754

$$$$
