
     RDKit          3D

 24 26  0  0  0  0  0  0  0  0999 V2000
   38.8920   23.8140   34.4720 C   0  0  0  0  0  0  0  0  0  0  0  0
   38.0720   23.0520   33.6700 C   0  0  0  0  0  0  0  0  0  0  0  0
   38.1070   23.2140   32.3150 C   0  0  0  0  0  0  0  0  0  0  0  0
   38.9520   24.1260   31.7720 N   0  0  0  0  0  0  0  0  0  0  0  0
   39.7590   24.8780   32.5520 C   0  0  0  0  0  0  0  0  0  0  0  0
   39.7160   24.7090   33.9020 N   0  0  0  0  0  0  0  0  0  0  0  0
   39.7280   22.7640   37.8900 C   0  0  0  0  0  0  0  0  0  0  0  0
   38.8090   23.4740   38.6590 C   0  0  0  0  0  0  0  0  0  0  0  0
   37.9030   24.3140   37.9770 C   0  0  0  0  0  0  0  0  0  0  0  0
   37.9790   24.3850   36.6100 N   0  0  0  0  0  0  0  0  0  0  0  0
   38.8870   23.6770   35.9140 C   0  0  0  0  0  0  0  0  0  0  0  0
   39.7620   22.8680   36.5470 N   0  0  0  0  0  0  0  0  0  0  0  0
   37.1810   22.0920   34.2250 N   0  0  0  0  0  0  0  0  0  0  0  0
   36.8750   21.5910   35.4470 C   0  0  0  0  0  0  0  0  0  0  0  0
   35.9050   20.6670   35.3120 N   0  0  0  0  0  0  0  0  0  0  0  0
   35.6040   20.5910   34.0060 C   0  0  0  0  0  0  0  0  0  0  0  0
   36.3930   21.4690   33.3440 N   0  0  0  0  0  0  0  0  0  0  0  0
   37.4546   22.6093   31.6679 H   0  0  0  0  0  0  0  0  0  0  0  0
   40.4404   25.6156   32.1030 H   0  0  0  0  0  0  0  0  0  0  0  0
   40.4461   22.0998   38.3931 H   0  0  0  0  0  0  0  0  0  0  0  0
   38.7902   23.3835   39.7551 H   0  0  0  0  0  0  0  0  0  0  0  0
   37.1528   24.8986   38.5297 H   0  0  0  0  0  0  0  0  0  0  0  0
   37.3436   21.8910   36.3959 H   0  0  0  0  0  0  0  0  0  0  0  0
   34.8490   19.9313   33.5535 H   0  0  0  0  0  0  0  0  0  0  0  0
  1 11  1  0
  2 13  1  0
  2  1  1  0
  3  2  2  0
  4  3  1  0
  4  5  2  0
  5  6  1  0
  6  1  2  0
  7  8  2  0
  9  8  1  0
 10  9  2  0
 11 12  2  0
 11 10  1  0
 12  7  1  0
 13 14  1  0
 15 14  2  0
 16 15  1  0
 17 16  2  0
 17 13  1  0
  3 18  1  0
  5 19  1  0
  7 20  1  0
  8 21  1  0
  9 22  1  0
 14 23  1  0
 16 24  1  0
M  ISO  7  18  14  19  14  20  14  21  14  22  14  23  14  24  14
M  END
>  <minimizedAffinity>  (1) 
-4.11462736

>  <minimizedRMSD>  (1) 
2.92160988

$$$$
