
     RDKit          3D

 21 22  0  0  0  0  0  0  0  0999 V2000
   37.8490   22.6680   34.5990 C   0  0  0  0  0  0  0  0  0  0  0  0
   36.8610   21.7660   34.3040 C   0  0  0  0  0  0  0  0  0  0  0  0
   36.5140   21.5880   32.9870 C   0  0  0  0  0  0  0  0  0  0  0  0
   37.1400   22.2930   32.0060 N   0  0  0  0  0  0  0  0  0  0  0  0
   38.1270   23.1950   32.3060 C   0  0  0  0  0  0  0  0  0  0  0  0
   38.4650   23.3650   33.6160 N   0  0  0  0  0  0  0  0  0  0  0  0
   39.7410   22.6630   37.7600 C   0  0  0  0  0  0  0  0  0  0  0  0
   38.9550   23.4740   38.5760 C   0  0  0  0  0  0  0  0  0  0  0  0
   37.7720   24.0160   38.0240 C   0  0  0  0  0  0  0  0  0  0  0  0
   37.5020   23.6940   36.7280 N   0  0  0  0  0  0  0  0  0  0  0  0
   38.2750   22.9110   35.9630 C   0  0  0  0  0  0  0  0  0  0  0  0
   39.4070   22.3860   36.4760 N   0  0  0  0  0  0  0  0  0  0  0  0
   36.1310   20.9620   35.3060 C   0  0  0  0  0  0  0  0  0  0  0  0
   35.4510   19.9000   34.7480 F   0  0  0  0  0  0  0  0  0  0  0  0
   35.1950   21.7300   35.9900 F   0  0  0  0  0  0  0  0  0  0  0  0
   36.9670   20.4610   36.2790 F   0  0  0  0  0  0  0  0  0  0  0  0
   35.7237   20.8698   32.7233 H   0  0  0  0  0  0  0  0  0  0  0  0
   38.6322   23.7656   31.5127 H   0  0  0  0  0  0  0  0  0  0  0  0
   40.6653   22.2323   38.1725 H   0  0  0  0  0  0  0  0  0  0  0  0
   39.2456   23.6855   39.6156 H   0  0  0  0  0  0  0  0  0  0  0  0
   37.1041   24.6641   38.6103 H   0  0  0  0  0  0  0  0  0  0  0  0
  1 11  1  0
  2  1  2  0
  2 13  1  0
  3  2  1  0
  4  5  1  0
  4  3  2  0
  5  6  2  0
  6  1  1  0
  7  8  2  0
  9  8  1  0
 10  9  2  0
 11 12  2  0
 11 10  1  0
 12  7  1  0
 13 15  1  0
 13 16  1  0
 14 13  1  0
  3 17  1  0
  5 18  1  0
  7 19  1  0
  8 20  1  0
  9 21  1  0
M  ISO  5  17  14  18  14  19  14  20  14  21  14
M  END
>  <minimizedAffinity>  (1) 
-3.32479596

>  <minimizedRMSD>  (1) 
1.22755456

$$$$
