
     RDKit          3D

 35 38  0  0  1  0  0  0  0  0999 V2000
   37.4330   23.4740   33.0110 C   0  0  0  0  0  0  0  0  0  0  0  0
   36.5720   22.5990   32.4030 C   0  0  0  0  0  0  0  0  0  0  0  0
   35.7180   23.0820   31.4380 C   0  0  0  0  0  0  0  0  0  0  0  0
   35.7400   24.3810   31.1120 N   0  0  0  0  0  0  0  0  0  0  0  0
   36.5880   25.2400   31.7120 C   0  0  0  0  0  0  0  0  0  0  0  0
   37.4470   24.7870   32.6730 N   0  0  0  0  0  0  0  0  0  0  0  0
   40.3430   22.2040   34.8640 C   0  0  0  0  0  0  0  0  0  0  0  0
   39.9350   22.2890   36.1790 C   0  0  0  0  0  0  0  0  0  0  0  0
   38.6440   22.7870   36.4260 C   0  0  0  0  0  0  0  0  0  0  0  0
   37.8950   23.1470   35.3490 N   0  0  0  0  0  0  0  0  0  0  0  0
   38.3440   23.0440   34.0720 C   0  0  0  0  0  0  0  0  0  0  0  0
   39.5530   22.5780   33.8340 N   0  0  0  0  0  0  0  0  0  0  0  0
   36.6990   21.1600   32.8040 C   0  0  1  0  0  0  0  0  0  0  0  0
   35.6030   20.6500   33.7350 C   0  0  0  0  0  0  0  0  0  0  0  0
   35.7420   20.1510   32.3090 C   0  0  2  0  0  0  0  0  0  0  0  0
   36.1120   18.7180   32.2250 C   0  0  0  0  0  0  0  0  0  0  0  0
   37.4050   18.3920   31.8020 C   0  0  0  0  0  0  0  0  0  0  0  0
   37.7400   17.0490   31.7280 C   0  0  0  0  0  0  0  0  0  0  0  0
   36.8210   16.0940   32.0610 C   0  0  0  0  0  0  0  0  0  0  0  0
   35.5530   16.4380   32.4740 C   0  0  0  0  0  0  0  0  0  0  0  0
   35.1800   17.7510   32.5630 C   0  0  0  0  0  0  0  0  0  0  0  0
   35.0167   22.4007   30.9339 H   0  0  0  0  0  0  0  0  0  0  0  0
   36.5884   26.3029   31.4287 H   0  0  0  0  0  0  0  0  0  0  0  0
   41.3494   21.8172   34.6459 H   0  0  0  0  0  0  0  0  0  0  0  0
   40.5947   21.9789   37.0028 H   0  0  0  0  0  0  0  0  0  0  0  0
   38.2545   22.8819   37.4503 H   0  0  0  0  0  0  0  0  0  0  0  0
   37.7981   21.2039   32.7984 H   0  0  0  0  0  0  0  0  0  0  0  0
   35.8539   19.9925   34.5804 H   0  0  0  0  0  0  0  0  0  0  0  0
   34.8034   21.1063   34.3370 H   0  0  0  0  0  0  0  0  0  0  0  0
   35.1353   20.1166   31.3921 H   0  0  0  0  0  0  0  0  0  0  0  0
   38.1311   19.1747   31.5372 H   0  0  0  0  0  0  0  0  0  0  0  0
   38.7472   16.7515   31.4007 H   0  0  0  0  0  0  0  0  0  0  0  0
   37.0990   15.0316   31.9981 H   0  0  0  0  0  0  0  0  0  0  0  0
   34.8327   15.6487   32.7350 H   0  0  0  0  0  0  0  0  0  0  0  0
   34.1688   18.0308   32.8935 H   0  0  0  0  0  0  0  0  0  0  0  0
  1 11  1  0
  2 13  1  0
  2  1  1  0
  3  2  2  0
  4  3  1  0
  4  5  2  0
  5  6  1  0
  6  1  2  0
  7  8  2  0
  8  9  1  0
 10  9  2  0
 11 10  1  0
 12 11  2  0
 12  7  1  0
 13 14  1  0
 15 13  1  0
 15 14  1  0
 16 15  1  0
 16 21  1  0
 17 16  2  0
 18 17  1  0
 18 19  2  0
 19 20  1  0
 20 21  2  0
  3 22  1  0
  5 23  1  0
  7 24  1  0
  8 25  1  0
  9 26  1  0
 13 27  1  1
 14 28  1  0
 14 29  1  0
 15 30  1  6
 17 31  1  0
 18 32  1  0
 19 33  1  0
 20 34  1  0
 21 35  1  0
M  ISO  8  22  14  23  14  24  14  25  14  26  14  27  13  28  13  29  13
M  ISO  6  30  13  31  14  32  14  33  14  34  14  35  14
M  END
>  <minimizedAffinity>  (1) 
-5.04980516

>  <minimizedRMSD>  (1) 
0.827784538

$$$$
