
     RDKit          3D

 38 41  0  0  1  0  0  0  0  0999 V2000
   37.2770   23.6340   32.7940 C   0  0  0  0  0  0  0  0  0  0  0  0
   36.3790   22.8370   32.1420 C   0  0  0  0  0  0  0  0  0  0  0  0
   35.5060   23.4170   31.2490 C   0  0  0  0  0  0  0  0  0  0  0  0
   35.5480   24.7440   31.0310 N   0  0  0  0  0  0  0  0  0  0  0  0
   36.4340   25.5230   31.6770 C   0  0  0  0  0  0  0  0  0  0  0  0
   37.3120   24.9720   32.5680 N   0  0  0  0  0  0  0  0  0  0  0  0
   40.2180   22.1120   34.3810 C   0  0  0  0  0  0  0  0  0  0  0  0
   39.8740   22.0860   35.7180 C   0  0  0  0  0  0  0  0  0  0  0  0
   38.6150   22.6030   36.0660 C   0  0  0  0  0  0  0  0  0  0  0  0
   37.8350   23.0870   35.0620 N   0  0  0  0  0  0  0  0  0  0  0  0
   38.2180   23.0900   33.7670 C   0  0  0  0  0  0  0  0  0  0  0  0
   39.4000   22.6070   33.4250 N   0  0  0  0  0  0  0  0  0  0  0  0
   36.4700   21.3690   32.4090 C   0  0  1  0  0  0  0  0  0  0  0  0
   35.4850   20.8320   33.4500 C   0  0  0  0  0  0  0  0  0  0  0  0
   35.4210   20.4280   31.9860 C   0  0  2  0  0  0  0  0  0  0  0  0
   35.7350   19.0720   31.5980 N   0  0  0  0  0  0  0  0  0  0  0  0
   35.4090   17.9950   32.3730 C   0  0  0  0  0  0  0  0  0  0  0  0
   35.6670   16.6930   32.0820 C   0  0  0  0  0  0  0  0  0  0  0  0
   35.2650   15.5980   33.0040 C   0  0  0  0  0  0  0  0  0  0  0  0
   36.3140   16.4130   30.9070 C   0  0  0  0  0  0  0  0  0  0  0  0
   36.5680   15.2370   30.6050 O   0  0  0  0  0  0  0  0  0  0  0  0
   36.6470   17.4540   30.1230 N   0  0  0  0  0  0  0  0  0  0  0  0
   36.3650   18.7260   30.4640 C   0  0  0  0  0  0  0  0  0  0  0  0
   36.7150   19.6150   29.6720 O   0  0  0  0  0  0  0  0  0  0  0  0
   34.7737   22.7950   30.7134 H   0  0  0  0  0  0  0  0  0  0  0  0
   36.4521   26.6064   31.4878 H   0  0  0  0  0  0  0  0  0  0  0  0
   41.1984   21.7134   34.0812 H   0  0  0  0  0  0  0  0  0  0  0  0
   40.5565   21.6780   36.4780 H   0  0  0  0  0  0  0  0  0  0  0  0
   38.2727   22.6160   37.1113 H   0  0  0  0  0  0  0  0  0  0  0  0
   37.5576   21.3754   32.2447 H   0  0  0  0  0  0  0  0  0  0  0  0
   35.8183   20.1119   34.2118 H   0  0  0  0  0  0  0  0  0  0  0  0
   34.7895   21.2700   34.1811 H   0  0  0  0  0  0  0  0  0  0  0  0
   34.6473   20.4543   31.2046 H   0  0  0  0  0  0  0  0  0  0  0  0
   34.8895   18.2010   33.3204 H   0  0  0  0  0  0  0  0  0  0  0  0
   35.3875   15.9317   34.0450 H   0  0  0  0  0  0  0  0  0  0  0  0
   34.2119   15.3356   32.8246 H   0  0  0  0  0  0  0  0  0  0  0  0
   35.8982   14.7166   32.8246 H   0  0  0  0  0  0  0  0  0  0  0  0
   37.1333   17.2725   29.2333 H   0  0  0  0  0  0  0  0  0  0  0  0
  1 11  1  0
  2 13  1  0
  2  1  1  0
  3  2  2  0
  4  3  1  0
  4  5  2  0
  5  6  1  0
  6  1  2  0
  7  8  2  0
  8  9  1  0
 10  9  2  0
 11 10  1  0
 12 11  2  0
 12  7  1  0
 13 14  1  0
 15 13  1  0
 15 14  1  0
 16 15  1  0
 16 17  1  0
 18 17  2  0
 18 19  1  0
 20 18  1  0
 21 20  2  0
 22 23  1  0
 22 20  1  0
 23 16  1  0
 24 23  2  0
  3 25  1  0
  5 26  1  0
  7 27  1  0
  8 28  1  0
  9 29  1  0
 13 30  1  1
 14 31  1  0
 14 32  1  0
 15 33  1  6
 17 34  1  0
 19 35  1  0
 19 36  1  0
 19 37  1  0
 22 38  1  0
M  ISO  8  25  14  26  14  27  14  28  14  29  14  30  13  31  13  32  13
M  ISO  6  33  13  34  14  35   8  36   8  37   8  38   9
M  END
>  <minimizedAffinity>  (1) 
-5.10035467

>  <minimizedRMSD>  (1) 
1.57143593

$$$$
