
     RDKit          3D

 38 41  0  0  1  0  0  0  0  0999 V2000
   37.3540   23.8320   32.7830 C   0  0  0  0  0  0  0  0  0  0  0  0
   36.4240   23.0520   32.1480 C   0  0  0  0  0  0  0  0  0  0  0  0
   35.5360   23.6580   31.2930 C   0  0  0  0  0  0  0  0  0  0  0  0
   35.5870   24.9840   31.0920 N   0  0  0  0  0  0  0  0  0  0  0  0
   36.5090   25.7460   31.7230 C   0  0  0  0  0  0  0  0  0  0  0  0
   37.4040   25.1680   32.5800 N   0  0  0  0  0  0  0  0  0  0  0  0
   40.3290   22.2930   34.3100 C   0  0  0  0  0  0  0  0  0  0  0  0
   39.9850   22.2370   35.6460 C   0  0  0  0  0  0  0  0  0  0  0  0
   38.7240   22.7270   36.0270 C   0  0  0  0  0  0  0  0  0  0  0  0
   37.9330   23.2250   35.0390 N   0  0  0  0  0  0  0  0  0  0  0  0
   38.3110   23.2620   33.7380 C   0  0  0  0  0  0  0  0  0  0  0  0
   39.4930   22.8010   33.3810 N   0  0  0  0  0  0  0  0  0  0  0  0
   36.5190   21.5760   32.3900 C   0  0  1  0  0  0  0  0  0  0  0  0
   35.5230   21.0180   33.4050 C   0  0  0  0  0  0  0  0  0  0  0  0
   35.4620   20.6570   31.9310 C   0  0  2  0  0  0  0  0  0  0  0  0
   36.3550   16.5650   31.1820 C   0  0  0  0  0  0  0  0  0  0  0  0
   35.5820   16.8970   32.3000 C   0  0  0  0  0  0  0  0  0  0  0  0
   35.2920   18.2450   32.5420 C   0  0  0  0  0  0  0  0  0  0  0  0
   35.7740   19.2240   31.6700 C   0  0  0  0  0  0  0  0  0  0  0  0
   36.5310   18.8440   30.5820 C   0  0  0  0  0  0  0  0  0  0  0  0
   36.8340   17.5250   30.3160 C   0  0  0  0  0  0  0  0  0  0  0  0
   36.6990   14.8720   30.9100 S   0  0  0  0  0  0  0  0  0  0  0  0
   35.7590   13.9950   31.6830 O   0  0  0  0  0  0  0  0  0  0  0  0
   36.6000   14.6270   29.4290 O   0  0  0  0  0  0  0  0  0  0  0  0
   34.7796   23.0538   30.7707 H   0  0  0  0  0  0  0  0  0  0  0  0
   36.5389   26.8314   31.5467 H   0  0  0  0  0  0  0  0  0  0  0  0
   41.3118   21.9129   33.9944 H   0  0  0  0  0  0  0  0  0  0  0  0
   40.6785   21.8205   36.3914 H   0  0  0  0  0  0  0  0  0  0  0  0
   38.3922   22.7086   37.0756 H   0  0  0  0  0  0  0  0  0  0  0  0
   37.6093   21.5790   32.2442 H   0  0  0  0  0  0  0  0  0  0  0  0
   35.8445   20.2723   34.1470 H   0  0  0  0  0  0  0  0  0  0  0  0
   34.8272   21.4416   34.1442 H   0  0  0  0  0  0  0  0  0  0  0  0
   34.7400   20.7323   31.1045 H   0  0  0  0  0  0  0  0  0  0  0  0
   35.2091   16.1135   32.9761 H   0  0  0  0  0  0  0  0  0  0  0  0
   34.6873   18.5320   33.4149 H   0  0  0  0  0  0  0  0  0  0  0  0
   36.9072   19.6216   29.9009 H   0  0  0  0  0  0  0  0  0  0  0  0
   37.4390   17.2476   29.4402 H   0  0  0  0  0  0  0  0  0  0  0  0
   37.9570   14.5599   31.3537 H   0  0  0  0  0  0  0  0  0  0  0  0
  1 11  1  0
  2 13  1  0
  2  1  1  0
  3  2  2  0
  4  3  1  0
  4  5  2  0
  5  6  1  0
  6  1  2  0
  7  8  2  0
  8  9  1  0
 10  9  2  0
 11 10  1  0
 12 11  2  0
 12  7  1  0
 13 14  1  0
 15 13  1  0
 15 14  1  0
 16 17  2  0
 17 18  1  0
 19 15  1  0
 19 18  2  0
 20 19  1  0
 21 20  2  0
 21 16  1  0
 22 16  1  0
 22 23  2  0
 24 22  2  0
  3 25  1  0
  5 26  1  0
  7 27  1  0
  8 28  1  0
  9 29  1  0
 13 30  1  1
 14 31  1  0
 14 32  1  0
 15 33  1  6
 17 34  1  0
 18 35  1  0
 20 36  1  0
 21 37  1  0
 22 38  1  0
M  ISO  8  25  14  26  14  27  14  28  14  29  14  30  13  31  13  32  13
M  ISO  6  33  13  34  14  35  14  36  14  37  14  38  11
M  END
>  <minimizedAffinity>  (1) 
-4.95547438

>  <minimizedRMSD>  (1) 
1.73150158

$$$$
