
     RDKit          3D

 41 44  0  0  1  0  0  0  0  0999 V2000
   37.3460   23.8270   32.8060 C   0  0  0  0  0  0  0  0  0  0  0  0
   36.3960   23.0510   32.1950 C   0  0  0  0  0  0  0  0  0  0  0  0
   35.4920   23.6530   31.3560 C   0  0  0  0  0  0  0  0  0  0  0  0
   35.5370   24.9750   31.1390 N   0  0  0  0  0  0  0  0  0  0  0  0
   36.4870   25.7380   31.7520 C   0  0  0  0  0  0  0  0  0  0  0  0
   37.3980   25.1620   32.5920 N   0  0  0  0  0  0  0  0  0  0  0  0
   40.3260   22.2650   34.2910 C   0  0  0  0  0  0  0  0  0  0  0  0
   40.0130   22.2260   35.6340 C   0  0  0  0  0  0  0  0  0  0  0  0
   38.7670   22.7400   36.0290 C   0  0  0  0  0  0  0  0  0  0  0  0
   37.9630   23.2390   35.0560 N   0  0  0  0  0  0  0  0  0  0  0  0
   38.3120   23.2560   33.7410 C   0  0  0  0  0  0  0  0  0  0  0  0
   39.4820   22.7740   33.3680 N   0  0  0  0  0  0  0  0  0  0  0  0
   36.4830   21.5710   32.4400 C   0  0  1  0  0  0  0  0  0  0  0  0
   35.5550   21.0260   33.5160 C   0  0  0  0  0  0  0  0  0  0  0  0
   35.3690   20.6840   32.0550 C   0  0  2  0  0  0  0  0  0  0  0  0
   35.5240   19.3110   31.5300 C   0  0  0  0  0  0  0  0  0  0  0  0
   36.9130   19.1980   30.9060 C   0  0  0  0  0  0  0  0  0  0  0  0
   36.8410   18.0670   29.9260 C   0  0  0  0  0  0  0  0  0  0  0  0
   36.6010   16.8040   30.7250 C   0  0  0  0  0  0  0  0  0  0  0  0
   36.4200   17.0740   32.1890 C   0  0  0  0  0  0  0  0  0  0  0  0
   35.4000   18.1710   32.4810 C   0  0  0  0  0  0  0  0  0  0  0  0
   34.7232   23.0449   30.8569 H   0  0  0  0  0  0  0  0  0  0  0  0
   36.5200   26.8222   31.5693 H   0  0  0  0  0  0  0  0  0  0  0  0
   41.2970   21.8676   33.9605 H   0  0  0  0  0  0  0  0  0  0  0  0
   40.7149   21.8069   36.3700 H   0  0  0  0  0  0  0  0  0  0  0  0
   38.4555   22.7382   37.0840 H   0  0  0  0  0  0  0  0  0  0  0  0
   37.5617   21.5517   32.2255 H   0  0  0  0  0  0  0  0  0  0  0  0
   35.9129   20.2633   34.2233 H   0  0  0  0  0  0  0  0  0  0  0  0
   34.9290   21.4588   34.3102 H   0  0  0  0  0  0  0  0  0  0  0  0
   34.5486   20.7686   31.3272 H   0  0  0  0  0  0  0  0  0  0  0  0
   34.6734   19.2053   30.8406 H   0  0  0  0  0  0  0  0  0  0  0  0
   37.1764   20.1332   30.3902 H   0  0  0  0  0  0  0  0  0  0  0  0
   37.6823   19.0167   31.6711 H   0  0  0  0  0  0  0  0  0  0  0  0
   37.7868   17.9882   29.3698 H   0  0  0  0  0  0  0  0  0  0  0  0
   36.0335   18.2299   29.1971 H   0  0  0  0  0  0  0  0  0  0  0  0
   35.6945   16.3121   30.3427 H   0  0  0  0  0  0  0  0  0  0  0  0
   37.4883   16.1639   30.6113 H   0  0  0  0  0  0  0  0  0  0  0  0
   36.0838   16.1466   32.6757 H   0  0  0  0  0  0  0  0  0  0  0  0
   37.3892   17.4196   32.5779 H   0  0  0  0  0  0  0  0  0  0  0  0
   35.5597   18.5422   33.5041 H   0  0  0  0  0  0  0  0  0  0  0  0
   34.3940   17.7405   32.3684 H   0  0  0  0  0  0  0  0  0  0  0  0
  1 11  1  0
  2 13  1  0
  2  1  1  0
  3  2  2  0
  4  3  1  0
  4  5  2  0
  5  6  1  0
  6  1  2  0
  7  8  2  0
  8  9  1  0
 10  9  2  0
 11 10  1  0
 12 11  2  0
 12  7  1  0
 13 14  1  0
 15 13  1  0
 15 14  1  0
 16 15  1  0
 16 21  1  0
 17 16  1  0
 18 19  1  0
 18 17  1  0
 19 20  1  0
 20 21  1  0
  3 22  1  0
  5 23  1  0
  7 24  1  0
  8 25  1  0
  9 26  1  0
 13 27  1  1
 14 28  1  0
 14 29  1  0
 15 30  1  6
 16 31  1  0
 17 32  1  0
 17 33  1  0
 18 34  1  0
 18 35  1  0
 19 36  1  0
 19 37  1  0
 20 38  1  0
 20 39  1  0
 21 40  1  0
 21 41  1  0
M  ISO  8  22  14  23  14  24  14  25  14  26  14  27  13  28  13  29  13
M  ISO  8  30  13  31  13  32  13  33  13  34  13  35  13  36  13  37  13
M  ISO  4  38  13  39  13  40  13  41  13
M  END
>  <minimizedAffinity>  (1) 
-4.90468502

>  <minimizedRMSD>  (1) 
1.26987612

$$$$
