
     RDKit          3D

 36 40  0  0  1  0  0  0  0  0999 V2000
   37.3740   23.6380   32.9200 C   0  0  0  0  0  0  0  0  0  0  0  0
   36.4450   22.8480   32.3000 C   0  0  0  0  0  0  0  0  0  0  0  0
   35.5700   23.4230   31.4110 C   0  0  0  0  0  0  0  0  0  0  0  0
   35.6330   24.7420   31.1600 N   0  0  0  0  0  0  0  0  0  0  0  0
   36.5540   25.5200   31.7740 C   0  0  0  0  0  0  0  0  0  0  0  0
   37.4340   24.9710   32.6640 N   0  0  0  0  0  0  0  0  0  0  0  0
   40.3050   22.1140   34.5340 C   0  0  0  0  0  0  0  0  0  0  0  0
   39.9600   22.1450   35.8700 C   0  0  0  0  0  0  0  0  0  0  0  0
   38.7150   22.6910   36.2180 C   0  0  0  0  0  0  0  0  0  0  0  0
   37.9400   23.1500   35.2010 N   0  0  0  0  0  0  0  0  0  0  0  0
   38.3140   23.1020   33.9030 C   0  0  0  0  0  0  0  0  0  0  0  0
   39.4830   22.5900   33.5730 N   0  0  0  0  0  0  0  0  0  0  0  0
   36.5270   21.3790   32.5940 C   0  0  1  0  0  0  0  0  0  0  0  0
   35.5670   20.8650   33.6580 C   0  0  0  0  0  0  0  0  0  0  0  0
   35.4340   20.4640   32.2090 C   0  0  2  0  0  0  0  0  0  0  0  0
   35.8100   19.1230   31.8150 N   0  0  0  0  0  0  0  0  0  0  0  0
   35.6960   17.9960   32.5750 C   0  0  0  0  0  0  0  0  0  0  0  0
   36.1590   16.9510   31.8350 N   0  0  0  0  0  0  0  0  0  0  0  0
   36.5660   17.3840   30.6230 C   0  0  0  0  0  0  0  0  0  0  0  0
   37.1070   16.7120   29.5320 C   0  0  0  0  0  0  0  0  0  0  0  0
   37.4070   17.4640   28.4580 N   0  0  0  0  0  0  0  0  0  0  0  0
   37.1940   18.7790   28.4510 C   0  0  0  0  0  0  0  0  0  0  0  0
   36.6760   19.3980   29.5070 N   0  0  0  0  0  0  0  0  0  0  0  0
   36.3360   18.7530   30.6360 C   0  0  0  0  0  0  0  0  0  0  0  0
   34.8163   22.8030   30.9035 H   0  0  0  0  0  0  0  0  0  0  0  0
   36.5946   26.5975   31.5563 H   0  0  0  0  0  0  0  0  0  0  0  0
   41.2772   21.6895   34.2431 H   0  0  0  0  0  0  0  0  0  0  0  0
   40.6412   21.7531   36.6397 H   0  0  0  0  0  0  0  0  0  0  0  0
   38.3822   22.7448   37.2651 H   0  0  0  0  0  0  0  0  0  0  0  0
   37.6113   21.3624   32.4098 H   0  0  0  0  0  0  0  0  0  0  0  0
   35.9080   20.1347   34.4066 H   0  0  0  0  0  0  0  0  0  0  0  0
   34.9096   21.3215   34.4125 H   0  0  0  0  0  0  0  0  0  0  0  0
   34.6052   20.4953   31.4865 H   0  0  0  0  0  0  0  0  0  0  0  0
   35.3014   17.9413   33.6003 H   0  0  0  0  0  0  0  0  0  0  0  0
   37.2799   15.6258   29.5467 H   0  0  0  0  0  0  0  0  0  0  0  0
   37.4515   19.3631   27.5551 H   0  0  0  0  0  0  0  0  0  0  0  0
  1 11  1  0
  2 13  1  0
  2  1  1  0
  3  2  2  0
  4  3  1  0
  4  5  2  0
  5  6  1  0
  6  1  2  0
  7  8  2  0
  8  9  1  0
 10  9  2  0
 11 10  1  0
 12 11  2  0
 12  7  1  0
 13 14  1  0
 15 13  1  0
 15 14  1  0
 16 15  1  0
 16 17  1  0
 18 17  2  0
 19 24  2  0
 19 18  1  0
 20 19  1  0
 21 20  2  0
 22 21  1  0
 22 23  2  0
 23 24  1  0
 24 16  1  0
  3 25  1  0
  5 26  1  0
  7 27  1  0
  8 28  1  0
  9 29  1  0
 13 30  1  1
 14 31  1  0
 14 32  1  0
 15 33  1  6
 17 34  1  0
 20 35  1  0
 22 36  1  0
M  ISO  8  25  14  26  14  27  14  28  14  29  14  30  13  31  13  32  13
M  ISO  4  33  13  34  14  35  14  36  14
M  END
>  <minimizedAffinity>  (1) 
-4.8961072

>  <minimizedRMSD>  (1) 
1.51819026

$$$$
