
     RDKit          3D

 32 35  0  0  1  0  0  0  0  0999 V2000
   36.9520   25.3350   32.5460 C   0  0  0  0  0  0  0  0  0  0  0  0
   37.0430   24.0000   32.2800 C   0  0  0  0  0  0  0  0  0  0  0  0
   36.1860   23.4490   31.3620 C   0  0  0  0  0  0  0  0  0  0  0  0
   35.2760   24.2150   30.7430 N   0  0  0  0  0  0  0  0  0  0  0  0
   35.1940   25.5380   31.0160 C   0  0  0  0  0  0  0  0  0  0  0  0
   36.0380   26.1140   31.9250 N   0  0  0  0  0  0  0  0  0  0  0  0
   39.8350   26.9440   34.1780 C   0  0  0  0  0  0  0  0  0  0  0  0
   39.3670   27.1700   35.4570 C   0  0  0  0  0  0  0  0  0  0  0  0
   38.0540   26.7650   35.7590 C   0  0  0  0  0  0  0  0  0  0  0  0
   37.3390   26.1790   34.7600 N   0  0  0  0  0  0  0  0  0  0  0  0
   37.8370   25.9770   33.5220 C   0  0  0  0  0  0  0  0  0  0  0  0
   39.0710   26.3570   33.2390 N   0  0  0  0  0  0  0  0  0  0  0  0
   38.1060   23.2360   32.9600 C   0  0  1  0  0  0  0  0  0  0  0  0
   37.7730   22.6350   34.3220 C   0  0  0  0  0  0  0  0  0  0  0  0
   38.1150   21.7760   33.1210 C   0  0  1  0  0  0  0  0  0  0  0  0
   37.1200   20.8130   32.7920 C   0  0  0  0  0  0  0  0  0  0  0  0
   35.9920   20.5580   33.5100 C   0  0  0  0  0  0  0  0  0  0  0  0
   35.1300   19.6150   33.0100 C   0  0  0  0  0  0  0  0  0  0  0  0
   35.3960   18.9590   31.8340 C   0  0  0  0  0  0  0  0  0  0  0  0
   37.0010   19.6920   31.3310 S   0  0  0  0  0  0  0  0  0  0  0  0
   36.2453   22.3748   31.1326 H   0  0  0  0  0  0  0  0  0  0  0  0
   34.4422   26.1552   30.5024 H   0  0  0  0  0  0  0  0  0  0  0  0
   40.8590   27.2518   33.9200 H   0  0  0  0  0  0  0  0  0  0  0  0
   40.0008   27.6516   36.2161 H   0  0  0  0  0  0  0  0  0  0  0  0
   37.6235   26.9155   36.7600 H   0  0  0  0  0  0  0  0  0  0  0  0
   38.8465   23.9266   32.5302 H   0  0  0  0  0  0  0  0  0  0  0  0
   38.4808   22.7279   35.1589 H   0  0  0  0  0  0  0  0  0  0  0  0
   36.9365   22.7029   35.0331 H   0  0  0  0  0  0  0  0  0  0  0  0
   38.8674   21.0614   32.7560 H   0  0  0  0  0  0  0  0  0  0  0  0
   35.7805   21.0859   34.4516 H   0  0  0  0  0  0  0  0  0  0  0  0
   34.2080   19.3801   33.5621 H   0  0  0  0  0  0  0  0  0  0  0  0
   34.7987   18.1895   31.3230 H   0  0  0  0  0  0  0  0  0  0  0  0
  1 11  1  0
  2  1  1  0
  2 13  1  0
  3  2  2  0
  4  5  2  0
  4  3  1  0
  5  6  1  0
  6  1  2  0
  7  8  2  0
  8  9  1  0
 10  9  2  0
 11 10  1  0
 12 11  2  0
 12  7  1  0
 13 15  1  0
 13 14  1  0
 15 14  1  0
 16 15  1  0
 16 17  2  0
 18 17  1  0
 19 18  2  0
 20 19  1  0
 20 16  1  0
  3 21  1  0
  5 22  1  0
  7 23  1  0
  8 24  1  0
  9 25  1  0
 13 26  1  1
 14 27  1  0
 14 28  1  0
 15 29  1  1
 17 30  1  0
 18 31  1  0
 19 32  1  0
M  ISO  8  21  14  22  14  23  14  24  14  25  14  26  13  27  13  28  13
M  ISO  4  29  13  30  14  31  14  32  14
M  END
>  <minimizedAffinity>  (1) 
-4.72617626

>  <minimizedRMSD>  (1) 
3.13082504

$$$$
