
     RDKit          3D

 28 30  0  0  1  0  0  0  0  0999 V2000
   37.4050   23.2390   32.9770 C   0  0  0  0  0  0  0  0  0  0  0  0
   36.4860   22.3530   32.4780 C   0  0  0  0  0  0  0  0  0  0  0  0
   35.6260   22.7790   31.4920 C   0  0  0  0  0  0  0  0  0  0  0  0
   35.6950   24.0400   31.0370 N   0  0  0  0  0  0  0  0  0  0  0  0
   36.6040   24.9060   31.5350 C   0  0  0  0  0  0  0  0  0  0  0  0
   37.4670   24.5070   32.5120 N   0  0  0  0  0  0  0  0  0  0  0  0
   40.3120   22.0200   34.8660 C   0  0  0  0  0  0  0  0  0  0  0  0
   39.9320   22.2060   36.1800 C   0  0  0  0  0  0  0  0  0  0  0  0
   38.6610   22.7570   36.4080 C   0  0  0  0  0  0  0  0  0  0  0  0
   37.9020   23.0650   35.3210 N   0  0  0  0  0  0  0  0  0  0  0  0
   38.3240   22.8620   34.0480 C   0  0  0  0  0  0  0  0  0  0  0  0
   39.5180   22.3450   33.8210 N   0  0  0  0  0  0  0  0  0  0  0  0
   36.5480   20.9520   33.0060 C   0  0  1  0  0  0  0  0  0  0  0  0
   35.5780   20.6420   34.1450 C   0  0  0  0  0  0  0  0  0  0  0  0
   35.4490   19.9950   32.7780 C   0  0  2  0  0  0  0  0  0  0  0  0
   35.7080   18.5430   32.6390 C   0  0  0  0  0  0  0  0  0  0  0  0
   36.7800   18.1210   32.1420 O   0  0  0  0  0  0  0  0  0  0  0  0
   34.8320   17.5380   33.0250 O   0  0  0  0  0  0  0  0  0  0  0  0
   34.8807   22.0851   31.0759 H   0  0  0  0  0  0  0  0  0  0  0  0
   36.6481   25.9359   31.1512 H   0  0  0  0  0  0  0  0  0  0  0  0
   41.3030   21.5890   34.6604 H   0  0  0  0  0  0  0  0  0  0  0  0
   40.5968   21.9340   37.0131 H   0  0  0  0  0  0  0  0  0  0  0  0
   38.2916   22.9335   37.4290 H   0  0  0  0  0  0  0  0  0  0  0  0
   37.6310   20.8886   32.8242 H   0  0  0  0  0  0  0  0  0  0  0  0
   35.9089   20.0499   35.0110 H   0  0  0  0  0  0  0  0  0  0  0  0
   34.9230   21.2284   34.8062 H   0  0  0  0  0  0  0  0  0  0  0  0
   34.6560   19.9201   32.0194 H   0  0  0  0  0  0  0  0  0  0  0  0
   35.0811   16.5884   32.8977 H   0  0  0  0  0  0  0  0  0  0  0  0
  1 11  1  0
  2  1  1  0
  2 13  1  0
  3  2  2  0
  4  3  1  0
  4  5  2  0
  5  6  1  0
  6  1  2  0
  7  8  2  0
  8  9  1  0
 10  9  2  0
 11 10  1  0
 12 11  2  0
 12  7  1  0
 13 14  1  0
 15 13  1  0
 15 14  1  0
 16 15  1  0
 16 18  1  0
 17 16  2  0
  3 19  1  0
  5 20  1  0
  7 21  1  0
  8 22  1  0
  9 23  1  0
 13 24  1  1
 14 25  1  0
 14 26  1  0
 15 27  1  6
 18 28  1  0
M  ISO  8  19  14  20  14  21  14  22  14  23  14  24  13  25  13  26  13
M  ISO  2  27  13  28   3
M  END
>  <minimizedAffinity>  (1) 
-4.61643791

>  <minimizedRMSD>  (1) 
0.338849813

$$$$
