
     RDKit          3D

 38 41  0  0  1  0  0  0  0  0999 V2000
   37.3430   23.5530   32.8550 C   0  0  0  0  0  0  0  0  0  0  0  0
   36.4670   22.7260   32.2130 C   0  0  0  0  0  0  0  0  0  0  0  0
   35.5970   23.2690   31.2960 C   0  0  0  0  0  0  0  0  0  0  0  0
   35.6190   24.5860   31.0440 N   0  0  0  0  0  0  0  0  0  0  0  0
   36.4890   25.4010   31.6810 C   0  0  0  0  0  0  0  0  0  0  0  0
   37.3650   24.8850   32.5990 N   0  0  0  0  0  0  0  0  0  0  0  0
   40.2940   22.1520   34.5530 C   0  0  0  0  0  0  0  0  0  0  0  0
   39.8980   22.1540   35.8770 C   0  0  0  0  0  0  0  0  0  0  0  0
   38.6140   22.6330   36.1900 C   0  0  0  0  0  0  0  0  0  0  0  0
   37.8550   23.0630   35.1480 N   0  0  0  0  0  0  0  0  0  0  0  0
   38.2790   23.0450   33.8640 C   0  0  0  0  0  0  0  0  0  0  0  0
   39.4830   22.5960   33.5680 N   0  0  0  0  0  0  0  0  0  0  0  0
   36.5790   21.2630   32.5200 C   0  0  1  0  0  0  0  0  0  0  0  0
   35.5510   20.7120   33.5000 C   0  0  0  0  0  0  0  0  0  0  0  0
   35.5620   20.3050   32.0450 C   0  0  2  0  0  0  0  0  0  0  0  0
   35.8820   18.9610   31.6630 N   0  0  0  0  0  0  0  0  0  0  0  0
   37.3270   18.8730   31.6170 C   0  0  0  0  0  0  0  0  0  0  0  0
   37.7990   17.4760   31.2950 C   0  0  0  0  0  0  0  0  0  0  0  0
   37.3290   16.6560   32.3060 O   0  0  0  0  0  0  0  0  0  0  0  0
   35.9510   16.6230   32.2370 C   0  0  0  0  0  0  0  0  0  0  0  0
   35.2960   17.9660   32.5230 C   0  0  0  0  0  0  0  0  0  0  0  0
   34.8815   22.6213   30.7682 H   0  0  0  0  0  0  0  0  0  0  0  0
   36.4936   26.4790   31.4622 H   0  0  0  0  0  0  0  0  0  0  0  0
   41.2960   21.7790   34.2943 H   0  0  0  0  0  0  0  0  0  0  0  0
   40.5713   21.7896   36.6669 H   0  0  0  0  0  0  0  0  0  0  0  0
   38.2427   22.6585   37.2251 H   0  0  0  0  0  0  0  0  0  0  0  0
   37.6751   21.2896   32.4312 H   0  0  0  0  0  0  0  0  0  0  0  0
   35.8543   19.9967   34.2786 H   0  0  0  0  0  0  0  0  0  0  0  0
   34.8126   21.1422   34.1926 H   0  0  0  0  0  0  0  0  0  0  0  0
   34.8313   20.3204   31.2229 H   0  0  0  0  0  0  0  0  0  0  0  0
   37.7001   19.5608   30.8439 H   0  0  0  0  0  0  0  0  0  0  0  0
   37.7153   19.1420   32.6104 H   0  0  0  0  0  0  0  0  0  0  0  0
   37.3935   17.1527   30.3249 H   0  0  0  0  0  0  0  0  0  0  0  0
   38.8962   17.4339   31.2284 H   0  0  0  0  0  0  0  0  0  0  0  0
   35.6608   16.3026   31.2255 H   0  0  0  0  0  0  0  0  0  0  0  0
   35.6052   15.9232   33.0120 H   0  0  0  0  0  0  0  0  0  0  0  0
   35.4626   18.2420   33.5747 H   0  0  0  0  0  0  0  0  0  0  0  0
   34.2139   17.9012   32.3361 H   0  0  0  0  0  0  0  0  0  0  0  0
  1 11  1  0
  2 13  1  0
  2  1  1  0
  3  2  2  0
  4  3  1  0
  4  5  2  0
  5  6  1  0
  6  1  2  0
  7  8  2  0
  8  9  1  0
 10  9  2  0
 11 10  1  0
 12 11  2  0
 12  7  1  0
 13 14  1  0
 15 13  1  0
 15 14  1  0
 16 15  1  0
 16 21  1  0
 17 16  1  0
 18 17  1  0
 18 19  1  0
 20 19  1  0
 20 21  1  0
  3 22  1  0
  5 23  1  0
  7 24  1  0
  8 25  1  0
  9 26  1  0
 13 27  1  1
 14 28  1  0
 14 29  1  0
 15 30  1  6
 17 31  1  0
 17 32  1  0
 18 33  1  0
 18 34  1  0
 20 35  1  0
 20 36  1  0
 21 37  1  0
 21 38  1  0
M  ISO  8  22  14  23  14  24  14  25  14  26  14  27  13  28  13  29  13
M  ISO  8  30  13  31  13  32  13  33  13  34  13  35  13  36  13  37  13
M  ISO  1  38  13
M  END
>  <minimizedAffinity>  (1) 
-4.59185171

>  <minimizedRMSD>  (1) 
1.2031703

$$$$
