
     RDKit          3D

 38 41  0  0  1  0  0  0  0  0999 V2000
   37.2940   23.9220   32.7550 C   0  0  0  0  0  0  0  0  0  0  0  0
   36.3670   23.1820   32.0790 C   0  0  0  0  0  0  0  0  0  0  0  0
   35.4810   23.8290   31.2550 C   0  0  0  0  0  0  0  0  0  0  0  0
   35.5350   25.1670   31.1240 N   0  0  0  0  0  0  0  0  0  0  0  0
   36.4530   25.8900   31.7960 C   0  0  0  0  0  0  0  0  0  0  0  0
   37.3430   25.2720   32.6200 N   0  0  0  0  0  0  0  0  0  0  0  0
   40.2370   22.2410   34.1940 C   0  0  0  0  0  0  0  0  0  0  0  0
   39.9360   22.1920   35.5410 C   0  0  0  0  0  0  0  0  0  0  0  0
   38.7070   22.7420   35.9510 C   0  0  0  0  0  0  0  0  0  0  0  0
   37.9060   23.2820   34.9910 N   0  0  0  0  0  0  0  0  0  0  0  0
   38.2520   23.3040   33.6770 C   0  0  0  0  0  0  0  0  0  0  0  0
   39.4000   22.7910   33.2870 N   0  0  0  0  0  0  0  0  0  0  0  0
   36.4490   21.6930   32.2540 C   0  0  1  0  0  0  0  0  0  0  0  0
   35.5530   21.1090   33.3420 C   0  0  0  0  0  0  0  0  0  0  0  0
   35.3110   20.8280   31.8830 C   0  0  2  0  0  0  0  0  0  0  0  0
   35.5030   19.4660   31.2940 C   0  0  0  0  0  0  0  0  0  0  0  0
   36.8380   19.1910   30.7080 C   0  0  0  0  0  0  0  0  0  0  0  0
   37.5160   18.1920   31.6470 C   0  0  0  0  0  0  0  0  0  0  0  0
   36.3610   17.4120   32.2590 C   0  0  0  0  0  0  0  0  0  0  0  0
   35.2870   18.4400   32.3820 C   0  0  0  0  0  0  0  0  0  0  0  0
   34.7254   23.2530   30.7007 H   0  0  0  0  0  0  0  0  0  0  0  0
   36.4830   26.9833   31.6781 H   0  0  0  0  0  0  0  0  0  0  0  0
   41.1913   21.8176   33.8475 H   0  0  0  0  0  0  0  0  0  0  0  0
   40.6299   21.7406   36.2654 H   0  0  0  0  0  0  0  0  0  0  0  0
   38.4044   22.7359   37.0085 H   0  0  0  0  0  0  0  0  0  0  0  0
   37.5174   21.6755   31.9928 H   0  0  0  0  0  0  0  0  0  0  0  0
   35.9300   20.3159   34.0045 H   0  0  0  0  0  0  0  0  0  0  0  0
   34.9597   21.5139   34.1751 H   0  0  0  0  0  0  0  0  0  0  0  0
   34.4483   20.9402   31.2099 H   0  0  0  0  0  0  0  0  0  0  0  0
   34.7797   19.4132   30.4669 H   0  0  0  0  0  0  0  0  0  0  0  0
   36.7316   18.7580   29.7024 H   0  0  0  0  0  0  0  0  0  0  0  0
   37.4299   20.1126   30.6067 H   0  0  0  0  0  0  0  0  0  0  0  0
   38.1855   17.5226   31.0869 H   0  0  0  0  0  0  0  0  0  0  0  0
   38.1410   18.6847   32.4064 H   0  0  0  0  0  0  0  0  0  0  0  0
   36.0467   16.5893   31.5999 H   0  0  0  0  0  0  0  0  0  0  0  0
   36.6186   16.9385   33.2179 H   0  0  0  0  0  0  0  0  0  0  0  0
   35.3428   18.9233   33.3686 H   0  0  0  0  0  0  0  0  0  0  0  0
   34.2957   17.9742   32.2796 H   0  0  0  0  0  0  0  0  0  0  0  0
  1 11  1  0
  2 13  1  0
  2  1  1  0
  3  2  2  0
  4  3  1  0
  4  5  2  0
  5  6  1  0
  6  1  2  0
  7  8  2  0
  8  9  1  0
 10  9  2  0
 11 10  1  0
 12 11  2  0
 12  7  1  0
 13 14  1  0
 15 13  1  0
 15 14  1  0
 16 15  1  0
 16 20  1  0
 17 16  1  0
 17 18  1  0
 18 19  1  0
 19 20  1  0
  3 21  1  0
  5 22  1  0
  7 23  1  0
  8 24  1  0
  9 25  1  0
 13 26  1  1
 14 27  1  0
 14 28  1  0
 15 29  1  6
 16 30  1  0
 17 31  1  0
 17 32  1  0
 18 33  1  0
 18 34  1  0
 19 35  1  0
 19 36  1  0
 20 37  1  0
 20 38  1  0
M  ISO  8  21  14  22  14  23  14  24  14  25  14  26  13  27  13  28  13
M  ISO  8  29  13  30  13  31  13  32  13  33  13  34  13  35  13  36  13
M  ISO  2  37  13  38  13
M  END
>  <minimizedAffinity>  (1) 
-4.77194643

>  <minimizedRMSD>  (1) 
1.31884241

$$$$
