
     RDKit          3D

 31 33  0  0  0  0  0  0  0  0999 V2000
   39.1220   23.3860   34.0110 C   0  0  0  0  0  0  0  0  0  0  0  0
   39.6360   22.9490   32.8060 C   0  0  0  0  0  0  0  0  0  0  0  0
   38.8720   23.5390   31.7910 C   0  0  0  0  0  0  0  0  0  0  0  0
   37.9380   24.2980   32.3790 N   0  0  0  0  0  0  0  0  0  0  0  0
   38.0870   24.2080   33.7180 N   0  0  0  0  0  0  0  0  0  0  0  0
   41.1320   22.0110   36.7430 C   0  0  0  0  0  0  0  0  0  0  0  0
   40.3910   22.4340   37.8890 C   0  0  0  0  0  0  0  0  0  0  0  0
   39.2420   23.1670   37.6670 C   0  0  0  0  0  0  0  0  0  0  0  0
   38.8630   23.4550   36.3950 N   0  0  0  0  0  0  0  0  0  0  0  0
   39.5980   23.0340   35.3400 C   0  0  0  0  0  0  0  0  0  0  0  0
   40.7200   22.3190   35.5150 N   0  0  0  0  0  0  0  0  0  0  0  0
   38.5200   23.5750   38.8870 C   0  0  0  0  0  0  0  0  0  0  0  0
   37.8270   24.7260   38.6550 F   0  0  0  0  0  0  0  0  0  0  0  0
   39.4730   23.8640   39.8410 F   0  0  0  0  0  0  0  0  0  0  0  0
   37.6320   22.6220   39.3120 F   0  0  0  0  0  0  0  0  0  0  0  0
   36.9420   25.0800   31.6950 C   0  0  0  0  0  0  0  0  0  0  0  0
   35.7620   24.4430   31.3550 C   0  0  0  0  0  0  0  0  0  0  0  0
   34.8170   25.2440   30.6870 C   0  0  0  0  0  0  0  0  0  0  0  0
   35.0830   26.5080   30.4250 N   0  0  0  0  0  0  0  0  0  0  0  0
   36.2330   27.1170   30.7600 C   0  0  0  0  0  0  0  0  0  0  0  0
   37.1590   26.3640   31.4040 N   0  0  0  0  0  0  0  0  0  0  0  0
   36.6140   28.5030   30.5130 C   0  0  0  0  0  0  0  0  0  0  0  0
   37.7810   28.9320   30.4460 O   0  0  0  0  0  0  0  0  0  0  0  0
   35.7560   29.5570   30.3170 O   0  0  0  0  0  0  0  0  0  0  0  0
   40.4866   22.2652   32.6689 H   0  0  0  0  0  0  0  0  0  0  0  0
   39.0133   23.4037   30.7085 H   0  0  0  0  0  0  0  0  0  0  0  0
   42.0529   21.4245   36.8767 H   0  0  0  0  0  0  0  0  0  0  0  0
   40.7227   22.1856   38.9079 H   0  0  0  0  0  0  0  0  0  0  0  0
   35.5754   23.3848   31.5902 H   0  0  0  0  0  0  0  0  0  0  0  0
   33.8519   24.8131   30.3822 H   0  0  0  0  0  0  0  0  0  0  0  0
   36.1161   30.4650   30.1560 H   0  0  0  0  0  0  0  0  0  0  0  0
  1 10  1  0
  2  1  1  0
  3  4  1  0
  3  2  2  0
  4  5  1  0
  5  1  2  0
  6  7  2  0
  8  7  1  0
  8 12  1  0
  9  8  2  0
 10 11  2  0
 10  9  1  0
 11  6  1  0
 12 15  1  0
 12 14  1  0
 13 12  1  0
 16  4  1  0
 17 16  2  0
 18 17  1  0
 19 18  2  0
 19 20  1  0
 20 21  2  0
 21 16  1  0
 22 20  1  0
 23 22  2  0
 24 22  1  0
  2 25  1  0
  3 26  1  0
  6 27  1  0
  7 28  1  0
 17 29  1  0
 18 30  1  0
 24 31  1  0
M  ISO  7  25  14  26  14  27  14  28  14  29  14  30  14  31   3
M  END
>  <minimizedAffinity>  (1) 
-5.13777208

>  <minimizedRMSD>  (1) 
0.238255978

$$$$
