
     RDKit          3D

 32 35  0  0  1  0  0  0  0  0999 V2000
   39.3970   24.8350   33.2850 C   0  0  0  0  0  0  0  0  0  0  0  0
   40.3730   24.4450   34.1570 C   0  0  0  0  0  0  0  0  0  0  0  0
   41.1220   25.3960   34.7910 C   0  0  0  0  0  0  0  0  0  0  0  0
   40.9050   26.6960   34.5610 N   0  0  0  0  0  0  0  0  0  0  0  0
   39.9280   27.0820   33.6880 C   0  0  0  0  0  0  0  0  0  0  0  0
   39.1660   26.1490   33.0430 N   0  0  0  0  0  0  0  0  0  0  0  0
   36.7150   22.5070   32.3240 C   0  0  0  0  0  0  0  0  0  0  0  0
   37.1430   22.0390   31.1000 C   0  0  0  0  0  0  0  0  0  0  0  0
   38.3640   22.5290   30.6060 C   0  0  0  0  0  0  0  0  0  0  0  0
   39.0310   23.4300   31.3740 N   0  0  0  0  0  0  0  0  0  0  0  0
   38.5750   23.8620   32.5700 C   0  0  0  0  0  0  0  0  0  0  0  0
   37.4310   23.4000   33.0300 N   0  0  0  0  0  0  0  0  0  0  0  0
   40.5070   22.9940   34.4200 C   0  0  1  0  0  0  0  0  0  0  0  0
   41.3110   22.5710   35.6380 C   0  0  0  0  0  0  0  0  0  0  0  0
   39.8210   22.2800   35.5090 C   0  0  1  0  0  0  0  0  0  0  0  0
   39.1010   22.8240   36.6150 N   0  0  0  0  0  0  0  0  0  0  0  0
   39.6770   22.8320   37.8590 C   0  0  0  0  0  0  0  0  0  0  0  0
   38.7250   23.4520   38.6700 C   0  0  0  0  0  0  0  0  0  0  0  0
   37.6330   23.8020   37.9710 N   0  0  0  0  0  0  0  0  0  0  0  0
   37.8670   23.4150   36.7070 C   0  0  0  0  0  0  0  0  0  0  0  0
   41.9093   25.0904   35.4958 H   0  0  0  0  0  0  0  0  0  0  0  0
   39.7533   28.1521   33.5028 H   0  0  0  0  0  0  0  0  0  0  0  0
   35.7625   22.1402   32.7341 H   0  0  0  0  0  0  0  0  0  0  0  0
   36.5501   21.3082   30.5304 H   0  0  0  0  0  0  0  0  0  0  0  0
   38.7637   22.1965   29.6366 H   0  0  0  0  0  0  0  0  0  0  0  0
   40.5289   22.8216   33.3338 H   0  0  0  0  0  0  0  0  0  0  0  0
   42.0452   21.7553   35.5635 H   0  0  0  0  0  0  0  0  0  0  0  0
   41.9572   23.0745   36.3722 H   0  0  0  0  0  0  0  0  0  0  0  0
   39.0929   21.4607   35.4163 H   0  0  0  0  0  0  0  0  0  0  0  0
   40.6625   22.4401   38.1509 H   0  0  0  0  0  0  0  0  0  0  0  0
   38.8533   23.6316   39.7476 H   0  0  0  0  0  0  0  0  0  0  0  0
   37.1701   23.5521   35.8671 H   0  0  0  0  0  0  0  0  0  0  0  0
  1  2  1  0
  2 13  1  0
  2  3  2  0
  4  3  1  0
  5  4  2  0
  6  1  2  0
  6  5  1  0
  7 12  2  0
  8  7  1  0
  9  8  2  0
  9 10  1  0
 10 11  2  0
 11 12  1  0
 11  1  1  0
 13 15  1  0
 13 14  1  0
 15 14  1  0
 15 16  1  0
 16 20  1  0
 16 17  1  0
 17 18  2  0
 19 18  1  0
 20 19  2  0
  3 21  1  0
  5 22  1  0
  7 23  1  0
  8 24  1  0
  9 25  1  0
 13 26  1  6
 14 27  1  0
 14 28  1  0
 15 29  1  6
 17 30  1  0
 18 31  1  0
 20 32  1  0
M  ISO  8  21  14  22  14  23  14  24  14  25  14  26  13  27  13  28  13
M  ISO  4  29  13  30  14  31  14  32  14
M  END
>  <minimizedAffinity>  (1) 
-4.16092968

>  <minimizedRMSD>  (1) 
5.99022818

$$$$
