
     RDKit          3D

 27 29  0  0  1  0  0  0  0  0999 V2000
   37.4220   23.2640   32.9730 C   0  0  0  0  0  0  0  0  0  0  0  0
   36.5110   22.3710   32.4590 C   0  0  0  0  0  0  0  0  0  0  0  0
   35.6610   22.7940   31.4670 C   0  0  0  0  0  0  0  0  0  0  0  0
   35.7330   24.0630   31.0170 N   0  0  0  0  0  0  0  0  0  0  0  0
   36.6260   24.9320   31.5250 C   0  0  0  0  0  0  0  0  0  0  0  0
   37.4830   24.5320   32.5140 N   0  0  0  0  0  0  0  0  0  0  0  0
   40.3360   22.0700   34.8690 C   0  0  0  0  0  0  0  0  0  0  0  0
   39.9460   22.2340   36.1820 C   0  0  0  0  0  0  0  0  0  0  0  0
   38.6620   22.7620   36.4060 C   0  0  0  0  0  0  0  0  0  0  0  0
   37.9060   23.0700   35.3170 N   0  0  0  0  0  0  0  0  0  0  0  0
   38.3350   22.8890   34.0490 C   0  0  0  0  0  0  0  0  0  0  0  0
   39.5400   22.3940   33.8280 N   0  0  0  0  0  0  0  0  0  0  0  0
   36.5910   20.9690   32.9860 C   0  0  1  0  0  0  0  0  0  0  0  0
   35.5680   20.6120   34.0560 C   0  0  0  0  0  0  0  0  0  0  0  0
   35.5450   19.9730   32.6780 C   0  0  2  0  0  0  0  0  0  0  0  0
   35.9480   18.5570   32.6660 N   0  0  0  0  0  0  0  0  0  0  0  0
   34.9228   22.0990   31.0403 H   0  0  0  0  0  0  0  0  0  0  0  0
   36.6671   25.9636   31.1454 H   0  0  0  0  0  0  0  0  0  0  0  0
   41.3351   21.6590   34.6621 H   0  0  0  0  0  0  0  0  0  0  0  0
   40.6097   21.9638   37.0165 H   0  0  0  0  0  0  0  0  0  0  0  0
   38.2819   22.9206   37.4260 H   0  0  0  0  0  0  0  0  0  0  0  0
   37.6854   20.9493   32.8770 H   0  0  0  0  0  0  0  0  0  0  0  0
   35.8672   20.0236   34.9359 H   0  0  0  0  0  0  0  0  0  0  0  0
   34.8525   21.1676   34.6800 H   0  0  0  0  0  0  0  0  0  0  0  0
   34.8119   19.8750   31.8638 H   0  0  0  0  0  0  0  0  0  0  0  0
   36.0441   18.2192   33.6343 H   0  0  0  0  0  0  0  0  0  0  0  0
   35.2320   18.0004   32.1777 H   0  0  0  0  0  0  0  0  0  0  0  0
  1 11  1  0
  2  1  1  0
  2 13  1  0
  3  2  2  0
  4  3  1  0
  4  5  2  0
  5  6  1  0
  6  1  2  0
  7  8  2  0
  8  9  1  0
 10  9  2  0
 11 10  1  0
 12 11  2  0
 12  7  1  0
 13 14  1  0
 15 13  1  0
 15 14  1  0
 16 15  1  0
  3 17  1  0
  5 18  1  0
  7 19  1  0
  8 20  1  0
  9 21  1  0
 13 22  1  1
 14 23  1  0
 14 24  1  0
 15 25  1  6
 16 26  1  0
 16 27  1  0
M  ISO  8  17  14  18  14  19  14  20  14  21  14  22  13  23  13  24  13
M  ISO  3  25  13  26   5  27   5
M  END
>  <minimizedAffinity>  (1) 
-3.90125513

>  <minimizedRMSD>  (1) 
0.303730428

$$$$
