
     RDKit          3D

 30 32  0  0  0  0  0  0  0  0999 V2000
   38.9740   23.1870   34.0110 C   0  0  0  0  0  0  0  0  0  0  0  0
   39.3640   22.5980   32.8220 C   0  0  0  0  0  0  0  0  0  0  0  0
   38.5980   23.1620   31.8130 C   0  0  0  0  0  0  0  0  0  0  0  0
   37.7740   24.0590   32.3730 N   0  0  0  0  0  0  0  0  0  0  0  0
   38.0040   24.0710   33.7000 N   0  0  0  0  0  0  0  0  0  0  0  0
   41.1060   21.9980   36.7310 C   0  0  0  0  0  0  0  0  0  0  0  0
   40.3940   22.4460   37.8850 C   0  0  0  0  0  0  0  0  0  0  0  0
   39.2160   23.1350   37.6760 C   0  0  0  0  0  0  0  0  0  0  0  0
   38.7860   23.3560   36.3970 N   0  0  0  0  0  0  0  0  0  0  0  0
   39.5030   22.9080   35.3330 C   0  0  0  0  0  0  0  0  0  0  0  0
   40.6450   22.2390   35.5090 N   0  0  0  0  0  0  0  0  0  0  0  0
   38.5240   23.5720   38.8910 C   0  0  0  0  0  0  0  0  0  0  0  0
   37.8680   24.7600   38.6550 F   0  0  0  0  0  0  0  0  0  0  0  0
   39.4900   23.8680   39.8280 F   0  0  0  0  0  0  0  0  0  0  0  0
   37.6190   22.6590   39.3450 F   0  0  0  0  0  0  0  0  0  0  0  0
   36.8110   24.8690   31.6790 C   0  0  0  0  0  0  0  0  0  0  0  0
   35.5990   24.3030   31.3690 C   0  0  0  0  0  0  0  0  0  0  0  0
   34.6850   25.1190   30.6940 C   0  0  0  0  0  0  0  0  0  0  0  0
   35.0150   26.3720   30.3860 N   0  0  0  0  0  0  0  0  0  0  0  0
   36.1940   26.9190   30.6890 C   0  0  0  0  0  0  0  0  0  0  0  0
   37.0960   26.1390   31.3470 N   0  0  0  0  0  0  0  0  0  0  0  0
   36.6410   28.2730   30.3960 C   0  0  0  0  0  0  0  0  0  0  0  0
   37.0750   28.6570   29.2790 O   0  0  0  0  0  0  0  0  0  0  0  0
   40.1378   21.8258   32.6995 H   0  0  0  0  0  0  0  0  0  0  0  0
   38.6562   22.9167   30.7423 H   0  0  0  0  0  0  0  0  0  0  0  0
   42.0491   21.4458   36.8559 H   0  0  0  0  0  0  0  0  0  0  0  0
   40.7693   22.2499   38.9002 H   0  0  0  0  0  0  0  0  0  0  0  0
   35.3596   23.2634   31.6371 H   0  0  0  0  0  0  0  0  0  0  0  0
   33.6952   24.7264   30.4180 H   0  0  0  0  0  0  0  0  0  0  0  0
   36.5962   29.0130   31.2087 H   0  0  0  0  0  0  0  0  0  0  0  0
  1 10  1  0
  2  1  1  0
  3  4  1  0
  3  2  2  0
  4  5  1  0
  5  1  2  0
  6  7  2  0
  8  7  1  0
  8 12  1  0
  9  8  2  0
 10 11  2  0
 10  9  1  0
 11  6  1  0
 12 15  1  0
 12 14  1  0
 13 12  1  0
 16  4  1  0
 17 16  2  0
 18 17  1  0
 19 20  1  0
 19 18  2  0
 20 21  2  0
 21 16  1  0
 22 20  1  0
 23 22  2  0
  2 24  1  0
  3 25  1  0
  6 26  1  0
  7 27  1  0
 17 28  1  0
 18 29  1  0
 22 30  1  0
M  ISO  7  24  14  25  14  26  14  27  14  28  14  29  14  30   6
M  END
>  <minimizedAffinity>  (1) 
-4.89568186

>  <minimizedRMSD>  (1) 
0.0949653834

$$$$
