
     RDKit          3D

 41 44  0  0  1  0  0  0  0  0999 V2000
   38.1930   22.5940   34.6750 C   0  0  0  0  0  0  0  0  0  0  0  0
   38.9940   23.0380   33.6820 C   0  0  0  0  0  0  0  0  0  0  0  0
   38.7780   22.6070   32.3940 C   0  0  0  0  0  0  0  0  0  0  0  0
   37.7720   21.7490   32.1410 N   0  0  0  0  0  0  0  0  0  0  0  0
   36.9710   21.3060   33.1340 C   0  0  0  0  0  0  0  0  0  0  0  0
   37.1780   21.7290   34.4170 N   0  0  0  0  0  0  0  0  0  0  0  0
   37.8630   24.0950   38.0130 C   0  0  0  0  0  0  0  0  0  0  0  0
   38.9710   23.5910   38.6720 C   0  0  0  0  0  0  0  0  0  0  0  0
   39.8330   22.7410   37.9780 C   0  0  0  0  0  0  0  0  0  0  0  0
   39.5000   22.4820   36.6960 N   0  0  0  0  0  0  0  0  0  0  0  0
   38.4050   22.9890   36.0690 C   0  0  0  0  0  0  0  0  0  0  0  0
   37.6030   23.7830   36.7210 N   0  0  0  0  0  0  0  0  0  0  0  0
   40.0210   24.0760   34.0360 C   0  0  1  0  0  0  0  0  0  0  0  0
   40.7210   24.7230   32.8120 C   0  0  0  0  0  0  0  0  0  0  0  0
   39.8230   25.4980   33.7790 C   0  0  1  0  0  0  0  0  0  0  0  0
   38.7270   26.0580   33.0290 N   0  0  0  0  0  0  0  0  0  0  0  0
   39.0640   26.7100   31.8080 C   0  0  0  0  0  0  0  0  0  0  0  0
   38.1650   27.8070   31.3520 C   0  0  0  0  0  0  0  0  0  0  0  0
   36.8760   27.7910   31.7740 O   0  0  0  0  0  0  0  0  0  0  0  0
   36.5070   26.8040   32.6370 C   0  0  0  0  0  0  0  0  0  0  0  0
   37.6090   26.5650   33.6590 C   0  0  0  0  0  0  0  0  0  0  0  0
   40.4460   26.5400   34.6770 C   0  0  0  0  0  0  0  0  0  0  0  0
   40.6960   27.6740   33.9040 F   0  0  0  0  0  0  0  0  0  0  0  0
   39.5550   26.9050   35.6600 F   0  0  0  0  0  0  0  0  0  0  0  0
   41.6480   26.1420   35.2150 F   0  0  0  0  0  0  0  0  0  0  0  0
   39.4228   22.9609   31.5761 H   0  0  0  0  0  0  0  0  0  0  0  0
   36.1529   20.6055   32.9104 H   0  0  0  0  0  0  0  0  0  0  0  0
   37.1770   24.7652   38.5517 H   0  0  0  0  0  0  0  0  0  0  0  0
   39.1680   23.8552   39.7215 H   0  0  0  0  0  0  0  0  0  0  0  0
   40.7291   22.3085   38.4471 H   0  0  0  0  0  0  0  0  0  0  0  0
   40.3025   23.5398   34.9543 H   0  0  0  0  0  0  0  0  0  0  0  0
   40.3809   24.4992   31.7901 H   0  0  0  0  0  0  0  0  0  0  0  0
   41.7510   24.8102   32.4359 H   0  0  0  0  0  0  0  0  0  0  0  0
   40.0714   27.1354   31.9270 H   0  0  0  0  0  0  0  0  0  0  0  0
   38.9752   25.9311   31.0364 H   0  0  0  0  0  0  0  0  0  0  0  0
   38.1495   27.7814   30.2524 H   0  0  0  0  0  0  0  0  0  0  0  0
   38.5903   28.7159   31.8026 H   0  0  0  0  0  0  0  0  0  0  0  0
   35.5855   27.1022   33.1584 H   0  0  0  0  0  0  0  0  0  0  0  0
   36.3331   25.8769   32.0711 H   0  0  0  0  0  0  0  0  0  0  0  0
   37.2576   25.8464   34.4140 H   0  0  0  0  0  0  0  0  0  0  0  0
   37.8663   27.5172   34.1460 H   0  0  0  0  0  0  0  0  0  0  0  0
  1 11  1  0
  2 13  1  0
  2  1  1  0
  3  2  2  0
  4  3  1  0
  4  5  2  0
  5  6  1  0
  6  1  2  0
  7  8  2  0
  9  8  1  0
 10  9  2  0
 11 10  1  0
 11 12  2  0
 12  7  1  0
 14 15  1  0
 14 13  1  0
 15 13  1  0
 15 22  1  1
 16 21  1  0
 16 15  1  0
 17 16  1  0
 18 19  1  0
 18 17  1  0
 19 20  1  0
 20 21  1  0
 22 25  1  0
 22 24  1  0
 23 22  1  0
  3 26  1  0
  5 27  1  0
  7 28  1  0
  8 29  1  0
  9 30  1  0
 13 31  1  1
 14 32  1  0
 14 33  1  0
 17 34  1  0
 17 35  1  0
 18 36  1  0
 18 37  1  0
 20 38  1  0
 20 39  1  0
 21 40  1  0
 21 41  1  0
M  ISO  8  26  14  27  14  28  14  29  14  30  14  31  13  32  13  33  13
M  ISO  8  34  13  35  13  36  13  37  13  38  13  39  13  40  13  41  13
M  END
>  <minimizedAffinity>  (1) 
-5.34767389

>  <minimizedRMSD>  (1) 
6.39063358

$$$$
