
     RDKit          3D

 37 40  0  0  1  0  0  0  0  0999 V2000
   37.5430   24.3470   32.6370 C   0  0  0  0  0  0  0  0  0  0  0  0
   38.5410   24.0040   33.4820 C   0  0  0  0  0  0  0  0  0  0  0  0
   38.6510   22.7030   33.9020 C   0  0  0  0  0  0  0  0  0  0  0  0
   37.7670   21.7840   33.4680 N   0  0  0  0  0  0  0  0  0  0  0  0
   36.7680   22.1270   32.6210 C   0  0  0  0  0  0  0  0  0  0  0  0
   36.6520   23.4250   32.1970 N   0  0  0  0  0  0  0  0  0  0  0  0
   37.5870   27.4580   30.6860 C   0  0  0  0  0  0  0  0  0  0  0  0
   36.9070   28.3360   31.5110 C   0  0  0  0  0  0  0  0  0  0  0  0
   36.4340   27.8660   32.7360 C   0  0  0  0  0  0  0  0  0  0  0  0
   36.6920   26.5680   33.0060 N   0  0  0  0  0  0  0  0  0  0  0  0
   37.3590   25.7260   32.1860 C   0  0  0  0  0  0  0  0  0  0  0  0
   37.7990   26.1710   31.0400 N   0  0  0  0  0  0  0  0  0  0  0  0
   39.5410   25.0500   33.8440 C   0  0  1  0  0  0  0  0  0  0  0  0
   39.3910   25.6150   35.2860 C   0  0  0  0  0  0  0  0  0  0  0  0
   40.6100   24.8760   34.8110 C   0  0  1  0  0  0  0  0  0  0  0  0
   40.8760   23.6290   35.6090 C   0  0  0  0  0  0  0  0  0  0  0  0
   40.3640   23.3280   36.8810 C   0  0  0  0  0  0  0  0  0  0  0  0
   40.7360   22.1610   37.5100 C   0  0  0  0  0  0  0  0  0  0  0  0
   41.6060   21.2690   36.9230 C   0  0  0  0  0  0  0  0  0  0  0  0
   42.0780   21.6140   35.6750 C   0  0  0  0  0  0  0  0  0  0  0  0
   41.7460   22.7410   35.0170 N   0  0  0  0  0  0  0  0  0  0  0  0
   41.9330   25.6110   34.6460 C   0  0  0  0  0  0  0  0  0  0  0  0
   42.7160   25.2530   35.7420 F   0  0  0  0  0  0  0  0  0  0  0  0
   42.5950   25.0590   33.5370 F   0  0  0  0  0  0  0  0  0  0  0  0
   41.8110   26.9450   34.5820 F   0  0  0  0  0  0  0  0  0  0  0  0
   39.4578   22.4113   34.5904 H   0  0  0  0  0  0  0  0  0  0  0  0
   36.0523   21.3669   32.2746 H   0  0  0  0  0  0  0  0  0  0  0  0
   37.9648   27.8165   29.7171 H   0  0  0  0  0  0  0  0  0  0  0  0
   36.7432   29.3806   31.2078 H   0  0  0  0  0  0  0  0  0  0  0  0
   35.8856   28.5115   33.4378 H   0  0  0  0  0  0  0  0  0  0  0  0
   39.5645   25.4033   32.8025 H   0  0  0  0  0  0  0  0  0  0  0  0
   39.4302   26.6990   35.4686 H   0  0  0  0  0  0  0  0  0  0  0  0
   38.6692   25.5151   36.1100 H   0  0  0  0  0  0  0  0  0  0  0  0
   39.6676   24.0224   37.3738 H   0  0  0  0  0  0  0  0  0  0  0  0
   40.3281   21.9354   38.5064 H   0  0  0  0  0  0  0  0  0  0  0  0
   41.9066   20.3356   37.4213 H   0  0  0  0  0  0  0  0  0  0  0  0
   42.7747   20.9202   35.1819 H   0  0  0  0  0  0  0  0  0  0  0  0
  1  2  1  0
  2 13  1  0
  2  3  2  0
  4  3  1  0
  5  4  2  0
  6  5  1  0
  6  1  2  0
  7 12  2  0
  7  8  1  0
  8  9  2  0
  9 10  1  0
 11  1  1  0
 11 10  2  0
 12 11  1  0
 13 15  1  0
 13 14  1  0
 15 22  1  6
 15 14  1  0
 15 16  1  0
 16 17  2  0
 17 18  1  0
 19 18  2  0
 20 19  1  0
 21 16  1  0
 21 20  2  0
 22 23  1  0
 24 22  1  0
 25 22  1  0
  3 26  1  0
  5 27  1  0
  7 28  1  0
  8 29  1  0
  9 30  1  0
 13 31  1  6
 14 32  1  0
 14 33  1  0
 17 34  1  0
 18 35  1  0
 19 36  1  0
 20 37  1  0
M  ISO  8  26  14  27  14  28  14  29  14  30  14  31  13  32  13  33  13
M  ISO  4  34  14  35  14  36  14  37  14
M  END
>  <minimizedAffinity>  (1) 
-4.79448175

>  <minimizedRMSD>  (1) 
7.47668695

$$$$
