
     RDKit          3D

 29 31  0  0  0  0  0  0  0  0999 V2000
   38.9680   23.1820   34.0180 C   0  0  0  0  0  0  0  0  0  0  0  0
   39.3570   22.6040   32.8340 C   0  0  0  0  0  0  0  0  0  0  0  0
   38.5880   23.1660   31.8220 C   0  0  0  0  0  0  0  0  0  0  0  0
   37.7600   24.0550   32.3810 N   0  0  0  0  0  0  0  0  0  0  0  0
   37.9920   24.0650   33.7160 N   0  0  0  0  0  0  0  0  0  0  0  0
   41.0990   21.9900   36.7360 C   0  0  0  0  0  0  0  0  0  0  0  0
   40.3870   22.4480   37.8840 C   0  0  0  0  0  0  0  0  0  0  0  0
   39.2200   23.1380   37.6760 C   0  0  0  0  0  0  0  0  0  0  0  0
   38.7870   23.3590   36.4100 N   0  0  0  0  0  0  0  0  0  0  0  0
   39.4970   22.9050   35.3420 C   0  0  0  0  0  0  0  0  0  0  0  0
   40.6400   22.2280   35.5230 N   0  0  0  0  0  0  0  0  0  0  0  0
   38.5420   23.5790   38.8990 C   0  0  0  0  0  0  0  0  0  0  0  0
   37.8720   24.7570   38.6600 F   0  0  0  0  0  0  0  0  0  0  0  0
   39.5000   23.8680   39.8290 F   0  0  0  0  0  0  0  0  0  0  0  0
   37.6100   22.6590   39.3480 F   0  0  0  0  0  0  0  0  0  0  0  0
   36.7960   24.8590   31.6980 C   0  0  0  0  0  0  0  0  0  0  0  0
   35.6070   24.2830   31.3330 C   0  0  0  0  0  0  0  0  0  0  0  0
   34.6890   25.0860   30.6700 C   0  0  0  0  0  0  0  0  0  0  0  0
   34.9780   26.3470   30.4160 N   0  0  0  0  0  0  0  0  0  0  0  0
   36.1360   26.9360   30.7630 C   0  0  0  0  0  0  0  0  0  0  0  0
   37.0520   26.1510   31.4180 N   0  0  0  0  0  0  0  0  0  0  0  0
   36.5030   28.2520   30.5280 O   0  0  0  0  0  0  0  0  0  0  0  0
   40.1351   21.8365   32.7097 H   0  0  0  0  0  0  0  0  0  0  0  0
   38.6495   22.9227   30.7510 H   0  0  0  0  0  0  0  0  0  0  0  0
   42.0392   21.4334   36.8637 H   0  0  0  0  0  0  0  0  0  0  0  0
   40.7607   22.2546   38.9003 H   0  0  0  0  0  0  0  0  0  0  0  0
   35.3892   23.2281   31.5562 H   0  0  0  0  0  0  0  0  0  0  0  0
   33.7201   24.6700   30.3565 H   0  0  0  0  0  0  0  0  0  0  0  0
   37.3867   28.5809   30.8297 H   0  0  0  0  0  0  0  0  0  0  0  0
  1 10  1  0
  2  1  1  0
  3  4  1  0
  3  2  2  0
  4  5  1  0
  5  1  2  0
  6  7  2  0
  8  7  1  0
  8 12  1  0
  9  8  2  0
 10 11  2  0
 10  9  1  0
 11  6  1  0
 12 15  1  0
 12 14  1  0
 13 12  1  0
 16  4  1  0
 17 16  2  0
 18 17  1  0
 19 18  2  0
 19 20  1  0
 20 21  2  0
 21 16  1  0
 22 20  1  0
  2 23  1  0
  3 24  1  0
  6 25  1  0
  7 26  1  0
 17 27  1  0
 18 28  1  0
 22 29  1  0
M  ISO  7  23  14  24  14  25  14  26  14  27  14  28  14  29   3
M  END
>  <minimizedAffinity>  (1) 
-4.88070536

>  <minimizedRMSD>  (1) 
0.032663215

$$$$
