
     RDKit          3D

 39 42  0  0  1  0  0  0  0  0999 V2000
   39.1260   22.6500   33.7550 C   0  0  1  0  0  0  0  0  0  0  0  0
   40.2480   22.1190   34.6880 C   0  0  0  0  0  0  0  0  0  0  0  0
   39.6980   23.5160   34.7750 C   0  0  1  0  0  0  0  0  0  0  0  0
   40.6970   24.5420   34.6040 N   0  0  0  0  0  0  0  0  0  0  0  0
   40.4820   25.7160   33.9100 C   0  0  0  0  0  0  0  0  0  0  0  0
   41.3900   26.7400   33.7540 C   0  0  0  0  0  0  0  0  0  0  0  0
   42.6250   26.5910   34.3370 C   0  0  0  0  0  0  0  0  0  0  0  0
   43.5630   27.6500   34.1730 N   0  0  0  0  0  0  0  0  0  0  0  0
   42.8920   25.4730   35.0230 N   0  0  0  0  0  0  0  0  0  0  0  0
   41.9420   24.5350   35.1190 C   0  0  0  0  0  0  0  0  0  0  0  0
   42.3800   23.5720   35.7970 O   0  0  0  0  0  0  0  0  0  0  0  0
   38.5700   22.2540   31.4180 C   0  0  0  0  0  0  0  0  0  0  0  0
   39.4820   22.6960   32.3110 C   0  0  0  0  0  0  0  0  0  0  0  0
   40.6530   23.2510   31.8670 C   0  0  0  0  0  0  0  0  0  0  0  0
   40.8810   23.3500   30.5410 N   0  0  0  0  0  0  0  0  0  0  0  0
   39.9670   22.9090   29.6450 C   0  0  0  0  0  0  0  0  0  0  0  0
   38.7960   22.3540   30.0800 N   0  0  0  0  0  0  0  0  0  0  0  0
   35.1030   21.6270   32.4480 C   0  0  0  0  0  0  0  0  0  0  0  0
   35.0820   20.2540   32.6190 C   0  0  0  0  0  0  0  0  0  0  0  0
   36.2610   19.5450   32.3830 C   0  0  0  0  0  0  0  0  0  0  0  0
   37.3280   20.2780   32.0040 N   0  0  0  0  0  0  0  0  0  0  0  0
   37.3220   21.6200   31.8440 C   0  0  0  0  0  0  0  0  0  0  0  0
   36.2220   22.2860   32.0640 N   0  0  0  0  0  0  0  0  0  0  0  0
   38.8610   23.9100   35.9960 C   0  0  0  0  0  0  0  0  0  0  0  0
   39.5480   23.4110   37.1090 F   0  0  0  0  0  0  0  0  0  0  0  0
   38.8700   25.2870   36.1300 F   0  0  0  0  0  0  0  0  0  0  0  0
   37.6090   23.4110   35.9900 F   0  0  0  0  0  0  0  0  0  0  0  0
   38.0790   22.4305   33.4990 H   0  0  0  0  0  0  0  0  0  0  0  0
   40.0208   21.3795   35.4700 H   0  0  0  0  0  0  0  0  0  0  0  0
   41.2396   21.6605   34.5594 H   0  0  0  0  0  0  0  0  0  0  0  0
   39.4964   25.8453   33.4390 H   0  0  0  0  0  0  0  0  0  0  0  0
   41.1353   27.6449   33.1829 H   0  0  0  0  0  0  0  0  0  0  0  0
   44.5001   27.5778   34.5943 H   0  0  0  0  0  0  0  0  0  0  0  0
   43.3043   28.4882   33.6331 H   0  0  0  0  0  0  0  0  0  0  0  0
   41.4021   23.6134   32.5865 H   0  0  0  0  0  0  0  0  0  0  0  0
   40.1667   22.9973   28.5669 H   0  0  0  0  0  0  0  0  0  0  0  0
   34.1823   22.2009   32.6296 H   0  0  0  0  0  0  0  0  0  0  0  0
   34.1631   19.7364   32.9317 H   0  0  0  0  0  0  0  0  0  0  0  0
   36.3167   18.4526   32.4993 H   0  0  0  0  0  0  0  0  0  0  0  0
  1  2  1  0
  1  3  1  0
  2  3  1  0
  3 24  1  1
  4  3  1  0
  4 10  1  0
  5  4  1  0
  6  5  2  0
  6  7  1  0
  7  9  2  0
  8  7  1  0
  9 10  1  0
 10 11  2  0
 12 22  1  0
 12 13  1  0
 13  1  1  0
 14 13  2  0
 15 14  1  0
 16 17  1  0
 16 15  2  0
 17 12  2  0
 18 19  2  0
 20 19  1  0
 21 20  2  0
 22 21  1  0
 22 23  2  0
 23 18  1  0
 24 26  1  0
 24 25  1  0
 27 24  1  0
  1 28  1  6
  2 29  1  0
  2 30  1  0
  5 31  1  0
  6 32  1  0
  8 33  1  0
  8 34  1  0
 14 35  1  0
 16 36  1  0
 18 37  1  0
 19 38  1  0
 20 39  1  0
M  ISO  8  28  13  29  13  30  13  31  14  32  14  35  14  36  14  37  14
M  ISO  2  38  14  39  14
M  END
>  <minimizedAffinity>  (1) 
-4.7767396

>  <minimizedRMSD>  (1) 
7.64145613

$$$$
