
     RDKit          3D

 42 45  0  0  1  0  0  0  0  0999 V2000
   38.5520   23.6060   33.1480 C   0  0  0  0  0  0  0  0  0  0  0  0
   39.6350   23.0700   33.7480 C   0  0  0  0  0  0  0  0  0  0  0  0
   39.9090   21.7380   33.5800 C   0  0  0  0  0  0  0  0  0  0  0  0
   39.0980   20.9780   32.8200 N   0  0  0  0  0  0  0  0  0  0  0  0
   38.0130   21.5180   32.2190 C   0  0  0  0  0  0  0  0  0  0  0  0
   37.7330   22.8500   32.3830 N   0  0  0  0  0  0  0  0  0  0  0  0
   38.1080   27.2270   32.6950 C   0  0  0  0  0  0  0  0  0  0  0  0
   37.4140   27.5850   33.8380 C   0  0  0  0  0  0  0  0  0  0  0  0
   37.1000   26.5910   34.7650 C   0  0  0  0  0  0  0  0  0  0  0  0
   37.5090   25.3410   34.4600 N   0  0  0  0  0  0  0  0  0  0  0  0
   38.1910   25.0150   33.3290 C   0  0  0  0  0  0  0  0  0  0  0  0
   38.4820   25.9510   32.4660 N   0  0  0  0  0  0  0  0  0  0  0  0
   40.5480   23.9990   34.4900 C   0  0  1  0  0  0  0  0  0  0  0  0
   40.2940   24.0700   36.0180 C   0  0  0  0  0  0  0  0  0  0  0  0
   41.5860   23.5330   35.4000 C   0  0  1  0  0  0  0  0  0  0  0  0
   41.7670   22.1670   35.7820 N   0  0  0  0  0  0  0  0  0  0  0  0
   41.1720   21.6990   36.9680 C   0  0  0  0  0  0  0  0  0  0  0  0
   42.0870   20.7830   37.8090 C   0  0  0  0  0  0  0  0  0  0  0  0
   42.6950   19.7400   37.0730 N   0  0  0  0  0  0  0  0  0  0  0  0
   42.7230   19.9900   35.6730 C   0  0  0  0  0  0  0  0  0  0  0  0
   42.9210   21.4730   35.4130 C   0  0  0  0  0  0  0  0  0  0  0  0
   42.8610   24.3410   35.5880 C   0  0  0  0  0  0  0  0  0  0  0  0
   43.3440   24.0490   36.8680 F   0  0  0  0  0  0  0  0  0  0  0  0
   43.8140   23.8900   34.6990 F   0  0  0  0  0  0  0  0  0  0  0  0
   42.6750   25.6830   35.5050 F   0  0  0  0  0  0  0  0  0  0  0  0
   40.7893   21.2907   34.0648 H   0  0  0  0  0  0  0  0  0  0  0  0
   37.3564   20.8893   31.5996 H   0  0  0  0  0  0  0  0  0  0  0  0
   38.3606   28.0014   31.9557 H   0  0  0  0  0  0  0  0  0  0  0  0
   37.1168   28.6298   34.0114 H   0  0  0  0  0  0  0  0  0  0  0  0
   36.5505   26.8130   35.6917 H   0  0  0  0  0  0  0  0  0  0  0  0
   40.5945   24.6864   33.6325 H   0  0  0  0  0  0  0  0  0  0  0  0
   40.2834   25.0387   36.5391 H   0  0  0  0  0  0  0  0  0  0  0  0
   39.5304   23.7002   36.7181 H   0  0  0  0  0  0  0  0  0  0  0  0
   40.8937   22.5682   37.5820 H   0  0  0  0  0  0  0  0  0  0  0  0
   40.3019   21.0949   36.6713 H   0  0  0  0  0  0  0  0  0  0  0  0
   42.8815   21.4015   38.2521 H   0  0  0  0  0  0  0  0  0  0  0  0
   41.4476   20.3054   38.5660 H   0  0  0  0  0  0  0  0  0  0  0  0
   43.6632   19.6251   37.4052 H   0  0  0  0  0  0  0  0  0  0  0  0
   43.5518   19.4270   35.2191 H   0  0  0  0  0  0  0  0  0  0  0  0
   41.7679   19.6707   35.2305 H   0  0  0  0  0  0  0  0  0  0  0  0
   43.7737   21.8385   36.0040 H   0  0  0  0  0  0  0  0  0  0  0  0
   43.1207   21.6349   34.3435 H   0  0  0  0  0  0  0  0  0  0  0  0
  1 11  1  0
  1  2  1  0
  2 13  1  0
  3  2  2  0
  4  3  1  0
  5  6  1  0
  5  4  2  0
  6  1  2  0
  7  8  2  0
  8  9  1  0
 10  9  2  0
 11 10  1  0
 12  7  1  0
 12 11  2  0
 13 15  1  0
 13 14  1  0
 15 22  1  1
 15 16  1  0
 15 14  1  0
 16 17  1  0
 17 18  1  0
 19 18  1  0
 20 19  1  0
 21 20  1  0
 21 16  1  0
 22 23  1  0
 24 22  1  0
 25 22  1  0
  3 26  1  0
  5 27  1  0
  7 28  1  0
  8 29  1  0
  9 30  1  0
 13 31  1  6
 14 32  1  0
 14 33  1  0
 17 34  1  0
 17 35  1  0
 18 36  1  0
 18 37  1  0
 19 38  1  0
 20 39  1  0
 20 40  1  0
 21 41  1  0
 21 42  1  0
M  ISO  8  26  14  27  14  28  14  29  14  30  14  31  13  32  13  33  13
M  ISO  8  34  13  35  13  36  13  37  13  38   5  39  13  40  13  41  13
M  ISO  1  42  13
M  END
>  <minimizedAffinity>  (1) 
-4.1144228

>  <minimizedRMSD>  (1) 
7.63970518

$$$$
