
     RDKit          3D

 35 38  0  0  1  0  0  0  0  0999 V2000
   38.1430   24.8710   32.3940 C   0  0  0  0  0  0  0  0  0  0  0  0
   38.3640   25.2790   31.1240 C   0  0  0  0  0  0  0  0  0  0  0  0
   38.4750   24.3470   30.1310 C   0  0  0  0  0  0  0  0  0  0  0  0
   38.3610   23.0350   30.4230 N   0  0  0  0  0  0  0  0  0  0  0  0
   38.1390   22.6290   31.6950 C   0  0  0  0  0  0  0  0  0  0  0  0
   38.0270   23.5560   32.6980 N   0  0  0  0  0  0  0  0  0  0  0  0
   36.9910   27.3860   34.8160 C   0  0  0  0  0  0  0  0  0  0  0  0
   38.0960   27.5360   35.6350 C   0  0  0  0  0  0  0  0  0  0  0  0
   39.2370   26.7820   35.3610 C   0  0  0  0  0  0  0  0  0  0  0  0
   39.1560   25.9550   34.2960 N   0  0  0  0  0  0  0  0  0  0  0  0
   38.0590   25.8240   33.5060 C   0  0  0  0  0  0  0  0  0  0  0  0
   36.9950   26.5330   33.7680 N   0  0  0  0  0  0  0  0  0  0  0  0
   38.3660   26.7510   30.8620 C   0  0  1  0  0  0  0  0  0  0  0  0
   39.6670   27.4760   31.3110 C   0  0  0  0  0  0  0  0  0  0  0  0
   39.2270   27.4030   29.8770 C   0  0  1  0  0  0  0  0  0  0  0  0
   40.2370   26.7180   29.0340 C   0  0  0  0  0  0  0  0  0  0  0  0
   41.5750   26.2780   29.3280 C   0  0  0  0  0  0  0  0  0  0  0  0
   42.2110   25.6730   28.2850 C   0  0  0  0  0  0  0  0  0  0  0  0
   41.6410   25.4930   27.0640 C   0  0  0  0  0  0  0  0  0  0  0  0
   39.9880   26.2110   27.2220 S   0  0  0  0  0  0  0  0  0  0  0  0
   38.7490   28.6590   29.1580 C   0  0  0  0  0  0  0  0  0  0  0  0
   38.2890   29.5190   30.1580 F   0  0  0  0  0  0  0  0  0  0  0  0
   39.8470   29.2990   28.5870 F   0  0  0  0  0  0  0  0  0  0  0  0
   37.7550   28.4350   28.2750 F   0  0  0  0  0  0  0  0  0  0  0  0
   38.6572   24.6663   29.0943 H   0  0  0  0  0  0  0  0  0  0  0  0
   38.0486   21.5567   31.9232 H   0  0  0  0  0  0  0  0  0  0  0  0
   36.0862   27.9762   35.0233 H   0  0  0  0  0  0  0  0  0  0  0  0
   38.0751   28.2350   36.4841 H   0  0  0  0  0  0  0  0  0  0  0  0
   40.1470   26.8563   35.9745 H   0  0  0  0  0  0  0  0  0  0  0  0
   37.2791   26.8063   31.0223 H   0  0  0  0  0  0  0  0  0  0  0  0
   39.6141   28.4259   31.8631 H   0  0  0  0  0  0  0  0  0  0  0  0
   40.5698   27.2085   31.8797 H   0  0  0  0  0  0  0  0  0  0  0  0
   42.0455   26.4181   30.3124 H   0  0  0  0  0  0  0  0  0  0  0  0
   43.2385   25.3118   28.4393 H   0  0  0  0  0  0  0  0  0  0  0  0
   42.0857   25.0170   26.1776 H   0  0  0  0  0  0  0  0  0  0  0  0
  1  6  1  0
  1 11  1  0
  2  1  2  0
  3  4  2  0
  3  2  1  0
  4  5  1  0
  5  6  2  0
  7  8  2  0
  9  8  1  0
 10  9  2  0
 11 12  2  0
 11 10  1  0
 12  7  1  0
 13  2  1  0
 13 14  1  0
 15 21  1  6
 15 13  1  0
 15 14  1  0
 16 17  2  0
 16 15  1  0
 18 17  1  0
 19 20  1  0
 19 18  2  0
 20 16  1  0
 21 22  1  0
 23 21  1  0
 24 21  1  0
  3 25  1  0
  5 26  1  0
  7 27  1  0
  8 28  1  0
  9 29  1  0
 13 30  1  1
 14 31  1  0
 14 32  1  0
 17 33  1  0
 18 34  1  0
 19 35  1  0
M  ISO  8  25  14  26  14  27  14  28  14  29  14  30  13  31  13  32  13
M  ISO  3  33  14  34  14  35  14
M  END
>  <minimizedAffinity>  (1) 
-4.02488708

>  <minimizedRMSD>  (1) 
7.40576267

$$$$
