
     RDKit          3D

 45 49  0  0  1  0  0  0  0  0999 V2000
   38.3610   23.2070   32.8040 C   0  0  1  0  0  0  0  0  0  0  0  0
   37.9620   22.3100   34.0550 C   0  0  0  0  0  0  0  0  0  0  0  0
   38.5670   21.7790   32.7770 C   0  0  1  0  0  0  0  0  0  0  0  0
   37.0170   25.2220   32.5230 C   0  0  0  0  0  0  0  0  0  0  0  0
   37.2030   23.9250   32.2130 C   0  0  0  0  0  0  0  0  0  0  0  0
   36.3800   23.3440   31.2910 C   0  0  0  0  0  0  0  0  0  0  0  0
   35.4050   24.0490   30.7050 N   0  0  0  0  0  0  0  0  0  0  0  0
   35.2190   25.3600   31.0180 C   0  0  0  0  0  0  0  0  0  0  0  0
   36.0360   25.9540   31.9390 N   0  0  0  0  0  0  0  0  0  0  0  0
   39.6710   27.0650   34.2780 C   0  0  0  0  0  0  0  0  0  0  0  0
   39.2190   27.0940   35.5720 C   0  0  0  0  0  0  0  0  0  0  0  0
   38.0100   26.4830   35.8550 C   0  0  0  0  0  0  0  0  0  0  0  0
   37.3840   25.9100   34.8110 N   0  0  0  0  0  0  0  0  0  0  0  0
   37.8510   25.8940   33.5310 C   0  0  0  0  0  0  0  0  0  0  0  0
   38.9800   26.4670   33.2790 N   0  0  0  0  0  0  0  0  0  0  0  0
   37.6130   20.7880   32.1510 C   0  0  0  0  0  0  0  0  0  0  0  0
   36.3590   20.3260   32.6470 C   0  0  0  0  0  0  0  0  0  0  0  0
   35.8160   19.4270   31.7570 C   0  0  0  0  0  0  0  0  0  0  0  0
   36.7380   19.3620   30.7480 C   0  0  0  0  0  0  0  0  0  0  0  0
   37.7280   20.1250   30.9890 O   0  0  0  0  0  0  0  0  0  0  0  0
   36.6030   18.5400   29.5790 N   0  0  0  0  0  0  0  0  0  0  0  0
   36.4870   19.1030   28.3610 C   0  0  0  0  0  0  0  0  0  0  0  0
   36.3540   18.3130   27.2130 C   0  0  0  0  0  0  0  0  0  0  0  0
   36.3420   16.9320   27.3380 C   0  0  0  0  0  0  0  0  0  0  0  0
   36.2260   16.1670   26.3460 O   0  0  0  0  0  0  0  0  0  0  0  0
   36.4610   16.4200   28.5810 N   0  0  0  0  0  0  0  0  0  0  0  0
   36.5900   17.1890   29.6960 C   0  0  0  0  0  0  0  0  0  0  0  0
   36.6980   16.6480   30.8270 O   0  0  0  0  0  0  0  0  0  0  0  0
   39.9590   21.1890   32.7570 C   0  0  0  0  0  0  0  0  0  0  0  0
   39.8070   19.8090   32.6430 F   0  0  0  0  0  0  0  0  0  0  0  0
   40.5810   21.5890   31.5670 F   0  0  0  0  0  0  0  0  0  0  0  0
   40.6780   21.4630   33.8590 F   0  0  0  0  0  0  0  0  0  0  0  0
   39.0397   24.0251   32.5211 H   0  0  0  0  0  0  0  0  0  0  0  0
   38.5509   22.3460   34.9834 H   0  0  0  0  0  0  0  0  0  0  0  0
   37.0592   22.1235   34.6551 H   0  0  0  0  0  0  0  0  0  0  0  0
   36.5200   22.2853   31.0272 H   0  0  0  0  0  0  0  0  0  0  0  0
   34.4176   25.9373   30.5338 H   0  0  0  0  0  0  0  0  0  0  0  0
   40.6318   27.5460   34.0424 H   0  0  0  0  0  0  0  0  0  0  0  0
   39.8011   27.5891   36.3632 H   0  0  0  0  0  0  0  0  0  0  0  0
   37.5871   26.4668   36.8703 H   0  0  0  0  0  0  0  0  0  0  0  0
   35.8966   20.6394   33.5946 H   0  0  0  0  0  0  0  0  0  0  0  0
   34.8617   18.8860   31.8382 H   0  0  0  0  0  0  0  0  0  0  0  0
   36.4969   20.1989   28.2670 H   0  0  0  0  0  0  0  0  0  0  0  0
   36.2600   18.7825   26.2227 H   0  0  0  0  0  0  0  0  0  0  0  0
   36.4538   15.3959   28.6911 H   0  0  0  0  0  0  0  0  0  0  0  0
  1  2  1  0
  3 29  1  1
  3  1  1  0
  3  2  1  0
  4 14  1  0
  5  4  1  0
  5  1  1  0
  6  5  2  0
  7  8  2  0
  7  6  1  0
  8  9  1  0
  9  4  2  0
 10 11  2  0
 11 12  1  0
 13 12  2  0
 14 13  1  0
 15 14  2  0
 15 10  1  0
 16 17  2  0
 16  3  1  0
 18 17  1  0
 19 20  1  0
 19 18  2  0
 20 16  1  0
 21 27  1  0
 21 19  1  0
 22 21  1  0
 23 24  1  0
 23 22  2  0
 24 26  1  0
 25 24  2  0
 26 27  1  0
 27 28  2  0
 29 32  1  0
 30 29  1  0
 31 29  1  0
  1 33  1  1
  2 34  1  0
  2 35  1  0
  6 36  1  0
  8 37  1  0
 10 38  1  0
 11 39  1  0
 12 40  1  0
 17 41  1  0
 18 42  1  0
 22 43  1  0
 23 44  1  0
 26 45  1  0
M  ISO  8  33  13  34  13  35  13  36  14  37  14  38  14  39  14  40  14
M  ISO  5  41  14  42  14  43  14  44  14  45   9
M  END
>  <minimizedAffinity>  (1) 
-5.28764486

>  <minimizedRMSD>  (1) 
1.01565897

$$$$
