
     RDKit          3D

 48 52  0  0  1  0  0  0  0  0999 V2000
   38.3770   23.2360   32.8360 C   0  0  1  0  0  0  0  0  0  0  0  0
   37.9960   22.3950   34.1290 C   0  0  0  0  0  0  0  0  0  0  0  0
   38.5710   21.8050   32.8650 C   0  0  1  0  0  0  0  0  0  0  0  0
   37.0160   25.2400   32.5430 C   0  0  0  0  0  0  0  0  0  0  0  0
   37.2060   23.9450   32.2320 C   0  0  0  0  0  0  0  0  0  0  0  0
   36.3970   23.3540   31.3180 C   0  0  0  0  0  0  0  0  0  0  0  0
   35.4170   24.0470   30.7280 N   0  0  0  0  0  0  0  0  0  0  0  0
   35.2210   25.3570   31.0380 C   0  0  0  0  0  0  0  0  0  0  0  0
   36.0300   25.9580   31.9550 N   0  0  0  0  0  0  0  0  0  0  0  0
   39.6680   27.0800   34.3100 C   0  0  0  0  0  0  0  0  0  0  0  0
   39.1920   27.1410   35.5940 C   0  0  0  0  0  0  0  0  0  0  0  0
   37.9690   26.5550   35.8670 C   0  0  0  0  0  0  0  0  0  0  0  0
   37.3550   25.9720   34.8230 N   0  0  0  0  0  0  0  0  0  0  0  0
   37.8430   25.9220   33.5520 C   0  0  0  0  0  0  0  0  0  0  0  0
   38.9860   26.4720   33.3090 N   0  0  0  0  0  0  0  0  0  0  0  0
   37.5950   20.8030   32.2950 C   0  0  0  0  0  0  0  0  0  0  0  0
   36.3420   20.3800   32.8250 C   0  0  0  0  0  0  0  0  0  0  0  0
   35.7720   19.4560   31.9820 C   0  0  0  0  0  0  0  0  0  0  0  0
   36.6790   19.3340   30.9630 C   0  0  0  0  0  0  0  0  0  0  0  0
   37.6880   20.0910   31.1610 O   0  0  0  0  0  0  0  0  0  0  0  0
   36.5830   18.4880   29.7960 N   0  0  0  0  0  0  0  0  0  0  0  0
   36.4850   19.0860   28.5740 C   0  0  0  0  0  0  0  0  0  0  0  0
   36.3970   18.2180   27.4970 C   0  0  0  0  0  0  0  0  0  0  0  0
   36.2890   18.8000   26.1400 C   0  0  0  0  0  0  0  0  0  0  0  0
   36.4080   16.8520   27.6520 C   0  0  0  0  0  0  0  0  0  0  0  0
   36.3240   16.1100   26.6360 O   0  0  0  0  0  0  0  0  0  0  0  0
   36.5060   16.3560   28.8950 N   0  0  0  0  0  0  0  0  0  0  0  0
   36.5970   17.1560   29.9970 C   0  0  0  0  0  0  0  0  0  0  0  0
   36.6890   16.6920   31.1480 O   0  0  0  0  0  0  0  0  0  0  0  0
   39.9570   21.2050   32.8310 C   0  0  0  0  0  0  0  0  0  0  0  0
   39.7900   19.8300   32.6750 F   0  0  0  0  0  0  0  0  0  0  0  0
   40.5930   21.6330   31.6580 F   0  0  0  0  0  0  0  0  0  0  0  0
   40.6730   21.4380   33.9440 F   0  0  0  0  0  0  0  0  0  0  0  0
   39.0563   24.0362   32.5069 H   0  0  0  0  0  0  0  0  0  0  0  0
   38.6031   22.4644   35.0436 H   0  0  0  0  0  0  0  0  0  0  0  0
   37.1033   22.2417   34.7532 H   0  0  0  0  0  0  0  0  0  0  0  0
   36.5481   22.2955   31.0597 H   0  0  0  0  0  0  0  0  0  0  0  0
   34.4154   25.9269   30.5520 H   0  0  0  0  0  0  0  0  0  0  0  0
   40.6403   27.5420   34.0835 H   0  0  0  0  0  0  0  0  0  0  0  0
   39.7672   27.6426   36.3862 H   0  0  0  0  0  0  0  0  0  0  0  0
   37.5271   26.5655   36.8743 H   0  0  0  0  0  0  0  0  0  0  0  0
   35.8983   20.7383   33.7656 H   0  0  0  0  0  0  0  0  0  0  0  0
   34.8102   18.9352   32.0987 H   0  0  0  0  0  0  0  0  0  0  0  0
   36.4764   20.1792   28.4520 H   0  0  0  0  0  0  0  0  0  0  0  0
   36.0888   19.8788   26.2186 H   0  0  0  0  0  0  0  0  0  0  0  0
   37.2320   18.6407   25.5966 H   0  0  0  0  0  0  0  0  0  0  0  0
   35.4659   18.3130   25.5966 H   0  0  0  0  0  0  0  0  0  0  0  0
   36.5128   15.3339   29.0221 H   0  0  0  0  0  0  0  0  0  0  0  0
  1  3  1  0
  1  2  1  0
  3 30  1  1
  3  2  1  0
  4 14  1  0
  5  4  1  0
  5  1  1  0
  6  5  2  0
  7  8  2  0
  7  6  1  0
  8  9  1  0
  9  4  2  0
 10 11  2  0
 11 12  1  0
 13 12  2  0
 14 13  1  0
 15 14  2  0
 15 10  1  0
 16 17  2  0
 16  3  1  0
 18 17  1  0
 19 20  1  0
 19 18  2  0
 20 16  1  0
 21 28  1  0
 21 19  1  0
 22 21  1  0
 23 25  1  0
 23 22  2  0
 24 23  1  0
 25 27  1  0
 26 25  2  0
 27 28  1  0
 28 29  2  0
 30 33  1  0
 31 30  1  0
 32 30  1  0
  1 34  1  1
  2 35  1  0
  2 36  1  0
  6 37  1  0
  8 38  1  0
 10 39  1  0
 11 40  1  0
 12 41  1  0
 17 42  1  0
 18 43  1  0
 22 44  1  0
 24 45  1  0
 24 46  1  0
 24 47  1  0
 27 48  1  0
M  ISO  8  34  13  35  13  36  13  37  14  38  14  39  14  40  14  41  14
M  ISO  7  42  14  43  14  44  14  45   8  46   8  47   8  48   9
M  END
>  <minimizedAffinity>  (1) 
-5.54385185

>  <minimizedRMSD>  (1) 
1.03046858

$$$$
