
     RDKit          3D

 45 49  0  0  1  0  0  0  0  0999 V2000
   38.3530   23.1600   32.7920 C   0  0  1  0  0  0  0  0  0  0  0  0
   37.9720   22.2670   34.0480 C   0  0  0  0  0  0  0  0  0  0  0  0
   38.5860   21.7380   32.7730 C   0  0  1  0  0  0  0  0  0  0  0  0
   36.9900   25.1590   32.4720 C   0  0  0  0  0  0  0  0  0  0  0  0
   37.1750   23.8590   32.1920 C   0  0  0  0  0  0  0  0  0  0  0  0
   36.3490   23.2450   31.3020 C   0  0  0  0  0  0  0  0  0  0  0  0
   35.3620   23.9270   30.7110 N   0  0  0  0  0  0  0  0  0  0  0  0
   35.1710   25.2440   30.9910 C   0  0  0  0  0  0  0  0  0  0  0  0
   35.9960   25.8670   31.8830 N   0  0  0  0  0  0  0  0  0  0  0  0
   39.6510   27.0650   34.1530 C   0  0  0  0  0  0  0  0  0  0  0  0
   39.2100   27.1220   35.4510 C   0  0  0  0  0  0  0  0  0  0  0  0
   38.0100   26.5100   35.7610 C   0  0  0  0  0  0  0  0  0  0  0  0
   37.3770   25.9070   34.7380 N   0  0  0  0  0  0  0  0  0  0  0  0
   37.8320   25.8620   33.4540 C   0  0  0  0  0  0  0  0  0  0  0  0
   38.9540   26.4360   33.1770 N   0  0  0  0  0  0  0  0  0  0  0  0
   37.6490   20.7260   32.1530 C   0  0  0  0  0  0  0  0  0  0  0  0
   36.4100   20.2360   32.6630 C   0  0  0  0  0  0  0  0  0  0  0  0
   35.8760   19.3300   31.7760 C   0  0  0  0  0  0  0  0  0  0  0  0
   36.7880   19.2860   30.7570 C   0  0  0  0  0  0  0  0  0  0  0  0
   37.7650   20.0690   30.9900 O   0  0  0  0  0  0  0  0  0  0  0  0
   36.6880   18.4640   29.5500 C   0  0  0  0  0  0  0  0  0  0  0  0
   36.5420   19.0530   28.3090 C   0  0  0  0  0  0  0  0  0  0  0  0
   36.4460   18.2870   27.1650 C   0  0  0  0  0  0  0  0  0  0  0  0
   36.5050   16.9180   27.3320 C   0  0  0  0  0  0  0  0  0  0  0  0
   36.6500   16.2570   28.5440 C   0  0  0  0  0  0  0  0  0  0  0  0
   36.7380   17.0880   29.6440 C   0  0  0  0  0  0  0  0  0  0  0  0
   39.9870   21.1730   32.7520 C   0  0  0  0  0  0  0  0  0  0  0  0
   39.8560   19.7890   32.6390 F   0  0  0  0  0  0  0  0  0  0  0  0
   40.6020   21.5850   31.5620 F   0  0  0  0  0  0  0  0  0  0  0  0
   40.7020   21.4590   33.8530 F   0  0  0  0  0  0  0  0  0  0  0  0
   39.0164   23.9887   32.5034 H   0  0  0  0  0  0  0  0  0  0  0  0
   38.5608   22.3207   34.9756 H   0  0  0  0  0  0  0  0  0  0  0  0
   37.0732   22.0683   34.6503 H   0  0  0  0  0  0  0  0  0  0  0  0
   36.4941   22.1802   31.0670 H   0  0  0  0  0  0  0  0  0  0  0  0
   34.3587   25.8027   30.5030 H   0  0  0  0  0  0  0  0  0  0  0  0
   40.6054   27.5477   33.8958 H   0  0  0  0  0  0  0  0  0  0  0  0
   39.7957   27.6408   36.2242 H   0  0  0  0  0  0  0  0  0  0  0  0
   37.5979   26.5155   36.7809 H   0  0  0  0  0  0  0  0  0  0  0  0
   35.9526   20.5360   33.6173 H   0  0  0  0  0  0  0  0  0  0  0  0
   34.9333   18.7702   31.8654 H   0  0  0  0  0  0  0  0  0  0  0  0
   36.5016   20.1495   28.2314 H   0  0  0  0  0  0  0  0  0  0  0  0
   36.3285   18.7439   26.1713 H   0  0  0  0  0  0  0  0  0  0  0  0
   36.4307   16.2975   26.4268 H   0  0  0  0  0  0  0  0  0  0  0  0
   36.6915   15.1606   28.6222 H   0  0  0  0  0  0  0  0  0  0  0  0
   36.8530   16.6329   30.6388 H   0  0  0  0  0  0  0  0  0  0  0  0
  1  2  1  0
  3 27  1  1
  3  1  1  0
  3  2  1  0
  4 14  1  0
  5  4  1  0
  5  1  1  0
  6  5  2  0
  7  8  2  0
  7  6  1  0
  8  9  1  0
  9  4  2  0
 10 11  2  0
 11 12  1  0
 13 12  2  0
 14 13  1  0
 15 14  2  0
 15 10  1  0
 16 17  2  0
 16  3  1  0
 18 17  1  0
 19 20  1  0
 19 18  2  0
 20 16  1  0
 21 26  1  0
 21 19  1  0
 22 21  2  0
 23 24  2  0
 23 22  1  0
 24 25  1  0
 25 26  2  0
 27 30  1  0
 28 27  1  0
 29 27  1  0
  1 31  1  1
  2 32  1  0
  2 33  1  0
  6 34  1  0
  8 35  1  0
 10 36  1  0
 11 37  1  0
 12 38  1  0
 17 39  1  0
 18 40  1  0
 22 41  1  0
 23 42  1  0
 24 43  1  0
 25 44  1  0
 26 45  1  0
M  ISO  8  31  13  32  13  33  13  34  14  35  14  36  14  37  14  38  14
M  ISO  7  39  14  40  14  41  14  42  14  43  14  44  14  45  14
M  END
>  <minimizedAffinity>  (1) 
-5.18819714

>  <minimizedRMSD>  (1) 
0.979784846

$$$$
