
     RDKit          3D

 43 47  0  0  1  0  0  0  0  0999 V2000
   38.3200   23.1410   32.7960 C   0  0  1  0  0  0  0  0  0  0  0  0
   37.9300   22.2290   34.0390 C   0  0  0  0  0  0  0  0  0  0  0  0
   38.5610   21.7190   32.7640 C   0  0  1  0  0  0  0  0  0  0  0  0
   36.9650   25.1420   32.4660 C   0  0  0  0  0  0  0  0  0  0  0  0
   37.1470   23.8350   32.1950 C   0  0  0  0  0  0  0  0  0  0  0  0
   36.3160   23.2190   31.3090 C   0  0  0  0  0  0  0  0  0  0  0  0
   35.3310   23.9020   30.7130 N   0  0  0  0  0  0  0  0  0  0  0  0
   35.1460   25.2230   30.9850 C   0  0  0  0  0  0  0  0  0  0  0  0
   35.9710   25.8500   31.8700 N   0  0  0  0  0  0  0  0  0  0  0  0
   39.6320   27.0590   34.1190 C   0  0  0  0  0  0  0  0  0  0  0  0
   39.2030   27.1180   35.4190 C   0  0  0  0  0  0  0  0  0  0  0  0
   38.0050   26.5040   35.7440 C   0  0  0  0  0  0  0  0  0  0  0  0
   37.3660   25.8960   34.7280 N   0  0  0  0  0  0  0  0  0  0  0  0
   37.8100   25.8490   33.4390 C   0  0  0  0  0  0  0  0  0  0  0  0
   38.9280   26.4260   33.1500 N   0  0  0  0  0  0  0  0  0  0  0  0
   37.6360   20.7090   32.1250 C   0  0  0  0  0  0  0  0  0  0  0  0
   36.4140   20.1750   32.6290 C   0  0  0  0  0  0  0  0  0  0  0  0
   35.8930   19.2850   31.7180 C   0  0  0  0  0  0  0  0  0  0  0  0
   36.7950   19.2930   30.6910 C   0  0  0  0  0  0  0  0  0  0  0  0
   37.7550   20.0890   30.9400 O   0  0  0  0  0  0  0  0  0  0  0  0
   36.6830   18.4980   29.4670 C   0  0  0  0  0  0  0  0  0  0  0  0
   36.8100   17.1240   29.5050 C   0  0  0  0  0  0  0  0  0  0  0  0
   36.6900   16.4360   28.2930 C   0  0  0  0  0  0  0  0  0  0  0  0
   36.4630   17.0650   27.1410 N   0  0  0  0  0  0  0  0  0  0  0  0
   36.3390   18.4040   27.1110 C   0  0  0  0  0  0  0  0  0  0  0  0
   36.4550   19.0520   28.2660 N   0  0  0  0  0  0  0  0  0  0  0  0
   39.9670   21.1630   32.7540 C   0  0  0  0  0  0  0  0  0  0  0  0
   39.8470   19.7800   32.6340 F   0  0  0  0  0  0  0  0  0  0  0  0
   40.5890   21.5820   31.5690 F   0  0  0  0  0  0  0  0  0  0  0  0
   40.6710   21.4490   33.8610 F   0  0  0  0  0  0  0  0  0  0  0  0
   38.9816   23.9766   32.5239 H   0  0  0  0  0  0  0  0  0  0  0  0
   38.5084   22.2748   34.9735 H   0  0  0  0  0  0  0  0  0  0  0  0
   37.0260   22.0178   34.6290 H   0  0  0  0  0  0  0  0  0  0  0  0
   36.4554   22.1519   31.0814 H   0  0  0  0  0  0  0  0  0  0  0  0
   34.3354   25.7809   30.4934 H   0  0  0  0  0  0  0  0  0  0  0  0
   40.5829   27.5434   33.8524 H   0  0  0  0  0  0  0  0  0  0  0  0
   39.7952   27.6399   36.1851 H   0  0  0  0  0  0  0  0  0  0  0  0
   37.6016   26.5128   36.7673 H   0  0  0  0  0  0  0  0  0  0  0  0
   35.9583   20.4342   33.5960 H   0  0  0  0  0  0  0  0  0  0  0  0
   34.9641   18.7012   31.7979 H   0  0  0  0  0  0  0  0  0  0  0  0
   36.9978   16.5921   30.4494 H   0  0  0  0  0  0  0  0  0  0  0  0
   36.7862   15.3402   28.2912 H   0  0  0  0  0  0  0  0  0  0  0  0
   36.1494   18.9407   26.1697 H   0  0  0  0  0  0  0  0  0  0  0  0
  1  2  1  0
  3 27  1  1
  3  1  1  0
  3  2  1  0
  4 14  1  0
  5  4  1  0
  5  1  1  0
  6  5  2  0
  7  8  2  0
  7  6  1  0
  8  9  1  0
  9  4  2  0
 10 11  2  0
 11 12  1  0
 13 12  2  0
 14 13  1  0
 15 14  2  0
 15 10  1  0
 16 17  2  0
 16  3  1  0
 18 17  1  0
 19 20  1  0
 19 18  2  0
 20 16  1  0
 21 22  2  0
 21 19  1  0
 23 22  1  0
 24 23  2  0
 25 24  1  0
 25 26  2  0
 26 21  1  0
 27 30  1  0
 28 27  1  0
 29 27  1  0
  1 31  1  1
  2 32  1  0
  2 33  1  0
  6 34  1  0
  8 35  1  0
 10 36  1  0
 11 37  1  0
 12 38  1  0
 17 39  1  0
 18 40  1  0
 22 41  1  0
 23 42  1  0
 25 43  1  0
M  ISO  8  31  13  32  13  33  13  34  14  35  14  36  14  37  14  38  14
M  ISO  5  39  14  40  14  41  14  42  14  43  14
M  END
>  <minimizedAffinity>  (1) 
-5.08280373

>  <minimizedRMSD>  (1) 
0.985020161

$$$$
