
     RDKit          3D

 46 51  0  0  1  0  0  0  0  0999 V2000
   38.2980   23.1440   32.8010 C   0  0  1  0  0  0  0  0  0  0  0  0
   37.8960   22.2290   34.0360 C   0  0  0  0  0  0  0  0  0  0  0  0
   38.5290   21.7220   32.7630 C   0  0  1  0  0  0  0  0  0  0  0  0
   36.9620   25.1580   32.4650 C   0  0  0  0  0  0  0  0  0  0  0  0
   37.1270   23.8510   32.1930 C   0  0  0  0  0  0  0  0  0  0  0  0
   36.2950   23.2420   31.3100 C   0  0  0  0  0  0  0  0  0  0  0  0
   35.3180   23.9330   30.7120 N   0  0  0  0  0  0  0  0  0  0  0  0
   35.1460   25.2560   30.9810 C   0  0  0  0  0  0  0  0  0  0  0  0
   35.9780   25.8770   31.8680 N   0  0  0  0  0  0  0  0  0  0  0  0
   39.6380   27.0550   34.1270 C   0  0  0  0  0  0  0  0  0  0  0  0
   39.2100   27.1120   35.4280 C   0  0  0  0  0  0  0  0  0  0  0  0
   38.0090   26.5050   35.7480 C   0  0  0  0  0  0  0  0  0  0  0  0
   37.3650   25.9040   34.7290 N   0  0  0  0  0  0  0  0  0  0  0  0
   37.8110   25.8590   33.4400 C   0  0  0  0  0  0  0  0  0  0  0  0
   38.9320   26.4290   33.1560 N   0  0  0  0  0  0  0  0  0  0  0  0
   37.6010   20.7210   32.1120 C   0  0  0  0  0  0  0  0  0  0  0  0
   36.3560   20.2200   32.5910 C   0  0  0  0  0  0  0  0  0  0  0  0
   35.8400   19.3250   31.6800 C   0  0  0  0  0  0  0  0  0  0  0  0
   36.7700   19.2990   30.6770 C   0  0  0  0  0  0  0  0  0  0  0  0
   37.7390   20.0810   30.9420 O   0  0  0  0  0  0  0  0  0  0  0  0
   36.6870   18.5060   29.4790 N   0  0  0  0  0  0  0  0  0  0  0  0
   36.5450   18.9790   28.2230 C   0  0  0  0  0  0  0  0  0  0  0  0
   36.5070   17.9250   27.3800 N   0  0  0  0  0  0  0  0  0  0  0  0
   36.6250   16.8030   28.1230 C   0  0  0  0  0  0  0  0  0  0  0  0
   36.6330   15.5080   27.6470 C   0  0  0  0  0  0  0  0  0  0  0  0
   36.7660   14.5450   28.6040 N   0  0  0  0  0  0  0  0  0  0  0  0
   36.8760   14.8950   29.8990 C   0  0  0  0  0  0  0  0  0  0  0  0
   36.8690   16.1760   30.3700 N   0  0  0  0  0  0  0  0  0  0  0  0
   36.7400   17.1610   29.4500 C   0  0  0  0  0  0  0  0  0  0  0  0
   39.9300   21.1560   32.7560 C   0  0  0  0  0  0  0  0  0  0  0  0
   39.8040   19.7750   32.6290 F   0  0  0  0  0  0  0  0  0  0  0  0
   40.5610   21.5780   31.5770 F   0  0  0  0  0  0  0  0  0  0  0  0
   40.6320   21.4330   33.8670 F   0  0  0  0  0  0  0  0  0  0  0  0
   38.9664   23.9769   32.5376 H   0  0  0  0  0  0  0  0  0  0  0  0
   38.4701   22.2658   34.9736 H   0  0  0  0  0  0  0  0  0  0  0  0
   36.9876   22.0210   34.6204 H   0  0  0  0  0  0  0  0  0  0  0  0
   36.4250   22.1732   31.0847 H   0  0  0  0  0  0  0  0  0  0  0  0
   34.3420   25.8214   30.4871 H   0  0  0  0  0  0  0  0  0  0  0  0
   40.5911   27.5360   33.8619 H   0  0  0  0  0  0  0  0  0  0  0  0
   39.8054   27.6265   36.1966 H   0  0  0  0  0  0  0  0  0  0  0  0
   37.6049   26.5126   36.7711 H   0  0  0  0  0  0  0  0  0  0  0  0
   35.8805   20.5041   33.5414 H   0  0  0  0  0  0  0  0  0  0  0  0
   34.8976   18.7613   31.7441 H   0  0  0  0  0  0  0  0  0  0  0  0
   36.4728   20.0385   27.9361 H   0  0  0  0  0  0  0  0  0  0  0  0
   36.5393   15.2702   26.5771 H   0  0  0  0  0  0  0  0  0  0  0  0
   36.9797   14.0848   30.6358 H   0  0  0  0  0  0  0  0  0  0  0  0
  1  2  1  0
  3 30  1  1
  3  1  1  0
  3  2  1  0
  4 14  1  0
  5  4  1  0
  5  1  1  0
  6  5  2  0
  7  8  2  0
  7  6  1  0
  8  9  1  0
  9  4  2  0
 10 11  2  0
 11 12  1  0
 13 12  2  0
 14 13  1  0
 15 14  2  0
 15 10  1  0
 16 17  2  0
 16  3  1  0
 18 17  1  0
 19 20  1  0
 19 18  2  0
 20 16  1  0
 21 19  1  0
 22 21  1  0
 23 24  1  0
 23 22  2  0
 24 29  2  0
 25 24  1  0
 25 26  2  0
 26 27  1  0
 27 28  2  0
 29 21  1  0
 29 28  1  0
 30 33  1  0
 31 30  1  0
 32 30  1  0
  1 34  1  1
  2 35  1  0
  2 36  1  0
  6 37  1  0
  8 38  1  0
 10 39  1  0
 11 40  1  0
 12 41  1  0
 17 42  1  0
 18 43  1  0
 22 44  1  0
 25 45  1  0
 27 46  1  0
M  ISO  8  34  13  35  13  36  13  37  14  38  14  39  14  40  14  41  14
M  ISO  5  42  14  43  14  44  14  45  14  46  14
M  END
>  <minimizedAffinity>  (1) 
-5.21122026

>  <minimizedRMSD>  (1) 
0.9868536

$$$$
