
     RDKit          3D

 37 40  0  0  1  0  0  0  0  0999 V2000
   38.1460   23.2070   32.7820 C   0  0  1  0  0  0  0  0  0  0  0  0
   37.6920   22.2720   33.9840 C   0  0  0  0  0  0  0  0  0  0  0  0
   38.3200   21.7780   32.7040 C   0  0  1  0  0  0  0  0  0  0  0  0
   36.9190   25.2910   32.4680 C   0  0  0  0  0  0  0  0  0  0  0  0
   37.0200   23.9770   32.1870 C   0  0  0  0  0  0  0  0  0  0  0  0
   36.1530   23.4220   31.2930 C   0  0  0  0  0  0  0  0  0  0  0  0
   35.2140   24.1720   30.7020 N   0  0  0  0  0  0  0  0  0  0  0  0
   35.1120   25.4980   30.9850 C   0  0  0  0  0  0  0  0  0  0  0  0
   35.9750   26.0670   31.8790 N   0  0  0  0  0  0  0  0  0  0  0  0
   39.6860   27.0400   34.1460 C   0  0  0  0  0  0  0  0  0  0  0  0
   39.2650   27.0900   35.4500 C   0  0  0  0  0  0  0  0  0  0  0  0
   38.0400   26.5290   35.7690 C   0  0  0  0  0  0  0  0  0  0  0  0
   37.3680   25.9750   34.7430 N   0  0  0  0  0  0  0  0  0  0  0  0
   37.8020   25.9350   33.4510 C   0  0  0  0  0  0  0  0  0  0  0  0
   38.9450   26.4620   33.1700 N   0  0  0  0  0  0  0  0  0  0  0  0
   37.3610   20.8350   32.0150 C   0  0  0  0  0  0  0  0  0  0  0  0
   36.1720   20.2400   32.5280 C   0  0  0  0  0  0  0  0  0  0  0  0
   35.5980   19.4490   31.5570 C   0  0  0  0  0  0  0  0  0  0  0  0
   36.4380   19.5760   30.4860 C   0  0  0  0  0  0  0  0  0  0  0  0
   37.4110   20.3510   30.7640 O   0  0  0  0  0  0  0  0  0  0  0  0
   36.2750   18.9430   29.2200 N   0  0  0  0  0  0  0  0  0  0  0  0
   39.6970   21.1550   32.6960 C   0  0  0  0  0  0  0  0  0  0  0  0
   39.5130   19.7800   32.5660 F   0  0  0  0  0  0  0  0  0  0  0  0
   40.3480   21.5550   31.5200 F   0  0  0  0  0  0  0  0  0  0  0  0
   40.4090   21.3990   33.8100 F   0  0  0  0  0  0  0  0  0  0  0  0
   38.8508   24.0193   32.5507 H   0  0  0  0  0  0  0  0  0  0  0  0
   38.2552   22.2575   34.9288 H   0  0  0  0  0  0  0  0  0  0  0  0
   36.7686   22.0835   34.5513 H   0  0  0  0  0  0  0  0  0  0  0  0
   36.2253   22.3504   31.0554 H   0  0  0  0  0  0  0  0  0  0  0  0
   34.3389   26.1096   30.4969 H   0  0  0  0  0  0  0  0  0  0  0  0
   40.6576   27.4839   33.8836 H   0  0  0  0  0  0  0  0  0  0  0  0
   39.8857   27.5645   36.2243 H   0  0  0  0  0  0  0  0  0  0  0  0
   37.6419   26.5357   36.7944 H   0  0  0  0  0  0  0  0  0  0  0  0
   35.7740   20.3893   33.5426 H   0  0  0  0  0  0  0  0  0  0  0  0
   34.6763   18.8527   31.6273 H   0  0  0  0  0  0  0  0  0  0  0  0
   35.4674   18.3260   29.0529 H   0  0  0  0  0  0  0  0  0  0  0  0
   36.9648   19.1024   28.4719 H   0  0  0  0  0  0  0  0  0  0  0  0
  1  2  1  0
  3 22  1  1
  3  1  1  0
  3  2  1  0
  4 14  1  0
  5  4  1  0
  5  1  1  0
  6  5  2  0
  7  8  2  0
  7  6  1  0
  8  9  1  0
  9  4  2  0
 10 11  2  0
 11 12  1  0
 13 12  2  0
 14 13  1  0
 15 14  2  0
 15 10  1  0
 16 17  2  0
 16  3  1  0
 18 17  1  0
 19 20  1  0
 19 18  2  0
 20 16  1  0
 21 19  1  0
 22 25  1  0
 23 22  1  0
 24 22  1  0
  1 26  1  1
  2 27  1  0
  2 28  1  0
  6 29  1  0
  8 30  1  0
 10 31  1  0
 11 32  1  0
 12 33  1  0
 17 34  1  0
 18 35  1  0
 21 36  1  0
 21 37  1  0
M  ISO  8  26  13  27  13  28  13  29  14  30  14  31  14  32  14  33  14
M  ISO  2  34  14  35  14
M  END
>  <minimizedAffinity>  (1) 
-4.99562883

>  <minimizedRMSD>  (1) 
0.444831073

$$$$
