
     RDKit          3D

 42 46  0  0  1  0  0  0  0  0999 V2000
   38.1570   23.1660   32.8780 C   0  0  1  0  0  0  0  0  0  0  0  0
   37.6710   22.1450   33.9920 C   0  0  0  0  0  0  0  0  0  0  0  0
   38.4030   21.7500   32.7320 C   0  0  1  0  0  0  0  0  0  0  0  0
   36.9410   25.2450   32.4920 C   0  0  0  0  0  0  0  0  0  0  0  0
   37.0390   23.9250   32.2480 C   0  0  0  0  0  0  0  0  0  0  0  0
   36.1820   23.3470   31.3620 C   0  0  0  0  0  0  0  0  0  0  0  0
   35.2500   24.0810   30.7390 N   0  0  0  0  0  0  0  0  0  0  0  0
   35.1510   25.4160   30.9870 C   0  0  0  0  0  0  0  0  0  0  0  0
   36.0010   26.0040   31.8690 N   0  0  0  0  0  0  0  0  0  0  0  0
   39.6970   27.0250   34.1480 C   0  0  0  0  0  0  0  0  0  0  0  0
   39.2640   27.1200   35.4450 C   0  0  0  0  0  0  0  0  0  0  0  0
   38.0320   26.5780   35.7660 C   0  0  0  0  0  0  0  0  0  0  0  0
   37.3660   25.9980   34.7510 N   0  0  0  0  0  0  0  0  0  0  0  0
   37.8160   25.9130   33.4650 C   0  0  0  0  0  0  0  0  0  0  0  0
   38.9670   26.4220   33.1780 N   0  0  0  0  0  0  0  0  0  0  0  0
   37.5320   20.8140   31.9240 C   0  0  0  0  0  0  0  0  0  0  0  0
   36.4020   20.0600   32.3560 C   0  0  0  0  0  0  0  0  0  0  0  0
   35.8980   19.3420   31.2950 C   0  0  0  0  0  0  0  0  0  0  0  0
   36.7210   19.6680   30.2530 C   0  0  0  0  0  0  0  0  0  0  0  0
   37.6250   20.4860   30.6260 O   0  0  0  0  0  0  0  0  0  0  0  0
   36.5420   19.1110   28.8760 C   0  0  0  0  0  0  0  0  0  0  0  0
   37.7600   18.6670   28.0980 C   0  0  0  0  0  0  0  0  0  0  0  0
   36.7700   17.6850   28.6050 C   0  0  0  0  0  0  0  0  0  0  0  0
   39.8020   21.1890   32.7800 C   0  0  0  0  0  0  0  0  0  0  0  0
   39.6860   19.8130   32.5920 F   0  0  0  0  0  0  0  0  0  0  0  0
   40.4990   21.6570   31.6590 F   0  0  0  0  0  0  0  0  0  0  0  0
   40.4380   21.4210   33.9420 F   0  0  0  0  0  0  0  0  0  0  0  0
   38.8362   24.0204   32.7414 H   0  0  0  0  0  0  0  0  0  0  0  0
   38.1719   22.1004   34.9703 H   0  0  0  0  0  0  0  0  0  0  0  0
   36.7223   21.8854   34.4845 H   0  0  0  0  0  0  0  0  0  0  0  0
   36.2552   22.2690   31.1560 H   0  0  0  0  0  0  0  0  0  0  0  0
   34.3851   26.0169   30.4748 H   0  0  0  0  0  0  0  0  0  0  0  0
   40.6746   27.4547   33.8841 H   0  0  0  0  0  0  0  0  0  0  0  0
   39.8799   27.6143   36.2108 H   0  0  0  0  0  0  0  0  0  0  0  0
   37.6230   26.6187   36.7863 H   0  0  0  0  0  0  0  0  0  0  0  0
   35.9959   20.0530   33.3782 H   0  0  0  0  0  0  0  0  0  0  0  0
   35.0328   18.6628   31.2873 H   0  0  0  0  0  0  0  0  0  0  0  0
   35.7041   19.8027   28.7043 H   0  0  0  0  0  0  0  0  0  0  0  0
   38.7599   18.7296   28.5521 H   0  0  0  0  0  0  0  0  0  0  0  0
   38.1958   18.9076   27.1171 H   0  0  0  0  0  0  0  0  0  0  0  0
   36.1174   17.1531   27.8970 H   0  0  0  0  0  0  0  0  0  0  0  0
   36.8337   16.7841   29.2330 H   0  0  0  0  0  0  0  0  0  0  0  0
  1  2  1  0
  3 24  1  1
  3  1  1  0
  3  2  1  0
  4 14  1  0
  5  4  1  0
  5  1  1  0
  6  5  2  0
  7  8  2  0
  7  6  1  0
  8  9  1  0
  9  4  2  0
 10 11  2  0
 11 12  1  0
 13 12  2  0
 14 13  1  0
 15 14  2  0
 15 10  1  0
 16 17  2  0
 16  3  1  0
 18 17  1  0
 19 20  1  0
 19 18  2  0
 20 16  1  0
 21 19  1  0
 22 23  1  0
 22 21  1  0
 23 21  1  0
 24 27  1  0
 25 24  1  0
 26 24  1  0
  1 28  1  1
  2 29  1  0
  2 30  1  0
  6 31  1  0
  8 32  1  0
 10 33  1  0
 11 34  1  0
 12 35  1  0
 17 36  1  0
 18 37  1  0
 21 38  1  0
 22 39  1  0
 22 40  1  0
 23 41  1  0
 23 42  1  0
M  ISO  8  28  13  29  13  30  13  31  14  32  14  33  14  34  14  35  14
M  ISO  7  36  14  37  14  38  13  39  13  40  13  41  13  42  13
M  END
>  <minimizedAffinity>  (1) 
-4.95120955

>  <minimizedRMSD>  (1) 
0.781606317

$$$$
