
     RDKit          3D

 21 22  0  0  0  0  0  0  0  0999 V2000
   37.3120   21.9640   35.0110 N   0  0  0  0  0  0  0  0  0  0  0  0
   36.3660   21.0240   35.2590 C   0  0  0  0  0  0  0  0  0  0  0  0
   35.6040   20.5910   34.1960 C   0  0  0  0  0  0  0  0  0  0  0  0
   35.8480   21.1320   32.9630 C   0  0  0  0  0  0  0  0  0  0  0  0
   35.1000   20.7270   31.8400 N   0  0  0  0  0  0  0  0  0  0  0  0
   36.7990   22.0640   32.7690 N   0  0  0  0  0  0  0  0  0  0  0  0
   37.5530   22.4950   33.8070 C   0  0  0  0  0  0  0  0  0  0  0  0
   38.4320   23.3640   33.5960 O   0  0  0  0  0  0  0  0  0  0  0  0
   37.3840   23.1210   37.1090 C   0  0  0  0  0  0  0  0  0  0  0  0
   38.0710   22.3830   36.1160 C   0  0  0  0  0  0  0  0  0  0  0  0
   39.4300   22.1380   36.3190 C   0  0  0  0  0  0  0  0  0  0  0  0
   40.0220   22.6150   37.4470 N   0  0  0  0  0  0  0  0  0  0  0  0
   39.3410   23.3140   38.3730 C   0  0  0  0  0  0  0  0  0  0  0  0
   38.0200   23.5740   38.2150 N   0  0  0  0  0  0  0  0  0  0  0  0
   36.2129   20.6223   36.2715 H   0  0  0  0  0  0  0  0  0  0  0  0
   34.8208   19.8311   34.3347 H   0  0  0  0  0  0  0  0  0  0  0  0
   35.2922   21.1409   30.9166 H   0  0  0  0  0  0  0  0  0  0  0  0
   34.3609   20.0170   31.9423 H   0  0  0  0  0  0  0  0  0  0  0  0
   36.3120   23.3308   36.9797 H   0  0  0  0  0  0  0  0  0  0  0  0
   40.0124   21.5689   35.5794 H   0  0  0  0  0  0  0  0  0  0  0  0
   39.8628   23.6792   39.2698 H   0  0  0  0  0  0  0  0  0  0  0  0
  1  2  1  0
  1 10  1  0
  3  2  2  0
  4  3  1  0
  5  4  1  0
  6  4  2  0
  6  7  1  0
  7  1  1  0
  8  7  2  0
  9 14  2  0
 10 11  2  0
 10  9  1  0
 11 12  1  0
 12 13  2  0
 14 13  1  0
  2 15  1  0
  3 16  1  0
  5 17  1  0
  5 18  1  0
  9 19  1  0
 11 20  1  0
 13 21  1  0
M  ISO  5  15  14  16  14  19  14  20  14  21  14
M  END
>  <minimizedAffinity>  (1) 
-3.96012712

>  <minimizedRMSD>  (1) 
6.8717351

$$$$
