
     RDKit          3D

 37 40  0  0  1  0  0  0  0  0999 V2000
   38.1670   23.1680   32.8530 C   0  0  1  0  0  0  0  0  0  0  0  0
   37.6850   22.1690   33.9880 C   0  0  0  0  0  0  0  0  0  0  0  0
   38.3930   21.7500   32.7200 C   0  0  1  0  0  0  0  0  0  0  0  0
   36.9430   25.2470   32.4850 C   0  0  0  0  0  0  0  0  0  0  0  0
   37.0390   23.9310   32.2240 C   0  0  0  0  0  0  0  0  0  0  0  0
   36.1860   23.3590   31.3400 C   0  0  0  0  0  0  0  0  0  0  0  0
   35.2510   24.0960   30.7280 N   0  0  0  0  0  0  0  0  0  0  0  0
   35.1470   25.4270   30.9870 C   0  0  0  0  0  0  0  0  0  0  0  0
   36.0030   26.0100   31.8760 N   0  0  0  0  0  0  0  0  0  0  0  0
   39.7010   27.0180   34.1510 C   0  0  0  0  0  0  0  0  0  0  0  0
   39.2720   27.1050   35.4490 C   0  0  0  0  0  0  0  0  0  0  0  0
   38.0390   26.5580   35.7670 C   0  0  0  0  0  0  0  0  0  0  0  0
   37.3730   25.9840   34.7480 N   0  0  0  0  0  0  0  0  0  0  0  0
   37.8220   25.9100   33.4610 C   0  0  0  0  0  0  0  0  0  0  0  0
   38.9710   26.4220   33.1800 N   0  0  0  0  0  0  0  0  0  0  0  0
   37.5010   20.8090   31.9450 C   0  0  0  0  0  0  0  0  0  0  0  0
   36.3380   20.1160   32.3880 C   0  0  0  0  0  0  0  0  0  0  0  0
   35.8270   19.3660   31.3520 C   0  0  0  0  0  0  0  0  0  0  0  0
   36.6780   19.6140   30.3100 C   0  0  0  0  0  0  0  0  0  0  0  0
   37.5990   20.4170   30.6660 O   0  0  0  0  0  0  0  0  0  0  0  0
   36.5980   19.0640   28.9440 C   0  0  0  0  0  0  0  0  0  0  0  0
   36.6680   17.8330   28.6750 O   0  0  0  0  0  0  0  0  0  0  0  0
   39.7890   21.1730   32.7560 C   0  0  0  0  0  0  0  0  0  0  0  0
   39.6570   19.7960   32.5870 F   0  0  0  0  0  0  0  0  0  0  0  0
   40.4730   21.6210   31.6170 F   0  0  0  0  0  0  0  0  0  0  0  0
   40.4460   21.4130   33.9030 F   0  0  0  0  0  0  0  0  0  0  0  0
   38.8545   24.0124   32.6973 H   0  0  0  0  0  0  0  0  0  0  0  0
   38.2005   22.1302   34.9589 H   0  0  0  0  0  0  0  0  0  0  0  0
   36.7411   21.9279   34.4988 H   0  0  0  0  0  0  0  0  0  0  0  0
   36.2623   22.2831   31.1241 H   0  0  0  0  0  0  0  0  0  0  0  0
   34.3775   26.0302   30.4830 H   0  0  0  0  0  0  0  0  0  0  0  0
   40.6778   27.4498   33.8876 H   0  0  0  0  0  0  0  0  0  0  0  0
   39.8885   27.5950   36.2170 H   0  0  0  0  0  0  0  0  0  0  0  0
   37.6305   26.5909   36.7878 H   0  0  0  0  0  0  0  0  0  0  0  0
   35.9135   20.1713   33.4013 H   0  0  0  0  0  0  0  0  0  0  0  0
   34.9389   18.7169   31.3605 H   0  0  0  0  0  0  0  0  0  0  0  0
   36.4696   19.7691   28.1095 H   0  0  0  0  0  0  0  0  0  0  0  0
  1  2  1  0
  3 23  1  1
  3  1  1  0
  3  2  1  0
  4 14  1  0
  5  4  1  0
  5  1  1  0
  6  5  2  0
  7  8  2  0
  7  6  1  0
  8  9  1  0
  9  4  2  0
 10 11  2  0
 11 12  1  0
 13 12  2  0
 14 13  1  0
 15 14  2  0
 15 10  1  0
 16 17  2  0
 16  3  1  0
 18 17  1  0
 19 20  1  0
 19 18  2  0
 20 16  1  0
 21 19  1  0
 22 21  2  0
 23 26  1  0
 24 23  1  0
 25 23  1  0
  1 27  1  1
  2 28  1  0
  2 29  1  0
  6 30  1  0
  8 31  1  0
 10 32  1  0
 11 33  1  0
 12 34  1  0
 17 35  1  0
 18 36  1  0
 21 37  1  0
M  ISO  8  27  13  28  13  29  13  30  14  31  14  32  14  33  14  34  14
M  ISO  3  35  14  36  14  37   6
M  END
>  <minimizedAffinity>  (1) 
-4.77139425

>  <minimizedRMSD>  (1) 
0.659346044

$$$$
