
     RDKit          3D

 19 20  0  0  0  0  0  0  0  0999 V2000
   39.9220   22.6310   37.2500 C   0  0  0  0  0  0  0  0  0  0  0  0
   39.2690   23.2860   38.3140 C   0  0  0  0  0  0  0  0  0  0  0  0
   37.8720   23.4430   38.2010 C   0  0  0  0  0  0  0  0  0  0  0  0
   37.2550   22.9510   37.0780 N   0  0  0  0  0  0  0  0  0  0  0  0
   37.9300   22.3340   36.0950 C   0  0  0  0  0  0  0  0  0  0  0  0
   39.2670   22.1710   36.1750 N   0  0  0  0  0  0  0  0  0  0  0  0
   37.1870   21.8440   34.9380 C   0  0  0  0  0  0  0  0  0  0  0  0
   36.1630   20.9290   35.0730 C   0  0  0  0  0  0  0  0  0  0  0  0
   35.5010   20.5100   33.9250 C   0  0  0  0  0  0  0  0  0  0  0  0
   35.9200   21.0420   32.7350 C   0  0  0  0  0  0  0  0  0  0  0  0
   36.9260   21.9430   32.5860 C   0  0  0  0  0  0  0  0  0  0  0  0
   37.5390   22.3230   33.7190 N   0  0  0  0  0  0  0  0  0  0  0  0
   41.0118   22.4920   37.3042 H   0  0  0  0  0  0  0  0  0  0  0  0
   39.8221   23.6565   39.1896 H   0  0  0  0  0  0  0  0  0  0  0  0
   37.2935   23.9454   38.9903 H   0  0  0  0  0  0  0  0  0  0  0  0
   35.8783   20.5417   36.0624 H   0  0  0  0  0  0  0  0  0  0  0  0
   34.6767   19.7830   33.9705 H   0  0  0  0  0  0  0  0  0  0  0  0
   35.3989   20.7126   31.8240 H   0  0  0  0  0  0  0  0  0  0  0  0
   37.2194   22.3358   31.6013 H   0  0  0  0  0  0  0  0  0  0  0  0
  1  2  2  0
  3  2  1  0
  4  3  2  0
  5  6  2  0
  5  4  1  0
  6  1  1  0
  7  8  2  0
  7  5  1  0
  9  8  1  0
 10  9  2  0
 11 10  1  0
 11 12  2  0
 12  7  1  0
  1 13  1  0
  2 14  1  0
  3 15  1  0
  8 16  1  0
  9 17  1  0
 10 18  1  0
 11 19  1  0
M  ISO  7  13  14  14  14  15  14  16  14  17  14  18  14  19  14
M  END
>  <minimizedAffinity>  (1) 
-3.96040416

>  <minimizedRMSD>  (1) 
1.28380799

$$$$
