
     RDKit          3D

 33 36  0  0  0  0  0  0  0  0999 V2000
   37.4450   22.1330   34.9420 C   0  0  0  0  0  0  0  0  0  0  0  0
   36.4640   21.1700   34.8870 C   0  0  0  0  0  0  0  0  0  0  0  0
   35.9140   20.8730   33.6450 C   0  0  0  0  0  0  0  0  0  0  0  0
   36.3850   21.5560   32.5680 C   0  0  0  0  0  0  0  0  0  0  0  0
   37.3480   22.5030   32.6090 C   0  0  0  0  0  0  0  0  0  0  0  0
   37.8550   22.7630   33.8250 N   0  0  0  0  0  0  0  0  0  0  0  0
   37.7900   23.1840   31.3970 C   0  0  0  0  0  0  0  0  0  0  0  0
   37.4680   24.4750   31.0430 C   0  0  0  0  0  0  0  0  0  0  0  0
   38.0450   24.7820   29.8670 N   0  0  0  0  0  0  0  0  0  0  0  0
   38.7410   23.6980   29.4510 C   0  0  0  0  0  0  0  0  0  0  0  0
   39.5080   23.4700   28.3240 C   0  0  0  0  0  0  0  0  0  0  0  0
   40.1210   22.2350   28.1540 C   0  0  0  0  0  0  0  0  0  0  0  0
   39.9680   21.2350   29.1020 C   0  0  0  0  0  0  0  0  0  0  0  0
   39.1930   21.4850   30.2260 C   0  0  0  0  0  0  0  0  0  0  0  0
   38.5950   22.6930   30.3900 C   0  0  0  0  0  0  0  0  0  0  0  0
   39.9510   22.6610   37.5700 C   0  0  0  0  0  0  0  0  0  0  0  0
   39.2140   23.2530   38.6070 C   0  0  0  0  0  0  0  0  0  0  0  0
   37.8280   23.4620   38.3670 C   0  0  0  0  0  0  0  0  0  0  0  0
   37.3220   23.0750   37.1570 N   0  0  0  0  0  0  0  0  0  0  0  0
   38.0770   22.5090   36.1940 C   0  0  0  0  0  0  0  0  0  0  0  0
   39.3980   22.3010   36.4020 N   0  0  0  0  0  0  0  0  0  0  0  0
   36.1257   20.6517   35.7963 H   0  0  0  0  0  0  0  0  0  0  0  0
   35.1262   20.1128   33.5377 H   0  0  0  0  0  0  0  0  0  0  0  0
   35.9481   21.3192   31.5867 H   0  0  0  0  0  0  0  0  0  0  0  0
   36.8343   25.1534   31.6330 H   0  0  0  0  0  0  0  0  0  0  0  0
   37.9704   25.6818   29.3714 H   0  0  0  0  0  0  0  0  0  0  0  0
   39.6320   24.2596   27.5682 H   0  0  0  0  0  0  0  0  0  0  0  0
   40.7332   22.0489   27.2593 H   0  0  0  0  0  0  0  0  0  0  0  0
   40.4538   20.2576   28.9654 H   0  0  0  0  0  0  0  0  0  0  0  0
   39.0627   20.7014   30.9869 H   0  0  0  0  0  0  0  0  0  0  0  0
   41.0263   22.4849   37.7210 H   0  0  0  0  0  0  0  0  0  0  0  0
   39.6850   23.5411   39.5584 H   0  0  0  0  0  0  0  0  0  0  0  0
   37.1830   23.9207   39.1309 H   0  0  0  0  0  0  0  0  0  0  0  0
  1 20  1  0
  2  1  2  0
  3  2  1  0
  4  5  1  0
  4  3  2  0
  5  6  2  0
  6  1  1  0
  7  5  1  0
  8  7  2  0
  9  8  1  0
 10  9  1  0
 10 15  2  0
 11 10  1  0
 12 11  2  0
 12 13  1  0
 13 14  2  0
 14 15  1  0
 15  7  1  0
 16 17  2  0
 18 17  1  0
 19 18  2  0
 20 21  2  0
 20 19  1  0
 21 16  1  0
  2 22  1  0
  3 23  1  0
  4 24  1  0
  8 25  1  0
  9 26  1  0
 11 27  1  0
 12 28  1  0
 13 29  1  0
 14 30  1  0
 16 31  1  0
 17 32  1  0
 18 33  1  0
M  ISO  8  22  14  23  14  24  14  25  14  26   9  27  14  28  14  29  14
M  ISO  4  30  14  31  14  32  14  33  14
M  END
>  <minimizedAffinity>  (1) 
-5.10223484

>  <minimizedRMSD>  (1) 
0.831286609

$$$$
