
     RDKit          3D

 30 33  0  0  0  0  0  0  0  0999 V2000
   37.8900   22.7900   34.6940 C   0  0  0  0  0  0  0  0  0  0  0  0
   37.2400   21.6660   34.2620 C   0  0  0  0  0  0  0  0  0  0  0  0
   36.8480   21.5870   32.9360 C   0  0  0  0  0  0  0  0  0  0  0  0
   37.1450   22.6540   32.1440 C   0  0  0  0  0  0  0  0  0  0  0  0
   37.7840   23.7740   32.5430 C   0  0  0  0  0  0  0  0  0  0  0  0
   38.1460   23.8090   33.8360 N   0  0  0  0  0  0  0  0  0  0  0  0
   38.0920   24.8930   31.6970 N   0  0  0  0  0  0  0  0  0  0  0  0
   39.1850   24.9740   30.9030 C   0  0  0  0  0  0  0  0  0  0  0  0
   39.1560   26.1640   30.2460 N   0  0  0  0  0  0  0  0  0  0  0  0
   38.0350   26.7760   30.6650 C   0  0  0  0  0  0  0  0  0  0  0  0
   37.5590   28.0150   30.2880 C   0  0  0  0  0  0  0  0  0  0  0  0
   36.4070   28.4630   30.8230 N   0  0  0  0  0  0  0  0  0  0  0  0
   35.7500   27.6720   31.7220 C   0  0  0  0  0  0  0  0  0  0  0  0
   36.2120   26.4600   32.0930 N   0  0  0  0  0  0  0  0  0  0  0  0
   37.3450   26.0000   31.5800 C   0  0  0  0  0  0  0  0  0  0  0  0
   39.9260   22.7150   37.7450 C   0  0  0  0  0  0  0  0  0  0  0  0
   39.1000   23.3160   38.7020 C   0  0  0  0  0  0  0  0  0  0  0  0
   37.8400   23.7380   38.2570 C   0  0  0  0  0  0  0  0  0  0  0  0
   37.4860   23.5470   36.9450 N   0  0  0  0  0  0  0  0  0  0  0  0
   38.3380   22.9590   36.0760 C   0  0  0  0  0  0  0  0  0  0  0  0
   39.5640   22.5360   36.4660 N   0  0  0  0  0  0  0  0  0  0  0  0
   37.0322   20.8387   34.9566 H   0  0  0  0  0  0  0  0  0  0  0  0
   36.3222   20.7049   32.5418 H   0  0  0  0  0  0  0  0  0  0  0  0
   36.8380   22.5985   31.0892 H   0  0  0  0  0  0  0  0  0  0  0  0
   39.9661   24.2057   30.8055 H   0  0  0  0  0  0  0  0  0  0  0  0
   38.1123   28.6279   29.5612 H   0  0  0  0  0  0  0  0  0  0  0  0
   34.8091   28.0368   32.1598 H   0  0  0  0  0  0  0  0  0  0  0  0
   40.9232   22.3719   38.0580 H   0  0  0  0  0  0  0  0  0  0  0  0
   39.4220   23.4496   39.7453 H   0  0  0  0  0  0  0  0  0  0  0  0
   37.1391   24.2193   38.9549 H   0  0  0  0  0  0  0  0  0  0  0  0
  1 20  1  0
  2  1  2  0
  3  2  1  0
  4  5  1  0
  4  3  2  0
  5  6  2  0
  6  1  1  0
  7  5  1  0
  8  7  1  0
  9 10  1  0
  9  8  2  0
 10 15  2  0
 11 10  1  0
 11 12  2  0
 12 13  1  0
 13 14  2  0
 15  7  1  0
 15 14  1  0
 16 17  2  0
 18 17  1  0
 19 18  2  0
 20 21  2  0
 20 19  1  0
 21 16  1  0
  2 22  1  0
  3 23  1  0
  4 24  1  0
  8 25  1  0
 11 26  1  0
 13 27  1  0
 16 28  1  0
 17 29  1  0
 18 30  1  0
M  ISO  8  22  14  23  14  24  14  25  14  26  14  27  14  28  14  29  14
M  ISO  1  30  14
M  END
>  <minimizedAffinity>  (1) 
-5.3168292

>  <minimizedRMSD>  (1) 
2.16398716

$$$$
