
     RDKit          3D

 37 40  0  0  0  0  0  0  0  0999 V2000
   38.3900   23.4650   33.1440 C   0  0  0  0  0  0  0  0  0  0  0  0
   38.5240   22.0880   32.9010 C   0  0  0  0  0  0  0  0  0  0  0  0
   39.8070   21.5720   32.9310 C   0  0  0  0  0  0  0  0  0  0  0  0
   40.8510   22.3970   33.1840 N   0  0  0  0  0  0  0  0  0  0  0  0
   40.7120   23.6850   33.4080 C   0  0  0  0  0  0  0  0  0  0  0  0
   39.4870   24.2310   33.3920 N   0  0  0  0  0  0  0  0  0  0  0  0
   37.3480   21.3770   32.6460 N   0  0  0  0  0  0  0  0  0  0  0  0
   36.5750   21.0890   33.7100 C   0  0  0  0  0  0  0  0  0  0  0  0
   35.4090   20.3900   33.4760 C   0  0  0  0  0  0  0  0  0  0  0  0
   35.1030   20.0330   32.1980 C   0  0  0  0  0  0  0  0  0  0  0  0
   33.9300   19.3180   31.8870 N   0  0  0  0  0  0  0  0  0  0  0  0
   35.9050   20.3430   31.1750 N   0  0  0  0  0  0  0  0  0  0  0  0
   37.0570   21.0280   31.3770 C   0  0  0  0  0  0  0  0  0  0  0  0
   37.7920   21.3050   30.3850 O   0  0  0  0  0  0  0  0  0  0  0  0
   41.7210   24.7010   33.6920 C   0  0  0  0  0  0  0  0  0  0  0  0
   41.8980   25.8630   32.9320 C   0  0  0  0  0  0  0  0  0  0  0  0
   42.8380   26.8280   33.1820 C   0  0  0  0  0  0  0  0  0  0  0  0
   43.6930   26.6860   34.2480 C   0  0  0  0  0  0  0  0  0  0  0  0
   43.5780   25.5840   35.0270 C   0  0  0  0  0  0  0  0  0  0  0  0
   44.4580   25.4890   36.0820 C   0  0  0  0  0  0  0  0  0  0  0  0
   44.4120   24.4010   36.9260 C   0  0  0  0  0  0  0  0  0  0  0  0
   43.4610   23.4250   36.6740 C   0  0  0  0  0  0  0  0  0  0  0  0
   42.6120   23.5830   35.6010 C   0  0  0  0  0  0  0  0  0  0  0  0
   42.6190   24.6460   34.7340 C   0  0  0  0  0  0  0  0  0  0  0  0
   37.3918   23.9271   33.1337 H   0  0  0  0  0  0  0  0  0  0  0  0
   39.9781   20.5004   32.7509 H   0  0  0  0  0  0  0  0  0  0  0  0
   36.8619   21.3988   34.7257 H   0  0  0  0  0  0  0  0  0  0  0  0
   34.7384   20.1257   34.3069 H   0  0  0  0  0  0  0  0  0  0  0  0
   33.7264   19.0624   30.9102 H   0  0  0  0  0  0  0  0  0  0  0  0
   33.2759   19.0507   32.6364 H   0  0  0  0  0  0  0  0  0  0  0  0
   41.2324   26.0127   32.0691 H   0  0  0  0  0  0  0  0  0  0  0  0
   42.9078   27.7127   32.5320 H   0  0  0  0  0  0  0  0  0  0  0  0
   44.4540   27.4503   34.4640 H   0  0  0  0  0  0  0  0  0  0  0  0
   45.1995   26.2837   36.2513 H   0  0  0  0  0  0  0  0  0  0  0  0
   45.1080   24.3099   37.7729 H   0  0  0  0  0  0  0  0  0  0  0  0
   43.3854   22.5383   37.3206 H   0  0  0  0  0  0  0  0  0  0  0  0
   41.8677   22.7924   35.4250 H   0  0  0  0  0  0  0  0  0  0  0  0
  1  6  2  0
  2  3  2  0
  2  1  1  0
  3  4  1  0
  4  5  2  0
  5 15  1  0
  6  5  1  0
  7  2  1  0
  7  8  1  0
  9  8  2  0
 10  9  1  0
 11 10  1  0
 12 13  1  0
 12 10  2  0
 13  7  1  0
 14 13  2  0
 15 24  2  0
 16 17  2  0
 16 15  1  0
 17 18  1  0
 18 19  2  0
 19 20  1  0
 20 21  2  0
 22 21  1  0
 23 22  2  0
 24 19  1  0
 24 23  1  0
  1 25  1  0
  3 26  1  0
  8 27  1  0
  9 28  1  0
 11 29  1  0
 11 30  1  0
 16 31  1  0
 17 32  1  0
 18 33  1  0
 20 34  1  0
 21 35  1  0
 22 36  1  0
 23 37  1  0
M  ISO  8  25  14  26  14  27  14  28  14  31  14  32  14  33  14  34  14
M  ISO  3  35  14  36  14  37  14
M  END
>  <minimizedAffinity>  (1) 
-5.02678013

>  <minimizedRMSD>  (1) 
4.80813551

$$$$
