
     RDKit          3D

 26 28  0  0  0  0  0  0  0  0999 V2000
   37.3990   22.0530   34.9250 C   0  0  0  0  0  0  0  0  0  0  0  0
   36.3670   21.1290   34.9310 C   0  0  0  0  0  0  0  0  0  0  0  0
   35.8030   20.7970   33.7040 C   0  0  0  0  0  0  0  0  0  0  0  0
   36.3060   21.4070   32.5850 C   0  0  0  0  0  0  0  0  0  0  0  0
   37.3110   22.3070   32.5770 C   0  0  0  0  0  0  0  0  0  0  0  0
   37.8450   22.6150   33.7750 N   0  0  0  0  0  0  0  0  0  0  0  0
   39.9460   22.6470   37.5010 C   0  0  0  0  0  0  0  0  0  0  0  0
   39.2270   23.2780   38.5240 C   0  0  0  0  0  0  0  0  0  0  0  0
   37.8570   23.4870   38.2990 C   0  0  0  0  0  0  0  0  0  0  0  0
   37.3070   23.0700   37.1110 N   0  0  0  0  0  0  0  0  0  0  0  0
   38.0570   22.4660   36.1600 C   0  0  0  0  0  0  0  0  0  0  0  0
   39.3650   22.2570   36.3560 N   0  0  0  0  0  0  0  0  0  0  0  0
   37.8190   22.9340   31.3590 C   0  0  0  0  0  0  0  0  0  0  0  0
   38.7270   22.3680   30.4880 C   0  0  0  0  0  0  0  0  0  0  0  0
   38.9120   23.3100   29.4930 C   0  0  0  0  0  0  0  0  0  0  0  0
   38.1400   24.4000   29.7620 N   0  0  0  0  0  0  0  0  0  0  0  0
   37.4940   24.1410   30.8930 N   0  0  0  0  0  0  0  0  0  0  0  0
   36.0085   20.6767   35.8674 H   0  0  0  0  0  0  0  0  0  0  0  0
   34.9810   20.0694   33.6342 H   0  0  0  0  0  0  0  0  0  0  0  0
   35.8550   21.1421   31.6173 H   0  0  0  0  0  0  0  0  0  0  0  0
   41.0218   22.4652   37.6407 H   0  0  0  0  0  0  0  0  0  0  0  0
   39.7124   23.5947   39.4589 H   0  0  0  0  0  0  0  0  0  0  0  0
   37.2339   23.9768   39.0617 H   0  0  0  0  0  0  0  0  0  0  0  0
   39.2020   21.3791   30.5680 H   0  0  0  0  0  0  0  0  0  0  0  0
   39.5762   23.1975   28.6234 H   0  0  0  0  0  0  0  0  0  0  0  0
   38.0708   25.2587   29.1974 H   0  0  0  0  0  0  0  0  0  0  0  0
  1  2  2  0
  1 11  1  0
  3  2  1  0
  4  3  2  0
  5  4  1  0
  5  6  2  0
  6  1  1  0
  7  8  2  0
  9  8  1  0
 10  9  2  0
 11 12  2  0
 11 10  1  0
 12  7  1  0
 13  5  1  0
 14 13  1  0
 15 16  1  0
 15 14  2  0
 16 17  1  0
 17 13  2  0
  2 18  1  0
  3 19  1  0
  4 20  1  0
  7 21  1  0
  8 22  1  0
  9 23  1  0
 14 24  1  0
 15 25  1  0
 16 26  1  0
M  ISO  8  18  14  19  14  20  14  21  14  22  14  23  14  24  14  25  14
M  ISO  1  26   9
M  END
>  <minimizedAffinity>  (1) 
-4.64142799

>  <minimizedRMSD>  (1) 
0.508544505

$$$$
