
     RDKit          3D

 28 29  0  0  0  0  0  0  0  0999 V2000
   37.1030   21.8260   34.9890 C   0  0  0  0  0  0  0  0  0  0  0  0
   36.1550   20.8350   35.1670 C   0  0  0  0  0  0  0  0  0  0  0  0
   35.4520   20.4190   34.0370 C   0  0  0  0  0  0  0  0  0  0  0  0
   35.7510   21.0190   32.8460 C   0  0  0  0  0  0  0  0  0  0  0  0
   36.6790   21.9880   32.6760 C   0  0  0  0  0  0  0  0  0  0  0  0
   37.3440   22.3760   33.7650 N   0  0  0  0  0  0  0  0  0  0  0  0
   39.9300   22.6200   37.1990 C   0  0  0  0  0  0  0  0  0  0  0  0
   39.3270   23.2900   38.2700 C   0  0  0  0  0  0  0  0  0  0  0  0
   37.9320   23.4580   38.2090 C   0  0  0  0  0  0  0  0  0  0  0  0
   37.2660   22.9580   37.1130 N   0  0  0  0  0  0  0  0  0  0  0  0
   37.8910   22.3270   36.1190 C   0  0  0  0  0  0  0  0  0  0  0  0
   39.2390   22.1500   36.1500 N   0  0  0  0  0  0  0  0  0  0  0  0
   36.9920   22.6300   31.3690 C   0  0  0  0  0  0  0  0  0  0  0  0
   38.3610   23.2610   31.3540 C   0  0  0  0  0  0  0  0  0  0  0  0
   35.9610   23.7290   31.1110 C   0  0  0  0  0  0  0  0  0  0  0  0
   35.9639   20.3943   36.1566 H   0  0  0  0  0  0  0  0  0  0  0  0
   34.6832   19.6349   34.1019 H   0  0  0  0  0  0  0  0  0  0  0  0
   35.1939   20.6882   31.9571 H   0  0  0  0  0  0  0  0  0  0  0  0
   41.0199   22.4723   37.2186 H   0  0  0  0  0  0  0  0  0  0  0  0
   39.9162   23.6671   39.1189 H   0  0  0  0  0  0  0  0  0  0  0  0
   37.3886   23.9742   39.0142 H   0  0  0  0  0  0  0  0  0  0  0  0
   36.9659   21.8482   30.5956 H   0  0  0  0  0  0  0  0  0  0  0  0
   38.7033   23.4188   32.3874 H   0  0  0  0  0  0  0  0  0  0  0  0
   39.0653   22.5966   30.8318 H   0  0  0  0  0  0  0  0  0  0  0  0
   38.3133   24.2280   30.8318 H   0  0  0  0  0  0  0  0  0  0  0  0
   35.5940   24.1202   32.0713 H   0  0  0  0  0  0  0  0  0  0  0  0
   36.4286   24.5433   30.5380 H   0  0  0  0  0  0  0  0  0  0  0  0
   35.1186   23.3143   30.5380 H   0  0  0  0  0  0  0  0  0  0  0  0
  1  2  2  0
  1 11  1  0
  3  2  1  0
  4  3  2  0
  5  4  1  0
  5  6  2  0
  6  1  1  0
  7  8  2  0
  9  8  1  0
 10  9  2  0
 11 12  2  0
 11 10  1  0
 12  7  1  0
 13  5  1  0
 14 13  1  0
 15 13  1  0
  2 16  1  0
  3 17  1  0
  4 18  1  0
  7 19  1  0
  8 20  1  0
  9 21  1  0
 13 22  1  0
 14 23  1  0
 14 24  1  0
 14 25  1  0
 15 26  1  0
 15 27  1  0
 15 28  1  0
M  ISO  8  16  14  17  14  18  14  19  14  20  14  21  14  22   8  23   8
M  ISO  5  24   8  25   8  26   8  27   8  28   8
M  END
>  <minimizedAffinity>  (1) 
-4.47242355

>  <minimizedRMSD>  (1) 
0.223760933

$$$$
