
     RDKit          3D

 28 30  0  0  0  0  0  0  0  0999 V2000
   37.3160   21.8360   35.0060 C   0  0  0  0  0  0  0  0  0  0  0  0
   36.1730   21.0520   35.0890 C   0  0  0  0  0  0  0  0  0  0  0  0
   35.6140   20.5960   33.9000 C   0  0  0  0  0  0  0  0  0  0  0  0
   36.2300   20.9510   32.7400 C   0  0  0  0  0  0  0  0  0  0  0  0
   37.3430   21.7110   32.6460 C   0  0  0  0  0  0  0  0  0  0  0  0
   37.8730   22.1470   33.8070 N   0  0  0  0  0  0  0  0  0  0  0  0
   39.8710   22.7190   37.4720 C   0  0  0  0  0  0  0  0  0  0  0  0
   39.1400   23.3590   38.4850 C   0  0  0  0  0  0  0  0  0  0  0  0
   37.7450   23.4750   38.2860 C   0  0  0  0  0  0  0  0  0  0  0  0
   37.2060   22.9580   37.1300 N   0  0  0  0  0  0  0  0  0  0  0  0
   37.9700   22.3570   36.2050 C   0  0  0  0  0  0  0  0  0  0  0  0
   39.3040   22.2340   36.3700 N   0  0  0  0  0  0  0  0  0  0  0  0
   38.0120   22.0980   31.4090 C   0  0  0  0  0  0  0  0  0  0  0  0
   38.0280   23.3960   30.9510 C   0  0  0  0  0  0  0  0  0  0  0  0
   38.6560   23.7950   29.7780 C   0  0  0  0  0  0  0  0  0  0  0  0
   39.2940   22.8160   29.0480 C   0  0  0  0  0  0  0  0  0  0  0  0
   39.2840   21.5120   29.4980 C   0  0  0  0  0  0  0  0  0  0  0  0
   38.6590   21.2100   30.6330 N   0  0  0  0  0  0  0  0  0  0  0  0
   35.7251   20.8003   36.0616 H   0  0  0  0  0  0  0  0  0  0  0  0
   34.7081   19.9720   33.8975 H   0  0  0  0  0  0  0  0  0  0  0  0
   35.7851   20.5894   31.8012 H   0  0  0  0  0  0  0  0  0  0  0  0
   40.9591   22.6138   37.5942 H   0  0  0  0  0  0  0  0  0  0  0  0
   39.6284   23.7511   39.3893 H   0  0  0  0  0  0  0  0  0  0  0  0
   37.1070   23.9658   39.0357 H   0  0  0  0  0  0  0  0  0  0  0  0
   37.5132   24.1623   31.5491 H   0  0  0  0  0  0  0  0  0  0  0  0
   38.6445   24.8440   29.4472 H   0  0  0  0  0  0  0  0  0  0  0  0
   39.8090   23.0730   28.1106 H   0  0  0  0  0  0  0  0  0  0  0  0
   39.7909   20.7248   28.9206 H   0  0  0  0  0  0  0  0  0  0  0  0
  1  2  2  0
  1 11  1  0
  3  2  1  0
  4  3  2  0
  5  4  1  0
  5  6  2  0
  6  1  1  0
  7  8  2  0
  9  8  1  0
 10  9  2  0
 11 12  2  0
 11 10  1  0
 12  7  1  0
 13  5  1  0
 14 13  2  0
 15 14  1  0
 16 17  1  0
 16 15  2  0
 17 18  2  0
 18 13  1  0
  2 19  1  0
  3 20  1  0
  4 21  1  0
  7 22  1  0
  8 23  1  0
  9 24  1  0
 14 25  1  0
 15 26  1  0
 16 27  1  0
 17 28  1  0
M  ISO  8  19  14  20  14  21  14  22  14  23  14  24  14  25  14  26  14
M  ISO  2  27  14  28  14
M  END
>  <minimizedAffinity>  (1) 
-4.57109213

>  <minimizedRMSD>  (1) 
0.73488915

$$$$
