
     RDKit          3D

 26 28  0  0  0  0  0  0  0  0999 V2000
   37.3830   21.9470   35.0340 C   0  0  0  0  0  0  0  0  0  0  0  0
   36.2830   21.1250   35.0710 C   0  0  0  0  0  0  0  0  0  0  0  0
   35.7210   20.6980   33.8790 C   0  0  0  0  0  0  0  0  0  0  0  0
   36.3250   21.1440   32.7220 C   0  0  0  0  0  0  0  0  0  0  0  0
   37.4210   21.9640   32.6600 C   0  0  0  0  0  0  0  0  0  0  0  0
   37.8980   22.3270   33.8500 N   0  0  0  0  0  0  0  0  0  0  0  0
   37.9960   22.3880   31.4290 N   0  0  0  0  0  0  0  0  0  0  0  0
   38.8120   21.6990   30.5870 C   0  0  0  0  0  0  0  0  0  0  0  0
   39.0880   22.5560   29.5380 C   0  0  0  0  0  0  0  0  0  0  0  0
   38.4650   23.7340   29.7210 N   0  0  0  0  0  0  0  0  0  0  0  0
   37.7930   23.6170   30.8970 C   0  0  0  0  0  0  0  0  0  0  0  0
   39.9220   22.7090   37.5610 C   0  0  0  0  0  0  0  0  0  0  0  0
   39.1860   23.3530   38.5680 C   0  0  0  0  0  0  0  0  0  0  0  0
   37.7980   23.5180   38.3540 C   0  0  0  0  0  0  0  0  0  0  0  0
   37.2780   23.0330   37.1740 N   0  0  0  0  0  0  0  0  0  0  0  0
   38.0200   22.4270   36.2480 C   0  0  0  0  0  0  0  0  0  0  0  0
   39.3560   22.2540   36.4260 N   0  0  0  0  0  0  0  0  0  0  0  0
   35.8543   20.8102   36.0339 H   0  0  0  0  0  0  0  0  0  0  0  0
   34.8406   20.0389   33.8564 H   0  0  0  0  0  0  0  0  0  0  0  0
   35.8897   20.8131   31.7675 H   0  0  0  0  0  0  0  0  0  0  0  0
   39.1779   20.6695   30.7147 H   0  0  0  0  0  0  0  0  0  0  0  0
   39.7261   22.3097   28.6765 H   0  0  0  0  0  0  0  0  0  0  0  0
   37.1745   24.4056   31.3504 H   0  0  0  0  0  0  0  0  0  0  0  0
   41.0038   22.5703   37.7041 H   0  0  0  0  0  0  0  0  0  0  0  0
   39.6698   23.7150   39.4872 H   0  0  0  0  0  0  0  0  0  0  0  0
   37.1591   24.0137   39.0997 H   0  0  0  0  0  0  0  0  0  0  0  0
  1  2  2  0
  1 16  1  0
  3  2  1  0
  4  3  2  0
  5  4  1  0
  5  6  2  0
  6  1  1  0
  7  5  1  0
  8  7  1  0
  9 10  1  0
  9  8  2  0
 10 11  2  0
 11  7  1  0
 12 13  2  0
 14 13  1  0
 15 14  2  0
 16 17  2  0
 16 15  1  0
 17 12  1  0
  2 18  1  0
  3 19  1  0
  4 20  1  0
  8 21  1  0
  9 22  1  0
 11 23  1  0
 12 24  1  0
 13 25  1  0
 14 26  1  0
M  ISO  8  18  14  19  14  20  14  21  14  22  14  23  14  24  14  25  14
M  ISO  1  26  14
M  END
>  <minimizedAffinity>  (1) 
-4.56989717

>  <minimizedRMSD>  (1) 
0.523703635

$$$$
