
     RDKit          3D

 21 22  0  0  0  0  0  0  0  0999 V2000
   37.1380   21.8490   34.8410 C   0  0  0  0  0  0  0  0  0  0  0  0
   36.1520   20.8930   34.9640 C   0  0  0  0  0  0  0  0  0  0  0  0
   35.4750   20.4780   33.8270 C   0  0  0  0  0  0  0  0  0  0  0  0
   35.8510   21.0680   32.6400 C   0  0  0  0  0  0  0  0  0  0  0  0
   36.8140   22.0040   32.5110 C   0  0  0  0  0  0  0  0  0  0  0  0
   37.4500   22.3820   33.6360 N   0  0  0  0  0  0  0  0  0  0  0  0
   39.8840   22.6150   37.1430 C   0  0  0  0  0  0  0  0  0  0  0  0
   39.2310   23.2510   38.2260 C   0  0  0  0  0  0  0  0  0  0  0  0
   37.8410   23.3960   38.1240 C   0  0  0  0  0  0  0  0  0  0  0  0
   37.2100   22.9220   36.9980 N   0  0  0  0  0  0  0  0  0  0  0  0
   37.8830   22.3230   35.9960 C   0  0  0  0  0  0  0  0  0  0  0  0
   39.2180   22.1720   36.0710 N   0  0  0  0  0  0  0  0  0  0  0  0
   37.1340   22.5650   31.2070 C   0  0  0  0  0  0  0  0  0  0  0  0
   36.5950   23.6270   30.8230 O   0  0  0  0  0  0  0  0  0  0  0  0
   35.9064   20.4665   35.9478 H   0  0  0  0  0  0  0  0  0  0  0  0
   34.6804   19.7185   33.8705 H   0  0  0  0  0  0  0  0  0  0  0  0
   35.3254   20.7514   31.7270 H   0  0  0  0  0  0  0  0  0  0  0  0
   40.9750   22.4807   37.1844 H   0  0  0  0  0  0  0  0  0  0  0  0
   39.7868   23.6132   39.1035 H   0  0  0  0  0  0  0  0  0  0  0  0
   37.2665   23.8790   38.9281 H   0  0  0  0  0  0  0  0  0  0  0  0
   37.8551   22.0517   30.5539 H   0  0  0  0  0  0  0  0  0  0  0  0
  1  2  2  0
  1 11  1  0
  3  2  1  0
  4  3  2  0
  5  4  1  0
  5  6  2  0
  6  1  1  0
  7  8  2  0
  9  8  1  0
 10  9  2  0
 11 12  2  0
 11 10  1  0
 12  7  1  0
 13  5  1  0
 14 13  2  0
  2 15  1  0
  3 16  1  0
  4 17  1  0
  7 18  1  0
  8 19  1  0
  9 20  1  0
 13 21  1  0
M  ISO  7  15  14  16  14  17  14  18  14  19  14  20  14  21   6
M  END
>  <minimizedAffinity>  (1) 
-4.21097136

>  <minimizedRMSD>  (1) 
0.346046984

$$$$
