
     RDKit          3D

 21 22  0  0  0  0  0  0  0  0999 V2000
   37.1670   21.8420   34.9000 C   0  0  0  0  0  0  0  0  0  0  0  0
   36.1540   20.9060   35.0260 C   0  0  0  0  0  0  0  0  0  0  0  0
   35.4830   20.4750   33.8920 C   0  0  0  0  0  0  0  0  0  0  0  0
   35.8940   21.0300   32.7010 C   0  0  0  0  0  0  0  0  0  0  0  0
   36.8800   21.9450   32.5510 C   0  0  0  0  0  0  0  0  0  0  0  0
   37.5010   22.3310   33.6900 N   0  0  0  0  0  0  0  0  0  0  0  0
   37.2100   22.4430   31.2600 N   0  0  0  0  0  0  0  0  0  0  0  0
   39.8980   22.6220   37.2030 C   0  0  0  0  0  0  0  0  0  0  0  0
   39.2410   23.2700   38.2820 C   0  0  0  0  0  0  0  0  0  0  0  0
   37.8450   23.4160   38.1690 C   0  0  0  0  0  0  0  0  0  0  0  0
   37.2290   22.9310   37.0450 N   0  0  0  0  0  0  0  0  0  0  0  0
   37.8990   22.3260   36.0550 C   0  0  0  0  0  0  0  0  0  0  0  0
   39.2340   22.1740   36.1380 N   0  0  0  0  0  0  0  0  0  0  0  0
   35.8846   20.5086   36.0157 H   0  0  0  0  0  0  0  0  0  0  0  0
   34.6712   19.7343   33.9409 H   0  0  0  0  0  0  0  0  0  0  0  0
   35.3743   20.7001   31.7893 H   0  0  0  0  0  0  0  0  0  0  0  0
   37.9615   23.1392   31.1532 H   0  0  0  0  0  0  0  0  0  0  0  0
   36.6974   22.1074   30.4320 H   0  0  0  0  0  0  0  0  0  0  0  0
   40.9886   22.4856   37.2475 H   0  0  0  0  0  0  0  0  0  0  0  0
   39.7930   23.6383   39.1593 H   0  0  0  0  0  0  0  0  0  0  0  0
   37.2635   23.9071   38.9631 H   0  0  0  0  0  0  0  0  0  0  0  0
  1  2  2  0
  1 12  1  0
  3  2  1  0
  4  3  2  0
  5  4  1  0
  5  6  2  0
  6  1  1  0
  7  5  1  0
  8  9  2  0
 10  9  1  0
 11 10  2  0
 12 13  2  0
 12 11  1  0
 13  8  1  0
  2 14  1  0
  3 15  1  0
  4 16  1  0
  7 17  1  0
  7 18  1  0
  8 19  1  0
  9 20  1  0
 10 21  1  0
M  ISO  6  14  14  15  14  16  14  19  14  20  14  21  14
M  END
>  <minimizedAffinity>  (1) 
-4.16871595

>  <minimizedRMSD>  (1) 
0.0503055193

$$$$
