
     RDKit          3D

 20 21  0  0  0  0  0  0  0  0999 V2000
   37.1540   21.8090   34.9230 C   0  0  0  0  0  0  0  0  0  0  0  0
   36.1260   20.8890   35.0890 C   0  0  0  0  0  0  0  0  0  0  0  0
   35.4750   20.4670   33.9320 C   0  0  0  0  0  0  0  0  0  0  0  0
   35.8770   20.9720   32.7350 C   0  0  0  0  0  0  0  0  0  0  0  0
   36.8820   21.8700   32.5810 C   0  0  0  0  0  0  0  0  0  0  0  0
   37.5030   22.2680   33.7030 N   0  0  0  0  0  0  0  0  0  0  0  0
   39.8840   22.6450   37.2170 C   0  0  0  0  0  0  0  0  0  0  0  0
   39.2410   23.2890   38.2810 C   0  0  0  0  0  0  0  0  0  0  0  0
   37.8490   23.4250   38.1810 C   0  0  0  0  0  0  0  0  0  0  0  0
   37.2150   22.9240   37.0630 N   0  0  0  0  0  0  0  0  0  0  0  0
   37.8970   22.3120   36.0720 C   0  0  0  0  0  0  0  0  0  0  0  0
   39.2450   22.1620   36.1330 N   0  0  0  0  0  0  0  0  0  0  0  0
   37.3100   22.3980   31.3640 O   0  0  0  0  0  0  0  0  0  0  0  0
   35.8409   20.5133   36.0828 H   0  0  0  0  0  0  0  0  0  0  0  0
   34.6517   19.7394   33.9855 H   0  0  0  0  0  0  0  0  0  0  0  0
   35.3520   20.6293   31.8311 H   0  0  0  0  0  0  0  0  0  0  0  0
   40.9763   22.5261   37.2689 H   0  0  0  0  0  0  0  0  0  0  0  0
   39.7987   23.6684   39.1499 H   0  0  0  0  0  0  0  0  0  0  0  0
   37.2746   23.9208   38.9774 H   0  0  0  0  0  0  0  0  0  0  0  0
   38.0538   23.0510   31.3419 H   0  0  0  0  0  0  0  0  0  0  0  0
  1  2  2  0
  1 11  1  0
  3  2  1  0
  4  3  2  0
  5  4  1  0
  5  6  2  0
  6  1  1  0
  7  8  2  0
  9  8  1  0
 10  9  2  0
 11 12  2  0
 11 10  1  0
 12  7  1  0
 13  5  1  0
  2 14  1  0
  3 15  1  0
  4 16  1  0
  7 17  1  0
  8 18  1  0
  9 19  1  0
 13 20  1  0
M  ISO  7  14  14  15  14  16  14  17  14  18  14  19  14  20   3
M  END
>  <minimizedAffinity>  (1) 
-4.14451933

>  <minimizedRMSD>  (1) 
0.0634266883

$$$$
