
     RDKit          3D

 32 34  0  0  0  0  0  0  0  0999 V2000
   37.1700   21.8780   34.9370 C   0  0  0  0  0  0  0  0  0  0  0  0
   36.2080   20.9070   35.0440 C   0  0  0  0  0  0  0  0  0  0  0  0
   35.5220   20.5240   33.9040 C   0  0  0  0  0  0  0  0  0  0  0  0
   35.8480   21.1430   32.7390 C   0  0  0  0  0  0  0  0  0  0  0  0
   36.8090   22.1230   32.6000 C   0  0  0  0  0  0  0  0  0  0  0  0
   37.4400   22.4520   33.7370 N   0  0  0  0  0  0  0  0  0  0  0  0
   39.9230   22.6130   37.2310 C   0  0  0  0  0  0  0  0  0  0  0  0
   39.2970   23.2590   38.2990 C   0  0  0  0  0  0  0  0  0  0  0  0
   37.8990   23.4320   38.2010 C   0  0  0  0  0  0  0  0  0  0  0  0
   37.2660   22.9610   37.0800 N   0  0  0  0  0  0  0  0  0  0  0  0
   37.9420   22.3420   36.0850 C   0  0  0  0  0  0  0  0  0  0  0  0
   39.2680   22.1630   36.1470 N   0  0  0  0  0  0  0  0  0  0  0  0
   37.1390   22.7730   31.3360 C   0  0  0  0  0  0  0  0  0  0  0  0
   36.3010   23.9950   31.0670 C   0  0  0  0  0  0  0  0  0  0  0  0
   36.8880   25.2380   31.5030 C   0  0  0  0  0  0  0  0  0  0  0  0
   38.0950   25.5950   32.0320 C   0  0  0  0  0  0  0  0  0  0  0  0
   38.3710   26.8750   32.3530 C   0  0  0  0  0  0  0  0  0  0  0  0
   37.3340   27.8280   32.1130 C   0  0  0  0  0  0  0  0  0  0  0  0
   35.9110   26.8060   31.3890 S   0  0  0  0  0  0  0  0  0  0  0  0
   35.9858   20.4418   36.0157 H   0  0  0  0  0  0  0  0  0  0  0  0
   34.7429   19.7483   33.9399 H   0  0  0  0  0  0  0  0  0  0  0  0
   35.3018   20.8382   31.8342 H   0  0  0  0  0  0  0  0  0  0  0  0
   41.0118   22.4642   37.2795 H   0  0  0  0  0  0  0  0  0  0  0  0
   39.8639   23.6149   39.1719 H   0  0  0  0  0  0  0  0  0  0  0  0
   37.3336   23.9308   39.0019 H   0  0  0  0  0  0  0  0  0  0  0  0
   38.1972   23.0722   31.3614 H   0  0  0  0  0  0  0  0  0  0  0  0
   36.9359   22.0508   30.5315 H   0  0  0  0  0  0  0  0  0  0  0  0
   36.1283   24.0598   29.9826 H   0  0  0  0  0  0  0  0  0  0  0  0
   35.3747   23.8694   31.6469 H   0  0  0  0  0  0  0  0  0  0  0  0
   38.8588   24.8215   32.1999 H   0  0  0  0  0  0  0  0  0  0  0  0
   39.3423   27.1697   32.7769 H   0  0  0  0  0  0  0  0  0  0  0  0
   37.3563   28.9109   32.3051 H   0  0  0  0  0  0  0  0  0  0  0  0
  1  2  2  0
  1 11  1  0
  3  2  1  0
  4  3  2  0
  5  4  1  0
  5  6  2  0
  6  1  1  0
  7  8  2  0
  9  8  1  0
 10  9  2  0
 11 12  2  0
 11 10  1  0
 12  7  1  0
 13  5  1  0
 14 13  1  0
 14 15  1  0
 15 16  2  0
 16 17  1  0
 18 17  2  0
 19 15  1  0
 19 18  1  0
  2 20  1  0
  3 21  1  0
  4 22  1  0
  7 23  1  0
  8 24  1  0
  9 25  1  0
 13 26  1  0
 13 27  1  0
 14 28  1  0
 14 29  1  0
 16 30  1  0
 17 31  1  0
 18 32  1  0
M  ISO  8  20  14  21  14  22  14  23  14  24  14  25  14  26   8  27   8
M  ISO  5  28   8  29   8  30  14  31  14  32  14
M  END
>  <minimizedAffinity>  (1) 
-4.95266008

>  <minimizedRMSD>  (1) 
0.771804571

$$$$
