
     RDKit          3D

 32 34  0  0  0  0  0  0  0  0999 V2000
   37.1920   21.8120   35.2790 C   0  0  0  0  0  0  0  0  0  0  0  0
   36.2020   20.9070   35.5050 C   0  0  0  0  0  0  0  0  0  0  0  0
   35.4680   20.4430   34.4230 C   0  0  0  0  0  0  0  0  0  0  0  0
   35.7990   20.9350   33.1910 C   0  0  0  0  0  0  0  0  0  0  0  0
   36.7910   21.8450   32.9370 C   0  0  0  0  0  0  0  0  0  0  0  0
   37.4560   22.2490   34.0210 N   0  0  0  0  0  0  0  0  0  0  0  0
   40.0390   22.6830   37.4120 C   0  0  0  0  0  0  0  0  0  0  0  0
   39.4610   23.4470   38.4290 C   0  0  0  0  0  0  0  0  0  0  0  0
   38.0650   23.6540   38.3610 C   0  0  0  0  0  0  0  0  0  0  0  0
   37.3930   23.0930   37.3100 N   0  0  0  0  0  0  0  0  0  0  0  0
   38.0160   22.3580   36.3510 C   0  0  0  0  0  0  0  0  0  0  0  0
   39.3370   22.1530   36.4020 N   0  0  0  0  0  0  0  0  0  0  0  0
   37.1020   22.3360   31.5970 C   0  0  0  0  0  0  0  0  0  0  0  0
   35.9200   22.9480   30.9010 C   0  0  0  0  0  0  0  0  0  0  0  0
   35.5170   24.2180   31.6180 C   0  0  0  0  0  0  0  0  0  0  0  0
   34.7550   25.2280   30.7500 C   0  0  0  0  0  0  0  0  0  0  0  0
   36.1540   25.5080   31.2110 C   0  0  0  0  0  0  0  0  0  0  0  0
   35.9880   20.5508   36.5235 H   0  0  0  0  0  0  0  0  0  0  0  0
   34.6560   19.7120   34.5506 H   0  0  0  0  0  0  0  0  0  0  0  0
   35.2195   20.5690   32.3306 H   0  0  0  0  0  0  0  0  0  0  0  0
   41.1246   22.5081   37.4423 H   0  0  0  0  0  0  0  0  0  0  0  0
   40.0655   23.8683   39.2458 H   0  0  0  0  0  0  0  0  0  0  0  0
   37.5381   24.2445   39.1250 H   0  0  0  0  0  0  0  0  0  0  0  0
   37.8922   23.0969   31.6783 H   0  0  0  0  0  0  0  0  0  0  0  0
   37.4214   21.4704   30.9981 H   0  0  0  0  0  0  0  0  0  0  0  0
   36.1881   23.1833   29.8604 H   0  0  0  0  0  0  0  0  0  0  0  0
   35.0798   22.2381   30.9106 H   0  0  0  0  0  0  0  0  0  0  0  0
   35.3726   23.7152   32.5856 H   0  0  0  0  0  0  0  0  0  0  0  0
   33.9107   25.7930   31.1718 H   0  0  0  0  0  0  0  0  0  0  0  0
   34.2425   25.1954   29.7773 H   0  0  0  0  0  0  0  0  0  0  0  0
   36.9792   25.5032   30.4836 H   0  0  0  0  0  0  0  0  0  0  0  0
   36.6316   26.3347   31.7573 H   0  0  0  0  0  0  0  0  0  0  0  0
  1  2  2  0
  1 11  1  0
  3  2  1  0
  4  3  2  0
  5  4  1  0
  5  6  2  0
  6  1  1  0
  7  8  2  0
  9  8  1  0
 10  9  2  0
 11 12  2  0
 11 10  1  0
 12  7  1  0
 13  5  1  0
 14 13  1  0
 14 15  1  0
 16 17  1  0
 16 15  1  0
 17 15  1  0
  2 18  1  0
  3 19  1  0
  4 20  1  0
  7 21  1  0
  8 22  1  0
  9 23  1  0
 13 24  1  0
 13 25  1  0
 14 26  1  0
 14 27  1  0
 15 28  1  0
 16 29  1  0
 16 30  1  0
 17 31  1  0
 17 32  1  0
M  ISO  8  18  14  19  14  20  14  21  14  22  14  23  14  24   8  25   8
M  ISO  7  26   8  27   8  28  13  29  13  30  13  31  13  32  13
M  END
>  <minimizedAffinity>  (1) 
-4.73265219

>  <minimizedRMSD>  (1) 
0.830006063

$$$$
