
     RDKit          3D

 38 40  0  0  0  0  0  0  0  0999 V2000
   37.1290   21.8690   34.8200 C   0  0  0  0  0  0  0  0  0  0  0  0
   36.2580   20.8200   34.9110 C   0  0  0  0  0  0  0  0  0  0  0  0
   35.5090   20.4790   33.7970 C   0  0  0  0  0  0  0  0  0  0  0  0
   35.6860   21.2110   32.6760 C   0  0  0  0  0  0  0  0  0  0  0  0
   36.5470   22.2670   32.5450 C   0  0  0  0  0  0  0  0  0  0  0  0
   37.2540   22.5630   33.6530 N   0  0  0  0  0  0  0  0  0  0  0  0
   39.9860   22.4910   37.0140 C   0  0  0  0  0  0  0  0  0  0  0  0
   39.4370   23.1560   38.1040 C   0  0  0  0  0  0  0  0  0  0  0  0
   38.0410   23.3830   38.0560 C   0  0  0  0  0  0  0  0  0  0  0  0
   37.3410   22.9410   36.9600 N   0  0  0  0  0  0  0  0  0  0  0  0
   37.9570   22.2990   35.9370 C   0  0  0  0  0  0  0  0  0  0  0  0
   39.2840   22.0690   35.9560 N   0  0  0  0  0  0  0  0  0  0  0  0
   36.7370   23.0660   31.3150 C   0  0  0  0  0  0  0  0  0  0  0  0
   35.9660   24.3440   31.3250 C   0  0  0  0  0  0  0  0  0  0  0  0
   36.8370   25.5520   31.0290 C   0  0  0  0  0  0  0  0  0  0  0  0
   36.0110   26.8030   31.0820 C   0  0  0  0  0  0  0  0  0  0  0  0
   37.0050   27.8290   31.6040 C   0  0  0  0  0  0  0  0  0  0  0  0
   37.6130   27.0460   32.7610 C   0  0  0  0  0  0  0  0  0  0  0  0
   37.8360   25.6660   32.1630 C   0  0  0  0  0  0  0  0  0  0  0  0
   36.1538   20.2575   35.8505 H   0  0  0  0  0  0  0  0  0  0  0  0
   34.7957   19.6421   33.8243 H   0  0  0  0  0  0  0  0  0  0  0  0
   35.0883   20.9356   31.7946 H   0  0  0  0  0  0  0  0  0  0  0  0
   41.0691   22.2990   37.0216 H   0  0  0  0  0  0  0  0  0  0  0  0
   40.0517   23.4865   38.9543 H   0  0  0  0  0  0  0  0  0  0  0  0
   37.5276   23.9022   38.8787 H   0  0  0  0  0  0  0  0  0  0  0  0
   36.4098   22.4659   30.4531 H   0  0  0  0  0  0  0  0  0  0  0  0
   37.8041   23.3259   31.2529 H   0  0  0  0  0  0  0  0  0  0  0  0
   35.1749   24.2845   30.5630 H   0  0  0  0  0  0  0  0  0  0  0  0
   35.5474   24.4734   32.3340 H   0  0  0  0  0  0  0  0  0  0  0  0
   37.3067   25.4373   30.0409 H   0  0  0  0  0  0  0  0  0  0  0  0
   35.6420   27.0788   30.0831 H   0  0  0  0  0  0  0  0  0  0  0  0
   35.1093   26.7082   31.7049 H   0  0  0  0  0  0  0  0  0  0  0  0
   37.7590   28.0887   30.8463 H   0  0  0  0  0  0  0  0  0  0  0  0
   36.5662   28.7987   31.8816 H   0  0  0  0  0  0  0  0  0  0  0  0
   38.5637   27.4944   33.0850 H   0  0  0  0  0  0  0  0  0  0  0  0
   36.9744   27.0315   33.6565 H   0  0  0  0  0  0  0  0  0  0  0  0
   37.6532   24.8859   32.9167 H   0  0  0  0  0  0  0  0  0  0  0  0
   38.8701   25.5349   31.8116 H   0  0  0  0  0  0  0  0  0  0  0  0
  1  2  2  0
  1 11  1  0
  3  2  1  0
  4  3  2  0
  5  4  1  0
  5  6  2  0
  6  1  1  0
  7  8  2  0
  9  8  1  0
 10  9  2  0
 11 12  2  0
 11 10  1  0
 12  7  1  0
 13 14  1  0
 13  5  1  0
 15 16  1  0
 15 14  1  0
 15 19  1  0
 16 17  1  0
 17 18  1  0
 19 18  1  0
  2 20  1  0
  3 21  1  0
  4 22  1  0
  7 23  1  0
  8 24  1  0
  9 25  1  0
 13 26  1  0
 13 27  1  0
 14 28  1  0
 14 29  1  0
 15 30  1  0
 16 31  1  0
 16 32  1  0
 17 33  1  0
 17 34  1  0
 18 35  1  0
 18 36  1  0
 19 37  1  0
 19 38  1  0
M  ISO  8  20  14  21  14  22  14  23  14  24  14  25  14  26   8  27   8
M  ISO  8  28   8  29   8  30  13  31  13  32  13  33  13  34  13  35  13
M  ISO  3  36  13  37  13  38  13
M  END
>  <minimizedAffinity>  (1) 
-4.92658901

>  <minimizedRMSD>  (1) 
1.38932061

$$$$
