
     RDKit          3D

 49 53  0  0  1  0  0  0  0  0999 V2000
   35.9190   24.8450   31.4330 C   0  0  0  0  0  0  0  0  0  0  0  0
   36.9470   25.9610   31.6590 C   0  0  1  0  0  0  0  0  0  0  0  0
   36.5450   27.1140   30.7610 C   0  0  0  0  0  0  0  0  0  0  0  0
   37.0200   28.2980   31.5770 C   0  0  0  0  0  0  0  0  0  0  0  0
   36.4250   27.9230   32.9280 C   0  0  0  0  0  0  0  0  0  0  0  0
   36.8050   26.4340   33.0460 C   0  0  2  0  0  0  0  0  0  0  0  0
   37.9950   26.4210   33.8590 N   0  0  0  0  0  0  0  0  0  0  0  0
   38.1420   27.1920   34.9540 C   0  0  0  0  0  0  0  0  0  0  0  0
   39.3200   26.9820   35.5080 N   0  0  0  0  0  0  0  0  0  0  0  0
   39.9830   26.0640   34.7930 C   0  0  0  0  0  0  0  0  0  0  0  0
   41.2460   25.5020   34.9570 C   0  0  0  0  0  0  0  0  0  0  0  0
   41.5890   24.5940   34.0300 N   0  0  0  0  0  0  0  0  0  0  0  0
   40.7530   24.2660   33.0230 C   0  0  0  0  0  0  0  0  0  0  0  0
   39.5430   24.8220   32.8900 N   0  0  0  0  0  0  0  0  0  0  0  0
   39.1350   25.7230   33.7610 C   0  0  0  0  0  0  0  0  0  0  0  0
   36.5670   23.5210   31.1840 C   0  0  0  0  0  0  0  0  0  0  0  0
   37.1380   21.9750   34.5120 C   0  0  0  0  0  0  0  0  0  0  0  0
   36.3060   20.8940   34.5290 C   0  0  0  0  0  0  0  0  0  0  0  0
   35.5200   20.6460   33.4160 C   0  0  0  0  0  0  0  0  0  0  0  0
   35.6250   21.5010   32.3650 C   0  0  0  0  0  0  0  0  0  0  0  0
   36.4500   22.5940   32.3170 C   0  0  0  0  0  0  0  0  0  0  0  0
   37.1780   22.7710   33.4240 N   0  0  0  0  0  0  0  0  0  0  0  0
   40.0250   22.4250   36.6920 C   0  0  0  0  0  0  0  0  0  0  0  0
   39.5280   23.0230   37.8300 C   0  0  0  0  0  0  0  0  0  0  0  0
   38.1470   23.2670   37.8120 C   0  0  0  0  0  0  0  0  0  0  0  0
   37.4160   22.9060   36.7050 N   0  0  0  0  0  0  0  0  0  0  0  0
   37.9960   22.3180   35.6240 C   0  0  0  0  0  0  0  0  0  0  0  0
   39.3110   22.0740   35.6150 N   0  0  0  0  0  0  0  0  0  0  0  0
   35.2814   24.7648   32.3258 H   0  0  0  0  0  0  0  0  0  0  0  0
   35.3295   25.1050   30.5414 H   0  0  0  0  0  0  0  0  0  0  0  0
   37.9699   25.6096   31.4585 H   0  0  0  0  0  0  0  0  0  0  0  0
   35.4567   27.1427   30.6039 H   0  0  0  0  0  0  0  0  0  0  0  0
   36.9665   27.0655   29.7461 H   0  0  0  0  0  0  0  0  0  0  0  0
   38.1178   28.3577   31.6138 H   0  0  0  0  0  0  0  0  0  0  0  0
   36.7226   29.2840   31.1905 H   0  0  0  0  0  0  0  0  0  0  0  0
   36.8730   28.5149   33.7397 H   0  0  0  0  0  0  0  0  0  0  0  0
   35.3438   28.1112   33.0030 H   0  0  0  0  0  0  0  0  0  0  0  0
   36.0857   25.7570   33.5300 H   0  0  0  0  0  0  0  0  0  0  0  0
   37.3866   27.8966   35.3322 H   0  0  0  0  0  0  0  0  0  0  0  0
   41.9137   25.7815   35.7853 H   0  0  0  0  0  0  0  0  0  0  0  0
   41.0770   23.5161   32.2863 H   0  0  0  0  0  0  0  0  0  0  0  0
   36.0924   23.0599   30.3053 H   0  0  0  0  0  0  0  0  0  0  0  0
   37.6394   23.7081   31.0259 H   0  0  0  0  0  0  0  0  0  0  0  0
   36.2604   20.2337   35.4076 H   0  0  0  0  0  0  0  0  0  0  0  0
   34.8343   19.7865   33.3839 H   0  0  0  0  0  0  0  0  0  0  0  0
   34.9985   21.2999   31.4835 H   0  0  0  0  0  0  0  0  0  0  0  0
   41.1049   22.2175   36.6662 H   0  0  0  0  0  0  0  0  0  0  0  0
   40.1654   23.2884   38.6863 H   0  0  0  0  0  0  0  0  0  0  0  0
   37.6545   23.7416   38.6735 H   0  0  0  0  0  0  0  0  0  0  0  0
  1  2  1  0
  2  6  1  0
  3  4  1  0
  3  2  1  0
  4  5  1  0
  5  6  1  0
  6  7  1  0
  7  8  1  0
  8  9  2  0
 10 11  2  0
 10  9  1  0
 12 11  1  0
 13 12  2  0
 14 13  1  0
 14 15  2  0
 15  7  1  0
 15 10  1  0
 16  1  1  0
 16 21  1  0
 17 18  2  0
 17 27  1  0
 19 18  1  0
 20 19  2  0
 21 20  1  0
 21 22  2  0
 22 17  1  0
 23 24  2  0
 25 24  1  0
 26 25  2  0
 27 26  1  0
 28 27  2  0
 28 23  1  0
  1 29  1  0
  1 30  1  0
  2 31  1  6
  3 32  1  0
  3 33  1  0
  4 34  1  0
  4 35  1  0
  5 36  1  0
  5 37  1  0
  6 38  1  1
  8 39  1  0
 11 40  1  0
 13 41  1  0
 16 42  1  0
 16 43  1  0
 18 44  1  0
 19 45  1  0
 20 46  1  0
 23 47  1  0
 24 48  1  0
 25 49  1  0
M  ISO  8  29   8  30   8  31  13  32  13  33  13  34  13  35  13  36  13
M  ISO  8  37  13  38  13  39  14  40  14  41  14  42   8  43   8  44  14
M  ISO  5  45  14  46  14  47  14  48  14  49  14
M  END
>  <minimizedAffinity>  (1) 
-6.01292419

>  <minimizedRMSD>  (1) 
1.98798299

$$$$
