
     RDKit          3D

 49 52  0  0  1  0  0  0  0  0999 V2000
   36.0390   24.8980   31.3680 C   0  0  0  0  0  0  0  0  0  0  0  0
   36.8650   26.1890   31.4130 C   0  0  1  0  0  0  0  0  0  0  0  0
   36.0960   27.2610   30.7290 C   0  0  0  0  0  0  0  0  0  0  0  0
   36.3010   28.4940   31.5300 C   0  0  0  0  0  0  0  0  0  0  0  0
   36.4180   27.9840   32.9280 C   0  0  0  0  0  0  0  0  0  0  0  0
   36.9750   26.5940   32.8500 C   0  0  2  0  0  0  0  0  0  0  0  0
   38.3020   26.4900   33.4160 N   0  0  0  0  0  0  0  0  0  0  0  0
   39.4450   26.7310   32.7450 C   0  0  0  0  0  0  0  0  0  0  0  0
   40.7100   26.6320   33.2830 C   0  0  0  0  0  0  0  0  0  0  0  0
   40.8360   26.2650   34.5870 C   0  0  0  0  0  0  0  0  0  0  0  0
   42.1550   26.1670   35.1280 N   0  0  0  0  0  0  0  0  0  0  0  0
   39.7340   26.0190   35.2820 N   0  0  0  0  0  0  0  0  0  0  0  0
   38.5400   26.1310   34.7110 C   0  0  0  0  0  0  0  0  0  0  0  0
   37.5720   25.8720   35.4670 O   0  0  0  0  0  0  0  0  0  0  0  0
   36.9170   23.6880   31.2550 C   0  0  0  0  0  0  0  0  0  0  0  0
   37.2620   22.0930   34.6040 C   0  0  0  0  0  0  0  0  0  0  0  0
   36.4100   21.0290   34.5540 C   0  0  0  0  0  0  0  0  0  0  0  0
   35.6900   20.8020   33.4060 C   0  0  0  0  0  0  0  0  0  0  0  0
   35.8720   21.6650   32.3690 C   0  0  0  0  0  0  0  0  0  0  0  0
   36.7170   22.7500   32.3720 C   0  0  0  0  0  0  0  0  0  0  0  0
   37.3750   22.8920   33.5260 N   0  0  0  0  0  0  0  0  0  0  0  0
   40.0410   22.5090   36.9280 C   0  0  0  0  0  0  0  0  0  0  0  0
   39.4710   23.0550   38.0610 C   0  0  0  0  0  0  0  0  0  0  0  0
   38.0840   23.2780   38.0010 C   0  0  0  0  0  0  0  0  0  0  0  0
   37.4180   22.9440   36.8490 N   0  0  0  0  0  0  0  0  0  0  0  0
   38.0590   22.4100   35.7730 C   0  0  0  0  0  0  0  0  0  0  0  0
   39.3760   22.1880   35.8070 N   0  0  0  0  0  0  0  0  0  0  0  0
   35.4431   24.8225   32.2896 H   0  0  0  0  0  0  0  0  0  0  0  0
   35.3874   24.9357   30.4826 H   0  0  0  0  0  0  0  0  0  0  0  0
   37.8480   26.0390   30.9426 H   0  0  0  0  0  0  0  0  0  0  0  0
   36.4709   27.4050   29.7049 H   0  0  0  0  0  0  0  0  0  0  0  0
   35.0290   27.0039   30.6553 H   0  0  0  0  0  0  0  0  0  0  0  0
   37.2201   29.0145   31.2228 H   0  0  0  0  0  0  0  0  0  0  0  0
   35.4889   29.2257   31.4067 H   0  0  0  0  0  0  0  0  0  0  0  0
   37.0944   28.6286   33.5086 H   0  0  0  0  0  0  0  0  0  0  0  0
   35.4371   27.9833   33.4258 H   0  0  0  0  0  0  0  0  0  0  0  0
   36.4051   25.8890   33.4730 H   0  0  0  0  0  0  0  0  0  0  0  0
   39.3626   27.0289   31.6893 H   0  0  0  0  0  0  0  0  0  0  0  0
   41.5989   26.8452   32.6711 H   0  0  0  0  0  0  0  0  0  0  0  0
   42.2891   25.8919   36.1115 H   0  0  0  0  0  0  0  0  0  0  0  0
   42.9716   26.3715   34.5345 H   0  0  0  0  0  0  0  0  0  0  0  0
   36.6872   23.1703   30.3121 H   0  0  0  0  0  0  0  0  0  0  0  0
   37.9634   24.0262   31.2810 H   0  0  0  0  0  0  0  0  0  0  0  0
   36.3008   20.3614   35.4214 H   0  0  0  0  0  0  0  0  0  0  0  0
   34.9927   19.9548   33.3278 H   0  0  0  0  0  0  0  0  0  0  0  0
   35.2946   21.4788   31.4514 H   0  0  0  0  0  0  0  0  0  0  0  0
   41.1249   22.3225   36.9454 H   0  0  0  0  0  0  0  0  0  0  0  0
   40.0645   23.3000   38.9541 H   0  0  0  0  0  0  0  0  0  0  0  0
   37.5457   23.7100   38.8575 H   0  0  0  0  0  0  0  0  0  0  0  0
  1  2  1  0
  2  6  1  0
  3  2  1  0
  3  4  1  0
  4  5  1  0
  6  5  1  0
  6  7  1  0
  7 13  1  0
  8  9  2  0
  8  7  1  0
  9 10  1  0
 10 11  1  0
 10 12  2  0
 13 12  1  0
 13 14  2  0
 15  1  1  0
 15 20  1  0
 16 26  1  0
 17 16  2  0
 18 17  1  0
 19 20  1  0
 19 18  2  0
 20 21  2  0
 21 16  1  0
 22 23  2  0
 24 23  1  0
 25 24  2  0
 26 27  2  0
 26 25  1  0
 27 22  1  0
  1 28  1  0
  1 29  1  0
  2 30  1  6
  3 31  1  0
  3 32  1  0
  4 33  1  0
  4 34  1  0
  5 35  1  0
  5 36  1  0
  6 37  1  1
  8 38  1  0
  9 39  1  0
 11 40  1  0
 11 41  1  0
 15 42  1  0
 15 43  1  0
 17 44  1  0
 18 45  1  0
 19 46  1  0
 22 47  1  0
 23 48  1  0
 24 49  1  0
M  ISO  8  28   8  29   8  30  13  31  13  32  13  33  13  34  13  35  13
M  ISO  8  36  13  37  13  38  14  39  14  42   8  43   8  44  14  45  14
M  ISO  4  46  14  47  14  48  14  49  14
M  END
>  <minimizedAffinity>  (1) 
-6.08041525

>  <minimizedRMSD>  (1) 
1.95407271

$$$$
