
     RDKit          3D

 54 57  0  0  1  0  0  0  0  0999 V2000
   35.9000   24.6830   31.3860 C   0  0  0  0  0  0  0  0  0  0  0  0
   36.9090   25.8300   31.4870 C   0  0  1  0  0  0  0  0  0  0  0  0
   36.2680   27.0320   30.8610 C   0  0  0  0  0  0  0  0  0  0  0  0
   36.7040   28.1820   31.7150 C   0  0  0  0  0  0  0  0  0  0  0  0
   36.5870   27.5840   33.0960 C   0  0  0  0  0  0  0  0  0  0  0  0
   37.0720   26.1380   32.9320 C   0  0  2  0  0  0  0  0  0  0  0  0
   38.4660   25.9770   33.4840 C   0  0  0  0  0  0  0  0  0  0  0  0
   38.8210   27.0140   34.5290 C   0  0  0  0  0  0  0  0  0  0  0  0
   40.2550   26.6850   34.9620 C   0  0  0  0  0  0  0  0  0  0  0  0
   41.1660   27.2250   33.8800 C   0  0  0  0  0  0  0  0  0  0  0  0
   40.4970   27.0930   32.5260 C   0  0  0  0  0  0  0  0  0  0  0  0
   39.5670   25.8700   32.5110 C   0  0  0  0  0  0  0  0  0  0  0  0
   36.5530   23.3690   31.1790 C   0  0  0  0  0  0  0  0  0  0  0  0
   37.1190   21.9100   34.5740 C   0  0  0  0  0  0  0  0  0  0  0  0
   36.2640   20.8360   34.6120 C   0  0  0  0  0  0  0  0  0  0  0  0
   35.4780   20.5700   33.5040 C   0  0  0  0  0  0  0  0  0  0  0  0
   35.6040   21.3930   32.4490 C   0  0  0  0  0  0  0  0  0  0  0  0
   36.4430   22.4800   32.3590 C   0  0  0  0  0  0  0  0  0  0  0  0
   37.1640   22.6690   33.4620 N   0  0  0  0  0  0  0  0  0  0  0  0
   40.0070   22.3820   36.7560 C   0  0  0  0  0  0  0  0  0  0  0  0
   39.5020   23.0270   37.8690 C   0  0  0  0  0  0  0  0  0  0  0  0
   38.1230   23.2950   37.8340 C   0  0  0  0  0  0  0  0  0  0  0  0
   37.3880   22.9130   36.7370 N   0  0  0  0  0  0  0  0  0  0  0  0
   37.9800   22.2780   35.6820 C   0  0  0  0  0  0  0  0  0  0  0  0
   39.2880   22.0080   35.6840 N   0  0  0  0  0  0  0  0  0  0  0  0
   35.3161   24.6439   32.3174 H   0  0  0  0  0  0  0  0  0  0  0  0
   35.2583   24.8783   30.5141 H   0  0  0  0  0  0  0  0  0  0  0  0
   37.8661   25.5755   31.0083 H   0  0  0  0  0  0  0  0  0  0  0  0
   36.6168   27.1630   29.8260 H   0  0  0  0  0  0  0  0  0  0  0  0
   35.1728   26.9417   30.8113 H   0  0  0  0  0  0  0  0  0  0  0  0
   37.7389   28.4803   31.4914 H   0  0  0  0  0  0  0  0  0  0  0  0
   36.1158   29.1001   31.5697 H   0  0  0  0  0  0  0  0  0  0  0  0
   37.2222   28.1283   33.8103 H   0  0  0  0  0  0  0  0  0  0  0  0
   35.5612   27.6386   33.4894 H   0  0  0  0  0  0  0  0  0  0  0  0
   36.4916   25.4062   33.5130 H   0  0  0  0  0  0  0  0  0  0  0  0
   38.3868   24.9833   33.9491 H   0  0  0  0  0  0  0  0  0  0  0  0
   38.7716   28.0254   34.0993 H   0  0  0  0  0  0  0  0  0  0  0  0
   38.1230   26.9925   35.3789 H   0  0  0  0  0  0  0  0  0  0  0  0
   40.4812   27.1669   35.9246 H   0  0  0  0  0  0  0  0  0  0  0  0
   40.3920   25.6014   35.0929 H   0  0  0  0  0  0  0  0  0  0  0  0
   41.3794   28.2856   34.0791 H   0  0  0  0  0  0  0  0  0  0  0  0
   42.1038   26.6501   33.8772 H   0  0  0  0  0  0  0  0  0  0  0  0
   39.9085   27.9996   32.3215 H   0  0  0  0  0  0  0  0  0  0  0  0
   41.2704   26.9655   31.7543 H   0  0  0  0  0  0  0  0  0  0  0  0
   39.1369   25.7680   31.5037 H   0  0  0  0  0  0  0  0  0  0  0  0
   40.1697   24.9927   32.7886 H   0  0  0  0  0  0  0  0  0  0  0  0
   36.0786   22.8725   30.3197 H   0  0  0  0  0  0  0  0  0  0  0  0
   37.6229   23.5552   31.0038 H   0  0  0  0  0  0  0  0  0  0  0  0
   36.2048   20.1987   35.5066 H   0  0  0  0  0  0  0  0  0  0  0  0
   34.7794   19.7205   33.4877 H   0  0  0  0  0  0  0  0  0  0  0  0
   34.9755   21.1767   31.5725 H   0  0  0  0  0  0  0  0  0  0  0  0
   41.0836   22.1567   36.7468 H   0  0  0  0  0  0  0  0  0  0  0  0
   40.1352   23.3108   38.7226 H   0  0  0  0  0  0  0  0  0  0  0  0
   37.6358   23.8062   38.6774 H   0  0  0  0  0  0  0  0  0  0  0  0
  1  2  1  0
  2  6  1  0
  3  2  1  0
  3  4  1  0
  4  5  1  0
  6  5  1  0
  6  7  1  0
  7  8  1  0
  8  9  1  0
 10  9  1  0
 11 10  1  0
 12 11  1  0
 12  7  1  0
 13  1  1  0
 13 18  1  0
 14 15  2  0
 14 24  1  0
 16 15  1  0
 17 16  2  0
 18 17  1  0
 18 19  2  0
 19 14  1  0
 20 21  2  0
 22 21  1  0
 23 22  2  0
 24 25  2  0
 24 23  1  0
 25 20  1  0
  1 26  1  0
  1 27  1  0
  2 28  1  6
  3 29  1  0
  3 30  1  0
  4 31  1  0
  4 32  1  0
  5 33  1  0
  5 34  1  0
  6 35  1  1
  7 36  1  0
  8 37  1  0
  8 38  1  0
  9 39  1  0
  9 40  1  0
 10 41  1  0
 10 42  1  0
 11 43  1  0
 11 44  1  0
 12 45  1  0
 12 46  1  0
 13 47  1  0
 13 48  1  0
 15 49  1  0
 16 50  1  0
 17 51  1  0
 20 52  1  0
 21 53  1  0
 22 54  1  0
M  ISO  8  26   8  27   8  28  13  29  13  30  13  31  13  32  13  33  13
M  ISO  8  34  13  35  13  36  13  37  13  38  13  39  13  40  13  41  13
M  ISO  8  42  13  43  13  44  13  45  13  46  13  47   8  48   8  49  14
M  ISO  5  50  14  51  14  52  14  53  14  54  14
M  END
>  <minimizedAffinity>  (1) 
-6.16239834

>  <minimizedRMSD>  (1) 
1.28274226

$$$$
