
     RDKit          3D

 51 54  0  0  1  0  0  0  0  0999 V2000
   36.0330   24.7550   31.2660 C   0  0  0  0  0  0  0  0  0  0  0  0
   36.9540   25.9250   31.5440 C   0  0  1  0  0  0  0  0  0  0  0  0
   36.5790   27.0820   30.6710 C   0  0  0  0  0  0  0  0  0  0  0  0
   36.9230   28.2710   31.5340 C   0  0  0  0  0  0  0  0  0  0  0  0
   36.3550   27.8320   32.8850 C   0  0  0  0  0  0  0  0  0  0  0  0
   36.6810   26.3740   32.9390 C   0  0  2  0  0  0  0  0  0  0  0  0
   37.6870   26.0420   33.8820 N   0  0  0  0  0  0  0  0  0  0  0  0
   37.4810   26.4730   35.2150 C   0  0  0  0  0  0  0  0  0  0  0  0
   38.6520   27.1930   35.8310 C   0  0  0  0  0  0  0  0  0  0  0  0
   39.8890   26.7030   35.4710 O   0  0  0  0  0  0  0  0  0  0  0  0
   39.8150   25.5520   34.7320 C   0  0  0  0  0  0  0  0  0  0  0  0
   39.0150   25.8710   33.4580 C   0  0  0  0  0  0  0  0  0  0  0  0
   36.7790   23.4610   31.1210 C   0  0  0  0  0  0  0  0  0  0  0  0
   37.1930   21.9920   34.5150 C   0  0  0  0  0  0  0  0  0  0  0  0
   36.2980   20.9540   34.5450 C   0  0  0  0  0  0  0  0  0  0  0  0
   35.5210   20.7090   33.4210 C   0  0  0  0  0  0  0  0  0  0  0  0
   35.7000   21.5250   32.3500 C   0  0  0  0  0  0  0  0  0  0  0  0
   36.5830   22.5730   32.2800 C   0  0  0  0  0  0  0  0  0  0  0  0
   37.2900   22.7410   33.3980 N   0  0  0  0  0  0  0  0  0  0  0  0
   40.0570   22.3270   36.7540 C   0  0  0  0  0  0  0  0  0  0  0  0
   39.5580   23.0240   37.8360 C   0  0  0  0  0  0  0  0  0  0  0  0
   38.2000   23.3810   37.7790 C   0  0  0  0  0  0  0  0  0  0  0  0
   37.4750   23.0140   36.6610 N   0  0  0  0  0  0  0  0  0  0  0  0
   38.0450   22.3280   35.6380 C   0  0  0  0  0  0  0  0  0  0  0  0
   39.3350   21.9820   35.6820 N   0  0  0  0  0  0  0  0  0  0  0  0
   35.3207   24.6606   32.0989 H   0  0  0  0  0  0  0  0  0  0  0  0
   35.5173   24.9530   30.3148 H   0  0  0  0  0  0  0  0  0  0  0  0
   37.9980   25.6227   31.3745 H   0  0  0  0  0  0  0  0  0  0  0  0
   35.5063   27.0648   30.4281 H   0  0  0  0  0  0  0  0  0  0  0  0
   37.0954   27.0825   29.6998 H   0  0  0  0  0  0  0  0  0  0  0  0
   38.0102   28.4300   31.5863 H   0  0  0  0  0  0  0  0  0  0  0  0
   36.5231   29.2271   31.1654 H   0  0  0  0  0  0  0  0  0  0  0  0
   36.8386   28.3746   33.7107 H   0  0  0  0  0  0  0  0  0  0  0  0
   35.2788   28.0360   32.9858 H   0  0  0  0  0  0  0  0  0  0  0  0
   35.8202   25.8124   33.3309 H   0  0  0  0  0  0  0  0  0  0  0  0
   36.6164   27.1529   35.2257 H   0  0  0  0  0  0  0  0  0  0  0  0
   37.3240   25.5644   35.8149 H   0  0  0  0  0  0  0  0  0  0  0  0
   38.6015   28.2493   35.5281 H   0  0  0  0  0  0  0  0  0  0  0  0
   38.5668   27.0473   36.9180 H   0  0  0  0  0  0  0  0  0  0  0  0
   40.8263   25.2115   34.4650 H   0  0  0  0  0  0  0  0  0  0  0  0
   39.3245   24.7531   35.3075 H   0  0  0  0  0  0  0  0  0  0  0  0
   39.0857   25.0395   32.7413 H   0  0  0  0  0  0  0  0  0  0  0  0
   39.3993   26.7668   32.9483 H   0  0  0  0  0  0  0  0  0  0  0  0
   36.4232   22.9464   30.2162 H   0  0  0  0  0  0  0  0  0  0  0  0
   37.8516   23.6953   31.0526 H   0  0  0  0  0  0  0  0  0  0  0  0
   36.1974   20.3269   35.4431 H   0  0  0  0  0  0  0  0  0  0  0  0
   34.7900   19.8873   33.3986 H   0  0  0  0  0  0  0  0  0  0  0  0
   35.0830   21.3285   31.4608 H   0  0  0  0  0  0  0  0  0  0  0  0
   41.1177   22.0363   36.7746 H   0  0  0  0  0  0  0  0  0  0  0  0
   40.1900   23.2861   38.6973 H   0  0  0  0  0  0  0  0  0  0  0  0
   37.7270   23.9373   38.6017 H   0  0  0  0  0  0  0  0  0  0  0  0
  1  2  1  0
  2  6  1  0
  3  4  1  0
  3  2  1  0
  4  5  1  0
  5  6  1  0
  6  7  1  0
  7  8  1  0
  8  9  1  0
 10  9  1  0
 11 10  1  0
 12  7  1  0
 12 11  1  0
 13  1  1  0
 13 18  1  0
 14 15  2  0
 14 24  1  0
 16 15  1  0
 17 16  2  0
 18 17  1  0
 18 19  2  0
 19 14  1  0
 20 21  2  0
 22 21  1  0
 23 22  2  0
 24 25  2  0
 24 23  1  0
 25 20  1  0
  1 26  1  0
  1 27  1  0
  2 28  1  1
  3 29  1  0
  3 30  1  0
  4 31  1  0
  4 32  1  0
  5 33  1  0
  5 34  1  0
  6 35  1  1
  8 36  1  0
  8 37  1  0
  9 38  1  0
  9 39  1  0
 11 40  1  0
 11 41  1  0
 12 42  1  0
 12 43  1  0
 13 44  1  0
 13 45  1  0
 15 46  1  0
 16 47  1  0
 17 48  1  0
 20 49  1  0
 21 50  1  0
 22 51  1  0
M  ISO  8  26   8  27   8  28  13  29  13  30  13  31  13  32  13  33  13
M  ISO  8  34  13  35  13  36  13  37  13  38  13  39  13  40  13  41  13
M  ISO  8  42  13  43  13  44   8  45   8  46  14  47  14  48  14  49  14
M  ISO  2  50  14  51  14
M  END
>  <minimizedAffinity>  (1) 
-5.87489557

>  <minimizedRMSD>  (1) 
2.16547084

$$$$
