
     RDKit          3D

 46 49  0  0  1  0  0  0  0  0999 V2000
   36.2100   25.2580   31.0890 C   0  0  0  0  0  0  0  0  0  0  0  0
   36.9030   26.5630   31.4340 C   0  0  1  0  0  0  0  0  0  0  0  0
   36.4910   27.6390   30.4930 C   0  0  0  0  0  0  0  0  0  0  0  0
   36.5520   28.8810   31.3740 C   0  0  0  0  0  0  0  0  0  0  0  0
   35.8500   28.3770   32.6090 C   0  0  0  0  0  0  0  0  0  0  0  0
   36.4390   26.9840   32.7950 C   0  0  2  0  0  0  0  0  0  0  0  0
   37.5220   26.9790   33.8100 C   0  0  0  0  0  0  0  0  0  0  0  0
   38.8340   26.8770   33.3320 C   0  0  0  0  0  0  0  0  0  0  0  0
   39.9610   26.8600   34.1620 C   0  0  0  0  0  0  0  0  0  0  0  0
   39.6890   26.9500   35.4750 N   0  0  0  0  0  0  0  0  0  0  0  0
   38.4300   27.0480   35.9320 C   0  0  0  0  0  0  0  0  0  0  0  0
   37.3350   27.0650   35.1270 N   0  0  0  0  0  0  0  0  0  0  0  0
   37.1580   24.0990   31.0190 C   0  0  0  0  0  0  0  0  0  0  0  0
   37.4100   22.2820   34.2500 C   0  0  0  0  0  0  0  0  0  0  0  0
   36.5070   21.2570   34.1390 C   0  0  0  0  0  0  0  0  0  0  0  0
   35.7810   21.1460   32.9640 C   0  0  0  0  0  0  0  0  0  0  0  0
   36.0110   22.0660   31.9880 C   0  0  0  0  0  0  0  0  0  0  0  0
   36.9060   23.1020   32.0670 C   0  0  0  0  0  0  0  0  0  0  0  0
   37.5670   23.1450   33.2250 N   0  0  0  0  0  0  0  0  0  0  0  0
   40.1480   22.2620   36.6570 C   0  0  0  0  0  0  0  0  0  0  0  0
   39.6590   22.9260   37.7630 C   0  0  0  0  0  0  0  0  0  0  0  0
   38.3380   23.3830   37.6400 C   0  0  0  0  0  0  0  0  0  0  0  0
   37.6570   23.1440   36.4720 N   0  0  0  0  0  0  0  0  0  0  0  0
   38.2160   22.4840   35.4380 C   0  0  0  0  0  0  0  0  0  0  0  0
   39.4720   22.0390   35.5290 N   0  0  0  0  0  0  0  0  0  0  0  0
   35.4533   25.0474   31.8591 H   0  0  0  0  0  0  0  0  0  0  0  0
   35.7566   25.3762   30.0938 H   0  0  0  0  0  0  0  0  0  0  0  0
   37.9915   26.4125   31.3835 H   0  0  0  0  0  0  0  0  0  0  0  0
   35.4724   27.4687   30.1143 H   0  0  0  0  0  0  0  0  0  0  0  0
   37.1225   27.7045   29.5947 H   0  0  0  0  0  0  0  0  0  0  0  0
   37.5897   29.1760   31.5887 H   0  0  0  0  0  0  0  0  0  0  0  0
   36.1047   29.7816   30.9280 H   0  0  0  0  0  0  0  0  0  0  0  0
   36.0680   29.0173   33.4765 H   0  0  0  0  0  0  0  0  0  0  0  0
   34.7541   28.3746   32.5137 H   0  0  0  0  0  0  0  0  0  0  0  0
   35.6995   26.2706   33.1876 H   0  0  0  0  0  0  0  0  0  0  0  0
   38.9875   26.8064   32.2451 H   0  0  0  0  0  0  0  0  0  0  0  0
   40.9861   26.7795   33.7713 H   0  0  0  0  0  0  0  0  0  0  0  0
   38.2763   27.1185   37.0189 H   0  0  0  0  0  0  0  0  0  0  0  0
   37.0503   23.6140   30.0376 H   0  0  0  0  0  0  0  0  0  0  0  0
   38.1753   24.4901   31.1676 H   0  0  0  0  0  0  0  0  0  0  0  0
   36.3623   20.5410   34.9614 H   0  0  0  0  0  0  0  0  0  0  0  0
   35.0438   20.3415   32.8249 H   0  0  0  0  0  0  0  0  0  0  0  0
   35.4307   21.9707   31.0584 H   0  0  0  0  0  0  0  0  0  0  0  0
   41.1802   21.8855   36.7097 H   0  0  0  0  0  0  0  0  0  0  0  0
   40.2586   23.0850   38.6714 H   0  0  0  0  0  0  0  0  0  0  0  0
   37.8553   23.9246   38.4669 H   0  0  0  0  0  0  0  0  0  0  0  0
  1  2  1  0
  2  6  1  0
  3  4  1  0
  3  2  1  0
  4  5  1  0
  5  6  1  0
  6  7  1  0
  7 12  1  0
  8  7  2  0
  8  9  1  0
  9 10  2  0
 10 11  1  0
 12 11  2  0
 13  1  1  0
 13 18  1  0
 14 24  1  0
 15 14  2  0
 16 15  1  0
 17 18  1  0
 17 16  2  0
 18 19  2  0
 19 14  1  0
 20 21  2  0
 22 21  1  0
 23 22  2  0
 24 25  2  0
 24 23  1  0
 25 20  1  0
  1 26  1  0
  1 27  1  0
  2 28  1  1
  3 29  1  0
  3 30  1  0
  4 31  1  0
  4 32  1  0
  5 33  1  0
  5 34  1  0
  6 35  1  1
  8 36  1  0
  9 37  1  0
 11 38  1  0
 13 39  1  0
 13 40  1  0
 15 41  1  0
 16 42  1  0
 17 43  1  0
 20 44  1  0
 21 45  1  0
 22 46  1  0
M  ISO  8  26   8  27   8  28  13  29  13  30  13  31  13  32  13  33  13
M  ISO  8  34  13  35  13  36  14  37  14  38  14  39   8  40   8  41  14
M  ISO  5  42  14  43  14  44  14  45  14  46  14
M  END
>  <minimizedAffinity>  (1) 
-5.87226534

>  <minimizedRMSD>  (1) 
2.40984488

$$$$
