
     RDKit          3D

 45 48  0  0  1  0  0  0  0  0999 V2000
   36.2760   25.3420   31.2430 C   0  0  0  0  0  0  0  0  0  0  0  0
   37.1030   26.5580   31.6270 C   0  0  1  0  0  0  0  0  0  0  0  0
   36.8960   27.6500   30.6230 C   0  0  0  0  0  0  0  0  0  0  0  0
   37.0520   28.8970   31.4910 C   0  0  0  0  0  0  0  0  0  0  0  0
   36.1730   28.5170   32.6580 C   0  0  0  0  0  0  0  0  0  0  0  0
   36.6040   27.0730   32.9390 C   0  0  2  0  0  0  0  0  0  0  0  0
   37.6370   27.0680   34.0020 C   0  0  0  0  0  0  0  0  0  0  0  0
   38.9690   26.7050   33.7730 C   0  0  0  0  0  0  0  0  0  0  0  0
   39.6460   26.8130   34.9690 C   0  0  0  0  0  0  0  0  0  0  0  0
   38.6940   27.2410   35.8860 C   0  0  0  0  0  0  0  0  0  0  0  0
   37.5400   27.3750   35.2750 O   0  0  0  0  0  0  0  0  0  0  0  0
   37.1180   24.1160   31.0490 C   0  0  0  0  0  0  0  0  0  0  0  0
   37.4090   22.2740   34.2610 C   0  0  0  0  0  0  0  0  0  0  0  0
   36.5210   21.2410   34.1340 C   0  0  0  0  0  0  0  0  0  0  0  0
   35.7980   21.1320   32.9670 C   0  0  0  0  0  0  0  0  0  0  0  0
   36.0060   22.0630   31.9950 C   0  0  0  0  0  0  0  0  0  0  0  0
   36.8870   23.1060   32.0920 C   0  0  0  0  0  0  0  0  0  0  0  0
   37.5530   23.1520   33.2460 N   0  0  0  0  0  0  0  0  0  0  0  0
   40.1620   22.2760   36.6590 C   0  0  0  0  0  0  0  0  0  0  0  0
   39.6530   22.9120   37.7770 C   0  0  0  0  0  0  0  0  0  0  0  0
   38.3190   23.3420   37.6720 C   0  0  0  0  0  0  0  0  0  0  0  0
   37.6460   23.1020   36.4970 N   0  0  0  0  0  0  0  0  0  0  0  0
   38.2170   22.4750   35.4530 C   0  0  0  0  0  0  0  0  0  0  0  0
   39.4840   22.0550   35.5260 N   0  0  0  0  0  0  0  0  0  0  0  0
   35.5448   25.1457   32.0410 H   0  0  0  0  0  0  0  0  0  0  0  0
   35.7793   25.5626   30.2866 H   0  0  0  0  0  0  0  0  0  0  0  0
   38.1642   26.2724   31.6745 H   0  0  0  0  0  0  0  0  0  0  0  0
   35.8938   27.5969   30.1727 H   0  0  0  0  0  0  0  0  0  0  0  0
   37.5873   27.6097   29.7683 H   0  0  0  0  0  0  0  0  0  0  0  0
   38.0964   29.0511   31.8000 H   0  0  0  0  0  0  0  0  0  0  0  0
   36.7822   29.8419   30.9966 H   0  0  0  0  0  0  0  0  0  0  0  0
   36.3626   29.1649   33.5265 H   0  0  0  0  0  0  0  0  0  0  0  0
   35.0978   28.6221   32.4506 H   0  0  0  0  0  0  0  0  0  0  0  0
   35.7928   26.4299   33.3109 H   0  0  0  0  0  0  0  0  0  0  0  0
   39.3989   26.3899   32.8108 H   0  0  0  0  0  0  0  0  0  0  0  0
   40.7098   26.6053   35.1567 H   0  0  0  0  0  0  0  0  0  0  0  0
   38.8778   27.4362   36.9528 H   0  0  0  0  0  0  0  0  0  0  0  0
   36.8785   23.6743   30.0705 H   0  0  0  0  0  0  0  0  0  0  0  0
   38.1731   24.4216   31.1062 H   0  0  0  0  0  0  0  0  0  0  0  0
   36.3873   20.5125   34.9473 H   0  0  0  0  0  0  0  0  0  0  0  0
   35.0736   20.3167   32.8241 H   0  0  0  0  0  0  0  0  0  0  0  0
   35.4246   21.9701   31.0658 H   0  0  0  0  0  0  0  0  0  0  0  0
   41.2035   21.9250   36.7044 H   0  0  0  0  0  0  0  0  0  0  0  0
   40.2515   23.0704   38.6862 H   0  0  0  0  0  0  0  0  0  0  0  0
   37.8255   23.8577   38.5090 H   0  0  0  0  0  0  0  0  0  0  0  0
  1  2  1  0
  2  6  1  0
  3  4  1  0
  3  2  1  0
  4  5  1  0
  5  6  1  0
  6  7  1  0
  7 11  1  0
  8  7  2  0
  8  9  1  0
  9 10  2  0
 11 10  1  0
 12  1  1  0
 12 17  1  0
 13 23  1  0
 14 13  2  0
 15 14  1  0
 16 17  1  0
 16 15  2  0
 17 18  2  0
 18 13  1  0
 19 20  2  0
 21 20  1  0
 22 21  2  0
 23 24  2  0
 23 22  1  0
 24 19  1  0
  1 25  1  0
  1 26  1  0
  2 27  1  1
  3 28  1  0
  3 29  1  0
  4 30  1  0
  4 31  1  0
  5 32  1  0
  5 33  1  0
  6 34  1  1
  8 35  1  0
  9 36  1  0
 10 37  1  0
 12 38  1  0
 12 39  1  0
 14 40  1  0
 15 41  1  0
 16 42  1  0
 19 43  1  0
 20 44  1  0
 21 45  1  0
M  ISO  8  25   8  26   8  27  13  28  13  29  13  30  13  31  13  32  13
M  ISO  8  33  13  34  13  35  14  36  14  37  14  38   8  39   8  40  14
M  ISO  5  41  14  42  14  43  14  44  14  45  14
M  END
>  <minimizedAffinity>  (1) 
-5.86358881

>  <minimizedRMSD>  (1) 
2.23197627

$$$$
