
     RDKit          3D

 44 47  0  0  1  0  0  0  0  0999 V2000
   36.1110   24.7830   31.2860 C   0  0  0  0  0  0  0  0  0  0  0  0
   36.9470   26.0100   31.5210 C   0  0  1  0  0  0  0  0  0  0  0  0
   36.4920   27.1360   30.6550 C   0  0  0  0  0  0  0  0  0  0  0  0
   36.8310   28.3470   31.5180 C   0  0  0  0  0  0  0  0  0  0  0  0
   36.2780   27.8890   32.8450 C   0  0  0  0  0  0  0  0  0  0  0  0
   36.7650   26.4470   32.9540 C   0  0  2  0  0  0  0  0  0  0  0  0
   38.0310   26.4290   33.7400 C   0  0  0  0  0  0  0  0  0  0  0  0
   39.2590   25.8430   33.3290 C   0  0  0  0  0  0  0  0  0  0  0  0
   40.3800   26.2040   34.8130 S   0  0  0  0  0  0  0  0  0  0  0  0
   38.9560   27.0680   35.6730 C   0  0  0  0  0  0  0  0  0  0  0  0
   37.9950   27.0150   34.9340 N   0  0  0  0  0  0  0  0  0  0  0  0
   36.8990   23.5160   31.1990 C   0  0  0  0  0  0  0  0  0  0  0  0
   37.2220   22.0500   34.5970 C   0  0  0  0  0  0  0  0  0  0  0  0
   36.3470   21.0050   34.6010 C   0  0  0  0  0  0  0  0  0  0  0  0
   35.6130   20.7520   33.4560 C   0  0  0  0  0  0  0  0  0  0  0  0
   35.8110   21.5700   32.3850 C   0  0  0  0  0  0  0  0  0  0  0  0
   36.6810   22.6280   32.3500 C   0  0  0  0  0  0  0  0  0  0  0  0
   37.3500   22.8070   33.4870 N   0  0  0  0  0  0  0  0  0  0  0  0
   40.0220   22.4730   36.9010 C   0  0  0  0  0  0  0  0  0  0  0  0
   39.4660   23.0870   38.0140 C   0  0  0  0  0  0  0  0  0  0  0  0
   38.0880   23.3510   37.9420 C   0  0  0  0  0  0  0  0  0  0  0  0
   37.4260   22.9850   36.7960 N   0  0  0  0  0  0  0  0  0  0  0  0
   38.0330   22.3910   35.7540 C   0  0  0  0  0  0  0  0  0  0  0  0
   39.3420   22.1290   35.7980 N   0  0  0  0  0  0  0  0  0  0  0  0
   35.3951   24.6884   32.1158 H   0  0  0  0  0  0  0  0  0  0  0  0
   35.6169   24.9171   30.3124 H   0  0  0  0  0  0  0  0  0  0  0  0
   37.9954   25.7663   31.2940 H   0  0  0  0  0  0  0  0  0  0  0  0
   35.4121   27.0764   30.4544 H   0  0  0  0  0  0  0  0  0  0  0  0
   36.9610   27.1516   29.6601 H   0  0  0  0  0  0  0  0  0  0  0  0
   37.9159   28.5222   31.5668 H   0  0  0  0  0  0  0  0  0  0  0  0
   36.4262   29.3026   31.1533 H   0  0  0  0  0  0  0  0  0  0  0  0
   36.6740   28.5013   33.6686 H   0  0  0  0  0  0  0  0  0  0  0  0
   35.1834   27.9778   32.9071 H   0  0  0  0  0  0  0  0  0  0  0  0
   36.0764   25.7664   33.4761 H   0  0  0  0  0  0  0  0  0  0  0  0
   39.4967   25.3167   32.3927 H   0  0  0  0  0  0  0  0  0  0  0  0
   38.9861   27.5378   36.6672 H   0  0  0  0  0  0  0  0  0  0  0  0
   36.6057   22.9822   30.2830 H   0  0  0  0  0  0  0  0  0  0  0  0
   37.9645   23.7893   31.1894 H   0  0  0  0  0  0  0  0  0  0  0  0
   36.2270   20.3762   35.4956 H   0  0  0  0  0  0  0  0  0  0  0  0
   34.8950   19.9198   33.4120 H   0  0  0  0  0  0  0  0  0  0  0  0
   35.2261   21.3650   31.4762 H   0  0  0  0  0  0  0  0  0  0  0  0
   41.0994   22.2523   36.9253 H   0  0  0  0  0  0  0  0  0  0  0  0
   40.0663   23.3505   38.8973 H   0  0  0  0  0  0  0  0  0  0  0  0
   37.5574   23.8345   38.7754 H   0  0  0  0  0  0  0  0  0  0  0  0
  1  2  1  0
  2  6  1  0
  3  4  1  0
  3  2  1  0
  4  5  1  0
  5  6  1  0
  6  7  1  0
  7 11  1  0
  8  7  2  0
  8  9  1  0
  9 10  1  0
 11 10  2  0
 12  1  1  0
 12 17  1  0
 13 14  2  0
 13 23  1  0
 15 14  1  0
 16 15  2  0
 17 16  1  0
 17 18  2  0
 18 13  1  0
 19 20  2  0
 21 20  1  0
 22 21  2  0
 23 24  2  0
 23 22  1  0
 24 19  1  0
  1 25  1  0
  1 26  1  0
  2 27  1  1
  3 28  1  0
  3 29  1  0
  4 30  1  0
  4 31  1  0
  5 32  1  0
  5 33  1  0
  6 34  1  1
  8 35  1  0
 10 36  1  0
 12 37  1  0
 12 38  1  0
 14 39  1  0
 15 40  1  0
 16 41  1  0
 19 42  1  0
 20 43  1  0
 21 44  1  0
M  ISO  8  25   8  26   8  27  13  28  13  29  13  30  13  31  13  32  13
M  ISO  8  33  13  34  13  35  14  36  14  37   8  38   8  39  14  40  14
M  ISO  4  41  14  42  14  43  14  44  14
M  END
>  <minimizedAffinity>  (1) 
-5.58569765

>  <minimizedRMSD>  (1) 
1.81762779

$$$$
