
     RDKit          3D

 41 43  0  0  1  0  0  0  0  0999 V2000
   37.0190   23.0790   31.3920 C   0  0  0  0  0  0  0  0  0  0  0  0
   37.2040   21.9540   34.9450 C   0  0  0  0  0  0  0  0  0  0  0  0
   36.2880   20.9350   35.0110 C   0  0  0  0  0  0  0  0  0  0  0  0
   35.5840   20.6000   33.8560 C   0  0  0  0  0  0  0  0  0  0  0  0
   35.8500   21.3020   32.7440 C   0  0  0  0  0  0  0  0  0  0  0  0
   36.7540   22.3230   32.6380 C   0  0  0  0  0  0  0  0  0  0  0  0
   37.3900   22.5930   33.7750 N   0  0  0  0  0  0  0  0  0  0  0  0
   39.9540   22.6100   37.2460 C   0  0  0  0  0  0  0  0  0  0  0  0
   39.3440   23.2270   38.3360 C   0  0  0  0  0  0  0  0  0  0  0  0
   37.9410   23.4090   38.2460 C   0  0  0  0  0  0  0  0  0  0  0  0
   37.3010   22.9730   37.1130 N   0  0  0  0  0  0  0  0  0  0  0  0
   37.9810   22.3780   36.0910 C   0  0  0  0  0  0  0  0  0  0  0  0
   39.3010   22.1950   36.1510 N   0  0  0  0  0  0  0  0  0  0  0  0
   36.5670   24.4860   31.4430 C   0  0  0  0  0  0  0  0  0  0  0  0
   37.6490   25.4400   31.9590 C   0  0  1  0  0  0  0  0  0  0  0  0
   37.9350   26.4290   30.8490 C   0  0  0  0  0  0  0  0  0  0  0  0
   38.2530   27.6930   31.6110 C   0  0  0  0  0  0  0  0  0  0  0  0
   37.1260   27.6910   32.6200 C   0  0  0  0  0  0  0  0  0  0  0  0
   37.0800   26.2140   33.0890 C   0  0  2  0  0  0  0  0  0  0  0  0
   37.8890   26.1970   34.3670 C   0  0  0  0  0  0  0  0  0  0  0  0
   37.2090   25.6210   35.4020 F   0  0  0  0  0  0  0  0  0  0  0  0
   39.0010   25.3590   34.1410 F   0  0  0  0  0  0  0  0  0  0  0  0
   38.4470   27.4020   34.7110 F   0  0  0  0  0  0  0  0  0  0  0  0
   36.4981   22.5767   30.5636 H   0  0  0  0  0  0  0  0  0  0  0  0
   38.1100   23.0966   31.2525 H   0  0  0  0  0  0  0  0  0  0  0  0
   36.1133   20.3951   35.9533 H   0  0  0  0  0  0  0  0  0  0  0  0
   34.8387   19.7910   33.8560 H   0  0  0  0  0  0  0  0  0  0  0  0
   35.2908   21.0322   31.8360 H   0  0  0  0  0  0  0  0  0  0  0  0
   41.0420   22.4531   37.2864 H   0  0  0  0  0  0  0  0  0  0  0  0
   39.9178   23.5540   39.2156 H   0  0  0  0  0  0  0  0  0  0  0  0
   37.3802   23.8870   39.0627 H   0  0  0  0  0  0  0  0  0  0  0  0
   36.2774   24.7989   30.4290 H   0  0  0  0  0  0  0  0  0  0  0  0
   35.7204   24.5362   32.1436 H   0  0  0  0  0  0  0  0  0  0  0  0
   38.5493   24.8880   32.2669 H   0  0  0  0  0  0  0  0  0  0  0  0
   37.0559   26.5655   30.2020 H   0  0  0  0  0  0  0  0  0  0  0  0
   38.7426   26.1091   30.1741 H   0  0  0  0  0  0  0  0  0  0  0  0
   39.2369   27.6370   32.0997 H   0  0  0  0  0  0  0  0  0  0  0  0
   38.3154   28.6003   30.9922 H   0  0  0  0  0  0  0  0  0  0  0  0
   37.3465   28.3659   33.4602 H   0  0  0  0  0  0  0  0  0  0  0  0
   36.1708   28.0434   32.2035 H   0  0  0  0  0  0  0  0  0  0  0  0
   36.0959   25.7785   33.3168 H   0  0  0  0  0  0  0  0  0  0  0  0
  1 14  1  0
  1  6  1  0
  2  3  2  0
  2 12  1  0
  4  3  1  0
  5  4  2  0
  6  5  1  0
  6  7  2  0
  7  2  1  0
  8  9  2  0
 10  9  1  0
 11 10  2  0
 12 13  2  0
 12 11  1  0
 13  8  1  0
 14 15  1  0
 15 19  1  0
 16 17  1  0
 16 15  1  0
 17 18  1  0
 18 19  1  0
 19 20  1  0
 20 23  1  0
 20 21  1  0
 22 20  1  0
  1 24  1  0
  1 25  1  0
  3 26  1  0
  4 27  1  0
  5 28  1  0
  8 29  1  0
  9 30  1  0
 10 31  1  0
 14 32  1  0
 14 33  1  0
 15 34  1  1
 16 35  1  0
 16 36  1  0
 17 37  1  0
 17 38  1  0
 18 39  1  0
 18 40  1  0
 19 41  1  1
M  ISO  8  24   8  25   8  26  14  27  14  28  14  29  14  30  14  31  14
M  ISO  8  32   8  33   8  34  13  35  13  36  13  37  13  38  13  39  13
M  ISO  2  40  13  41  13
M  END
>  <minimizedAffinity>  (1) 
-5.44005108

>  <minimizedRMSD>  (1) 
1.63662148

$$$$
