
     RDKit          3D

 44 47  0  0  1  0  0  0  0  0999 V2000
   37.1040   23.3150   31.1410 C   0  0  0  0  0  0  0  0  0  0  0  0
   37.2120   22.0000   34.6190 C   0  0  0  0  0  0  0  0  0  0  0  0
   36.2690   21.0010   34.6330 C   0  0  0  0  0  0  0  0  0  0  0  0
   35.5670   20.7370   33.4720 C   0  0  0  0  0  0  0  0  0  0  0  0
   35.8570   21.4890   32.3820 C   0  0  0  0  0  0  0  0  0  0  0  0
   36.7890   22.4970   32.3240 C   0  0  0  0  0  0  0  0  0  0  0  0
   37.4240   22.6910   33.4800 N   0  0  0  0  0  0  0  0  0  0  0  0
   39.9770   22.5150   36.9510 C   0  0  0  0  0  0  0  0  0  0  0  0
   39.3760   23.0730   38.0750 C   0  0  0  0  0  0  0  0  0  0  0  0
   37.9870   23.2640   37.9990 C   0  0  0  0  0  0  0  0  0  0  0  0
   37.3390   22.8930   36.8380 N   0  0  0  0  0  0  0  0  0  0  0  0
   38.0000   22.3540   35.7870 C   0  0  0  0  0  0  0  0  0  0  0  0
   39.3200   22.1630   35.8360 N   0  0  0  0  0  0  0  0  0  0  0  0
   36.3710   24.6250   31.1490 C   0  0  0  0  0  0  0  0  0  0  0  0
   37.2560   25.7870   31.5650 C   0  0  1  0  0  0  0  0  0  0  0  0
   37.0700   26.9390   30.6380 C   0  0  0  0  0  0  0  0  0  0  0  0
   37.3710   28.1110   31.5770 C   0  0  0  0  0  0  0  0  0  0  0  0
   36.4410   27.7380   32.7130 C   0  0  0  0  0  0  0  0  0  0  0  0
   36.7890   26.2570   32.9150 C   0  0  2  0  0  0  0  0  0  0  0  0
   37.7850   26.1000   33.9480 N   0  0  0  0  0  0  0  0  0  0  0  0
   37.4840   26.2750   35.2590 C   0  0  0  0  0  0  0  0  0  0  0  0
   38.5980   26.0650   35.9830 N   0  0  0  0  0  0  0  0  0  0  0  0
   39.5850   25.7620   35.1190 C   0  0  0  0  0  0  0  0  0  0  0  0
   39.0500   25.7940   33.8920 N   0  0  0  0  0  0  0  0  0  0  0  0
   36.8207   22.7555   30.2372 H   0  0  0  0  0  0  0  0  0  0  0  0
   38.1826   23.5302   31.1554 H   0  0  0  0  0  0  0  0  0  0  0  0
   36.0767   20.4233   35.5491 H   0  0  0  0  0  0  0  0  0  0  0  0
   34.8024   19.9471   33.4340 H   0  0  0  0  0  0  0  0  0  0  0  0
   35.2957   21.2728   31.4610 H   0  0  0  0  0  0  0  0  0  0  0  0
   41.0644   22.3515   36.9788 H   0  0  0  0  0  0  0  0  0  0  0  0
   39.9543   23.3480   38.9694 H   0  0  0  0  0  0  0  0  0  0  0  0
   37.4299   23.6979   38.8424 H   0  0  0  0  0  0  0  0  0  0  0  0
   35.9865   24.8197   30.1370 H   0  0  0  0  0  0  0  0  0  0  0  0
   35.5567   24.5466   31.8843 H   0  0  0  0  0  0  0  0  0  0  0  0
   38.3053   25.4568   31.5632 H   0  0  0  0  0  0  0  0  0  0  0  0
   37.7783   26.9011   29.7972 H   0  0  0  0  0  0  0  0  0  0  0  0
   36.0821   26.9823   30.1562 H   0  0  0  0  0  0  0  0  0  0  0  0
   38.4245   28.1280   31.8932 H   0  0  0  0  0  0  0  0  0  0  0  0
   37.2228   29.1138   31.1498 H   0  0  0  0  0  0  0  0  0  0  0  0
   36.6530   28.3281   33.6168 H   0  0  0  0  0  0  0  0  0  0  0  0
   35.3775   27.9257   32.5037 H   0  0  0  0  0  0  0  0  0  0  0  0
   35.9348   25.6567   33.2614 H   0  0  0  0  0  0  0  0  0  0  0  0
   36.4962   26.5432   35.6618 H   0  0  0  0  0  0  0  0  0  0  0  0
   40.6304   25.5322   35.3725 H   0  0  0  0  0  0  0  0  0  0  0  0
  1 14  1  0
  1  6  1  0
  2  3  2  0
  2 12  1  0
  4  3  1  0
  5  4  2  0
  6  5  1  0
  6  7  2  0
  7  2  1  0
  8  9  2  0
 10  9  1  0
 11 10  2  0
 12 13  2  0
 12 11  1  0
 13  8  1  0
 14 15  1  0
 15 19  1  0
 16 15  1  0
 16 17  1  0
 17 18  1  0
 18 19  1  0
 19 20  1  0
 20 21  1  0
 21 22  2  0
 23 22  1  0
 24 20  1  0
 24 23  2  0
  1 25  1  0
  1 26  1  0
  3 27  1  0
  4 28  1  0
  5 29  1  0
  8 30  1  0
  9 31  1  0
 10 32  1  0
 14 33  1  0
 14 34  1  0
 15 35  1  1
 16 36  1  0
 16 37  1  0
 17 38  1  0
 17 39  1  0
 18 40  1  0
 18 41  1  0
 19 42  1  1
 21 43  1  0
 23 44  1  0
M  ISO  8  25   8  26   8  27  14  28  14  29  14  30  14  31  14  32  14
M  ISO  8  33   8  34   8  35  13  36  13  37  13  38  13  39  13  40  13
M  ISO  4  41  13  42  13  43  14  44  14
M  END
>  <minimizedAffinity>  (1) 
-5.47727966

>  <minimizedRMSD>  (1) 
1.93116164

$$$$
