
     RDKit          3D

 45 48  0  0  1  0  0  0  0  0999 V2000
   37.0040   23.1870   31.3860 C   0  0  0  0  0  0  0  0  0  0  0  0
   37.1840   21.9600   34.9080 C   0  0  0  0  0  0  0  0  0  0  0  0
   36.2910   20.9230   34.9270 C   0  0  0  0  0  0  0  0  0  0  0  0
   35.6020   20.5980   33.7640 C   0  0  0  0  0  0  0  0  0  0  0  0
   35.8620   21.3400   32.6750 C   0  0  0  0  0  0  0  0  0  0  0  0
   36.7460   22.3890   32.6020 C   0  0  0  0  0  0  0  0  0  0  0  0
   37.3660   22.6360   33.7570 N   0  0  0  0  0  0  0  0  0  0  0  0
   39.9040   22.6470   37.2340 C   0  0  0  0  0  0  0  0  0  0  0  0
   39.2850   23.1870   38.3430 C   0  0  0  0  0  0  0  0  0  0  0  0
   37.8680   23.3100   38.2610 C   0  0  0  0  0  0  0  0  0  0  0  0
   37.2450   22.8940   37.1170 N   0  0  0  0  0  0  0  0  0  0  0  0
   37.9410   22.3710   36.0670 C   0  0  0  0  0  0  0  0  0  0  0  0
   39.2700   22.2460   36.1210 N   0  0  0  0  0  0  0  0  0  0  0  0
   36.4920   24.5850   31.5030 C   0  0  0  0  0  0  0  0  0  0  0  0
   37.6210   25.5570   31.8290 C   0  0  1  0  0  0  0  0  0  0  0  0
   37.6910   26.5790   30.7210 C   0  0  0  0  0  0  0  0  0  0  0  0
   38.1470   27.8160   31.4900 C   0  0  0  0  0  0  0  0  0  0  0  0
   37.1350   27.7850   32.6130 C   0  0  0  0  0  0  0  0  0  0  0  0
   37.2420   26.3130   33.0750 C   0  0  2  0  0  0  0  0  0  0  0  0
   38.2720   26.1900   34.1670 C   0  0  0  0  0  0  0  0  0  0  0  0
   38.5030   27.2270   35.1740 C   0  0  0  0  0  0  0  0  0  0  0  0
   37.7230   25.9890   35.5750 C   0  0  0  0  0  0  0  0  0  0  0  0
   36.5096   22.7001   30.5325 H   0  0  0  0  0  0  0  0  0  0  0  0
   38.0936   23.2397   31.2445 H   0  0  0  0  0  0  0  0  0  0  0  0
   36.1203   20.3530   35.8522 H   0  0  0  0  0  0  0  0  0  0  0  0
   34.8771   19.7711   33.7369 H   0  0  0  0  0  0  0  0  0  0  0  0
   35.3158   21.0836   31.7552 H   0  0  0  0  0  0  0  0  0  0  0  0
   40.9981   22.5371   37.2645 H   0  0  0  0  0  0  0  0  0  0  0  0
   39.8494   23.5022   39.2330 H   0  0  0  0  0  0  0  0  0  0  0  0
   37.2894   23.7293   39.0973 H   0  0  0  0  0  0  0  0  0  0  0  0
   36.0287   24.8790   30.5496 H   0  0  0  0  0  0  0  0  0  0  0  0
   35.7542   24.6201   32.3181 H   0  0  0  0  0  0  0  0  0  0  0  0
   38.5696   25.0134   31.9500 H   0  0  0  0  0  0  0  0  0  0  0  0
   36.7078   26.7346   30.2529 H   0  0  0  0  0  0  0  0  0  0  0  0
   38.3498   26.2969   29.8865 H   0  0  0  0  0  0  0  0  0  0  0  0
   39.1775   27.7141   31.8609 H   0  0  0  0  0  0  0  0  0  0  0  0
   38.1785   28.7490   30.9081 H   0  0  0  0  0  0  0  0  0  0  0  0
   37.4071   28.4813   33.4199 H   0  0  0  0  0  0  0  0  0  0  0  0
   36.1214   28.0917   32.3153 H   0  0  0  0  0  0  0  0  0  0  0  0
   36.3106   25.9173   33.5062 H   0  0  0  0  0  0  0  0  0  0  0  0
   38.9605   25.6786   33.4783 H   0  0  0  0  0  0  0  0  0  0  0  0
   39.5164   27.3861   35.5712 H   0  0  0  0  0  0  0  0  0  0  0  0
   38.3076   28.3084   35.2230 H   0  0  0  0  0  0  0  0  0  0  0  0
   36.6412   26.0498   35.7647 H   0  0  0  0  0  0  0  0  0  0  0  0
   37.8070   25.2182   36.3553 H   0  0  0  0  0  0  0  0  0  0  0  0
  1 14  1  0
  1  6  1  0
  2  3  2  0
  2 12  1  0
  4  3  1  0
  5  4  2  0
  6  5  1  0
  6  7  2  0
  7  2  1  0
  8  9  2  0
 10  9  1  0
 11 10  2  0
 12 13  2  0
 12 11  1  0
 13  8  1  0
 14 15  1  0
 15 19  1  0
 16 17  1  0
 16 15  1  0
 17 18  1  0
 18 19  1  0
 19 20  1  0
 20 21  1  0
 20 22  1  0
 21 22  1  0
  1 23  1  0
  1 24  1  0
  3 25  1  0
  4 26  1  0
  5 27  1  0
  8 28  1  0
  9 29  1  0
 10 30  1  0
 14 31  1  0
 14 32  1  0
 15 33  1  1
 16 34  1  0
 16 35  1  0
 17 36  1  0
 17 37  1  0
 18 38  1  0
 18 39  1  0
 19 40  1  1
 20 41  1  0
 21 42  1  0
 21 43  1  0
 22 44  1  0
 22 45  1  0
M  ISO  8  23   8  24   8  25  14  26  14  27  14  28  14  29  14  30  14
M  ISO  8  31   8  32   8  33  13  34  13  35  13  36  13  37  13  38  13
M  ISO  7  39  13  40  13  41  13  42  13  43  13  44  13  45  13
M  END
>  <minimizedAffinity>  (1) 
-5.4345026

>  <minimizedRMSD>  (1) 
1.54812038

$$$$
