
     RDKit          3D

 27 29  0  0  0  0  0  0  0  0999 V2000
   38.3080   22.8190   34.2710 C   0  0  0  0  0  0  0  0  0  0  0  0
   38.2680   23.3700   35.5260 C   0  0  0  0  0  0  0  0  0  0  0  0
   39.4100   23.8600   36.0660 C   0  0  0  0  0  0  0  0  0  0  0  0
   40.5360   23.7730   35.3240 C   0  0  0  0  0  0  0  0  0  0  0  0
   39.9770   22.9540   33.7590 S   0  0  0  0  0  0  0  0  0  0  0  0
   37.1970   22.2340   33.4990 C   0  0  0  0  0  0  0  0  0  0  0  0
   36.8430   22.7240   32.2420 C   0  0  0  0  0  0  0  0  0  0  0  0
   35.7670   22.1010   31.5850 C   0  0  0  0  0  0  0  0  0  0  0  0
   35.1510   21.0670   32.2190 N   0  0  0  0  0  0  0  0  0  0  0  0
   35.5180   20.6250   33.4270 C   0  0  0  0  0  0  0  0  0  0  0  0
   36.5600   21.2080   34.0930 N   0  0  0  0  0  0  0  0  0  0  0  0
   41.8890   24.2100   35.6440 N   0  0  0  0  0  0  0  0  0  0  0  0
   42.6750   23.4080   36.3860 C   0  0  0  0  0  0  0  0  0  0  0  0
   43.9460   23.9300   36.6270 C   0  0  0  0  0  0  0  0  0  0  0  0
   44.2980   25.1600   36.1210 C   0  0  0  0  0  0  0  0  0  0  0  0
   45.4500   25.6580   36.3250 O   0  0  0  0  0  0  0  0  0  0  0  0
   43.4560   25.9100   35.3830 N   0  0  0  0  0  0  0  0  0  0  0  0
   42.2290   25.4060   35.1500 C   0  0  0  0  0  0  0  0  0  0  0  0
   41.4230   26.0940   34.4580 O   0  0  0  0  0  0  0  0  0  0  0  0
   37.3224   23.4136   36.0863 H   0  0  0  0  0  0  0  0  0  0  0  0
   39.4201   24.3110   37.0692 H   0  0  0  0  0  0  0  0  0  0  0  0
   37.3841   23.5645   31.7828 H   0  0  0  0  0  0  0  0  0  0  0  0
   35.4347   22.4383   30.5921 H   0  0  0  0  0  0  0  0  0  0  0  0
   34.9770   19.7856   33.8883 H   0  0  0  0  0  0  0  0  0  0  0  0
   42.3453   22.4304   36.7675 H   0  0  0  0  0  0  0  0  0  0  0  0
   44.6698   23.3558   37.2241 H   0  0  0  0  0  0  0  0  0  0  0  0
   43.7386   26.8288   35.0132 H   0  0  0  0  0  0  0  0  0  0  0  0
  1  2  2  0
  2  3  1  0
  4 12  1  0
  4  3  2  0
  5  1  1  0
  5  4  1  0
  6 11  1  0
  6  1  1  0
  7  6  2  0
  8  9  2  0
  8  7  1  0
  9 10  1  0
 10 11  2  0
 12 13  1  0
 13 14  2  0
 15 16  2  0
 15 14  1  0
 17 15  1  0
 18 17  1  0
 18 12  1  0
 19 18  2  0
  2 20  1  0
  3 21  1  0
  7 22  1  0
  8 23  1  0
 10 24  1  0
 13 25  1  0
 14 26  1  0
 17 27  1  0
M  ISO  8  20  14  21  14  22  14  23  14  24  14  25  14  26  14  27   9
M  END
>  <minimizedAffinity>  (1) 
-4.46697807

>  <minimizedRMSD>  (1) 
3.53636765

$$$$
