
     RDKit          3D

 27 29  0  0  0  0  0  0  0  0999 V2000
   36.9890   21.1910   34.5990 C   0  0  0  0  0  0  0  0  0  0  0  0
   37.5420   21.6590   33.3740 C   0  0  0  0  0  0  0  0  0  0  0  0
   38.3170   22.8050   33.4120 C   0  0  0  0  0  0  0  0  0  0  0  0
   38.5190   23.4350   34.6000 N   0  0  0  0  0  0  0  0  0  0  0  0
   37.9890   22.9760   35.7400 C   0  0  0  0  0  0  0  0  0  0  0  0
   37.2210   21.8580   35.7580 N   0  0  0  0  0  0  0  0  0  0  0  0
   38.1460   23.5650   37.0190 N   0  0  0  0  0  0  0  0  0  0  0  0
   38.9350   23.0290   37.9880 C   0  0  0  0  0  0  0  0  0  0  0  0
   38.8930   23.7950   39.0900 N   0  0  0  0  0  0  0  0  0  0  0  0
   38.0620   24.8250   38.7970 C   0  0  0  0  0  0  0  0  0  0  0  0
   37.6090   24.6740   37.5230 N   0  0  0  0  0  0  0  0  0  0  0  0
   37.2370   20.8940   32.2370 N   0  0  0  0  0  0  0  0  0  0  0  0
   38.1050   19.9090   31.9150 C   0  0  0  0  0  0  0  0  0  0  0  0
   37.8250   19.1500   30.8060 C   0  0  0  0  0  0  0  0  0  0  0  0
   36.6940   19.4220   30.0900 C   0  0  0  0  0  0  0  0  0  0  0  0
   36.3720   18.6690   28.9520 N   0  0  0  0  0  0  0  0  0  0  0  0
   35.8610   20.4170   30.4570 N   0  0  0  0  0  0  0  0  0  0  0  0
   36.1270   21.1720   31.5460 C   0  0  0  0  0  0  0  0  0  0  0  0
   35.3270   22.0870   31.8530 O   0  0  0  0  0  0  0  0  0  0  0  0
   36.3692   20.2823   34.6065 H   0  0  0  0  0  0  0  0  0  0  0  0
   38.7655   23.2026   32.4896 H   0  0  0  0  0  0  0  0  0  0  0  0
   39.5213   22.1041   37.8844 H   0  0  0  0  0  0  0  0  0  0  0  0
   37.7974   25.6478   39.4775 H   0  0  0  0  0  0  0  0  0  0  0  0
   39.0042   19.7222   32.5204 H   0  0  0  0  0  0  0  0  0  0  0  0
   38.4996   18.3370   30.4993 H   0  0  0  0  0  0  0  0  0  0  0  0
   36.9906   17.9032   28.6492 H   0  0  0  0  0  0  0  0  0  0  0  0
   35.5168   18.8816   28.4188 H   0  0  0  0  0  0  0  0  0  0  0  0
  1  6  2  0
  2  3  2  0
  2  1  1  0
  3  4  1  0
  4  5  2  0
  5  6  1  0
  5  7  1  0
  7 11  1  0
  7  8  1  0
  8  9  2  0
 10  9  1  0
 11 10  2  0
 12  2  1  0
 13 12  1  0
 14 13  2  0
 15 17  2  0
 15 14  1  0
 16 15  1  0
 17 18  1  0
 18 19  2  0
 18 12  1  0
  1 20  1  0
  3 21  1  0
  8 22  1  0
 10 23  1  0
 13 24  1  0
 14 25  1  0
 16 26  1  0
 16 27  1  0
M  ISO  6  20  14  21  14  22  14  23  14  24  14  25  14
M  END
>  <minimizedAffinity>  (1) 
-4.43224001

>  <minimizedRMSD>  (1) 
3.35571265

$$$$
