
     RDKit          3D

 28 31  0  0  0  0  0  0  0  0999 V2000
   37.9030   20.4310   32.1370 C   0  0  0  0  0  0  0  0  0  0  0  0
   39.1920   20.7300   32.5100 C   0  0  0  0  0  0  0  0  0  0  0  0
   39.3890   21.7490   33.3880 C   0  0  0  0  0  0  0  0  0  0  0  0
   38.3110   22.4180   33.8500 C   0  0  0  0  0  0  0  0  0  0  0  0
   36.8840   21.5690   33.0010 S   0  0  0  0  0  0  0  0  0  0  0  0
   38.1960   23.5110   34.7610 N   0  0  0  0  0  0  0  0  0  0  0  0
   38.3730   23.5520   36.0830 C   0  0  0  0  0  0  0  0  0  0  0  0
   38.1640   24.7910   36.5650 N   0  0  0  0  0  0  0  0  0  0  0  0
   37.8480   25.5430   35.5150 C   0  0  0  0  0  0  0  0  0  0  0  0
   37.5280   26.8760   35.3630 C   0  0  0  0  0  0  0  0  0  0  0  0
   37.2430   27.3860   34.1410 N   0  0  0  0  0  0  0  0  0  0  0  0
   37.2590   26.6030   33.0250 C   0  0  0  0  0  0  0  0  0  0  0  0
   37.5740   25.2820   33.1600 N   0  0  0  0  0  0  0  0  0  0  0  0
   37.8630   24.7530   34.3680 C   0  0  0  0  0  0  0  0  0  0  0  0
   37.4650   19.3740   31.2080 C   0  0  0  0  0  0  0  0  0  0  0  0
   37.4140   18.0400   31.6120 C   0  0  0  0  0  0  0  0  0  0  0  0
   36.9870   17.0970   30.6600 C   0  0  0  0  0  0  0  0  0  0  0  0
   36.6590   17.5500   29.4260 N   0  0  0  0  0  0  0  0  0  0  0  0
   36.7240   18.8590   29.0750 C   0  0  0  0  0  0  0  0  0  0  0  0
   37.1330   19.7640   29.9870 N   0  0  0  0  0  0  0  0  0  0  0  0
   40.0422   20.1593   32.1083 H   0  0  0  0  0  0  0  0  0  0  0  0
   40.4033   22.0222   33.7145 H   0  0  0  0  0  0  0  0  0  0  0  0
   38.6535   22.6850   36.6992 H   0  0  0  0  0  0  0  0  0  0  0  0
   37.5040   27.5329   36.2450 H   0  0  0  0  0  0  0  0  0  0  0  0
   37.0232   27.0266   32.0376 H   0  0  0  0  0  0  0  0  0  0  0  0
   37.6957   17.7384   32.6316 H   0  0  0  0  0  0  0  0  0  0  0  0
   36.9215   16.0275   30.9089 H   0  0  0  0  0  0  0  0  0  0  0  0
   36.4466   19.1778   28.0594 H   0  0  0  0  0  0  0  0  0  0  0  0
  1  2  2  0
  1  5  1  0
  2  3  1  0
  3  4  2  0
  4  6  1  0
  5  4  1  0
  6  7  1  0
  7  8  2  0
  9  8  1  0
 10  9  2  0
 11 10  1  0
 12 13  1  0
 12 11  2  0
 13 14  2  0
 14  6  1  0
 14  9  1  0
 15 16  2  0
 15  1  1  0
 17 16  1  0
 18 17  2  0
 19 18  1  0
 19 20  2  0
 20 15  1  0
  2 21  1  0
  3 22  1  0
  7 23  1  0
 10 24  1  0
 12 25  1  0
 16 26  1  0
 17 27  1  0
 19 28  1  0
M  ISO  8  21  14  22  14  23  14  24  14  25  14  26  14  27  14  28  14
M  END
>  <minimizedAffinity>  (1) 
-4.09068441

>  <minimizedRMSD>  (1) 
4.53068352

$$$$
