
     RDKit          3D

 35 37  0  0  0  0  0  0  0  0999 V2000
   36.9600   20.9280   33.9280 C   0  0  0  0  0  0  0  0  0  0  0  0
   37.8010   20.9970   32.7950 C   0  0  0  0  0  0  0  0  0  0  0  0
   38.9180   21.8190   32.8670 C   0  0  0  0  0  0  0  0  0  0  0  0
   39.1500   22.5110   34.0120 N   0  0  0  0  0  0  0  0  0  0  0  0
   38.3330   22.4280   35.0790 C   0  0  0  0  0  0  0  0  0  0  0  0
   37.2330   21.6380   35.0490 N   0  0  0  0  0  0  0  0  0  0  0  0
   38.5830   23.1580   36.2810 N   0  0  0  0  0  0  0  0  0  0  0  0
   37.5510   23.8800   36.9900 C   0  0  0  0  0  0  0  0  0  0  0  0
   37.6700   23.6130   38.4650 C   0  0  0  0  0  0  0  0  0  0  0  0
   39.0380   23.7720   38.9260 N   0  0  0  0  0  0  0  0  0  0  0  0
   39.8500   22.7390   38.2650 C   0  0  0  0  0  0  0  0  0  0  0  0
   39.9280   23.1740   36.8060 C   0  0  0  0  0  0  0  0  0  0  0  0
   37.4200   20.2200   31.6920 N   0  0  0  0  0  0  0  0  0  0  0  0
   38.0300   19.0240   31.5530 C   0  0  0  0  0  0  0  0  0  0  0  0
   37.6680   18.2430   30.4730 C   0  0  0  0  0  0  0  0  0  0  0  0
   36.7190   18.7220   29.6110 C   0  0  0  0  0  0  0  0  0  0  0  0
   36.3050   17.9780   28.4920 N   0  0  0  0  0  0  0  0  0  0  0  0
   36.1360   19.9220   29.7910 N   0  0  0  0  0  0  0  0  0  0  0  0
   36.4840   20.6930   30.8460 C   0  0  0  0  0  0  0  0  0  0  0  0
   35.9220   21.8160   30.9890 O   0  0  0  0  0  0  0  0  0  0  0  0
   36.0672   20.2861   33.8995 H   0  0  0  0  0  0  0  0  0  0  0  0
   39.6031   21.9080   32.0110 H   0  0  0  0  0  0  0  0  0  0  0  0
   37.6642   24.9581   36.8030 H   0  0  0  0  0  0  0  0  0  0  0  0
   36.5640   23.5463   36.6372 H   0  0  0  0  0  0  0  0  0  0  0  0
   37.0251   24.3187   39.0092 H   0  0  0  0  0  0  0  0  0  0  0  0
   37.3607   22.5744   38.6538 H   0  0  0  0  0  0  0  0  0  0  0  0
   39.3872   24.7079   38.6749 H   0  0  0  0  0  0  0  0  0  0  0  0
   40.8552   22.6939   38.7095 H   0  0  0  0  0  0  0  0  0  0  0  0
   39.4124   21.7358   38.3748 H   0  0  0  0  0  0  0  0  0  0  0  0
   40.5619   22.4767   36.2386 H   0  0  0  0  0  0  0  0  0  0  0  0
   40.3670   24.1791   36.7221 H   0  0  0  0  0  0  0  0  0  0  0  0
   38.7880   18.6837   32.2738 H   0  0  0  0  0  0  0  0  0  0  0  0
   38.1316   17.2590   30.3095 H   0  0  0  0  0  0  0  0  0  0  0  0
   36.7186   17.0531   28.3068 H   0  0  0  0  0  0  0  0  0  0  0  0
   35.5881   18.3579   27.8575 H   0  0  0  0  0  0  0  0  0  0  0  0
  1  6  2  0
  2  3  2  0
  2  1  1  0
  3  4  1  0
  4  5  2  0
  5  7  1  0
  6  5  1  0
  7 12  1  0
  7  8  1  0
  8  9  1  0
  9 10  1  0
 11 10  1  0
 12 11  1  0
 13  2  1  0
 14 13  1  0
 15 14  2  0
 16 18  2  0
 16 15  1  0
 17 16  1  0
 18 19  1  0
 19 20  2  0
 19 13  1  0
  1 21  1  0
  3 22  1  0
  8 23  1  0
  8 24  1  0
  9 25  1  0
  9 26  1  0
 10 27  1  0
 11 28  1  0
 11 29  1  0
 12 30  1  0
 12 31  1  0
 14 32  1  0
 15 33  1  0
 17 34  1  0
 17 35  1  0
M  ISO  8  21  14  22  14  23  13  24  13  25  13  26  13  27   5  28  13
M  ISO  5  29  13  30  13  31  13  32  14  33  14
M  END
>  <minimizedAffinity>  (1) 
-4.39274645

>  <minimizedRMSD>  (1) 
3.88258195

$$$$
