
     RDKit          3D

 24 26  0  0  0  0  0  0  0  0999 V2000
   37.9900   21.4060   33.4030 C   0  0  0  0  0  0  0  0  0  0  0  0
   39.2540   21.9250   33.5480 C   0  0  0  0  0  0  0  0  0  0  0  0
   39.5850   22.5460   34.7080 C   0  0  0  0  0  0  0  0  0  0  0  0
   38.6480   22.6280   35.6780 C   0  0  0  0  0  0  0  0  0  0  0  0
   37.1940   21.7740   34.9210 S   0  0  0  0  0  0  0  0  0  0  0  0
   37.4310   20.7060   32.2500 C   0  0  0  0  0  0  0  0  0  0  0  0
   36.2160   20.0260   32.3450 C   0  0  0  0  0  0  0  0  0  0  0  0
   35.7600   19.3790   31.1720 C   0  0  0  0  0  0  0  0  0  0  0  0
   36.5310   19.4660   30.0460 N   0  0  0  0  0  0  0  0  0  0  0  0
   37.7010   20.1400   30.0120 C   0  0  0  0  0  0  0  0  0  0  0  0
   38.1610   20.7680   31.1210 N   0  0  0  0  0  0  0  0  0  0  0  0
   38.6050   23.1820   36.9980 C   0  0  0  0  0  0  0  0  0  0  0  0
   37.7090   24.1030   37.4960 C   0  0  0  0  0  0  0  0  0  0  0  0
   38.1440   24.2730   38.8170 C   0  0  0  0  0  0  0  0  0  0  0  0
   39.2300   23.4800   39.0330 N   0  0  0  0  0  0  0  0  0  0  0  0
   39.4930   22.8270   37.9150 N   0  0  0  0  0  0  0  0  0  0  0  0
   39.9884   21.8381   32.7337 H   0  0  0  0  0  0  0  0  0  0  0  0
   40.5888   22.9711   34.8548 H   0  0  0  0  0  0  0  0  0  0  0  0
   35.6425   19.9946   33.2831 H   0  0  0  0  0  0  0  0  0  0  0  0
   34.8117   18.8216   31.1661 H   0  0  0  0  0  0  0  0  0  0  0  0
   38.2832   20.1793   29.0795 H   0  0  0  0  0  0  0  0  0  0  0  0
   36.8630   24.5847   36.9839 H   0  0  0  0  0  0  0  0  0  0  0  0
   37.6825   24.9398   39.5602 H   0  0  0  0  0  0  0  0  0  0  0  0
   39.7555   23.4027   39.9155 H   0  0  0  0  0  0  0  0  0  0  0  0
  1  2  2  0
  1  5  1  0
  2  3  1  0
  3  4  2  0
  4 12  1  0
  5  4  1  0
  6  7  2  0
  6  1  1  0
  8  7  1  0
  9  8  2  0
 10  9  1  0
 10 11  2  0
 11  6  1  0
 12 13  1  0
 12 16  2  0
 13 14  2  0
 14 15  1  0
 16 15  1  0
  2 17  1  0
  3 18  1  0
  7 19  1  0
  8 20  1  0
 10 21  1  0
 13 22  1  0
 14 23  1  0
 15 24  1  0
M  ISO  8  17  14  18  14  19  14  20  14  21  14  22  14  23  14  24   9
M  END
>  <minimizedAffinity>  (1) 
-4.12785673

>  <minimizedRMSD>  (1) 
2.0057106

$$$$
