
     RDKit          3D

 30 33  0  0  0  0  0  0  0  0999 V2000
   38.4610   20.6270   31.4530 C   0  0  0  0  0  0  0  0  0  0  0  0
   39.5150   20.4910   32.3270 C   0  0  0  0  0  0  0  0  0  0  0  0
   39.6400   21.4160   33.3240 C   0  0  0  0  0  0  0  0  0  0  0  0
   38.7300   22.4110   33.3990 C   0  0  0  0  0  0  0  0  0  0  0  0
   37.5960   22.0570   31.9850 S   0  0  0  0  0  0  0  0  0  0  0  0
   38.1310   19.7560   30.3210 C   0  0  0  0  0  0  0  0  0  0  0  0
   36.7970   19.6110   29.9020 C   0  0  0  0  0  0  0  0  0  0  0  0
   36.5750   18.7440   28.8030 C   0  0  0  0  0  0  0  0  0  0  0  0
   37.6490   18.1310   28.2490 N   0  0  0  0  0  0  0  0  0  0  0  0
   38.9180   18.3070   28.6920 C   0  0  0  0  0  0  0  0  0  0  0  0
   39.1390   19.1270   29.7340 N   0  0  0  0  0  0  0  0  0  0  0  0
   38.5950   23.4910   34.2960 N   0  0  0  0  0  0  0  0  0  0  0  0
   38.1140   23.3730   35.5440 C   0  0  0  0  0  0  0  0  0  0  0  0
   38.1130   24.5840   36.1420 N   0  0  0  0  0  0  0  0  0  0  0  0
   38.5990   25.4730   35.2660 C   0  0  0  0  0  0  0  0  0  0  0  0
   38.8470   26.8320   35.2640 C   0  0  0  0  0  0  0  0  0  0  0  0
   39.3610   27.4540   34.1780 N   0  0  0  0  0  0  0  0  0  0  0  0
   39.6510   26.7500   33.0450 C   0  0  0  0  0  0  0  0  0  0  0  0
   39.4110   25.4250   33.0400 N   0  0  0  0  0  0  0  0  0  0  0  0
   38.9050   24.7850   34.0930 C   0  0  0  0  0  0  0  0  0  0  0  0
   38.5460   27.5760   36.4470 N   0  0  0  0  0  0  0  0  0  0  0  0
   40.2335   19.6642   32.2260 H   0  0  0  0  0  0  0  0  0  0  0  0
   40.4639   21.3520   34.0500 H   0  0  0  0  0  0  0  0  0  0  0  0
   35.9713   20.1410   30.3994 H   0  0  0  0  0  0  0  0  0  0  0  0
   35.5612   18.5738   28.4115 H   0  0  0  0  0  0  0  0  0  0  0  0
   39.7556   17.7858   28.2054 H   0  0  0  0  0  0  0  0  0  0  0  0
   37.7735   22.4353   36.0075 H   0  0  0  0  0  0  0  0  0  0  0  0
   40.0695   27.2516   32.1599 H   0  0  0  0  0  0  0  0  0  0  0  0
   38.7201   28.5908   36.4754 H   0  0  0  0  0  0  0  0  0  0  0  0
   38.1550   27.0973   37.2709 H   0  0  0  0  0  0  0  0  0  0  0  0
  1  5  1  0
  1  2  2  0
  2  3  1  0
  3  4  2  0
  4 12  1  0
  5  4  1  0
  6  1  1  0
  7  6  2  0
  8  7  1  0
  9 10  1  0
  9  8  2  0
 10 11  2  0
 11  6  1  0
 12 13  1  0
 13 14  2  0
 15 14  1  0
 16 15  2  0
 16 21  1  0
 17 16  1  0
 18 17  2  0
 19 18  1  0
 19 20  2  0
 20 12  1  0
 20 15  1  0
  2 22  1  0
  3 23  1  0
  7 24  1  0
  8 25  1  0
 10 26  1  0
 13 27  1  0
 18 28  1  0
 21 29  1  0
 21 30  1  0
M  ISO  7  22  14  23  14  24  14  25  14  26  14  27  14  28  14
M  END
>  <minimizedAffinity>  (1) 
-4.03198051

>  <minimizedRMSD>  (1) 
4.96134233

$$$$
