
     RDKit          3D

 24 26  0  0  0  0  0  0  0  0999 V2000
   37.2860   22.0640   33.8590 C   0  0  0  0  0  0  0  0  0  0  0  0
   37.8870   23.2630   33.5630 C   0  0  0  0  0  0  0  0  0  0  0  0
   38.3760   24.0150   34.5910 C   0  0  0  0  0  0  0  0  0  0  0  0
   38.2440   23.5440   35.8490 C   0  0  0  0  0  0  0  0  0  0  0  0
   37.3790   21.9340   35.6060 S   0  0  0  0  0  0  0  0  0  0  0  0
   36.6970   21.0970   32.9300 C   0  0  0  0  0  0  0  0  0  0  0  0
   35.6460   20.2710   33.3300 C   0  0  0  0  0  0  0  0  0  0  0  0
   35.1530   19.3730   32.3580 C   0  0  0  0  0  0  0  0  0  0  0  0
   35.7160   19.3690   31.1310 N   0  0  0  0  0  0  0  0  0  0  0  0
   36.7360   20.1910   30.7920 C   0  0  0  0  0  0  0  0  0  0  0  0
   37.2160   21.0520   31.7090 N   0  0  0  0  0  0  0  0  0  0  0  0
   38.6530   24.0970   37.1480 C   0  0  0  0  0  0  0  0  0  0  0  0
   37.8810   23.6620   38.3040 C   0  0  0  0  0  0  0  0  0  0  0  0
   39.2740   23.1190   38.0910 C   0  0  0  0  0  0  0  0  0  0  0  0
   37.9720   23.6086   32.5222 H   0  0  0  0  0  0  0  0  0  0  0  0
   38.8657   24.9812   34.3994 H   0  0  0  0  0  0  0  0  0  0  0  0
   35.2252   20.3167   34.3453 H   0  0  0  0  0  0  0  0  0  0  0  0
   34.3251   18.6891   32.5964 H   0  0  0  0  0  0  0  0  0  0  0  0
   37.1673   20.1562   29.7807 H   0  0  0  0  0  0  0  0  0  0  0  0
   38.9432   25.0798   36.7480 H   0  0  0  0  0  0  0  0  0  0  0  0
   37.6854   24.3631   39.1287 H   0  0  0  0  0  0  0  0  0  0  0  0
   36.8874   23.2126   38.4482 H   0  0  0  0  0  0  0  0  0  0  0  0
   39.4217   22.0720   37.7877 H   0  0  0  0  0  0  0  0  0  0  0  0
   40.2012   23.0709   38.6809 H   0  0  0  0  0  0  0  0  0  0  0  0
  1  5  1  0
  2  1  2  0
  2  3  1  0
  3  4  2  0
  4 12  1  0
  5  4  1  0
  6  7  2  0
  6  1  1  0
  8  7  1  0
  9  8  2  0
 10  9  1  0
 10 11  2  0
 11  6  1  0
 12 14  1  0
 12 13  1  0
 14 13  1  0
  2 15  1  0
  3 16  1  0
  7 17  1  0
  8 18  1  0
 10 19  1  0
 12 20  1  0
 13 21  1  0
 13 22  1  0
 14 23  1  0
 14 24  1  0
M  ISO  8  15  14  16  14  17  14  18  14  19  14  20  13  21  13  22  13
M  ISO  2  23  13  24  13
M  END
>  <minimizedAffinity>  (1) 
-3.96229696

>  <minimizedRMSD>  (1) 
1.78936696

$$$$
