
     RDKit          3D

 23 24  0  0  0  0  0  0  0  0999 V2000
   37.7950   21.9470   34.3670 C   0  0  0  0  0  0  0  0  0  0  0  0
   39.1610   22.0760   34.1920 C   0  0  0  0  0  0  0  0  0  0  0  0
   39.8960   22.3920   35.3030 C   0  0  0  0  0  0  0  0  0  0  0  0
   39.2790   22.5610   36.4880 C   0  0  0  0  0  0  0  0  0  0  0  0
   37.5000   22.2630   36.0680 S   0  0  0  0  0  0  0  0  0  0  0  0
   36.8120   21.6100   33.3420 C   0  0  0  0  0  0  0  0  0  0  0  0
   35.8420   20.6090   33.5910 C   0  0  0  0  0  0  0  0  0  0  0  0
   34.9350   20.3440   32.5440 C   0  0  0  0  0  0  0  0  0  0  0  0
   35.0510   21.0550   31.3920 N   0  0  0  0  0  0  0  0  0  0  0  0
   36.0010   22.0050   31.2070 C   0  0  0  0  0  0  0  0  0  0  0  0
   36.8830   22.2750   32.2000 N   0  0  0  0  0  0  0  0  0  0  0  0
   39.7650   22.8960   37.8320 C   0  0  0  0  0  0  0  0  0  0  0  0
   38.6130   23.5040   38.6390 C   0  0  0  0  0  0  0  0  0  0  0  0
   39.6333   21.9319   33.2091 H   0  0  0  0  0  0  0  0  0  0  0  0
   40.9873   22.5075   35.2279 H   0  0  0  0  0  0  0  0  0  0  0  0
   35.7983   20.0681   34.5478 H   0  0  0  0  0  0  0  0  0  0  0  0
   34.1521   19.5797   32.6574 H   0  0  0  0  0  0  0  0  0  0  0  0
   36.0555   22.5539   30.2553 H   0  0  0  0  0  0  0  0  0  0  0  0
   40.1256   21.9850   38.3320 H   0  0  0  0  0  0  0  0  0  0  0  0
   40.5916   23.6182   37.7602 H   0  0  0  0  0  0  0  0  0  0  0  0
   38.8204   23.3945   39.7137 H   0  0  0  0  0  0  0  0  0  0  0  0
   38.5150   24.5713   38.3913 H   0  0  0  0  0  0  0  0  0  0  0  0
   37.6766   22.9827   38.3913 H   0  0  0  0  0  0  0  0  0  0  0  0
  1  5  1  0
  2  1  2  0
  2  3  1  0
  3  4  2  0
  4 12  1  0
  5  4  1  0
  6  7  2  0
  6  1  1  0
  8  7  1  0
  9  8  2  0
 10  9  1  0
 10 11  2  0
 11  6  1  0
 12 13  1  0
  2 14  1  0
  3 15  1  0
  7 16  1  0
  8 17  1  0
 10 18  1  0
 12 19  1  0
 12 20  1  0
 13 21  1  0
 13 22  1  0
 13 23  1  0
M  ISO  8  14  14  15  14  16  14  17  14  18  14  19   8  20   8  21   8
M  ISO  2  22   8  23   8
M  END
>  <minimizedAffinity>  (1) 
-3.75653219

>  <minimizedRMSD>  (1) 
0.535977781

$$$$
