
     RDKit          3D

 19 20  0  0  0  0  0  0  0  0999 V2000
   37.8810   22.0420   34.4960 C   0  0  0  0  0  0  0  0  0  0  0  0
   39.2460   22.1440   34.3940 C   0  0  0  0  0  0  0  0  0  0  0  0
   39.9670   22.4680   35.4940 C   0  0  0  0  0  0  0  0  0  0  0  0
   39.3060   22.6780   36.6500 C   0  0  0  0  0  0  0  0  0  0  0  0
   37.5400   22.4040   36.1780 S   0  0  0  0  0  0  0  0  0  0  0  0
   36.9070   21.7050   33.4480 C   0  0  0  0  0  0  0  0  0  0  0  0
   35.9080   20.7600   33.6730 C   0  0  0  0  0  0  0  0  0  0  0  0
   35.0280   20.5120   32.6000 C   0  0  0  0  0  0  0  0  0  0  0  0
   35.2100   21.1930   31.4510 N   0  0  0  0  0  0  0  0  0  0  0  0
   36.1970   22.1060   31.2730 C   0  0  0  0  0  0  0  0  0  0  0  0
   37.0580   22.3670   32.2860 N   0  0  0  0  0  0  0  0  0  0  0  0
   39.6750   23.0320   38.0150 C   0  0  0  0  0  0  0  0  0  0  0  0
   38.8190   23.4720   38.8010 O   0  0  0  0  0  0  0  0  0  0  0  0
   39.7478   21.9650   33.4316 H   0  0  0  0  0  0  0  0  0  0  0  0
   41.0623   22.5573   35.4453 H   0  0  0  0  0  0  0  0  0  0  0  0
   35.8113   20.2361   34.6354 H   0  0  0  0  0  0  0  0  0  0  0  0
   34.2124   19.7804   32.6980 H   0  0  0  0  0  0  0  0  0  0  0  0
   36.2979   22.6315   30.3119 H   0  0  0  0  0  0  0  0  0  0  0  0
   40.7153   22.9092   38.3506 H   0  0  0  0  0  0  0  0  0  0  0  0
  1  5  1  0
  2  1  2  0
  2  3  1  0
  3  4  2  0
  4 12  1  0
  5  4  1  0
  6  7  2  0
  6  1  1  0
  8  7  1  0
  9  8  2  0
 10  9  1  0
 10 11  2  0
 11  6  1  0
 12 13  2  0
  2 14  1  0
  3 15  1  0
  7 16  1  0
  8 17  1  0
 10 18  1  0
 12 19  1  0
M  ISO  6  14  14  15  14  16  14  17  14  18  14  19   6
M  END
>  <minimizedAffinity>  (1) 
-3.5324266

>  <minimizedRMSD>  (1) 
0.410004467

$$$$
