
     RDKit          3D

 30 32  0  0  0  0  0  0  0  0999 V2000
   37.0270   21.1370   33.1360 C   0  0  0  0  0  0  0  0  0  0  0  0
   38.1470   20.8360   32.3270 C   0  0  0  0  0  0  0  0  0  0  0  0
   39.3970   21.1380   32.8450 C   0  0  0  0  0  0  0  0  0  0  0  0
   39.4880   21.6970   34.0750 N   0  0  0  0  0  0  0  0  0  0  0  0
   38.3940   21.9750   34.8260 C   0  0  0  0  0  0  0  0  0  0  0  0
   37.1620   21.6960   34.3610 N   0  0  0  0  0  0  0  0  0  0  0  0
   37.8810   20.2570   31.0750 N   0  0  0  0  0  0  0  0  0  0  0  0
   37.0390   19.1890   31.0850 C   0  0  0  0  0  0  0  0  0  0  0  0
   36.7610   18.6010   29.8670 C   0  0  0  0  0  0  0  0  0  0  0  0
   37.3390   19.1190   28.7520 C   0  0  0  0  0  0  0  0  0  0  0  0
   37.0870   18.5550   27.4840 N   0  0  0  0  0  0  0  0  0  0  0  0
   38.1680   20.1790   28.8000 N   0  0  0  0  0  0  0  0  0  0  0  0
   38.4470   20.7640   29.9830 C   0  0  0  0  0  0  0  0  0  0  0  0
   39.2210   21.7490   29.9990 O   0  0  0  0  0  0  0  0  0  0  0  0
   38.5320   22.5780   36.1510 C   0  0  0  0  0  0  0  0  0  0  0  0
   39.7480   22.4320   36.8260 C   0  0  0  0  0  0  0  0  0  0  0  0
   39.9100   22.9920   38.0800 C   0  0  0  0  0  0  0  0  0  0  0  0
   38.8370   23.6790   38.6080 C   0  0  0  0  0  0  0  0  0  0  0  0
   37.6360   23.8240   37.9440 C   0  0  0  0  0  0  0  0  0  0  0  0
   37.5130   23.2590   36.7080 N   0  0  0  0  0  0  0  0  0  0  0  0
   36.0186   20.9106   32.7594 H   0  0  0  0  0  0  0  0  0  0  0  0
   40.3057   20.9257   32.2627 H   0  0  0  0  0  0  0  0  0  0  0  0
   36.5998   18.8111   32.0201 H   0  0  0  0  0  0  0  0  0  0  0  0
   36.0875   17.7338   29.8011 H   0  0  0  0  0  0  0  0  0  0  0  0
   36.4595   17.7429   27.3971 H   0  0  0  0  0  0  0  0  0  0  0  0
   37.5305   18.9553   26.6450 H   0  0  0  0  0  0  0  0  0  0  0  0
   40.5734   21.8732   36.3607 H   0  0  0  0  0  0  0  0  0  0  0  0
   40.8555   22.8936   38.6334 H   0  0  0  0  0  0  0  0  0  0  0  0
   38.9435   24.1324   39.6046 H   0  0  0  0  0  0  0  0  0  0  0  0
   36.8018   24.3790   38.3980 H   0  0  0  0  0  0  0  0  0  0  0  0
  1  6  2  0
  2  3  2  0
  2  1  1  0
  3  4  1  0
  4  5  2  0
  5 15  1  0
  6  5  1  0
  7  8  1  0
  7  2  1  0
  9  8  2  0
 10 12  2  0
 10  9  1  0
 11 10  1  0
 12 13  1  0
 13 14  2  0
 13  7  1  0
 15 20  1  0
 15 16  2  0
 16 17  1  0
 17 18  2  0
 19 18  1  0
 20 19  2  0
  1 21  1  0
  3 22  1  0
  8 23  1  0
  9 24  1  0
 11 25  1  0
 11 26  1  0
 16 27  1  0
 17 28  1  0
 18 29  1  0
 19 30  1  0
M  ISO  8  21  14  22  14  23  14  24  14  27  14  28  14  29  14  30  14
M  END
>  <minimizedAffinity>  (1) 
-4.2875576

>  <minimizedRMSD>  (1) 
4.28897333

$$$$
