
     RDKit          3D

 22 23  0  0  0  0  0  0  0  0999 V2000
   37.1700   21.8570   33.3710 C   0  0  0  0  0  0  0  0  0  0  0  0
   37.4920   23.0850   32.8540 C   0  0  0  0  0  0  0  0  0  0  0  0
   38.0040   23.9980   33.7350 C   0  0  0  0  0  0  0  0  0  0  0  0
   38.1690   23.6760   35.0280 C   0  0  0  0  0  0  0  0  0  0  0  0
   37.5640   21.9290   35.0770 S   0  0  0  0  0  0  0  0  0  0  0  0
   36.6090   20.7100   32.6520 C   0  0  0  0  0  0  0  0  0  0  0  0
   35.6720   19.8650   33.2650 C   0  0  0  0  0  0  0  0  0  0  0  0
   35.1700   18.7800   32.5300 C   0  0  0  0  0  0  0  0  0  0  0  0
   35.6350   18.6300   31.2680 N   0  0  0  0  0  0  0  0  0  0  0  0
   36.5380   19.4710   30.7210 C   0  0  0  0  0  0  0  0  0  0  0  0
   37.0260   20.5130   31.4120 N   0  0  0  0  0  0  0  0  0  0  0  0
   38.6780   24.4320   36.1540 C   0  0  0  0  0  0  0  0  0  0  0  0
   38.7570   25.7130   36.0370 O   0  0  0  0  0  0  0  0  0  0  0  0
   39.0440   23.7330   37.2810 O   0  0  0  0  0  0  0  0  0  0  0  0
   38.1460   23.7140   38.3680 C   0  0  0  0  0  0  0  0  0  0  0  0
   37.9700   24.7810   39.0080 O   0  0  0  0  0  0  0  0  0  0  0  0
   37.3468   23.3232   31.7899 H   0  0  0  0  0  0  0  0  0  0  0  0
   38.2822   25.0020   33.3819 H   0  0  0  0  0  0  0  0  0  0  0  0
   35.3387   20.0484   34.2971 H   0  0  0  0  0  0  0  0  0  0  0  0
   34.4336   18.0846   32.9592 H   0  0  0  0  0  0  0  0  0  0  0  0
   36.8803   19.2992   29.6898 H   0  0  0  0  0  0  0  0  0  0  0  0
   37.6150   22.7921   38.6476 H   0  0  0  0  0  0  0  0  0  0  0  0
  1  5  1  0
  2  1  2  0
  2  3  1  0
  3  4  2  0
  4  5  1  0
  4 12  1  0
  6  7  2  0
  6  1  1  0
  8  7  1  0
  9  8  2  0
 10  9  1  0
 10 11  2  0
 11  6  1  0
 12 14  1  0
 13 12  2  0
 14 15  1  0
 15 16  2  0
  2 17  1  0
  3 18  1  0
  7 19  1  0
  8 20  1  0
 10 21  1  0
 15 22  1  0
M  ISO  6  17  14  18  14  19  14  20  14  21  14  22   6
M  END
>  <minimizedAffinity>  (1) 
-3.77591109

>  <minimizedRMSD>  (1) 
1.63548172

$$$$
