
     RDKit          3D

 30 32  0  0  0  0  0  0  0  0999 V2000
   36.5700   19.6840   30.8370 C   0  0  0  0  0  0  0  0  0  0  0  0
   35.9760   20.9160   30.8470 C   0  0  0  0  0  0  0  0  0  0  0  0
   36.0360   21.6410   32.0070 C   0  0  0  0  0  0  0  0  0  0  0  0
   36.6700   21.1130   33.0700 C   0  0  0  0  0  0  0  0  0  0  0  0
   37.2490   19.4680   32.4520 S   0  0  0  0  0  0  0  0  0  0  0  0
   36.6430   18.7300   29.7220 C   0  0  0  0  0  0  0  0  0  0  0  0
   36.8580   17.3610   29.9650 C   0  0  0  0  0  0  0  0  0  0  0  0
   36.9280   16.5140   28.8510 C   0  0  0  0  0  0  0  0  0  0  0  0
   36.7820   17.0810   27.6340 N   0  0  0  0  0  0  0  0  0  0  0  0
   36.5750   18.4120   27.4410 C   0  0  0  0  0  0  0  0  0  0  0  0
   36.5090   19.2190   28.5120 N   0  0  0  0  0  0  0  0  0  0  0  0
   36.8980   21.6380   34.4000 C   0  0  0  0  0  0  0  0  0  0  0  0
   36.3150   21.1130   35.3930 O   0  0  0  0  0  0  0  0  0  0  0  0
   37.7680   22.7210   34.5240 O   0  0  0  0  0  0  0  0  0  0  0  0
   38.2680   22.9300   35.8180 C   0  0  0  0  0  0  0  0  0  0  0  0
   39.4300   22.3280   36.1850 C   0  0  0  0  0  0  0  0  0  0  0  0
   39.9840   22.4860   37.4420 C   0  0  0  0  0  0  0  0  0  0  0  0
   39.3250   23.2880   38.3540 C   0  0  0  0  0  0  0  0  0  0  0  0
   38.1380   23.9140   38.0030 C   0  0  0  0  0  0  0  0  0  0  0  0
   37.5910   23.7430   36.7280 C   0  0  0  0  0  0  0  0  0  0  0  0
   35.4680   21.3105   29.9546 H   0  0  0  0  0  0  0  0  0  0  0  0
   35.5741   22.6374   32.0688 H   0  0  0  0  0  0  0  0  0  0  0  0
   36.9667   16.9714   30.9879 H   0  0  0  0  0  0  0  0  0  0  0  0
   37.0949   15.4325   28.9630 H   0  0  0  0  0  0  0  0  0  0  0  0
   36.4637   18.8196   26.4254 H   0  0  0  0  0  0  0  0  0  0  0  0
   39.9495   21.6908   35.4542 H   0  0  0  0  0  0  0  0  0  0  0  0
   40.9263   21.9855   37.7094 H   0  0  0  0  0  0  0  0  0  0  0  0
   39.7430   23.4305   39.3615 H   0  0  0  0  0  0  0  0  0  0  0  0
   37.6217   24.5517   38.7357 H   0  0  0  0  0  0  0  0  0  0  0  0
   36.6491   24.2377   36.4486 H   0  0  0  0  0  0  0  0  0  0  0  0
  1  2  2  0
  1  5  1  0
  2  3  1  0
  3  4  2  0
  4 12  1  0
  5  4  1  0
  6  7  2  0
  6  1  1  0
  8  7  1  0
  9  8  2  0
 10  9  1  0
 10 11  2  0
 11  6  1  0
 12 14  1  0
 12 13  2  0
 14 15  1  0
 15 16  2  0
 15 20  1  0
 16 17  1  0
 17 18  2  0
 19 18  1  0
 20 19  2  0
  2 21  1  0
  3 22  1  0
  7 23  1  0
  8 24  1  0
 10 25  1  0
 16 26  1  0
 17 27  1  0
 18 28  1  0
 19 29  1  0
 20 30  1  0
M  ISO  8  21  14  22  14  23  14  24  14  25  14  26  14  27  14  28  14
M  ISO  2  29  14  30  14
M  END
>  <minimizedAffinity>  (1) 
-4.2818284

>  <minimizedRMSD>  (1) 
4.57898045

$$$$
