
     RDKit          3D

 27 29  0  0  0  0  0  0  0  0999 V2000
   37.0880   21.5160   31.9670 C   0  0  0  0  0  0  0  0  0  0  0  0
   36.6950   22.7280   31.4730 C   0  0  0  0  0  0  0  0  0  0  0  0
   36.9970   23.8480   32.2050 C   0  0  0  0  0  0  0  0  0  0  0  0
   37.6620   23.7000   33.3670 C   0  0  0  0  0  0  0  0  0  0  0  0
   37.9060   21.8660   33.4890 S   0  0  0  0  0  0  0  0  0  0  0  0
   36.8760   20.1940   31.3670 C   0  0  0  0  0  0  0  0  0  0  0  0
   36.5670   19.0860   32.2010 C   0  0  0  0  0  0  0  0  0  0  0  0
   36.3810   17.8530   31.5310 C   0  0  0  0  0  0  0  0  0  0  0  0
   36.5090   17.8240   30.1800 N   0  0  0  0  0  0  0  0  0  0  0  0
   36.8060   18.9130   29.4470 C   0  0  0  0  0  0  0  0  0  0  0  0
   36.9880   20.1020   30.0640 N   0  0  0  0  0  0  0  0  0  0  0  0
   38.1130   24.6830   34.3300 C   0  0  0  0  0  0  0  0  0  0  0  0
   37.4870   25.7770   34.4420 O   0  0  0  0  0  0  0  0  0  0  0  0
   39.2380   24.3530   35.0900 O   0  0  0  0  0  0  0  0  0  0  0  0
   38.9800   23.9880   36.4260 C   0  0  0  0  0  0  0  0  0  0  0  0
   39.4220   23.0200   37.3030 C   0  0  0  0  0  0  0  0  0  0  0  0
   38.7660   23.2120   38.4740 N   0  0  0  0  0  0  0  0  0  0  0  0
   37.9450   24.2750   38.3070 C   0  0  0  0  0  0  0  0  0  0  0  0
   38.0580   24.7750   37.0430 N   0  0  0  0  0  0  0  0  0  0  0  0
   36.1535   22.8030   30.5184 H   0  0  0  0  0  0  0  0  0  0  0  0
   36.7022   24.8466   31.8503 H   0  0  0  0  0  0  0  0  0  0  0  0
   36.4783   19.1800   33.2934 H   0  0  0  0  0  0  0  0  0  0  0  0
   36.1382   16.9389   32.0926 H   0  0  0  0  0  0  0  0  0  0  0  0
   36.9000   18.8361   28.3537 H   0  0  0  0  0  0  0  0  0  0  0  0
   40.1670   22.2387   37.0921 H   0  0  0  0  0  0  0  0  0  0  0  0
   37.2788   24.6797   39.0832 H   0  0  0  0  0  0  0  0  0  0  0  0
   37.5527   25.5776   36.6413 H   0  0  0  0  0  0  0  0  0  0  0  0
  1  5  1  0
  2  1  2  0
  2  3  1  0
  3  4  2  0
  4  5  1  0
  4 12  1  0
  6  1  1  0
  6  7  2  0
  8  7  1  0
  9  8  2  0
 10 11  2  0
 10  9  1  0
 11  6  1  0
 12 13  2  0
 12 14  1  0
 14 15  1  0
 15 19  1  0
 15 16  2  0
 16 17  1  0
 18 17  2  0
 19 18  1  0
  2 20  1  0
  3 21  1  0
  7 22  1  0
  8 23  1  0
 10 24  1  0
 16 25  1  0
 18 26  1  0
 19 27  1  0
M  ISO  8  20  14  21  14  22  14  23  14  24  14  25  14  26  14  27   9
M  END
>  <minimizedAffinity>  (1) 
-4.13209629

>  <minimizedRMSD>  (1) 
3.28345537

$$$$
