
     RDKit          3D

 26 28  0  0  0  0  0  0  0  0999 V2000
   36.7390   23.6350   31.9770 C   0  0  0  0  0  0  0  0  0  0  0  0
   37.7850   22.8200   32.3180 C   0  0  0  0  0  0  0  0  0  0  0  0
   37.6610   21.4820   32.0380 C   0  0  0  0  0  0  0  0  0  0  0  0
   36.5360   21.0430   31.4510 C   0  0  0  0  0  0  0  0  0  0  0  0
   35.5240   22.5900   31.2470 S   0  0  0  0  0  0  0  0  0  0  0  0
   36.6440   25.0870   32.1800 C   0  0  0  0  0  0  0  0  0  0  0  0
   35.8850   25.8760   31.2750 C   0  0  0  0  0  0  0  0  0  0  0  0
   35.8510   27.2610   31.5530 C   0  0  0  0  0  0  0  0  0  0  0  0
   36.5360   27.7220   32.6470 N   0  0  0  0  0  0  0  0  0  0  0  0
   37.2350   26.9160   33.4640 C   0  0  0  0  0  0  0  0  0  0  0  0
   37.2760   25.5950   33.2100 N   0  0  0  0  0  0  0  0  0  0  0  0
   36.1410   19.7100   31.0410 C   0  0  0  0  0  0  0  0  0  0  0  0
   36.2860   19.3510   29.8370 O   0  0  0  0  0  0  0  0  0  0  0  0
   35.6080   18.8770   32.0270 O   0  0  0  0  0  0  0  0  0  0  0  0
   36.2100   17.6020   32.0960 C   0  0  0  0  0  0  0  0  0  0  0  0
   35.5280   16.4300   32.2560 C   0  0  0  0  0  0  0  0  0  0  0  0
   36.8820   15.1900   32.2640 S   0  0  0  0  0  0  0  0  0  0  0  0
   38.1830   16.5670   32.0380 C   0  0  0  0  0  0  0  0  0  0  0  0
   37.5490   17.5750   31.9950 N   0  0  0  0  0  0  0  0  0  0  0  0
   38.6896   23.2219   32.7977 H   0  0  0  0  0  0  0  0  0  0  0  0
   38.4701   20.7808   32.2904 H   0  0  0  0  0  0  0  0  0  0  0  0
   35.3584   25.4377   30.4144 H   0  0  0  0  0  0  0  0  0  0  0  0
   35.2888   27.9519   30.9076 H   0  0  0  0  0  0  0  0  0  0  0  0
   37.7683   27.3317   34.3316 H   0  0  0  0  0  0  0  0  0  0  0  0
   34.4442   16.2697   32.3549 H   0  0  0  0  0  0  0  0  0  0  0  0
   39.2748   16.4553   31.9639 H   0  0  0  0  0  0  0  0  0  0  0  0
  1  6  1  0
  1  2  2  0
  3  2  1  0
  4  3  2  0
  5  4  1  0
  5  1  1  0
  6 11  2  0
  7  8  2  0
  7  6  1  0
  8  9  1  0
  9 10  2  0
 11 10  1  0
 12  4  1  0
 12 14  1  0
 13 12  2  0
 14 15  1  0
 15 16  2  0
 16 17  1  0
 18 17  1  0
 19 18  2  0
 19 15  1  0
  2 20  1  0
  3 21  1  0
  7 22  1  0
  8 23  1  0
 10 24  1  0
 16 25  1  0
 18 26  1  0
M  ISO  7  20  14  21  14  22  14  23  14  24  14  25  14  26  14
M  END
>  <minimizedAffinity>  (1) 
-3.74010468

>  <minimizedRMSD>  (1) 
8.13930988

$$$$
