
     RDKit          3D

 37 41  0  0  0  0  0  0  0  0999 V2000
   36.2570   19.5200   30.5000 C   0  0  0  0  0  0  0  0  0  0  0  0
   36.4710   19.0510   29.3460 O   0  0  0  0  0  0  0  0  0  0  0  0
   36.8090   23.4440   31.4640 C   0  0  0  0  0  0  0  0  0  0  0  0
   37.9470   22.8110   31.0700 C   0  0  0  0  0  0  0  0  0  0  0  0
   37.8520   21.4820   30.7270 C   0  0  0  0  0  0  0  0  0  0  0  0
   36.6540   20.8940   30.7980 C   0  0  0  0  0  0  0  0  0  0  0  0
   35.5160   22.2410   31.3870 S   0  0  0  0  0  0  0  0  0  0  0  0
   36.6510   24.8530   31.8780 C   0  0  0  0  0  0  0  0  0  0  0  0
   35.8470   25.7280   31.1250 C   0  0  0  0  0  0  0  0  0  0  0  0
   35.7770   27.0540   31.6270 C   0  0  0  0  0  0  0  0  0  0  0  0
   36.4700   27.3660   32.7570 N   0  0  0  0  0  0  0  0  0  0  0  0
   37.2230   26.4750   33.4300 C   0  0  0  0  0  0  0  0  0  0  0  0
   37.2960   25.2180   32.9650 N   0  0  0  0  0  0  0  0  0  0  0  0
   35.6590   18.7920   31.5150 O   0  0  0  0  0  0  0  0  0  0  0  0
   36.3110   17.5610   31.8030 C   0  0  0  0  0  0  0  0  0  0  0  0
   35.6640   16.3580   31.9000 C   0  0  0  0  0  0  0  0  0  0  0  0
   37.0660   15.2220   32.2820 S   0  0  0  0  0  0  0  0  0  0  0  0
   38.2960   16.6580   32.2320 C   0  0  0  0  0  0  0  0  0  0  0  0
   37.6280   17.6100   31.9850 N   0  0  0  0  0  0  0  0  0  0  0  0
   39.7450   16.5480   32.4580 N   0  0  0  0  0  0  0  0  0  0  0  0
   40.5380   17.4820   31.8970 C   0  0  0  0  0  0  0  0  0  0  0  0
   41.7700   17.1510   32.2530 N   0  0  0  0  0  0  0  0  0  0  0  0
   41.7620   16.0280   33.0270 C   0  0  0  0  0  0  0  0  0  0  0  0
   42.6970   15.2270   33.6760 C   0  0  0  0  0  0  0  0  0  0  0  0
   42.2860   14.1450   34.3790 N   0  0  0  0  0  0  0  0  0  0  0  0
   40.9660   13.8430   34.4510 C   0  0  0  0  0  0  0  0  0  0  0  0
   40.0260   14.5900   33.8370 N   0  0  0  0  0  0  0  0  0  0  0  0
   40.4370   15.6570   33.1450 C   0  0  0  0  0  0  0  0  0  0  0  0
   38.9089   23.3429   31.0272 H   0  0  0  0  0  0  0  0  0  0  0  0
   38.7391   20.9181   30.4028 H   0  0  0  0  0  0  0  0  0  0  0  0
   35.3137   25.4093   30.2172 H   0  0  0  0  0  0  0  0  0  0  0  0
   35.1735   27.8161   31.1122 H   0  0  0  0  0  0  0  0  0  0  0  0
   37.7658   26.7706   34.3399 H   0  0  0  0  0  0  0  0  0  0  0  0
   34.5944   16.1301   31.7817 H   0  0  0  0  0  0  0  0  0  0  0  0
   40.2285   18.3360   31.2766 H   0  0  0  0  0  0  0  0  0  0  0  0
   43.7677   15.4723   33.6180 H   0  0  0  0  0  0  0  0  0  0  0  0
   40.6521   12.9609   35.0284 H   0  0  0  0  0  0  0  0  0  0  0  0
  1  6  1  0
  1 14  1  0
  2  1  2  0
  3  8  1  0
  4  3  2  0
  5  6  2  0
  5  4  1  0
  6  7  1  0
  7  3  1  0
  8 13  2  0
  9 10  2  0
  9  8  1  0
 10 11  1  0
 11 12  2  0
 13 12  1  0
 14 15  1  0
 15 16  2  0
 15 19  1  0
 16 17  1  0
 18 17  1  0
 18 20  1  0
 19 18  2  0
 20 28  1  0
 21 22  2  0
 21 20  1  0
 22 23  1  0
 23 28  2  0
 23 24  1  0
 24 25  2  0
 25 26  1  0
 27 26  2  0
 28 27  1  0
  4 29  1  0
  5 30  1  0
  9 31  1  0
 10 32  1  0
 12 33  1  0
 16 34  1  0
 21 35  1  0
 24 36  1  0
 26 37  1  0
M  ISO  8  29  14  30  14  31  14  32  14  33  14  34  14  35  14  36  14
M  ISO  1  37  14
M  END
>  <minimizedAffinity>  (1) 
-4.20928621

>  <minimizedRMSD>  (1) 
0.726101279

$$$$
