
     RDKit          3D

 41 44  0  0  0  0  0  0  0  0999 V2000
   36.7310   23.6620   31.9840 C   0  0  0  0  0  0  0  0  0  0  0  0
   37.7600   22.8440   32.3300 C   0  0  0  0  0  0  0  0  0  0  0  0
   37.6250   21.5010   32.0520 C   0  0  0  0  0  0  0  0  0  0  0  0
   36.5000   21.0860   31.4630 C   0  0  0  0  0  0  0  0  0  0  0  0
   35.4980   22.6410   31.2480 S   0  0  0  0  0  0  0  0  0  0  0  0
   36.6310   25.1250   32.1720 C   0  0  0  0  0  0  0  0  0  0  0  0
   35.8870   25.9170   31.2750 C   0  0  0  0  0  0  0  0  0  0  0  0
   35.8720   27.3020   31.5670 C   0  0  0  0  0  0  0  0  0  0  0  0
   36.5580   27.7510   32.6600 N   0  0  0  0  0  0  0  0  0  0  0  0
   37.2440   26.9430   33.4710 C   0  0  0  0  0  0  0  0  0  0  0  0
   37.2730   25.6220   33.2140 N   0  0  0  0  0  0  0  0  0  0  0  0
   36.0810   19.7480   31.0530 C   0  0  0  0  0  0  0  0  0  0  0  0
   36.2620   19.3810   29.8590 O   0  0  0  0  0  0  0  0  0  0  0  0
   35.4960   18.9440   32.0190 O   0  0  0  0  0  0  0  0  0  0  0  0
   36.0900   17.6550   32.1190 C   0  0  0  0  0  0  0  0  0  0  0  0
   35.3810   16.5030   32.3310 C   0  0  0  0  0  0  0  0  0  0  0  0
   36.7160   15.2370   32.3550 S   0  0  0  0  0  0  0  0  0  0  0  0
   38.0260   16.5760   32.0610 C   0  0  0  0  0  0  0  0  0  0  0  0
   37.4110   17.5870   31.9970 N   0  0  0  0  0  0  0  0  0  0  0  0
   39.5550   16.4580   31.9240 N   0  0  0  0  0  0  0  0  0  0  0  0
   40.1880   16.8890   30.7190 C   0  0  0  0  0  0  0  0  0  0  0  0
   41.1620   17.9860   31.0830 C   0  0  0  0  0  0  0  0  0  0  0  0
   41.6190   17.8470   32.5330 C   0  0  0  0  0  0  0  0  0  0  0  0
   41.6680   16.4130   32.9820 C   0  0  0  0  0  0  0  0  0  0  0  0
   40.2260   15.9070   33.0590 C   0  0  0  0  0  0  0  0  0  0  0  0
   38.6658   23.2389   32.8134 H   0  0  0  0  0  0  0  0  0  0  0  0
   38.4232   20.7889   32.3085 H   0  0  0  0  0  0  0  0  0  0  0  0
   35.3566   25.4902   30.4110 H   0  0  0  0  0  0  0  0  0  0  0  0
   35.3184   28.0037   30.9259 H   0  0  0  0  0  0  0  0  0  0  0  0
   37.7800   27.3521   34.3401 H   0  0  0  0  0  0  0  0  0  0  0  0
   34.2962   16.3692   32.4547 H   0  0  0  0  0  0  0  0  0  0  0  0
   39.4345   17.2741   30.0162 H   0  0  0  0  0  0  0  0  0  0  0  0
   40.7120   16.0510   30.2362 H   0  0  0  0  0  0  0  0  0  0  0  0
   42.0385   17.9241   30.4213 H   0  0  0  0  0  0  0  0  0  0  0  0
   40.6595   18.9572   30.9636 H   0  0  0  0  0  0  0  0  0  0  0  0
   42.6245   18.2824   32.6301 H   0  0  0  0  0  0  0  0  0  0  0  0
   40.8900   18.3729   33.1670 H   0  0  0  0  0  0  0  0  0  0  0  0
   42.2390   15.8121   32.2589 H   0  0  0  0  0  0  0  0  0  0  0  0
   42.1612   16.3299   33.9617 H   0  0  0  0  0  0  0  0  0  0  0  0
   39.7494   16.2505   33.9890 H   0  0  0  0  0  0  0  0  0  0  0  0
   40.1837   14.8078   33.0581 H   0  0  0  0  0  0  0  0  0  0  0  0
  1  6  1  0
  1  2  2  0
  3  2  1  0
  4  3  2  0
  5  4  1  0
  5  1  1  0
  6 11  2  0
  7  8  2  0
  7  6  1  0
  8  9  1  0
  9 10  2  0
 11 10  1  0
 12  4  1  0
 12 14  1  0
 13 12  2  0
 14 15  1  0
 15 16  2  0
 16 17  1  0
 18 17  1  0
 19 18  2  0
 19 15  1  0
 20 18  1  0
 20 25  1  0
 21 22  1  0
 21 20  1  0
 22 23  1  0
 23 24  1  0
 24 25  1  0
  2 26  1  0
  3 27  1  0
  7 28  1  0
  8 29  1  0
 10 30  1  0
 16 31  1  0
 21 32  1  0
 21 33  1  0
 22 34  1  0
 22 35  1  0
 23 36  1  0
 23 37  1  0
 24 38  1  0
 24 39  1  0
 25 40  1  0
 25 41  1  0
M  ISO  8  26  14  27  14  28  14  29  14  30  14  31  14  32  13  33  13
M  ISO  8  34  13  35  13  36  13  37  13  38  13  39  13  40  13  41  13
M  END
>  <minimizedAffinity>  (1) 
-4.1319356

>  <minimizedRMSD>  (1) 
0.118242189

$$$$
