
     RDKit          3D

 39 42  0  0  0  0  0  0  0  0999 V2000
   36.7450   23.5980   31.9650 C   0  0  0  0  0  0  0  0  0  0  0  0
   37.7710   22.7740   32.3100 C   0  0  0  0  0  0  0  0  0  0  0  0
   37.6310   21.4420   32.0170 C   0  0  0  0  0  0  0  0  0  0  0  0
   36.5130   21.0270   31.4170 C   0  0  0  0  0  0  0  0  0  0  0  0
   35.5120   22.5820   31.2070 S   0  0  0  0  0  0  0  0  0  0  0  0
   36.6340   25.0610   32.1590 C   0  0  0  0  0  0  0  0  0  0  0  0
   35.8720   25.8570   31.2800 C   0  0  0  0  0  0  0  0  0  0  0  0
   35.8550   27.2350   31.5880 C   0  0  0  0  0  0  0  0  0  0  0  0
   36.5520   27.6820   32.6730 N   0  0  0  0  0  0  0  0  0  0  0  0
   37.2580   26.8680   33.4680 C   0  0  0  0  0  0  0  0  0  0  0  0
   37.2870   25.5510   33.1950 N   0  0  0  0  0  0  0  0  0  0  0  0
   36.0990   19.6920   30.9940 C   0  0  0  0  0  0  0  0  0  0  0  0
   36.3000   19.3250   29.8120 O   0  0  0  0  0  0  0  0  0  0  0  0
   35.4920   18.8890   31.9460 O   0  0  0  0  0  0  0  0  0  0  0  0
   36.0900   17.6060   32.0860 C   0  0  0  0  0  0  0  0  0  0  0  0
   35.3800   16.4470   32.2560 C   0  0  0  0  0  0  0  0  0  0  0  0
   36.7310   15.2000   32.3670 S   0  0  0  0  0  0  0  0  0  0  0  0
   38.0480   16.5550   32.1530 C   0  0  0  0  0  0  0  0  0  0  0  0
   37.4160   17.5580   32.0480 N   0  0  0  0  0  0  0  0  0  0  0  0
   39.4620   16.2630   32.1420 N   0  0  0  0  0  0  0  0  0  0  0  0
   40.4280   17.0500   31.3970 C   0  0  0  0  0  0  0  0  0  0  0  0
   41.3910   17.6020   32.4540 C   0  0  0  0  0  0  0  0  0  0  0  0
   41.9890   16.5230   33.0940 O   0  0  0  0  0  0  0  0  0  0  0  0
   41.0770   15.7680   33.7960 C   0  0  0  0  0  0  0  0  0  0  0  0
   40.0090   15.1520   32.8830 C   0  0  0  0  0  0  0  0  0  0  0  0
   38.6751   23.1603   32.8034 H   0  0  0  0  0  0  0  0  0  0  0  0
   38.4269   20.7269   32.2722 H   0  0  0  0  0  0  0  0  0  0  0  0
   35.3314   25.4365   30.4192 H   0  0  0  0  0  0  0  0  0  0  0  0
   35.2874   27.9390   30.9617 H   0  0  0  0  0  0  0  0  0  0  0  0
   37.8066   27.2706   34.3323 H   0  0  0  0  0  0  0  0  0  0  0  0
   34.2913   16.2999   32.3115 H   0  0  0  0  0  0  0  0  0  0  0  0
   40.9669   16.4184   30.6755 H   0  0  0  0  0  0  0  0  0  0  0  0
   39.9478   17.8519   30.8171 H   0  0  0  0  0  0  0  0  0  0  0  0
   42.1600   18.2227   31.9709 H   0  0  0  0  0  0  0  0  0  0  0  0
   40.8466   18.2237   33.1800 H   0  0  0  0  0  0  0  0  0  0  0  0
   41.6114   14.9573   34.3129 H   0  0  0  0  0  0  0  0  0  0  0  0
   40.5682   16.4317   34.5106 H   0  0  0  0  0  0  0  0  0  0  0  0
   39.2255   14.6630   33.4805 H   0  0  0  0  0  0  0  0  0  0  0  0
   40.4283   14.3808   32.2201 H   0  0  0  0  0  0  0  0  0  0  0  0
  1  6  1  0
  1  2  2  0
  3  2  1  0
  4  3  2  0
  5  4  1  0
  5  1  1  0
  6 11  2  0
  7  8  2  0
  7  6  1  0
  8  9  1  0
  9 10  2  0
 11 10  1  0
 12  4  1  0
 12 14  1  0
 13 12  2  0
 14 15  1  0
 15 16  2  0
 16 17  1  0
 18 17  1  0
 19 15  1  0
 19 18  2  0
 20 18  1  0
 20 25  1  0
 21 20  1  0
 21 22  1  0
 22 23  1  0
 23 24  1  0
 25 24  1  0
  2 26  1  0
  3 27  1  0
  7 28  1  0
  8 29  1  0
 10 30  1  0
 16 31  1  0
 21 32  1  0
 21 33  1  0
 22 34  1  0
 22 35  1  0
 24 36  1  0
 24 37  1  0
 25 38  1  0
 25 39  1  0
M  ISO  8  26  14  27  14  28  14  29  14  30  14  31  14  32  13  33  13
M  ISO  6  34  13  35  13  36  13  37  13  38  13  39  13
M  END
>  <minimizedAffinity>  (1) 
-4.10956717

>  <minimizedRMSD>  (1) 
0.138450086

$$$$
