
     RDKit          3D

 33 36  0  0  0  0  0  0  0  0999 V2000
   36.7900   23.3630   31.4920 C   0  0  0  0  0  0  0  0  0  0  0  0
   37.8950   22.7410   31.0010 C   0  0  0  0  0  0  0  0  0  0  0  0
   37.7900   21.4170   30.6880 C   0  0  0  0  0  0  0  0  0  0  0  0
   36.6210   20.7970   30.8750 C   0  0  0  0  0  0  0  0  0  0  0  0
   35.5230   22.1350   31.5510 S   0  0  0  0  0  0  0  0  0  0  0  0
   36.6450   24.7770   31.8960 C   0  0  0  0  0  0  0  0  0  0  0  0
   35.8300   25.6560   31.1290 C   0  0  0  0  0  0  0  0  0  0  0  0
   35.7610   26.9760   31.5980 C   0  0  0  0  0  0  0  0  0  0  0  0
   36.4650   27.3080   32.7220 N   0  0  0  0  0  0  0  0  0  0  0  0
   37.2190   26.4220   33.4010 C   0  0  0  0  0  0  0  0  0  0  0  0
   37.3050   25.1480   32.9770 N   0  0  0  0  0  0  0  0  0  0  0  0
   36.2300   19.4100   30.6370 C   0  0  0  0  0  0  0  0  0  0  0  0
   36.3950   18.8990   29.5060 O   0  0  0  0  0  0  0  0  0  0  0  0
   35.6760   18.7260   31.7350 O   0  0  0  0  0  0  0  0  0  0  0  0
   36.2670   17.4540   31.9580 C   0  0  0  0  0  0  0  0  0  0  0  0
   35.5500   16.2990   32.1130 C   0  0  0  0  0  0  0  0  0  0  0  0
   36.9070   15.0660   32.3570 S   0  0  0  0  0  0  0  0  0  0  0  0
   38.2230   16.4150   32.1940 C   0  0  0  0  0  0  0  0  0  0  0  0
   37.5910   17.4110   32.0140 N   0  0  0  0  0  0  0  0  0  0  0  0
   39.6180   16.0600   32.3020 C   0  0  0  0  0  0  0  0  0  0  0  0
   40.3470   15.6310   33.3470 C   0  0  0  0  0  0  0  0  0  0  0  0
   41.6700   15.3550   33.2070 C   0  0  0  0  0  0  0  0  0  0  0  0
   42.1890   15.5620   31.8680 C   0  0  0  0  0  0  0  0  0  0  0  0
   40.6260   16.1520   30.9660 S   0  0  0  0  0  0  0  0  0  0  0  0
   38.8402   23.2859   30.8611 H   0  0  0  0  0  0  0  0  0  0  0  0
   38.6550   20.8680   30.2876 H   0  0  0  0  0  0  0  0  0  0  0  0
   35.2910   25.3230   30.2298 H   0  0  0  0  0  0  0  0  0  0  0  0
   35.1536   27.7279   31.0729 H   0  0  0  0  0  0  0  0  0  0  0  0
   37.7643   26.7400   34.3019 H   0  0  0  0  0  0  0  0  0  0  0  0
   34.4609   16.1453   32.0969 H   0  0  0  0  0  0  0  0  0  0  0  0
   39.8662   15.5018   34.3279 H   0  0  0  0  0  0  0  0  0  0  0  0
   42.2961   15.0035   34.0403 H   0  0  0  0  0  0  0  0  0  0  0  0
   43.2086   15.4169   31.4814 H   0  0  0  0  0  0  0  0  0  0  0  0
  1  5  1  0
  1  6  1  0
  2  1  2  0
  3  4  2  0
  3  2  1  0
  4  5  1  0
  6 11  2  0
  7  8  2  0
  7  6  1  0
  8  9  1  0
  9 10  2  0
 11 10  1  0
 12  4  1  0
 12 14  1  0
 13 12  2  0
 14 15  1  0
 15 19  1  0
 15 16  2  0
 16 17  1  0
 18 20  1  0
 18 17  1  0
 19 18  2  0
 20 21  2  0
 22 21  1  0
 23 22  2  0
 24 23  1  0
 24 20  1  0
  2 25  1  0
  3 26  1  0
  7 27  1  0
  8 28  1  0
 10 29  1  0
 16 30  1  0
 21 31  1  0
 22 32  1  0
 23 33  1  0
M  ISO  8  25  14  26  14  27  14  28  14  29  14  30  14  31  14  32  14
M  ISO  1  33  14
M  END
>  <minimizedAffinity>  (1) 
-3.96552181

>  <minimizedRMSD>  (1) 
0.648418188

$$$$
