
     RDKit          3D

 33 36  0  0  0  0  0  0  0  0999 V2000
   36.7990   23.3870   31.4640 C   0  0  0  0  0  0  0  0  0  0  0  0
   37.9220   22.7610   31.0170 C   0  0  0  0  0  0  0  0  0  0  0  0
   37.8280   21.4320   30.7020 C   0  0  0  0  0  0  0  0  0  0  0  0
   36.6490   20.8230   30.8470 C   0  0  0  0  0  0  0  0  0  0  0  0
   35.5370   22.1650   31.4740 S   0  0  0  0  0  0  0  0  0  0  0  0
   36.6370   24.8010   31.8640 C   0  0  0  0  0  0  0  0  0  0  0  0
   35.8250   25.6730   31.1120 C   0  0  0  0  0  0  0  0  0  0  0  0
   35.7530   26.9980   31.5970 C   0  0  0  0  0  0  0  0  0  0  0  0
   36.4550   27.3200   32.7240 N   0  0  0  0  0  0  0  0  0  0  0  0
   37.2080   26.4390   33.3880 C   0  0  0  0  0  0  0  0  0  0  0  0
   37.2940   25.1690   32.9470 N   0  0  0  0  0  0  0  0  0  0  0  0
   36.2550   19.4390   30.5980 C   0  0  0  0  0  0  0  0  0  0  0  0
   36.4050   18.9360   29.4600 O   0  0  0  0  0  0  0  0  0  0  0  0
   35.7150   18.7360   31.6910 O   0  0  0  0  0  0  0  0  0  0  0  0
   36.3530   17.5000   31.9440 C   0  0  0  0  0  0  0  0  0  0  0  0
   35.6970   16.3240   32.1600 C   0  0  0  0  0  0  0  0  0  0  0  0
   37.0970   15.1480   32.4160 S   0  0  0  0  0  0  0  0  0  0  0  0
   38.3440   16.5530   32.1680 C   0  0  0  0  0  0  0  0  0  0  0  0
   37.6790   17.5120   31.9690 N   0  0  0  0  0  0  0  0  0  0  0  0
   39.7870   16.1620   32.2750 C   0  0  0  0  0  0  0  0  0  0  0  0
   40.5110   15.7220   33.3270 C   0  0  0  0  0  0  0  0  0  0  0  0
   41.7600   15.5310   32.8150 N   0  0  0  0  0  0  0  0  0  0  0  0
   41.7360   15.8560   31.5040 C   0  0  0  0  0  0  0  0  0  0  0  0
   40.4870   16.2630   31.1340 N   0  0  0  0  0  0  0  0  0  0  0  0
   38.8727   23.3044   30.9124 H   0  0  0  0  0  0  0  0  0  0  0  0
   38.7054   20.8778   30.3372 H   0  0  0  0  0  0  0  0  0  0  0  0
   35.2854   25.3454   30.2112 H   0  0  0  0  0  0  0  0  0  0  0  0
   35.1450   27.7539   31.0785 H   0  0  0  0  0  0  0  0  0  0  0  0
   37.7552   26.7489   34.2905 H   0  0  0  0  0  0  0  0  0  0  0  0
   34.6149   16.1273   32.1772 H   0  0  0  0  0  0  0  0  0  0  0  0
   40.1709   15.5559   34.3598 H   0  0  0  0  0  0  0  0  0  0  0  0
   42.6025   15.8003   30.8287 H   0  0  0  0  0  0  0  0  0  0  0  0
   40.1614   16.5718   30.2069 H   0  0  0  0  0  0  0  0  0  0  0  0
  1  5  1  0
  1  6  1  0
  2  1  2  0
  3  4  2  0
  3  2  1  0
  4  5  1  0
  6 11  2  0
  7  8  2  0
  7  6  1  0
  8  9  1  0
  9 10  2  0
 11 10  1  0
 12  4  1  0
 12 14  1  0
 13 12  2  0
 14 15  1  0
 15 19  1  0
 15 16  2  0
 16 17  1  0
 18 20  1  0
 18 17  1  0
 19 18  2  0
 20 21  2  0
 22 21  1  0
 23 22  2  0
 24 23  1  0
 24 20  1  0
  2 25  1  0
  3 26  1  0
  7 27  1  0
  8 28  1  0
 10 29  1  0
 16 30  1  0
 21 31  1  0
 23 32  1  0
 24 33  1  0
M  ISO  8  25  14  26  14  27  14  28  14  29  14  30  14  31  14  32  14
M  ISO  1  33   9
M  END
>  <minimizedAffinity>  (1) 
-3.90496826

>  <minimizedRMSD>  (1) 
0.590770423

$$$$
