
     RDKit          3D

 29 31  0  0  0  0  0  0  0  0999 V2000
   37.0160   21.1380   33.1560 C   0  0  0  0  0  0  0  0  0  0  0  0
   38.1540   20.8460   32.3510 C   0  0  0  0  0  0  0  0  0  0  0  0
   39.4070   21.1590   32.8680 C   0  0  0  0  0  0  0  0  0  0  0  0
   39.4730   21.7220   34.1110 N   0  0  0  0  0  0  0  0  0  0  0  0
   38.3840   21.9820   34.8410 C   0  0  0  0  0  0  0  0  0  0  0  0
   37.1500   21.6990   34.3840 N   0  0  0  0  0  0  0  0  0  0  0  0
   37.8850   20.2680   31.1040 N   0  0  0  0  0  0  0  0  0  0  0  0
   37.0560   19.2080   31.0850 C   0  0  0  0  0  0  0  0  0  0  0  0
   36.7900   18.6350   29.8570 C   0  0  0  0  0  0  0  0  0  0  0  0
   37.3700   19.1620   28.7460 C   0  0  0  0  0  0  0  0  0  0  0  0
   37.1090   18.5930   27.4890 N   0  0  0  0  0  0  0  0  0  0  0  0
   38.1880   20.2180   28.8110 N   0  0  0  0  0  0  0  0  0  0  0  0
   38.4640   20.7970   30.0100 C   0  0  0  0  0  0  0  0  0  0  0  0
   39.2390   21.7890   30.0330 O   0  0  0  0  0  0  0  0  0  0  0  0
   38.5240   22.5870   36.1610 C   0  0  0  0  0  0  0  0  0  0  0  0
   39.7000   22.4800   36.8740 C   0  0  0  0  0  0  0  0  0  0  0  0
   39.8840   23.0350   38.1310 C   0  0  0  0  0  0  0  0  0  0  0  0
   38.8110   23.7100   38.6390 N   0  0  0  0  0  0  0  0  0  0  0  0
   37.6570   23.8240   37.9600 C   0  0  0  0  0  0  0  0  0  0  0  0
   37.5070   23.2660   36.7240 N   0  0  0  0  0  0  0  0  0  0  0  0
   36.0107   20.9046   32.7754 H   0  0  0  0  0  0  0  0  0  0  0  0
   40.3215   20.9583   32.2906 H   0  0  0  0  0  0  0  0  0  0  0  0
   36.6087   18.8142   32.0096 H   0  0  0  0  0  0  0  0  0  0  0  0
   36.1197   17.7663   29.7790 H   0  0  0  0  0  0  0  0  0  0  0  0
   36.4825   17.7791   27.4122 H   0  0  0  0  0  0  0  0  0  0  0  0
   37.5441   18.9896   26.6438 H   0  0  0  0  0  0  0  0  0  0  0  0
   40.5353   21.9254   36.4216 H   0  0  0  0  0  0  0  0  0  0  0  0
   40.8309   22.9382   38.6823 H   0  0  0  0  0  0  0  0  0  0  0  0
   36.8185   24.3769   38.4086 H   0  0  0  0  0  0  0  0  0  0  0  0
  1  6  2  0
  2  3  2  0
  2  1  1  0
  3  4  1  0
  4  5  2  0
  5 15  1  0
  6  5  1  0
  7  2  1  0
  8  7  1  0
  9  8  2  0
 10 12  2  0
 10  9  1  0
 11 10  1  0
 12 13  1  0
 13 14  2  0
 13  7  1  0
 15 20  1  0
 15 16  2  0
 16 17  1  0
 17 18  2  0
 19 18  1  0
 20 19  2  0
  1 21  1  0
  3 22  1  0
  8 23  1  0
  9 24  1  0
 11 25  1  0
 11 26  1  0
 16 27  1  0
 17 28  1  0
 19 29  1  0
M  ISO  7  21  14  22  14  23  14  24  14  27  14  28  14  29  14
M  END
>  <minimizedAffinity>  (1) 
-4.03633308

>  <minimizedRMSD>  (1) 
4.27052879

$$$$
