
     RDKit          3D

 45 48  0  0  0  0  0  0  0  0999 V2000
   36.2300   19.4050   30.6660 C   0  0  0  0  0  0  0  0  0  0  0  0
   36.3850   18.8960   29.5200 O   0  0  0  0  0  0  0  0  0  0  0  0
   36.7950   23.3570   31.4560 C   0  0  0  0  0  0  0  0  0  0  0  0
   37.9060   22.7440   30.9820 C   0  0  0  0  0  0  0  0  0  0  0  0
   37.8070   21.4110   30.6880 C   0  0  0  0  0  0  0  0  0  0  0  0
   36.6430   20.8000   30.8820 C   0  0  0  0  0  0  0  0  0  0  0  0
   35.5150   22.1330   31.5350 S   0  0  0  0  0  0  0  0  0  0  0  0
   36.6270   24.7820   31.8480 C   0  0  0  0  0  0  0  0  0  0  0  0
   35.8170   25.6460   31.1030 C   0  0  0  0  0  0  0  0  0  0  0  0
   35.7520   26.9740   31.5970 C   0  0  0  0  0  0  0  0  0  0  0  0
   36.4600   27.3060   32.7240 N   0  0  0  0  0  0  0  0  0  0  0  0
   37.2120   26.4290   33.3820 C   0  0  0  0  0  0  0  0  0  0  0  0
   37.2830   25.1670   32.9270 N   0  0  0  0  0  0  0  0  0  0  0  0
   35.6870   18.7200   31.7530 O   0  0  0  0  0  0  0  0  0  0  0  0
   36.2810   17.4580   31.9820 C   0  0  0  0  0  0  0  0  0  0  0  0
   35.5900   16.3060   32.1850 C   0  0  0  0  0  0  0  0  0  0  0  0
   36.9420   15.0840   32.4110 S   0  0  0  0  0  0  0  0  0  0  0  0
   38.2480   16.4420   32.1730 C   0  0  0  0  0  0  0  0  0  0  0  0
   37.5990   17.4190   31.9960 N   0  0  0  0  0  0  0  0  0  0  0  0
   39.6590   16.0080   32.2590 C   0  0  0  0  0  0  0  0  0  0  0  0
   40.4180   15.6710   33.3620 C   0  0  0  0  0  0  0  0  0  0  0  0
   41.6700   15.3430   32.8490 C   0  0  0  0  0  0  0  0  0  0  0  0
   41.5360   15.5180   31.4660 C   0  0  0  0  0  0  0  0  0  0  0  0
   40.3270   15.9130   31.1610 O   0  0  0  0  0  0  0  0  0  0  0  0
   42.6440   15.2780   30.4910 C   0  0  0  0  0  0  0  0  0  0  0  0
   42.8040   13.8070   30.2350 C   0  0  0  0  0  0  0  0  0  0  0  0
   43.9330   15.8280   31.0370 C   0  0  0  0  0  0  0  0  0  0  0  0
   42.2920   15.9290   29.1560 C   0  0  0  0  0  0  0  0  0  0  0  0
   38.8478   23.2942   30.8394 H   0  0  0  0  0  0  0  0  0  0  0  0
   38.6737   20.8565   30.2989 H   0  0  0  0  0  0  0  0  0  0  0  0
   35.2729   25.3207   30.2041 H   0  0  0  0  0  0  0  0  0  0  0  0
   35.1405   27.7295   31.0819 H   0  0  0  0  0  0  0  0  0  0  0  0
   37.7661   26.7313   34.2829 H   0  0  0  0  0  0  0  0  0  0  0  0
   34.5019   16.1465   32.2080 H   0  0  0  0  0  0  0  0  0  0  0  0
   40.1025   15.6633   34.4157 H   0  0  0  0  0  0  0  0  0  0  0  0
   42.5627   15.0195   33.4044 H   0  0  0  0  0  0  0  0  0  0  0  0
   42.8622   13.2721   31.1944 H   0  0  0  0  0  0  0  0  0  0  0  0
   41.9406   13.4386   29.6615 H   0  0  0  0  0  0  0  0  0  0  0  0
   43.7264   13.6328   29.6615 H   0  0  0  0  0  0  0  0  0  0  0  0
   43.9010   15.8143   32.1364 H   0  0  0  0  0  0  0  0  0  0  0  0
   44.7729   15.2099   30.6869 H   0  0  0  0  0  0  0  0  0  0  0  0
   44.0679   16.8620   30.6869 H   0  0  0  0  0  0  0  0  0  0  0  0
   41.7760   16.8833   29.3381 H   0  0  0  0  0  0  0  0  0  0  0  0
   43.2132   16.1136   28.5839 H   0  0  0  0  0  0  0  0  0  0  0  0
   41.6331   15.2593   28.5839 H   0  0  0  0  0  0  0  0  0  0  0  0
  1  6  1  0
  1 14  1  0
  2  1  2  0
  3  7  1  0
  3  8  1  0
  4  3  2  0
  5  6  2  0
  5  4  1  0
  6  7  1  0
  8 13  2  0
  9 10  2  0
  9  8  1  0
 10 11  1  0
 11 12  2  0
 13 12  1  0
 14 15  1  0
 15 19  1  0
 15 16  2  0
 16 17  1  0
 18 20  1  0
 18 17  1  0
 19 18  2  0
 20 21  2  0
 22 21  1  0
 23 22  2  0
 24 23  1  0
 24 20  1  0
 25 27  1  0
 25 23  1  0
 26 25  1  0
 28 25  1  0
  4 29  1  0
  5 30  1  0
  9 31  1  0
 10 32  1  0
 12 33  1  0
 16 34  1  0
 21 35  1  0
 22 36  1  0
 26 37  1  0
 26 38  1  0
 26 39  1  0
 27 40  1  0
 27 41  1  0
 27 42  1  0
 28 43  1  0
 28 44  1  0
 28 45  1  0
M  ISO  8  29  14  30  14  31  14  32  14  33  14  34  14  35  14  36  14
M  ISO  8  37   8  38   8  39   8  40   8  41   8  42   8  43   8  44   8
M  ISO  1  45   8
M  END
>  <minimizedAffinity>  (1) 
-3.82464242

>  <minimizedRMSD>  (1) 
0.262792856

$$$$
