
     RDKit          3D

 27 29  0  0  0  0  0  0  0  0999 V2000
   36.7510   21.0500   33.7460 C   0  0  0  0  0  0  0  0  0  0  0  0
   37.7920   20.8020   32.8130 C   0  0  0  0  0  0  0  0  0  0  0  0
   39.0530   21.2770   33.1310 C   0  0  0  0  0  0  0  0  0  0  0  0
   39.2380   21.9450   34.2950 N   0  0  0  0  0  0  0  0  0  0  0  0
   38.2350   22.1630   35.1580 C   0  0  0  0  0  0  0  0  0  0  0  0
   36.9900   21.7220   34.8950 N   0  0  0  0  0  0  0  0  0  0  0  0
   37.4330   20.0980   31.6570 N   0  0  0  0  0  0  0  0  0  0  0  0
   36.9440   18.8510   31.8370 C   0  0  0  0  0  0  0  0  0  0  0  0
   36.5800   18.1310   30.7130 C   0  0  0  0  0  0  0  0  0  0  0  0
   36.7370   18.7230   29.5000 C   0  0  0  0  0  0  0  0  0  0  0  0
   36.3850   18.0380   28.3180 N   0  0  0  0  0  0  0  0  0  0  0  0
   37.2320   19.9760   29.3620 N   0  0  0  0  0  0  0  0  0  0  0  0
   37.5850   20.6740   30.4610 C   0  0  0  0  0  0  0  0  0  0  0  0
   38.0400   21.8360   30.2970 O   0  0  0  0  0  0  0  0  0  0  0  0
   38.3550   22.8700   36.4270 C   0  0  0  0  0  0  0  0  0  0  0  0
   37.3890   23.7700   36.8940 C   0  0  0  0  0  0  0  0  0  0  0  0
   38.1270   24.3240   38.5450 S   0  0  0  0  0  0  0  0  0  0  0  0
   39.6180   23.1880   38.2320 C   0  0  0  0  0  0  0  0  0  0  0  0
   39.3930   22.7130   37.2340 N   0  0  0  0  0  0  0  0  0  0  0  0
   35.7341   20.6899   33.5309 H   0  0  0  0  0  0  0  0  0  0  0  0
   39.8970   21.1135   32.4448 H   0  0  0  0  0  0  0  0  0  0  0  0
   36.8388   18.4223   32.8446 H   0  0  0  0  0  0  0  0  0  0  0  0
   36.1762   17.1114   30.7986 H   0  0  0  0  0  0  0  0  0  0  0  0
   36.5072   18.4941   27.4026 H   0  0  0  0  0  0  0  0  0  0  0  0
   36.0058   17.0818   28.3704 H   0  0  0  0  0  0  0  0  0  0  0  0
   36.4438   24.0761   36.4219 H   0  0  0  0  0  0  0  0  0  0  0  0
   40.4965   23.0303   38.8749 H   0  0  0  0  0  0  0  0  0  0  0  0
  1  6  2  0
  2  3  2  0
  2  1  1  0
  3  4  1  0
  4  5  2  0
  5 15  1  0
  6  5  1  0
  7  8  1  0
  7  2  1  0
  9  8  2  0
 10  9  1  0
 11 10  1  0
 12 10  2  0
 12 13  1  0
 13  7  1  0
 14 13  2  0
 15 16  2  0
 15 19  1  0
 16 17  1  0
 18 17  1  0
 19 18  2  0
  1 20  1  0
  3 21  1  0
  8 22  1  0
  9 23  1  0
 11 24  1  0
 11 25  1  0
 16 26  1  0
 18 27  1  0
M  ISO  6  20  14  21  14  22  14  23  14  26  14  27  14
M  END
>  <minimizedAffinity>  (1) 
-3.96760869

>  <minimizedRMSD>  (1) 
3.87712526

$$$$
