
     RDKit          3D

 35 38  0  0  0  0  0  0  0  0999 V2000
   36.2310   19.4060   30.6630 C   0  0  0  0  0  0  0  0  0  0  0  0
   36.3820   18.8940   29.5230 O   0  0  0  0  0  0  0  0  0  0  0  0
   36.7960   23.3550   31.4660 C   0  0  0  0  0  0  0  0  0  0  0  0
   37.9050   22.7470   30.9840 C   0  0  0  0  0  0  0  0  0  0  0  0
   37.8030   21.4100   30.6850 C   0  0  0  0  0  0  0  0  0  0  0  0
   36.6390   20.8010   30.8840 C   0  0  0  0  0  0  0  0  0  0  0  0
   35.5190   22.1320   31.5480 S   0  0  0  0  0  0  0  0  0  0  0  0
   36.6350   24.7810   31.8650 C   0  0  0  0  0  0  0  0  0  0  0  0
   35.8280   25.6440   31.1150 C   0  0  0  0  0  0  0  0  0  0  0  0
   35.7560   26.9730   31.5960 C   0  0  0  0  0  0  0  0  0  0  0  0
   36.4650   27.3040   32.7290 N   0  0  0  0  0  0  0  0  0  0  0  0
   37.2130   26.4270   33.3900 C   0  0  0  0  0  0  0  0  0  0  0  0
   37.2880   25.1630   32.9440 N   0  0  0  0  0  0  0  0  0  0  0  0
   35.6880   18.7190   31.7510 O   0  0  0  0  0  0  0  0  0  0  0  0
   36.2790   17.4580   31.9820 C   0  0  0  0  0  0  0  0  0  0  0  0
   35.5870   16.3080   32.1870 C   0  0  0  0  0  0  0  0  0  0  0  0
   36.9360   15.0810   32.4150 S   0  0  0  0  0  0  0  0  0  0  0  0
   38.2450   16.4350   32.1760 C   0  0  0  0  0  0  0  0  0  0  0  0
   37.5940   17.4150   31.9950 N   0  0  0  0  0  0  0  0  0  0  0  0
   39.6540   16.0010   32.2610 C   0  0  0  0  0  0  0  0  0  0  0  0
   40.4170   15.6750   33.3580 C   0  0  0  0  0  0  0  0  0  0  0  0
   41.6680   15.3400   32.8410 C   0  0  0  0  0  0  0  0  0  0  0  0
   41.5290   15.5010   31.4660 C   0  0  0  0  0  0  0  0  0  0  0  0
   40.3220   15.8930   31.1680 O   0  0  0  0  0  0  0  0  0  0  0  0
   42.6490   15.2330   30.6320 N   0  0  0  0  0  0  0  0  0  0  0  0
   38.8455   23.2985   30.8382 H   0  0  0  0  0  0  0  0  0  0  0  0
   38.6666   20.8555   30.2893 H   0  0  0  0  0  0  0  0  0  0  0  0
   35.2881   25.3129   30.2156 H   0  0  0  0  0  0  0  0  0  0  0  0
   35.1462   27.7261   31.0754 H   0  0  0  0  0  0  0  0  0  0  0  0
   37.7640   26.7329   34.2916 H   0  0  0  0  0  0  0  0  0  0  0  0
   34.4985   16.1510   32.2106 H   0  0  0  0  0  0  0  0  0  0  0  0
   40.1076   15.6779   34.4136 H   0  0  0  0  0  0  0  0  0  0  0  0
   42.5629   15.0205   33.3952 H   0  0  0  0  0  0  0  0  0  0  0  0
   42.5696   15.3453   29.6112 H   0  0  0  0  0  0  0  0  0  0  0  0
   43.5397   14.9266   31.0486 H   0  0  0  0  0  0  0  0  0  0  0  0
  1  6  1  0
  1 14  1  0
  2  1  2  0
  3  7  1  0
  3  8  1  0
  4  3  2  0
  5  6  2  0
  5  4  1  0
  6  7  1  0
  8 13  2  0
  9 10  2  0
  9  8  1  0
 10 11  1  0
 11 12  2  0
 13 12  1  0
 14 15  1  0
 15 19  1  0
 15 16  2  0
 16 17  1  0
 18 20  1  0
 18 17  1  0
 19 18  2  0
 20 21  2  0
 22 21  1  0
 23 22  2  0
 24 23  1  0
 24 20  1  0
 25 23  1  0
  4 26  1  0
  5 27  1  0
  9 28  1  0
 10 29  1  0
 12 30  1  0
 16 31  1  0
 21 32  1  0
 22 33  1  0
 25 34  1  0
 25 35  1  0
M  ISO  8  26  14  27  14  28  14  29  14  30  14  31  14  32  14  33  14
M  END
>  <minimizedAffinity>  (1) 
-3.97906303

>  <minimizedRMSD>  (1) 
0.260493159

$$$$
