
     RDKit          3D

 36 39  0  0  0  0  0  0  0  0999 V2000
   36.2260   19.3990   30.6570 C   0  0  0  0  0  0  0  0  0  0  0  0
   36.3850   18.8910   29.5300 O   0  0  0  0  0  0  0  0  0  0  0  0
   36.7800   23.3520   31.4770 C   0  0  0  0  0  0  0  0  0  0  0  0
   37.8940   22.7370   30.9890 C   0  0  0  0  0  0  0  0  0  0  0  0
   37.7890   21.4120   30.6900 C   0  0  0  0  0  0  0  0  0  0  0  0
   36.6280   20.7950   30.8840 C   0  0  0  0  0  0  0  0  0  0  0  0
   35.5100   22.1290   31.5520 S   0  0  0  0  0  0  0  0  0  0  0  0
   36.6300   24.7770   31.8760 C   0  0  0  0  0  0  0  0  0  0  0  0
   35.8220   25.6430   31.1200 C   0  0  0  0  0  0  0  0  0  0  0  0
   35.7630   26.9780   31.6040 C   0  0  0  0  0  0  0  0  0  0  0  0
   36.4690   27.3020   32.7250 N   0  0  0  0  0  0  0  0  0  0  0  0
   37.2170   26.4190   33.3900 C   0  0  0  0  0  0  0  0  0  0  0  0
   37.2760   25.1620   32.9380 N   0  0  0  0  0  0  0  0  0  0  0  0
   35.6800   18.7170   31.7460 O   0  0  0  0  0  0  0  0  0  0  0  0
   36.2810   17.4540   31.9810 C   0  0  0  0  0  0  0  0  0  0  0  0
   35.5810   16.3020   32.1810 C   0  0  0  0  0  0  0  0  0  0  0  0
   36.9260   15.0770   32.4160 S   0  0  0  0  0  0  0  0  0  0  0  0
   38.2440   16.4310   32.1840 C   0  0  0  0  0  0  0  0  0  0  0  0
   37.5970   17.4110   32.0010 N   0  0  0  0  0  0  0  0  0  0  0  0
   39.6390   15.9920   32.2780 C   0  0  0  0  0  0  0  0  0  0  0  0
   40.4090   15.6630   33.3700 C   0  0  0  0  0  0  0  0  0  0  0  0
   41.6610   15.3180   32.8410 C   0  0  0  0  0  0  0  0  0  0  0  0
   41.5090   15.4810   31.4490 C   0  0  0  0  0  0  0  0  0  0  0  0
   40.3040   15.8770   31.1620 O   0  0  0  0  0  0  0  0  0  0  0  0
   42.6040   15.2240   30.4560 C   0  0  0  0  0  0  0  0  0  0  0  0
   42.8790   13.8700   30.4990 F   0  0  0  0  0  0  0  0  0  0  0  0
   42.2370   15.5410   29.1840 F   0  0  0  0  0  0  0  0  0  0  0  0
   43.7550   15.8900   30.7790 F   0  0  0  0  0  0  0  0  0  0  0  0
   38.8360   23.2860   30.8430 H   0  0  0  0  0  0  0  0  0  0  0  0
   38.6538   20.8601   30.2932 H   0  0  0  0  0  0  0  0  0  0  0  0
   35.2773   25.3132   30.2230 H   0  0  0  0  0  0  0  0  0  0  0  0
   35.1589   27.7361   31.0840 H   0  0  0  0  0  0  0  0  0  0  0  0
   37.7730   26.7189   34.2905 H   0  0  0  0  0  0  0  0  0  0  0  0
   34.4921   16.1470   32.1973 H   0  0  0  0  0  0  0  0  0  0  0  0
   40.1078   15.6693   34.4280 H   0  0  0  0  0  0  0  0  0  0  0  0
   42.5584   14.9937   33.3882 H   0  0  0  0  0  0  0  0  0  0  0  0
  1  6  1  0
  1 14  1  0
  2  1  2  0
  3  7  1  0
  3  8  1  0
  4  3  2  0
  5  6  2  0
  5  4  1  0
  6  7  1  0
  8 13  2  0
  9 10  2  0
  9  8  1  0
 10 11  1  0
 11 12  2  0
 13 12  1  0
 14 15  1  0
 15 19  1  0
 15 16  2  0
 16 17  1  0
 18 20  1  0
 18 17  1  0
 19 18  2  0
 20 21  2  0
 22 21  1  0
 23 22  2  0
 24 23  1  0
 24 20  1  0
 25 26  1  0
 25 28  1  0
 25 23  1  0
 27 25  1  0
  4 29  1  0
  5 30  1  0
  9 31  1  0
 10 32  1  0
 12 33  1  0
 16 34  1  0
 21 35  1  0
 22 36  1  0
M  ISO  8  29  14  30  14  31  14  32  14  33  14  34  14  35  14  36  14
M  END
>  <minimizedAffinity>  (1) 
-3.82420039

>  <minimizedRMSD>  (1) 
0.273396879

$$$$
