
     RDKit          3D

 39 42  0  0  0  0  0  0  0  0999 V2000
   36.2350   19.4100   30.6420 C   0  0  0  0  0  0  0  0  0  0  0  0
   36.3900   18.9000   29.5190 O   0  0  0  0  0  0  0  0  0  0  0  0
   36.7960   23.3610   31.4690 C   0  0  0  0  0  0  0  0  0  0  0  0
   37.9070   22.7410   30.9860 C   0  0  0  0  0  0  0  0  0  0  0  0
   37.7980   21.4170   30.6850 C   0  0  0  0  0  0  0  0  0  0  0  0
   36.6350   20.8070   30.8740 C   0  0  0  0  0  0  0  0  0  0  0  0
   35.5240   22.1380   31.5360 S   0  0  0  0  0  0  0  0  0  0  0  0
   36.6390   24.7860   31.8730 C   0  0  0  0  0  0  0  0  0  0  0  0
   35.8350   25.6540   31.1250 C   0  0  0  0  0  0  0  0  0  0  0  0
   35.7580   26.9810   31.5970 C   0  0  0  0  0  0  0  0  0  0  0  0
   36.4570   27.3060   32.7210 N   0  0  0  0  0  0  0  0  0  0  0  0
   37.2120   26.4280   33.3960 C   0  0  0  0  0  0  0  0  0  0  0  0
   37.2780   25.1680   32.9380 N   0  0  0  0  0  0  0  0  0  0  0  0
   35.6860   18.7280   31.7490 O   0  0  0  0  0  0  0  0  0  0  0  0
   36.2800   17.4660   31.9790 C   0  0  0  0  0  0  0  0  0  0  0  0
   35.5690   16.3180   32.1810 C   0  0  0  0  0  0  0  0  0  0  0  0
   36.9210   15.0850   32.4100 S   0  0  0  0  0  0  0  0  0  0  0  0
   38.2370   16.4350   32.1750 C   0  0  0  0  0  0  0  0  0  0  0  0
   37.5990   17.4190   31.9950 N   0  0  0  0  0  0  0  0  0  0  0  0
   39.6380   15.9950   32.2610 C   0  0  0  0  0  0  0  0  0  0  0  0
   40.4080   15.6760   33.3430 C   0  0  0  0  0  0  0  0  0  0  0  0
   41.6500   15.3280   32.8320 C   0  0  0  0  0  0  0  0  0  0  0  0
   41.5130   15.4730   31.4350 C   0  0  0  0  0  0  0  0  0  0  0  0
   40.3040   15.8690   31.1540 O   0  0  0  0  0  0  0  0  0  0  0  0
   42.5710   15.2200   30.4080 C   0  0  0  0  0  0  0  0  0  0  0  0
   43.8260   14.7900   31.1360 C   0  0  0  0  0  0  0  0  0  0  0  0
   38.8523   23.2856   30.8448 H   0  0  0  0  0  0  0  0  0  0  0  0
   38.6618   20.8615   30.2909 H   0  0  0  0  0  0  0  0  0  0  0  0
   35.2967   25.3219   30.2250 H   0  0  0  0  0  0  0  0  0  0  0  0
   35.1504   27.7330   31.0723 H   0  0  0  0  0  0  0  0  0  0  0  0
   37.7617   26.7313   34.2993 H   0  0  0  0  0  0  0  0  0  0  0  0
   34.4794   16.1684   32.2017 H   0  0  0  0  0  0  0  0  0  0  0  0
   40.1060   15.6917   34.4006 H   0  0  0  0  0  0  0  0  0  0  0  0
   42.5424   15.0100   33.3910 H   0  0  0  0  0  0  0  0  0  0  0  0
   42.7659   16.1395   29.8366 H   0  0  0  0  0  0  0  0  0  0  0  0
   42.2465   14.4384   29.7053 H   0  0  0  0  0  0  0  0  0  0  0  0
   43.6581   14.8475   32.2216 H   0  0  0  0  0  0  0  0  0  0  0  0
   44.0750   13.7553   30.8578 H   0  0  0  0  0  0  0  0  0  0  0  0
   44.6572   15.4546   30.8578 H   0  0  0  0  0  0  0  0  0  0  0  0
  1  6  1  0
  1 14  1  0
  2  1  2  0
  3  7  1  0
  3  8  1  0
  4  3  2  0
  5  6  2  0
  5  4  1  0
  6  7  1  0
  8 13  2  0
  9 10  2  0
  9  8  1  0
 10 11  1  0
 11 12  2  0
 13 12  1  0
 14 15  1  0
 15 19  1  0
 15 16  2  0
 16 17  1  0
 18 20  1  0
 18 17  1  0
 19 18  2  0
 20 21  2  0
 22 21  1  0
 23 22  2  0
 24 23  1  0
 24 20  1  0
 25 26  1  0
 25 23  1  0
  4 27  1  0
  5 28  1  0
  9 29  1  0
 10 30  1  0
 12 31  1  0
 16 32  1  0
 21 33  1  0
 22 34  1  0
 25 35  1  0
 25 36  1  0
 26 37  1  0
 26 38  1  0
 26 39  1  0
M  ISO  8  27  14  28  14  29  14  30  14  31  14  32  14  33  14  34  14
M  ISO  5  35   8  36   8  37   8  38   8  39   8
M  END
>  <minimizedAffinity>  (1) 
-3.8154037

>  <minimizedRMSD>  (1) 
0.260743022

$$$$
