
     RDKit          3D

 28 29  0  0  1  0  0  0  0  0999 V2000
   39.1100   22.9620   37.7850 C   0  0  0  0  0  0  0  0  0  0  0  0
   38.4920   23.6070   36.7040 C   0  0  0  0  0  0  0  0  0  0  0  0
   39.3060   23.9350   35.6190 C   0  0  0  0  0  0  0  0  0  0  0  0
   40.6410   23.6180   35.6570 N   0  0  0  0  0  0  0  0  0  0  0  0
   41.1900   22.9900   36.7360 C   0  0  0  0  0  0  0  0  0  0  0  0
   40.4160   22.6640   37.7990 N   0  0  0  0  0  0  0  0  0  0  0  0
   38.8060   24.5880   34.4640 N   0  0  0  0  0  0  0  0  0  0  0  0
   39.1690   25.8790   33.8970 C   0  0  1  0  0  0  0  0  0  0  0  0
   37.7900   26.3750   33.5150 C   0  0  0  0  0  0  0  0  0  0  0  0
   37.3210   25.1640   32.7050 C   0  0  0  0  0  0  0  0  0  0  0  0
   37.7880   24.0360   33.6110 C   0  0  0  0  0  0  0  0  0  0  0  0
   39.6610   26.6840   35.0770 C   0  0  0  0  0  0  0  0  0  0  0  0
   38.6010   27.4160   35.8230 C   0  0  0  0  0  0  0  0  0  0  0  0
   38.4974   22.6896   38.6571 H   0  0  0  0  0  0  0  0  0  0  0  0
   37.4176   23.8430   36.7110 H   0  0  0  0  0  0  0  0  0  0  0  0
   42.2630   22.7478   36.7432 H   0  0  0  0  0  0  0  0  0  0  0  0
   39.9085   25.9023   33.0830 H   0  0  0  0  0  0  0  0  0  0  0  0
   37.1562   26.5533   34.3962 H   0  0  0  0  0  0  0  0  0  0  0  0
   37.7618   27.3394   32.9866 H   0  0  0  0  0  0  0  0  0  0  0  0
   36.2285   25.1579   32.5772 H   0  0  0  0  0  0  0  0  0  0  0  0
   37.7080   25.1194   31.6763 H   0  0  0  0  0  0  0  0  0  0  0  0
   36.9482   23.6623   34.2153 H   0  0  0  0  0  0  0  0  0  0  0  0
   38.1778   23.1915   33.0238 H   0  0  0  0  0  0  0  0  0  0  0  0
   40.1578   25.9958   35.7767 H   0  0  0  0  0  0  0  0  0  0  0  0
   40.3350   27.4508   34.6674 H   0  0  0  0  0  0  0  0  0  0  0  0
   38.7676   27.3010   36.9042 H   0  0  0  0  0  0  0  0  0  0  0  0
   38.6364   28.4830   35.5580 H   0  0  0  0  0  0  0  0  0  0  0  0
   37.6157   27.0049   35.5580 H   0  0  0  0  0  0  0  0  0  0  0  0
  1  6  2  0
  2  1  1  0
  3  4  1  0
  3  2  2  0
  4  5  2  0
  5  6  1  0
  7  3  1  0
  8  7  1  0
  8 12  1  0
  9  8  1  0
 10  9  1  0
 10 11  1  0
 11  7  1  0
 12 13  1  0
  1 14  1  0
  2 15  1  0
  5 16  1  0
  8 17  1  6
  9 18  1  0
  9 19  1  0
 10 20  1  0
 10 21  1  0
 11 22  1  0
 11 23  1  0
 12 24  1  0
 12 25  1  0
 13 26  1  0
 13 27  1  0
 13 28  1  0
M  ISO  8  14  14  15  14  16  14  17  13  18  13  19  13  20  13  21  13
M  ISO  7  22  13  23  13  24   8  25   8  26   8  27   8  28   8
M  END
>  <minimizedAffinity>  (1) 
-3.88459921

>  <minimizedRMSD>  (1) 
1.93919909

$$$$
