
     RDKit          3D

 33 35  0  0  1  0  0  0  0  0999 V2000
   38.8360   22.6610   36.1190 C   0  0  0  0  0  0  0  0  0  0  0  0
   37.9540   22.9920   35.0760 C   0  0  0  0  0  0  0  0  0  0  0  0
   38.4310   22.7890   33.7620 C   0  0  0  0  0  0  0  0  0  0  0  0
   39.6950   22.2940   33.5620 N   0  0  0  0  0  0  0  0  0  0  0  0
   40.5020   21.9920   34.6110 C   0  0  0  0  0  0  0  0  0  0  0  0
   40.0780   22.1730   35.8660 N   0  0  0  0  0  0  0  0  0  0  0  0
   37.6380   23.0890   32.6310 N   0  0  0  0  0  0  0  0  0  0  0  0
   37.8640   24.0510   31.5520 C   0  0  1  0  0  0  0  0  0  0  0  0
   36.4610   24.6020   31.4040 C   0  0  0  0  0  0  0  0  0  0  0  0
   35.7120   23.2760   31.2500 C   0  0  0  0  0  0  0  0  0  0  0  0
   36.3810   22.4440   32.3340 C   0  0  0  0  0  0  0  0  0  0  0  0
   38.7850   25.0390   32.0460 N   0  0  0  0  0  0  0  0  0  0  0  0
   40.0550   25.0090   31.6090 C   0  0  0  0  0  0  0  0  0  0  0  0
   41.0260   25.9240   32.0280 C   0  0  0  0  0  0  0  0  0  0  0  0
   40.6640   26.9160   32.9430 C   0  0  0  0  0  0  0  0  0  0  0  0
   41.6710   27.8330   33.3510 N   0  0  0  0  0  0  0  0  0  0  0  0
   39.3750   26.9220   33.3670 N   0  0  0  0  0  0  0  0  0  0  0  0
   38.4860   26.0200   32.9320 C   0  0  0  0  0  0  0  0  0  0  0  0
   37.2860   26.0640   33.3570 O   0  0  0  0  0  0  0  0  0  0  0  0
   38.5138   22.8000   37.1615 H   0  0  0  0  0  0  0  0  0  0  0  0
   36.9466   23.3878   35.2723 H   0  0  0  0  0  0  0  0  0  0  0  0
   41.5115   21.5957   34.4272 H   0  0  0  0  0  0  0  0  0  0  0  0
   38.2864   23.6738   30.6090 H   0  0  0  0  0  0  0  0  0  0  0  0
   36.1383   25.1592   32.2958 H   0  0  0  0  0  0  0  0  0  0  0  0
   36.3166   25.3295   30.5917 H   0  0  0  0  0  0  0  0  0  0  0  0
   34.6348   23.3952   31.4380 H   0  0  0  0  0  0  0  0  0  0  0  0
   35.7635   22.8379   30.2423 H   0  0  0  0  0  0  0  0  0  0  0  0
   35.7484   22.4128   33.2334 H   0  0  0  0  0  0  0  0  0  0  0  0
   36.5358   21.4074   32.0001 H   0  0  0  0  0  0  0  0  0  0  0  0
   40.3442   24.2293   30.8889 H   0  0  0  0  0  0  0  0  0  0  0  0
   42.0552   25.8639   31.6445 H   0  0  0  0  0  0  0  0  0  0  0  0
   41.4457   28.5794   34.0241 H   0  0  0  0  0  0  0  0  0  0  0  0
   42.6258   27.7509   32.9735 H   0  0  0  0  0  0  0  0  0  0  0  0
  2  1  2  0
  3  2  1  0
  4  3  2  0
  4  5  1  0
  5  6  2  0
  6  1  1  0
  7  3  1  0
  8 12  1  0
  8  7  1  0
  9  8  1  0
 10  9  1  0
 10 11  1  0
 11  7  1  0
 12 18  1  0
 13 14  2  0
 13 12  1  0
 14 15  1  0
 15 16  1  0
 15 17  2  0
 18 19  2  0
 18 17  1  0
  1 20  1  0
  2 21  1  0
  5 22  1  0
  8 23  1  6
  9 24  1  0
  9 25  1  0
 10 26  1  0
 10 27  1  0
 11 28  1  0
 11 29  1  0
 13 30  1  0
 14 31  1  0
 16 32  1  0
 16 33  1  0
M  ISO  8  20  14  21  14  22  14  23  13  24  13  25  13  26  13  27  13
M  ISO  4  28  13  29  13  30  14  31  14
M  END
>  <minimizedAffinity>  (1) 
-3.92858839

>  <minimizedRMSD>  (1) 
4.31048298

$$$$
