
     RDKit          3D

 34 35  0  0  1  0  0  0  0  0999 V2000
   37.0360   22.7620   32.3890 C   0  0  0  0  0  0  0  0  0  0  0  0
   37.5860   23.6280   33.3520 C   0  0  0  0  0  0  0  0  0  0  0  0
   37.5650   24.9880   33.0560 C   0  0  0  0  0  0  0  0  0  0  0  0
   37.0180   25.3690   31.8710 N   0  0  0  0  0  0  0  0  0  0  0  0
   36.4970   24.5230   30.9640 C   0  0  0  0  0  0  0  0  0  0  0  0
   36.5100   23.2150   31.2320 N   0  0  0  0  0  0  0  0  0  0  0  0
   38.0850   25.9940   33.8920 N   0  0  0  0  0  0  0  0  0  0  0  0
   39.1220   26.9690   33.7320 C   0  0  1  0  0  0  0  0  0  0  0  0
   39.7820   26.8570   35.1080 C   0  0  0  0  0  0  0  0  0  0  0  0
   38.5560   27.0740   35.9710 C   0  0  0  0  0  0  0  0  0  0  0  0
   37.5520   26.2070   35.2510 C   0  0  0  0  0  0  0  0  0  0  0  0
   40.1600   26.7220   32.7080 C   0  0  0  0  0  0  0  0  0  0  0  0
   41.3930   27.5360   33.1600 C   0  0  0  0  0  0  0  0  0  0  0  0
   39.8320   27.2500   31.3320 C   0  0  0  0  0  0  0  0  0  0  0  0
   40.6070   25.2970   32.5890 C   0  0  0  0  0  0  0  0  0  0  0  0
   37.0348   21.6798   32.5859 H   0  0  0  0  0  0  0  0  0  0  0  0
   38.0117   23.2488   34.2927 H   0  0  0  0  0  0  0  0  0  0  0  0
   36.0700   24.9002   30.0230 H   0  0  0  0  0  0  0  0  0  0  0  0
   38.6961   27.9275   33.4005 H   0  0  0  0  0  0  0  0  0  0  0  0
   40.2323   25.8667   35.2711 H   0  0  0  0  0  0  0  0  0  0  0  0
   40.6197   27.5461   35.2907 H   0  0  0  0  0  0  0  0  0  0  0  0
   38.7209   26.7318   37.0033 H   0  0  0  0  0  0  0  0  0  0  0  0
   38.2552   28.1263   36.0817 H   0  0  0  0  0  0  0  0  0  0  0  0
   36.5771   26.7141   35.2022 H   0  0  0  0  0  0  0  0  0  0  0  0
   37.4017   25.2515   35.7749 H   0  0  0  0  0  0  0  0  0  0  0  0
   41.4324   27.5620   34.2590 H   0  0  0  0  0  0  0  0  0  0  0  0
   42.3070   27.0632   32.7714 H   0  0  0  0  0  0  0  0  0  0  0  0
   41.3174   28.5623   32.7714 H   0  0  0  0  0  0  0  0  0  0  0  0
   39.2536   28.1811   31.4248 H   0  0  0  0  0  0  0  0  0  0  0  0
   40.7646   27.4507   30.7844 H   0  0  0  0  0  0  0  0  0  0  0  0
   39.2388   26.5029   30.7844 H   0  0  0  0  0  0  0  0  0  0  0  0
   40.7411   24.8697   33.5937 H   0  0  0  0  0  0  0  0  0  0  0  0
   39.8471   24.7187   32.0430 H   0  0  0  0  0  0  0  0  0  0  0  0
   41.5610   25.2564   32.0430 H   0  0  0  0  0  0  0  0  0  0  0  0
  1  2  2  0
  3  2  1  0
  3  7  1  0
  4  3  2  0
  5  6  2  0
  5  4  1  0
  6  1  1  0
  7 11  1  0
  8  7  1  0
  8  9  1  0
  9 10  1  0
 11 10  1  0
 12 13  1  0
 12  8  1  0
 14 12  1  0
 15 12  1  0
  1 16  1  0
  2 17  1  0
  5 18  1  0
  8 19  1  6
  9 20  1  0
  9 21  1  0
 10 22  1  0
 10 23  1  0
 11 24  1  0
 11 25  1  0
 13 26  1  0
 13 27  1  0
 13 28  1  0
 14 29  1  0
 14 30  1  0
 14 31  1  0
 15 32  1  0
 15 33  1  0
 15 34  1  0
M  ISO  8  16  14  17  14  18  14  19  13  20  13  21  13  22  13  23  13
M  ISO  8  24  13  25  13  26   8  27   8  28   8  29   8  30   8  31   8
M  ISO  3  32   8  33   8  34   8
M  END
>  <minimizedAffinity>  (1) 
-4.05613232

>  <minimizedRMSD>  (1) 
4.24406385

$$$$
