
     RDKit          3D

 24 25  0  0  1  0  0  0  0  0999 V2000
   40.2890   22.1770   36.9970 C   0  0  0  0  0  0  0  0  0  0  0  0
   39.5430   23.3160   36.7080 C   0  0  0  0  0  0  0  0  0  0  0  0
   39.9500   24.1400   35.6600 C   0  0  0  0  0  0  0  0  0  0  0  0
   41.0710   23.7700   34.9740 N   0  0  0  0  0  0  0  0  0  0  0  0
   41.7890   22.6670   35.2580 C   0  0  0  0  0  0  0  0  0  0  0  0
   41.3950   21.8720   36.2710 N   0  0  0  0  0  0  0  0  0  0  0  0
   39.2710   25.3180   35.2820 N   0  0  0  0  0  0  0  0  0  0  0  0
   39.7520   26.7000   35.2270 C   0  0  2  0  0  0  0  0  0  0  0  0
   38.4910   27.3760   35.7720 C   0  0  0  0  0  0  0  0  0  0  0  0
   37.4570   26.7740   34.8410 C   0  0  0  0  0  0  0  0  0  0  0  0
   37.8760   25.3050   34.8570 C   0  0  0  0  0  0  0  0  0  0  0  0
   39.9860   27.1390   33.8770 N   0  0  0  0  0  0  0  0  0  0  0  0
   39.9796   21.5177   37.8214 H   0  0  0  0  0  0  0  0  0  0  0  0
   38.6470   23.5618   37.2969 H   0  0  0  0  0  0  0  0  0  0  0  0
   42.6852   22.4186   34.6706 H   0  0  0  0  0  0  0  0  0  0  0  0
   40.7012   26.8891   35.7497 H   0  0  0  0  0  0  0  0  0  0  0  0
   38.3031   27.1068   36.8219 H   0  0  0  0  0  0  0  0  0  0  0  0
   38.5207   28.4755   35.7879 H   0  0  0  0  0  0  0  0  0  0  0  0
   37.5242   27.2029   33.8303 H   0  0  0  0  0  0  0  0  0  0  0  0
   36.4144   26.9529   35.1426 H   0  0  0  0  0  0  0  0  0  0  0  0
   37.2601   24.7345   35.5677 H   0  0  0  0  0  0  0  0  0  0  0  0
   37.7464   24.8264   33.8751 H   0  0  0  0  0  0  0  0  0  0  0  0
   40.4704   28.0479   33.8906 H   0  0  0  0  0  0  0  0  0  0  0  0
   40.5697   26.4461   33.3870 H   0  0  0  0  0  0  0  0  0  0  0  0
  2  1  2  0
  3  2  1  0
  4  5  1  0
  4  3  2  0
  5  6  2  0
  6  1  1  0
  7  3  1  0
  8  7  1  0
  8  9  1  0
 10 11  1  0
 10  9  1  0
 11  7  1  0
 12  8  1  0
  1 13  1  0
  2 14  1  0
  5 15  1  0
  8 16  1  1
  9 17  1  0
  9 18  1  0
 10 19  1  0
 10 20  1  0
 11 21  1  0
 11 22  1  0
 12 23  1  0
 12 24  1  0
M  ISO  8  13  14  14  14  15  14  16  13  17  13  18  13  19  13  20  13
M  ISO  4  21  13  22  13  23   5  24   5
M  END
>  <minimizedAffinity>  (1) 
-3.55537963

>  <minimizedRMSD>  (1) 
0.119560726

$$$$
