
     RDKit          3D

 38 40  0  0  1  0  0  0  0  0999 V2000
   40.1240   18.3160   31.2140 C   0  0  0  0  0  0  0  0  0  0  0  0
   38.8280   18.5900   31.6720 C   0  0  0  0  0  0  0  0  0  0  0  0
   38.3600   19.8900   31.5100 C   0  0  0  0  0  0  0  0  0  0  0  0
   39.1830   20.8290   30.9150 N   0  0  0  0  0  0  0  0  0  0  0  0
   40.4360   20.5040   30.4880 C   0  0  0  0  0  0  0  0  0  0  0  0
   40.8940   19.2510   30.6420 N   0  0  0  0  0  0  0  0  0  0  0  0
   37.0890   20.3380   31.9110 N   0  0  0  0  0  0  0  0  0  0  0  0
   36.6390   21.3640   32.8160 C   0  0  1  0  0  0  0  0  0  0  0  0
   35.5350   20.5690   33.5410 C   0  0  0  0  0  0  0  0  0  0  0  0
   34.7320   20.1960   32.2800 C   0  0  0  0  0  0  0  0  0  0  0  0
   35.8580   19.7380   31.3850 C   0  0  0  0  0  0  0  0  0  0  0  0
   37.6550   21.8860   33.7620 C   0  0  0  0  0  0  0  0  0  0  0  0
   37.8540   23.3660   33.4030 C   0  0  0  0  0  0  0  0  0  0  0  0
   39.0170   23.8890   34.1870 C   0  0  0  0  0  0  0  0  0  0  0  0
   38.5700   23.8900   35.6510 C   0  0  0  0  0  0  0  0  0  0  0  0
   38.2170   22.5100   36.0960 C   0  0  0  0  0  0  0  0  0  0  0  0
   37.2510   21.7840   35.1950 C   0  0  0  0  0  0  0  0  0  0  0  0
   40.5229   17.2973   31.3283 H   0  0  0  0  0  0  0  0  0  0  0  0
   38.2078   17.8109   32.1393 H   0  0  0  0  0  0  0  0  0  0  0  0
   41.0721   21.2681   30.0172 H   0  0  0  0  0  0  0  0  0  0  0  0
   36.3408   22.2927   32.3075 H   0  0  0  0  0  0  0  0  0  0  0  0
   35.9264   19.6872   34.0693 H   0  0  0  0  0  0  0  0  0  0  0  0
   34.9899   21.0915   34.3409 H   0  0  0  0  0  0  0  0  0  0  0  0
   34.0120   19.3882   32.4775 H   0  0  0  0  0  0  0  0  0  0  0  0
   34.1097   21.0043   31.8685 H   0  0  0  0  0  0  0  0  0  0  0  0
   35.6829   20.0763   30.3531 H   0  0  0  0  0  0  0  0  0  0  0  0
   35.9290   18.6404   31.3707 H   0  0  0  0  0  0  0  0  0  0  0  0
   38.5704   21.2840   33.6638 H   0  0  0  0  0  0  0  0  0  0  0  0
   38.0576   23.4632   32.3264 H   0  0  0  0  0  0  0  0  0  0  0  0
   36.9466   23.9392   33.6441 H   0  0  0  0  0  0  0  0  0  0  0  0
   39.8923   23.2360   34.0547 H   0  0  0  0  0  0  0  0  0  0  0  0
   39.3089   24.8957   33.8533 H   0  0  0  0  0  0  0  0  0  0  0  0
   39.3884   24.2733   36.2781 H   0  0  0  0  0  0  0  0  0  0  0  0
   37.6815   24.5311   35.7489 H   0  0  0  0  0  0  0  0  0  0  0  0
   39.1439   21.9202   36.1503 H   0  0  0  0  0  0  0  0  0  0  0  0
   37.7137   22.6170   37.0682 H   0  0  0  0  0  0  0  0  0  0  0  0
   36.2501   22.2240   35.3161 H   0  0  0  0  0  0  0  0  0  0  0  0
   37.2491   20.7209   35.4775 H   0  0  0  0  0  0  0  0  0  0  0  0
  1  2  2  0
  3  2  1  0
  3  7  1  0
  4  3  2  0
  5  6  2  0
  5  4  1  0
  6  1  1  0
  7  8  1  0
  8  9  1  0
  8 12  1  0
 10  9  1  0
 11  7  1  0
 11 10  1  0
 12 17  1  0
 13 12  1  0
 13 14  1  0
 14 15  1  0
 15 16  1  0
 17 16  1  0
  1 18  1  0
  2 19  1  0
  5 20  1  0
  8 21  1  6
  9 22  1  0
  9 23  1  0
 10 24  1  0
 10 25  1  0
 11 26  1  0
 11 27  1  0
 12 28  1  0
 13 29  1  0
 13 30  1  0
 14 31  1  0
 14 32  1  0
 15 33  1  0
 15 34  1  0
 16 35  1  0
 16 36  1  0
 17 37  1  0
 17 38  1  0
M  ISO  8  18  14  19  14  20  14  21  13  22  13  23  13  24  13  25  13
M  ISO  8  26  13  27  13  28  13  29  13  30  13  31  13  32  13  33  13
M  ISO  5  34  13  35  13  36  13  37  13  38  13
M  END
>  <minimizedAffinity>  (1) 
-3.64616108

>  <minimizedRMSD>  (1) 
6.46229982

$$$$
