
     RDKit          3D

 41 43  0  0  1  0  0  0  0  0999 V2000
   40.2180   18.9420   30.9780 C   0  0  0  0  0  0  0  0  0  0  0  0
   38.9350   19.1630   31.5060 C   0  0  0  0  0  0  0  0  0  0  0  0
   38.1030   20.0130   30.7840 C   0  0  0  0  0  0  0  0  0  0  0  0
   38.5670   20.5750   29.6200 N   0  0  0  0  0  0  0  0  0  0  0  0
   39.8200   20.3220   29.1600 C   0  0  0  0  0  0  0  0  0  0  0  0
   40.6320   19.5110   29.8400 N   0  0  0  0  0  0  0  0  0  0  0  0
   36.7960   20.3390   31.1690 N   0  0  0  0  0  0  0  0  0  0  0  0
   36.1480   21.5840   31.4850 C   0  0  1  0  0  0  0  0  0  0  0  0
   35.3580   21.1710   32.7080 C   0  0  0  0  0  0  0  0  0  0  0  0
   34.5960   20.0000   32.0570 C   0  0  0  0  0  0  0  0  0  0  0  0
   35.7430   19.3300   31.3320 C   0  0  0  0  0  0  0  0  0  0  0  0
   37.0150   22.7560   31.7210 C   0  0  1  0  0  0  0  0  0  0  0  0
   36.4240   23.9380   30.9730 C   0  0  0  0  0  0  0  0  0  0  0  0
   37.3910   25.0780   31.0110 C   0  0  0  0  0  0  0  0  0  0  0  0
   37.3910   25.5220   32.4780 C   0  0  0  0  0  0  0  0  0  0  0  0
   37.8510   24.4310   33.3450 C   0  0  0  0  0  0  0  0  0  0  0  0
   37.2790   23.0660   33.1510 C   0  0  2  0  0  0  0  0  0  0  0  0
   38.3380   22.0920   33.6350 C   0  0  0  0  0  0  0  0  0  0  0  0
   40.9070   18.2772   31.5197 H   0  0  0  0  0  0  0  0  0  0  0  0
   38.6052   18.6885   32.4420 H   0  0  0  0  0  0  0  0  0  0  0  0
   40.1657   20.7869   28.2249 H   0  0  0  0  0  0  0  0  0  0  0  0
   35.5645   21.9741   30.6380 H   0  0  0  0  0  0  0  0  0  0  0  0
   36.0048   20.8434   33.5353 H   0  0  0  0  0  0  0  0  0  0  0  0
   34.7458   21.9513   33.1838 H   0  0  0  0  0  0  0  0  0  0  0  0
   34.1421   19.3372   32.8084 H   0  0  0  0  0  0  0  0  0  0  0  0
   33.7454   20.2893   31.4224 H   0  0  0  0  0  0  0  0  0  0  0  0
   35.4090   18.9703   30.3476 H   0  0  0  0  0  0  0  0  0  0  0  0
   36.1139   18.4641   31.9000 H   0  0  0  0  0  0  0  0  0  0  0  0
   38.0156   22.5139   31.3334 H   0  0  0  0  0  0  0  0  0  0  0  0
   35.4800   24.2404   31.4500 H   0  0  0  0  0  0  0  0  0  0  0  0
   36.2289   23.6539   29.9284 H   0  0  0  0  0  0  0  0  0  0  0  0
   38.3944   24.7489   30.7030 H   0  0  0  0  0  0  0  0  0  0  0  0
   37.1114   25.8909   30.3247 H   0  0  0  0  0  0  0  0  0  0  0  0
   38.0628   26.3852   32.5950 H   0  0  0  0  0  0  0  0  0  0  0  0
   36.3659   25.7976   32.7664 H   0  0  0  0  0  0  0  0  0  0  0  0
   38.9393   24.3474   33.2089 H   0  0  0  0  0  0  0  0  0  0  0  0
   37.5037   24.7241   34.3468 H   0  0  0  0  0  0  0  0  0  0  0  0
   36.3243   22.9980   33.6932 H   0  0  0  0  0  0  0  0  0  0  0  0
   38.3504   22.0806   34.7349 H   0  0  0  0  0  0  0  0  0  0  0  0
   38.1075   21.0838   33.2604 H   0  0  0  0  0  0  0  0  0  0  0  0
   39.3235   22.4059   33.2604 H   0  0  0  0  0  0  0  0  0  0  0  0
  1  2  2  0
  3  7  1  0
  3  2  1  0
  4  3  2  0
  5  4  1  0
  5  6  2  0
  6  1  1  0
  7 11  1  0
  7  8  1  0
  8 12  1  0
  8  9  1  0
 10  9  1  0
 11 10  1  0
 12 17  1  0
 13 14  1  0
 13 12  1  0
 14 15  1  0
 15 16  1  0
 17 16  1  0
 17 18  1  0
  1 19  1  0
  2 20  1  0
  5 21  1  0
  8 22  1  6
  9 23  1  0
  9 24  1  0
 10 25  1  0
 10 26  1  0
 11 27  1  0
 11 28  1  0
 12 29  1  6
 13 30  1  0
 13 31  1  0
 14 32  1  0
 14 33  1  0
 15 34  1  0
 15 35  1  0
 16 36  1  0
 16 37  1  0
 17 38  1  1
 18 39  1  0
 18 40  1  0
 18 41  1  0
M  ISO  8  19  14  20  14  21  14  22  13  23  13  24  13  25  13  26  13
M  ISO  8  27  13  28  13  29  13  30  13  31  13  32  13  33  13  34  13
M  ISO  7  35  13  36  13  37  13  38  13  39   8  40   8  41   8
M  END
>  <minimizedAffinity>  (1) 
-3.72933865

>  <minimizedRMSD>  (1) 
2.06760263

$$$$
