
     RDKit          3D

 33 35  0  0  0  0  0  0  0  0999 V2000
   36.6650   20.7470   33.0270 C   0  0  0  0  0  0  0  0  0  0  0  0
   37.7560   20.3790   32.2230 C   0  0  0  0  0  0  0  0  0  0  0  0
   39.0240   20.8810   32.5580 C   0  0  0  0  0  0  0  0  0  0  0  0
   39.1390   21.6970   33.6400 N   0  0  0  0  0  0  0  0  0  0  0  0
   38.0830   22.0310   34.3880 C   0  0  0  0  0  0  0  0  0  0  0  0
   36.8540   21.5660   34.0940 N   0  0  0  0  0  0  0  0  0  0  0  0
   38.3010   22.8910   35.5020 N   0  0  0  0  0  0  0  0  0  0  0  0
   37.5100   22.8670   36.7170 C   0  0  0  0  0  0  0  0  0  0  0  0
   37.4980   24.2540   37.2690 C   0  0  0  0  0  0  0  0  0  0  0  0
   38.6580   24.9430   36.6270 C   0  0  0  0  0  0  0  0  0  0  0  0
   39.2860   23.9350   35.7080 C   0  0  0  0  0  0  0  0  0  0  0  0
   37.4910   19.5230   31.1290 N   0  0  0  0  0  0  0  0  0  0  0  0
   36.9780   18.3010   31.4600 C   0  0  0  0  0  0  0  0  0  0  0  0
   36.7000   17.4280   30.4400 C   0  0  0  0  0  0  0  0  0  0  0  0
   36.9580   17.8430   29.1600 C   0  0  0  0  0  0  0  0  0  0  0  0
   36.7050   17.0150   28.0470 N   0  0  0  0  0  0  0  0  0  0  0  0
   37.4680   19.0670   28.8810 N   0  0  0  0  0  0  0  0  0  0  0  0
   37.7400   19.9260   29.8890 C   0  0  0  0  0  0  0  0  0  0  0  0
   38.2120   21.0540   29.6180 O   0  0  0  0  0  0  0  0  0  0  0  0
   35.6577   20.3721   32.7928 H   0  0  0  0  0  0  0  0  0  0  0  0
   39.9073   20.6193   31.9569 H   0  0  0  0  0  0  0  0  0  0  0  0
   36.4833   22.5434   36.4909 H   0  0  0  0  0  0  0  0  0  0  0  0
   37.9381   22.1626   37.4454 H   0  0  0  0  0  0  0  0  0  0  0  0
   36.5572   24.7629   37.0123 H   0  0  0  0  0  0  0  0  0  0  0  0
   37.5733   24.2597   38.3664 H   0  0  0  0  0  0  0  0  0  0  0  0
   38.3137   25.8177   36.0558 H   0  0  0  0  0  0  0  0  0  0  0  0
   39.3763   25.3039   37.3779 H   0  0  0  0  0  0  0  0  0  0  0  0
   40.1930   23.5155   36.1679 H   0  0  0  0  0  0  0  0  0  0  0  0
   39.5793   24.3971   34.7538 H   0  0  0  0  0  0  0  0  0  0  0  0
   36.7942   18.0267   32.5093 H   0  0  0  0  0  0  0  0  0  0  0  0
   36.2845   16.4297   30.6422 H   0  0  0  0  0  0  0  0  0  0  0  0
   36.9090   17.3540   27.0960 H   0  0  0  0  0  0  0  0  0  0  0  0
   36.3162   16.0712   28.1850 H   0  0  0  0  0  0  0  0  0  0  0  0
  1  6  2  0
  2  3  2  0
  2  1  1  0
  3  4  1  0
  4  5  2  0
  5  7  1  0
  6  5  1  0
  7 11  1  0
  7  8  1  0
  8  9  1  0
 10  9  1  0
 11 10  1  0
 12 13  1  0
 12  2  1  0
 14 13  2  0
 15 14  1  0
 16 15  1  0
 17 15  2  0
 17 18  1  0
 18 12  1  0
 19 18  2  0
  1 20  1  0
  3 21  1  0
  8 22  1  0
  8 23  1  0
  9 24  1  0
  9 25  1  0
 10 26  1  0
 10 27  1  0
 11 28  1  0
 11 29  1  0
 13 30  1  0
 14 31  1  0
 16 32  1  0
 16 33  1  0
M  ISO  8  20  14  21  14  22  13  23  13  24  13  25  13  26  13  27  13
M  ISO  4  28  13  29  13  30  14  31  14
M  END
>  <minimizedAffinity>  (1) 
-3.81394815

>  <minimizedRMSD>  (1) 
4.71759701

$$$$
