
     RDKit          3D

 39 41  0  0  1  0  0  0  0  0999 V2000
   40.1020   18.3730   31.4210 C   0  0  0  0  0  0  0  0  0  0  0  0
   38.8450   18.7500   31.8890 C   0  0  0  0  0  0  0  0  0  0  0  0
   38.5160   20.0980   31.8500 C   0  0  0  0  0  0  0  0  0  0  0  0
   39.4480   20.9990   31.3520 N   0  0  0  0  0  0  0  0  0  0  0  0
   40.6610   20.5710   30.9090 C   0  0  0  0  0  0  0  0  0  0  0  0
   40.9780   19.2700   30.9460 N   0  0  0  0  0  0  0  0  0  0  0  0
   37.3000   20.6470   32.2790 N   0  0  0  0  0  0  0  0  0  0  0  0
   36.9420   21.6260   33.2810 C   0  0  1  0  0  0  0  0  0  0  0  0
   35.7510   20.8960   33.9080 C   0  0  0  0  0  0  0  0  0  0  0  0
   34.9360   20.7540   32.6020 C   0  0  0  0  0  0  0  0  0  0  0  0
   36.0190   20.2530   31.6890 C   0  0  0  0  0  0  0  0  0  0  0  0
   37.9970   21.9470   34.2770 C   0  0  1  0  0  0  0  0  0  0  0  0
   38.7570   23.1690   33.7320 C   0  0  0  0  0  0  0  0  0  0  0  0
   39.9570   23.3920   34.6040 C   0  0  0  0  0  0  0  0  0  0  0  0
   39.4020   23.8580   35.9540 C   0  0  0  0  0  0  0  0  0  0  0  0
   38.5460   22.7860   36.5500 C   0  0  0  0  0  0  0  0  0  0  0  0
   37.4620   22.2650   35.6380 C   0  0  2  0  0  0  0  0  0  0  0  0
   36.9490   21.1210   36.2190 O   0  0  0  0  0  0  0  0  0  0  0  0
   40.3835   17.3098   31.4418 H   0  0  0  0  0  0  0  0  0  0  0  0
   38.1362   18.0036   32.2769 H   0  0  0  0  0  0  0  0  0  0  0  0
   41.3870   21.2988   30.5175 H   0  0  0  0  0  0  0  0  0  0  0  0
   36.7501   22.6273   32.8680 H   0  0  0  0  0  0  0  0  0  0  0  0
   36.0297   19.9243   34.3418 H   0  0  0  0  0  0  0  0  0  0  0  0
   35.2535   21.3880   34.7568 H   0  0  0  0  0  0  0  0  0  0  0  0
   34.1174   20.0266   32.7059 H   0  0  0  0  0  0  0  0  0  0  0  0
   34.4256   21.6687   32.2661 H   0  0  0  0  0  0  0  0  0  0  0  0
   35.9092   20.7034   30.6915 H   0  0  0  0  0  0  0  0  0  0  0  0
   35.9605   19.1603   31.5770 H   0  0  0  0  0  0  0  0  0  0  0  0
   38.6385   21.0628   34.4056 H   0  0  0  0  0  0  0  0  0  0  0  0
   39.0772   22.9789   32.6970 H   0  0  0  0  0  0  0  0  0  0  0  0
   38.1085   24.0575   33.7379 H   0  0  0  0  0  0  0  0  0  0  0  0
   40.5242   22.4571   34.7237 H   0  0  0  0  0  0  0  0  0  0  0  0
   40.6455   24.1314   34.1690 H   0  0  0  0  0  0  0  0  0  0  0  0
   40.2371   24.0787   36.6351 H   0  0  0  0  0  0  0  0  0  0  0  0
   38.7958   24.7634   35.8032 H   0  0  0  0  0  0  0  0  0  0  0  0
   39.1959   21.9427   36.8265 H   0  0  0  0  0  0  0  0  0  0  0  0
   38.0354   23.2395   37.4123 H   0  0  0  0  0  0  0  0  0  0  0  0
   36.6843   23.0325   35.5108 H   0  0  0  0  0  0  0  0  0  0  0  0
   36.9871   21.2059   37.2046 H   0  0  0  0  0  0  0  0  0  0  0  0
  1  2  2  0
  3  2  1  0
  3  7  1  0
  4  3  2  0
  5  6  2  0
  5  4  1  0
  6  1  1  0
  7  8  1  0
  8  9  1  0
  8 12  1  0
 10  9  1  0
 11  7  1  0
 11 10  1  0
 12 17  1  0
 13 12  1  0
 13 14  1  0
 14 15  1  0
 15 16  1  0
 17 18  1  0
 17 16  1  0
  1 19  1  0
  2 20  1  0
  5 21  1  0
  8 22  1  6
  9 23  1  0
  9 24  1  0
 10 25  1  0
 10 26  1  0
 11 27  1  0
 11 28  1  0
 12 29  1  1
 13 30  1  0
 13 31  1  0
 14 32  1  0
 14 33  1  0
 15 34  1  0
 15 35  1  0
 16 36  1  0
 16 37  1  0
 17 38  1  6
 18 39  1  0
M  ISO  8  19  14  20  14  21  14  22  13  23  13  24  13  25  13  26  13
M  ISO  8  27  13  28  13  29  13  30  13  31  13  32  13  33  13  34  13
M  ISO  5  35  13  36  13  37  13  38  13  39   3
M  END
>  <minimizedAffinity>  (1) 
-3.853616

>  <minimizedRMSD>  (1) 
0.664795637

$$$$
