
     RDKit          3D

 45 48  0  0  1  0  0  0  0  0999 V2000
   38.7130   25.5730   32.1450 C   0  0  1  0  0  0  0  0  0  0  0  0
   38.1550   26.6510   31.1930 C   0  0  0  0  0  0  0  0  0  0  0  0
   37.8520   27.8820   31.9700 C   0  0  0  0  0  0  0  0  0  0  0  0
   36.6770   27.5050   32.8800 C   0  0  0  0  0  0  0  0  0  0  0  0
   37.0520   26.3950   33.7730 C   0  0  0  0  0  0  0  0  0  0  0  0
   37.6550   25.1730   33.0950 C   0  0  2  0  0  0  0  0  0  0  0  0
   42.7260   23.7310   34.5630 C   0  0  0  0  0  0  0  0  0  0  0  0
   41.6920   23.2890   33.7250 C   0  0  0  0  0  0  0  0  0  0  0  0
   41.3810   24.0800   32.6290 C   0  0  0  0  0  0  0  0  0  0  0  0
   42.0930   25.2380   32.4300 N   0  0  0  0  0  0  0  0  0  0  0  0
   43.0890   25.6220   33.2760 C   0  0  0  0  0  0  0  0  0  0  0  0
   43.3950   24.8660   34.3330 N   0  0  0  0  0  0  0  0  0  0  0  0
   40.3740   23.7840   31.6920 N   0  0  0  0  0  0  0  0  0  0  0  0
   39.1810   24.4830   31.2570 C   0  0  1  0  0  0  0  0  0  0  0  0
   38.2240   23.2910   31.2600 C   0  0  0  0  0  0  0  0  0  0  0  0
   39.0390   22.4470   30.2380 C   0  0  0  0  0  0  0  0  0  0  0  0
   40.3880   22.5480   30.9050 C   0  0  0  0  0  0  0  0  0  0  0  0
   38.1670   24.3830   34.2740 C   0  0  0  0  0  0  0  0  0  0  0  0
   38.0460   23.0270   34.6010 C   0  0  0  0  0  0  0  0  0  0  0  0
   38.7000   22.8820   35.7670 N   0  0  0  0  0  0  0  0  0  0  0  0
   39.2080   24.0790   36.1610 C   0  0  0  0  0  0  0  0  0  0  0  0
   38.8690   25.0070   35.2230 N   0  0  0  0  0  0  0  0  0  0  0  0
   39.5496   25.9107   32.7743 H   0  0  0  0  0  0  0  0  0  0  0  0
   37.2349   26.2807   30.7173 H   0  0  0  0  0  0  0  0  0  0  0  0
   38.9000   26.8789   30.4165 H   0  0  0  0  0  0  0  0  0  0  0  0
   38.7232   28.1834   32.5701 H   0  0  0  0  0  0  0  0  0  0  0  0
   37.6083   28.7315   31.3151 H   0  0  0  0  0  0  0  0  0  0  0  0
   36.3942   28.3780   33.4866 H   0  0  0  0  0  0  0  0  0  0  0  0
   35.8297   27.1877   32.2543 H   0  0  0  0  0  0  0  0  0  0  0  0
   37.7879   26.7773   34.4957 H   0  0  0  0  0  0  0  0  0  0  0  0
   36.1130   26.0496   34.2302 H   0  0  0  0  0  0  0  0  0  0  0  0
   36.9564   24.5903   32.4766 H   0  0  0  0  0  0  0  0  0  0  0  0
   42.9960   23.1235   35.4394 H   0  0  0  0  0  0  0  0  0  0  0  0
   41.1500   22.3537   33.9285 H   0  0  0  0  0  0  0  0  0  0  0  0
   43.6411   26.5547   33.0884 H   0  0  0  0  0  0  0  0  0  0  0  0
   39.3054   25.0342   30.3132 H   0  0  0  0  0  0  0  0  0  0  0  0
   38.1446   22.8090   32.2456 H   0  0  0  0  0  0  0  0  0  0  0  0
   37.1671   23.4880   31.0274 H   0  0  0  0  0  0  0  0  0  0  0  0
   39.0371   22.8948   29.2333 H   0  0  0  0  0  0  0  0  0  0  0  0
   38.6692   21.4279   30.0519 H   0  0  0  0  0  0  0  0  0  0  0  0
   40.5524   21.6814   31.5622 H   0  0  0  0  0  0  0  0  0  0  0  0
   41.1985   22.5602   30.1614 H   0  0  0  0  0  0  0  0  0  0  0  0
   37.5264   22.2462   34.0262 H   0  0  0  0  0  0  0  0  0  0  0  0
   39.7900   24.2657   37.0755 H   0  0  0  0  0  0  0  0  0  0  0  0
   39.1104   26.0081   35.2424 H   0  0  0  0  0  0  0  0  0  0  0  0
  1  6  1  0
  2  3  1  0
  2  1  1  0
  3  4  1  0
  4  5  1  0
  6  5  1  0
  6 18  1  0
  8  7  2  0
  9  8  1  0
 10  9  2  0
 10 11  1  0
 11 12  2  0
 12  7  1  0
 13  9  1  0
 14 15  1  0
 14 13  1  0
 14  1  1  0
 16 17  1  0
 16 15  1  0
 17 13  1  0
 18 19  2  0
 18 22  1  0
 19 20  1  0
 20 21  2  0
 22 21  1  0
  1 23  1  1
  2 24  1  0
  2 25  1  0
  3 26  1  0
  3 27  1  0
  4 28  1  0
  4 29  1  0
  5 30  1  0
  5 31  1  0
  6 32  1  6
  7 33  1  0
  8 34  1  0
 11 35  1  0
 14 36  1  6
 15 37  1  0
 15 38  1  0
 16 39  1  0
 16 40  1  0
 17 41  1  0
 17 42  1  0
 19 43  1  0
 21 44  1  0
 22 45  1  0
M  ISO  8  23  13  24  13  25  13  26  13  27  13  28  13  29  13  30  13
M  ISO  8  31  13  32  13  33  14  34  14  35  14  36  13  37  13  38  13
M  ISO  7  39  13  40  13  41  13  42  13  43  14  44  14  45   9
M  END
>  <minimizedAffinity>  (1) 
-3.63038921

>  <minimizedRMSD>  (1) 
5.15312576

$$$$
