
     RDKit          3D

 24 25  0  0  0  0  0  0  0  0999 V2000
   37.2070   21.6780   34.4650 N   0  0  0  0  0  0  0  0  0  0  0  0
   36.1720   20.8060   34.6310 C   0  0  0  0  0  0  0  0  0  0  0  0
   35.5930   20.2670   33.5080 C   0  0  0  0  0  0  0  0  0  0  0  0
   36.0920   20.6380   32.2840 C   0  0  0  0  0  0  0  0  0  0  0  0
   35.5370   20.1170   31.1030 N   0  0  0  0  0  0  0  0  0  0  0  0
   37.1110   21.4990   32.1730 N   0  0  0  0  0  0  0  0  0  0  0  0
   37.6840   22.0340   33.2770 C   0  0  0  0  0  0  0  0  0  0  0  0
   38.6390   22.8390   33.1350 O   0  0  0  0  0  0  0  0  0  0  0  0
   36.8750   22.7650   36.5680 C   0  0  0  0  0  0  0  0  0  0  0  0
   37.7620   22.2000   35.6360 C   0  0  0  0  0  0  0  0  0  0  0  0
   39.1210   22.2060   35.9570 C   0  0  0  0  0  0  0  0  0  0  0  0
   39.5130   22.7520   37.1430 N   0  0  0  0  0  0  0  0  0  0  0  0
   38.6410   23.2810   38.0040 C   0  0  0  0  0  0  0  0  0  0  0  0
   37.3060   23.2980   37.7320 N   0  0  0  0  0  0  0  0  0  0  0  0
   39.1200   23.8710   39.2960 C   0  0  0  0  0  0  0  0  0  0  0  0
   35.8109   20.5416   35.6358 H   0  0  0  0  0  0  0  0  0  0  0  0
   34.7546   19.5593   33.5871 H   0  0  0  0  0  0  0  0  0  0  0  0
   35.9158   20.3993   30.1877 H   0  0  0  0  0  0  0  0  0  0  0  0
   34.7513   19.4528   31.1525 H   0  0  0  0  0  0  0  0  0  0  0  0
   35.7983   22.7735   36.3431 H   0  0  0  0  0  0  0  0  0  0  0  0
   39.8617   21.7780   35.2655 H   0  0  0  0  0  0  0  0  0  0  0  0
   38.6737   23.3213   40.1378 H   0  0  0  0  0  0  0  0  0  0  0  0
   40.2162   23.7962   39.3491 H   0  0  0  0  0  0  0  0  0  0  0  0
   38.8216   24.9284   39.3491 H   0  0  0  0  0  0  0  0  0  0  0  0
  1  2  1  0
  1 10  1  0
  3  2  2  0
  4  3  1  0
  5  4  1  0
  6  4  2  0
  6  7  1  0
  7  1  1  0
  8  7  2  0
  9 14  2  0
 10 11  2  0
 10  9  1  0
 11 12  1  0
 12 13  2  0
 13 15  1  0
 14 13  1  0
  2 16  1  0
  3 17  1  0
  5 18  1  0
  5 19  1  0
  9 20  1  0
 11 21  1  0
 15 22  1  0
 15 23  1  0
 15 24  1  0
M  ISO  7  16  14  17  14  20  14  21  14  22   8  23   8  24   8
M  END
>  <minimizedAffinity>  (1) 
-3.49702334

>  <minimizedRMSD>  (1) 
0.781405568

$$$$
