
     RDKit          3D

 53 57  0  0  1  0  0  0  0  0999 V2000
   37.8990   26.4330   32.9430 C   0  0  1  0  0  0  0  0  0  0  0  0
   36.6310   27.1320   32.4760 C   0  0  0  0  0  0  0  0  0  0  0  0
   36.6180   27.1470   30.9780 C   0  0  0  0  0  0  0  0  0  0  0  0
   37.7550   28.0820   30.5560 C   0  0  0  0  0  0  0  0  0  0  0  0
   39.0620   27.5960   31.0720 C   0  0  0  0  0  0  0  0  0  0  0  0
   39.0900   27.2390   32.5560 C   0  0  2  0  0  0  0  0  0  0  0  0
   39.8790   21.8440   33.6600 C   0  0  0  0  0  0  0  0  0  0  0  0
   39.7460   23.0580   34.3320 C   0  0  0  0  0  0  0  0  0  0  0  0
   38.5250   23.7040   34.2670 C   0  0  0  0  0  0  0  0  0  0  0  0
   37.5220   23.1020   33.5400 N   0  0  0  0  0  0  0  0  0  0  0  0
   37.6740   21.9290   32.8990 C   0  0  0  0  0  0  0  0  0  0  0  0
   38.8600   21.3060   32.9640 N   0  0  0  0  0  0  0  0  0  0  0  0
   38.2210   24.9150   34.8800 N   0  0  0  0  0  0  0  0  0  0  0  0
   37.7780   26.1980   34.3930 C   0  0  1  0  0  0  0  0  0  0  0  0
   38.6860   27.1060   35.2160 C   0  0  0  0  0  0  0  0  0  0  0  0
   38.2810   26.5700   36.6040 C   0  0  0  0  0  0  0  0  0  0  0  0
   38.3200   25.1010   36.3390 C   0  0  0  0  0  0  0  0  0  0  0  0
   40.2500   26.5360   32.7470 O   0  0  0  0  0  0  0  0  0  0  0  0
   41.5440   26.9800   32.8960 C   0  0  0  0  0  0  0  0  0  0  0  0
   42.3390   27.9340   32.2890 C   0  0  0  0  0  0  0  0  0  0  0  0
   43.5660   27.9540   32.8430 N   0  0  0  0  0  0  0  0  0  0  0  0
   43.5710   27.0210   33.8060 C   0  0  0  0  0  0  0  0  0  0  0  0
   44.6080   26.6640   34.6610 C   0  0  0  0  0  0  0  0  0  0  0  0
   44.4400   25.6730   35.6010 C   0  0  0  0  0  0  0  0  0  0  0  0
   43.2300   25.0510   35.6730 C   0  0  0  0  0  0  0  0  0  0  0  0
   42.2050   25.3920   34.8410 C   0  0  0  0  0  0  0  0  0  0  0  0
   42.3290   26.3860   33.8770 C   0  0  0  0  0  0  0  0  0  0  0  0
   38.0337   25.4548   32.4582 H   0  0  0  0  0  0  0  0  0  0  0  0
   35.7498   26.5894   32.8489 H   0  0  0  0  0  0  0  0  0  0  0  0
   36.6051   28.1615   32.8625 H   0  0  0  0  0  0  0  0  0  0  0  0
   36.7896   26.1344   30.5840 H   0  0  0  0  0  0  0  0  0  0  0  0
   35.6485   27.4890   30.5866 H   0  0  0  0  0  0  0  0  0  0  0  0
   37.7956   28.1264   29.4576 H   0  0  0  0  0  0  0  0  0  0  0  0
   37.5618   29.0808   30.9745 H   0  0  0  0  0  0  0  0  0  0  0  0
   39.3386   26.6970   30.5017 H   0  0  0  0  0  0  0  0  0  0  0  0
   39.7657   28.4325   30.9489 H   0  0  0  0  0  0  0  0  0  0  0  0
   39.0584   28.1406   33.1854 H   0  0  0  0  0  0  0  0  0  0  0  0
   40.8410   21.3121   33.6994 H   0  0  0  0  0  0  0  0  0  0  0  0
   40.5861   23.4888   34.8964 H   0  0  0  0  0  0  0  0  0  0  0  0
   36.8406   21.4888   32.3318 H   0  0  0  0  0  0  0  0  0  0  0  0
   36.6944   26.3465   34.5102 H   0  0  0  0  0  0  0  0  0  0  0  0
   39.7519   26.9448   34.9974 H   0  0  0  0  0  0  0  0  0  0  0  0
   38.5756   28.1886   35.0552 H   0  0  0  0  0  0  0  0  0  0  0  0
   39.0023   26.8635   37.3809 H   0  0  0  0  0  0  0  0  0  0  0  0
   37.3190   26.9462   36.9822 H   0  0  0  0  0  0  0  0  0  0  0  0
   37.4749   24.6058   36.8396 H   0  0  0  0  0  0  0  0  0  0  0  0
   39.2512   24.6606   36.7250 H   0  0  0  0  0  0  0  0  0  0  0  0
   42.0138   28.5874   31.4660 H   0  0  0  0  0  0  0  0  0  0  0  0
   44.3497   28.5677   32.5781 H   0  0  0  0  0  0  0  0  0  0  0  0
   45.5760   27.1809   34.5849 H   0  0  0  0  0  0  0  0  0  0  0  0
   45.2610   25.3905   36.2764 H   0  0  0  0  0  0  0  0  0  0  0  0
   43.0767   24.2567   36.4183 H   0  0  0  0  0  0  0  0  0  0  0  0
   41.2459   24.8618   34.9359 H   0  0  0  0  0  0  0  0  0  0  0  0
  1 14  1  0
  2  1  1  0
  3  2  1  0
  4  3  1  0
  4  5  1  0
  5  6  1  0
  6 18  1  0
  6  1  1  0
  7  8  2  0
  9  8  1  0
  9 13  1  0
 10  9  2  0
 11 12  2  0
 11 10  1  0
 12  7  1  0
 13 17  1  0
 14 13  1  0
 14 15  1  0
 15 16  1  0
 17 16  1  0
 18 19  1  0
 19 27  1  0
 20 21  1  0
 20 19  2  0
 21 22  1  0
 22 27  2  0
 22 23  1  0
 23 24  2  0
 24 25  1  0
 26 25  2  0
 27 26  1  0
  1 28  1  6
  2 29  1  0
  2 30  1  0
  3 31  1  0
  3 32  1  0
  4 33  1  0
  4 34  1  0
  5 35  1  0
  5 36  1  0
  6 37  1  1
  7 38  1  0
  8 39  1  0
 11 40  1  0
 14 41  1  1
 15 42  1  0
 15 43  1  0
 16 44  1  0
 16 45  1  0
 17 46  1  0
 17 47  1  0
 20 48  1  0
 21 49  1  0
 23 50  1  0
 24 51  1  0
 25 52  1  0
 26 53  1  0
M  ISO  8  28  13  29  13  30  13  31  13  32  13  33  13  34  13  35  13
M  ISO  8  36  13  37  13  38  14  39  14  40  14  41  13  42  13  43  13
M  ISO  8  44  13  45  13  46  13  47  13  48  14  49   9  50  14  51  14
M  ISO  2  52  14  53  14
M  END
>  <minimizedAffinity>  (1) 
-5.49672747

>  <minimizedRMSD>  (1) 
7.90756369

$$$$
