
     RDKit          3D

 51 54  0  0  1  0  0  0  0  0999 V2000
   39.0710   26.6110   32.6920 C   0  0  1  0  0  0  0  0  0  0  0  0
   40.2410   27.2890   32.0030 C   0  0  0  0  0  0  0  0  0  0  0  0
   41.5140   26.6900   32.5140 C   0  0  0  0  0  0  0  0  0  0  0  0
   41.6190   27.1610   33.9740 C   0  0  0  0  0  0  0  0  0  0  0  0
   40.4630   26.6180   34.7630 C   0  0  0  0  0  0  0  0  0  0  0  0
   39.0870   26.9110   34.1420 C   0  0  2  0  0  0  0  0  0  0  0  0
   36.7130   22.2870   31.5760 C   0  0  0  0  0  0  0  0  0  0  0  0
   36.4100   23.6080   31.8920 C   0  0  0  0  0  0  0  0  0  0  0  0
   37.1570   24.6070   31.3050 C   0  0  0  0  0  0  0  0  0  0  0  0
   38.1560   24.2270   30.4430 N   0  0  0  0  0  0  0  0  0  0  0  0
   38.4370   22.9450   30.1470 C   0  0  0  0  0  0  0  0  0  0  0  0
   37.7090   21.9770   30.7180 N   0  0  0  0  0  0  0  0  0  0  0  0
   36.9800   25.9740   31.5100 N   0  0  0  0  0  0  0  0  0  0  0  0
   37.8380   27.0240   32.0030 C   0  0  1  0  0  0  0  0  0  0  0  0
   36.8630   27.7570   32.8950 C   0  0  0  0  0  0  0  0  0  0  0  0
   35.7660   27.9990   31.8450 C   0  0  0  0  0  0  0  0  0  0  0  0
   35.7090   26.6500   31.2130 C   0  0  0  0  0  0  0  0  0  0  0  0
   38.1960   26.1470   34.8460 O   0  0  0  0  0  0  0  0  0  0  0  0
   38.0590   25.0750   36.8890 N   0  0  0  0  0  0  0  0  0  0  0  0
   37.9830   23.7260   37.3350 C   0  0  0  0  0  0  0  0  0  0  0  0
   38.3020   22.8310   36.1620 C   0  0  0  0  0  0  0  0  0  0  0  0
   38.2950   23.7600   34.9920 C   0  0  0  0  0  0  0  0  0  0  0  0
   38.6990   25.1330   35.6290 C   0  0  1  0  0  0  0  0  0  0  0  0
   39.1372   25.5150   32.6248 H   0  0  0  0  0  0  0  0  0  0  0  0
   40.2253   28.3668   32.2223 H   0  0  0  0  0  0  0  0  0  0  0  0
   40.1696   27.1437   30.9150 H   0  0  0  0  0  0  0  0  0  0  0  0
   41.4716   25.5919   32.4643 H   0  0  0  0  0  0  0  0  0  0  0  0
   42.3845   26.9994   31.9169 H   0  0  0  0  0  0  0  0  0  0  0  0
   42.5618   26.7977   34.4089 H   0  0  0  0  0  0  0  0  0  0  0  0
   41.5983   28.2604   34.0054 H   0  0  0  0  0  0  0  0  0  0  0  0
   40.5810   25.5273   34.8427 H   0  0  0  0  0  0  0  0  0  0  0  0
   40.4830   27.1198   35.7417 H   0  0  0  0  0  0  0  0  0  0  0  0
   38.8259   27.9774   34.2104 H   0  0  0  0  0  0  0  0  0  0  0  0
   36.1279   21.4767   32.0355 H   0  0  0  0  0  0  0  0  0  0  0  0
   35.5960   23.8487   32.5916 H   0  0  0  0  0  0  0  0  0  0  0  0
   39.2499   22.6966   29.4487 H   0  0  0  0  0  0  0  0  0  0  0  0
   38.2919   27.6148   31.1937 H   0  0  0  0  0  0  0  0  0  0  0  0
   36.5115   27.1342   33.7308 H   0  0  0  0  0  0  0  0  0  0  0  0
   37.2503   28.6498   33.4077 H   0  0  0  0  0  0  0  0  0  0  0  0
   34.8079   28.2719   32.3113 H   0  0  0  0  0  0  0  0  0  0  0  0
   35.9654   28.8278   31.1498 H   0  0  0  0  0  0  0  0  0  0  0  0
   35.5807   26.7492   30.1250 H   0  0  0  0  0  0  0  0  0  0  0  0
   34.8595   26.0718   31.6053 H   0  0  0  0  0  0  0  0  0  0  0  0
   37.1076   25.4610   36.8063 H   0  0  0  0  0  0  0  0  0  0  0  0
   38.7109   23.5577   38.1424 H   0  0  0  0  0  0  0  0  0  0  0  0
   36.9771   23.5065   37.7221 H   0  0  0  0  0  0  0  0  0  0  0  0
   39.2896   22.3622   36.2841 H   0  0  0  0  0  0  0  0  0  0  0  0
   37.5862   22.0031   36.0518 H   0  0  0  0  0  0  0  0  0  0  0  0
   37.2952   23.8145   34.5366 H   0  0  0  0  0  0  0  0  0  0  0  0
   38.9692   23.4427   34.1828 H   0  0  0  0  0  0  0  0  0  0  0  0
   39.7805   25.3147   35.7141 H   0  0  0  0  0  0  0  0  0  0  0  0
  1  6  1  0
  2  3  1  0
  2  1  1  0
  3  4  1  0
  4  5  1  0
  6  5  1  0
  6 18  1  0
  7  8  2  0
  9 13  1  0
  9  8  1  0
 10  9  2  0
 11 10  1  0
 11 12  2  0
 12  7  1  0
 13 14  1  0
 14  1  1  0
 14 15  1  0
 16 15  1  0
 17 13  1  0
 17 16  1  0
 19 20  1  0
 21 20  1  0
 22 23  1  0
 22 21  1  0
 23 18  1  0
 23 19  1  0
  1 24  1  1
  2 25  1  0
  2 26  1  0
  3 27  1  0
  3 28  1  0
  4 29  1  0
  4 30  1  0
  5 31  1  0
  5 32  1  0
  6 33  1  6
  7 34  1  0
  8 35  1  0
 11 36  1  0
 14 37  1  6
 15 38  1  0
 15 39  1  0
 16 40  1  0
 16 41  1  0
 17 42  1  0
 17 43  1  0
 19 44  1  0
 20 45  1  0
 20 46  1  0
 21 47  1  0
 21 48  1  0
 22 49  1  0
 22 50  1  0
 23 51  1  1
M  ISO  8  24  13  25  13  26  13  27  13  28  13  29  13  30  13  31  13
M  ISO  8  32  13  33  13  34  14  35  14  36  14  37  13  38  13  39  13
M  ISO  8  40  13  41  13  42  13  43  13  44   5  45  13  46  13  47  13
M  ISO  4  48  13  49  13  50  13  51  13
M  END
>  <minimizedAffinity>  (1) 
-5.32373714

>  <minimizedRMSD>  (1) 
5.18594217

$$$$
