
     RDKit          3D

 48 51  0  0  1  0  0  0  0  0999 V2000
   38.6660   23.0420   36.0500 C   0  0  1  0  0  0  0  0  0  0  0  0
   39.1780   22.8180   37.4630 C   0  0  0  0  0  0  0  0  0  0  0  0
   38.1440   23.3100   38.4260 C   0  0  0  0  0  0  0  0  0  0  0  0
   38.1200   24.8380   38.2680 C   0  0  0  0  0  0  0  0  0  0  0  0
   37.7750   25.2250   36.8690 C   0  0  0  0  0  0  0  0  0  0  0  0
   38.5490   24.4990   35.7790 C   0  0  2  0  0  0  0  0  0  0  0  0
   35.8470   22.2140   31.9500 C   0  0  0  0  0  0  0  0  0  0  0  0
   37.1800   22.4410   32.2910 C   0  0  0  0  0  0  0  0  0  0  0  0
   37.6860   21.7860   33.3980 C   0  0  0  0  0  0  0  0  0  0  0  0
   36.8380   20.9540   34.0880 N   0  0  0  0  0  0  0  0  0  0  0  0
   35.5520   20.7530   33.7360 C   0  0  0  0  0  0  0  0  0  0  0  0
   35.0640   21.3870   32.6650 N   0  0  0  0  0  0  0  0  0  0  0  0
   38.9910   21.8950   33.8740 N   0  0  0  0  0  0  0  0  0  0  0  0
   39.5630   22.3180   35.1310 C   0  0  1  0  0  0  0  0  0  0  0  0
   40.7040   23.1870   34.6150 C   0  0  0  0  0  0  0  0  0  0  0  0
   41.3590   22.1210   33.7140 C   0  0  0  0  0  0  0  0  0  0  0  0
   40.1560   21.5460   33.0490 C   0  0  0  0  0  0  0  0  0  0  0  0
   37.9160   24.7560   34.6020 O   0  0  0  0  0  0  0  0  0  0  0  0
   38.0730   25.7620   33.6680 C   0  0  0  0  0  0  0  0  0  0  0  0
   39.2640   26.1870   33.1120 C   0  0  0  0  0  0  0  0  0  0  0  0
   39.3150   27.2060   32.1810 C   0  0  0  0  0  0  0  0  0  0  0  0
   38.0860   27.7630   31.8540 C   0  0  0  0  0  0  0  0  0  0  0  0
   36.8850   27.3580   32.3910 C   0  0  0  0  0  0  0  0  0  0  0  0
   36.9120   26.3550   33.2970 N   0  0  0  0  0  0  0  0  0  0  0  0
   37.6516   22.6422   35.9046 H   0  0  0  0  0  0  0  0  0  0  0  0
   39.3572   21.7452   37.6270 H   0  0  0  0  0  0  0  0  0  0  0  0
   40.1220   23.3625   37.6127 H   0  0  0  0  0  0  0  0  0  0  0  0
   37.1596   22.8840   38.1821 H   0  0  0  0  0  0  0  0  0  0  0  0
   38.3781   23.0129   39.4589 H   0  0  0  0  0  0  0  0  0  0  0  0
   37.3694   25.2588   38.9532 H   0  0  0  0  0  0  0  0  0  0  0  0
   39.1200   25.2307   38.5040 H   0  0  0  0  0  0  0  0  0  0  0  0
   36.7045   25.0237   36.7159 H   0  0  0  0  0  0  0  0  0  0  0  0
   38.0444   26.2873   36.7743 H   0  0  0  0  0  0  0  0  0  0  0  0
   39.5863   24.8629   35.7397 H   0  0  0  0  0  0  0  0  0  0  0  0
   35.4246   22.7253   31.0724 H   0  0  0  0  0  0  0  0  0  0  0  0
   37.8093   23.1203   31.6973 H   0  0  0  0  0  0  0  0  0  0  0  0
   34.9129   20.0764   34.3223 H   0  0  0  0  0  0  0  0  0  0  0  0
   39.8447   21.4722   35.7754 H   0  0  0  0  0  0  0  0  0  0  0  0
   40.3459   24.0572   34.0453 H   0  0  0  0  0  0  0  0  0  0  0  0
   41.3490   23.6543   35.3737 H   0  0  0  0  0  0  0  0  0  0  0  0
   42.0477   22.5735   32.9854 H   0  0  0  0  0  0  0  0  0  0  0  0
   41.9791   21.3876   34.2504 H   0  0  0  0  0  0  0  0  0  0  0  0
   40.0440   21.9712   32.0407 H   0  0  0  0  0  0  0  0  0  0  0  0
   40.2502   20.4545   32.9506 H   0  0  0  0  0  0  0  0  0  0  0  0
   40.2004   25.6990   33.4201 H   0  0  0  0  0  0  0  0  0  0  0  0
   40.2585   27.5504   31.7323 H   0  0  0  0  0  0  0  0  0  0  0  0
   38.0711   28.5807   31.1184 H   0  0  0  0  0  0  0  0  0  0  0  0
   35.9383   27.8329   32.0939 H   0  0  0  0  0  0  0  0  0  0  0  0
  1  2  1  0
  2  3  1  0
  4  3  1  0
  5  4  1  0
  6  1  1  0
  6  5  1  0
  7  8  2  0
  7 12  1  0
  8  9  1  0
  9 13  1  0
  9 10  2  0
 11 10  1  0
 12 11  2  0
 13 14  1  0
 14  1  1  0
 15 14  1  0
 16 15  1  0
 17 16  1  0
 17 13  1  0
 18  6  1  0
 19 18  1  0
 20 19  2  0
 21 20  1  0
 22 21  2  0
 22 23  1  0
 23 24  2  0
 24 19  1  0
  1 25  1  1
  2 26  1  0
  2 27  1  0
  3 28  1  0
  3 29  1  0
  4 30  1  0
  4 31  1  0
  5 32  1  0
  5 33  1  0
  6 34  1  6
  7 35  1  0
  8 36  1  0
 11 37  1  0
 14 38  1  1
 15 39  1  0
 15 40  1  0
 16 41  1  0
 16 42  1  0
 17 43  1  0
 17 44  1  0
 20 45  1  0
 21 46  1  0
 22 47  1  0
 23 48  1  0
M  ISO  8  25  13  26  13  27  13  28  13  29  13  30  13  31  13  32  13
M  ISO  8  33  13  34  13  35  14  36  14  37  14  38  13  39  13  40  13
M  ISO  8  41  13  42  13  43  13  44  13  45  14  46  14  47  14  48  14
M  END
>  <minimizedAffinity>  (1) 
-5.30397749

>  <minimizedRMSD>  (1) 
5.84691143

$$$$
