
     RDKit          3D

 49 52  0  0  1  0  0  0  0  0999 V2000
   39.0430   25.9240   32.4890 C   0  0  1  0  0  0  0  0  0  0  0  0
   39.8800   27.0070   31.8370 C   0  0  0  0  0  0  0  0  0  0  0  0
   41.2750   26.9380   32.4070 C   0  0  0  0  0  0  0  0  0  0  0  0
   41.1390   27.3940   33.8640 C   0  0  0  0  0  0  0  0  0  0  0  0
   40.2310   26.4700   34.6110 C   0  0  0  0  0  0  0  0  0  0  0  0
   38.8850   26.1960   33.9460 C   0  0  2  0  0  0  0  0  0  0  0  0
   37.5360   21.1470   33.1160 C   0  0  0  0  0  0  0  0  0  0  0  0
   36.9870   22.4170   32.9430 C   0  0  0  0  0  0  0  0  0  0  0  0
   37.5590   23.2450   32.0010 C   0  0  0  0  0  0  0  0  0  0  0  0
   38.6330   22.7620   31.2970 N   0  0  0  0  0  0  0  0  0  0  0  0
   39.1490   21.5300   31.4800 C   0  0  0  0  0  0  0  0  0  0  0  0
   38.5880   20.7250   32.3990 N   0  0  0  0  0  0  0  0  0  0  0  0
   37.1330   24.5410   31.6990 N   0  0  0  0  0  0  0  0  0  0  0  0
   37.7780   25.8320   31.7430 C   0  0  1  0  0  0  0  0  0  0  0  0
   36.6550   26.6500   32.3780 C   0  0  0  0  0  0  0  0  0  0  0  0
   35.5760   26.3020   31.3250 C   0  0  0  0  0  0  0  0  0  0  0  0
   35.7810   24.8250   31.2240 C   0  0  0  0  0  0  0  0  0  0  0  0
   38.3340   25.1420   34.5960 O   0  0  0  0  0  0  0  0  0  0  0  0
   38.4120   24.6340   35.8650 C   0  0  0  0  0  0  0  0  0  0  0  0
   37.8420   25.0400   37.0630 C   0  0  0  0  0  0  0  0  0  0  0  0
   38.0960   24.3290   38.2000 C   0  0  0  0  0  0  0  0  0  0  0  0
   38.8930   23.2230   38.2270 C   0  0  0  0  0  0  0  0  0  0  0  0
   39.4780   22.7880   37.0620 C   0  0  0  0  0  0  0  0  0  0  0  0
   39.2330   23.4980   35.8840 C   0  0  0  0  0  0  0  0  0  0  0  0
   39.5311   24.9394   32.4413 H   0  0  0  0  0  0  0  0  0  0  0  0
   39.4409   27.9933   32.0476 H   0  0  0  0  0  0  0  0  0  0  0  0
   39.9089   26.8581   30.7475 H   0  0  0  0  0  0  0  0  0  0  0  0
   41.6602   25.9087   32.3597 H   0  0  0  0  0  0  0  0  0  0  0  0
   41.9798   27.5676   31.8441 H   0  0  0  0  0  0  0  0  0  0  0  0
   42.1309   27.3920   34.3396 H   0  0  0  0  0  0  0  0  0  0  0  0
   40.7150   28.4088   33.8847 H   0  0  0  0  0  0  0  0  0  0  0  0
   40.7511   25.5085   34.7333 H   0  0  0  0  0  0  0  0  0  0  0  0
   40.0024   26.9730   35.5622 H   0  0  0  0  0  0  0  0  0  0  0  0
   38.2292   27.0764   34.0161 H   0  0  0  0  0  0  0  0  0  0  0  0
   37.0932   20.4713   33.8626 H   0  0  0  0  0  0  0  0  0  0  0  0
   36.1242   22.7479   33.5397 H   0  0  0  0  0  0  0  0  0  0  0  0
   40.0122   21.1901   30.8889 H   0  0  0  0  0  0  0  0  0  0  0  0
   38.1346   26.1598   30.7554 H   0  0  0  0  0  0  0  0  0  0  0  0
   36.3922   26.2979   33.3864 H   0  0  0  0  0  0  0  0  0  0  0  0
   36.8536   27.7173   32.5553 H   0  0  0  0  0  0  0  0  0  0  0  0
   34.5646   26.5508   31.6789 H   0  0  0  0  0  0  0  0  0  0  0  0
   35.6624   26.8484   30.3742 H   0  0  0  0  0  0  0  0  0  0  0  0
   35.0442   24.2990   31.8488 H   0  0  0  0  0  0  0  0  0  0  0  0
   35.6530   24.4840   30.1861 H   0  0  0  0  0  0  0  0  0  0  0  0
   37.1916   25.9265   37.0961 H   0  0  0  0  0  0  0  0  0  0  0  0
   37.6351   24.6647   39.1407 H   0  0  0  0  0  0  0  0  0  0  0  0
   39.0658   22.6849   39.1707 H   0  0  0  0  0  0  0  0  0  0  0  0
   40.1259   21.8990   37.0571 H   0  0  0  0  0  0  0  0  0  0  0  0
   39.6966   23.1566   34.9467 H   0  0  0  0  0  0  0  0  0  0  0  0
  1  6  1  0
  2  3  1  0
  2  1  1  0
  3  4  1  0
  4  5  1  0
  6 18  1  0
  6  5  1  0
  8  7  2  0
  9  8  1  0
 10 11  1  0
 10  9  2  0
 11 12  2  0
 12  7  1  0
 13 14  1  0
 13  9  1  0
 14 15  1  0
 14  1  1  0
 16 15  1  0
 17 16  1  0
 17 13  1  0
 18 19  1  0
 19 24  1  0
 19 20  2  0
 20 21  1  0
 21 22  2  0
 23 22  1  0
 24 23  2  0
  1 25  1  1
  2 26  1  0
  2 27  1  0
  3 28  1  0
  3 29  1  0
  4 30  1  0
  4 31  1  0
  5 32  1  0
  5 33  1  0
  6 34  1  6
  7 35  1  0
  8 36  1  0
 11 37  1  0
 14 38  1  6
 15 39  1  0
 15 40  1  0
 16 41  1  0
 16 42  1  0
 17 43  1  0
 17 44  1  0
 20 45  1  0
 21 46  1  0
 22 47  1  0
 23 48  1  0
 24 49  1  0
M  ISO  8  25  13  26  13  27  13  28  13  29  13  30  13  31  13  32  13
M  ISO  8  33  13  34  13  35  14  36  14  37  14  38  13  39  13  40  13
M  ISO  8  41  13  42  13  43  13  44  13  45  14  46  14  47  14  48  14
M  ISO  1  49  14
M  END
>  <minimizedAffinity>  (1) 
-5.57920551

>  <minimizedRMSD>  (1) 
4.61751556

$$$$
