
     RDKit          3D

 46 49  0  0  1  0  0  0  0  0999 V2000
   39.0270   26.5120   32.6450 C   0  0  1  0  0  0  0  0  0  0  0  0
   40.2330   27.2670   32.1140 C   0  0  0  0  0  0  0  0  0  0  0  0
   41.4720   26.6490   32.6800 C   0  0  0  0  0  0  0  0  0  0  0  0
   41.4450   26.9700   34.1840 C   0  0  0  0  0  0  0  0  0  0  0  0
   40.2250   26.4040   34.8290 C   0  0  0  0  0  0  0  0  0  0  0  0
   38.9130   26.7090   34.1130 C   0  0  2  0  0  0  0  0  0  0  0  0
   36.4080   22.2780   31.8090 C   0  0  0  0  0  0  0  0  0  0  0  0
   36.1880   23.6410   32.0040 C   0  0  0  0  0  0  0  0  0  0  0  0
   37.0220   24.5330   31.3580 C   0  0  0  0  0  0  0  0  0  0  0  0
   38.0160   24.0170   30.5640 N   0  0  0  0  0  0  0  0  0  0  0  0
   38.2130   22.6970   30.3870 C   0  0  0  0  0  0  0  0  0  0  0  0
   37.3990   21.8310   31.0190 N   0  0  0  0  0  0  0  0  0  0  0  0
   36.9340   25.9220   31.4430 N   0  0  0  0  0  0  0  0  0  0  0  0
   37.8510   26.9510   31.8760 C   0  0  1  0  0  0  0  0  0  0  0  0
   36.8950   27.8130   32.6970 C   0  0  0  0  0  0  0  0  0  0  0  0
   35.8480   28.0410   31.5870 C   0  0  0  0  0  0  0  0  0  0  0  0
   35.7230   26.6550   31.0490 C   0  0  0  0  0  0  0  0  0  0  0  0
   37.9680   25.8970   34.6710 O   0  0  0  0  0  0  0  0  0  0  0  0
   38.0580   24.7280   35.3670 C   0  0  0  0  0  0  0  0  0  0  0  0
   38.3620   23.4500   34.9360 C   0  0  0  0  0  0  0  0  0  0  0  0
   38.3180   22.6550   36.0200 N   0  0  0  0  0  0  0  0  0  0  0  0
   37.9980   23.4110   37.0810 C   0  0  0  0  0  0  0  0  0  0  0  0
   37.8290   24.7120   36.7080 N   0  0  0  0  0  0  0  0  0  0  0  0
   39.1225   25.4246   32.5089 H   0  0  0  0  0  0  0  0  0  0  0  0
   40.2558   27.2033   31.0161 H   0  0  0  0  0  0  0  0  0  0  0  0
   40.1730   28.3250   32.4091 H   0  0  0  0  0  0  0  0  0  0  0  0
   41.4660   25.5608   32.5196 H   0  0  0  0  0  0  0  0  0  0  0  0
   42.3792   27.0405   32.1967 H   0  0  0  0  0  0  0  0  0  0  0  0
   42.3373   26.5376   34.6603 H   0  0  0  0  0  0  0  0  0  0  0  0
   41.4330   28.0628   34.3092 H   0  0  0  0  0  0  0  0  0  0  0  0
   40.3409   25.3112   34.8769 H   0  0  0  0  0  0  0  0  0  0  0  0
   40.1522   26.8809   35.8175 H   0  0  0  0  0  0  0  0  0  0  0  0
   38.6343   27.7657   34.2384 H   0  0  0  0  0  0  0  0  0  0  0  0
   35.7547   21.5512   32.3139 H   0  0  0  0  0  0  0  0  0  0  0  0
   35.3740   23.9957   32.6533 H   0  0  0  0  0  0  0  0  0  0  0  0
   39.0235   22.3332   29.7384 H   0  0  0  0  0  0  0  0  0  0  0  0
   38.3617   27.4438   31.0355 H   0  0  0  0  0  0  0  0  0  0  0  0
   36.4807   27.2749   33.5623 H   0  0  0  0  0  0  0  0  0  0  0  0
   37.3212   28.7129   33.1644 H   0  0  0  0  0  0  0  0  0  0  0  0
   34.8944   28.4063   31.9959 H   0  0  0  0  0  0  0  0  0  0  0  0
   36.1256   28.8008   30.8415 H   0  0  0  0  0  0  0  0  0  0  0  0
   35.6400   26.6830   29.9525 H   0  0  0  0  0  0  0  0  0  0  0  0
   34.8233   26.1627   31.4468 H   0  0  0  0  0  0  0  0  0  0  0  0
   38.5948   23.1428   33.9058 H   0  0  0  0  0  0  0  0  0  0  0  0
   37.8873   23.0342   38.1085 H   0  0  0  0  0  0  0  0  0  0  0  0
   37.5816   25.5096   37.3109 H   0  0  0  0  0  0  0  0  0  0  0  0
  1  6  1  0
  2  1  1  0
  2  3  1  0
  3  4  1  0
  4  5  1  0
  6 18  1  0
  6  5  1  0
  7  8  2  0
  9 13  1  0
  9  8  1  0
 10  9  2  0
 11 10  1  0
 11 12  2  0
 12  7  1  0
 13 14  1  0
 14  1  1  0
 14 15  1  0
 16 15  1  0
 17 13  1  0
 17 16  1  0
 18 19  1  0
 19 23  1  0
 20 19  2  0
 20 21  1  0
 21 22  2  0
 23 22  1  0
  1 24  1  1
  2 25  1  0
  2 26  1  0
  3 27  1  0
  3 28  1  0
  4 29  1  0
  4 30  1  0
  5 31  1  0
  5 32  1  0
  6 33  1  6
  7 34  1  0
  8 35  1  0
 11 36  1  0
 14 37  1  6
 15 38  1  0
 15 39  1  0
 16 40  1  0
 16 41  1  0
 17 42  1  0
 17 43  1  0
 20 44  1  0
 22 45  1  0
 23 46  1  0
M  ISO  8  24  13  25  13  26  13  27  13  28  13  29  13  30  13  31  13
M  ISO  8  32  13  33  13  34  14  35  14  36  14  37  13  38  13  39  13
M  ISO  7  40  13  41  13  42  13  43  13  44  14  45  14  46   9
M  END
>  <minimizedAffinity>  (1) 
-5.21418619

>  <minimizedRMSD>  (1) 
5.09638929

$$$$
