
     RDKit          3D

 44 47  0  0  1  0  0  0  0  0999 V2000
   38.9250   26.5860   32.7940 C   0  0  1  0  0  0  0  0  0  0  0  0
   40.1460   27.2200   32.1510 C   0  0  0  0  0  0  0  0  0  0  0  0
   41.3720   26.5650   32.7170 C   0  0  0  0  0  0  0  0  0  0  0  0
   41.4380   27.0110   34.1830 C   0  0  0  0  0  0  0  0  0  0  0  0
   40.2230   26.5680   34.9210 C   0  0  0  0  0  0  0  0  0  0  0  0
   38.8940   26.9110   34.2480 C   0  0  2  0  0  0  0  0  0  0  0  0
   36.4280   22.3380   31.6910 C   0  0  0  0  0  0  0  0  0  0  0  0
   36.1650   23.6790   31.9740 C   0  0  0  0  0  0  0  0  0  0  0  0
   36.9770   24.6310   31.3820 C   0  0  0  0  0  0  0  0  0  0  0  0
   37.9850   24.1950   30.5580 N   0  0  0  0  0  0  0  0  0  0  0  0
   38.2160   22.8930   30.3030 C   0  0  0  0  0  0  0  0  0  0  0  0
   37.4260   21.9640   30.8790 N   0  0  0  0  0  0  0  0  0  0  0  0
   36.8530   26.0110   31.5510 N   0  0  0  0  0  0  0  0  0  0  0  0
   37.7360   27.0350   32.0490 C   0  0  1  0  0  0  0  0  0  0  0  0
   36.7530   27.8120   32.9190 C   0  0  0  0  0  0  0  0  0  0  0  0
   35.7020   28.0830   31.8190 C   0  0  0  0  0  0  0  0  0  0  0  0
   35.6230   26.7300   31.1960 C   0  0  0  0  0  0  0  0  0  0  0  0
   37.9450   26.1750   34.9060 O   0  0  0  0  0  0  0  0  0  0  0  0
   38.0240   24.9150   35.4340 C   0  0  0  0  0  0  0  0  0  0  0  0
   38.2470   23.6880   34.9240 N   0  0  0  0  0  0  0  0  0  0  0  0
   38.2220   22.7900   35.8650 O   0  0  0  0  0  0  0  0  0  0  0  0
   37.9860   23.4030   36.9830 C   0  0  0  0  0  0  0  0  0  0  0  0
   37.8580   24.7200   36.7500 N   0  0  0  0  0  0  0  0  0  0  0  0
   38.9529   25.4877   32.7396 H   0  0  0  0  0  0  0  0  0  0  0  0
   40.1649   28.2975   32.3714 H   0  0  0  0  0  0  0  0  0  0  0  0
   40.1133   27.0830   31.0601 H   0  0  0  0  0  0  0  0  0  0  0  0
   41.2872   25.4702   32.6521 H   0  0  0  0  0  0  0  0  0  0  0  0
   42.2786   26.8506   32.1633 H   0  0  0  0  0  0  0  0  0  0  0  0
   42.3284   26.5703   34.6552 H   0  0  0  0  0  0  0  0  0  0  0  0
   41.4930   28.1091   34.2174 H   0  0  0  0  0  0  0  0  0  0  0  0
   40.2742   25.4753   35.0368 H   0  0  0  0  0  0  0  0  0  0  0  0
   40.2309   27.1110   35.8776 H   0  0  0  0  0  0  0  0  0  0  0  0
   38.6773   27.9878   34.3084 H   0  0  0  0  0  0  0  0  0  0  0  0
   35.7957   21.5632   32.1492 H   0  0  0  0  0  0  0  0  0  0  0  0
   35.3419   23.9691   32.6436 H   0  0  0  0  0  0  0  0  0  0  0  0
   39.0365   22.5918   29.6351 H   0  0  0  0  0  0  0  0  0  0  0  0
   38.2331   27.5938   31.2424 H   0  0  0  0  0  0  0  0  0  0  0  0
   36.3515   27.2060   33.7446 H   0  0  0  0  0  0  0  0  0  0  0  0
   37.1510   28.6910   33.4471 H   0  0  0  0  0  0  0  0  0  0  0  0
   34.7364   28.3932   32.2448 H   0  0  0  0  0  0  0  0  0  0  0  0
   35.9572   28.8978   31.1255 H   0  0  0  0  0  0  0  0  0  0  0  0
   35.5442   26.8234   30.1028 H   0  0  0  0  0  0  0  0  0  0  0  0
   34.7374   26.1869   31.5575 H   0  0  0  0  0  0  0  0  0  0  0  0
   37.9035   22.9203   37.9680 H   0  0  0  0  0  0  0  0  0  0  0  0
  1  6  1  0
  2  3  1  0
  2  1  1  0
  3  4  1  0
  4  5  1  0
  6 18  1  0
  6  5  1  0
  7  8  2  0
  9 13  1  0
  9  8  1  0
 10  9  2  0
 11 10  1  0
 11 12  2  0
 12  7  1  0
 13 14  1  0
 14  1  1  0
 14 15  1  0
 16 15  1  0
 17 13  1  0
 17 16  1  0
 18 19  1  0
 19 23  1  0
 20 19  2  0
 20 21  1  0
 21 22  1  0
 23 22  2  0
  1 24  1  1
  2 25  1  0
  2 26  1  0
  3 27  1  0
  3 28  1  0
  4 29  1  0
  4 30  1  0
  5 31  1  0
  5 32  1  0
  6 33  1  6
  7 34  1  0
  8 35  1  0
 11 36  1  0
 14 37  1  6
 15 38  1  0
 15 39  1  0
 16 40  1  0
 16 41  1  0
 17 42  1  0
 17 43  1  0
 22 44  1  0
M  ISO  8  24  13  25  13  26  13  27  13  28  13  29  13  30  13  31  13
M  ISO  8  32  13  33  13  34  14  35  14  36  14  37  13  38  13  39  13
M  ISO  5  40  13  41  13  42  13  43  13  44  14
M  END
>  <minimizedAffinity>  (1) 
-5.29149532

>  <minimizedRMSD>  (1) 
5.17638683

$$$$
