
     RDKit          3D

 46 49  0  0  1  0  0  0  0  0999 V2000
   38.9280   23.5070   32.5950 C   0  0  1  0  0  0  0  0  0  0  0  0
   40.1480   23.8190   31.7360 C   0  0  0  0  0  0  0  0  0  0  0  0
   41.3290   23.0960   32.3020 C   0  0  0  0  0  0  0  0  0  0  0  0
   41.6210   23.7620   33.6520 C   0  0  0  0  0  0  0  0  0  0  0  0
   40.4480   23.6490   34.5620 C   0  0  0  0  0  0  0  0  0  0  0  0
   39.1120   24.0780   33.9560 C   0  0  2  0  0  0  0  0  0  0  0  0
   35.4820   19.8630   33.1320 C   0  0  0  0  0  0  0  0  0  0  0  0
   35.5410   21.2510   33.0100 C   0  0  0  0  0  0  0  0  0  0  0  0
   36.4130   21.7750   32.0690 C   0  0  0  0  0  0  0  0  0  0  0  0
   37.1590   20.8890   31.3230 N   0  0  0  0  0  0  0  0  0  0  0  0
   37.0730   19.5540   31.4710 C   0  0  0  0  0  0  0  0  0  0  0  0
   36.2340   19.0480   32.3770 N   0  0  0  0  0  0  0  0  0  0  0  0
   36.5980   23.1340   31.8150 N   0  0  0  0  0  0  0  0  0  0  0  0
   37.7430   24.0110   31.8790 C   0  0  1  0  0  0  0  0  0  0  0  0
   37.1000   25.2070   32.5770 C   0  0  0  0  0  0  0  0  0  0  0  0
   35.9420   25.4160   31.5840 C   0  0  0  0  0  0  0  0  0  0  0  0
   35.5000   24.0050   31.3800 C   0  0  0  0  0  0  0  0  0  0  0  0
   38.1480   23.6550   34.8200 O   0  0  0  0  0  0  0  0  0  0  0  0
   38.0250   23.7060   36.1740 C   0  0  0  0  0  0  0  0  0  0  0  0
   38.0720   24.9150   36.8780 C   0  0  0  0  0  0  0  0  0  0  0  0
   37.9170   24.5910   38.2030 C   0  0  0  0  0  0  0  0  0  0  0  0
   37.7850   23.2210   38.2360 C   0  0  0  0  0  0  0  0  0  0  0  0
   37.8530   22.7240   37.0220 O   0  0  0  0  0  0  0  0  0  0  0  0
   38.7890   22.4270   32.7510 H   0  0  0  0  0  0  0  0  0  0  0  0
   40.3387   24.9023   31.7430 H   0  0  0  0  0  0  0  0  0  0  0  0
   39.9705   23.4947   30.7000 H   0  0  0  0  0  0  0  0  0  0  0  0
   41.0939   22.0308   32.4436 H   0  0  0  0  0  0  0  0  0  0  0  0
   42.1970   23.1502   31.6284 H   0  0  0  0  0  0  0  0  0  0  0  0
   42.4873   23.2691   34.1174 H   0  0  0  0  0  0  0  0  0  0  0  0
   41.8331   24.8277   33.4809 H   0  0  0  0  0  0  0  0  0  0  0  0
   40.3587   22.5978   34.8735 H   0  0  0  0  0  0  0  0  0  0  0  0
   40.6409   24.3391   35.3966 H   0  0  0  0  0  0  0  0  0  0  0  0
   39.0644   25.1693   33.8264 H   0  0  0  0  0  0  0  0  0  0  0  0
   34.7968   19.4223   33.8711 H   0  0  0  0  0  0  0  0  0  0  0  0
   34.9184   21.9057   33.6375 H   0  0  0  0  0  0  0  0  0  0  0  0
   37.6887   18.8861   30.8507 H   0  0  0  0  0  0  0  0  0  0  0  0
   38.1932   24.1935   30.8921 H   0  0  0  0  0  0  0  0  0  0  0  0
   36.7455   24.9611   33.5888 H   0  0  0  0  0  0  0  0  0  0  0  0
   37.7509   26.0750   32.7586 H   0  0  0  0  0  0  0  0  0  0  0  0
   35.1417   26.0335   32.0177 H   0  0  0  0  0  0  0  0  0  0  0  0
   36.2196   25.9471   30.6616 H   0  0  0  0  0  0  0  0  0  0  0  0
   34.5998   23.8027   31.9789 H   0  0  0  0  0  0  0  0  0  0  0  0
   35.2557   23.8235   30.3230 H   0  0  0  0  0  0  0  0  0  0  0  0
   38.2061   25.9215   36.4549 H   0  0  0  0  0  0  0  0  0  0  0  0
   37.9015   25.2815   39.0591 H   0  0  0  0  0  0  0  0  0  0  0  0
   37.6426   22.6263   39.1503 H   0  0  0  0  0  0  0  0  0  0  0  0
  1  6  1  0
  2  3  1  0
  2  1  1  0
  3  4  1  0
  4  5  1  0
  6  5  1  0
  6 18  1  0
  8  7  2  0
  9  8  1  0
 10 11  1  0
 10  9  2  0
 11 12  2  0
 12  7  1  0
 13 14  1  0
 13  9  1  0
 14 15  1  0
 14  1  1  0
 16 15  1  0
 17 16  1  0
 17 13  1  0
 18 19  1  0
 19 20  2  0
 19 23  1  0
 20 21  1  0
 21 22  2  0
 23 22  1  0
  1 24  1  1
  2 25  1  0
  2 26  1  0
  3 27  1  0
  3 28  1  0
  4 29  1  0
  4 30  1  0
  5 31  1  0
  5 32  1  0
  6 33  1  6
  7 34  1  0
  8 35  1  0
 11 36  1  0
 14 37  1  6
 15 38  1  0
 15 39  1  0
 16 40  1  0
 16 41  1  0
 17 42  1  0
 17 43  1  0
 20 44  1  0
 21 45  1  0
 22 46  1  0
M  ISO  8  24  13  25  13  26  13  27  13  28  13  29  13  30  13  31  13
M  ISO  8  32  13  33  13  34  14  35  14  36  14  37  13  38  13  39  13
M  ISO  7  40  13  41  13  42  13  43  13  44  14  45  14  46  14
M  END
>  <minimizedAffinity>  (1) 
-5.05827236

>  <minimizedRMSD>  (1) 
3.77760506

$$$$
