
     RDKit          3D

 42 44  0  0  1  0  0  0  0  0999 V2000
   39.5850   17.5630   31.4350 C   0  0  0  0  0  0  0  0  0  0  0  0
   38.3560   18.1070   31.8140 C   0  0  0  0  0  0  0  0  0  0  0  0
   38.1860   19.4710   31.6620 C   0  0  0  0  0  0  0  0  0  0  0  0
   39.2350   20.1960   31.1490 N   0  0  0  0  0  0  0  0  0  0  0  0
   40.4100   19.6460   30.7900 C   0  0  0  0  0  0  0  0  0  0  0  0
   40.5750   18.3140   30.9400 N   0  0  0  0  0  0  0  0  0  0  0  0
   37.0260   20.1780   31.9790 N   0  0  0  0  0  0  0  0  0  0  0  0
   36.7460   21.2730   32.8740 C   0  0  1  0  0  0  0  0  0  0  0  0
   35.4380   20.7810   33.4770 C   0  0  0  0  0  0  0  0  0  0  0  0
   34.6760   20.5440   32.1700 C   0  0  0  0  0  0  0  0  0  0  0  0
   35.7300   19.8690   31.3610 C   0  0  0  0  0  0  0  0  0  0  0  0
   37.7670   21.5760   33.8930 C   0  0  1  0  0  0  0  0  0  0  0  0
   38.6710   22.6570   33.3240 C   0  0  0  0  0  0  0  0  0  0  0  0
   39.8620   22.8080   34.2100 C   0  0  0  0  0  0  0  0  0  0  0  0
   39.3240   23.4240   35.5070 C   0  0  0  0  0  0  0  0  0  0  0  0
   38.3390   22.4880   36.1470 C   0  0  0  0  0  0  0  0  0  0  0  0
   37.2180   22.0060   35.2000 C   0  0  2  0  0  0  0  0  0  0  0  0
   36.5640   21.0390   35.8520 O   0  0  0  0  0  0  0  0  0  0  0  0
   35.7640   21.1640   36.8960 C   0  0  0  0  0  0  0  0  0  0  0  0
   36.2900   22.2170   37.6850 F   0  0  0  0  0  0  0  0  0  0  0  0
   34.5030   21.7310   36.5470 F   0  0  0  0  0  0  0  0  0  0  0  0
   35.5700   20.1160   37.7240 F   0  0  0  0  0  0  0  0  0  0  0  0
   39.7443   16.4804   31.5473 H   0  0  0  0  0  0  0  0  0  0  0  0
   37.5526   17.4738   32.2186 H   0  0  0  0  0  0  0  0  0  0  0  0
   41.2197   20.2691   30.3825 H   0  0  0  0  0  0  0  0  0  0  0  0
   36.7156   22.2437   32.3575 H   0  0  0  0  0  0  0  0  0  0  0  0
   35.5687   19.8553   34.0567 H   0  0  0  0  0  0  0  0  0  0  0  0
   34.9566   21.4551   34.2008 H   0  0  0  0  0  0  0  0  0  0  0  0
   33.8016   19.8940   32.3216 H   0  0  0  0  0  0  0  0  0  0  0  0
   34.2572   21.4522   31.7119 H   0  0  0  0  0  0  0  0  0  0  0  0
   35.7079   20.2441   30.3272 H   0  0  0  0  0  0  0  0  0  0  0  0
   35.5622   18.7822   31.3353 H   0  0  0  0  0  0  0  0  0  0  0  0
   38.3142   20.6461   34.1073 H   0  0  0  0  0  0  0  0  0  0  0  0
   38.9969   22.3712   32.3130 H   0  0  0  0  0  0  0  0  0  0  0  0
   38.1238   23.6097   33.2702 H   0  0  0  0  0  0  0  0  0  0  0  0
   40.3207   21.8283   34.4097 H   0  0  0  0  0  0  0  0  0  0  0  0
   40.6397   23.4348   33.7494 H   0  0  0  0  0  0  0  0  0  0  0  0
   40.1595   23.6036   36.1995 H   0  0  0  0  0  0  0  0  0  0  0  0
   38.8222   24.3751   35.2754 H   0  0  0  0  0  0  0  0  0  0  0  0
   38.8868   21.6061   36.5104 H   0  0  0  0  0  0  0  0  0  0  0  0
   37.8498   23.0487   36.9571 H   0  0  0  0  0  0  0  0  0  0  0  0
   36.5172   22.8155   34.9479 H   0  0  0  0  0  0  0  0  0  0  0  0
  1  2  2  0
  3  2  1  0
  3  7  1  0
  4  3  2  0
  5  6  2  0
  5  4  1  0
  6  1  1  0
  7  8  1  0
  8  9  1  0
  8 12  1  0
 10  9  1  0
 11  7  1  0
 11 10  1  0
 12 17  1  0
 13 12  1  0
 13 14  1  0
 14 15  1  0
 15 16  1  0
 17 18  1  0
 17 16  1  0
 18 19  1  0
 19 20  1  0
 19 22  1  0
 21 19  1  0
  1 23  1  0
  2 24  1  0
  5 25  1  0
  8 26  1  6
  9 27  1  0
  9 28  1  0
 10 29  1  0
 10 30  1  0
 11 31  1  0
 11 32  1  0
 12 33  1  1
 13 34  1  0
 13 35  1  0
 14 36  1  0
 14 37  1  0
 15 38  1  0
 15 39  1  0
 16 40  1  0
 16 41  1  0
 17 42  1  6
M  ISO  8  23  14  24  14  25  14  26  13  27  13  28  13  29  13  30  13
M  ISO  8  31  13  32  13  33  13  34  13  35  13  36  13  37  13  38  13
M  ISO  4  39  13  40  13  41  13  42  13
M  END
>  <minimizedAffinity>  (1) 
-3.62922025

>  <minimizedRMSD>  (1) 
0.822592974

$$$$
