
     RDKit          3D

 48 50  0  0  1  0  0  0  0  0999 V2000
   36.6840   21.9500   31.6680 C   0  0  0  0  0  0  0  0  0  0  0  0
   36.3700   23.2730   31.9690 C   0  0  0  0  0  0  0  0  0  0  0  0
   37.0850   24.2700   31.3450 C   0  0  0  0  0  0  0  0  0  0  0  0
   38.0630   23.8810   30.4630 N   0  0  0  0  0  0  0  0  0  0  0  0
   38.3500   22.5970   30.1860 C   0  0  0  0  0  0  0  0  0  0  0  0
   37.6540   21.6350   30.7950 N   0  0  0  0  0  0  0  0  0  0  0  0
   36.8980   25.6390   31.5250 N   0  0  0  0  0  0  0  0  0  0  0  0
   37.7650   26.7110   31.9650 C   0  0  1  0  0  0  0  0  0  0  0  0
   36.7960   27.4410   32.8770 C   0  0  0  0  0  0  0  0  0  0  0  0
   35.6660   27.6520   31.8620 C   0  0  0  0  0  0  0  0  0  0  0  0
   35.6120   26.2920   31.2560 C   0  0  0  0  0  0  0  0  0  0  0  0
   39.0130   26.3210   32.6440 C   0  0  1  0  0  0  0  0  0  0  0  0
   40.0850   27.2910   32.1830 C   0  0  0  0  0  0  0  0  0  0  0  0
   41.4170   26.7730   32.6360 C   0  0  0  0  0  0  0  0  0  0  0  0
   41.4160   26.9190   34.1520 C   0  0  0  0  0  0  0  0  0  0  0  0
   40.3210   26.0850   34.7530 C   0  0  0  0  0  0  0  0  0  0  0  0
   38.9290   26.3110   34.1240 C   0  0  2  0  0  0  0  0  0  0  0  0
   38.1190   25.3620   34.5950 O   0  0  0  0  0  0  0  0  0  0  0  0
   38.3600   24.4690   35.5230 C   0  0  0  0  0  0  0  0  0  0  0  0
   38.1610   22.9990   35.0360 C   0  0  0  0  0  0  0  0  0  0  0  0
   37.6590   24.5340   36.8140 C   0  0  0  0  0  0  0  0  0  0  0  0
   36.1222   21.1415   32.1587 H   0  0  0  0  0  0  0  0  0  0  0  0
   35.5719   23.5148   32.6863 H   0  0  0  0  0  0  0  0  0  0  0  0
   39.1452   22.3438   29.4694 H   0  0  0  0  0  0  0  0  0  0  0  0
   38.1941   27.2874   31.1322 H   0  0  0  0  0  0  0  0  0  0  0  0
   36.4799   26.8224   33.7299 H   0  0  0  0  0  0  0  0  0  0  0  0
   37.1823   28.3480   33.3651 H   0  0  0  0  0  0  0  0  0  0  0  0
   34.7189   27.9186   32.3538 H   0  0  0  0  0  0  0  0  0  0  0  0
   35.8290   28.4731   31.1484 H   0  0  0  0  0  0  0  0  0  0  0  0
   35.4501   26.3704   30.1708 H   0  0  0  0  0  0  0  0  0  0  0  0
   34.7837   25.7089   31.6849 H   0  0  0  0  0  0  0  0  0  0  0  0
   39.2419   25.2798   32.3728 H   0  0  0  0  0  0  0  0  0  0  0  0
   39.9028   28.2827   32.6226 H   0  0  0  0  0  0  0  0  0  0  0  0
   40.0672   27.3817   31.0869 H   0  0  0  0  0  0  0  0  0  0  0  0
   41.5359   25.7171   32.3515 H   0  0  0  0  0  0  0  0  0  0  0  0
   42.2484   27.3250   32.1733 H   0  0  0  0  0  0  0  0  0  0  0  0
   42.3861   26.5861   34.5497 H   0  0  0  0  0  0  0  0  0  0  0  0
   41.2461   27.9746   34.4107 H   0  0  0  0  0  0  0  0  0  0  0  0
   40.5874   25.0252   34.6274 H   0  0  0  0  0  0  0  0  0  0  0  0
   40.2411   26.3848   35.8083 H   0  0  0  0  0  0  0  0  0  0  0  0
   38.5232   27.2957   34.3992 H   0  0  0  0  0  0  0  0  0  0  0  0
   39.4052   24.7552   35.7117 H   0  0  0  0  0  0  0  0  0  0  0  0
   38.0709   22.3332   35.9070 H   0  0  0  0  0  0  0  0  0  0  0  0
   37.2459   22.9345   34.4290 H   0  0  0  0  0  0  0  0  0  0  0  0
   39.0260   22.6936   34.4290 H   0  0  0  0  0  0  0  0  0  0  0  0
   38.3908   24.4661   37.6324 H   0  0  0  0  0  0  0  0  0  0  0  0
   37.1138   25.4865   36.8877 H   0  0  0  0  0  0  0  0  0  0  0  0
   36.9480   23.6979   36.8877 H   0  0  0  0  0  0  0  0  0  0  0  0
  1  2  2  0
  3  7  1  0
  3  2  1  0
  4  3  2  0
  5  4  1  0
  5  6  2  0
  6  1  1  0
  7  8  1  0
  8 12  1  0
  8  9  1  0
 10  9  1  0
 11  7  1  0
 11 10  1  0
 12 17  1  0
 13 14  1  0
 13 12  1  0
 14 15  1  0
 15 16  1  0
 17 18  1  0
 17 16  1  0
 18 19  1  0
 19 21  1  0
 20 19  1  0
  1 22  1  0
  2 23  1  0
  5 24  1  0
  8 25  1  6
  9 26  1  0
  9 27  1  0
 10 28  1  0
 10 29  1  0
 11 30  1  0
 11 31  1  0
 12 32  1  6
 13 33  1  0
 13 34  1  0
 14 35  1  0
 14 36  1  0
 15 37  1  0
 15 38  1  0
 16 39  1  0
 16 40  1  0
 17 41  1  1
 19 42  1  0
 20 43  1  0
 20 44  1  0
 20 45  1  0
 21 46  1  0
 21 47  1  0
 21 48  1  0
M  ISO  8  22  14  23  14  24  14  25  13  26  13  27  13  28  13  29  13
M  ISO  8  30  13  31  13  32  13  33  13  34  13  35  13  36  13  37  13
M  ISO  8  38  13  39  13  40  13  41  13  42   8  43   8  44   8  45   8
M  ISO  3  46   8  47   8  48   8
M  END
>  <minimizedAffinity>  (1) 
-4.56851149

>  <minimizedRMSD>  (1) 
4.85697031

$$$$
