
     RDKit          3D

 46 49  0  0  1  0  0  0  0  0999 V2000
   38.9840   23.1910   33.1420 C   0  0  1  0  0  0  0  0  0  0  0  0
   40.3570   23.8430   33.1440 C   0  0  0  0  0  0  0  0  0  0  0  0
   41.3590   22.8280   33.6090 C   0  0  0  0  0  0  0  0  0  0  0  0
   41.0470   22.5970   35.0930 C   0  0  0  0  0  0  0  0  0  0  0  0
   39.6590   22.0700   35.2620 C   0  0  0  0  0  0  0  0  0  0  0  0
   38.5770   22.8690   34.5360 C   0  0  2  0  0  0  0  0  0  0  0  0
   35.0850   20.2630   31.8300 C   0  0  0  0  0  0  0  0  0  0  0  0
   35.3430   21.5860   32.1860 C   0  0  0  0  0  0  0  0  0  0  0  0
   36.4620   22.1950   31.6410 C   0  0  0  0  0  0  0  0  0  0  0  0
   37.2420   21.4530   30.7870 N   0  0  0  0  0  0  0  0  0  0  0  0
   36.9730   20.1750   30.4580 C   0  0  0  0  0  0  0  0  0  0  0  0
   35.8830   19.5870   30.9910 N   0  0  0  0  0  0  0  0  0  0  0  0
   36.8630   23.5060   31.8850 N   0  0  0  0  0  0  0  0  0  0  0  0
   38.0590   24.0960   32.4360 C   0  0  1  0  0  0  0  0  0  0  0  0
   37.4260   25.1300   33.3610 C   0  0  0  0  0  0  0  0  0  0  0  0
   36.5590   25.8370   32.3000 C   0  0  0  0  0  0  0  0  0  0  0  0
   36.0040   24.6560   31.5730 C   0  0  0  0  0  0  0  0  0  0  0  0
   37.4540   22.0820   34.5620 O   0  0  0  0  0  0  0  0  0  0  0  0
   35.3130   20.7930   37.0840 N   0  0  0  0  0  0  0  0  0  0  0  0
   35.7470   20.7430   35.8420 N   0  0  0  0  0  0  0  0  0  0  0  0
   36.6810   21.6830   35.6330 C   0  0  0  0  0  0  0  0  0  0  0  0
   36.8240   22.3540   36.8380 C   0  0  0  0  0  0  0  0  0  0  0  0
   35.9540   21.7740   37.7300 C   0  0  0  0  0  0  0  0  0  0  0  0
   38.9814   22.2296   32.6074 H   0  0  0  0  0  0  0  0  0  0  0  0
   40.6112   24.1782   32.1276 H   0  0  0  0  0  0  0  0  0  0  0  0
   40.3617   24.7152   33.8142 H   0  0  0  0  0  0  0  0  0  0  0  0
   41.2493   21.8915   33.0425 H   0  0  0  0  0  0  0  0  0  0  0  0
   42.3921   23.1741   33.4575 H   0  0  0  0  0  0  0  0  0  0  0  0
   41.7625   21.8696   35.5040 H   0  0  0  0  0  0  0  0  0  0  0  0
   41.1302   23.5553   35.6266 H   0  0  0  0  0  0  0  0  0  0  0  0
   39.6360   21.0383   34.8812 H   0  0  0  0  0  0  0  0  0  0  0  0
   39.4292   22.1418   36.3353 H   0  0  0  0  0  0  0  0  0  0  0  0
   38.3978   23.8383   35.0242 H   0  0  0  0  0  0  0  0  0  0  0  0
   34.2016   19.7594   32.2494 H   0  0  0  0  0  0  0  0  0  0  0  0
   34.6804   22.1283   32.8765 H   0  0  0  0  0  0  0  0  0  0  0  0
   37.6288   19.6225   29.7690 H   0  0  0  0  0  0  0  0  0  0  0  0
   38.7392   24.4764   31.6597 H   0  0  0  0  0  0  0  0  0  0  0  0
   36.8224   24.6680   34.1561 H   0  0  0  0  0  0  0  0  0  0  0  0
   38.1190   25.7668   33.9304 H   0  0  0  0  0  0  0  0  0  0  0  0
   35.7636   26.4405   32.7616 H   0  0  0  0  0  0  0  0  0  0  0  0
   37.1027   26.5525   31.6656 H   0  0  0  0  0  0  0  0  0  0  0  0
   36.0079   24.8454   30.4894 H   0  0  0  0  0  0  0  0  0  0  0  0
   34.9664   24.4615   31.8821 H   0  0  0  0  0  0  0  0  0  0  0  0
   34.5959   20.1766   37.4924 H   0  0  0  0  0  0  0  0  0  0  0  0
   37.5057   23.1929   37.0417 H   0  0  0  0  0  0  0  0  0  0  0  0
   35.8109   22.0631   38.7816 H   0  0  0  0  0  0  0  0  0  0  0  0
  1  2  1  0
  1  6  1  0
  2  3  1  0
  3  4  1  0
  4  5  1  0
  6 18  1  0
  6  5  1  0
  7  8  2  0
  9 13  1  0
  9  8  1  0
 10  9  2  0
 11 10  1  0
 11 12  2  0
 12  7  1  0
 13 14  1  0
 14  1  1  0
 14 15  1  0
 16 15  1  0
 17 13  1  0
 17 16  1  0
 18 21  1  0
 19 23  1  0
 20 19  1  0
 21 20  2  0
 21 22  1  0
 22 23  2  0
  1 24  1  6
  2 25  1  0
  2 26  1  0
  3 27  1  0
  3 28  1  0
  4 29  1  0
  4 30  1  0
  5 31  1  0
  5 32  1  0
  6 33  1  1
  7 34  1  0
  8 35  1  0
 11 36  1  0
 14 37  1  6
 15 38  1  0
 15 39  1  0
 16 40  1  0
 16 41  1  0
 17 42  1  0
 17 43  1  0
 19 44  1  0
 22 45  1  0
 23 46  1  0
M  ISO  8  24  13  25  13  26  13  27  13  28  13  29  13  30  13  31  13
M  ISO  8  32  13  33  13  34  14  35  14  36  14  37  13  38  13  39  13
M  ISO  7  40  13  41  13  42  13  43  13  44   9  45  14  46  14
M  END
>  <minimizedAffinity>  (1) 
-4.42863464

>  <minimizedRMSD>  (1) 
3.18395591

$$$$
