
     RDKit          3D

 46 49  0  0  1  0  0  0  0  0999 V2000
   36.6610   22.2980   31.8020 C   0  0  0  0  0  0  0  0  0  0  0  0
   36.3890   23.6410   32.0610 C   0  0  0  0  0  0  0  0  0  0  0  0
   37.1390   24.5910   31.3860 C   0  0  0  0  0  0  0  0  0  0  0  0
   38.0970   24.1460   30.5110 N   0  0  0  0  0  0  0  0  0  0  0  0
   38.3400   22.8420   30.2800 C   0  0  0  0  0  0  0  0  0  0  0  0
   37.6080   21.9170   30.9380 N   0  0  0  0  0  0  0  0  0  0  0  0
   36.9940   25.9710   31.5200 N   0  0  0  0  0  0  0  0  0  0  0  0
   37.8890   27.0280   31.9270 C   0  0  1  0  0  0  0  0  0  0  0  0
   36.9560   27.8210   32.8300 C   0  0  0  0  0  0  0  0  0  0  0  0
   35.8230   28.0290   31.8020 C   0  0  0  0  0  0  0  0  0  0  0  0
   35.7300   26.6550   31.2290 C   0  0  0  0  0  0  0  0  0  0  0  0
   39.1330   26.6260   32.6040 C   0  0  1  0  0  0  0  0  0  0  0  0
   40.2860   27.3460   31.9230 C   0  0  0  0  0  0  0  0  0  0  0  0
   41.5740   26.7650   32.4050 C   0  0  0  0  0  0  0  0  0  0  0  0
   41.6860   27.1780   33.8810 C   0  0  0  0  0  0  0  0  0  0  0  0
   40.5430   26.6050   34.6630 C   0  0  0  0  0  0  0  0  0  0  0  0
   39.1560   26.9120   34.0590 C   0  0  2  0  0  0  0  0  0  0  0  0
   38.2850   26.1180   34.7510 O   0  0  0  0  0  0  0  0  0  0  0  0
   38.7800   25.1410   35.5630 C   0  0  0  0  0  0  0  0  0  0  0  0
   37.8350   24.5810   36.5910 C   0  0  0  0  0  0  0  0  0  0  0  0
   38.1940   23.7480   35.3600 C   0  0  0  0  0  0  0  0  0  0  0  0
   36.0773   21.5266   32.3257 H   0  0  0  0  0  0  0  0  0  0  0  0
   35.6067   23.9359   32.7759 H   0  0  0  0  0  0  0  0  0  0  0  0
   39.1206   22.5355   29.5682 H   0  0  0  0  0  0  0  0  0  0  0  0
   38.3204   27.5658   31.0699 H   0  0  0  0  0  0  0  0  0  0  0  0
   36.6274   27.2426   33.7061 H   0  0  0  0  0  0  0  0  0  0  0  0
   37.3732   28.7286   33.2906 H   0  0  0  0  0  0  0  0  0  0  0  0
   34.8835   28.3324   32.2871 H   0  0  0  0  0  0  0  0  0  0  0  0
   36.0091   28.8243   31.0652 H   0  0  0  0  0  0  0  0  0  0  0  0
   35.5748   26.7111   30.1415 H   0  0  0  0  0  0  0  0  0  0  0  0
   34.8828   26.1080   31.6683 H   0  0  0  0  0  0  0  0  0  0  0  0
   39.2158   25.5324   32.5186 H   0  0  0  0  0  0  0  0  0  0  0  0
   40.2493   28.4173   32.1700 H   0  0  0  0  0  0  0  0  0  0  0  0
   40.2082   27.2242   30.8325 H   0  0  0  0  0  0  0  0  0  0  0  0
   41.5593   25.6690   32.3129 H   0  0  0  0  0  0  0  0  0  0  0  0
   42.4296   27.1255   31.8151 H   0  0  0  0  0  0  0  0  0  0  0  0
   42.6340   26.8020   34.2933 H   0  0  0  0  0  0  0  0  0  0  0  0
   41.6570   28.2753   33.9516 H   0  0  0  0  0  0  0  0  0  0  0  0
   40.6671   25.5130   34.7081 H   0  0  0  0  0  0  0  0  0  0  0  0
   40.5693   27.0744   35.6575 H   0  0  0  0  0  0  0  0  0  0  0  0
   38.8875   27.9748   34.1502 H   0  0  0  0  0  0  0  0  0  0  0  0
   39.7959   25.5614   35.5965 H   0  0  0  0  0  0  0  0  0  0  0  0
   38.2125   24.2875   37.5817 H   0  0  0  0  0  0  0  0  0  0  0  0
   36.8953   24.9233   37.0490 H   0  0  0  0  0  0  0  0  0  0  0  0
   37.4450   23.5727   34.5737 H   0  0  0  0  0  0  0  0  0  0  0  0
   38.6053   22.7425   35.1871 H   0  0  0  0  0  0  0  0  0  0  0  0
  1  2  2  0
  3  7  1  0
  3  2  1  0
  4  3  2  0
  5  4  1  0
  5  6  2  0
  6  1  1  0
  7  8  1  0
  8 12  1  0
  8  9  1  0
 10  9  1  0
 11  7  1  0
 11 10  1  0
 12 17  1  0
 13 14  1  0
 13 12  1  0
 14 15  1  0
 15 16  1  0
 17 16  1  0
 17 18  1  0
 18 19  1  0
 19 20  1  0
 21 19  1  0
 21 20  1  0
  1 22  1  0
  2 23  1  0
  5 24  1  0
  8 25  1  6
  9 26  1  0
  9 27  1  0
 10 28  1  0
 10 29  1  0
 11 30  1  0
 11 31  1  0
 12 32  1  1
 13 33  1  0
 13 34  1  0
 14 35  1  0
 14 36  1  0
 15 37  1  0
 15 38  1  0
 16 39  1  0
 16 40  1  0
 17 41  1  6
 19 42  1  0
 20 43  1  0
 20 44  1  0
 21 45  1  0
 21 46  1  0
M  ISO  8  22  14  23  14  24  14  25  13  26  13  27  13  28  13  29  13
M  ISO  8  30  13  31  13  32  13  33  13  34  13  35  13  36  13  37  13
M  ISO  8  38  13  39  13  40  13  41  13  42  13  43  13  44  13  45  13
M  ISO  1  46  13
M  END
>  <minimizedAffinity>  (1) 
-4.73537016

>  <minimizedRMSD>  (1) 
5.21403742

$$$$
