
     RDKit          3D

 31 34  0  0  0  0  0  0  0  0999 V2000
   38.4040   24.5650   36.1600 C   0  0  0  0  0  0  0  0  0  0  0  0
   37.6310   24.3090   37.3010 C   0  0  0  0  0  0  0  0  0  0  0  0
   38.1790   23.4390   38.2550 C   0  0  0  0  0  0  0  0  0  0  0  0
   39.4160   22.9080   38.0050 N   0  0  0  0  0  0  0  0  0  0  0  0
   40.1140   23.1830   36.8980 C   0  0  0  0  0  0  0  0  0  0  0  0
   39.5980   24.0160   35.9800 N   0  0  0  0  0  0  0  0  0  0  0  0
   37.8940   25.4440   35.1580 N   0  0  0  0  0  0  0  0  0  0  0  0
   37.6120   26.7590   35.2110 C   0  0  0  0  0  0  0  0  0  0  0  0
   37.1470   27.1610   34.0020 N   0  0  0  0  0  0  0  0  0  0  0  0
   37.1440   26.0700   33.1980 C   0  0  0  0  0  0  0  0  0  0  0  0
   36.7620   25.9480   31.8800 C   0  0  0  0  0  0  0  0  0  0  0  0
   36.8710   24.7350   31.3470 N   0  0  0  0  0  0  0  0  0  0  0  0
   37.3270   23.6760   32.0430 C   0  0  0  0  0  0  0  0  0  0  0  0
   37.7060   23.7700   33.3320 N   0  0  0  0  0  0  0  0  0  0  0  0
   37.6130   24.9790   33.9120 C   0  0  0  0  0  0  0  0  0  0  0  0
   41.4300   22.5850   36.6870 C   0  0  0  0  0  0  0  0  0  0  0  0
   41.6590   21.2690   37.0270 C   0  0  0  0  0  0  0  0  0  0  0  0
   42.9390   20.7490   36.8030 C   0  0  0  0  0  0  0  0  0  0  0  0
   43.8990   21.5670   36.2610 C   0  0  0  0  0  0  0  0  0  0  0  0
   43.6850   22.8790   35.9180 C   0  0  0  0  0  0  0  0  0  0  0  0
   42.4310   23.3930   36.1360 C   0  0  0  0  0  0  0  0  0  0  0  0
   36.6416   24.7686   37.4415 H   0  0  0  0  0  0  0  0  0  0  0  0
   37.6315   23.1908   39.1762 H   0  0  0  0  0  0  0  0  0  0  0  0
   37.7384   27.4040   36.0931 H   0  0  0  0  0  0  0  0  0  0  0  0
   36.3880   26.8056   31.3015 H   0  0  0  0  0  0  0  0  0  0  0  0
   37.3922   22.6995   31.5408 H   0  0  0  0  0  0  0  0  0  0  0  0
   40.8615   20.6475   37.4604 H   0  0  0  0  0  0  0  0  0  0  0  0
   43.1714   19.7042   37.0566 H   0  0  0  0  0  0  0  0  0  0  0  0
   44.9008   21.1456   36.0912 H   0  0  0  0  0  0  0  0  0  0  0  0
   44.4874   23.4945   35.4852 H   0  0  0  0  0  0  0  0  0  0  0  0
   42.2130   24.4398   35.8777 H   0  0  0  0  0  0  0  0  0  0  0  0
  1  2  2  0
  2  3  1  0
  4  3  2  0
  5  4  1  0
  6  1  1  0
  6  5  2  0
  7  8  1  0
  7  1  1  0
  9  8  2  0
 10 15  2  0
 10  9  1  0
 11 10  1  0
 12 11  2  0
 12 13  1  0
 13 14  2  0
 14 15  1  0
 15  7  1  0
 16  5  1  0
 16 17  2  0
 18 17  1  0
 19 18  2  0
 20 21  2  0
 20 19  1  0
 21 16  1  0
  2 22  1  0
  3 23  1  0
  8 24  1  0
 11 25  1  0
 13 26  1  0
 17 27  1  0
 18 28  1  0
 19 29  1  0
 20 30  1  0
 21 31  1  0
M  ISO  8  22  14  23  14  24  14  25  14  26  14  27  14  28  14  29  14
M  ISO  2  30  14  31  14
M  END
>  <minimizedAffinity>  (1) 
-5.49947834

>  <minimizedRMSD>  (1) 
4.86938286

$$$$
