
     RDKit          3D

 34 37  0  0  0  0  0  0  0  0999 V2000
   38.4590   24.5800   36.2010 C   0  0  0  0  0  0  0  0  0  0  0  0
   37.7550   24.3540   37.3880 C   0  0  0  0  0  0  0  0  0  0  0  0
   38.2920   23.4870   38.3380 C   0  0  0  0  0  0  0  0  0  0  0  0
   39.5010   22.9150   38.0150 N   0  0  0  0  0  0  0  0  0  0  0  0
   40.1530   23.1490   36.8720 C   0  0  0  0  0  0  0  0  0  0  0  0
   39.6370   23.9860   35.9510 N   0  0  0  0  0  0  0  0  0  0  0  0
   37.9230   25.4630   35.2170 N   0  0  0  0  0  0  0  0  0  0  0  0
   37.6470   26.7760   35.2710 C   0  0  0  0  0  0  0  0  0  0  0  0
   37.1490   27.1670   34.0760 N   0  0  0  0  0  0  0  0  0  0  0  0
   37.1210   26.0780   33.2780 C   0  0  0  0  0  0  0  0  0  0  0  0
   36.6990   25.9650   31.9730 C   0  0  0  0  0  0  0  0  0  0  0  0
   36.7890   24.7380   31.4330 N   0  0  0  0  0  0  0  0  0  0  0  0
   37.2620   23.6840   32.1210 C   0  0  0  0  0  0  0  0  0  0  0  0
   37.6780   23.7710   33.3930 N   0  0  0  0  0  0  0  0  0  0  0  0
   37.6060   24.9910   33.9810 C   0  0  0  0  0  0  0  0  0  0  0  0
   43.8700   21.2270   36.2310 C   0  0  0  0  0  0  0  0  0  0  0  0
   42.8790   20.5840   36.9450 C   0  0  0  0  0  0  0  0  0  0  0  0
   41.6530   21.1990   37.1650 C   0  0  0  0  0  0  0  0  0  0  0  0
   41.4460   22.4630   36.6570 C   0  0  0  0  0  0  0  0  0  0  0  0
   42.3980   23.1580   35.9350 C   0  0  0  0  0  0  0  0  0  0  0  0
   43.6100   22.4860   35.7470 C   0  0  0  0  0  0  0  0  0  0  0  0
   45.4520   20.5420   35.8960 S   0  0  0  0  0  0  0  0  0  0  0  0
   45.5060   20.0120   34.4720 O   0  0  0  0  0  0  0  0  0  0  0  0
   45.7250   19.3740   36.7940 O   0  0  0  0  0  0  0  0  0  0  0  0
   36.7917   24.8531   37.5692 H   0  0  0  0  0  0  0  0  0  0  0  0
   37.7805   23.2731   39.2880 H   0  0  0  0  0  0  0  0  0  0  0  0
   37.8008   27.4270   36.1443 H   0  0  0  0  0  0  0  0  0  0  0  0
   36.3122   26.8255   31.4073 H   0  0  0  0  0  0  0  0  0  0  0  0
   37.3099   22.7068   31.6181 H   0  0  0  0  0  0  0  0  0  0  0  0
   43.0618   19.5752   37.3435 H   0  0  0  0  0  0  0  0  0  0  0  0
   40.8628   20.6869   37.7337 H   0  0  0  0  0  0  0  0  0  0  0  0
   42.2154   24.1671   35.5369 H   0  0  0  0  0  0  0  0  0  0  0  0
   44.4016   22.9956   35.1781 H   0  0  0  0  0  0  0  0  0  0  0  0
   46.3729   21.5369   36.0935 H   0  0  0  0  0  0  0  0  0  0  0  0
  1  2  2  0
  2  3  1  0
  4  3  2  0
  5  4  1  0
  6  1  1  0
  6  5  2  0
  7  8  1  0
  7  1  1  0
  9  8  2  0
 10 15  2  0
 10  9  1  0
 11 10  1  0
 12 11  2  0
 12 13  1  0
 13 14  2  0
 14 15  1  0
 15  7  1  0
 16 17  2  0
 17 18  1  0
 19  5  1  0
 19 18  2  0
 20 19  1  0
 21 20  2  0
 21 16  1  0
 22 16  1  0
 22 24  2  0
 23 22  2  0
  2 25  1  0
  3 26  1  0
  8 27  1  0
 11 28  1  0
 13 29  1  0
 17 30  1  0
 18 31  1  0
 20 32  1  0
 21 33  1  0
 22 34  1  0
M  ISO  8  25  14  26  14  27  14  28  14  29  14  30  14  31  14  32  14
M  ISO  2  33  14  34  11
M  END
>  <minimizedAffinity>  (1) 
-5.43852282

>  <minimizedRMSD>  (1) 
6.02819252

$$$$
