
     RDKit          3D

 31 34  0  0  0  0  0  0  0  0999 V2000
   38.3920   24.5700   36.1630 C   0  0  0  0  0  0  0  0  0  0  0  0
   37.6290   24.3060   37.2970 C   0  0  0  0  0  0  0  0  0  0  0  0
   38.1660   23.4410   38.2590 C   0  0  0  0  0  0  0  0  0  0  0  0
   39.4080   22.9110   38.0190 N   0  0  0  0  0  0  0  0  0  0  0  0
   40.1100   23.1910   36.9150 C   0  0  0  0  0  0  0  0  0  0  0  0
   39.6070   24.0210   35.9810 N   0  0  0  0  0  0  0  0  0  0  0  0
   37.8880   25.4430   35.1600 N   0  0  0  0  0  0  0  0  0  0  0  0
   37.6070   26.7580   35.2040 C   0  0  0  0  0  0  0  0  0  0  0  0
   37.1480   27.1590   34.0010 N   0  0  0  0  0  0  0  0  0  0  0  0
   37.1440   26.0710   33.1980 C   0  0  0  0  0  0  0  0  0  0  0  0
   36.7710   25.9300   31.8800 C   0  0  0  0  0  0  0  0  0  0  0  0
   36.8780   24.7190   31.3490 N   0  0  0  0  0  0  0  0  0  0  0  0
   37.3280   23.6650   32.0490 C   0  0  0  0  0  0  0  0  0  0  0  0
   37.7020   23.7580   33.3320 N   0  0  0  0  0  0  0  0  0  0  0  0
   37.6130   24.9680   33.9180 C   0  0  0  0  0  0  0  0  0  0  0  0
   41.4340   22.6060   36.6920 C   0  0  0  0  0  0  0  0  0  0  0  0
   42.4610   23.3720   36.1780 C   0  0  0  0  0  0  0  0  0  0  0  0
   43.6920   22.7690   35.9880 C   0  0  0  0  0  0  0  0  0  0  0  0
   43.8930   21.4400   36.3000 C   0  0  0  0  0  0  0  0  0  0  0  0
   42.8840   20.6560   36.8140 C   0  0  0  0  0  0  0  0  0  0  0  0
   41.6790   21.2620   36.9960 C   0  0  0  0  0  0  0  0  0  0  0  0
   36.6371   24.7616   37.4331 H   0  0  0  0  0  0  0  0  0  0  0  0
   37.6104   23.1951   39.1760 H   0  0  0  0  0  0  0  0  0  0  0  0
   37.7322   27.4055   36.0844 H   0  0  0  0  0  0  0  0  0  0  0  0
   36.4007   26.7837   31.2934 H   0  0  0  0  0  0  0  0  0  0  0  0
   37.3920   22.6871   31.5494 H   0  0  0  0  0  0  0  0  0  0  0  0
   42.3053   24.4315   35.9266 H   0  0  0  0  0  0  0  0  0  0  0  0
   44.5256   23.3600   35.5808 H   0  0  0  0  0  0  0  0  0  0  0  0
   44.8852   20.9950   36.1338 H   0  0  0  0  0  0  0  0  0  0  0  0
   43.0435   19.5967   37.0640 H   0  0  0  0  0  0  0  0  0  0  0  0
   40.8522   20.6625   37.4045 H   0  0  0  0  0  0  0  0  0  0  0  0
  1  2  2  0
  2  3  1  0
  4  3  2  0
  5  4  1  0
  6  1  1  0
  6  5  2  0
  7  8  1  0
  7  1  1  0
  9  8  2  0
 10 15  2  0
 10  9  1  0
 11 10  1  0
 12 11  2  0
 12 13  1  0
 13 14  2  0
 14 15  1  0
 15  7  1  0
 16  5  1  0
 16 21  1  0
 17 16  2  0
 18 17  1  0
 18 19  2  0
 19 20  1  0
 20 21  2  0
  2 22  1  0
  3 23  1  0
  8 24  1  0
 11 25  1  0
 13 26  1  0
 17 27  1  0
 18 28  1  0
 19 29  1  0
 20 30  1  0
 21 31  1  0
M  ISO  8  22  14  23  14  24  14  25  14  26  14  27  14  28  14  29  14
M  ISO  2  30  14  31  14
M  END
>  <minimizedAffinity>  (1) 
-5.50843859

>  <minimizedRMSD>  (1) 
4.90828943

$$$$
