
     RDKit          3D

 28 30  0  0  0  0  0  0  0  0999 V2000
   38.4910   23.8020   35.6250 C   0  0  0  0  0  0  0  0  0  0  0  0
   37.8510   24.6910   36.4880 C   0  0  0  0  0  0  0  0  0  0  0  0
   38.0580   24.5130   37.8710 C   0  0  0  0  0  0  0  0  0  0  0  0
   38.8750   23.4790   38.2690 N   0  0  0  0  0  0  0  0  0  0  0  0
   39.4640   22.6550   37.3990 C   0  0  0  0  0  0  0  0  0  0  0  0
   39.2680   22.8230   36.0850 N   0  0  0  0  0  0  0  0  0  0  0  0
   40.2950   21.6050   37.8610 N   0  0  0  0  0  0  0  0  0  0  0  0
   41.6550   21.6050   37.4350 C   0  0  0  0  0  0  0  0  0  0  0  0
   42.2380   22.5620   36.7920 N   0  0  0  0  0  0  0  0  0  0  0  0
   42.4130   20.4440   37.7580 N   0  0  0  0  0  0  0  0  0  0  0  0
   43.2150   22.5530   36.4900 H   0  0  0  0  0  0  0  0  0  0  0  0
   38.3130   23.9420   34.2180 N   0  0  0  0  0  0  0  0  0  0  0  0
   38.6930   24.9120   33.3840 C   0  0  0  0  0  0  0  0  0  0  0  0
   38.2880   24.5910   32.1180 N   0  0  0  0  0  0  0  0  0  0  0  0
   37.6540   23.4090   32.2040 C   0  0  0  0  0  0  0  0  0  0  0  0
   37.0620   22.6580   31.2080 C   0  0  0  0  0  0  0  0  0  0  0  0
   36.5020   21.5140   31.5850 N   0  0  0  0  0  0  0  0  0  0  0  0
   36.5060   21.0940   32.8700 C   0  0  0  0  0  0  0  0  0  0  0  0
   37.0730   21.8000   33.8620 N   0  0  0  0  0  0  0  0  0  0  0  0
   37.6520   22.9710   33.5150 C   0  0  0  0  0  0  0  0  0  0  0  0
   37.2102   25.4989   36.1049 H   0  0  0  0  0  0  0  0  0  0  0  0
   37.5827   25.1779   38.6073 H   0  0  0  0  0  0  0  0  0  0  0  0
   39.9298   20.8687   38.4819 H   0  0  0  0  0  0  0  0  0  0  0  0
   43.4024   20.3807   37.4786 H   0  0  0  0  0  0  0  0  0  0  0  0
   41.9720   19.6673   38.2710 H   0  0  0  0  0  0  0  0  0  0  0  0
   39.2424   25.8215   33.6686 H   0  0  0  0  0  0  0  0  0  0  0  0
   37.0545   22.9891   30.1591 H   0  0  0  0  0  0  0  0  0  0  0  0
   36.0253   20.1349   33.1130 H   0  0  0  0  0  0  0  0  0  0  0  0
  1  6  1  0
  1  2  2  0
  2  3  1  0
  3  4  2  0
  5  7  1  0
  5  4  1  0
  6  5  2  0
  8 10  1  0
  8  7  1  0
  9  8  2  0
 11  9  1  0
 12  1  1  0
 13 12  1  0
 14 15  1  0
 14 13  2  0
 15 20  2  0
 16 17  2  0
 16 15  1  0
 17 18  1  0
 18 19  2  0
 20 19  1  0
 20 12  1  0
  2 21  1  0
  3 22  1  0
  7 23  1  0
 10 24  1  0
 10 25  1  0
 13 26  1  0
 16 27  1  0
 18 28  1  0
M  ISO  5  21  14  22  14  26  14  27  14  28  14
M  END
>  <minimizedAffinity>  (1) 
-5.51242352

>  <minimizedRMSD>  (1) 
4.64434624

$$$$
