
     RDKit          3D

 34 37  0  0  0  0  0  0  0  0999 V2000
   38.3790   25.0330   35.6160 C   0  0  0  0  0  0  0  0  0  0  0  0
   37.6690   24.4340   36.6630 C   0  0  0  0  0  0  0  0  0  0  0  0
   38.3250   23.4350   37.3900 C   0  0  0  0  0  0  0  0  0  0  0  0
   39.6000   23.1120   37.0340 N   0  0  0  0  0  0  0  0  0  0  0  0
   40.2420   23.7210   36.0120 C   0  0  0  0  0  0  0  0  0  0  0  0
   39.6200   24.6730   35.3180 N   0  0  0  0  0  0  0  0  0  0  0  0
   41.5730   23.3920   35.6330 N   0  0  0  0  0  0  0  0  0  0  0  0
   42.4790   24.3590   35.0400 C   0  0  0  0  0  0  0  0  0  0  0  0
   43.5510   24.6060   36.0760 C   0  0  0  0  0  0  0  0  0  0  0  0
   43.8890   23.4550   36.7720 O   0  0  0  0  0  0  0  0  0  0  0  0
   43.6460   22.2950   36.0430 C   0  0  0  0  0  0  0  0  0  0  0  0
   42.1690   22.0820   35.7890 C   0  0  0  0  0  0  0  0  0  0  0  0
   37.7480   26.0600   34.8440 N   0  0  0  0  0  0  0  0  0  0  0  0
   37.4930   27.3400   35.1280 C   0  0  0  0  0  0  0  0  0  0  0  0
   36.8730   27.9200   34.0750 N   0  0  0  0  0  0  0  0  0  0  0  0
   36.7480   26.9710   33.1270 C   0  0  0  0  0  0  0  0  0  0  0  0
   36.1890   27.0540   31.8720 C   0  0  0  0  0  0  0  0  0  0  0  0
   36.2070   25.9270   31.1390 N   0  0  0  0  0  0  0  0  0  0  0  0
   36.7390   24.7770   31.5920 C   0  0  0  0  0  0  0  0  0  0  0  0
   37.2890   24.6770   32.8150 N   0  0  0  0  0  0  0  0  0  0  0  0
   37.2940   25.7820   33.5870 C   0  0  0  0  0  0  0  0  0  0  0  0
   36.6390   24.7359   36.9039 H   0  0  0  0  0  0  0  0  0  0  0  0
   37.8252   22.9242   38.2262 H   0  0  0  0  0  0  0  0  0  0  0  0
   42.9226   23.9538   34.1186 H   0  0  0  0  0  0  0  0  0  0  0  0
   41.9578   25.2882   34.7665 H   0  0  0  0  0  0  0  0  0  0  0  0
   44.4494   24.9896   35.5702 H   0  0  0  0  0  0  0  0  0  0  0  0
   43.1555   25.3324   36.8012 H   0  0  0  0  0  0  0  0  0  0  0  0
   44.1654   22.3682   35.0761 H   0  0  0  0  0  0  0  0  0  0  0  0
   44.0156   21.4416   36.6305 H   0  0  0  0  0  0  0  0  0  0  0  0
   41.7110   21.5576   36.6406 H   0  0  0  0  0  0  0  0  0  0  0  0
   42.0098   21.4688   34.8898 H   0  0  0  0  0  0  0  0  0  0  0  0
   37.7477   27.8443   36.0718 H   0  0  0  0  0  0  0  0  0  0  0  0
   35.7525   27.9889   31.4905 H   0  0  0  0  0  0  0  0  0  0  0  0
   36.7235   23.8904   30.9411 H   0  0  0  0  0  0  0  0  0  0  0  0
  1  2  2  0
  2  3  1  0
  4  3  2  0
  5  4  1  0
  6  1  1  0
  6  5  2  0
  7 12  1  0
  7  5  1  0
  8  7  1  0
  8  9  1  0
  9 10  1  0
 11 10  1  0
 12 11  1  0
 13 14  1  0
 13  1  1  0
 15 14  2  0
 16 21  2  0
 16 15  1  0
 17 16  1  0
 18 19  1  0
 18 17  2  0
 19 20  2  0
 20 21  1  0
 21 13  1  0
  2 22  1  0
  3 23  1  0
  8 24  1  0
  8 25  1  0
  9 26  1  0
  9 27  1  0
 11 28  1  0
 11 29  1  0
 12 30  1  0
 12 31  1  0
 14 32  1  0
 17 33  1  0
 19 34  1  0
M  ISO  8  22  14  23  14  24  13  25  13  26  13  27  13  28  13  29  13
M  ISO  5  30  13  31  13  32  14  33  14  34  14
M  END
>  <minimizedAffinity>  (1) 
-5.06664562

>  <minimizedRMSD>  (1) 
4.58912849

$$$$
