
     RDKit          3D

 35 39  0  0  0  0  0  0  0  0999 V2000
   41.1910   23.1640   35.9780 C   0  0  0  0  0  0  0  0  0  0  0  0
   42.0580   22.2270   36.5840 C   0  0  0  0  0  0  0  0  0  0  0  0
   43.4190   22.5220   36.5580 C   0  0  0  0  0  0  0  0  0  0  0  0
   43.8190   23.6930   35.9510 N   0  0  0  0  0  0  0  0  0  0  0  0
   42.9540   24.5430   35.3930 C   0  0  0  0  0  0  0  0  0  0  0  0
   41.6270   24.2910   35.3990 N   0  0  0  0  0  0  0  0  0  0  0  0
   39.7850   22.9000   35.9820 N   0  0  0  0  0  0  0  0  0  0  0  0
   38.8400   23.1450   36.8950 C   0  0  0  0  0  0  0  0  0  0  0  0
   37.6450   22.7080   36.4400 N   0  0  0  0  0  0  0  0  0  0  0  0
   37.8630   22.1850   35.2200 C   0  0  0  0  0  0  0  0  0  0  0  0
   36.9700   21.6060   34.3370 C   0  0  0  0  0  0  0  0  0  0  0  0
   37.4770   21.1690   33.1870 N   0  0  0  0  0  0  0  0  0  0  0  0
   38.7920   21.2760   32.8800 C   0  0  0  0  0  0  0  0  0  0  0  0
   39.6770   21.8310   33.7200 N   0  0  0  0  0  0  0  0  0  0  0  0
   39.2200   22.2910   34.8970 C   0  0  0  0  0  0  0  0  0  0  0  0
   43.4350   25.7720   34.7630 C   0  0  0  0  0  0  0  0  0  0  0  0
   42.6990   26.6200   33.9580 C   0  0  0  0  0  0  0  0  0  0  0  0
   43.5070   27.6370   33.5760 N   0  0  0  0  0  0  0  0  0  0  0  0
   44.7440   27.4600   34.1180 C   0  0  0  0  0  0  0  0  0  0  0  0
   45.9320   28.1820   34.0590 C   0  0  0  0  0  0  0  0  0  0  0  0
   47.0750   27.7770   34.7160 C   0  0  0  0  0  0  0  0  0  0  0  0
   47.0360   26.5970   35.4680 C   0  0  0  0  0  0  0  0  0  0  0  0
   45.8580   25.8830   35.5240 C   0  0  0  0  0  0  0  0  0  0  0  0
   44.7130   26.2890   34.8680 C   0  0  0  0  0  0  0  0  0  0  0  0
   41.6763   21.3085   37.0538 H   0  0  0  0  0  0  0  0  0  0  0  0
   44.1541   21.8394   37.0093 H   0  0  0  0  0  0  0  0  0  0  0  0
   39.0093   23.6286   37.8684 H   0  0  0  0  0  0  0  0  0  0  0  0
   35.8996   21.5119   34.5723 H   0  0  0  0  0  0  0  0  0  0  0  0
   39.1449   20.8952   31.9102 H   0  0  0  0  0  0  0  0  0  0  0  0
   41.6432   26.4916   33.6771 H   0  0  0  0  0  0  0  0  0  0  0  0
   43.2295   28.4222   32.9699 H   0  0  0  0  0  0  0  0  0  0  0  0
   45.9606   29.1088   33.4673 H   0  0  0  0  0  0  0  0  0  0  0  0
   47.9993   28.3697   34.6503 H   0  0  0  0  0  0  0  0  0  0  0  0
   47.9295   26.2456   36.0048 H   0  0  0  0  0  0  0  0  0  0  0  0
   45.8292   24.9548   36.1136 H   0  0  0  0  0  0  0  0  0  0  0  0
  1  7  1  0
  1  2  2  0
  3  2  1  0
  4  3  2  0
  5  6  2  0
  5  4  1  0
  6  1  1  0
  7  8  1  0
  9  8  2  0
 10  9  1  0
 11 10  2  0
 12 11  1  0
 13 12  2  0
 13 14  1  0
 14 15  2  0
 15 10  1  0
 15  7  1  0
 16 24  1  0
 16  5  1  0
 17 16  2  0
 18 17  1  0
 18 19  1  0
 19 24  2  0
 20 19  1  0
 20 21  2  0
 21 22  1  0
 22 23  2  0
 24 23  1  0
  2 25  1  0
  3 26  1  0
  8 27  1  0
 11 28  1  0
 13 29  1  0
 17 30  1  0
 18 31  1  0
 20 32  1  0
 21 33  1  0
 22 34  1  0
 23 35  1  0
M  ISO  8  25  14  26  14  27  14  28  14  29  14  30  14  31   9  32  14
M  ISO  3  33  14  34  14  35  14
M  END
>  <minimizedAffinity>  (1) 
-4.91735458

>  <minimizedRMSD>  (1) 
0.776998878

$$$$
