
     RDKit          3D

 37 41  0  0  0  0  0  0  0  0999 V2000
   40.7700   23.4000   33.6470 C   0  0  0  0  0  0  0  0  0  0  0  0
   41.8560   22.7790   34.2510 C   0  0  0  0  0  0  0  0  0  0  0  0
   42.0320   21.4100   33.9630 C   0  0  0  0  0  0  0  0  0  0  0  0
   41.1450   20.8040   33.1320 N   0  0  0  0  0  0  0  0  0  0  0  0
   40.1130   21.4260   32.5690 C   0  0  0  0  0  0  0  0  0  0  0  0
   39.9710   22.7120   32.8570 N   0  0  0  0  0  0  0  0  0  0  0  0
   40.5290   24.7850   33.8840 N   0  0  0  0  0  0  0  0  0  0  0  0
   41.0500   25.8780   33.2890 C   0  0  0  0  0  0  0  0  0  0  0  0
   40.5160   26.9770   33.8820 N   0  0  0  0  0  0  0  0  0  0  0  0
   39.6780   26.5520   34.8300 C   0  0  0  0  0  0  0  0  0  0  0  0
   38.9080   27.2810   35.6980 C   0  0  0  0  0  0  0  0  0  0  0  0
   38.1490   26.5790   36.5580 N   0  0  0  0  0  0  0  0  0  0  0  0
   38.1390   25.2270   36.5770 C   0  0  0  0  0  0  0  0  0  0  0  0
   38.8840   24.4990   35.7390 N   0  0  0  0  0  0  0  0  0  0  0  0
   39.6570   25.1530   34.8640 C   0  0  0  0  0  0  0  0  0  0  0  0
   39.0900   20.9150   31.6670 C   0  0  0  0  0  0  0  0  0  0  0  0
   39.3940   20.5440   30.3740 C   0  0  0  0  0  0  0  0  0  0  0  0
   38.4850   20.0540   29.4650 C   0  0  0  0  0  0  0  0  0  0  0  0
   37.1700   19.9100   29.8360 C   0  0  0  0  0  0  0  0  0  0  0  0
   36.7980   20.2620   31.1130 C   0  0  0  0  0  0  0  0  0  0  0  0
   35.4780   20.1170   31.4870 C   0  0  0  0  0  0  0  0  0  0  0  0
   35.0480   20.4530   32.7540 C   0  0  0  0  0  0  0  0  0  0  0  0
   36.0210   20.9430   33.6220 C   0  0  0  0  0  0  0  0  0  0  0  0
   37.3230   21.0730   33.2130 C   0  0  0  0  0  0  0  0  0  0  0  0
   37.7620   20.7430   31.9620 C   0  0  0  0  0  0  0  0  0  0  0  0
   42.5405   23.3249   34.9169 H   0  0  0  0  0  0  0  0  0  0  0  0
   42.8684   20.8458   34.4013 H   0  0  0  0  0  0  0  0  0  0  0  0
   41.7804   25.8789   32.4665 H   0  0  0  0  0  0  0  0  0  0  0  0
   38.9106   28.3810   35.6917 H   0  0  0  0  0  0  0  0  0  0  0  0
   37.4973   24.7096   37.3053 H   0  0  0  0  0  0  0  0  0  0  0  0
   40.4388   20.6473   30.0458 H   0  0  0  0  0  0  0  0  0  0  0  0
   38.8082   19.7799   28.4499 H   0  0  0  0  0  0  0  0  0  0  0  0
   36.4274   19.5200   29.1244 H   0  0  0  0  0  0  0  0  0  0  0  0
   34.7525   19.7249   30.7590 H   0  0  0  0  0  0  0  0  0  0  0  0
   33.9977   20.3405   33.0610 H   0  0  0  0  0  0  0  0  0  0  0  0
   35.7416   21.2288   34.6468 H   0  0  0  0  0  0  0  0  0  0  0  0
   38.0561   21.4654   33.9331 H   0  0  0  0  0  0  0  0  0  0  0  0
  1  7  1  0
  1  2  2  0
  3  2  1  0
  4  3  2  0
  5  6  2  0
  5  4  1  0
  6  1  1  0
  7 15  1  0
  8  9  2  0
  8  7  1  0
  9 10  1  0
 10 15  2  0
 10 11  1  0
 11 12  2  0
 12 13  1  0
 14 13  2  0
 15 14  1  0
 16 25  1  0
 16  5  1  0
 17 16  2  0
 18 19  2  0
 18 17  1  0
 19 20  1  0
 20 21  1  0
 20 25  2  0
 21 22  2  0
 22 23  1  0
 24 23  2  0
 25 24  1  0
  2 26  1  0
  3 27  1  0
  8 28  1  0
 11 29  1  0
 13 30  1  0
 17 31  1  0
 18 32  1  0
 19 33  1  0
 21 34  1  0
 22 35  1  0
 23 36  1  0
 24 37  1  0
M  ISO  8  26  14  27  14  28  14  29  14  30  14  31  14  32  14  33  14
M  ISO  4  34  14  35  14  36  14  37  14
M  END
>  <minimizedAffinity>  (1) 
-4.86875105

>  <minimizedRMSD>  (1) 
7.54763126

$$$$
