
     RDKit          3D

 24 26  0  0  0  0  0  0  0  0999 V2000
   39.8680   23.2850   35.8910 N   0  0  0  0  0  0  0  0  0  0  0  0
   38.9270   23.4820   36.8270 C   0  0  0  0  0  0  0  0  0  0  0  0
   37.7730   22.9100   36.4170 N   0  0  0  0  0  0  0  0  0  0  0  0
   38.0100   22.3580   35.2200 C   0  0  0  0  0  0  0  0  0  0  0  0
   37.1690   21.6570   34.3790 C   0  0  0  0  0  0  0  0  0  0  0  0
   37.6900   21.2180   33.2310 N   0  0  0  0  0  0  0  0  0  0  0  0
   38.9770   21.4410   32.8940 C   0  0  0  0  0  0  0  0  0  0  0  0
   39.8270   22.1200   33.6870 N   0  0  0  0  0  0  0  0  0  0  0  0
   39.3360   22.5820   34.8630 C   0  0  0  0  0  0  0  0  0  0  0  0
   41.2330   23.6850   35.8490 C   0  0  0  0  0  0  0  0  0  0  0  0
   42.1900   22.9580   36.5850 C   0  0  0  0  0  0  0  0  0  0  0  0
   43.5260   23.3810   36.5200 C   0  0  0  0  0  0  0  0  0  0  0  0
   43.7950   24.4710   35.7450 N   0  0  0  0  0  0  0  0  0  0  0  0
   42.8590   25.1350   35.0600 C   0  0  0  0  0  0  0  0  0  0  0  0
   41.5740   24.7360   35.1160 N   0  0  0  0  0  0  0  0  0  0  0  0
   43.2810   26.2860   34.2680 C   0  0  0  0  0  0  0  0  0  0  0  0
   44.3610   26.1970   33.6340 O   0  0  0  0  0  0  0  0  0  0  0  0
   42.5490   27.4610   34.1870 O   0  0  0  0  0  0  0  0  0  0  0  0
   39.0713   24.0216   37.7746 H   0  0  0  0  0  0  0  0  0  0  0  0
   36.1178   21.4688   34.6428 H   0  0  0  0  0  0  0  0  0  0  0  0
   39.3465   21.0528   31.9334 H   0  0  0  0  0  0  0  0  0  0  0  0
   41.8989   22.0872   37.1907 H   0  0  0  0  0  0  0  0  0  0  0  0
   44.3216   22.8569   37.0697 H   0  0  0  0  0  0  0  0  0  0  0  0
   42.8798   28.2132   33.6349 H   0  0  0  0  0  0  0  0  0  0  0  0
  1  2  1  0
  3  2  2  0
  4  3  1  0
  5  4  2  0
  6  5  1  0
  7  6  2  0
  7  8  1  0
  8  9  2  0
  9  4  1  0
  9  1  1  0
 10  1  1  0
 10 11  2  0
 12 11  1  0
 13 12  2  0
 14 15  2  0
 14 13  1  0
 15 10  1  0
 16 14  1  0
 17 16  2  0
 18 16  1  0
  2 19  1  0
  5 20  1  0
  7 21  1  0
 11 22  1  0
 12 23  1  0
 18 24  1  0
M  ISO  6  19  14  20  14  21  14  22  14  23  14  24   3
M  END
>  <minimizedAffinity>  (1) 
-4.08389282

>  <minimizedRMSD>  (1) 
0.579496264

$$$$
