
     RDKit          3D

 34 37  0  0  0  0  0  0  0  0999 V2000
   40.6860   23.3990   35.9760 C   0  0  0  0  0  0  0  0  0  0  0  0
   41.6600   22.7220   36.7170 C   0  0  0  0  0  0  0  0  0  0  0  0
   42.9800   23.1560   36.6640 C   0  0  0  0  0  0  0  0  0  0  0  0
   43.2370   24.2490   35.8660 N   0  0  0  0  0  0  0  0  0  0  0  0
   42.2790   24.8710   35.1720 C   0  0  0  0  0  0  0  0  0  0  0  0
   41.0060   24.4620   35.2150 N   0  0  0  0  0  0  0  0  0  0  0  0
   39.3280   22.9590   36.0240 N   0  0  0  0  0  0  0  0  0  0  0  0
   38.4130   23.0680   36.9810 C   0  0  0  0  0  0  0  0  0  0  0  0
   37.2640   22.4970   36.5670 N   0  0  0  0  0  0  0  0  0  0  0  0
   37.4890   22.0280   35.3230 C   0  0  0  0  0  0  0  0  0  0  0  0
   36.6380   21.3630   34.4640 C   0  0  0  0  0  0  0  0  0  0  0  0
   37.1510   21.0170   33.2750 N   0  0  0  0  0  0  0  0  0  0  0  0
   38.4180   21.2940   32.9230 C   0  0  0  0  0  0  0  0  0  0  0  0
   39.2630   21.9390   33.7440 N   0  0  0  0  0  0  0  0  0  0  0  0
   38.7970   22.3130   34.9590 C   0  0  0  0  0  0  0  0  0  0  0  0
   42.6120   26.0370   34.3320 C   0  0  0  0  0  0  0  0  0  0  0  0
   41.4460   26.9040   33.9920 C   0  0  0  0  0  0  0  0  0  0  0  0
   41.9850   27.7710   32.8720 C   0  0  0  0  0  0  0  0  0  0  0  0
   43.2040   27.0330   32.3100 C   0  0  0  0  0  0  0  0  0  0  0  0
   43.1320   25.6450   32.9510 C   0  0  0  0  0  0  0  0  0  0  0  0
   41.3846   21.8550   37.3355 H   0  0  0  0  0  0  0  0  0  0  0  0
   43.7776   22.6526   37.2300 H   0  0  0  0  0  0  0  0  0  0  0  0
   38.5685   23.5488   37.9581 H   0  0  0  0  0  0  0  0  0  0  0  0
   35.5987   21.1303   34.7391 H   0  0  0  0  0  0  0  0  0  0  0  0
   38.7747   20.9824   31.9302 H   0  0  0  0  0  0  0  0  0  0  0  0
   43.3532   26.5554   34.9580 H   0  0  0  0  0  0  0  0  0  0  0  0
   40.5913   26.3018   33.6502 H   0  0  0  0  0  0  0  0  0  0  0  0
   41.0709   27.4836   34.8484 H   0  0  0  0  0  0  0  0  0  0  0  0
   41.2230   27.9002   32.0892 H   0  0  0  0  0  0  0  0  0  0  0  0
   42.2554   28.7734   33.2354 H   0  0  0  0  0  0  0  0  0  0  0  0
   43.1446   26.9600   31.2140 H   0  0  0  0  0  0  0  0  0  0  0  0
   44.1488   27.5507   32.5319 H   0  0  0  0  0  0  0  0  0  0  0  0
   42.4316   24.9831   32.4206 H   0  0  0  0  0  0  0  0  0  0  0  0
   44.0736   25.0763   32.9474 H   0  0  0  0  0  0  0  0  0  0  0  0
  1  7  1  0
  1  2  2  0
  3  2  1  0
  4  3  2  0
  5  6  2  0
  5  4  1  0
  6  1  1  0
  7  8  1  0
  9  8  2  0
 10  9  1  0
 11 10  2  0
 12 11  1  0
 13 12  2  0
 13 14  1  0
 14 15  2  0
 15 10  1  0
 15  7  1  0
 16  5  1  0
 17 16  1  0
 18 17  1  0
 19 18  1  0
 19 20  1  0
 20 16  1  0
  2 21  1  0
  3 22  1  0
  8 23  1  0
 11 24  1  0
 13 25  1  0
 16 26  1  0
 17 27  1  0
 17 28  1  0
 18 29  1  0
 18 30  1  0
 19 31  1  0
 19 32  1  0
 20 33  1  0
 20 34  1  0
M  ISO  8  21  14  22  14  23  14  24  14  25  14  26  13  27  13  28  13
M  ISO  6  29  13  30  13  31  13  32  13  33  13  34  13
M  END
>  <minimizedAffinity>  (1) 
-4.19606733

>  <minimizedRMSD>  (1) 
0.974675655

$$$$
