
     RDKit          3D

 23 25  0  0  0  0  0  0  0  0999 V2000
   39.7050   23.2730   35.8410 N   0  0  0  0  0  0  0  0  0  0  0  0
   38.7660   23.4090   36.7840 C   0  0  0  0  0  0  0  0  0  0  0  0
   37.6350   22.7890   36.3570 N   0  0  0  0  0  0  0  0  0  0  0  0
   37.8870   22.2730   35.1490 C   0  0  0  0  0  0  0  0  0  0  0  0
   37.0660   21.5510   34.3070 C   0  0  0  0  0  0  0  0  0  0  0  0
   37.6030   21.1580   33.1510 N   0  0  0  0  0  0  0  0  0  0  0  0
   38.8650   21.4430   32.8160 C   0  0  0  0  0  0  0  0  0  0  0  0
   39.6940   22.1400   33.6020 N   0  0  0  0  0  0  0  0  0  0  0  0
   39.1980   22.5630   34.7890 C   0  0  0  0  0  0  0  0  0  0  0  0
   41.0490   23.7320   35.7910 C   0  0  0  0  0  0  0  0  0  0  0  0
   42.0370   23.0600   36.5150 C   0  0  0  0  0  0  0  0  0  0  0  0
   43.3550   23.5250   36.4520 C   0  0  0  0  0  0  0  0  0  0  0  0
   43.5730   24.6310   35.6650 N   0  0  0  0  0  0  0  0  0  0  0  0
   42.6150   25.2590   34.9820 C   0  0  0  0  0  0  0  0  0  0  0  0
   41.3480   24.7930   35.0560 N   0  0  0  0  0  0  0  0  0  0  0  0
   42.9820   26.4260   34.1840 C   0  0  0  0  0  0  0  0  0  0  0  0
   42.0640   27.2490   33.9400 O   0  0  0  0  0  0  0  0  0  0  0  0
   38.8888   23.9339   37.7428 H   0  0  0  0  0  0  0  0  0  0  0  0
   36.0260   21.3127   34.5744 H   0  0  0  0  0  0  0  0  0  0  0  0
   39.2411   21.0868   31.8456 H   0  0  0  0  0  0  0  0  0  0  0  0
   41.7829   22.1801   37.1243 H   0  0  0  0  0  0  0  0  0  0  0  0
   44.1712   23.0332   37.0014 H   0  0  0  0  0  0  0  0  0  0  0  0
   44.0076   26.5766   33.8160 H   0  0  0  0  0  0  0  0  0  0  0  0
  1  2  1  0
  3  2  2  0
  4  3  1  0
  5  4  2  0
  6  5  1  0
  7  6  2  0
  7  8  1  0
  8  9  2  0
  9  4  1  0
  9  1  1  0
 10  1  1  0
 10 11  2  0
 12 11  1  0
 13 12  2  0
 14 15  2  0
 14 13  1  0
 15 10  1  0
 16 14  1  0
 17 16  2  0
  2 18  1  0
  5 19  1  0
  7 20  1  0
 11 21  1  0
 12 22  1  0
 16 23  1  0
M  ISO  6  18  14  19  14  20  14  21  14  22  14  23   6
M  END
>  <minimizedAffinity>  (1) 
-3.63882446

>  <minimizedRMSD>  (1) 
0.298326045

$$$$
