
     RDKit          3D

 30 32  0  0  0  0  0  0  0  0999 V2000
   39.6120   23.1670   35.8930 N   0  0  0  0  0  0  0  0  0  0  0  0
   38.6670   23.2980   36.8340 C   0  0  0  0  0  0  0  0  0  0  0  0
   37.5280   22.7090   36.4220 N   0  0  0  0  0  0  0  0  0  0  0  0
   37.7750   22.1980   35.1920 C   0  0  0  0  0  0  0  0  0  0  0  0
   36.9510   21.5010   34.3340 C   0  0  0  0  0  0  0  0  0  0  0  0
   37.4830   21.1210   33.1730 N   0  0  0  0  0  0  0  0  0  0  0  0
   38.7510   21.3960   32.8420 C   0  0  0  0  0  0  0  0  0  0  0  0
   39.5860   22.0740   33.6520 N   0  0  0  0  0  0  0  0  0  0  0  0
   39.0870   22.4790   34.8430 C   0  0  0  0  0  0  0  0  0  0  0  0
   40.9590   23.6120   35.8570 C   0  0  0  0  0  0  0  0  0  0  0  0
   41.9300   22.9070   36.5990 C   0  0  0  0  0  0  0  0  0  0  0  0
   43.2530   23.3880   36.5300 C   0  0  0  0  0  0  0  0  0  0  0  0
   43.4980   24.4950   35.7520 N   0  0  0  0  0  0  0  0  0  0  0  0
   42.5350   25.1210   35.0700 C   0  0  0  0  0  0  0  0  0  0  0  0
   41.2620   24.6880   35.1160 N   0  0  0  0  0  0  0  0  0  0  0  0
   42.7990   26.3180   34.2290 C   0  0  0  0  0  0  0  0  0  0  0  0
   43.3770   25.9270   32.8780 C   0  0  0  0  0  0  0  0  0  0  0  0
   41.4880   27.0580   33.9320 C   0  0  0  0  0  0  0  0  0  0  0  0
   38.8014   23.8098   37.7983 H   0  0  0  0  0  0  0  0  0  0  0  0
   35.9075   21.2704   34.5947 H   0  0  0  0  0  0  0  0  0  0  0  0
   39.1266   21.0533   31.8665 H   0  0  0  0  0  0  0  0  0  0  0  0
   41.6674   22.0252   37.2018 H   0  0  0  0  0  0  0  0  0  0  0  0
   44.0653   22.8926   37.0820 H   0  0  0  0  0  0  0  0  0  0  0  0
   43.5062   26.9474   34.7891 H   0  0  0  0  0  0  0  0  0  0  0  0
   44.2796   25.3164   33.0282 H   0  0  0  0  0  0  0  0  0  0  0  0
   42.6315   25.3469   32.3143 H   0  0  0  0  0  0  0  0  0  0  0  0
   43.6380   26.8348   32.3143 H   0  0  0  0  0  0  0  0  0  0  0  0
   40.9999   27.3335   34.8785 H   0  0  0  0  0  0  0  0  0  0  0  0
   41.7036   27.9676   33.3523 H   0  0  0  0  0  0  0  0  0  0  0  0
   40.8206   26.4033   33.3523 H   0  0  0  0  0  0  0  0  0  0  0  0
  1  2  1  0
  3  2  2  0
  4  3  1  0
  5  4  2  0
  6  5  1  0
  7  6  2  0
  7  8  1  0
  8  9  2  0
  9  4  1  0
  9  1  1  0
 10  1  1  0
 10 11  2  0
 12 11  1  0
 13 12  2  0
 14 15  2  0
 14 13  1  0
 15 10  1  0
 16 14  1  0
 17 16  1  0
 18 16  1  0
  2 19  1  0
  5 20  1  0
  7 21  1  0
 11 22  1  0
 12 23  1  0
 16 24  1  0
 17 25  1  0
 17 26  1  0
 17 27  1  0
 18 28  1  0
 18 29  1  0
 18 30  1  0
M  ISO  8  19  14  20  14  21  14  22  14  23  14  24   8  25   8  26   8
M  ISO  4  27   8  28   8  29   8  30   8
M  END
>  <minimizedAffinity>  (1) 
-3.90504575

>  <minimizedRMSD>  (1) 
0.44150281

$$$$
