
     RDKit          3D

 22 24  0  0  0  0  0  0  0  0999 V2000
   39.8530   23.2760   35.9170 N   0  0  0  0  0  0  0  0  0  0  0  0
   38.9260   23.4430   36.8660 C   0  0  0  0  0  0  0  0  0  0  0  0
   37.7780   22.8560   36.4510 N   0  0  0  0  0  0  0  0  0  0  0  0
   38.0050   22.3270   35.2430 C   0  0  0  0  0  0  0  0  0  0  0  0
   37.1560   21.6310   34.4090 C   0  0  0  0  0  0  0  0  0  0  0  0
   37.6610   21.2170   33.2460 N   0  0  0  0  0  0  0  0  0  0  0  0
   38.9420   21.4620   32.8880 C   0  0  0  0  0  0  0  0  0  0  0  0
   39.7920   22.1390   33.6800 N   0  0  0  0  0  0  0  0  0  0  0  0
   39.3170   22.5780   34.8740 C   0  0  0  0  0  0  0  0  0  0  0  0
   41.2190   23.6950   35.8490 C   0  0  0  0  0  0  0  0  0  0  0  0
   42.1910   23.0070   36.5730 C   0  0  0  0  0  0  0  0  0  0  0  0
   43.5160   23.4400   36.4880 C   0  0  0  0  0  0  0  0  0  0  0  0
   43.7720   24.5200   35.6930 N   0  0  0  0  0  0  0  0  0  0  0  0
   42.8060   25.1600   35.0100 C   0  0  0  0  0  0  0  0  0  0  0  0
   41.5320   24.7480   35.0880 N   0  0  0  0  0  0  0  0  0  0  0  0
   43.1470   26.5750   33.9700 S   0  0  0  0  0  0  0  0  0  0  0  0
   39.0711   23.9680   37.8217 H   0  0  0  0  0  0  0  0  0  0  0  0
   36.1121   21.4269   34.6893 H   0  0  0  0  0  0  0  0  0  0  0  0
   39.3010   21.0947   31.9152 H   0  0  0  0  0  0  0  0  0  0  0  0
   41.9207   22.1425   37.1972 H   0  0  0  0  0  0  0  0  0  0  0  0
   44.3207   22.9315   37.0392 H   0  0  0  0  0  0  0  0  0  0  0  0
   43.4100   27.6662   34.7555 H   0  0  0  0  0  0  0  0  0  0  0  0
  1  2  1  0
  3  2  2  0
  4  3  1  0
  5  4  2  0
  6  5  1  0
  7  6  2  0
  7  8  1  0
  8  9  2  0
  9  4  1  0
  9  1  1  0
 10  1  1  0
 10 11  2  0
 12 11  1  0
 13 12  2  0
 14 15  2  0
 14 13  1  0
 15 10  1  0
 16 14  1  0
  2 17  1  0
  5 18  1  0
  7 19  1  0
 11 20  1  0
 12 21  1  0
 16 22  1  0
M  ISO  6  17  14  18  14  19  14  20  14  21  14  22  11
M  END
>  <minimizedAffinity>  (1) 
-3.61091828

>  <minimizedRMSD>  (1) 
0.0518516675

$$$$
