
     RDKit          3D

 34 36  0  0  0  0  0  0  0  0999 V2000
   37.9870   22.1860   33.1200 C   0  0  0  0  0  0  0  0  0  0  0  0
   37.2810   21.7900   31.9660 C   0  0  0  0  0  0  0  0  0  0  0  0
   37.2760   22.6720   30.8970 C   0  0  0  0  0  0  0  0  0  0  0  0
   37.9380   23.8560   31.0050 N   0  0  0  0  0  0  0  0  0  0  0  0
   38.6000   24.2020   32.1190 C   0  0  0  0  0  0  0  0  0  0  0  0
   38.6340   23.3670   33.1980 N   0  0  0  0  0  0  0  0  0  0  0  0
   36.6590   20.5510   32.0140 N   0  0  0  0  0  0  0  0  0  0  0  0
   37.4430   19.4610   31.7840 C   0  0  0  0  0  0  0  0  0  0  0  0
   36.8760   18.2150   31.8200 C   0  0  0  0  0  0  0  0  0  0  0  0
   35.5340   18.1320   32.0880 C   0  0  0  0  0  0  0  0  0  0  0  0
   34.8940   16.8880   32.1390 N   0  0  0  0  0  0  0  0  0  0  0  0
   34.7900   19.2330   32.3100 N   0  0  0  0  0  0  0  0  0  0  0  0
   35.3530   20.4590   32.2740 C   0  0  0  0  0  0  0  0  0  0  0  0
   34.6330   21.4710   32.4850 O   0  0  0  0  0  0  0  0  0  0  0  0
   39.3070   25.5200   32.1710 C   0  0  0  0  0  0  0  0  0  0  0  0
   38.7050   26.2750   33.3080 C   0  0  0  0  0  0  0  0  0  0  0  0
   37.4340   26.7720   33.3320 C   0  0  0  0  0  0  0  0  0  0  0  0
   36.9870   27.4580   34.4470 C   0  0  0  0  0  0  0  0  0  0  0  0
   37.7980   27.6610   35.5580 C   0  0  0  0  0  0  0  0  0  0  0  0
   39.0900   27.1740   35.5710 C   0  0  0  0  0  0  0  0  0  0  0  0
   39.4770   26.5070   34.4470 C   0  0  0  0  0  0  0  0  0  0  0  0
   38.0111   21.5088   33.9865 H   0  0  0  0  0  0  0  0  0  0  0  0
   36.7418   22.4173   29.9698 H   0  0  0  0  0  0  0  0  0  0  0  0
   38.5159   19.5800   31.5724 H   0  0  0  0  0  0  0  0  0  0  0  0
   37.4769   17.3114   31.6400 H   0  0  0  0  0  0  0  0  0  0  0  0
   33.8854   16.8356   32.3411 H   0  0  0  0  0  0  0  0  0  0  0  0
   35.4317   16.0251   31.9745 H   0  0  0  0  0  0  0  0  0  0  0  0
   40.3830   25.3683   32.3421 H   0  0  0  0  0  0  0  0  0  0  0  0
   39.1975   26.0694   31.2244 H   0  0  0  0  0  0  0  0  0  0  0  0
   36.7680   26.6277   32.4685 H   0  0  0  0  0  0  0  0  0  0  0  0
   35.9608   27.8541   34.4549 H   0  0  0  0  0  0  0  0  0  0  0  0
   37.4096   28.2106   36.4282 H   0  0  0  0  0  0  0  0  0  0  0  0
   39.7618   27.3148   36.4306 H   0  0  0  0  0  0  0  0  0  0  0  0
   40.5032   26.1110   34.4368 H   0  0  0  0  0  0  0  0  0  0  0  0
  1  6  2  0
  2  7  1  0
  2  1  1  0
  3  4  1  0
  3  2  2  0
  4  5  2  0
  5 15  1  0
  5  6  1  0
  7 13  1  0
  8  9  2  0
  8  7  1  0
  9 10  1  0
 10 11  1  0
 10 12  2  0
 13 12  1  0
 13 14  2  0
 15 16  1  0
 16 17  2  0
 16 21  1  0
 17 18  1  0
 18 19  2  0
 19 20  1  0
 21 20  2  0
  1 22  1  0
  3 23  1  0
  8 24  1  0
  9 25  1  0
 11 26  1  0
 11 27  1  0
 15 28  1  0
 15 29  1  0
 17 30  1  0
 18 31  1  0
 19 32  1  0
 20 33  1  0
 21 34  1  0
M  ISO  8  22  14  23  14  24  14  25  14  28   8  29   8  30  14  31  14
M  ISO  3  32  14  33  14  34  14
M  END
>  <minimizedAffinity>  (1) 
-5.16562939

>  <minimizedRMSD>  (1) 
6.03794622

$$$$
