
     RDKit          3D

 39 42  0  0  0  0  0  0  0  0999 V2000
   40.9360   23.2160   36.1410 C   0  0  0  0  0  0  0  0  0  0  0  0
   40.1820   22.5770   37.1460 C   0  0  0  0  0  0  0  0  0  0  0  0
   38.9270   23.1560   37.4320 C   0  0  0  0  0  0  0  0  0  0  0  0
   38.5490   24.2540   36.7410 N   0  0  0  0  0  0  0  0  0  0  0  0
   39.3180   24.8260   35.7830 C   0  0  0  0  0  0  0  0  0  0  0  0
   40.5170   24.3040   35.4820 N   0  0  0  0  0  0  0  0  0  0  0  0
   42.2230   22.6720   35.8050 N   0  0  0  0  0  0  0  0  0  0  0  0
   42.5550   21.5730   35.0940 C   0  0  0  0  0  0  0  0  0  0  0  0
   43.9080   21.4840   35.0550 N   0  0  0  0  0  0  0  0  0  0  0  0
   44.4040   22.5380   35.7470 C   0  0  0  0  0  0  0  0  0  0  0  0
   45.7080   22.8740   35.9840 C   0  0  0  0  0  0  0  0  0  0  0  0
   45.8950   23.9950   36.7160 N   0  0  0  0  0  0  0  0  0  0  0  0
   44.8770   24.7330   37.1820 C   0  0  0  0  0  0  0  0  0  0  0  0
   43.5940   24.3930   36.9430 N   0  0  0  0  0  0  0  0  0  0  0  0
   43.3520   23.2980   36.2270 C   0  0  0  0  0  0  0  0  0  0  0  0
   38.8180   26.0270   35.0810 C   0  0  0  0  0  0  0  0  0  0  0  0
   39.9760   26.6840   34.3400 C   0  0  0  0  0  0  0  0  0  0  0  0
   38.3380   27.0420   36.1070 C   0  0  0  0  0  0  0  0  0  0  0  0
   37.6650   25.7520   34.1660 C   0  0  0  0  0  0  0  0  0  0  0  0
   37.3400   26.8710   33.3060 N   0  0  0  0  0  0  0  0  0  0  0  0
   36.6260   27.9960   33.4950 C   0  0  0  0  0  0  0  0  0  0  0  0
   36.6660   28.6710   32.3340 N   0  0  0  0  0  0  0  0  0  0  0  0
   37.3910   27.9730   31.4430 C   0  0  0  0  0  0  0  0  0  0  0  0
   37.8150   26.8430   32.0520 N   0  0  0  0  0  0  0  0  0  0  0  0
   40.5483   21.6841   37.6737 H   0  0  0  0  0  0  0  0  0  0  0  0
   38.2706   22.7227   38.2010 H   0  0  0  0  0  0  0  0  0  0  0  0
   41.8493   20.8705   34.6266 H   0  0  0  0  0  0  0  0  0  0  0  0
   46.5477   22.2731   35.6049 H   0  0  0  0  0  0  0  0  0  0  0  0
   45.0932   25.6357   37.7723 H   0  0  0  0  0  0  0  0  0  0  0  0
   40.6933   27.0910   35.0679 H   0  0  0  0  0  0  0  0  0  0  0  0
   40.4785   25.9365   33.7086 H   0  0  0  0  0  0  0  0  0  0  0  0
   39.5921   27.4988   33.7086 H   0  0  0  0  0  0  0  0  0  0  0  0
   38.5214   26.6542   37.1199 H   0  0  0  0  0  0  0  0  0  0  0  0
   38.8847   27.9869   35.9716 H   0  0  0  0  0  0  0  0  0  0  0  0
   37.2608   27.2189   35.9716 H   0  0  0  0  0  0  0  0  0  0  0  0
   37.9182   24.8877   33.5345 H   0  0  0  0  0  0  0  0  0  0  0  0
   36.7853   25.5586   34.7975 H   0  0  0  0  0  0  0  0  0  0  0  0
   36.1114   28.3024   34.4177 H   0  0  0  0  0  0  0  0  0  0  0  0
   37.6016   28.2683   30.4045 H   0  0  0  0  0  0  0  0  0  0  0  0
  1  2  2  0
  2  3  1  0
  4  3  2  0
  5  4  1  0
  6  5  2  0
  6  1  1  0
  7  1  1  0
  7 15  1  0
  8  7  1  0
  9  8  2  0
  9 10  1  0
 10 11  2  0
 10 15  1  0
 11 12  1  0
 12 13  2  0
 14 13  1  0
 15 14  2  0
 16  5  1  0
 16 18  1  0
 17 16  1  0
 19 16  1  0
 20 21  1  0
 20 19  1  0
 22 21  2  0
 23 24  2  0
 23 22  1  0
 24 20  1  0
  2 25  1  0
  3 26  1  0
  8 27  1  0
 11 28  1  0
 13 29  1  0
 17 30  1  0
 17 31  1  0
 17 32  1  0
 18 33  1  0
 18 34  1  0
 18 35  1  0
 19 36  1  0
 19 37  1  0
 21 38  1  0
 23 39  1  0
M  ISO  8  25  14  26  14  27  14  28  14  29  14  30   8  31   8  32   8
M  ISO  7  33   8  34   8  35   8  36   8  37   8  38  14  39  14
M  END
>  <minimizedAffinity>  (1) 
-4.98052597

>  <minimizedRMSD>  (1) 
6.18987322

$$$$
