
     RDKit          3D

 40 43  0  0  0  0  0  0  0  0999 V2000
   42.9880   22.9850   36.4510 C   0  0  0  0  0  0  0  0  0  0  0  0
   43.5640   21.8870   35.7870 C   0  0  0  0  0  0  0  0  0  0  0  0
   44.9570   21.9060   35.6460 C   0  0  0  0  0  0  0  0  0  0  0  0
   45.6460   22.9650   36.1510 N   0  0  0  0  0  0  0  0  0  0  0  0
   45.0390   23.9950   36.7820 C   0  0  0  0  0  0  0  0  0  0  0  0
   43.6970   24.0090   36.9350 N   0  0  0  0  0  0  0  0  0  0  0  0
   41.5650   23.0110   36.6200 N   0  0  0  0  0  0  0  0  0  0  0  0
   40.7810   22.4250   37.5330 C   0  0  0  0  0  0  0  0  0  0  0  0
   39.4920   22.7460   37.2810 N   0  0  0  0  0  0  0  0  0  0  0  0
   39.4940   23.5460   36.1890 C   0  0  0  0  0  0  0  0  0  0  0  0
   38.4280   24.1380   35.5360 C   0  0  0  0  0  0  0  0  0  0  0  0
   38.7400   24.8880   34.4670 N   0  0  0  0  0  0  0  0  0  0  0  0
   40.0100   25.0600   34.0490 C   0  0  0  0  0  0  0  0  0  0  0  0
   41.0440   24.4820   34.6880 N   0  0  0  0  0  0  0  0  0  0  0  0
   40.7920   23.7250   35.7590 C   0  0  0  0  0  0  0  0  0  0  0  0
   45.8490   25.1190   37.3090 C   0  0  0  0  0  0  0  0  0  0  0  0
   46.8810   24.6010   38.2710 C   0  0  0  0  0  0  0  0  0  0  0  0
   44.9370   26.0780   38.0790 C   0  0  0  0  0  0  0  0  0  0  0  0
   46.4900   25.9380   36.1960 C   0  0  0  0  0  0  0  0  0  0  0  0
   45.5070   26.2340   35.1220 C   0  0  0  0  0  0  0  0  0  0  0  0
   45.2360   27.5480   34.7310 C   0  0  0  0  0  0  0  0  0  0  0  0
   44.3160   27.4920   33.7510 N   0  0  0  0  0  0  0  0  0  0  0  0
   43.9970   26.1860   33.5110 C   0  0  0  0  0  0  0  0  0  0  0  0
   44.7370   25.4340   34.3620 N   0  0  0  0  0  0  0  0  0  0  0  0
   42.9533   21.0583   35.3995 H   0  0  0  0  0  0  0  0  0  0  0  0
   45.4823   21.0835   35.1385 H   0  0  0  0  0  0  0  0  0  0  0  0
   41.1297   21.7846   38.3566 H   0  0  0  0  0  0  0  0  0  0  0  0
   37.3892   24.0027   35.8717 H   0  0  0  0  0  0  0  0  0  0  0  0
   40.2056   25.6865   33.1663 H   0  0  0  0  0  0  0  0  0  0  0  0
   46.5395   24.7724   39.3025 H   0  0  0  0  0  0  0  0  0  0  0  0
   47.0265   23.5230   38.1073 H   0  0  0  0  0  0  0  0  0  0  0  0
   47.8323   25.1284   38.1073 H   0  0  0  0  0  0  0  0  0  0  0  0
   45.0780   25.9297   39.1598 H   0  0  0  0  0  0  0  0  0  0  0  0
   45.1897   27.1156   37.8152 H   0  0  0  0  0  0  0  0  0  0  0  0
   43.8881   25.8777   37.8152 H   0  0  0  0  0  0  0  0  0  0  0  0
   46.8624   26.8848   36.6143 H   0  0  0  0  0  0  0  0  0  0  0  0
   47.3180   25.3567   35.7641 H   0  0  0  0  0  0  0  0  0  0  0  0
   45.6906   28.4591   35.1473 H   0  0  0  0  0  0  0  0  0  0  0  0
   43.2761   25.8146   32.7678 H   0  0  0  0  0  0  0  0  0  0  0  0
   44.7135   24.4058   34.4184 H   0  0  0  0  0  0  0  0  0  0  0  0
  1  7  1  0
  1  6  1  0
  2  1  2  0
  3  2  1  0
  3  4  2  0
  4  5  1  0
  5  6  2  0
  5 16  1  0
  7  8  1  0
  9  8  2  0
 10  9  1  0
 11 10  2  0
 12 11  1  0
 13 12  2  0
 13 14  1  0
 14 15  2  0
 15 10  1  0
 15  7  1  0
 16 18  1  0
 16 17  1  0
 19 16  1  0
 20 19  1  0
 21 20  2  0
 22 21  1  0
 23 22  2  0
 23 24  1  0
 24 20  1  0
  2 25  1  0
  3 26  1  0
  8 27  1  0
 11 28  1  0
 13 29  1  0
 17 30  1  0
 17 31  1  0
 17 32  1  0
 18 33  1  0
 18 34  1  0
 18 35  1  0
 19 36  1  0
 19 37  1  0
 21 38  1  0
 23 39  1  0
 24 40  1  0
M  ISO  8  25  14  26  14  27  14  28  14  29  14  30   8  31   8  32   8
M  ISO  8  33   8  34   8  35   8  36   8  37   8  38  14  39  14  40   9
M  END
>  <minimizedAffinity>  (1) 
-4.83262253

>  <minimizedRMSD>  (1) 
3.39327812

$$$$
