
     RDKit          3D

 47 51  0  0  0  0  0  0  0  0999 V2000
   39.6980   23.2624   36.1198 N   0  0  0  0  0  0  0  0  0  0  0  0
   38.8611   23.4473   37.1610 C   0  0  0  0  0  0  0  0  0  0  0  0
   37.6729   22.8752   36.8641 N   0  0  0  0  0  0  0  0  0  0  0  0
   37.7925   22.3367   35.6265 C   0  0  0  0  0  0  0  0  0  0  0  0
   36.8623   21.6510   34.8883 C   0  0  0  0  0  0  0  0  0  0  0  0
   37.2621   21.2293   33.6818 N   0  0  0  0  0  0  0  0  0  0  0  0
   38.5027   21.4593   33.2105 C   0  0  0  0  0  0  0  0  0  0  0  0
   39.4177   22.1317   33.9322 N   0  0  0  0  0  0  0  0  0  0  0  0
   39.0627   22.5716   35.1424 C   0  0  0  0  0  0  0  0  0  0  0  0
   41.0654   23.6741   35.9368 C   0  0  0  0  0  0  0  0  0  0  0  0
   42.0702   23.0130   36.6699 C   0  0  0  0  0  0  0  0  0  0  0  0
   43.3869   23.4544   36.4533 C   0  0  0  0  0  0  0  0  0  0  0  0
   43.5944   24.4633   35.5736 N   0  0  0  0  0  0  0  0  0  0  0  0
   42.5919   25.0654   34.8939 C   0  0  0  0  0  0  0  0  0  0  0  0
   41.3176   24.6714   35.0737 N   0  0  0  0  0  0  0  0  0  0  0  0
   42.8923   26.1616   33.9485 C   0  0  0  0  0  0  0  0  0  0  0  0
   41.7337   27.1122   33.8668 C   0  0  0  0  0  0  0  0  0  0  0  0
   43.0839   25.5741   32.5535 C   0  0  0  0  0  0  0  0  0  0  0  0
   44.1856   26.8769   34.2985 C   0  0  0  0  0  0  0  0  0  0  0  0
   39.2258   23.9821   38.0160 H   0  0  0  0  0  0  0  0  0  0  0  0
   35.8608   21.4770   35.2935 H   0  0  0  0  0  0  0  0  0  0  0  0
   38.7796   21.0984   32.2286 H   0  0  0  0  0  0  0  0  0  0  0  0
   41.8415   22.2212   37.3513 H   0  0  0  0  0  0  0  0  0  0  0  0
   44.2145   22.9885   36.9863 H   0  0  0  0  0  0  0  0  0  0  0  0
   41.6788   27.6898   34.8340 H   0  0  0  0  0  0  0  0  0  0  0  0
   41.8372   27.8556   33.0773 H   0  0  0  0  0  0  0  0  0  0  0  0
   40.7958   26.5369   33.8267 H   0  0  0  0  0  0  0  0  0  0  0  0
   42.7577   26.2712   31.7597 H   0  0  0  0  0  0  0  0  0  0  0  0
   42.3542   24.7175   32.4950 H   0  0  0  0  0  0  0  0  0  0  0  0
   44.0912   25.1646   32.3955 H   0  0  0  0  0  0  0  0  0  0  0  0
   44.0755   27.2578   35.3162 H   0  0  0  0  0  0  0  0  0  0  0  0
   45.0196   26.1565   34.2620 H   0  0  0  0  0  0  0  0  0  0  0  0
   44.4588   27.9519   33.3526 N   0  0  0  0  0  0  0  0  0  0  0  0
   43.7419   28.3437   32.2884 C   0  0  0  0  0  0  0  0  0  0  0  0
   44.3299   29.3829   31.6597 N   0  0  0  0  0  0  0  0  0  0  0  0
   45.4530   29.6718   32.3305 C   0  0  0  0  0  0  0  0  0  0  0  0
   46.4274   30.6289   32.1325 C   0  0  0  0  0  0  0  0  0  0  0  0
   46.3605   31.4534   31.1634 O   0  0  0  0  0  0  0  0  0  0  0  0
   47.5035   30.7368   32.9615 N   0  0  0  0  0  0  0  0  0  0  0  0
   47.5184   29.8403   33.9642 C   0  0  0  0  0  0  0  0  0  0  0  0
   48.5712   29.7976   34.9391 N   0  0  0  0  0  0  0  0  0  0  0  0
   46.5836   28.8982   34.1804 N   0  0  0  0  0  0  0  0  0  0  0  0
   45.5202   28.7887   33.3643 C   0  0  0  0  0  0  0  0  0  0  0  0
   42.8071   27.8904   31.9651 H   0  0  0  0  0  0  0  0  0  0  0  0
   48.2706   31.4352   32.8667 H   0  0  0  0  0  0  0  0  0  0  0  0
   49.4393   29.2635   35.1874 H   0  0  0  0  0  0  0  0  0  0  0  0
   49.2001   29.0035   34.6657 H   0  0  0  0  0  0  0  0  0  0  0  0
  1  2  1  0
  3  2  2  0
  4  3  1  0
  5  4  2  0
  6  5  1  0
  7  6  2  0
  7  8  1  0
  8  9  2  0
  9  4  1  0
  9  1  1  0
 10  1  1  0
 10 11  2  0
 12 11  1  0
 13 12  2  0
 14 15  2  0
 14 13  1  0
 15 10  1  0
 16 19  1  0
 16 14  1  0
 17 16  1  0
 18 16  1  0
  2 20  1  0
  5 21  1  0
  7 22  1  0
 11 23  1  0
 12 24  1  0
 17 25  1  0
 17 26  1  0
 17 27  1  0
 18 28  1  0
 18 29  1  0
 18 30  1  0
 19 31  1  0
 19 32  1  0
 33 34  1  0
 34 35  2  0
 35 36  1  0
 36 37  1  0
 37 38  2  0
 37 39  1  0
 39 40  1  0
 40 41  1  0
 40 42  2  0
 42 43  1  0
 43 33  1  0
 43 36  2  0
 34 44  1  0
 39 45  1  0
 41 46  1  0
 41 47  1  0
 19 33  1  0
M  END
>  <DihAtoms>  (1) 
15,18,32,33

>  <DihDeg>  (1) 
-89.99935628530186

$$$$
