
     RDKit          3D

 47 50  0  0  0  0  0  0  0  0999 V2000
   40.9990   22.9150   36.2440 C   0  0  0  0  0  0  0  0  0  0  0  0
   40.0970   22.4050   37.1880 C   0  0  0  0  0  0  0  0  0  0  0  0
   38.9200   23.1340   37.3800 C   0  0  0  0  0  0  0  0  0  0  0  0
   38.7320   24.2660   36.6550 N   0  0  0  0  0  0  0  0  0  0  0  0
   39.6420   24.7110   35.7530 C   0  0  0  0  0  0  0  0  0  0  0  0
   40.7790   24.0360   35.5450 N   0  0  0  0  0  0  0  0  0  0  0  0
   42.2240   22.1980   36.0110 N   0  0  0  0  0  0  0  0  0  0  0  0
   42.4400   20.9340   35.6150 C   0  0  0  0  0  0  0  0  0  0  0  0
   43.7710   20.7220   35.5400 N   0  0  0  0  0  0  0  0  0  0  0  0
   44.3810   21.8870   35.9010 C   0  0  0  0  0  0  0  0  0  0  0  0
   45.7200   22.1710   35.9810 C   0  0  0  0  0  0  0  0  0  0  0  0
   46.0320   23.4290   36.3730 N   0  0  0  0  0  0  0  0  0  0  0  0
   45.0960   24.3370   36.6610 C   0  0  0  0  0  0  0  0  0  0  0  0
   43.7820   24.0540   36.5820 N   0  0  0  0  0  0  0  0  0  0  0  0
   43.4170   22.8290   36.2010 C   0  0  0  0  0  0  0  0  0  0  0  0
   39.3650   25.9750   34.9930 C   0  0  0  0  0  0  0  0  0  0  0  0
   38.3390   26.7730   35.7510 C   0  0  0  0  0  0  0  0  0  0  0  0
   38.7310   25.5940   33.6460 C   0  0  0  0  0  0  0  0  0  0  0  0
   40.6140   26.7290   34.6780 C   0  0  0  0  0  0  0  0  0  0  0  0
   41.1380   26.6560   33.3760 N   0  0  0  0  0  0  0  0  0  0  0  0
   42.4610   26.0030   33.5150 C   0  0  0  0  0  0  0  0  0  0  0  0
   43.5120   26.9530   33.9960 C   0  0  0  0  0  0  0  0  0  0  0  0
   43.8550   27.8260   32.8640 N   0  0  0  0  0  0  0  0  0  0  0  0
   42.7610   27.8380   31.9520 C   0  0  0  0  0  0  0  0  0  0  0  0
   41.3890   27.8550   32.6580 C   0  0  0  0  0  0  0  0  0  0  0  0
   40.3043   21.4809   37.7475 H   0  0  0  0  0  0  0  0  0  0  0  0
   38.1624   22.7976   38.1031 H   0  0  0  0  0  0  0  0  0  0  0  0
   41.6600   20.1921   35.3886 H   0  0  0  0  0  0  0  0  0  0  0  0
   46.4917   21.4244   35.7420 H   0  0  0  0  0  0  0  0  0  0  0  0
   45.4075   25.3452   36.9717 H   0  0  0  0  0  0  0  0  0  0  0  0
   38.5014   26.6467   36.8316 H   0  0  0  0  0  0  0  0  0  0  0  0
   38.4342   27.8368   35.4878 H   0  0  0  0  0  0  0  0  0  0  0  0
   37.3314   26.4189   35.4878 H   0  0  0  0  0  0  0  0  0  0  0  0
   37.8005   25.0348   33.8238 H   0  0  0  0  0  0  0  0  0  0  0  0
   38.5067   26.5070   33.0750 H   0  0  0  0  0  0  0  0  0  0  0  0
   39.4319   24.9674   33.0750 H   0  0  0  0  0  0  0  0  0  0  0  0
   40.4125   27.7901   34.8865 H   0  0  0  0  0  0  0  0  0  0  0  0
   41.3810   26.2460   35.3012 H   0  0  0  0  0  0  0  0  0  0  0  0
   42.3741   25.1763   34.2354 H   0  0  0  0  0  0  0  0  0  0  0  0
   42.7638   25.6385   32.5223 H   0  0  0  0  0  0  0  0  0  0  0  0
   43.1239   27.5536   34.8319 H   0  0  0  0  0  0  0  0  0  0  0  0
   44.3984   26.4085   34.3536 H   0  0  0  0  0  0  0  0  0  0  0  0
   44.0336   28.7816   33.2044 H   0  0  0  0  0  0  0  0  0  0  0  0
   42.8200   26.9384   31.3217 H   0  0  0  0  0  0  0  0  0  0  0  0
   42.8373   28.7607   31.3580 H   0  0  0  0  0  0  0  0  0  0  0  0
   41.3634   28.7005   33.3612 H   0  0  0  0  0  0  0  0  0  0  0  0
   40.6133   27.9527   31.8842 H   0  0  0  0  0  0  0  0  0  0  0  0
  1  2  2  0
  2  3  1  0
  4  3  2  0
  5  4  1  0
  6  5  2  0
  6  1  1  0
  7 15  1  0
  7  1  1  0
  8  7  1  0
  9  8  2  0
  9 10  1  0
 10 11  2  0
 10 15  1  0
 11 12  1  0
 12 13  2  0
 14 13  1  0
 15 14  2  0
 16 17  1  0
 16  5  1  0
 18 16  1  0
 19 16  1  0
 20 21  1  0
 20 19  1  0
 21 22  1  0
 23 22  1  0
 24 25  1  0
 24 23  1  0
 25 20  1  0
  2 26  1  0
  3 27  1  0
  8 28  1  0
 11 29  1  0
 13 30  1  0
 17 31  1  0
 17 32  1  0
 17 33  1  0
 18 34  1  0
 18 35  1  0
 18 36  1  0
 19 37  1  0
 19 38  1  0
 21 39  1  0
 21 40  1  0
 22 41  1  0
 22 42  1  0
 23 43  1  0
 24 44  1  0
 24 45  1  0
 25 46  1  0
 25 47  1  0
M  ISO  8  26  14  27  14  28  14  29  14  30  14  31   8  32   8  33   8
M  ISO  8  34   8  35   8  36   8  37   8  38   8  39  13  40  13  41  13
M  ISO  6  42  13  43   5  44  13  45  13  46  13  47  13
M  END
>  <minimizedAffinity>  (1) 
-4.45927191

>  <minimizedRMSD>  (1) 
4.89502907

$$$$
