
     RDKit          3D

 49 52  0  0  0  0  0  0  0  0999 V2000
   38.7210   21.9840   33.0530 C   0  0  0  0  0  0  0  0  0  0  0  0
   39.5530   21.1300   32.3150 C   0  0  0  0  0  0  0  0  0  0  0  0
   40.8500   20.9310   32.8200 C   0  0  0  0  0  0  0  0  0  0  0  0
   41.2000   21.5650   33.9630 N   0  0  0  0  0  0  0  0  0  0  0  0
   40.3710   22.3720   34.6340 C   0  0  0  0  0  0  0  0  0  0  0  0
   39.1100   22.5920   34.1820 N   0  0  0  0  0  0  0  0  0  0  0  0
   37.3810   22.2240   32.5820 N   0  0  0  0  0  0  0  0  0  0  0  0
   36.2990   21.4310   32.5760 C   0  0  0  0  0  0  0  0  0  0  0  0
   35.2640   22.1060   32.0260 N   0  0  0  0  0  0  0  0  0  0  0  0
   35.7220   23.3260   31.6930 C   0  0  0  0  0  0  0  0  0  0  0  0
   35.0570   24.3770   31.1050 C   0  0  0  0  0  0  0  0  0  0  0  0
   35.7880   25.4880   30.8900 N   0  0  0  0  0  0  0  0  0  0  0  0
   37.0780   25.5780   31.2210 C   0  0  0  0  0  0  0  0  0  0  0  0
   37.7340   24.5480   31.7980 N   0  0  0  0  0  0  0  0  0  0  0  0
   37.0610   23.4120   32.0400 C   0  0  0  0  0  0  0  0  0  0  0  0
   40.8150   23.0360   35.9110 C   0  0  0  0  0  0  0  0  0  0  0  0
   42.3150   22.9540   36.0260 C   0  0  0  0  0  0  0  0  0  0  0  0
   40.2270   22.2230   37.0690 C   0  0  0  0  0  0  0  0  0  0  0  0
   40.2940   24.4280   36.0120 C   0  0  0  0  0  0  0  0  0  0  0  0
   40.5070   25.3830   34.9280 C   0  0  0  0  0  0  0  0  0  0  0  0
   41.8210   26.0280   34.7350 C   0  0  0  0  0  0  0  0  0  0  0  0
   41.6720   27.1350   33.6950 C   0  0  0  0  0  0  0  0  0  0  0  0
   40.3830   27.0680   32.9290 C   0  0  0  0  0  0  0  0  0  0  0  0
   39.1810   27.1380   33.8510 C   0  0  0  0  0  0  0  0  0  0  0  0
   39.5060   26.5320   35.1990 C   0  0  0  0  0  0  0  0  0  0  0  0
   39.2095   20.6421   31.3909 H   0  0  0  0  0  0  0  0  0  0  0  0
   41.5631   20.2756   32.2984 H   0  0  0  0  0  0  0  0  0  0  0  0
   36.2599   20.3996   32.9565 H   0  0  0  0  0  0  0  0  0  0  0  0
   33.9944   24.3141   30.8276 H   0  0  0  0  0  0  0  0  0  0  0  0
   37.6199   26.5137   31.0189 H   0  0  0  0  0  0  0  0  0  0  0  0
   42.6010   22.9384   37.0881 H   0  0  0  0  0  0  0  0  0  0  0  0
   42.6705   22.0351   35.5370 H   0  0  0  0  0  0  0  0  0  0  0  0
   42.7686   23.8287   35.5370 H   0  0  0  0  0  0  0  0  0  0  0  0
   40.5456   22.6635   38.0252 H   0  0  0  0  0  0  0  0  0  0  0  0
   39.1289   22.2372   37.0066 H   0  0  0  0  0  0  0  0  0  0  0  0
   40.5844   21.1845   37.0066 H   0  0  0  0  0  0  0  0  0  0  0  0
   39.2058   24.3472   36.1505 H   0  0  0  0  0  0  0  0  0  0  0  0
   40.8876   24.8535   36.8346 H   0  0  0  0  0  0  0  0  0  0  0  0
   40.3943   24.7754   34.0180 H   0  0  0  0  0  0  0  0  0  0  0  0
   42.1662   26.4578   35.6869 H   0  0  0  0  0  0  0  0  0  0  0  0
   42.5569   25.2861   34.3914 H   0  0  0  0  0  0  0  0  0  0  0  0
   41.7206   28.1056   34.2104 H   0  0  0  0  0  0  0  0  0  0  0  0
   42.4873   27.0072   32.9677 H   0  0  0  0  0  0  0  0  0  0  0  0
   40.3421   27.9119   32.2246 H   0  0  0  0  0  0  0  0  0  0  0  0
   40.3505   26.1075   32.3939 H   0  0  0  0  0  0  0  0  0  0  0  0
   38.8918   28.1904   33.9883 H   0  0  0  0  0  0  0  0  0  0  0  0
   38.3540   26.5714   33.3982 H   0  0  0  0  0  0  0  0  0  0  0  0
   38.5930   26.1388   35.6700 H   0  0  0  0  0  0  0  0  0  0  0  0
   39.9324   27.2813   35.8822 H   0  0  0  0  0  0  0  0  0  0  0  0
  1  6  2  0
  2  3  2  0
  2  1  1  0
  3  4  1  0
  4  5  2  0
  5 16  1  0
  6  5  1  0
  7  1  1  0
  8  7  1  0
  9  8  2  0
 10  9  1  0
 10 15  2  0
 11 10  1  0
 12 11  2  0
 12 13  1  0
 13 14  2  0
 14 15  1  0
 15  7  1  0
 16 19  1  0
 16 17  1  0
 16 18  1  0
 20 25  1  0
 20 19  1  0
 21 20  1  0
 22 21  1  0
 23 22  1  0
 23 24  1  0
 24 25  1  0
  2 26  1  0
  3 27  1  0
  8 28  1  0
 11 29  1  0
 13 30  1  0
 17 31  1  0
 17 32  1  0
 17 33  1  0
 18 34  1  0
 18 35  1  0
 18 36  1  0
 19 37  1  0
 19 38  1  0
 20 39  1  0
 21 40  1  0
 21 41  1  0
 22 42  1  0
 22 43  1  0
 23 44  1  0
 23 45  1  0
 24 46  1  0
 24 47  1  0
 25 48  1  0
 25 49  1  0
M  ISO  8  26  14  27  14  28  14  29  14  30  14  31   8  32   8  33   8
M  ISO  8  34   8  35   8  36   8  37   8  38   8  39  13  40  13  41  13
M  ISO  8  42  13  43  13  44  13  45  13  46  13  47  13  48  13  49  13
M  END
>  <minimizedAffinity>  (1) 
-4.86140537

>  <minimizedRMSD>  (1) 
4.87780666

$$$$
