
     RDKit          3D

 43 46  0  0  0  0  0  0  0  0999 V2000
   37.3070   21.5570   33.2610 C   0  0  0  0  0  0  0  0  0  0  0  0
   39.5900   23.4600   35.4410 C   0  0  0  0  0  0  0  0  0  0  0  0
   38.9130   23.4700   36.6850 C   0  0  0  0  0  0  0  0  0  0  0  0
   37.6750   22.8140   36.7360 C   0  0  0  0  0  0  0  0  0  0  0  0
   37.2070   22.2160   35.6070 N   0  0  0  0  0  0  0  0  0  0  0  0
   37.8860   22.2300   34.4400 C   0  0  0  0  0  0  0  0  0  0  0  0
   39.0700   22.8480   34.3570 N   0  0  0  0  0  0  0  0  0  0  0  0
   40.8440   24.1070   35.3310 N   0  0  0  0  0  0  0  0  0  0  0  0
   42.0500   23.7600   35.8160 C   0  0  0  0  0  0  0  0  0  0  0  0
   42.9540   24.6990   35.4480 N   0  0  0  0  0  0  0  0  0  0  0  0
   42.2830   25.6360   34.7260 C   0  0  0  0  0  0  0  0  0  0  0  0
   42.7500   26.7840   34.1320 C   0  0  0  0  0  0  0  0  0  0  0  0
   41.8290   27.5190   33.4750 N   0  0  0  0  0  0  0  0  0  0  0  0
   40.5520   27.1660   33.4020 C   0  0  0  0  0  0  0  0  0  0  0  0
   40.0770   26.0490   33.9750 N   0  0  0  0  0  0  0  0  0  0  0  0
   40.9500   25.2610   34.6520 C   0  0  0  0  0  0  0  0  0  0  0  0
   36.5880   22.5890   32.4010 C   0  0  0  0  0  0  0  0  0  0  0  0
   36.2310   20.5750   33.7210 C   0  0  0  0  0  0  0  0  0  0  0  0
   38.2990   20.7500   32.4740 C   0  0  0  0  0  0  0  0  0  0  0  0
   37.6420   19.7140   31.6260 C   0  0  0  0  0  0  0  0  0  0  0  0
   37.0850   20.0180   30.3920 C   0  0  0  0  0  0  0  0  0  0  0  0
   36.5560   18.8670   29.8480 C   0  0  0  0  0  0  0  0  0  0  0  0
   36.8020   17.9180   30.7460 N   0  0  0  0  0  0  0  0  0  0  0  0
   37.4400   18.3950   31.7980 N   0  0  0  0  0  0  0  0  0  0  0  0
   36.4090   16.5170   30.5780 C   0  0  0  0  0  0  0  0  0  0  0  0
   39.3381   23.9685   37.5686 H   0  0  0  0  0  0  0  0  0  0  0  0
   37.0940   22.7834   37.6695 H   0  0  0  0  0  0  0  0  0  0  0  0
   42.2662   22.8617   36.4130 H   0  0  0  0  0  0  0  0  0  0  0  0
   43.8067   27.0842   34.1886 H   0  0  0  0  0  0  0  0  0  0  0  0
   39.8553   27.8142   32.8502 H   0  0  0  0  0  0  0  0  0  0  0  0
   36.0804   23.3176   33.0501 H   0  0  0  0  0  0  0  0  0  0  0  0
   37.3192   23.1106   31.7660 H   0  0  0  0  0  0  0  0  0  0  0  0
   35.8454   22.0838   31.7660 H   0  0  0  0  0  0  0  0  0  0  0  0
   36.2034   20.5498   34.8204 H   0  0  0  0  0  0  0  0  0  0  0  0
   35.2520   20.8974   33.3369 H   0  0  0  0  0  0  0  0  0  0  0  0
   36.4628   19.5706   33.3369 H   0  0  0  0  0  0  0  0  0  0  0  0
   38.8704   21.4287   31.8238 H   0  0  0  0  0  0  0  0  0  0  0  0
   38.9542   20.2321   33.1899 H   0  0  0  0  0  0  0  0  0  0  0  0
   37.0683   21.0137   29.9247 H   0  0  0  0  0  0  0  0  0  0  0  0
   36.0423   18.7576   28.8815 H   0  0  0  0  0  0  0  0  0  0  0  0
   36.2785   16.0518   31.5662 H   0  0  0  0  0  0  0  0  0  0  0  0
   35.4619   16.4661   30.0208 H   0  0  0  0  0  0  0  0  0  0  0  0
   37.1914   15.9810   30.0208 H   0  0  0  0  0  0  0  0  0  0  0  0
  1 18  1  0
  1  6  1  0
  2  3  2  0
  3  4  1  0
  5  4  2  0
  6  5  1  0
  7  6  2  0
  7  2  1  0
  8  2  1  0
  8  9  1  0
 10  9  2  0
 11 10  1  0
 12 11  2  0
 13 12  1  0
 14 13  2  0
 14 15  1  0
 15 16  2  0
 16 11  1  0
 16  8  1  0
 17  1  1  0
 19  1  1  0
 20 24  2  0
 20 19  1  0
 21 20  1  0
 22 21  2  0
 22 23  1  0
 23 24  1  0
 25 23  1  0
  3 26  1  0
  4 27  1  0
  9 28  1  0
 12 29  1  0
 14 30  1  0
 17 31  1  0
 17 32  1  0
 17 33  1  0
 18 34  1  0
 18 35  1  0
 18 36  1  0
 19 37  1  0
 19 38  1  0
 21 39  1  0
 22 40  1  0
 25 41  1  0
 25 42  1  0
 25 43  1  0
M  ISO  8  26  14  27  14  28  14  29  14  30  14  31   8  32   8  33   8
M  ISO  8  34   8  35   8  36   8  37   8  38   8  39  14  40  14  41   8
M  ISO  2  42   8  43   8
M  END
>  <minimizedAffinity>  (1) 
-4.56358624

>  <minimizedRMSD>  (1) 
0.484234512

$$$$
