
     RDKit          3D

 47 51  0  0  0  0  0  0  0  0999 V2000
   37.2810   21.6060   33.2750 C   0  0  0  0  0  0  0  0  0  0  0  0
   39.6040   23.4580   35.4470 C   0  0  0  0  0  0  0  0  0  0  0  0
   38.9610   23.4670   36.7000 C   0  0  0  0  0  0  0  0  0  0  0  0
   37.7190   22.8210   36.7650 C   0  0  0  0  0  0  0  0  0  0  0  0
   37.2250   22.2390   35.6310 N   0  0  0  0  0  0  0  0  0  0  0  0
   37.8800   22.2580   34.4560 C   0  0  0  0  0  0  0  0  0  0  0  0
   39.0680   22.8670   34.3630 N   0  0  0  0  0  0  0  0  0  0  0  0
   40.8760   24.1040   35.3270 N   0  0  0  0  0  0  0  0  0  0  0  0
   42.0840   23.7550   35.7920 C   0  0  0  0  0  0  0  0  0  0  0  0
   42.9860   24.6910   35.4180 N   0  0  0  0  0  0  0  0  0  0  0  0
   42.3070   25.6240   34.7120 C   0  0  0  0  0  0  0  0  0  0  0  0
   42.7840   26.7760   34.1180 C   0  0  0  0  0  0  0  0  0  0  0  0
   41.8670   27.5170   33.4770 N   0  0  0  0  0  0  0  0  0  0  0  0
   40.5770   27.1750   33.4120 C   0  0  0  0  0  0  0  0  0  0  0  0
   40.0990   26.0500   33.9890 N   0  0  0  0  0  0  0  0  0  0  0  0
   40.9850   25.2650   34.6490 C   0  0  0  0  0  0  0  0  0  0  0  0
   36.6100   22.6470   32.4090 C   0  0  0  0  0  0  0  0  0  0  0  0
   36.1670   20.6620   33.7390 C   0  0  0  0  0  0  0  0  0  0  0  0
   38.2480   20.7510   32.5080 C   0  0  0  0  0  0  0  0  0  0  0  0
   37.5610   19.6840   31.7310 C   0  0  0  0  0  0  0  0  0  0  0  0
   37.1040   19.8890   30.4190 C   0  0  0  0  0  0  0  0  0  0  0  0
   36.5150   18.7160   29.9830 C   0  0  0  0  0  0  0  0  0  0  0  0
   36.6280   17.8650   31.0000 N   0  0  0  0  0  0  0  0  0  0  0  0
   37.2360   18.4150   32.0310 N   0  0  0  0  0  0  0  0  0  0  0  0
   36.1520   16.5240   30.9870 C   0  0  0  0  0  0  0  0  0  0  0  0
   35.3720   15.8830   31.9430 C   0  0  0  0  0  0  0  0  0  0  0  0
   35.1060   14.5760   31.5880 C   0  0  0  0  0  0  0  0  0  0  0  0
   35.7370   14.4340   30.4010 N   0  0  0  0  0  0  0  0  0  0  0  0
   36.3370   15.5640   30.0640 N   0  0  0  0  0  0  0  0  0  0  0  0
   39.4088   23.9540   37.5788 H   0  0  0  0  0  0  0  0  0  0  0  0
   37.1540   22.7831   37.7080 H   0  0  0  0  0  0  0  0  0  0  0  0
   42.3057   22.8535   36.3821 H   0  0  0  0  0  0  0  0  0  0  0  0
   43.8438   27.0665   34.1670 H   0  0  0  0  0  0  0  0  0  0  0  0
   39.8801   27.8315   32.8704 H   0  0  0  0  0  0  0  0  0  0  0  0
   36.1252   23.3991   33.0488 H   0  0  0  0  0  0  0  0  0  0  0  0
   37.3631   23.1364   31.7739 H   0  0  0  0  0  0  0  0  0  0  0  0
   35.8533   22.1632   31.7739 H   0  0  0  0  0  0  0  0  0  0  0  0
   36.1400   20.6391   34.8384 H   0  0  0  0  0  0  0  0  0  0  0  0
   35.1999   21.0198   33.3558 H   0  0  0  0  0  0  0  0  0  0  0  0
   36.3612   19.6493   33.3558 H   0  0  0  0  0  0  0  0  0  0  0  0
   38.8106   21.3900   31.8115 H   0  0  0  0  0  0  0  0  0  0  0  0
   38.9165   20.2636   33.2330 H   0  0  0  0  0  0  0  0  0  0  0  0
   37.1980   20.8194   29.8397 H   0  0  0  0  0  0  0  0  0  0  0  0
   36.0515   18.5266   29.0035 H   0  0  0  0  0  0  0  0  0  0  0  0
   35.0117   16.3584   32.8672 H   0  0  0  0  0  0  0  0  0  0  0  0
   34.5194   13.8271   32.1403 H   0  0  0  0  0  0  0  0  0  0  0  0
   35.7490   13.5704   29.8397 H   0  0  0  0  0  0  0  0  0  0  0  0
  1 18  1  0
  1  6  1  0
  2  3  2  0
  3  4  1  0
  5  4  2  0
  6  5  1  0
  7  6  2  0
  7  2  1  0
  8  2  1  0
  8  9  1  0
 10  9  2  0
 11 10  1  0
 12 11  2  0
 13 12  1  0
 14 13  2  0
 14 15  1  0
 15 16  2  0
 16 11  1  0
 16  8  1  0
 17  1  1  0
 19  1  1  0
 20 24  2  0
 20 19  1  0
 21 20  1  0
 22 21  2  0
 22 23  1  0
 23 24  1  0
 25 23  1  0
 25 26  1  0
 27 26  2  0
 28 27  1  0
 29 28  1  0
 29 25  2  0
  3 30  1  0
  4 31  1  0
  9 32  1  0
 12 33  1  0
 14 34  1  0
 17 35  1  0
 17 36  1  0
 17 37  1  0
 18 38  1  0
 18 39  1  0
 18 40  1  0
 19 41  1  0
 19 42  1  0
 21 43  1  0
 22 44  1  0
 26 45  1  0
 27 46  1  0
 28 47  1  0
M  ISO  8  30  14  31  14  32  14  33  14  34  14  35   8  36   8  37   8
M  ISO  8  38   8  39   8  40   8  41   8  42   8  43  14  44  14  45  14
M  ISO  2  46  14  47   9
M  END
>  <minimizedAffinity>  (1) 
-5.06587029

>  <minimizedRMSD>  (1) 
0.924303532

$$$$
