
     RDKit          3D

 44 46  0  0  1  0  0  0  0  0999 V2000
   36.1760   29.5430   32.3990 C   0  0  0  0  0  0  0  0  0  0  0  0
   36.9290   28.5760   31.7680 C   0  0  0  0  0  0  0  0  0  0  0  0
   37.2790   27.4440   32.5020 C   0  0  0  0  0  0  0  0  0  0  0  0
   36.8770   27.3050   33.8240 C   0  0  0  0  0  0  0  0  0  0  0  0
   36.1330   28.2630   34.4410 C   0  0  0  0  0  0  0  0  0  0  0  0
   35.7750   29.3900   33.7370 C   0  0  0  0  0  0  0  0  0  0  0  0
   37.3600   26.0310   34.4030 C   0  0  0  0  0  0  0  0  0  0  0  0
   38.7530   26.0900   34.9190 C   0  0  2  0  0  0  0  0  0  0  0  0
   40.7190   23.2170   36.0540 C   0  0  0  0  0  0  0  0  0  0  0  0
   39.9060   22.6610   37.1020 C   0  0  0  0  0  0  0  0  0  0  0  0
   38.6780   23.2910   37.4040 C   0  0  0  0  0  0  0  0  0  0  0  0
   38.3780   24.3930   36.6520 N   0  0  0  0  0  0  0  0  0  0  0  0
   39.1490   24.8920   35.6830 C   0  0  0  0  0  0  0  0  0  0  0  0
   40.3270   24.3150   35.3690 N   0  0  0  0  0  0  0  0  0  0  0  0
   38.8690   27.3060   35.8560 C   0  0  0  0  0  0  0  0  0  0  0  0
   35.7200   30.9780   31.5040 S   0  0  0  0  0  0  0  0  0  0  0  0
   36.2820   30.8260   30.1020 O   0  0  0  0  0  0  0  0  0  0  0  0
   36.3100   32.2050   32.1150 O   0  0  0  0  0  0  0  0  0  0  0  0
   33.9830   31.1240   31.4250 C   0  0  0  0  0  0  0  0  0  0  0  0
   32.9610   30.5120   32.0390 N   0  0  0  0  0  0  0  0  0  0  0  0
   31.8340   31.0010   31.6150 O   0  0  0  0  0  0  0  0  0  0  0  0
   32.0670   31.9400   30.7190 C   0  0  0  0  0  0  0  0  0  0  0  0
   33.3880   32.0130   30.6050 N   0  0  0  0  0  0  0  0  0  0  0  0
   31.0850   32.7090   30.0250 N   0  0  0  0  0  0  0  0  0  0  0  0
   30.5720   32.2380   28.7870 C   0  0  0  0  0  0  0  0  0  0  0  0
   31.2980   31.5360   28.0140 N   0  0  0  0  0  0  0  0  0  0  0  0
   29.2380   32.5540   28.4130 N   0  0  0  0  0  0  0  0  0  0  0  0
   31.0350   31.1370   27.0890 H   0  0  0  0  0  0  0  0  0  0  0  0
   37.2431   28.6938   30.7204 H   0  0  0  0  0  0  0  0  0  0  0  0
   37.8796   26.6528   32.0294 H   0  0  0  0  0  0  0  0  0  0  0  0
   35.8219   28.1382   35.4887 H   0  0  0  0  0  0  0  0  0  0  0  0
   35.1737   30.1726   34.2227 H   0  0  0  0  0  0  0  0  0  0  0  0
   36.6948   25.7549   35.2344 H   0  0  0  0  0  0  0  0  0  0  0  0
   37.3532   25.2897   33.5903 H   0  0  0  0  0  0  0  0  0  0  0  0
   39.4178   26.1595   34.0454 H   0  0  0  0  0  0  0  0  0  0  0  0
   41.6783   22.7398   35.8048 H   0  0  0  0  0  0  0  0  0  0  0  0
   40.2321   21.7676   37.6546 H   0  0  0  0  0  0  0  0  0  0  0  0
   38.0071   22.9193   38.1925 H   0  0  0  0  0  0  0  0  0  0  0  0
   38.8367   26.9673   36.9020 H   0  0  0  0  0  0  0  0  0  0  0  0
   39.8207   27.8245   35.6677 H   0  0  0  0  0  0  0  0  0  0  0  0
   38.0325   27.9951   35.6677 H   0  0  0  0  0  0  0  0  0  0  0  0
   30.7505   33.5998   30.4194 H   0  0  0  0  0  0  0  0  0  0  0  0
   28.8605   32.2153   27.5165 H   0  0  0  0  0  0  0  0  0  0  0  0
   28.6486   33.1218   29.0384 H   0  0  0  0  0  0  0  0  0  0  0  0
  1  6  1  0
  2  1  2  0
  2  3  1  0
  3  4  2  0
  4  7  1  0
  4  5  1  0
  6  5  2  0
  7  8  1  0
  8 13  1  0
  8 15  1  0
  9 10  2  0
 10 11  1  0
 12 11  2  0
 13 12  1  0
 14 13  2  0
 14  9  1  0
 16 18  2  0
 16  1  1  0
 17 16  2  0
 19 16  1  0
 19 20  2  0
 21 20  1  0
 22 21  1  0
 23 22  2  0
 23 19  1  0
 24 22  1  0
 25 24  1  0
 26 25  2  0
 27 25  1  0
 28 26  1  0
  2 29  1  0
  3 30  1  0
  5 31  1  0
  6 32  1  0
  7 33  1  0
  7 34  1  0
  8 35  1  6
  9 36  1  0
 10 37  1  0
 11 38  1  0
 15 39  1  0
 15 40  1  0
 15 41  1  0
 24 42  1  0
 27 43  1  0
 27 44  1  0
M  ISO  8  29  14  30  14  31  14  32  14  33   8  34   8  35   8  36  14
M  ISO  5  37  14  38  14  39   8  40   8  41   8
M  END
>  <minimizedAffinity>  (1) 
-5.79361296

>  <minimizedRMSD>  (1) 
0.559838176

$$$$
