
     RDKit          3D

 27 29  0  0  0  0  0  0  0  0999 V2000
   39.8780   22.6210   37.0780 C   0  0  0  0  0  0  0  0  0  0  0  0
   39.2940   23.3080   38.1740 C   0  0  0  0  0  0  0  0  0  0  0  0
   37.8990   23.4550   38.1850 C   0  0  0  0  0  0  0  0  0  0  0  0
   37.1850   22.9330   37.1500 N   0  0  0  0  0  0  0  0  0  0  0  0
   37.7630   22.2880   36.1260 C   0  0  0  0  0  0  0  0  0  0  0  0
   39.0960   22.1330   36.0910 N   0  0  0  0  0  0  0  0  0  0  0  0
   37.0360   21.7350   35.0360 N   0  0  0  0  0  0  0  0  0  0  0  0
   36.0350   20.8680   35.2110 N   0  0  0  0  0  0  0  0  0  0  0  0
   35.5470   20.5290   33.9950 C   0  0  0  0  0  0  0  0  0  0  0  0
   36.2970   21.2310   33.0370 C   0  0  0  0  0  0  0  0  0  0  0  0
   37.2340   21.9890   33.7250 C   0  0  0  0  0  0  0  0  0  0  0  0
   38.2330   22.8800   33.1400 C   0  0  0  0  0  0  0  0  0  0  0  0
   39.4220   22.4320   32.6030 C   0  0  0  0  0  0  0  0  0  0  0  0
   40.3660   23.2750   32.0500 C   0  0  0  0  0  0  0  0  0  0  0  0
   40.1290   24.6530   32.0210 C   0  0  0  0  0  0  0  0  0  0  0  0
   38.9350   25.0890   32.5620 C   0  0  0  0  0  0  0  0  0  0  0  0
   37.9970   24.2400   33.1140 C   0  0  0  0  0  0  0  0  0  0  0  0
   40.9687   22.4859   37.0324 H   0  0  0  0  0  0  0  0  0  0  0  0
   39.9145   23.7117   38.9876 H   0  0  0  0  0  0  0  0  0  0  0  0
   37.3942   23.9793   39.0098 H   0  0  0  0  0  0  0  0  0  0  0  0
   34.7183   19.8340   33.7945 H   0  0  0  0  0  0  0  0  0  0  0  0
   36.1661   21.1880   31.9457 H   0  0  0  0  0  0  0  0  0  0  0  0
   39.6282   21.3516   32.6158 H   0  0  0  0  0  0  0  0  0  0  0  0
   41.2985   22.8650   31.6349 H   0  0  0  0  0  0  0  0  0  0  0  0
   40.8573   25.3550   31.5888 H   0  0  0  0  0  0  0  0  0  0  0  0
   38.7208   26.1679   32.5524 H   0  0  0  0  0  0  0  0  0  0  0  0
   37.0640   24.6459   33.5320 H   0  0  0  0  0  0  0  0  0  0  0  0
  1  2  2  0
  2  3  1  0
  4  3  2  0
  5  4  1  0
  6  5  2  0
  6  1  1  0
  7  8  1  0
  7  5  1  0
  9  8  2  0
 10 11  2  0
 10  9  1  0
 11  7  1  0
 12 11  1  0
 13 12  2  0
 14 13  1  0
 15 14  2  0
 15 16  1  0
 16 17  2  0
 17 12  1  0
  1 18  1  0
  2 19  1  0
  3 20  1  0
  9 21  1  0
 10 22  1  0
 13 23  1  0
 14 24  1  0
 15 25  1  0
 16 26  1  0
 17 27  1  0
M  ISO  8  18  14  19  14  20  14  21  14  22  14  23  14  24  14  25  14
M  ISO  2  26  14  27  14
M  END
>  <minimizedAffinity>  (1) 
-4.31588316

>  <minimizedRMSD>  (1) 
0.30248946

$$$$
