
     RDKit          3D

 25 26  0  0  0  0  0  0  0  0999 V2000
   36.9040   21.5320   35.4590 C   0  0  0  0  0  0  0  0  0  0  0  0
   37.4180   22.0420   34.2630 C   0  0  0  0  0  0  0  0  0  0  0  0
   38.1810   23.2130   34.3370 C   0  0  0  0  0  0  0  0  0  0  0  0
   38.3770   23.7840   35.5570 N   0  0  0  0  0  0  0  0  0  0  0  0
   37.8720   23.2690   36.6690 C   0  0  0  0  0  0  0  0  0  0  0  0
   37.1170   22.1230   36.6520 N   0  0  0  0  0  0  0  0  0  0  0  0
   37.1260   21.3360   33.0870 N   0  0  0  0  0  0  0  0  0  0  0  0
   35.8210   21.3330   32.6980 C   0  0  0  0  0  0  0  0  0  0  0  0
   35.4830   20.6570   31.5570 C   0  0  0  0  0  0  0  0  0  0  0  0
   36.4810   20.0220   30.8740 C   0  0  0  0  0  0  0  0  0  0  0  0
   36.2280   19.3020   29.6920 N   0  0  0  0  0  0  0  0  0  0  0  0
   37.7480   20.0510   31.2940 N   0  0  0  0  0  0  0  0  0  0  0  0
   38.1040   20.7160   32.4230 C   0  0  0  0  0  0  0  0  0  0  0  0
   39.2980   20.7270   32.7930 O   0  0  0  0  0  0  0  0  0  0  0  0
   38.1110   23.9310   37.9980 C   0  0  0  0  0  0  0  0  0  0  0  0
   38.6180   22.8990   38.8220 O   0  0  0  0  0  0  0  0  0  0  0  0
   36.3019   20.6120   35.4253 H   0  0  0  0  0  0  0  0  0  0  0  0
   38.6124   23.6616   33.4300 H   0  0  0  0  0  0  0  0  0  0  0  0
   35.0567   21.8613   33.2868 H   0  0  0  0  0  0  0  0  0  0  0  0
   34.4424   20.6261   31.2018 H   0  0  0  0  0  0  0  0  0  0  0  0
   35.2695   19.2443   29.3193 H   0  0  0  0  0  0  0  0  0  0  0  0
   37.0013   18.8326   29.1994 H   0  0  0  0  0  0  0  0  0  0  0  0
   38.8435   24.7458   37.9003 H   0  0  0  0  0  0  0  0  0  0  0  0
   37.1971   24.3841   38.4098 H   0  0  0  0  0  0  0  0  0  0  0  0
   38.4965   23.1462   39.7729 H   0  0  0  0  0  0  0  0  0  0  0  0
  1  6  2  0
  2  3  2  0
  2  1  1  0
  3  4  1  0
  4  5  2  0
  5 15  1  0
  6  5  1  0
  7  2  1  0
  8  7  1  0
  9  8  2  0
 10 12  2  0
 10  9  1  0
 11 10  1  0
 12 13  1  0
 13 14  2  0
 13  7  1  0
 15 16  1  0
  1 17  1  0
  3 18  1  0
  8 19  1  0
  9 20  1  0
 11 21  1  0
 11 22  1  0
 15 23  1  0
 15 24  1  0
 16 25  1  0
M  ISO  7  17  14  18  14  19  14  20  14  23   8  24   8  25   3
M  END
>  <minimizedAffinity>  (1) 
-4.19347954

>  <minimizedRMSD>  (1) 
1.77939832

$$$$
