
     RDKit          3D

 26 28  0  0  0  0  0  0  0  0999 V2000
   39.9390   22.9870   37.8280 C   0  0  0  0  0  0  0  0  0  0  0  0
   38.9850   23.1950   38.8290 C   0  0  0  0  0  0  0  0  0  0  0  0
   37.6480   23.2510   38.4190 C   0  0  0  0  0  0  0  0  0  0  0  0
   37.3250   23.1040   37.0910 N   0  0  0  0  0  0  0  0  0  0  0  0
   38.3110   22.9030   36.1740 C   0  0  0  0  0  0  0  0  0  0  0  0
   39.6090   22.8440   36.5250 N   0  0  0  0  0  0  0  0  0  0  0  0
   38.0160   22.7480   34.7910 N   0  0  0  0  0  0  0  0  0  0  0  0
   37.1960   21.8080   34.3160 N   0  0  0  0  0  0  0  0  0  0  0  0
   37.1280   21.9240   32.9740 C   0  0  0  0  0  0  0  0  0  0  0  0
   37.9540   22.9990   32.6070 C   0  0  0  0  0  0  0  0  0  0  0  0
   38.4990   23.4950   33.7820 C   0  0  0  0  0  0  0  0  0  0  0  0
   39.4240   24.6180   33.8940 C   0  0  0  0  0  0  0  0  0  0  0  0
   38.9490   25.8600   34.2530 C   0  0  0  0  0  0  0  0  0  0  0  0
   39.7320   27.0030   34.3910 C   0  0  0  0  0  0  0  0  0  0  0  0
   41.1040   26.8730   34.1450 C   0  0  0  0  0  0  0  0  0  0  0  0
   41.5580   25.6230   33.7870 C   0  0  0  0  0  0  0  0  0  0  0  0
   40.7480   24.5710   33.6740 N   0  0  0  0  0  0  0  0  0  0  0  0
   41.0005   22.9378   38.1123 H   0  0  0  0  0  0  0  0  0  0  0  0
   39.2709   23.3088   39.8851 H   0  0  0  0  0  0  0  0  0  0  0  0
   36.8531   23.4132   39.1619 H   0  0  0  0  0  0  0  0  0  0  0  0
   36.5360   21.2941   32.2937 H   0  0  0  0  0  0  0  0  0  0  0  0
   38.1333   23.3737   31.5885 H   0  0  0  0  0  0  0  0  0  0  0  0
   37.8702   25.9561   34.4451 H   0  0  0  0  0  0  0  0  0  0  0  0
   39.2909   27.9680   34.6812 H   0  0  0  0  0  0  0  0  0  0  0  0
   41.7880   27.7299   34.2336 H   0  0  0  0  0  0  0  0  0  0  0  0
   42.6311   25.4878   33.5865 H   0  0  0  0  0  0  0  0  0  0  0  0
  1  2  2  0
  3  2  1  0
  4  3  2  0
  5  6  2  0
  5  4  1  0
  6  1  1  0
  7  5  1  0
  8  7  1  0
  9  8  2  0
 10  9  1  0
 10 11  2  0
 11 12  1  0
 11  7  1  0
 12 13  2  0
 13 14  1  0
 15 14  2  0
 16 15  1  0
 17 16  2  0
 17 12  1  0
  1 18  1  0
  2 19  1  0
  3 20  1  0
  9 21  1  0
 10 22  1  0
 13 23  1  0
 14 24  1  0
 15 25  1  0
 16 26  1  0
M  ISO  8  18  14  19  14  20  14  21  14  22  14  23  14  24  14  25  14
M  ISO  1  26  14
M  END
>  <minimizedAffinity>  (1) 
-4.43660307

>  <minimizedRMSD>  (1) 
2.07863927

$$$$
