
     RDKit          3D

 20 21  0  0  0  0  0  0  0  0999 V2000
   39.8580   22.6170   37.1390 C   0  0  0  0  0  0  0  0  0  0  0  0
   39.2920   23.3070   38.2160 C   0  0  0  0  0  0  0  0  0  0  0  0
   37.9000   23.4710   38.2140 C   0  0  0  0  0  0  0  0  0  0  0  0
   37.1910   22.9560   37.1750 N   0  0  0  0  0  0  0  0  0  0  0  0
   37.7710   22.2990   36.1600 C   0  0  0  0  0  0  0  0  0  0  0  0
   39.1090   22.1180   36.1220 N   0  0  0  0  0  0  0  0  0  0  0  0
   37.0480   21.7540   35.0660 N   0  0  0  0  0  0  0  0  0  0  0  0
   36.0490   20.8890   35.2320 N   0  0  0  0  0  0  0  0  0  0  0  0
   35.5590   20.5500   34.0150 C   0  0  0  0  0  0  0  0  0  0  0  0
   36.2980   21.2450   33.0670 C   0  0  0  0  0  0  0  0  0  0  0  0
   37.2340   22.0000   33.7580 C   0  0  0  0  0  0  0  0  0  0  0  0
   38.2560   22.9100   33.1930 C   0  0  0  0  0  0  0  0  0  0  0  0
   38.2670   24.1500   33.8280 F   0  0  0  0  0  0  0  0  0  0  0  0
   37.9780   23.2070   31.8560 F   0  0  0  0  0  0  0  0  0  0  0  0
   39.5330   22.4220   33.2480 F   0  0  0  0  0  0  0  0  0  0  0  0
   40.9483   22.4735   37.1149 H   0  0  0  0  0  0  0  0  0  0  0  0
   39.9140   23.7048   39.0314 H   0  0  0  0  0  0  0  0  0  0  0  0
   37.3939   24.0033   39.0329 H   0  0  0  0  0  0  0  0  0  0  0  0
   34.7307   19.8543   33.8154 H   0  0  0  0  0  0  0  0  0  0  0  0
   36.1662   21.2045   31.9757 H   0  0  0  0  0  0  0  0  0  0  0  0
  1  2  2  0
  3  2  1  0
  4  3  2  0
  5  4  1  0
  6  5  2  0
  6  1  1  0
  7  8  1  0
  7  5  1  0
  9  8  2  0
 10 11  2  0
 10  9  1  0
 11  7  1  0
 12 15  1  0
 12 11  1  0
 12 13  1  0
 14 12  1  0
  1 16  1  0
  2 17  1  0
  3 18  1  0
  9 19  1  0
 10 20  1  0
M  ISO  5  16  14  17  14  18  14  19  14  20  14
M  END
>  <minimizedAffinity>  (1) 
-4.10837412

>  <minimizedRMSD>  (1) 
0.148084417

$$$$
