
     RDKit          3D

 24 26  0  0  0  0  0  0  0  0999 V2000
   39.8840   22.6310   37.1710 C   0  0  0  0  0  0  0  0  0  0  0  0
   39.3180   23.3430   38.2600 C   0  0  0  0  0  0  0  0  0  0  0  0
   37.9250   23.5110   38.2710 C   0  0  0  0  0  0  0  0  0  0  0  0
   37.2050   22.9860   37.2440 N   0  0  0  0  0  0  0  0  0  0  0  0
   37.7760   22.3200   36.2310 C   0  0  0  0  0  0  0  0  0  0  0  0
   39.1160   22.1270   36.1690 N   0  0  0  0  0  0  0  0  0  0  0  0
   37.0430   21.7550   35.1490 N   0  0  0  0  0  0  0  0  0  0  0  0
   36.0550   20.8720   35.3390 N   0  0  0  0  0  0  0  0  0  0  0  0
   35.5680   20.5210   34.1320 C   0  0  0  0  0  0  0  0  0  0  0  0
   36.2800   21.2110   33.1680 C   0  0  0  0  0  0  0  0  0  0  0  0
   37.2010   21.9800   33.8440 C   0  0  0  0  0  0  0  0  0  0  0  0
   38.1910   22.8990   33.2230 C   0  0  0  0  0  0  0  0  0  0  0  0
   37.9890   24.2870   33.0720 C   0  0  0  0  0  0  0  0  0  0  0  0
   39.0090   24.9470   32.4830 C   0  0  0  0  0  0  0  0  0  0  0  0
   40.1710   24.2630   32.0640 C   0  0  0  0  0  0  0  0  0  0  0  0
   39.8100   22.5670   32.5310 S   0  0  0  0  0  0  0  0  0  0  0  0
   40.9734   22.4829   37.1366 H   0  0  0  0  0  0  0  0  0  0  0  0
   39.9478   23.7482   39.0657 H   0  0  0  0  0  0  0  0  0  0  0  0
   37.4284   24.0533   39.0891 H   0  0  0  0  0  0  0  0  0  0  0  0
   34.7486   19.8109   33.9466 H   0  0  0  0  0  0  0  0  0  0  0  0
   36.1389   21.1565   32.0785 H   0  0  0  0  0  0  0  0  0  0  0  0
   37.0716   24.7924   33.4081 H   0  0  0  0  0  0  0  0  0  0  0  0
   38.9337   26.0333   32.3273 H   0  0  0  0  0  0  0  0  0  0  0  0
   41.0699   24.6668   31.5752 H   0  0  0  0  0  0  0  0  0  0  0  0
  1  2  2  0
  2  3  1  0
  4  3  2  0
  5  4  1  0
  6  5  2  0
  6  1  1  0
  7  8  1  0
  7  5  1  0
  9  8  2  0
 10 11  2  0
 10  9  1  0
 11  7  1  0
 12 11  1  0
 13 12  2  0
 14 13  1  0
 15 14  2  0
 15 16  1  0
 16 12  1  0
  1 17  1  0
  2 18  1  0
  3 19  1  0
  9 20  1  0
 10 21  1  0
 13 22  1  0
 14 23  1  0
 15 24  1  0
M  ISO  8  17  14  18  14  19  14  20  14  21  14  22  14  23  14  24  14
M  END
>  <minimizedAffinity>  (1) 
-4.21065903

>  <minimizedRMSD>  (1) 
0.602832615

$$$$
