
     RDKit          3D

 19 20  0  0  0  0  0  0  0  0999 V2000
   39.8890   22.5960   37.1340 C   0  0  0  0  0  0  0  0  0  0  0  0
   39.3280   23.3020   38.2120 C   0  0  0  0  0  0  0  0  0  0  0  0
   37.9390   23.4780   38.1960 C   0  0  0  0  0  0  0  0  0  0  0  0
   37.1980   22.9690   37.1580 N   0  0  0  0  0  0  0  0  0  0  0  0
   37.7930   22.2960   36.1450 C   0  0  0  0  0  0  0  0  0  0  0  0
   39.1190   22.1170   36.1430 N   0  0  0  0  0  0  0  0  0  0  0  0
   37.0660   21.7540   35.0550 N   0  0  0  0  0  0  0  0  0  0  0  0
   36.0610   20.9100   35.2060 N   0  0  0  0  0  0  0  0  0  0  0  0
   35.5760   20.5750   33.9900 C   0  0  0  0  0  0  0  0  0  0  0  0
   36.3380   21.2620   33.0460 C   0  0  0  0  0  0  0  0  0  0  0  0
   37.2780   22.0020   33.7500 C   0  0  0  0  0  0  0  0  0  0  0  0
   38.2800   22.8670   33.1770 C   0  0  0  0  0  0  0  0  0  0  0  0
   38.0720   24.1160   33.0920 O   0  0  0  0  0  0  0  0  0  0  0  0
   40.9764   22.4330   37.1013 H   0  0  0  0  0  0  0  0  0  0  0  0
   39.9500   23.6971   39.0287 H   0  0  0  0  0  0  0  0  0  0  0  0
   37.4427   24.0226   39.0128 H   0  0  0  0  0  0  0  0  0  0  0  0
   34.7396   19.8908   33.7842 H   0  0  0  0  0  0  0  0  0  0  0  0
   36.2175   21.2248   31.9533 H   0  0  0  0  0  0  0  0  0  0  0  0
   39.2272   22.4428   32.8126 H   0  0  0  0  0  0  0  0  0  0  0  0
  1  2  2  0
  3  2  1  0
  4  3  2  0
  5  4  1  0
  6  5  2  0
  6  1  1  0
  7  8  1  0
  7  5  1  0
  9  8  2  0
 10 11  2  0
 10  9  1  0
 11  7  1  0
 12 11  1  0
 13 12  2  0
  1 14  1  0
  2 15  1  0
  3 16  1  0
  9 17  1  0
 10 18  1  0
 12 19  1  0
M  ISO  6  14  14  15  14  16  14  17  14  18  14  19   6
M  END
>  <minimizedAffinity>  (1) 
-3.87391281

>  <minimizedRMSD>  (1) 
0.141302183

$$$$
