
     RDKit          3D

 19 20  0  0  0  0  0  0  0  0999 V2000
   39.8880   22.5790   37.1590 C   0  0  0  0  0  0  0  0  0  0  0  0
   39.3250   23.3040   38.2160 C   0  0  0  0  0  0  0  0  0  0  0  0
   37.9400   23.4980   38.1830 C   0  0  0  0  0  0  0  0  0  0  0  0
   37.1960   22.9870   37.1450 N   0  0  0  0  0  0  0  0  0  0  0  0
   37.8090   22.2910   36.1500 C   0  0  0  0  0  0  0  0  0  0  0  0
   39.1420   22.0840   36.1470 N   0  0  0  0  0  0  0  0  0  0  0  0
   37.0760   21.7470   35.0610 N   0  0  0  0  0  0  0  0  0  0  0  0
   36.0540   20.9180   35.2090 N   0  0  0  0  0  0  0  0  0  0  0  0
   35.5910   20.5980   33.9650 C   0  0  0  0  0  0  0  0  0  0  0  0
   36.3720   21.2670   33.0320 C   0  0  0  0  0  0  0  0  0  0  0  0
   37.3190   22.0000   33.7450 C   0  0  0  0  0  0  0  0  0  0  0  0
   38.3450   22.8470   33.2540 N   0  0  0  0  0  0  0  0  0  0  0  0
   40.9744   22.4065   37.1521 H   0  0  0  0  0  0  0  0  0  0  0  0
   39.9428   23.7025   39.0342 H   0  0  0  0  0  0  0  0  0  0  0  0
   37.4450   24.0602   38.9886 H   0  0  0  0  0  0  0  0  0  0  0  0
   34.7477   19.9281   33.7413 H   0  0  0  0  0  0  0  0  0  0  0  0
   36.2639   21.2262   31.9381 H   0  0  0  0  0  0  0  0  0  0  0  0
   38.9753   23.3272   33.9120 H   0  0  0  0  0  0  0  0  0  0  0  0
   38.4599   22.9820   32.2394 H   0  0  0  0  0  0  0  0  0  0  0  0
  1  2  2  0
  3  2  1  0
  4  3  2  0
  5  4  1  0
  6  5  2  0
  6  1  1  0
  7  8  1  0
  7  5  1  0
  9  8  2  0
 10 11  2  0
 10  9  1  0
 11  7  1  0
 12 11  1  0
  1 13  1  0
  2 14  1  0
  3 15  1  0
  9 16  1  0
 10 17  1  0
 12 18  1  0
 12 19  1  0
M  ISO  5  13  14  14  14  15  14  16  14  17  14
M  END
>  <minimizedAffinity>  (1) 
-3.90158892

>  <minimizedRMSD>  (1) 
0.0160518587

$$$$
