
     RDKit          3D

 23 25  0  0  0  0  0  0  0  0999 V2000
   39.8640   22.6330   37.1310 C   0  0  0  0  0  0  0  0  0  0  0  0
   39.2870   23.3020   38.2160 C   0  0  0  0  0  0  0  0  0  0  0  0
   37.8960   23.4510   38.2200 C   0  0  0  0  0  0  0  0  0  0  0  0
   37.1790   22.9430   37.1800 N   0  0  0  0  0  0  0  0  0  0  0  0
   37.7700   22.3000   36.1440 C   0  0  0  0  0  0  0  0  0  0  0  0
   39.1110   22.1400   36.1130 N   0  0  0  0  0  0  0  0  0  0  0  0
   37.0480   21.7600   35.0490 N   0  0  0  0  0  0  0  0  0  0  0  0
   36.0710   20.8860   35.2020 N   0  0  0  0  0  0  0  0  0  0  0  0
   35.5690   20.5490   33.9970 C   0  0  0  0  0  0  0  0  0  0  0  0
   36.3070   21.2810   33.0480 C   0  0  0  0  0  0  0  0  0  0  0  0
   37.2370   22.0400   33.7460 C   0  0  0  0  0  0  0  0  0  0  0  0
   38.1860   22.9260   33.1660 N   0  0  0  0  0  0  0  0  0  0  0  0
   39.3710   22.7070   32.5650 C   0  0  0  0  0  0  0  0  0  0  0  0
   39.9410   23.8390   32.1610 N   0  0  0  0  0  0  0  0  0  0  0  0
   39.0730   24.8210   32.5250 C   0  0  0  0  0  0  0  0  0  0  0  0
   38.0250   24.2360   33.1280 N   0  0  0  0  0  0  0  0  0  0  0  0
   40.9559   22.5027   37.1013 H   0  0  0  0  0  0  0  0  0  0  0  0
   39.9048   23.6965   39.0362 H   0  0  0  0  0  0  0  0  0  0  0  0
   37.3907   23.9692   39.0484 H   0  0  0  0  0  0  0  0  0  0  0  0
   34.7485   19.8444   33.7961 H   0  0  0  0  0  0  0  0  0  0  0  0
   36.1722   21.2564   31.9566 H   0  0  0  0  0  0  0  0  0  0  0  0
   39.8149   21.7104   32.4248 H   0  0  0  0  0  0  0  0  0  0  0  0
   39.2055   25.8998   32.3560 H   0  0  0  0  0  0  0  0  0  0  0  0
  1  2  2  0
  2  3  1  0
  4  3  2  0
  5  4  1  0
  6  5  2  0
  6  1  1  0
  7  8  1  0
  7  5  1  0
  9  8  2  0
 10 11  2  0
 10  9  1  0
 11  7  1  0
 12 11  1  0
 13 12  1  0
 14 15  1  0
 14 13  2  0
 15 16  2  0
 16 12  1  0
  1 17  1  0
  2 18  1  0
  3 19  1  0
  9 20  1  0
 10 21  1  0
 13 22  1  0
 15 23  1  0
M  ISO  7  17  14  18  14  19  14  20  14  21  14  22  14  23  14
M  END
>  <minimizedAffinity>  (1) 
-4.19718695

>  <minimizedRMSD>  (1) 
0.27432102

$$$$
