
     RDKit          3D

 20 21  0  0  0  0  0  0  0  0999 V2000
   39.8680   22.5990   37.1380 C   0  0  0  0  0  0  0  0  0  0  0  0
   39.3070   23.3040   38.2090 C   0  0  0  0  0  0  0  0  0  0  0  0
   37.9060   23.4840   38.1920 C   0  0  0  0  0  0  0  0  0  0  0  0
   37.1960   22.9700   37.1530 N   0  0  0  0  0  0  0  0  0  0  0  0
   37.7940   22.2920   36.1370 C   0  0  0  0  0  0  0  0  0  0  0  0
   39.1150   22.1110   36.1350 N   0  0  0  0  0  0  0  0  0  0  0  0
   37.0620   21.7500   35.0480 N   0  0  0  0  0  0  0  0  0  0  0  0
   36.0610   20.9050   35.1860 N   0  0  0  0  0  0  0  0  0  0  0  0
   35.5790   20.5810   33.9700 C   0  0  0  0  0  0  0  0  0  0  0  0
   36.3370   21.2770   33.0250 C   0  0  0  0  0  0  0  0  0  0  0  0
   37.2700   22.0090   33.7440 C   0  0  0  0  0  0  0  0  0  0  0  0
   38.2660   22.8810   33.1340 C   0  0  0  0  0  0  0  0  0  0  0  0
   38.2350   23.2790   31.9400 O   0  0  0  0  0  0  0  0  0  0  0  0
   39.3520   23.3480   33.8510 O   0  0  0  0  0  0  0  0  0  0  0  0
   40.9561   22.4391   37.1154 H   0  0  0  0  0  0  0  0  0  0  0  0
   39.9282   23.6996   39.0261 H   0  0  0  0  0  0  0  0  0  0  0  0
   37.4001   24.0288   39.0027 H   0  0  0  0  0  0  0  0  0  0  0  0
   34.7442   19.8961   33.7604 H   0  0  0  0  0  0  0  0  0  0  0  0
   36.2179   21.2499   31.9318 H   0  0  0  0  0  0  0  0  0  0  0  0
   40.0157   23.9393   33.4151 H   0  0  0  0  0  0  0  0  0  0  0  0
  1  2  2  0
  3  2  1  0
  4  3  2  0
  5  4  1  0
  6  5  2  0
  6  1  1  0
  7  8  1  0
  7  5  1  0
  9  8  2  0
 10 11  2  0
 10  9  1  0
 11  7  1  0
 12 11  1  0
 12 14  1  0
 13 12  2  0
  1 15  1  0
  2 16  1  0
  3 17  1  0
  9 18  1  0
 10 19  1  0
 14 20  1  0
M  ISO  6  15  14  16  14  17  14  18  14  19  14  20   3
M  END
>  <minimizedAffinity>  (1) 
-3.97386289

>  <minimizedRMSD>  (1) 
0.064180024

$$$$
