
     RDKit          3D

 33 36  0  0  0  0  0  0  0  0999 V2000
   39.7150   22.7840   36.8840 C   0  0  0  0  0  0  0  0  0  0  0  0
   39.1360   23.3110   38.0320 C   0  0  0  0  0  0  0  0  0  0  0  0
   37.7380   23.2840   38.1320 C   0  0  0  0  0  0  0  0  0  0  0  0
   37.0140   22.7480   37.1060 N   0  0  0  0  0  0  0  0  0  0  0  0
   37.6240   22.2430   35.9990 C   0  0  0  0  0  0  0  0  0  0  0  0
   38.9590   22.2580   35.8830 N   0  0  0  0  0  0  0  0  0  0  0  0
   36.9020   21.6740   34.9060 N   0  0  0  0  0  0  0  0  0  0  0  0
   36.0450   20.6750   35.0640 N   0  0  0  0  0  0  0  0  0  0  0  0
   35.5170   20.3460   33.8700 C   0  0  0  0  0  0  0  0  0  0  0  0
   36.1030   21.2190   32.9240 C   0  0  0  0  0  0  0  0  0  0  0  0
   36.9690   22.0390   33.6160 C   0  0  0  0  0  0  0  0  0  0  0  0
   37.7730   23.0740   33.0380 N   0  0  0  0  0  0  0  0  0  0  0  0
   39.0550   23.1180   32.6620 C   0  0  0  0  0  0  0  0  0  0  0  0
   39.3910   24.3010   32.1660 N   0  0  0  0  0  0  0  0  0  0  0  0
   38.2690   25.0500   32.2300 C   0  0  0  0  0  0  0  0  0  0  0  0
   37.3040   24.2860   32.7610 N   0  0  0  0  0  0  0  0  0  0  0  0
   37.9110   26.4270   31.8640 C   0  0  0  0  0  0  0  0  0  0  0  0
   37.0370   26.9800   32.7890 C   0  0  0  0  0  0  0  0  0  0  0  0
   36.5670   28.2700   32.6430 C   0  0  0  0  0  0  0  0  0  0  0  0
   36.9910   29.0150   31.5370 C   0  0  0  0  0  0  0  0  0  0  0  0
   37.8610   28.4500   30.6250 C   0  0  0  0  0  0  0  0  0  0  0  0
   38.3260   27.1610   30.7780 C   0  0  0  0  0  0  0  0  0  0  0  0
   40.8103   22.7924   36.7823 H   0  0  0  0  0  0  0  0  0  0  0  0
   39.7547   23.7356   38.8363 H   0  0  0  0  0  0  0  0  0  0  0  0
   37.2329   23.6878   39.0219 H   0  0  0  0  0  0  0  0  0  0  0  0
   34.7778   19.5563   33.6702 H   0  0  0  0  0  0  0  0  0  0  0  0
   35.9055   21.2398   31.8421 H   0  0  0  0  0  0  0  0  0  0  0  0
   39.7507   22.2709   32.7535 H   0  0  0  0  0  0  0  0  0  0  0  0
   36.7133   26.3808   33.6528 H   0  0  0  0  0  0  0  0  0  0  0  0
   35.8744   28.7026   33.3800 H   0  0  0  0  0  0  0  0  0  0  0  0
   36.6333   30.0454   31.3946 H   0  0  0  0  0  0  0  0  0  0  0  0
   38.1900   29.0413   29.7577 H   0  0  0  0  0  0  0  0  0  0  0  0
   39.0186   26.7264   30.0422 H   0  0  0  0  0  0  0  0  0  0  0  0
  1  2  2  0
  2  3  1  0
  4  3  2  0
  5  4  1  0
  6  5  2  0
  6  1  1  0
  7  8  1  0
  7  5  1  0
  9  8  2  0
 10 11  2  0
 10  9  1  0
 11  7  1  0
 12 11  1  0
 13 12  1  0
 14 15  1  0
 14 13  2  0
 15 16  2  0
 16 12  1  0
 17 15  1  0
 17 18  2  0
 19 18  1  0
 20 19  2  0
 21 22  2  0
 21 20  1  0
 22 17  1  0
  1 23  1  0
  2 24  1  0
  3 25  1  0
  9 26  1  0
 10 27  1  0
 13 28  1  0
 18 29  1  0
 19 30  1  0
 20 31  1  0
 21 32  1  0
 22 33  1  0
M  ISO  8  23  14  24  14  25  14  26  14  27  14  28  14  29  14  30  14
M  ISO  3  31  14  32  14  33  14
M  END
>  <minimizedAffinity>  (1) 
-5.36938143

>  <minimizedRMSD>  (1) 
1.05612159

$$$$
