
     RDKit          3D

 37 41  0  0  0  0  0  0  0  0999 V2000
   39.8330   22.6520   37.0160 C   0  0  0  0  0  0  0  0  0  0  0  0
   39.2840   23.3330   38.1090 C   0  0  0  0  0  0  0  0  0  0  0  0
   37.8920   23.4520   38.1500 C   0  0  0  0  0  0  0  0  0  0  0  0
   37.1390   22.9120   37.1470 N   0  0  0  0  0  0  0  0  0  0  0  0
   37.7070   22.2570   36.1000 C   0  0  0  0  0  0  0  0  0  0  0  0
   39.0470   22.1310   36.0410 N   0  0  0  0  0  0  0  0  0  0  0  0
   36.9660   21.6860   35.0450 N   0  0  0  0  0  0  0  0  0  0  0  0
   36.0110   20.7990   35.2480 N   0  0  0  0  0  0  0  0  0  0  0  0
   35.4760   20.4260   34.0670 C   0  0  0  0  0  0  0  0  0  0  0  0
   36.1720   21.1530   33.0740 C   0  0  0  0  0  0  0  0  0  0  0  0
   37.1090   21.9410   33.7390 C   0  0  0  0  0  0  0  0  0  0  0  0
   38.0250   22.8340   33.1070 N   0  0  0  0  0  0  0  0  0  0  0  0
   39.3230   22.7000   32.7720 C   0  0  0  0  0  0  0  0  0  0  0  0
   39.8000   23.8020   32.1870 N   0  0  0  0  0  0  0  0  0  0  0  0
   38.7530   24.6530   32.1600 C   0  0  0  0  0  0  0  0  0  0  0  0
   37.6970   24.0580   32.7150 N   0  0  0  0  0  0  0  0  0  0  0  0
   38.7850   26.0010   31.6100 C   0  0  0  0  0  0  0  0  0  0  0  0
   39.8440   26.6390   30.9990 C   0  0  0  0  0  0  0  0  0  0  0  0
   39.4420   27.8870   30.6350 N   0  0  0  0  0  0  0  0  0  0  0  0
   38.1390   28.0850   30.9940 C   0  0  0  0  0  0  0  0  0  0  0  0
   37.2730   29.1510   30.8580 C   0  0  0  0  0  0  0  0  0  0  0  0
   35.9670   29.0380   31.3430 C   0  0  0  0  0  0  0  0  0  0  0  0
   35.6060   27.8310   31.9470 C   0  0  0  0  0  0  0  0  0  0  0  0
   36.4600   26.7640   32.0860 C   0  0  0  0  0  0  0  0  0  0  0  0
   37.7450   26.9080   31.5970 C   0  0  0  0  0  0  0  0  0  0  0  0
   40.9248   22.5370   36.9464 H   0  0  0  0  0  0  0  0  0  0  0  0
   39.9201   23.7558   38.9006 H   0  0  0  0  0  0  0  0  0  0  0  0
   37.4060   23.9775   38.9852 H   0  0  0  0  0  0  0  0  0  0  0  0
   34.6627   19.7025   33.9086 H   0  0  0  0  0  0  0  0  0  0  0  0
   36.0060   21.1057   31.9876 H   0  0  0  0  0  0  0  0  0  0  0  0
   39.9176   21.7934   32.9576 H   0  0  0  0  0  0  0  0  0  0  0  0
   40.8440   26.2115   30.8339 H   0  0  0  0  0  0  0  0  0  0  0  0
   40.0343   28.5816   30.1580 H   0  0  0  0  0  0  0  0  0  0  0  0
   37.6072   30.0800   30.3729 H   0  0  0  0  0  0  0  0  0  0  0  0
   35.2506   29.8678   31.2526 H   0  0  0  0  0  0  0  0  0  0  0  0
   34.5809   27.7294   32.3327 H   0  0  0  0  0  0  0  0  0  0  0  0
   36.1338   25.8306   32.5680 H   0  0  0  0  0  0  0  0  0  0  0  0
  1  2  2  0
  2  3  1  0
  4  3  2  0
  5  4  1  0
  6  5  2  0
  6  1  1  0
  7  8  1  0
  7  5  1  0
  9  8  2  0
 10 11  2  0
 10  9  1  0
 11  7  1  0
 12 11  1  0
 13 12  1  0
 14 13  2  0
 15 14  1  0
 15 16  2  0
 16 12  1  0
 17 15  1  0
 18 17  2  0
 19 20  1  0
 19 18  1  0
 20 25  2  0
 21 20  1  0
 21 22  2  0
 22 23  1  0
 23 24  2  0
 25 17  1  0
 25 24  1  0
  1 26  1  0
  2 27  1  0
  3 28  1  0
  9 29  1  0
 10 30  1  0
 13 31  1  0
 18 32  1  0
 19 33  1  0
 21 34  1  0
 22 35  1  0
 23 36  1  0
 24 37  1  0
M  ISO  8  26  14  27  14  28  14  29  14  30  14  31  14  32  14  33   9
M  ISO  4  34  14  35  14  36  14  37  14
M  END
>  <minimizedAffinity>  (1) 
-5.81972218

>  <minimizedRMSD>  (1) 
0.957449675

$$$$
