
     RDKit          3D

 37 40  0  0  0  0  0  0  0  0999 V2000
   39.7470   22.7280   36.8900 C   0  0  0  0  0  0  0  0  0  0  0  0
   39.1760   23.3330   38.0160 C   0  0  0  0  0  0  0  0  0  0  0  0
   37.7760   23.3630   38.1020 C   0  0  0  0  0  0  0  0  0  0  0  0
   37.0570   22.8090   37.1000 N   0  0  0  0  0  0  0  0  0  0  0  0
   37.6340   22.2280   36.0210 C   0  0  0  0  0  0  0  0  0  0  0  0
   38.9800   22.1840   35.9080 N   0  0  0  0  0  0  0  0  0  0  0  0
   36.9010   21.6450   34.9650 N   0  0  0  0  0  0  0  0  0  0  0  0
   36.0050   20.6850   35.1540 N   0  0  0  0  0  0  0  0  0  0  0  0
   35.4680   20.3250   33.9730 C   0  0  0  0  0  0  0  0  0  0  0  0
   36.0840   21.1260   33.0000 C   0  0  0  0  0  0  0  0  0  0  0  0
   36.9860   21.9530   33.6470 C   0  0  0  0  0  0  0  0  0  0  0  0
   37.8180   22.9190   33.0320 N   0  0  0  0  0  0  0  0  0  0  0  0
   39.1160   22.8860   32.6640 C   0  0  0  0  0  0  0  0  0  0  0  0
   39.5070   24.0330   32.1090 N   0  0  0  0  0  0  0  0  0  0  0  0
   38.3960   24.8300   32.1290 C   0  0  0  0  0  0  0  0  0  0  0  0
   37.4080   24.1240   32.6900 N   0  0  0  0  0  0  0  0  0  0  0  0
   38.3620   26.1770   31.6210 N   0  0  0  0  0  0  0  0  0  0  0  0
   38.9710   26.4410   30.3490 C   0  0  0  0  0  0  0  0  0  0  0  0
   39.3050   27.9150   30.3230 C   0  0  0  0  0  0  0  0  0  0  0  0
   38.1410   28.7260   30.4930 N   0  0  0  0  0  0  0  0  0  0  0  0
   37.2910   28.3780   31.5850 C   0  0  0  0  0  0  0  0  0  0  0  0
   37.7260   27.1990   32.3960 C   0  0  0  0  0  0  0  0  0  0  0  0
   40.8425   22.6919   36.7975 H   0  0  0  0  0  0  0  0  0  0  0  0
   39.8038   23.7700   38.8065 H   0  0  0  0  0  0  0  0  0  0  0  0
   37.2750   23.8265   38.9646 H   0  0  0  0  0  0  0  0  0  0  0  0
   34.6995   19.5562   33.8047 H   0  0  0  0  0  0  0  0  0  0  0  0
   35.8860   21.1014   31.9182 H   0  0  0  0  0  0  0  0  0  0  0  0
   39.7735   22.0155   32.8054 H   0  0  0  0  0  0  0  0  0  0  0  0
   39.8873   25.8429   30.2363 H   0  0  0  0  0  0  0  0  0  0  0  0
   38.2938   26.1748   29.5240 H   0  0  0  0  0  0  0  0  0  0  0  0
   40.0133   28.1340   31.1356 H   0  0  0  0  0  0  0  0  0  0  0  0
   39.7442   28.1488   29.3420 H   0  0  0  0  0  0  0  0  0  0  0  0
   38.4517   29.6980   30.6327 H   0  0  0  0  0  0  0  0  0  0  0  0
   37.2314   29.2468   32.2570 H   0  0  0  0  0  0  0  0  0  0  0  0
   36.3277   28.0939   31.1362 H   0  0  0  0  0  0  0  0  0  0  0  0
   36.8403   26.7659   32.8838 H   0  0  0  0  0  0  0  0  0  0  0  0
   38.4668   27.5620   33.1236 H   0  0  0  0  0  0  0  0  0  0  0  0
  1  2  2  0
  2  3  1  0
  4  3  2  0
  5  4  1  0
  6  5  2  0
  6  1  1  0
  7  8  1  0
  7  5  1  0
  9  8  2  0
 10 11  2  0
 10  9  1  0
 11  7  1  0
 12 11  1  0
 13 12  1  0
 14 15  1  0
 14 13  2  0
 15 16  2  0
 16 12  1  0
 17 15  1  0
 17 22  1  0
 18 17  1  0
 19 18  1  0
 19 20  1  0
 20 21  1  0
 21 22  1  0
  1 23  1  0
  2 24  1  0
  3 25  1  0
  9 26  1  0
 10 27  1  0
 13 28  1  0
 18 29  1  0
 18 30  1  0
 19 31  1  0
 19 32  1  0
 20 33  1  0
 21 34  1  0
 21 35  1  0
 22 36  1  0
 22 37  1  0
M  ISO  8  23  14  24  14  25  14  26  14  27  14  28  14  29  13  30  13
M  ISO  7  31  13  32  13  33   5  34  13  35  13  36  13  37  13
M  END
>  <minimizedAffinity>  (1) 
-5.25637341

>  <minimizedRMSD>  (1) 
0.87438333

$$$$
