
     RDKit          3D

 25 27  0  0  0  0  0  0  0  0999 V2000
   39.8590   22.6390   37.0360 C   0  0  0  0  0  0  0  0  0  0  0  0
   39.3140   23.2920   38.1360 C   0  0  0  0  0  0  0  0  0  0  0  0
   37.9200   23.4270   38.1810 C   0  0  0  0  0  0  0  0  0  0  0  0
   37.1860   22.9140   37.1520 N   0  0  0  0  0  0  0  0  0  0  0  0
   37.7530   22.2850   36.1020 C   0  0  0  0  0  0  0  0  0  0  0  0
   39.0930   22.1450   36.0370 N   0  0  0  0  0  0  0  0  0  0  0  0
   37.0160   21.7420   35.0170 N   0  0  0  0  0  0  0  0  0  0  0  0
   36.0510   20.8500   35.2010 N   0  0  0  0  0  0  0  0  0  0  0  0
   35.5240   20.5080   34.0090 C   0  0  0  0  0  0  0  0  0  0  0  0
   36.2240   21.2500   33.0370 C   0  0  0  0  0  0  0  0  0  0  0  0
   37.1660   22.0230   33.7130 C   0  0  0  0  0  0  0  0  0  0  0  0
   38.0870   22.9220   33.1170 N   0  0  0  0  0  0  0  0  0  0  0  0
   39.2550   22.7330   32.4830 C   0  0  0  0  0  0  0  0  0  0  0  0
   39.8060   23.8620   32.0700 N   0  0  0  0  0  0  0  0  0  0  0  0
   38.9290   24.8380   32.4680 C   0  0  0  0  0  0  0  0  0  0  0  0
   37.8980   24.2350   33.0990 N   0  0  0  0  0  0  0  0  0  0  0  0
   38.9950   26.2480   32.3010 N   0  0  0  0  0  0  0  0  0  0  0  0
   40.9509   22.5201   36.9763 H   0  0  0  0  0  0  0  0  0  0  0  0
   39.9525   23.6873   38.9398 H   0  0  0  0  0  0  0  0  0  0  0  0
   37.4298   23.9341   39.0251 H   0  0  0  0  0  0  0  0  0  0  0  0
   34.7088   19.7915   33.8301 H   0  0  0  0  0  0  0  0  0  0  0  0
   36.0582   21.2240   31.9499 H   0  0  0  0  0  0  0  0  0  0  0  0
   39.7065   21.7427   32.3237 H   0  0  0  0  0  0  0  0  0  0  0  0
   38.2398   26.8458   32.6661 H   0  0  0  0  0  0  0  0  0  0  0  0
   39.7980   26.6720   31.8149 H   0  0  0  0  0  0  0  0  0  0  0  0
  1  2  2  0
  2  3  1  0
  4  3  2  0
  5  4  1  0
  6  5  2  0
  6  1  1  0
  7  8  1  0
  7  5  1  0
  9  8  2  0
 10 11  2  0
 10  9  1  0
 11  7  1  0
 12 11  1  0
 13 12  1  0
 14 15  1  0
 14 13  2  0
 15 16  2  0
 16 12  1  0
 17 15  1  0
  1 18  1  0
  2 19  1  0
  3 20  1  0
  9 21  1  0
 10 22  1  0
 13 23  1  0
 17 24  1  0
 17 25  1  0
M  ISO  6  18  14  19  14  20  14  21  14  22  14  23  14
M  END
>  <minimizedAffinity>  (1) 
-4.34482527

>  <minimizedRMSD>  (1) 
0.10288851

$$$$
