
     RDKit          3D

 25 27  0  0  0  0  0  0  0  0999 V2000
   39.7970   22.7020   37.0600 C   0  0  0  0  0  0  0  0  0  0  0  0
   39.2080   23.2720   38.1820 C   0  0  0  0  0  0  0  0  0  0  0  0
   37.8120   23.3370   38.2170 C   0  0  0  0  0  0  0  0  0  0  0  0
   37.1060   22.8440   37.1630 N   0  0  0  0  0  0  0  0  0  0  0  0
   37.7110   22.2960   36.0850 C   0  0  0  0  0  0  0  0  0  0  0  0
   39.0650   22.2180   36.0210 N   0  0  0  0  0  0  0  0  0  0  0  0
   37.0040   21.7780   34.9810 N   0  0  0  0  0  0  0  0  0  0  0  0
   36.0830   20.8390   35.0980 N   0  0  0  0  0  0  0  0  0  0  0  0
   35.5770   20.5420   33.8820 C   0  0  0  0  0  0  0  0  0  0  0  0
   36.2470   21.3670   32.9640 C   0  0  0  0  0  0  0  0  0  0  0  0
   37.1420   22.1380   33.6820 C   0  0  0  0  0  0  0  0  0  0  0  0
   38.0290   23.1160   33.1350 N   0  0  0  0  0  0  0  0  0  0  0  0
   39.2030   23.0000   32.4920 C   0  0  0  0  0  0  0  0  0  0  0  0
   39.7060   24.1820   32.1460 N   0  0  0  0  0  0  0  0  0  0  0  0
   38.7890   25.0880   32.6010 C   0  0  0  0  0  0  0  0  0  0  0  0
   37.8020   24.4050   33.1870 N   0  0  0  0  0  0  0  0  0  0  0  0
   38.7580   26.5450   32.5350 C   0  0  0  0  0  0  0  0  0  0  0  0
   37.7000   27.2570   32.6150 O   0  0  0  0  0  0  0  0  0  0  0  0
   40.8941   22.6400   37.0104 H   0  0  0  0  0  0  0  0  0  0  0  0
   39.8178   23.6579   39.0122 H   0  0  0  0  0  0  0  0  0  0  0  0
   37.2935   23.7786   39.0808 H   0  0  0  0  0  0  0  0  0  0  0  0
   34.7957   19.8015   33.6555 H   0  0  0  0  0  0  0  0  0  0  0  0
   36.0890   21.3946   31.8758 H   0  0  0  0  0  0  0  0  0  0  0  0
   39.6919   22.0385   32.2765 H   0  0  0  0  0  0  0  0  0  0  0  0
   39.7164   27.0695   32.4069 H   0  0  0  0  0  0  0  0  0  0  0  0
  1  2  2  0
  2  3  1  0
  4  3  2  0
  5  4  1  0
  6  5  2  0
  6  1  1  0
  7  8  1  0
  7  5  1  0
  9  8  2  0
 10 11  2  0
 10  9  1  0
 11  7  1  0
 12 16  1  0
 12 11  1  0
 13 12  1  0
 14 13  2  0
 14 15  1  0
 15 16  2  0
 17 15  1  0
 17 18  2  0
  1 19  1  0
  2 20  1  0
  3 21  1  0
  9 22  1  0
 10 23  1  0
 13 24  1  0
 17 25  1  0
M  ISO  7  19  14  20  14  21  14  22  14  23  14  24  14  25   6
M  END
>  <minimizedAffinity>  (1) 
-4.34205914

>  <minimizedRMSD>  (1) 
0.272660911

$$$$
