
     RDKit          3D

 45 50  0  0  0  0  0  0  0  0999 V2000
   37.7330   22.9590   32.8710 N   0  0  0  0  0  0  0  0  0  0  0  0
   39.0610   22.9860   32.5770 C   0  0  0  0  0  0  0  0  0  0  0  0
   39.3920   24.1450   32.0040 N   0  0  0  0  0  0  0  0  0  0  0  0
   38.2340   24.8540   31.9430 C   0  0  0  0  0  0  0  0  0  0  0  0
   37.2640   24.1220   32.4670 N   0  0  0  0  0  0  0  0  0  0  0  0
   38.1380   26.1950   31.3820 C   0  0  0  0  0  0  0  0  0  0  0  0
   37.4810   27.1940   32.0380 C   0  0  0  0  0  0  0  0  0  0  0  0
   37.3480   28.4800   31.5750 C   0  0  0  0  0  0  0  0  0  0  0  0
   37.9270   28.7750   30.3500 C   0  0  0  0  0  0  0  0  0  0  0  0
   38.5870   27.7660   29.6940 C   0  0  0  0  0  0  0  0  0  0  0  0
   38.6900   26.5020   30.1990 N   0  0  0  0  0  0  0  0  0  0  0  0
   39.2440   27.8820   28.4230 N   0  0  0  0  0  0  0  0  0  0  0  0
   39.4970   29.1240   27.9500 C   0  0  0  0  0  0  0  0  0  0  0  0
   40.1180   29.0090   26.7460 N   0  0  0  0  0  0  0  0  0  0  0  0
   40.2460   27.7040   26.4810 C   0  0  0  0  0  0  0  0  0  0  0  0
   40.7580   26.8990   25.4770 C   0  0  0  0  0  0  0  0  0  0  0  0
   40.7170   25.5600   25.5380 N   0  0  0  0  0  0  0  0  0  0  0  0
   40.1590   24.9250   26.6090 C   0  0  0  0  0  0  0  0  0  0  0  0
   39.6440   25.6630   27.6160 N   0  0  0  0  0  0  0  0  0  0  0  0
   39.6940   27.0020   27.5400 C   0  0  0  0  0  0  0  0  0  0  0  0
   41.3430   27.5860   24.3530 N   0  0  0  0  0  0  0  0  0  0  0  0
   39.7170   22.7380   36.7030 C   0  0  0  0  0  0  0  0  0  0  0  0
   39.1170   23.3010   37.8500 C   0  0  0  0  0  0  0  0  0  0  0  0
   37.7340   23.2890   37.9540 C   0  0  0  0  0  0  0  0  0  0  0  0
   37.0190   22.7320   36.9400 N   0  0  0  0  0  0  0  0  0  0  0  0
   37.6160   22.1950   35.8460 C   0  0  0  0  0  0  0  0  0  0  0  0
   38.9540   22.1950   35.7210 N   0  0  0  0  0  0  0  0  0  0  0  0
   36.8750   21.6080   34.7790 N   0  0  0  0  0  0  0  0  0  0  0  0
   36.0130   20.6200   34.9650 N   0  0  0  0  0  0  0  0  0  0  0  0
   35.4690   20.2730   33.7890 C   0  0  0  0  0  0  0  0  0  0  0  0
   36.0470   21.1160   32.8180 C   0  0  0  0  0  0  0  0  0  0  0  0
   36.9300   21.9450   33.4820 C   0  0  0  0  0  0  0  0  0  0  0  0
   39.7646   22.1660   32.7831 H   0  0  0  0  0  0  0  0  0  0  0  0
   37.0242   26.9520   33.0090 H   0  0  0  0  0  0  0  0  0  0  0  0
   36.8052   29.2437   32.1514 H   0  0  0  0  0  0  0  0  0  0  0  0
   37.8596   29.7844   29.9182 H   0  0  0  0  0  0  0  0  0  0  0  0
   39.2431   30.0679   28.4545 H   0  0  0  0  0  0  0  0  0  0  0  0
   40.1290   23.8262   26.6517 H   0  0  0  0  0  0  0  0  0  0  0  0
   41.3614   28.6156   24.3315 H   0  0  0  0  0  0  0  0  0  0  0  0
   41.7426   27.0473   23.5713 H   0  0  0  0  0  0  0  0  0  0  0  0
   40.8126   22.7395   36.6044 H   0  0  0  0  0  0  0  0  0  0  0  0
   39.7349   23.7411   38.6466 H   0  0  0  0  0  0  0  0  0  0  0  0
   37.2294   23.7181   38.8322 H   0  0  0  0  0  0  0  0  0  0  0  0
   34.7199   19.4862   33.6164 H   0  0  0  0  0  0  0  0  0  0  0  0
   35.8354   21.1139   31.7386 H   0  0  0  0  0  0  0  0  0  0  0  0
  1 32  1  0
  2  1  1  0
  3  2  2  0
  4  3  1  0
  4  5  2  0
  5  1  1  0
  6  4  1  0
  6  7  2  0
  8  7  1  0
  9  8  2  0
 10 11  2  0
 10  9  1  0
 11  6  1  0
 12 10  1  0
 13 12  1  0
 14 13  2  0
 15 14  1  0
 15 20  2  0
 16 17  2  0
 16 15  1  0
 17 18  1  0
 18 19  2  0
 20 19  1  0
 20 12  1  0
 21 16  1  0
 22 23  2  0
 23 24  1  0
 25 24  2  0
 26 25  1  0
 27 26  2  0
 27 22  1  0
 28 29  1  0
 28 26  1  0
 30 29  2  0
 31 32  2  0
 31 30  1  0
 32 28  1  0
  2 33  1  0
  7 34  1  0
  8 35  1  0
  9 36  1  0
 13 37  1  0
 18 38  1  0
 21 39  1  0
 21 40  1  0
 22 41  1  0
 23 42  1  0
 24 43  1  0
 30 44  1  0
 31 45  1  0
M  ISO  8  33  14  34  14  35  14  36  14  37  14  38  14  41  14  42  14
M  ISO  3  43  14  44  14  45  14
M  END
>  <minimizedAffinity>  (1) 
-6.3681035

>  <minimizedRMSD>  (1) 
0.310141474

$$$$
