
     RDKit          3D

 32 35  0  0  0  0  0  0  0  0999 V2000
   39.7010   22.7250   36.7300 C   0  0  0  0  0  0  0  0  0  0  0  0
   39.1220   23.2900   37.8750 C   0  0  0  0  0  0  0  0  0  0  0  0
   37.7290   23.2800   37.9770 C   0  0  0  0  0  0  0  0  0  0  0  0
   37.0010   22.7240   36.9620 N   0  0  0  0  0  0  0  0  0  0  0  0
   37.5890   22.1870   35.8710 C   0  0  0  0  0  0  0  0  0  0  0  0
   38.9360   22.1810   35.7430 N   0  0  0  0  0  0  0  0  0  0  0  0
   36.8570   21.6030   34.8030 N   0  0  0  0  0  0  0  0  0  0  0  0
   35.9950   20.6200   34.9860 N   0  0  0  0  0  0  0  0  0  0  0  0
   35.4550   20.2700   33.8070 C   0  0  0  0  0  0  0  0  0  0  0  0
   36.0390   21.1070   32.8450 C   0  0  0  0  0  0  0  0  0  0  0  0
   36.9210   21.9390   33.5060 C   0  0  0  0  0  0  0  0  0  0  0  0
   37.7260   22.9470   32.9000 N   0  0  0  0  0  0  0  0  0  0  0  0
   39.0400   22.9690   32.5790 C   0  0  0  0  0  0  0  0  0  0  0  0
   39.3860   24.1290   32.0190 N   0  0  0  0  0  0  0  0  0  0  0  0
   38.2480   24.8550   31.9880 C   0  0  0  0  0  0  0  0  0  0  0  0
   37.2620   24.1320   32.5210 N   0  0  0  0  0  0  0  0  0  0  0  0
   38.1480   26.2080   31.4540 C   0  0  0  0  0  0  0  0  0  0  0  0
   37.3970   27.1720   32.0750 C   0  0  0  0  0  0  0  0  0  0  0  0
   37.2550   28.4630   31.6320 C   0  0  0  0  0  0  0  0  0  0  0  0
   37.9330   28.8070   30.4600 C   0  0  0  0  0  0  0  0  0  0  0  0
   38.6840   27.8270   29.8460 C   0  0  0  0  0  0  0  0  0  0  0  0
   38.7910   26.5570   30.3290 N   0  0  0  0  0  0  0  0  0  0  0  0
   40.7961   22.7209   36.6265 H   0  0  0  0  0  0  0  0  0  0  0  0
   39.7455   23.7277   38.6685 H   0  0  0  0  0  0  0  0  0  0  0  0
   37.2277   23.7108   38.8563 H   0  0  0  0  0  0  0  0  0  0  0  0
   34.7052   19.4845   33.6312 H   0  0  0  0  0  0  0  0  0  0  0  0
   35.8328   21.1017   31.7645 H   0  0  0  0  0  0  0  0  0  0  0  0
   39.7353   22.1355   32.7573 H   0  0  0  0  0  0  0  0  0  0  0  0
   36.8686   26.8896   32.9975 H   0  0  0  0  0  0  0  0  0  0  0  0
   36.6362   29.1930   32.1744 H   0  0  0  0  0  0  0  0  0  0  0  0
   37.8701   29.8226   30.0422 H   0  0  0  0  0  0  0  0  0  0  0  0
   39.2228   28.0826   28.9217 H   0  0  0  0  0  0  0  0  0  0  0  0
  1  2  2  0
  2  3  1  0
  4  3  2  0
  5  4  1  0
  6  5  2  0
  6  1  1  0
  7  8  1  0
  7  5  1  0
  9  8  2  0
 10 11  2  0
 10  9  1  0
 11  7  1  0
 12 11  1  0
 13 12  1  0
 14 13  2  0
 15 14  1  0
 15 16  2  0
 16 12  1  0
 17 15  1  0
 17 18  2  0
 19 18  1  0
 20 19  2  0
 21 22  2  0
 21 20  1  0
 22 17  1  0
  1 23  1  0
  2 24  1  0
  3 25  1  0
  9 26  1  0
 10 27  1  0
 13 28  1  0
 18 29  1  0
 19 30  1  0
 20 31  1  0
 21 32  1  0
M  ISO  8  23  14  24  14  25  14  26  14  27  14  28  14  29  14  30  14
M  ISO  2  31  14  32  14
M  END
>  <minimizedAffinity>  (1) 
-5.07690763

>  <minimizedRMSD>  (1) 
1.19762731

$$$$
