
     RDKit          3D

 46 50  0  0  0  0  0  0  0  0999 V2000
   37.6150   22.9720   32.8280 N   0  0  0  0  0  0  0  0  0  0  0  0
   38.9120   23.0020   32.4130 C   0  0  0  0  0  0  0  0  0  0  0  0
   39.2150   24.1810   31.8890 N   0  0  0  0  0  0  0  0  0  0  0  0
   38.0830   24.9120   31.9750 C   0  0  0  0  0  0  0  0  0  0  0  0
   37.1310   24.1700   32.5420 N   0  0  0  0  0  0  0  0  0  0  0  0
   39.6890   22.7490   36.6030 C   0  0  0  0  0  0  0  0  0  0  0  0
   39.1230   23.2930   37.7730 C   0  0  0  0  0  0  0  0  0  0  0  0
   37.7410   23.2520   37.9110 C   0  0  0  0  0  0  0  0  0  0  0  0
   37.0110   22.6890   36.9070 N   0  0  0  0  0  0  0  0  0  0  0  0
   37.5700   22.1760   35.7980 C   0  0  0  0  0  0  0  0  0  0  0  0
   38.9110   22.2020   35.6380 N   0  0  0  0  0  0  0  0  0  0  0  0
   36.8310   21.5840   34.7380 N   0  0  0  0  0  0  0  0  0  0  0  0
   36.0020   20.5730   34.9320 N   0  0  0  0  0  0  0  0  0  0  0  0
   35.4430   20.2170   33.7580 C   0  0  0  0  0  0  0  0  0  0  0  0
   35.9830   21.0840   32.7970 C   0  0  0  0  0  0  0  0  0  0  0  0
   36.8530   21.9330   33.4440 C   0  0  0  0  0  0  0  0  0  0  0  0
   37.9530   26.2950   31.5120 C   0  0  0  0  0  0  0  0  0  0  0  0
   37.0180   27.1430   32.0640 C   0  0  0  0  0  0  0  0  0  0  0  0
   36.8550   28.4440   31.6680 C   0  0  0  0  0  0  0  0  0  0  0  0
   37.6720   28.9320   30.6610 C   0  0  0  0  0  0  0  0  0  0  0  0
   38.5910   28.0650   30.1320 C   0  0  0  0  0  0  0  0  0  0  0  0
   38.7300   26.7770   30.5450 N   0  0  0  0  0  0  0  0  0  0  0  0
   39.4930   28.4310   29.0940 N   0  0  0  0  0  0  0  0  0  0  0  0
   39.7950   29.7830   28.6680 C   0  0  0  0  0  0  0  0  0  0  0  0
   39.3260   29.9590   27.2410 C   0  0  0  0  0  0  0  0  0  0  0  0
   39.9030   29.0250   26.3290 N   0  0  0  0  0  0  0  0  0  0  0  0
   39.9610   27.6770   26.7960 C   0  0  0  0  0  0  0  0  0  0  0  0
   40.2790   27.5610   28.2650 C   0  0  0  0  0  0  0  0  0  0  0  0
   39.6143   22.1599   32.5010 H   0  0  0  0  0  0  0  0  0  0  0  0
   40.7808   22.7687   36.4708 H   0  0  0  0  0  0  0  0  0  0  0  0
   39.7568   23.7373   38.5546 H   0  0  0  0  0  0  0  0  0  0  0  0
   37.2497   23.6624   38.8055 H   0  0  0  0  0  0  0  0  0  0  0  0
   34.7131   19.4117   33.5886 H   0  0  0  0  0  0  0  0  0  0  0  0
   35.7532   21.0856   31.7213 H   0  0  0  0  0  0  0  0  0  0  0  0
   36.3694   26.7555   32.8634 H   0  0  0  0  0  0  0  0  0  0  0  0
   36.0946   29.0853   32.1376 H   0  0  0  0  0  0  0  0  0  0  0  0
   37.5865   29.9685   30.3027 H   0  0  0  0  0  0  0  0  0  0  0  0
   39.2753   30.5010   29.3195 H   0  0  0  0  0  0  0  0  0  0  0  0
   40.8785   29.9621   28.7307 H   0  0  0  0  0  0  0  0  0  0  0  0
   38.2329   29.8380   27.2171 H   0  0  0  0  0  0  0  0  0  0  0  0
   39.6440   30.9616   26.9190 H   0  0  0  0  0  0  0  0  0  0  0  0
   40.8642   29.3327   26.1231 H   0  0  0  0  0  0  0  0  0  0  0  0
   38.9854   27.2031   26.6128 H   0  0  0  0  0  0  0  0  0  0  0  0
   40.7762   27.1806   26.2490 H   0  0  0  0  0  0  0  0  0  0  0  0
   40.0966   26.5228   28.5793 H   0  0  0  0  0  0  0  0  0  0  0  0
   41.3305   27.8580   28.3917 H   0  0  0  0  0  0  0  0  0  0  0  0
  1 16  1  0
  2  1  1  0
  3  4  1  0
  3  2  2  0
  4  5  2  0
  5  1  1  0
  6  7  2  0
  7  8  1  0
  9  8  2  0
 10  9  1  0
 11 10  2  0
 11  6  1  0
 12 13  1  0
 12 10  1  0
 14 13  2  0
 15 16  2  0
 15 14  1  0
 16 12  1  0
 17  4  1  0
 17 18  2  0
 19 18  1  0
 20 19  2  0
 21 22  2  0
 21 20  1  0
 22 17  1  0
 23 21  1  0
 24 23  1  0
 25 24  1  0
 26 27  1  0
 26 25  1  0
 27 28  1  0
 28 23  1  0
  2 29  1  0
  6 30  1  0
  7 31  1  0
  8 32  1  0
 14 33  1  0
 15 34  1  0
 18 35  1  0
 19 36  1  0
 20 37  1  0
 24 38  1  0
 24 39  1  0
 25 40  1  0
 25 41  1  0
 26 42  1  0
 27 43  1  0
 27 44  1  0
 28 45  1  0
 28 46  1  0
M  ISO  8  29  14  30  14  31  14  32  14  33  14  34  14  35  14  36  14
M  ISO  8  37  14  38  13  39  13  40  13  41  13  42   5  43  13  44  13
M  ISO  2  45  13  46  13
M  END
>  <minimizedAffinity>  (1) 
-5.97390079

>  <minimizedRMSD>  (1) 
0.396058351

$$$$
