
     RDKit          3D

 39 43  0  0  0  0  0  0  0  0999 V2000
   37.7130   22.9420   32.9020 N   0  0  0  0  0  0  0  0  0  0  0  0
   39.0300   22.9780   32.5850 C   0  0  0  0  0  0  0  0  0  0  0  0
   39.3630   24.1460   32.0200 N   0  0  0  0  0  0  0  0  0  0  0  0
   38.2270   24.8540   31.9840 C   0  0  0  0  0  0  0  0  0  0  0  0
   37.2370   24.1210   32.5190 N   0  0  0  0  0  0  0  0  0  0  0  0
   39.6930   22.7410   36.7210 C   0  0  0  0  0  0  0  0  0  0  0  0
   39.1130   23.2990   37.8650 C   0  0  0  0  0  0  0  0  0  0  0  0
   37.7310   23.2780   37.9750 C   0  0  0  0  0  0  0  0  0  0  0  0
   36.9950   22.7180   36.9660 N   0  0  0  0  0  0  0  0  0  0  0  0
   37.5850   22.1820   35.8640 C   0  0  0  0  0  0  0  0  0  0  0  0
   38.9290   22.1970   35.7480 N   0  0  0  0  0  0  0  0  0  0  0  0
   36.8550   21.5970   34.8090 N   0  0  0  0  0  0  0  0  0  0  0  0
   35.9920   20.6050   34.9900 N   0  0  0  0  0  0  0  0  0  0  0  0
   35.4520   20.2540   33.8180 C   0  0  0  0  0  0  0  0  0  0  0  0
   36.0300   21.0940   32.8560 C   0  0  0  0  0  0  0  0  0  0  0  0
   36.9110   21.9290   33.5100 C   0  0  0  0  0  0  0  0  0  0  0  0
   38.0960   26.2050   31.4490 C   0  0  0  0  0  0  0  0  0  0  0  0
   37.4320   27.1910   32.1110 C   0  0  0  0  0  0  0  0  0  0  0  0
   37.2700   28.4800   31.6690 C   0  0  0  0  0  0  0  0  0  0  0  0
   37.8490   28.7850   30.4240 C   0  0  0  0  0  0  0  0  0  0  0  0
   38.5160   27.7850   29.7650 C   0  0  0  0  0  0  0  0  0  0  0  0
   38.6310   26.5330   30.2710 N   0  0  0  0  0  0  0  0  0  0  0  0
   39.1400   27.9760   28.5000 N   0  0  0  0  0  0  0  0  0  0  0  0
   39.1790   29.2850   28.1310 C   0  0  0  0  0  0  0  0  0  0  0  0
   39.8070   29.3620   26.8860 C   0  0  0  0  0  0  0  0  0  0  0  0
   40.1250   28.0990   26.5460 N   0  0  0  0  0  0  0  0  0  0  0  0
   39.7160   27.2520   27.5330 C   0  0  0  0  0  0  0  0  0  0  0  0
   39.7351   22.1538   32.7681 H   0  0  0  0  0  0  0  0  0  0  0  0
   40.7875   22.7450   36.6117 H   0  0  0  0  0  0  0  0  0  0  0  0
   39.7362   23.7423   38.6557 H   0  0  0  0  0  0  0  0  0  0  0  0
   37.2341   23.7045   38.8589 H   0  0  0  0  0  0  0  0  0  0  0  0
   34.7051   19.4654   33.6440 H   0  0  0  0  0  0  0  0  0  0  0  0
   35.8192   21.0881   31.7764 H   0  0  0  0  0  0  0  0  0  0  0  0
   36.9871   26.9329   33.0834 H   0  0  0  0  0  0  0  0  0  0  0  0
   36.7193   29.2311   32.2544 H   0  0  0  0  0  0  0  0  0  0  0  0
   37.7691   29.7938   29.9929 H   0  0  0  0  0  0  0  0  0  0  0  0
   38.7854   30.1329   28.7109 H   0  0  0  0  0  0  0  0  0  0  0  0
   40.0026   30.2724   26.3005 H   0  0  0  0  0  0  0  0  0  0  0  0
   39.8387   26.1589   27.5343 H   0  0  0  0  0  0  0  0  0  0  0  0
  1 16  1  0
  2  1  1  0
  3  2  2  0
  4  3  1  0
  4  5  2  0
  5  1  1  0
  6  7  2  0
  7  8  1  0
  9  8  2  0
 10  9  1  0
 11 10  2  0
 11  6  1  0
 12 13  1  0
 12 10  1  0
 14 13  2  0
 15 16  2  0
 15 14  1  0
 16 12  1  0
 17  4  1  0
 17 18  2  0
 19 18  1  0
 20 19  2  0
 21 22  2  0
 21 20  1  0
 22 17  1  0
 23 21  1  0
 24 23  1  0
 25 24  2  0
 26 25  1  0
 26 27  2  0
 27 23  1  0
  2 28  1  0
  6 29  1  0
  7 30  1  0
  8 31  1  0
 14 32  1  0
 15 33  1  0
 18 34  1  0
 19 35  1  0
 20 36  1  0
 24 37  1  0
 25 38  1  0
 27 39  1  0
M  ISO  8  28  14  29  14  30  14  31  14  32  14  33  14  34  14  35  14
M  ISO  4  36  14  37  14  38  14  39  14
M  END
>  <minimizedAffinity>  (1) 
-5.8707757

>  <minimizedRMSD>  (1) 
0.172802016

$$$$
