
     RDKit          3D

 39 43  0  0  0  0  0  0  0  0999 V2000
   36.7440   23.1720   31.7000 N   0  0  0  0  0  0  0  0  0  0  0  0
   37.7130   23.3470   30.7640 C   0  0  0  0  0  0  0  0  0  0  0  0
   37.9050   24.6380   30.5110 N   0  0  0  0  0  0  0  0  0  0  0  0
   37.0370   25.2960   31.3060 C   0  0  0  0  0  0  0  0  0  0  0  0
   36.3500   24.3940   32.0120 N   0  0  0  0  0  0  0  0  0  0  0  0
   39.7770   22.4490   34.6830 C   0  0  0  0  0  0  0  0  0  0  0  0
   39.5280   22.7250   36.0330 C   0  0  0  0  0  0  0  0  0  0  0  0
   38.2340   22.5520   36.5210 C   0  0  0  0  0  0  0  0  0  0  0  0
   37.2590   22.1190   35.6610 N   0  0  0  0  0  0  0  0  0  0  0  0
   37.5350   21.8610   34.3600 C   0  0  0  0  0  0  0  0  0  0  0  0
   38.7830   22.0200   33.8550 N   0  0  0  0  0  0  0  0  0  0  0  0
   36.5400   21.4120   33.4460 N   0  0  0  0  0  0  0  0  0  0  0  0
   35.8150   20.3280   33.6540 N   0  0  0  0  0  0  0  0  0  0  0  0
   34.9660   20.1540   32.6310 C   0  0  0  0  0  0  0  0  0  0  0  0
   35.1960   21.2090   31.7400 C   0  0  0  0  0  0  0  0  0  0  0  0
   36.2010   21.9920   32.2830 C   0  0  0  0  0  0  0  0  0  0  0  0
   36.8930   26.7420   31.3660 C   0  0  0  0  0  0  0  0  0  0  0  0
   36.4480   27.3830   32.4830 C   0  0  0  0  0  0  0  0  0  0  0  0
   36.2870   28.7440   32.6170 C   0  0  0  0  0  0  0  0  0  0  0  0
   36.6150   29.5140   31.4910 C   0  0  0  0  0  0  0  0  0  0  0  0
   37.0640   28.8600   30.3640 C   0  0  0  0  0  0  0  0  0  0  0  0
   37.1940   27.5120   30.3220 N   0  0  0  0  0  0  0  0  0  0  0  0
   37.4110   29.6500   29.1830 C   0  0  0  0  0  0  0  0  0  0  0  0
   37.1370   30.9840   28.9850 C   0  0  0  0  0  0  0  0  0  0  0  0
   37.6450   31.2990   27.7420 C   0  0  0  0  0  0  0  0  0  0  0  0
   38.2030   30.1630   27.2310 N   0  0  0  0  0  0  0  0  0  0  0  0
   38.0590   29.1790   28.1010 N   0  0  0  0  0  0  0  0  0  0  0  0
   38.2657   22.5286   30.2795 H   0  0  0  0  0  0  0  0  0  0  0  0
   40.7934   22.5808   34.2834 H   0  0  0  0  0  0  0  0  0  0  0  0
   40.3362   23.0709   36.6941 H   0  0  0  0  0  0  0  0  0  0  0  0
   38.0000   22.7590   37.5757 H   0  0  0  0  0  0  0  0  0  0  0  0
   34.2330   19.3421   32.5147 H   0  0  0  0  0  0  0  0  0  0  0  0
   34.6757   21.3835   30.7867 H   0  0  0  0  0  0  0  0  0  0  0  0
   36.1955   26.7592   33.3531 H   0  0  0  0  0  0  0  0  0  0  0  0
   35.9234   29.1996   33.5499 H   0  0  0  0  0  0  0  0  0  0  0  0
   36.5165   30.6095   31.5072 H   0  0  0  0  0  0  0  0  0  0  0  0
   36.6177   31.6622   29.6781 H   0  0  0  0  0  0  0  0  0  0  0  0
   37.6074   32.2836   27.2530 H   0  0  0  0  0  0  0  0  0  0  0  0
   38.6633   30.0851   26.3129 H   0  0  0  0  0  0  0  0  0  0  0  0
  1  5  1  0
  1 16  1  0
  2  1  1  0
  3  2  2  0
  3  4  1  0
  4 17  1  0
  4  5  2  0
  6  7  2  0
  7  8  1  0
  9  8  2  0
 10  9  1  0
 11 10  2  0
 11  6  1  0
 12 13  1  0
 12 10  1  0
 14 13  2  0
 15 16  2  0
 15 14  1  0
 16 12  1  0
 17 18  2  0
 18 19  1  0
 20 19  2  0
 21 20  1  0
 22 21  2  0
 22 17  1  0
 23 21  1  0
 24 23  1  0
 25 24  2  0
 26 25  1  0
 26 27  1  0
 27 23  2  0
  2 28  1  0
  6 29  1  0
  7 30  1  0
  8 31  1  0
 14 32  1  0
 15 33  1  0
 18 34  1  0
 19 35  1  0
 20 36  1  0
 24 37  1  0
 25 38  1  0
 26 39  1  0
M  ISO  8  28  14  29  14  30  14  31  14  32  14  33  14  34  14  35  14
M  ISO  4  36  14  37  14  38  14  39   9
M  END
>  <minimizedAffinity>  (1) 
-6.05144358

>  <minimizedRMSD>  (1) 
2.01935959

$$$$
