
     RDKit          3D

 45 49  0  0  0  0  0  0  0  0999 V2000
   37.6390   22.9540   32.8260 N   0  0  0  0  0  0  0  0  0  0  0  0
   38.9210   22.9860   32.4270 C   0  0  0  0  0  0  0  0  0  0  0  0
   39.2350   24.1620   31.8900 N   0  0  0  0  0  0  0  0  0  0  0  0
   38.1000   24.8950   31.9570 C   0  0  0  0  0  0  0  0  0  0  0  0
   37.1470   24.1570   32.5220 N   0  0  0  0  0  0  0  0  0  0  0  0
   39.6980   22.7540   36.6150 C   0  0  0  0  0  0  0  0  0  0  0  0
   39.1260   23.2960   37.7670 C   0  0  0  0  0  0  0  0  0  0  0  0
   37.7440   23.2590   37.9000 C   0  0  0  0  0  0  0  0  0  0  0  0
   37.0070   22.6960   36.9020 N   0  0  0  0  0  0  0  0  0  0  0  0
   37.5800   22.1750   35.7920 C   0  0  0  0  0  0  0  0  0  0  0  0
   38.9310   22.1960   35.6300 N   0  0  0  0  0  0  0  0  0  0  0  0
   36.8380   21.5820   34.7350 N   0  0  0  0  0  0  0  0  0  0  0  0
   36.0020   20.5810   34.9340 N   0  0  0  0  0  0  0  0  0  0  0  0
   35.4440   20.2250   33.7670 C   0  0  0  0  0  0  0  0  0  0  0  0
   35.9890   21.0790   32.7990 C   0  0  0  0  0  0  0  0  0  0  0  0
   36.8670   21.9260   33.4440 C   0  0  0  0  0  0  0  0  0  0  0  0
   37.9630   26.2740   31.4820 C   0  0  0  0  0  0  0  0  0  0  0  0
   37.2790   27.2190   32.1830 C   0  0  0  0  0  0  0  0  0  0  0  0
   37.1250   28.5150   31.7800 C   0  0  0  0  0  0  0  0  0  0  0  0
   37.7160   28.8770   30.5630 C   0  0  0  0  0  0  0  0  0  0  0  0
   38.4020   27.9170   29.8670 C   0  0  0  0  0  0  0  0  0  0  0  0
   38.5230   26.6480   30.3140 N   0  0  0  0  0  0  0  0  0  0  0  0
   40.2530   28.9540   26.1620 C   0  0  0  0  0  0  0  0  0  0  0  0
   39.7000   29.9230   26.9520 C   0  0  0  0  0  0  0  0  0  0  0  0
   39.1120   29.5210   28.1450 C   0  0  0  0  0  0  0  0  0  0  0  0
   39.0470   28.2130   28.5920 C   0  0  0  0  0  0  0  0  0  0  0  0
   39.6170   27.2830   27.7620 C   0  0  0  0  0  0  0  0  0  0  0  0
   40.2160   27.6350   26.5590 C   0  0  0  0  0  0  0  0  0  0  0  0
   41.0050   29.4000   24.6530 S   0  0  0  0  0  0  0  0  0  0  0  0
   40.9530   30.8880   24.4330 O   0  0  0  0  0  0  0  0  0  0  0  0
   40.2780   28.7780   23.4710 O   0  0  0  0  0  0  0  0  0  0  0  0
   39.6231   22.1456   32.5311 H   0  0  0  0  0  0  0  0  0  0  0  0
   40.7914   22.7762   36.4967 H   0  0  0  0  0  0  0  0  0  0  0  0
   39.7551   23.7421   38.5513 H   0  0  0  0  0  0  0  0  0  0  0  0
   37.2546   23.6757   38.7927 H   0  0  0  0  0  0  0  0  0  0  0  0
   34.7075   19.4245   33.6032 H   0  0  0  0  0  0  0  0  0  0  0  0
   35.7593   21.0750   31.7233 H   0  0  0  0  0  0  0  0  0  0  0  0
   36.8200   26.9194   33.1367 H   0  0  0  0  0  0  0  0  0  0  0  0
   36.5621   29.2417   32.3842 H   0  0  0  0  0  0  0  0  0  0  0  0
   37.6317   29.9035   30.1768 H   0  0  0  0  0  0  0  0  0  0  0  0
   39.7198   30.9817   26.6542 H   0  0  0  0  0  0  0  0  0  0  0  0
   38.6654   30.2996   28.7808 H   0  0  0  0  0  0  0  0  0  0  0  0
   39.5996   26.2237   28.0580 H   0  0  0  0  0  0  0  0  0  0  0  0
   40.6624   26.8580   25.9211 H   0  0  0  0  0  0  0  0  0  0  0  0
   42.2986   28.9561   24.7328 H   0  0  0  0  0  0  0  0  0  0  0  0
  1 16  1  0
  2  1  1  0
  3  4  1  0
  3  2  2  0
  4  5  2  0
  5  1  1  0
  6  7  2  0
  7  8  1  0
  9  8  2  0
 10  9  1  0
 11 10  2  0
 11  6  1  0
 12 13  1  0
 12 10  1  0
 14 13  2  0
 15 16  2  0
 15 14  1  0
 16 12  1  0
 17  4  1  0
 17 18  2  0
 19 18  1  0
 20 19  2  0
 21 22  2  0
 21 20  1  0
 22 17  1  0
 23 28  2  0
 23 24  1  0
 24 25  2  0
 25 26  1  0
 26 21  1  0
 27 26  2  0
 28 27  1  0
 29 23  1  0
 30 29  2  0
 31 29  2  0
  2 32  1  0
  6 33  1  0
  7 34  1  0
  8 35  1  0
 14 36  1  0
 15 37  1  0
 18 38  1  0
 19 39  1  0
 20 40  1  0
 24 41  1  0
 25 42  1  0
 27 43  1  0
 28 44  1  0
 29 45  1  0
M  ISO  8  32  14  33  14  34  14  35  14  36  14  37  14  38  14  39  14
M  ISO  6  40  14  41  14  42  14  43  14  44  14  45  11
M  END
>  <minimizedAffinity>  (1) 
-5.60871315

>  <minimizedRMSD>  (1) 
1.02070606

$$$$
