
     RDKit          3D

 40 44  0  0  0  0  0  0  0  0999 V2000
   37.6710   22.9470   32.8230 N   0  0  0  0  0  0  0  0  0  0  0  0
   38.9650   22.9830   32.4560 C   0  0  0  0  0  0  0  0  0  0  0  0
   39.2770   24.1560   31.9110 N   0  0  0  0  0  0  0  0  0  0  0  0
   38.1420   24.8830   31.9350 C   0  0  0  0  0  0  0  0  0  0  0  0
   37.1880   24.1390   32.4860 N   0  0  0  0  0  0  0  0  0  0  0  0
   39.7090   22.7450   36.6180 C   0  0  0  0  0  0  0  0  0  0  0  0
   39.1350   23.2930   37.7680 C   0  0  0  0  0  0  0  0  0  0  0  0
   37.7460   23.2690   37.9040 C   0  0  0  0  0  0  0  0  0  0  0  0
   37.0180   22.7070   36.9000 N   0  0  0  0  0  0  0  0  0  0  0  0
   37.5910   22.1830   35.7980 C   0  0  0  0  0  0  0  0  0  0  0  0
   38.9320   22.1930   35.6390 N   0  0  0  0  0  0  0  0  0  0  0  0
   36.8420   21.5910   34.7370 N   0  0  0  0  0  0  0  0  0  0  0  0
   35.9890   20.5990   34.9340 N   0  0  0  0  0  0  0  0  0  0  0  0
   35.4330   20.2460   33.7640 C   0  0  0  0  0  0  0  0  0  0  0  0
   35.9940   21.0890   32.7950 C   0  0  0  0  0  0  0  0  0  0  0  0
   36.8810   21.9290   33.4370 C   0  0  0  0  0  0  0  0  0  0  0  0
   38.0130   26.2440   31.4360 C   0  0  0  0  0  0  0  0  0  0  0  0
   37.3140   27.2060   32.1350 C   0  0  0  0  0  0  0  0  0  0  0  0
   37.1600   28.5030   31.7150 C   0  0  0  0  0  0  0  0  0  0  0  0
   37.7550   28.8570   30.4960 C   0  0  0  0  0  0  0  0  0  0  0  0
   38.4440   27.8850   29.8210 C   0  0  0  0  0  0  0  0  0  0  0  0
   38.5840   26.5950   30.2620 N   0  0  0  0  0  0  0  0  0  0  0  0
   39.0710   28.2370   28.5490 C   0  0  0  0  0  0  0  0  0  0  0  0
   39.6360   27.2910   27.7170 C   0  0  0  0  0  0  0  0  0  0  0  0
   40.2300   27.6180   26.5150 C   0  0  0  0  0  0  0  0  0  0  0  0
   40.2320   28.9370   26.1860 N   0  0  0  0  0  0  0  0  0  0  0  0
   39.6870   29.8770   26.9840 C   0  0  0  0  0  0  0  0  0  0  0  0
   39.1050   29.5270   28.1690 N   0  0  0  0  0  0  0  0  0  0  0  0
   39.6725   22.1513   32.5891 H   0  0  0  0  0  0  0  0  0  0  0  0
   40.8025   22.7582   36.4991 H   0  0  0  0  0  0  0  0  0  0  0  0
   39.7666   23.7355   38.5524 H   0  0  0  0  0  0  0  0  0  0  0  0
   37.2553   23.6906   38.7937 H   0  0  0  0  0  0  0  0  0  0  0  0
   34.6872   19.4544   33.5991 H   0  0  0  0  0  0  0  0  0  0  0  0
   35.7683   21.0823   31.7184 H   0  0  0  0  0  0  0  0  0  0  0  0
   36.8508   26.9149   33.0893 H   0  0  0  0  0  0  0  0  0  0  0  0
   36.5934   29.2345   32.3099 H   0  0  0  0  0  0  0  0  0  0  0  0
   37.6714   29.8784   30.0963 H   0  0  0  0  0  0  0  0  0  0  0  0
   39.6117   26.2351   28.0243 H   0  0  0  0  0  0  0  0  0  0  0  0
   40.6764   26.8549   25.8605 H   0  0  0  0  0  0  0  0  0  0  0  0
   39.7112   30.9335   26.6786 H   0  0  0  0  0  0  0  0  0  0  0  0
  1 16  1  0
  2  1  1  0
  3  4  1  0
  3  2  2  0
  4  5  2  0
  5  1  1  0
  6  7  2  0
  7  8  1  0
  9  8  2  0
 10  9  1  0
 11 10  2  0
 11  6  1  0
 12 13  1  0
 12 10  1  0
 14 13  2  0
 15 16  2  0
 15 14  1  0
 16 12  1  0
 17  4  1  0
 17 18  2  0
 19 18  1  0
 20 19  2  0
 21 22  2  0
 21 20  1  0
 22 17  1  0
 23 21  1  0
 24 23  2  0
 25 24  1  0
 26 25  2  0
 26 27  1  0
 27 28  2  0
 28 23  1  0
  2 29  1  0
  6 30  1  0
  7 31  1  0
  8 32  1  0
 14 33  1  0
 15 34  1  0
 18 35  1  0
 19 36  1  0
 20 37  1  0
 24 38  1  0
 25 39  1  0
 27 40  1  0
M  ISO  8  29  14  30  14  31  14  32  14  33  14  34  14  35  14  36  14
M  ISO  4  37  14  38  14  39  14  40  14
M  END
>  <minimizedAffinity>  (1) 
-5.67789841

>  <minimizedRMSD>  (1) 
0.293542892

$$$$
