
     RDKit          3D

 35 38  0  0  0  0  0  0  0  0999 V2000
   37.4650   23.2300   32.7630 N   0  0  0  0  0  0  0  0  0  0  0  0
   38.7350   23.4090   32.3660 C   0  0  0  0  0  0  0  0  0  0  0  0
   38.9390   24.6420   31.8920 N   0  0  0  0  0  0  0  0  0  0  0  0
   37.7310   25.2550   32.0020 C   0  0  0  0  0  0  0  0  0  0  0  0
   36.8490   24.3910   32.5300 N   0  0  0  0  0  0  0  0  0  0  0  0
   39.6730   22.9310   36.4620 C   0  0  0  0  0  0  0  0  0  0  0  0
   39.1050   23.3380   37.6660 C   0  0  0  0  0  0  0  0  0  0  0  0
   37.7280   23.1770   37.8510 C   0  0  0  0  0  0  0  0  0  0  0  0
   37.0130   22.6250   36.8300 N   0  0  0  0  0  0  0  0  0  0  0  0
   37.5910   22.2380   35.6680 C   0  0  0  0  0  0  0  0  0  0  0  0
   38.9130   22.3850   35.4740 N   0  0  0  0  0  0  0  0  0  0  0  0
   36.8490   21.6590   34.5960 N   0  0  0  0  0  0  0  0  0  0  0  0
   36.1010   20.5830   34.7440 N   0  0  0  0  0  0  0  0  0  0  0  0
   35.5260   20.2730   33.5700 C   0  0  0  0  0  0  0  0  0  0  0  0
   35.9660   21.2410   32.6440 C   0  0  0  0  0  0  0  0  0  0  0  0
   36.8010   22.1030   33.3230 C   0  0  0  0  0  0  0  0  0  0  0  0
   37.4730   26.6320   31.6010 C   0  0  0  0  0  0  0  0  0  0  0  0
   36.9130   27.5300   32.4580 C   0  0  0  0  0  0  0  0  0  0  0  0
   36.6420   28.8380   32.1490 C   0  0  0  0  0  0  0  0  0  0  0  0
   36.9700   29.2690   30.8540 C   0  0  0  0  0  0  0  0  0  0  0  0
   37.5300   28.3440   30.0140 C   0  0  0  0  0  0  0  0  0  0  0  0
   37.7790   27.0630   30.3670 N   0  0  0  0  0  0  0  0  0  0  0  0
   37.8720   28.7860   28.6650 C   0  0  0  0  0  0  0  0  0  0  0  0
   37.5700   29.9500   28.2920 O   0  0  0  0  0  0  0  0  0  0  0  0
   38.5260   27.9990   27.7270 O   0  0  0  0  0  0  0  0  0  0  0  0
   39.5138   22.6343   32.4238 H   0  0  0  0  0  0  0  0  0  0  0  0
   40.7551   23.0529   36.3065 H   0  0  0  0  0  0  0  0  0  0  0  0
   39.7283   23.7786   38.4581 H   0  0  0  0  0  0  0  0  0  0  0  0
   37.2393   23.4849   38.7872 H   0  0  0  0  0  0  0  0  0  0  0  0
   34.8467   19.4311   33.3707 H   0  0  0  0  0  0  0  0  0  0  0  0
   35.6942   21.2979   31.5796 H   0  0  0  0  0  0  0  0  0  0  0  0
   36.6601   27.1812   33.4701 H   0  0  0  0  0  0  0  0  0  0  0  0
   36.1877   29.5194   32.8833 H   0  0  0  0  0  0  0  0  0  0  0  0
   36.7854   30.3034   30.5286 H   0  0  0  0  0  0  0  0  0  0  0  0
   38.7270   28.3635   26.8288 H   0  0  0  0  0  0  0  0  0  0  0  0
  1 16  1  0
  2  1  1  0
  3  4  1  0
  3  2  2  0
  4  5  2  0
  5  1  1  0
  6  7  2  0
  7  8  1  0
  9  8  2  0
 10  9  1  0
 11 10  2  0
 11  6  1  0
 12 13  1  0
 12 10  1  0
 14 13  2  0
 15 16  2  0
 15 14  1  0
 16 12  1  0
 17  4  1  0
 17 18  2  0
 19 18  1  0
 20 19  2  0
 21 22  2  0
 21 20  1  0
 22 17  1  0
 23 21  1  0
 24 23  2  0
 25 23  1  0
  2 26  1  0
  6 27  1  0
  7 28  1  0
  8 29  1  0
 14 30  1  0
 15 31  1  0
 18 32  1  0
 19 33  1  0
 20 34  1  0
 25 35  1  0
M  ISO  8  26  14  27  14  28  14  29  14  30  14  31  14  32  14  33  14
M  ISO  2  34  14  35   3
M  END
>  <minimizedAffinity>  (1) 
-5.55610609

>  <minimizedRMSD>  (1) 
0.942144871

$$$$
