
     RDKit          3D

 34 37  0  0  0  0  0  0  0  0999 V2000
   37.5390   23.0170   32.8220 N   0  0  0  0  0  0  0  0  0  0  0  0
   38.8260   23.0840   32.3890 C   0  0  0  0  0  0  0  0  0  0  0  0
   39.0960   24.2870   31.8750 N   0  0  0  0  0  0  0  0  0  0  0  0
   37.9420   24.9890   31.9910 C   0  0  0  0  0  0  0  0  0  0  0  0
   37.0190   24.2090   32.5620 N   0  0  0  0  0  0  0  0  0  0  0  0
   39.6730   22.8070   36.5640 C   0  0  0  0  0  0  0  0  0  0  0  0
   39.1040   23.3110   37.7500 C   0  0  0  0  0  0  0  0  0  0  0  0
   37.7260   23.2190   37.9000 C   0  0  0  0  0  0  0  0  0  0  0  0
   37.0040   22.6510   36.9020 N   0  0  0  0  0  0  0  0  0  0  0  0
   37.5550   22.1730   35.7760 C   0  0  0  0  0  0  0  0  0  0  0  0
   38.8940   22.2500   35.6030 N   0  0  0  0  0  0  0  0  0  0  0  0
   36.8200   21.5780   34.7250 N   0  0  0  0  0  0  0  0  0  0  0  0
   36.0240   20.5480   34.9080 N   0  0  0  0  0  0  0  0  0  0  0  0
   35.4570   20.1910   33.7510 C   0  0  0  0  0  0  0  0  0  0  0  0
   35.9590   21.0890   32.7830 C   0  0  0  0  0  0  0  0  0  0  0  0
   36.8170   21.9530   33.4310 C   0  0  0  0  0  0  0  0  0  0  0  0
   37.7650   26.3610   31.5590 C   0  0  0  0  0  0  0  0  0  0  0  0
   37.1310   27.2910   32.3470 C   0  0  0  0  0  0  0  0  0  0  0  0
   36.9370   28.5970   31.9910 C   0  0  0  0  0  0  0  0  0  0  0  0
   37.4140   29.0070   30.7470 C   0  0  0  0  0  0  0  0  0  0  0  0
   38.0440   28.0670   29.9760 C   0  0  0  0  0  0  0  0  0  0  0  0
   38.2170   26.7760   30.3660 N   0  0  0  0  0  0  0  0  0  0  0  0
   38.5520   28.4710   28.6690 C   0  0  0  0  0  0  0  0  0  0  0  0
   37.9950   29.3680   27.9850 O   0  0  0  0  0  0  0  0  0  0  0  0
   39.5489   22.2574   32.4534 H   0  0  0  0  0  0  0  0  0  0  0  0
   40.7613   22.8657   36.4154 H   0  0  0  0  0  0  0  0  0  0  0  0
   39.7310   23.7631   38.5326 H   0  0  0  0  0  0  0  0  0  0  0  0
   37.2320   23.5979   38.8068 H   0  0  0  0  0  0  0  0  0  0  0  0
   34.7462   19.3678   33.5868 H   0  0  0  0  0  0  0  0  0  0  0  0
   35.7116   21.0976   31.7112 H   0  0  0  0  0  0  0  0  0  0  0  0
   36.7552   26.9639   33.3277 H   0  0  0  0  0  0  0  0  0  0  0  0
   36.4224   29.2996   32.6630 H   0  0  0  0  0  0  0  0  0  0  0  0
   37.2894   30.0431   30.3990 H   0  0  0  0  0  0  0  0  0  0  0  0
   39.4495   27.9760   28.2696 H   0  0  0  0  0  0  0  0  0  0  0  0
  1 16  1  0
  2  1  1  0
  3  4  1  0
  3  2  2  0
  4  5  2  0
  5  1  1  0
  6  7  2  0
  7  8  1  0
  9  8  2  0
 10  9  1  0
 11 10  2  0
 11  6  1  0
 12 13  1  0
 12 10  1  0
 14 13  2  0
 15 16  2  0
 15 14  1  0
 16 12  1  0
 17  4  1  0
 17 18  2  0
 19 18  1  0
 20 19  2  0
 21 22  2  0
 21 20  1  0
 22 17  1  0
 23 21  1  0
 24 23  2  0
  2 25  1  0
  6 26  1  0
  7 27  1  0
  8 28  1  0
 14 29  1  0
 15 30  1  0
 18 31  1  0
 19 32  1  0
 20 33  1  0
 23 34  1  0
M  ISO  8  25  14  26  14  27  14  28  14  29  14  30  14  31  14  32  14
M  ISO  2  33  14  34   6
M  END
>  <minimizedAffinity>  (1) 
-5.19751358

>  <minimizedRMSD>  (1) 
0.443820298

$$$$
