
     RDKit          3D

 35 38  0  0  0  0  0  0  0  0999 V2000
   37.5460   23.0050   32.8180 N   0  0  0  0  0  0  0  0  0  0  0  0
   38.8220   23.0770   32.3840 C   0  0  0  0  0  0  0  0  0  0  0  0
   39.1020   24.2840   31.8630 N   0  0  0  0  0  0  0  0  0  0  0  0
   37.9410   24.9810   31.9860 C   0  0  0  0  0  0  0  0  0  0  0  0
   37.0230   24.2090   32.5560 N   0  0  0  0  0  0  0  0  0  0  0  0
   39.6810   22.8070   36.5690 C   0  0  0  0  0  0  0  0  0  0  0  0
   39.1200   23.3110   37.7450 C   0  0  0  0  0  0  0  0  0  0  0  0
   37.7350   23.2230   37.8990 C   0  0  0  0  0  0  0  0  0  0  0  0
   36.9960   22.6500   36.8960 N   0  0  0  0  0  0  0  0  0  0  0  0
   37.5720   22.1740   35.7720 C   0  0  0  0  0  0  0  0  0  0  0  0
   38.9200   22.2400   35.5840 N   0  0  0  0  0  0  0  0  0  0  0  0
   36.8220   21.5730   34.7160 N   0  0  0  0  0  0  0  0  0  0  0  0
   36.0190   20.5470   34.9070 N   0  0  0  0  0  0  0  0  0  0  0  0
   35.4510   20.2000   33.7410 C   0  0  0  0  0  0  0  0  0  0  0  0
   35.9570   21.0930   32.7830 C   0  0  0  0  0  0  0  0  0  0  0  0
   36.8180   21.9450   33.4290 C   0  0  0  0  0  0  0  0  0  0  0  0
   37.7680   26.3650   31.5480 C   0  0  0  0  0  0  0  0  0  0  0  0
   37.1300   27.2880   32.3220 C   0  0  0  0  0  0  0  0  0  0  0  0
   36.9280   28.6030   31.9820 C   0  0  0  0  0  0  0  0  0  0  0  0
   37.4190   29.0150   30.7420 C   0  0  0  0  0  0  0  0  0  0  0  0
   38.0620   28.0720   29.9710 C   0  0  0  0  0  0  0  0  0  0  0  0
   38.2350   26.7750   30.3590 N   0  0  0  0  0  0  0  0  0  0  0  0
   38.5910   28.4740   28.6600 C   0  0  0  0  0  0  0  0  0  0  0  0
   39.5440   22.2496   32.4487 H   0  0  0  0  0  0  0  0  0  0  0  0
   40.7705   22.8682   36.4306 H   0  0  0  0  0  0  0  0  0  0  0  0
   39.7498   23.7631   38.5254 H   0  0  0  0  0  0  0  0  0  0  0  0
   37.2463   23.6058   38.8071 H   0  0  0  0  0  0  0  0  0  0  0  0
   34.7350   19.3825   33.5709 H   0  0  0  0  0  0  0  0  0  0  0  0
   35.7090   21.1073   31.7114 H   0  0  0  0  0  0  0  0  0  0  0  0
   36.7463   26.9527   33.2968 H   0  0  0  0  0  0  0  0  0  0  0  0
   36.4044   29.2984   32.6545 H   0  0  0  0  0  0  0  0  0  0  0  0
   37.2973   30.0515   30.3944 H   0  0  0  0  0  0  0  0  0  0  0  0
   39.4595   29.1340   28.8018 H   0  0  0  0  0  0  0  0  0  0  0  0
   38.8981   27.5793   28.0985 H   0  0  0  0  0  0  0  0  0  0  0  0
   37.8113   29.0095   28.0985 H   0  0  0  0  0  0  0  0  0  0  0  0
  1 16  1  0
  2  1  1  0
  3  4  1  0
  3  2  2  0
  4  5  2  0
  5  1  1  0
  6  7  2  0
  7  8  1  0
  9  8  2  0
 10  9  1  0
 11 10  2  0
 11  6  1  0
 12 13  1  0
 12 10  1  0
 14 13  2  0
 15 16  2  0
 15 14  1  0
 16 12  1  0
 17  4  1  0
 17 18  2  0
 19 18  1  0
 20 19  2  0
 21 22  2  0
 21 20  1  0
 22 17  1  0
 23 21  1  0
  2 24  1  0
  6 25  1  0
  7 26  1  0
  8 27  1  0
 14 28  1  0
 15 29  1  0
 18 30  1  0
 19 31  1  0
 20 32  1  0
 23 33  1  0
 23 34  1  0
 23 35  1  0
M  ISO  8  24  14  25  14  26  14  27  14  28  14  29  14  30  14  31  14
M  ISO  4  32  14  33   8  34   8  35   8
M  END
>  <minimizedAffinity>  (1) 
-5.23316431

>  <minimizedRMSD>  (1) 
0.37300536

$$$$
