
     RDKit          3D

 51 55  0  0  0  0  0  0  0  0999 V2000
   37.4890   23.0830   32.8610 N   0  0  0  0  0  0  0  0  0  0  0  0
   38.7690   23.2100   32.4340 C   0  0  0  0  0  0  0  0  0  0  0  0
   39.0040   24.4390   31.9400 N   0  0  0  0  0  0  0  0  0  0  0  0
   37.8280   25.0880   32.0680 C   0  0  0  0  0  0  0  0  0  0  0  0
   36.9300   24.2740   32.6190 N   0  0  0  0  0  0  0  0  0  0  0  0
   39.6380   22.8760   36.6010 C   0  0  0  0  0  0  0  0  0  0  0  0
   39.0720   23.3360   37.7900 C   0  0  0  0  0  0  0  0  0  0  0  0
   37.7000   23.1970   37.9440 C   0  0  0  0  0  0  0  0  0  0  0  0
   36.9640   22.6220   36.9340 N   0  0  0  0  0  0  0  0  0  0  0  0
   37.5440   22.1880   35.7950 C   0  0  0  0  0  0  0  0  0  0  0  0
   38.8930   22.3100   35.6140 N   0  0  0  0  0  0  0  0  0  0  0  0
   36.8120   21.5870   34.7250 N   0  0  0  0  0  0  0  0  0  0  0  0
   36.0480   20.5330   34.9000 N   0  0  0  0  0  0  0  0  0  0  0  0
   35.4920   20.1960   33.7250 C   0  0  0  0  0  0  0  0  0  0  0  0
   35.9680   21.1260   32.7840 C   0  0  0  0  0  0  0  0  0  0  0  0
   36.7960   21.9880   33.4460 C   0  0  0  0  0  0  0  0  0  0  0  0
   37.6000   26.4780   31.6580 C   0  0  0  0  0  0  0  0  0  0  0  0
   37.0040   27.3840   32.4840 C   0  0  0  0  0  0  0  0  0  0  0  0
   36.7620   28.6930   32.1640 C   0  0  0  0  0  0  0  0  0  0  0  0
   37.1520   29.1300   30.9060 C   0  0  0  0  0  0  0  0  0  0  0  0
   37.7590   28.2020   30.0720 C   0  0  0  0  0  0  0  0  0  0  0  0
   37.9770   26.9030   30.4420 N   0  0  0  0  0  0  0  0  0  0  0  0
   38.1900   28.6050   28.7360 C   0  0  0  0  0  0  0  0  0  0  0  0
   39.6540   28.2680   28.4710 C   0  0  0  0  0  0  0  0  0  0  0  0
   40.5770   29.2270   29.1680 C   0  0  0  0  0  0  0  0  0  0  0  0
   40.5730   30.5590   28.4490 C   0  0  0  0  0  0  0  0  0  0  0  0
   41.1510   30.2730   27.0700 C   0  0  0  0  0  0  0  0  0  0  0  0
   40.3410   29.2900   26.2830 C   0  0  0  0  0  0  0  0  0  0  0  0
   39.9350   28.0560   27.0260 C   0  0  0  0  0  0  0  0  0  0  0  0
   39.5211   22.4089   32.4850 H   0  0  0  0  0  0  0  0  0  0  0  0
   40.7241   22.9744   36.4567 H   0  0  0  0  0  0  0  0  0  0  0  0
   39.6907   23.7923   38.5768 H   0  0  0  0  0  0  0  0  0  0  0  0
   37.2061   23.5429   38.8640 H   0  0  0  0  0  0  0  0  0  0  0  0
   34.8024   19.3600   33.5365 H   0  0  0  0  0  0  0  0  0  0  0  0
   35.7197   21.1544   31.7128 H   0  0  0  0  0  0  0  0  0  0  0  0
   36.6947   27.0378   33.4812 H   0  0  0  0  0  0  0  0  0  0  0  0
   36.2759   29.3738   32.8784 H   0  0  0  0  0  0  0  0  0  0  0  0
   36.9868   30.1686   30.5835 H   0  0  0  0  0  0  0  0  0  0  0  0
   37.5677   28.0856   27.9924 H   0  0  0  0  0  0  0  0  0  0  0  0
   38.0786   29.6969   28.6627 H   0  0  0  0  0  0  0  0  0  0  0  0
   39.8675   27.2899   28.9268 H   0  0  0  0  0  0  0  0  0  0  0  0
   40.2386   29.3709   30.2047 H   0  0  0  0  0  0  0  0  0  0  0  0
   41.5973   28.8159   29.1641 H   0  0  0  0  0  0  0  0  0  0  0  0
   39.5475   30.9478   28.3639 H   0  0  0  0  0  0  0  0  0  0  0  0
   41.1575   31.3183   28.9892 H   0  0  0  0  0  0  0  0  0  0  0  0
   41.1975   31.2173   26.5077 H   0  0  0  0  0  0  0  0  0  0  0  0
   42.1473   29.8309   27.2185 H   0  0  0  0  0  0  0  0  0  0  0  0
   40.9353   28.9813   25.4104 H   0  0  0  0  0  0  0  0  0  0  0  0
   39.4069   29.8075   26.0191 H   0  0  0  0  0  0  0  0  0  0  0  0
   39.0254   27.6553   26.5547 H   0  0  0  0  0  0  0  0  0  0  0  0
   40.7889   27.3646   26.9725 H   0  0  0  0  0  0  0  0  0  0  0  0
  1 16  1  0
  2  1  1  0
  3  4  1  0
  3  2  2  0
  4  5  2  0
  5  1  1  0
  6  7  2  0
  7  8  1  0
  9  8  2  0
 10  9  1  0
 11 10  2  0
 11  6  1  0
 12 13  1  0
 12 10  1  0
 14 13  2  0
 15 16  2  0
 15 14  1  0
 16 12  1  0
 17  4  1  0
 17 18  2  0
 19 18  1  0
 20 19  2  0
 21 22  2  0
 21 20  1  0
 22 17  1  0
 23 21  1  0
 24 23  1  0
 24 25  1  0
 26 25  1  0
 27 26  1  0
 28 29  1  0
 28 27  1  0
 29 24  1  0
  2 30  1  0
  6 31  1  0
  7 32  1  0
  8 33  1  0
 14 34  1  0
 15 35  1  0
 18 36  1  0
 19 37  1  0
 20 38  1  0
 23 39  1  0
 23 40  1  0
 24 41  1  0
 25 42  1  0
 25 43  1  0
 26 44  1  0
 26 45  1  0
 27 46  1  0
 27 47  1  0
 28 48  1  0
 28 49  1  0
 29 50  1  0
 29 51  1  0
M  ISO  8  30  14  31  14  32  14  33  14  34  14  35  14  36  14  37  14
M  ISO  8  38  14  39   8  40   8  41  13  42  13  43  13  44  13  45  13
M  ISO  6  46  13  47  13  48  13  49  13  50  13  51  13
M  END
>  <minimizedAffinity>  (1) 
-5.48132658

>  <minimizedRMSD>  (1) 
0.62453413

$$$$
