
     RDKit          3D

 50 54  0  0  0  0  0  0  0  0999 V2000
   37.5170   23.0040   32.8260 N   0  0  0  0  0  0  0  0  0  0  0  0
   38.7780   23.0710   32.3380 C   0  0  0  0  0  0  0  0  0  0  0  0
   39.0520   24.2880   31.8390 N   0  0  0  0  0  0  0  0  0  0  0  0
   37.8990   24.9990   32.0320 C   0  0  0  0  0  0  0  0  0  0  0  0
   37.0080   24.2230   32.6160 N   0  0  0  0  0  0  0  0  0  0  0  0
   39.6690   22.8100   36.5650 C   0  0  0  0  0  0  0  0  0  0  0  0
   39.1070   23.3090   37.7440 C   0  0  0  0  0  0  0  0  0  0  0  0
   37.7190   23.2110   37.9060 C   0  0  0  0  0  0  0  0  0  0  0  0
   36.9910   22.6310   36.8970 N   0  0  0  0  0  0  0  0  0  0  0  0
   37.5690   22.1640   35.7780 C   0  0  0  0  0  0  0  0  0  0  0  0
   38.9090   22.2380   35.5800 N   0  0  0  0  0  0  0  0  0  0  0  0
   36.8190   21.5610   34.7260 N   0  0  0  0  0  0  0  0  0  0  0  0
   36.0220   20.5250   34.9000 N   0  0  0  0  0  0  0  0  0  0  0  0
   35.4570   20.1840   33.7430 C   0  0  0  0  0  0  0  0  0  0  0  0
   35.9480   21.0840   32.7810 C   0  0  0  0  0  0  0  0  0  0  0  0
   36.8060   21.9410   33.4370 C   0  0  0  0  0  0  0  0  0  0  0  0
   37.7460   26.3940   31.6330 C   0  0  0  0  0  0  0  0  0  0  0  0
   36.7490   27.1670   32.1520 C   0  0  0  0  0  0  0  0  0  0  0  0
   36.5220   28.4910   31.8390 C   0  0  0  0  0  0  0  0  0  0  0  0
   37.3990   29.0620   30.9120 C   0  0  0  0  0  0  0  0  0  0  0  0
   38.4010   28.2660   30.3970 C   0  0  0  0  0  0  0  0  0  0  0  0
   38.5640   26.9670   30.7530 N   0  0  0  0  0  0  0  0  0  0  0  0
   39.3230   28.8520   29.4280 C   0  0  0  0  0  0  0  0  0  0  0  0
   38.8690   28.7530   28.0660 N   0  0  0  0  0  0  0  0  0  0  0  0
   39.6460   27.7890   27.3330 C   0  0  0  0  0  0  0  0  0  0  0  0
   41.0710   28.1720   27.0980 C   0  0  0  0  0  0  0  0  0  0  0  0
   41.2320   29.6190   26.7700 C   0  0  0  0  0  0  0  0  0  0  0  0
   39.8810   30.1590   26.3120 C   0  0  0  0  0  0  0  0  0  0  0  0
   38.9010   30.0800   27.4810 C   0  0  0  0  0  0  0  0  0  0  0  0
   39.4902   22.2327   32.3487 H   0  0  0  0  0  0  0  0  0  0  0  0
   40.7577   22.8792   36.4240 H   0  0  0  0  0  0  0  0  0  0  0  0
   39.7366   23.7654   38.5220 H   0  0  0  0  0  0  0  0  0  0  0  0
   37.2270   23.5877   38.8149 H   0  0  0  0  0  0  0  0  0  0  0  0
   34.7469   19.3612   33.5737 H   0  0  0  0  0  0  0  0  0  0  0  0
   35.6960   21.1012   31.7104 H   0  0  0  0  0  0  0  0  0  0  0  0
   36.0711   26.6962   32.8791 H   0  0  0  0  0  0  0  0  0  0  0  0
   35.6994   29.0638   32.2920 H   0  0  0  0  0  0  0  0  0  0  0  0
   37.2934   30.1125   30.6032 H   0  0  0  0  0  0  0  0  0  0  0  0
   39.4553   29.9160   29.6737 H   0  0  0  0  0  0  0  0  0  0  0  0
   40.2638   28.2861   29.4957 H   0  0  0  0  0  0  0  0  0  0  0  0
   39.6353   26.8437   27.8954 H   0  0  0  0  0  0  0  0  0  0  0  0
   39.1810   27.7119   26.3391 H   0  0  0  0  0  0  0  0  0  0  0  0
   41.6494   27.9508   28.0072 H   0  0  0  0  0  0  0  0  0  0  0  0
   41.4325   27.5935   26.2350 H   0  0  0  0  0  0  0  0  0  0  0  0
   41.5688   30.1674   27.6621 H   0  0  0  0  0  0  0  0  0  0  0  0
   41.9808   29.7464   25.9743 H   0  0  0  0  0  0  0  0  0  0  0  0
   39.9902   31.2053   25.9904 H   0  0  0  0  0  0  0  0  0  0  0  0
   39.5057   29.5630   25.4670 H   0  0  0  0  0  0  0  0  0  0  0  0
   39.2072   30.8022   28.2522 H   0  0  0  0  0  0  0  0  0  0  0  0
   37.8950   30.3114   27.1011 H   0  0  0  0  0  0  0  0  0  0  0  0
  1 16  1  0
  2  1  1  0
  3  4  1  0
  3  2  2  0
  4  5  2  0
  5  1  1  0
  6  7  2  0
  7  8  1  0
  9  8  2  0
 10  9  1  0
 11 10  2  0
 11  6  1  0
 12 13  1  0
 12 10  1  0
 14 13  2  0
 15 16  2  0
 15 14  1  0
 16 12  1  0
 17  4  1  0
 17 18  2  0
 19 18  1  0
 20 19  2  0
 21 22  2  0
 21 20  1  0
 22 17  1  0
 23 21  1  0
 24 23  1  0
 25 24  1  0
 26 25  1  0
 27 26  1  0
 28 27  1  0
 28 29  1  0
 29 24  1  0
  2 30  1  0
  6 31  1  0
  7 32  1  0
  8 33  1  0
 14 34  1  0
 15 35  1  0
 18 36  1  0
 19 37  1  0
 20 38  1  0
 23 39  1  0
 23 40  1  0
 25 41  1  0
 25 42  1  0
 26 43  1  0
 26 44  1  0
 27 45  1  0
 27 46  1  0
 28 47  1  0
 28 48  1  0
 29 49  1  0
 29 50  1  0
M  ISO  8  30  14  31  14  32  14  33  14  34  14  35  14  36  14  37  14
M  ISO  8  38  14  39   8  40   8  41  13  42  13  43  13  44  13  45  13
M  ISO  5  46  13  47  13  48  13  49  13  50  13
M  END
>  <minimizedAffinity>  (1) 
-5.31271648

>  <minimizedRMSD>  (1) 
1.10127175

$$$$
