
     RDKit          3D

 42 46  0  0  0  0  0  0  0  0999 V2000
   37.3440   23.1310   32.6230 N   0  0  0  0  0  0  0  0  0  0  0  0
   38.5630   23.2990   32.0910 C   0  0  0  0  0  0  0  0  0  0  0  0
   38.7490   24.5570   31.6590 N   0  0  0  0  0  0  0  0  0  0  0  0
   37.5860   25.1890   31.9400 C   0  0  0  0  0  0  0  0  0  0  0  0
   36.7480   24.3320   32.5170 N   0  0  0  0  0  0  0  0  0  0  0  0
   39.6090   22.8940   36.2820 C   0  0  0  0  0  0  0  0  0  0  0  0
   39.0580   23.2960   37.5000 C   0  0  0  0  0  0  0  0  0  0  0  0
   37.6800   23.1030   37.6990 C   0  0  0  0  0  0  0  0  0  0  0  0
   36.9420   22.5320   36.6970 N   0  0  0  0  0  0  0  0  0  0  0  0
   37.5220   22.1550   35.5260 C   0  0  0  0  0  0  0  0  0  0  0  0
   38.8460   22.3290   35.3050 N   0  0  0  0  0  0  0  0  0  0  0  0
   36.7750   21.5610   34.4720 N   0  0  0  0  0  0  0  0  0  0  0  0
   36.0430   20.4760   34.6300 N   0  0  0  0  0  0  0  0  0  0  0  0
   35.4630   20.1600   33.4660 C   0  0  0  0  0  0  0  0  0  0  0  0
   35.8750   21.1250   32.5370 C   0  0  0  0  0  0  0  0  0  0  0  0
   36.7030   21.9960   33.2010 C   0  0  0  0  0  0  0  0  0  0  0  0
   37.3250   26.5920   31.6450 C   0  0  0  0  0  0  0  0  0  0  0  0
   36.8160   27.4470   32.5810 C   0  0  0  0  0  0  0  0  0  0  0  0
   36.5480   28.7770   32.3690 C   0  0  0  0  0  0  0  0  0  0  0  0
   36.8150   29.2900   31.1020 C   0  0  0  0  0  0  0  0  0  0  0  0
   37.3240   28.4230   30.1740 C   0  0  0  0  0  0  0  0  0  0  0  0
   37.5750   27.1050   30.4330 N   0  0  0  0  0  0  0  0  0  0  0  0
   37.6210   28.9270   28.8220 C   0  0  0  0  0  0  0  0  0  0  0  0
   39.0120   28.5550   28.4140 C   0  0  0  0  0  0  0  0  0  0  0  0
   40.2100   29.0230   28.9150 C   0  0  0  0  0  0  0  0  0  0  0  0
   41.2320   28.3790   28.2130 C   0  0  0  0  0  0  0  0  0  0  0  0
   40.5490   27.5500   27.3200 C   0  0  0  0  0  0  0  0  0  0  0  0
   39.2410   27.6670   27.4530 O   0  0  0  0  0  0  0  0  0  0  0  0
   39.3189   22.5033   32.0173 H   0  0  0  0  0  0  0  0  0  0  0  0
   40.6855   23.0369   36.1068 H   0  0  0  0  0  0  0  0  0  0  0  0
   39.6843   23.7508   38.2816 H   0  0  0  0  0  0  0  0  0  0  0  0
   37.2030   23.4053   38.6430 H   0  0  0  0  0  0  0  0  0  0  0  0
   34.7932   19.3085   33.2755 H   0  0  0  0  0  0  0  0  0  0  0  0
   35.5890   21.1752   31.4760 H   0  0  0  0  0  0  0  0  0  0  0  0
   36.6048   27.0391   33.5805 H   0  0  0  0  0  0  0  0  0  0  0  0
   36.1386   29.4122   33.1683 H   0  0  0  0  0  0  0  0  0  0  0  0
   36.6250   30.3457   30.8582 H   0  0  0  0  0  0  0  0  0  0  0  0
   36.9063   28.4907   28.1086 H   0  0  0  0  0  0  0  0  0  0  0  0
   37.5342   30.0236   28.8257 H   0  0  0  0  0  0  0  0  0  0  0  0
   40.3365   29.7647   29.7174 H   0  0  0  0  0  0  0  0  0  0  0  0
   42.3188   28.4970   28.3349 H   0  0  0  0  0  0  0  0  0  0  0  0
   41.0400   26.8829   26.5962 H   0  0  0  0  0  0  0  0  0  0  0  0
  1 16  1  0
  2  1  1  0
  3  4  1  0
  3  2  2  0
  4  5  2  0
  5  1  1  0
  6  7  2  0
  7  8  1  0
  9  8  2  0
 10  9  1  0
 11 10  2  0
 11  6  1  0
 12 13  1  0
 12 10  1  0
 14 13  2  0
 15 16  2  0
 15 14  1  0
 16 12  1  0
 17  4  1  0
 17 18  2  0
 19 18  1  0
 20 19  2  0
 21 22  2  0
 21 20  1  0
 22 17  1  0
 23 21  1  0
 24 23  1  0
 24 25  2  0
 26 25  1  0
 27 28  1  0
 27 26  2  0
 28 24  1  0
  2 29  1  0
  6 30  1  0
  7 31  1  0
  8 32  1  0
 14 33  1  0
 15 34  1  0
 18 35  1  0
 19 36  1  0
 20 37  1  0
 23 38  1  0
 23 39  1  0
 25 40  1  0
 26 41  1  0
 27 42  1  0
M  ISO  8  29  14  30  14  31  14  32  14  33  14  34  14  35  14  36  14
M  ISO  6  37  14  38   8  39   8  40  14  41  14  42  14
M  END
>  <minimizedAffinity>  (1) 
-5.33548498

>  <minimizedRMSD>  (1) 
0.885746837

$$$$
