
     RDKit          3D

 30 32  0  0  1  0  0  0  0  0999 V2000
   38.8520   22.6750   35.5050 N   0  0  0  0  0  0  0  0  0  0  0  0
   39.6310   22.5350   36.7290 C   0  0  0  0  0  0  0  0  0  0  0  0
   41.0540   22.3410   36.2420 C   0  0  0  0  0  0  0  0  0  0  0  0
   41.5180   23.5580   35.7550 O   0  0  0  0  0  0  0  0  0  0  0  0
   40.5260   24.4020   35.3190 C   0  0  0  0  0  0  0  0  0  0  0  0
   39.4160   23.6560   34.5940 C   0  0  2  0  0  0  0  0  0  0  0  0
   37.6880   21.9680   35.2010 C   0  0  0  0  0  0  0  0  0  0  0  0
   36.7220   21.6150   36.1550 C   0  0  0  0  0  0  0  0  0  0  0  0
   35.6130   20.9140   35.7130 C   0  0  0  0  0  0  0  0  0  0  0  0
   35.5100   20.5990   34.3760 N   0  0  0  0  0  0  0  0  0  0  0  0
   36.4640   20.9590   33.4880 C   0  0  0  0  0  0  0  0  0  0  0  0
   37.5600   21.6450   33.8830 N   0  0  0  0  0  0  0  0  0  0  0  0
   38.4380   24.6030   34.0460 C   0  0  0  0  0  0  0  0  0  0  0  0
   37.8860   25.7280   34.6380 C   0  0  0  0  0  0  0  0  0  0  0  0
   37.0270   26.2980   33.7550 N   0  0  0  0  0  0  0  0  0  0  0  0
   37.0060   25.5820   32.6170 C   0  0  0  0  0  0  0  0  0  0  0  0
   37.8720   24.5600   32.8220 N   0  0  0  0  0  0  0  0  0  0  0  0
   39.5504   23.4402   37.3488 H   0  0  0  0  0  0  0  0  0  0  0  0
   39.2829   21.7023   37.3579 H   0  0  0  0  0  0  0  0  0  0  0  0
   41.6900   22.0067   37.0749 H   0  0  0  0  0  0  0  0  0  0  0  0
   41.0829   21.5793   35.4489 H   0  0  0  0  0  0  0  0  0  0  0  0
   40.0953   24.9214   36.1877 H   0  0  0  0  0  0  0  0  0  0  0  0
   40.9746   25.1134   34.6099 H   0  0  0  0  0  0  0  0  0  0  0  0
   39.8036   23.1070   33.7232 H   0  0  0  0  0  0  0  0  0  0  0  0
   36.8412   21.8851   37.2146 H   0  0  0  0  0  0  0  0  0  0  0  0
   34.8254   20.6129   36.4194 H   0  0  0  0  0  0  0  0  0  0  0  0
   36.3466   20.6896   32.4280 H   0  0  0  0  0  0  0  0  0  0  0  0
   38.1064   26.0962   35.6508 H   0  0  0  0  0  0  0  0  0  0  0  0
   36.4126   25.7829   31.7128 H   0  0  0  0  0  0  0  0  0  0  0  0
   38.0753   23.8322   32.1221 H   0  0  0  0  0  0  0  0  0  0  0  0
  1  2  1  0
  3  2  1  0
  4  3  1  0
  5  4  1  0
  6  5  1  0
  6  1  1  0
  7  1  1  0
  7  8  2  0
  9  8  1  0
 10  9  2  0
 11 12  2  0
 11 10  1  0
 12  7  1  0
 13  6  1  0
 13 14  2  0
 15 14  1  0
 16 17  1  0
 16 15  2  0
 17 13  1  0
  2 18  1  0
  2 19  1  0
  3 20  1  0
  3 21  1  0
  5 22  1  0
  5 23  1  0
  6 24  1  6
  8 25  1  0
  9 26  1  0
 11 27  1  0
 14 28  1  0
 16 29  1  0
 17 30  1  0
M  ISO  8  18  13  19  13  20  13  21  13  22  13  23  13  24  13  25  14
M  ISO  5  26  14  27  14  28  14  29  14  30   9
M  END
>  <minimizedAffinity>  (1) 
-3.9214046

>  <minimizedRMSD>  (1) 
2.03771615

$$$$
