
     RDKit          3D

 31 33  0  0  1  0  0  0  0  0999 V2000
   39.0760   22.5370   35.4400 N   0  0  0  0  0  0  0  0  0  0  0  0
   39.9370   22.2070   36.5650 C   0  0  0  0  0  0  0  0  0  0  0  0
   41.3140   22.0200   35.9270 C   0  0  0  0  0  0  0  0  0  0  0  0
   41.7920   23.2740   35.5780 O   0  0  0  0  0  0  0  0  0  0  0  0
   40.7970   24.2190   35.3430 C   0  0  0  0  0  0  0  0  0  0  0  0
   39.5970   23.6290   34.6390 C   0  0  2  0  0  0  0  0  0  0  0  0
   37.8680   21.9210   35.1010 C   0  0  0  0  0  0  0  0  0  0  0  0
   36.8610   21.6450   36.0650 C   0  0  0  0  0  0  0  0  0  0  0  0
   35.7020   21.0320   35.6250 C   0  0  0  0  0  0  0  0  0  0  0  0
   35.5760   20.7190   34.2940 N   0  0  0  0  0  0  0  0  0  0  0  0
   36.5710   21.0030   33.4030 C   0  0  0  0  0  0  0  0  0  0  0  0
   37.7070   21.5990   33.8080 N   0  0  0  0  0  0  0  0  0  0  0  0
   38.6370   24.7080   34.3930 C   0  0  0  0  0  0  0  0  0  0  0  0
   38.2230   25.5080   35.4540 C   0  0  0  0  0  0  0  0  0  0  0  0
   37.3190   26.5290   35.2320 C   0  0  0  0  0  0  0  0  0  0  0  0
   36.8350   26.7530   33.9910 N   0  0  0  0  0  0  0  0  0  0  0  0
   37.2850   25.9320   33.0060 C   0  0  0  0  0  0  0  0  0  0  0  0
   38.1680   24.9160   33.1490 N   0  0  0  0  0  0  0  0  0  0  0  0
   39.9532   23.0256   37.2995 H   0  0  0  0  0  0  0  0  0  0  0  0
   39.5976   21.3161   37.1138 H   0  0  0  0  0  0  0  0  0  0  0  0
   41.9982   21.5451   36.6456 H   0  0  0  0  0  0  0  0  0  0  0  0
   41.2422   21.3748   35.0390 H   0  0  0  0  0  0  0  0  0  0  0  0
   40.4711   24.6361   36.3073 H   0  0  0  0  0  0  0  0  0  0  0  0
   41.2203   24.9965   34.6900 H   0  0  0  0  0  0  0  0  0  0  0  0
   39.8508   23.1976   33.6595 H   0  0  0  0  0  0  0  0  0  0  0  0
   36.9985   21.9096   37.1238 H   0  0  0  0  0  0  0  0  0  0  0  0
   34.8921   20.7983   36.3317 H   0  0  0  0  0  0  0  0  0  0  0  0
   36.4422   20.7415   32.3423 H   0  0  0  0  0  0  0  0  0  0  0  0
   38.6143   25.3280   36.4662 H   0  0  0  0  0  0  0  0  0  0  0  0
   36.9919   27.1624   36.0698 H   0  0  0  0  0  0  0  0  0  0  0  0
   36.8935   26.1105   31.9936 H   0  0  0  0  0  0  0  0  0  0  0  0
  1  2  1  0
  3  2  1  0
  4  3  1  0
  5  4  1  0
  6  5  1  0
  6  1  1  0
  7  1  1  0
  7  8  2  0
  9  8  1  0
 10  9  2  0
 11 12  2  0
 11 10  1  0
 12  7  1  0
 13  6  1  0
 13 14  2  0
 15 14  1  0
 16 15  2  0
 17 18  2  0
 17 16  1  0
 18 13  1  0
  2 19  1  0
  2 20  1  0
  3 21  1  0
  3 22  1  0
  5 23  1  0
  5 24  1  0
  6 25  1  6
  8 26  1  0
  9 27  1  0
 11 28  1  0
 14 29  1  0
 15 30  1  0
 17 31  1  0
M  ISO  8  19  13  20  13  21  13  22  13  23  13  24  13  25  13  26  14
M  ISO  5  27  14  28  14  29  14  30  14  31  14
M  END
>  <minimizedAffinity>  (1) 
-4.0907712

>  <minimizedRMSD>  (1) 
2.45524931

$$$$
