
     RDKit          3D

 40 42  0  0  0  0  0  0  0  0999 V2000
   37.1240   21.6060   33.8060 C   0  0  0  0  0  0  0  0  0  0  0  0
   38.1080   21.1090   32.9460 C   0  0  0  0  0  0  0  0  0  0  0  0
   39.4320   21.3330   33.2880 C   0  0  0  0  0  0  0  0  0  0  0  0
   39.7070   22.0200   34.4380 N   0  0  0  0  0  0  0  0  0  0  0  0
   38.7300   22.4820   35.2400 C   0  0  0  0  0  0  0  0  0  0  0  0
   37.4270   22.2800   34.9340 N   0  0  0  0  0  0  0  0  0  0  0  0
   37.6570   20.4260   31.8030 N   0  0  0  0  0  0  0  0  0  0  0  0
   37.0700   19.2270   32.0170 C   0  0  0  0  0  0  0  0  0  0  0  0
   36.6180   18.5310   30.9180 C   0  0  0  0  0  0  0  0  0  0  0  0
   36.7910   19.1000   29.6710 C   0  0  0  0  0  0  0  0  0  0  0  0
   36.3420   18.4160   28.5360 N   0  0  0  0  0  0  0  0  0  0  0  0
   37.3820   20.2950   29.5220 N   0  0  0  0  0  0  0  0  0  0  0  0
   37.8290   20.9830   30.5980 C   0  0  0  0  0  0  0  0  0  0  0  0
   38.3750   22.0970   30.4140 O   0  0  0  0  0  0  0  0  0  0  0  0
   39.1350   23.2210   36.4700 C   0  0  0  0  0  0  0  0  0  0  0  0
   39.2710   24.6810   36.0590 C   0  0  0  0  0  0  0  0  0  0  0  0
   40.0490   24.7530   34.7860 C   0  0  0  0  0  0  0  0  0  0  0  0
   39.3520   25.7700   33.8900 C   0  0  0  0  0  0  0  0  0  0  0  0
   39.1480   27.0280   34.6740 C   0  0  0  0  0  0  0  0  0  0  0  0
   38.2450   26.8610   35.8650 C   0  0  0  0  0  0  0  0  0  0  0  0
   37.9230   25.3660   35.9840 C   0  0  0  0  0  0  0  0  0  0  0  0
   36.0660   21.4415   33.5537 H   0  0  0  0  0  0  0  0  0  0  0  0
   40.2464   20.9652   32.6466 H   0  0  0  0  0  0  0  0  0  0  0  0
   36.9574   18.8216   33.0334 H   0  0  0  0  0  0  0  0  0  0  0  0
   36.1331   17.5500   31.0298 H   0  0  0  0  0  0  0  0  0  0  0  0
   36.4661   18.8314   27.6017 H   0  0  0  0  0  0  0  0  0  0  0  0
   35.8874   17.4971   28.6348 H   0  0  0  0  0  0  0  0  0  0  0  0
   38.3670   23.1138   37.2502 H   0  0  0  0  0  0  0  0  0  0  0  0
   40.0768   22.8299   36.8824 H   0  0  0  0  0  0  0  0  0  0  0  0
   39.8285   25.2375   36.8268 H   0  0  0  0  0  0  0  0  0  0  0  0
   41.0801   25.0761   34.9920 H   0  0  0  0  0  0  0  0  0  0  0  0
   40.0931   23.7679   34.2985 H   0  0  0  0  0  0  0  0  0  0  0  0
   38.3791   25.3732   33.5644 H   0  0  0  0  0  0  0  0  0  0  0  0
   39.9663   25.9741   33.0006 H   0  0  0  0  0  0  0  0  0  0  0  0
   40.1285   27.3786   35.0286 H   0  0  0  0  0  0  0  0  0  0  0  0
   38.6611   27.7494   34.0013 H   0  0  0  0  0  0  0  0  0  0  0  0
   38.7536   27.2106   36.7755 H   0  0  0  0  0  0  0  0  0  0  0  0
   37.3242   27.4502   35.7426 H   0  0  0  0  0  0  0  0  0  0  0  0
   37.3371   25.1677   36.8936 H   0  0  0  0  0  0  0  0  0  0  0  0
   37.3214   25.0037   35.1374 H   0  0  0  0  0  0  0  0  0  0  0  0
  1  6  2  0
  2  3  2  0
  2  1  1  0
  3  4  1  0
  4  5  2  0
  5 15  1  0
  6  5  1  0
  7  8  1  0
  7  2  1  0
  9  8  2  0
 10  9  1  0
 11 10  1  0
 12 10  2  0
 12 13  1  0
 13  7  1  0
 14 13  2  0
 16 15  1  0
 17 16  1  0
 18 19  1  0
 18 17  1  0
 19 20  1  0
 20 21  1  0
 21 16  1  0
  1 22  1  0
  3 23  1  0
  8 24  1  0
  9 25  1  0
 11 26  1  0
 11 27  1  0
 15 28  1  0
 15 29  1  0
 16 30  1  0
 17 31  1  0
 17 32  1  0
 18 33  1  0
 18 34  1  0
 19 35  1  0
 19 36  1  0
 20 37  1  0
 20 38  1  0
 21 39  1  0
 21 40  1  0
M  ISO  8  22  14  23  14  24  14  25  14  28   8  29   8  30  13  31  13
M  ISO  8  32  13  33  13  34  13  35  13  36  13  37  13  38  13  39  13
M  ISO  1  40  13
M  END
>  <minimizedAffinity>  (1) 
-4.39460087

>  <minimizedRMSD>  (1) 
3.07110047

$$$$
