
     RDKit          3D

 28 30  0  0  1  0  0  0  0  0999 V2000
   38.6530   25.9180   34.7520 N   0  0  0  0  0  0  0  0  0  0  0  0
   39.5990   27.0250   34.6560 C   0  0  0  0  0  0  0  0  0  0  0  0
   40.0360   27.0300   33.2130 C   0  0  0  0  0  0  0  0  0  0  0  0
   38.9880   27.4510   32.4260 O   0  0  0  0  0  0  0  0  0  0  0  0
   37.7320   27.2690   32.9830 C   0  0  0  0  0  0  0  0  0  0  0  0
   37.6040   25.9780   33.7470 C   0  0  1  0  0  0  0  0  0  0  0  0
   38.7040   24.8840   35.6900 C   0  0  0  0  0  0  0  0  0  0  0  0
   39.7700   23.9850   35.8190 C   0  0  0  0  0  0  0  0  0  0  0  0
   39.7120   23.0000   36.7860 C   0  0  0  0  0  0  0  0  0  0  0  0
   38.5980   22.9510   37.5840 N   0  0  0  0  0  0  0  0  0  0  0  0
   37.5820   23.8280   37.4400 C   0  0  0  0  0  0  0  0  0  0  0  0
   37.6360   24.7900   36.4980 N   0  0  0  0  0  0  0  0  0  0  0  0
   37.5580   24.8000   32.8700 C   0  0  0  0  0  0  0  0  0  0  0  0
   38.6020   24.0180   32.5400 N   0  0  0  0  0  0  0  0  0  0  0  0
   38.2080   23.0610   31.7430 O   0  0  0  0  0  0  0  0  0  0  0  0
   36.9030   23.2130   31.5490 C   0  0  0  0  0  0  0  0  0  0  0  0
   36.4730   24.2910   32.2400 N   0  0  0  0  0  0  0  0  0  0  0  0
   39.1114   27.9758   34.9171 H   0  0  0  0  0  0  0  0  0  0  0  0
   40.4467   26.9096   35.3475 H   0  0  0  0  0  0  0  0  0  0  0  0
   40.8881   27.7145   33.0886 H   0  0  0  0  0  0  0  0  0  0  0  0
   40.3393   26.0157   32.9143 H   0  0  0  0  0  0  0  0  0  0  0  0
   37.5300   28.1037   33.6704 H   0  0  0  0  0  0  0  0  0  0  0  0
   37.0091   27.2320   32.1547 H   0  0  0  0  0  0  0  0  0  0  0  0
   36.6334   25.9599   34.2643 H   0  0  0  0  0  0  0  0  0  0  0  0
   40.6450   24.0624   35.1568 H   0  0  0  0  0  0  0  0  0  0  0  0
   40.5328   22.2785   36.9117 H   0  0  0  0  0  0  0  0  0  0  0  0
   36.7027   23.7568   38.0971 H   0  0  0  0  0  0  0  0  0  0  0  0
   36.2720   22.5636   30.9243 H   0  0  0  0  0  0  0  0  0  0  0  0
  1  7  1  0
  2  1  1  0
  3  2  1  0
  4  5  1  0
  4  3  1  0
  5  6  1  0
  6  1  1  0
  7  8  2  0
  7 12  1  0
  8  9  1  0
  9 10  2  0
 11 10  1  0
 12 11  2  0
 13  6  1  0
 14 13  2  0
 15 14  1  0
 16 15  1  0
 16 17  2  0
 17 13  1  0
  2 18  1  0
  2 19  1  0
  3 20  1  0
  3 21  1  0
  5 22  1  0
  5 23  1  0
  6 24  1  1
  8 25  1  0
  9 26  1  0
 11 27  1  0
 16 28  1  0
M  ISO  8  18  13  19  13  20  13  21  13  22  13  23  13  24  13  25  14
M  ISO  3  26  14  27  14  28  14
M  END
>  <minimizedAffinity>  (1) 
-3.88505054

>  <minimizedRMSD>  (1) 
5.13177872

$$$$
