
     RDKit          3D

 30 32  0  0  1  0  0  0  0  0999 V2000
   39.0660   22.5550   35.4550 N   0  0  0  0  0  0  0  0  0  0  0  0
   39.9910   22.1530   36.5130 C   0  0  0  0  0  0  0  0  0  0  0  0
   41.3330   22.0720   35.8150 C   0  0  0  0  0  0  0  0  0  0  0  0
   41.7670   23.3590   35.5850 O   0  0  0  0  0  0  0  0  0  0  0  0
   40.7520   24.2830   35.4420 C   0  0  0  0  0  0  0  0  0  0  0  0
   39.5510   23.6990   34.7120 C   0  0  2  0  0  0  0  0  0  0  0  0
   37.8480   21.9350   35.1650 C   0  0  0  0  0  0  0  0  0  0  0  0
   36.8700   21.6620   36.1470 C   0  0  0  0  0  0  0  0  0  0  0  0
   35.7040   21.0480   35.7200 C   0  0  0  0  0  0  0  0  0  0  0  0
   35.5610   20.7430   34.3950 N   0  0  0  0  0  0  0  0  0  0  0  0
   36.5310   21.0240   33.4820 C   0  0  0  0  0  0  0  0  0  0  0  0
   37.6910   21.6240   33.8480 N   0  0  0  0  0  0  0  0  0  0  0  0
   38.5640   24.7340   34.5290 N   0  0  0  0  0  0  0  0  0  0  0  0
   38.0900   25.5580   35.5060 C   0  0  0  0  0  0  0  0  0  0  0  0
   37.1590   26.4320   34.9990 C   0  0  0  0  0  0  0  0  0  0  0  0
   37.0550   26.1490   33.7010 N   0  0  0  0  0  0  0  0  0  0  0  0
   37.8990   25.1350   33.4360 C   0  0  0  0  0  0  0  0  0  0  0  0
   40.0136   22.9022   37.3181 H   0  0  0  0  0  0  0  0  0  0  0  0
   39.7033   21.2039   36.9889 H   0  0  0  0  0  0  0  0  0  0  0  0
   42.0553   21.5421   36.4534 H   0  0  0  0  0  0  0  0  0  0  0  0
   41.2399   21.5229   34.8664 H   0  0  0  0  0  0  0  0  0  0  0  0
   40.4330   24.6181   36.4400 H   0  0  0  0  0  0  0  0  0  0  0  0
   41.1376   25.1232   34.8458 H   0  0  0  0  0  0  0  0  0  0  0  0
   39.8182   23.3379   33.7079 H   0  0  0  0  0  0  0  0  0  0  0  0
   37.0273   21.9252   37.2034 H   0  0  0  0  0  0  0  0  0  0  0  0
   34.9045   20.8092   36.4368 H   0  0  0  0  0  0  0  0  0  0  0  0
   36.3708   20.7592   32.4265 H   0  0  0  0  0  0  0  0  0  0  0  0
   38.4097   25.5273   36.5581 H   0  0  0  0  0  0  0  0  0  0  0  0
   36.6104   27.2083   35.5526 H   0  0  0  0  0  0  0  0  0  0  0  0
   38.0282   24.6875   32.4395 H   0  0  0  0  0  0  0  0  0  0  0  0
  1  2  1  0
  3  2  1  0
  4  3  1  0
  5  4  1  0
  6  5  1  0
  6  1  1  0
  7  1  1  0
  7  8  2  0
  9  8  1  0
 10  9  2  0
 11 12  2  0
 11 10  1  0
 12  7  1  0
 13  6  1  0
 13 14  1  0
 15 14  2  0
 16 15  1  0
 17 16  2  0
 17 13  1  0
  2 18  1  0
  2 19  1  0
  3 20  1  0
  3 21  1  0
  5 22  1  0
  5 23  1  0
  6 24  1  6
  8 25  1  0
  9 26  1  0
 11 27  1  0
 14 28  1  0
 15 29  1  0
 17 30  1  0
M  ISO  8  18  13  19  13  20  13  21  13  22  13  23  13  24  13  25  14
M  ISO  5  26  14  27  14  28  14  29  14  30  14
M  END
>  <minimizedAffinity>  (1) 
-3.83574247

>  <minimizedRMSD>  (1) 
2.30137944

$$$$
