
     RDKit          3D

 30 32  0  0  1  0  0  0  0  0999 V2000
   39.0730   22.5560   35.4310 N   0  0  0  0  0  0  0  0  0  0  0  0
   39.9550   22.1580   36.5230 C   0  0  0  0  0  0  0  0  0  0  0  0
   41.3310   22.0820   35.8490 C   0  0  0  0  0  0  0  0  0  0  0  0
   41.7490   23.3850   35.6220 O   0  0  0  0  0  0  0  0  0  0  0  0
   40.7270   24.2850   35.4490 C   0  0  0  0  0  0  0  0  0  0  0  0
   39.5640   23.6810   34.6720 C   0  0  2  0  0  0  0  0  0  0  0  0
   37.8680   21.9370   35.1160 C   0  0  0  0  0  0  0  0  0  0  0  0
   36.8570   21.6540   36.0610 C   0  0  0  0  0  0  0  0  0  0  0  0
   35.6960   21.0380   35.6290 C   0  0  0  0  0  0  0  0  0  0  0  0
   35.5800   20.7290   34.3040 N   0  0  0  0  0  0  0  0  0  0  0  0
   36.5680   21.0120   33.4150 C   0  0  0  0  0  0  0  0  0  0  0  0
   37.6940   21.6080   33.8250 N   0  0  0  0  0  0  0  0  0  0  0  0
   38.5540   24.6960   34.3410 C   0  0  0  0  0  0  0  0  0  0  0  0
   37.9810   25.0870   33.1610 C   0  0  0  0  0  0  0  0  0  0  0  0
   37.0590   26.0990   33.3150 C   0  0  0  0  0  0  0  0  0  0  0  0
   37.0990   26.3030   34.6450 N   0  0  0  0  0  0  0  0  0  0  0  0
   37.9440   25.5140   35.2500 N   0  0  0  0  0  0  0  0  0  0  0  0
   39.9504   22.9080   37.3277 H   0  0  0  0  0  0  0  0  0  0  0  0
   39.6541   21.2132   36.9993 H   0  0  0  0  0  0  0  0  0  0  0  0
   42.0453   21.5664   36.5077 H   0  0  0  0  0  0  0  0  0  0  0  0
   41.2729   21.5204   34.9049 H   0  0  0  0  0  0  0  0  0  0  0  0
   40.3657   24.6071   36.4368 H   0  0  0  0  0  0  0  0  0  0  0  0
   41.1167   25.1368   34.8723 H   0  0  0  0  0  0  0  0  0  0  0  0
   39.8845   23.3077   33.6881 H   0  0  0  0  0  0  0  0  0  0  0  0
   36.9903   21.9184   37.1204 H   0  0  0  0  0  0  0  0  0  0  0  0
   34.8863   20.8029   36.3355 H   0  0  0  0  0  0  0  0  0  0  0  0
   36.4418   20.7502   32.3541 H   0  0  0  0  0  0  0  0  0  0  0  0
   38.2314   24.6386   32.1882 H   0  0  0  0  0  0  0  0  0  0  0  0
   36.4504   26.6066   32.5521 H   0  0  0  0  0  0  0  0  0  0  0  0
   36.5248   27.0057   35.1322 H   0  0  0  0  0  0  0  0  0  0  0  0
  1  2  1  0
  3  2  1  0
  4  3  1  0
  5  4  1  0
  6  1  1  0
  6  5  1  0
  7  1  1  0
  7  8  2  0
  9  8  1  0
 10  9  2  0
 11 12  2  0
 11 10  1  0
 12  7  1  0
 13  6  1  0
 13 17  2  0
 14 15  2  0
 14 13  1  0
 15 16  1  0
 16 17  1  0
  2 18  1  0
  2 19  1  0
  3 20  1  0
  3 21  1  0
  5 22  1  0
  5 23  1  0
  6 24  1  6
  8 25  1  0
  9 26  1  0
 11 27  1  0
 14 28  1  0
 15 29  1  0
 16 30  1  0
M  ISO  8  18  13  19  13  20  13  21  13  22  13  23  13  24  13  25  14
M  ISO  5  26  14  27  14  28  14  29  14  30   9
M  END
>  <minimizedAffinity>  (1) 
-3.78209543

>  <minimizedRMSD>  (1) 
2.33227897

$$$$
