
     RDKit          3D

 49 53  0  0  1  0  0  0  0  0999 V2000
   39.9440   24.0870   34.3680 N   0  0  0  0  0  0  0  0  0  0  0  0
   41.2530   24.6000   34.7590 C   0  0  0  0  0  0  0  0  0  0  0  0
   42.2040   23.7350   33.8990 C   0  0  0  0  0  0  0  0  0  0  0  0
   42.1190   24.2040   32.6020 O   0  0  0  0  0  0  0  0  0  0  0  0
   40.9060   24.7410   32.2790 C   0  0  0  0  0  0  0  0  0  0  0  0
   39.7330   24.0380   32.9220 C   0  0  2  0  0  0  0  0  0  0  0  0
   38.4550   24.6430   32.4870 C   0  0  0  0  0  0  0  0  0  0  0  0
   38.0230   25.8730   32.9660 C   0  0  0  0  0  0  0  0  0  0  0  0
   36.8390   26.4510   32.5520 C   0  0  0  0  0  0  0  0  0  0  0  0
   36.0430   25.7960   31.6310 C   0  0  0  0  0  0  0  0  0  0  0  0
   36.4420   24.5640   31.1310 C   0  0  0  0  0  0  0  0  0  0  0  0
   37.6510   23.9900   31.5620 C   0  0  0  0  0  0  0  0  0  0  0  0
   37.8790   22.7350   30.8980 C   0  0  0  0  0  0  0  0  0  0  0  0
   38.8090   22.2440   30.0210 C   0  0  0  0  0  0  0  0  0  0  0  0
   38.8490   20.9710   29.5280 C   0  0  0  0  0  0  0  0  0  0  0  0
   37.8920   20.0690   29.9160 C   0  0  0  0  0  0  0  0  0  0  0  0
   36.9220   20.4930   30.7990 C   0  0  0  0  0  0  0  0  0  0  0  0
   35.9970   19.5390   31.1460 C   0  0  0  0  0  0  0  0  0  0  0  0
   34.9970   19.8540   32.0120 C   0  0  0  0  0  0  0  0  0  0  0  0
   34.9190   21.1180   32.5290 C   0  0  0  0  0  0  0  0  0  0  0  0
   35.8620   22.0370   32.1560 C   0  0  0  0  0  0  0  0  0  0  0  0
   36.9060   21.8040   31.2890 C   0  0  0  0  0  0  0  0  0  0  0  0
   38.9430   23.6620   35.2500 C   0  0  0  0  0  0  0  0  0  0  0  0
   38.4990   24.3910   36.3540 C   0  0  0  0  0  0  0  0  0  0  0  0
   37.5030   23.8510   37.1390 C   0  0  0  0  0  0  0  0  0  0  0  0
   36.9850   22.6230   36.8130 N   0  0  0  0  0  0  0  0  0  0  0  0
   37.4330   21.9450   35.7430 C   0  0  0  0  0  0  0  0  0  0  0  0
   38.4030   22.4760   34.9840 N   0  0  0  0  0  0  0  0  0  0  0  0
   41.3533   25.6680   34.5154 H   0  0  0  0  0  0  0  0  0  0  0  0
   41.4503   24.5379   35.8394 H   0  0  0  0  0  0  0  0  0  0  0  0
   43.2362   23.8291   34.2673 H   0  0  0  0  0  0  0  0  0  0  0  0
   41.9213   22.6732   33.9505 H   0  0  0  0  0  0  0  0  0  0  0  0
   40.8969   25.7932   32.5995 H   0  0  0  0  0  0  0  0  0  0  0  0
   40.7874   24.6291   31.1912 H   0  0  0  0  0  0  0  0  0  0  0  0
   39.6673   22.9854   32.6096 H   0  0  0  0  0  0  0  0  0  0  0  0
   38.6454   26.4052   33.7005 H   0  0  0  0  0  0  0  0  0  0  0  0
   36.5309   27.4278   32.9532 H   0  0  0  0  0  0  0  0  0  0  0  0
   35.0981   26.2488   31.2960 H   0  0  0  0  0  0  0  0  0  0  0  0
   35.8129   24.0373   30.3983 H   0  0  0  0  0  0  0  0  0  0  0  0
   39.5939   22.9368   29.6834 H   0  0  0  0  0  0  0  0  0  0  0  0
   39.6416   20.6721   28.8262 H   0  0  0  0  0  0  0  0  0  0  0  0
   37.8981   19.0375   29.5340 H   0  0  0  0  0  0  0  0  0  0  0  0
   36.0647   18.5249   30.7254 H   0  0  0  0  0  0  0  0  0  0  0  0
   34.2533   19.0948   32.2958 H   0  0  0  0  0  0  0  0  0  0  0  0
   34.1156   21.3899   33.2295 H   0  0  0  0  0  0  0  0  0  0  0  0
   35.7789   23.0466   32.5848 H   0  0  0  0  0  0  0  0  0  0  0  0
   38.9335   25.3731   36.5921 H   0  0  0  0  0  0  0  0  0  0  0  0
   37.1278   24.3981   38.0165 H   0  0  0  0  0  0  0  0  0  0  0  0
   37.0076   20.9623   35.4915 H   0  0  0  0  0  0  0  0  0  0  0  0
  1  2  1  0
  1 23  1  0
  3  2  1  0
  4  3  1  0
  5  4  1  0
  5  6  1  0
  6  1  1  0
  7  6  1  0
  7  8  2  0
  9  8  1  0
 10  9  2  0
 11 12  2  0
 11 10  1  0
 12  7  1  0
 13 22  1  0
 13 12  1  0
 14 13  2  0
 15 16  2  0
 15 14  1  0
 16 17  1  0
 17 18  1  0
 17 22  2  0
 18 19  2  0
 19 20  1  0
 21 20  2  0
 22 21  1  0
 23 24  2  0
 24 25  1  0
 26 25  2  0
 27 26  1  0
 28 23  1  0
 28 27  2  0
  2 29  1  0
  2 30  1  0
  3 31  1  0
  3 32  1  0
  5 33  1  0
  5 34  1  0
  6 35  1  6
  8 36  1  0
  9 37  1  0
 10 38  1  0
 11 39  1  0
 14 40  1  0
 15 41  1  0
 16 42  1  0
 18 43  1  0
 19 44  1  0
 20 45  1  0
 21 46  1  0
 24 47  1  0
 25 48  1  0
 27 49  1  0
M  ISO  8  29  13  30  13  31  13  32  13  33  13  34  13  35  13  36  14
M  ISO  8  37  14  38  14  39  14  40  14  41  14  42  14  43  14  44  14
M  ISO  5  45  14  46  14  47  14  48  14  49  14
M  END
>  <minimizedAffinity>  (1) 
-6.10892582

>  <minimizedRMSD>  (1) 
2.53917122

$$$$
