
     RDKit          3D

 47 51  0  0  1  0  0  0  0  0999 V2000
   38.8410   24.8820   34.4760 C   0  0  0  0  0  0  0  0  0  0  0  0
   38.7440   25.5540   35.6870 C   0  0  0  0  0  0  0  0  0  0  0  0
   37.8750   26.6090   35.8910 C   0  0  0  0  0  0  0  0  0  0  0  0
   37.0610   27.0200   34.8470 C   0  0  0  0  0  0  0  0  0  0  0  0
   37.1180   26.3880   33.6300 C   0  0  0  0  0  0  0  0  0  0  0  0
   38.0100   25.3230   33.4550 C   0  0  0  0  0  0  0  0  0  0  0  0
   37.9960   24.7430   32.1600 N   0  0  0  0  0  0  0  0  0  0  0  0
   37.2380   23.8470   31.5030 C   0  0  0  0  0  0  0  0  0  0  0  0
   37.6970   23.6620   30.2550 N   0  0  0  0  0  0  0  0  0  0  0  0
   38.7730   24.4430   30.0810 C   0  0  0  0  0  0  0  0  0  0  0  0
   39.5720   24.5860   28.9680 C   0  0  0  0  0  0  0  0  0  0  0  0
   39.3510   23.9410   27.9100 O   0  0  0  0  0  0  0  0  0  0  0  0
   40.6110   25.4350   29.0200 N   0  0  0  0  0  0  0  0  0  0  0  0
   40.8030   26.0980   30.1740 C   0  0  0  0  0  0  0  0  0  0  0  0
   41.8980   27.0230   30.2970 N   0  0  0  0  0  0  0  0  0  0  0  0
   40.0180   25.9520   31.2560 N   0  0  0  0  0  0  0  0  0  0  0  0
   38.9560   25.1160   31.2720 C   0  0  0  0  0  0  0  0  0  0  0  0
   39.4700   22.5820   35.0750 N   0  0  0  0  0  0  0  0  0  0  0  0
   40.6070   22.0370   35.8010 C   0  0  0  0  0  0  0  0  0  0  0  0
   41.6840   21.9310   34.7030 C   0  0  0  0  0  0  0  0  0  0  0  0
   42.1240   23.2020   34.4110 O   0  0  0  0  0  0  0  0  0  0  0  0
   41.1890   24.1810   34.6220 C   0  0  0  0  0  0  0  0  0  0  0  0
   39.7790   23.7690   34.2830 C   0  0  2  0  0  0  0  0  0  0  0  0
   38.1690   22.0540   35.0920 C   0  0  0  0  0  0  0  0  0  0  0  0
   37.3590   22.0010   36.2270 C   0  0  0  0  0  0  0  0  0  0  0  0
   36.0970   21.4510   36.0940 C   0  0  0  0  0  0  0  0  0  0  0  0
   35.6910   20.9860   34.8730 N   0  0  0  0  0  0  0  0  0  0  0  0
   36.4950   21.0490   33.7960 C   0  0  0  0  0  0  0  0  0  0  0  0
   37.7220   21.5820   33.9190 N   0  0  0  0  0  0  0  0  0  0  0  0
   39.3866   25.2328   36.5200 H   0  0  0  0  0  0  0  0  0  0  0  0
   37.8299   27.1148   36.8668 H   0  0  0  0  0  0  0  0  0  0  0  0
   36.3645   27.8585   34.9949 H   0  0  0  0  0  0  0  0  0  0  0  0
   36.4709   26.7141   32.8024 H   0  0  0  0  0  0  0  0  0  0  0  0
   36.3623   23.3360   31.9296 H   0  0  0  0  0  0  0  0  0  0  0  0
   41.2338   25.5724   28.2112 H   0  0  0  0  0  0  0  0  0  0  0  0
   42.0460   27.5314   31.1805 H   0  0  0  0  0  0  0  0  0  0  0  0
   42.5340   27.1769   29.5016 H   0  0  0  0  0  0  0  0  0  0  0  0
   40.9260   22.7145   36.6067 H   0  0  0  0  0  0  0  0  0  0  0  0
   40.3919   21.0797   36.2982 H   0  0  0  0  0  0  0  0  0  0  0  0
   42.5243   21.3191   35.0629 H   0  0  0  0  0  0  0  0  0  0  0  0
   41.2652   21.4568   33.8032 H   0  0  0  0  0  0  0  0  0  0  0  0
   41.2199   24.4650   35.6842 H   0  0  0  0  0  0  0  0  0  0  0  0
   41.4457   25.0145   33.9516 H   0  0  0  0  0  0  0  0  0  0  0  0
   39.6786   23.5104   33.2185 H   0  0  0  0  0  0  0  0  0  0  0  0
   37.7126   22.3841   37.1956 H   0  0  0  0  0  0  0  0  0  0  0  0
   35.4252   21.3879   36.9628 H   0  0  0  0  0  0  0  0  0  0  0  0
   36.1507   20.6675   32.8234 H   0  0  0  0  0  0  0  0  0  0  0  0
  1  2  2  0
  2  3  1  0
  4  3  2  0
  5  4  1  0
  6  5  2  0
  6  1  1  0
  7  6  1  0
  8  7  1  0
  9  8  2  0
 10  9  1  0
 10 17  2  0
 11 13  1  0
 11 10  1  0
 12 11  2  0
 13 14  1  0
 14 15  1  0
 14 16  2  0
 16 17  1  0
 17  7  1  0
 18 24  1  0
 18 19  1  0
 20 19  1  0
 21 22  1  0
 21 20  1  0
 23  1  1  0
 23 22  1  0
 23 18  1  0
 24 25  2  0
 26 25  1  0
 27 26  2  0
 28 29  2  0
 28 27  1  0
 29 24  1  0
  2 30  1  0
  3 31  1  0
  4 32  1  0
  5 33  1  0
  8 34  1  0
 13 35  1  0
 15 36  1  0
 15 37  1  0
 19 38  1  0
 19 39  1  0
 20 40  1  0
 20 41  1  0
 22 42  1  0
 22 43  1  0
 23 44  1  6
 25 45  1  0
 26 46  1  0
 28 47  1  0
M  ISO  8  30  14  31  14  32  14  33  14  34  14  35   9  38  13  39  13
M  ISO  8  40  13  41  13  42  13  43  13  44  13  45  14  46  14  47  14
M  END
>  <minimizedAffinity>  (1) 
-5.01742172

>  <minimizedRMSD>  (1) 
1.02929342

$$$$
