
     RDKit          3D

 47 51  0  0  1  0  0  0  0  0999 V2000
   39.9140   24.0260   34.3450 N   0  0  0  0  0  0  0  0  0  0  0  0
   41.2530   24.4490   34.7140 C   0  0  0  0  0  0  0  0  0  0  0  0
   42.1420   23.5840   33.8080 C   0  0  0  0  0  0  0  0  0  0  0  0
   42.0420   24.0530   32.5170 O   0  0  0  0  0  0  0  0  0  0  0  0
   40.8490   24.6680   32.2400 C   0  0  0  0  0  0  0  0  0  0  0  0
   39.6590   24.0290   32.9010 C   0  0  2  0  0  0  0  0  0  0  0  0
   38.4090   24.6920   32.5180 C   0  0  0  0  0  0  0  0  0  0  0  0
   38.1130   25.9870   32.9290 C   0  0  0  0  0  0  0  0  0  0  0  0
   36.9520   26.6460   32.5730 C   0  0  0  0  0  0  0  0  0  0  0  0
   36.0340   25.9980   31.7730 C   0  0  0  0  0  0  0  0  0  0  0  0
   36.2810   24.7220   31.3430 C   0  0  0  0  0  0  0  0  0  0  0  0
   37.4670   24.0600   31.7110 C   0  0  0  0  0  0  0  0  0  0  0  0
   37.5950   22.7230   31.1390 C   0  0  0  0  0  0  0  0  0  0  0  0
   38.5820   22.5200   30.2530 N   0  0  0  0  0  0  0  0  0  0  0  0
   38.8590   21.3960   29.6150 C   0  0  0  0  0  0  0  0  0  0  0  0
   38.0610   20.3510   29.8920 N   0  0  0  0  0  0  0  0  0  0  0  0
   37.0600   20.4860   30.7670 C   0  0  0  0  0  0  0  0  0  0  0  0
   36.2470   19.3790   31.0330 C   0  0  0  0  0  0  0  0  0  0  0  0
   35.2060   19.5420   31.9510 C   0  0  0  0  0  0  0  0  0  0  0  0
   34.9470   20.7510   32.6060 C   0  0  0  0  0  0  0  0  0  0  0  0
   35.7510   21.8360   32.3380 C   0  0  0  0  0  0  0  0  0  0  0  0
   36.7720   21.6550   31.4310 C   0  0  0  0  0  0  0  0  0  0  0  0
   38.9120   23.6250   35.2430 C   0  0  0  0  0  0  0  0  0  0  0  0
   38.4980   24.3910   36.3330 C   0  0  0  0  0  0  0  0  0  0  0  0
   37.4940   23.8590   37.1360 C   0  0  0  0  0  0  0  0  0  0  0  0
   36.9610   22.6350   36.8380 N   0  0  0  0  0  0  0  0  0  0  0  0
   37.3880   21.9260   35.7760 C   0  0  0  0  0  0  0  0  0  0  0  0
   38.3550   22.4290   34.9950 N   0  0  0  0  0  0  0  0  0  0  0  0
   41.4012   25.5197   34.5097 H   0  0  0  0  0  0  0  0  0  0  0  0
   41.4702   24.3254   35.7852 H   0  0  0  0  0  0  0  0  0  0  0  0
   43.1871   23.6469   34.1452 H   0  0  0  0  0  0  0  0  0  0  0  0
   41.8157   22.5345   33.8528 H   0  0  0  0  0  0  0  0  0  0  0  0
   40.9124   25.7126   32.5788 H   0  0  0  0  0  0  0  0  0  0  0  0
   40.6927   24.5812   31.1546 H   0  0  0  0  0  0  0  0  0  0  0  0
   39.5255   22.9904   32.5641 H   0  0  0  0  0  0  0  0  0  0  0  0
   38.8380   26.5120   33.5683 H   0  0  0  0  0  0  0  0  0  0  0  0
   36.7626   27.6718   32.9222 H   0  0  0  0  0  0  0  0  0  0  0  0
   35.1035   26.5065   31.4805 H   0  0  0  0  0  0  0  0  0  0  0  0
   35.5462   24.2099   30.7044 H   0  0  0  0  0  0  0  0  0  0  0  0
   39.6921   21.3207   28.9007 H   0  0  0  0  0  0  0  0  0  0  0  0
   36.4212   18.4131   30.5364 H   0  0  0  0  0  0  0  0  0  0  0  0
   34.5596   18.6790   32.1690 H   0  0  0  0  0  0  0  0  0  0  0  0
   34.1161   20.8331   33.3221 H   0  0  0  0  0  0  0  0  0  0  0  0
   35.5851   22.8069   32.8277 H   0  0  0  0  0  0  0  0  0  0  0  0
   38.9457   25.3725   36.5481 H   0  0  0  0  0  0  0  0  0  0  0  0
   37.1297   24.4214   38.0084 H   0  0  0  0  0  0  0  0  0  0  0  0
   36.9477   20.9434   35.5512 H   0  0  0  0  0  0  0  0  0  0  0  0
  1  2  1  0
  1 23  1  0
  3  2  1  0
  4  3  1  0
  5  4  1  0
  5  6  1  0
  6  1  1  0
  7  6  1  0
  7  8  2  0
  9  8  1  0
 10  9  2  0
 11 12  2  0
 11 10  1  0
 12  7  1  0
 13 22  1  0
 13 12  1  0
 14 13  2  0
 15 16  2  0
 15 14  1  0
 16 17  1  0
 17 18  1  0
 17 22  2  0
 18 19  2  0
 19 20  1  0
 21 20  2  0
 22 21  1  0
 23 24  2  0
 24 25  1  0
 26 25  2  0
 27 26  1  0
 28 23  1  0
 28 27  2  0
  2 29  1  0
  2 30  1  0
  3 31  1  0
  3 32  1  0
  5 33  1  0
  5 34  1  0
  6 35  1  6
  8 36  1  0
  9 37  1  0
 10 38  1  0
 11 39  1  0
 15 40  1  0
 18 41  1  0
 19 42  1  0
 20 43  1  0
 21 44  1  0
 24 45  1  0
 25 46  1  0
 27 47  1  0
M  ISO  8  29  13  30  13  31  13  32  13  33  13  34  13  35  13  36  14
M  ISO  8  37  14  38  14  39  14  40  14  41  14  42  14  43  14  44  14
M  ISO  3  45  14  46  14  47  14
M  END
>  <minimizedAffinity>  (1) 
-5.80571032

>  <minimizedRMSD>  (1) 
2.80343795

$$$$
