
     RDKit          3D

 47 50  0  0  1  0  0  0  0  0999 V2000
   39.3260   22.5410   35.2930 N   0  0  0  0  0  0  0  0  0  0  0  0
   40.2830   22.0310   36.2650 C   0  0  0  0  0  0  0  0  0  0  0  0
   41.5790   21.9380   35.4420 C   0  0  0  0  0  0  0  0  0  0  0  0
   42.0470   23.2220   35.2300 O   0  0  0  0  0  0  0  0  0  0  0  0
   41.0720   24.1730   35.2090 C   0  0  0  0  0  0  0  0  0  0  0  0
   39.7810   23.7230   34.5680 C   0  0  2  0  0  0  0  0  0  0  0  0
   38.7960   24.8170   34.5470 C   0  0  0  0  0  0  0  0  0  0  0  0
   38.3120   25.3990   35.6870 C   0  0  0  0  0  0  0  0  0  0  0  0
   37.3990   26.4360   35.6690 C   0  0  0  0  0  0  0  0  0  0  0  0
   36.9380   26.9250   34.4770 C   0  0  0  0  0  0  0  0  0  0  0  0
   37.3900   26.3780   33.3050 C   0  0  0  0  0  0  0  0  0  0  0  0
   38.3080   25.3360   33.3590 C   0  0  0  0  0  0  0  0  0  0  0  0
   38.6930   24.8660   32.0740 N   0  0  0  0  0  0  0  0  0  0  0  0
   39.8930   24.8580   31.2550 C   0  0  0  0  0  0  0  0  0  0  0  0
   39.5160   25.2130   29.8030 C   0  0  0  0  0  0  0  0  0  0  0  0
   38.7540   24.1240   29.2160 N   0  0  0  0  0  0  0  0  0  0  0  0
   38.1330   23.3080   30.2500 C   0  0  0  0  0  0  0  0  0  0  0  0
   37.6070   24.2200   31.3300 C   0  0  0  0  0  0  0  0  0  0  0  0
   38.0650   21.9780   35.0330 C   0  0  0  0  0  0  0  0  0  0  0  0
   37.0930   21.7640   36.0110 C   0  0  0  0  0  0  0  0  0  0  0  0
   35.8920   21.1940   35.5840 C   0  0  0  0  0  0  0  0  0  0  0  0
   35.7140   20.8750   34.2700 N   0  0  0  0  0  0  0  0  0  0  0  0
   36.6860   21.1000   33.3500 C   0  0  0  0  0  0  0  0  0  0  0  0
   37.8490   21.6480   33.7400 N   0  0  0  0  0  0  0  0  0  0  0  0
   40.3984   22.7250   37.1106 H   0  0  0  0  0  0  0  0  0  0  0  0
   39.9812   21.0741   36.7159 H   0  0  0  0  0  0  0  0  0  0  0  0
   42.3300   21.3539   35.9941 H   0  0  0  0  0  0  0  0  0  0  0  0
   41.3848   21.4399   34.4807 H   0  0  0  0  0  0  0  0  0  0  0  0
   40.8570   24.4693   36.2463 H   0  0  0  0  0  0  0  0  0  0  0  0
   41.4547   25.0041   34.5985 H   0  0  0  0  0  0  0  0  0  0  0  0
   39.9276   23.4538   33.5116 H   0  0  0  0  0  0  0  0  0  0  0  0
   38.6649   25.0252   36.6595 H   0  0  0  0  0  0  0  0  0  0  0  0
   37.0420   26.8694   36.6149 H   0  0  0  0  0  0  0  0  0  0  0  0
   36.2108   27.7501   34.4599 H   0  0  0  0  0  0  0  0  0  0  0  0
   37.0320   26.7576   32.3366 H   0  0  0  0  0  0  0  0  0  0  0  0
   40.6076   25.5995   31.6417 H   0  0  0  0  0  0  0  0  0  0  0  0
   40.3546   23.8600   31.2843 H   0  0  0  0  0  0  0  0  0  0  0  0
   38.9083   26.1299   29.7965 H   0  0  0  0  0  0  0  0  0  0  0  0
   40.4329   25.3741   29.2170 H   0  0  0  0  0  0  0  0  0  0  0  0
   38.0197   24.5151   28.6087 H   0  0  0  0  0  0  0  0  0  0  0  0
   37.3038   22.7290   29.8173 H   0  0  0  0  0  0  0  0  0  0  0  0
   38.8712   22.6107   30.6729 H   0  0  0  0  0  0  0  0  0  0  0  0
   36.9816   24.9971   30.8664 H   0  0  0  0  0  0  0  0  0  0  0  0
   37.0231   23.6119   32.0366 H   0  0  0  0  0  0  0  0  0  0  0  0
   37.2641   22.0307   37.0644 H   0  0  0  0  0  0  0  0  0  0  0  0
   35.0875   21.0018   36.3091 H   0  0  0  0  0  0  0  0  0  0  0  0
   36.5231   20.8361   32.2946 H   0  0  0  0  0  0  0  0  0  0  0  0
  1  2  1  0
  3  2  1  0
  4  3  1  0
  5  4  1  0
  6  5  1  0
  6  1  1  0
  7  6  1  0
  7  8  2  0
  9  8  1  0
 10  9  2  0
 11 12  2  0
 11 10  1  0
 12  7  1  0
 13 12  1  0
 14 13  1  0
 15 14  1  0
 16 15  1  0
 16 17  1  0
 17 18  1  0
 18 13  1  0
 19  1  1  0
 19 20  2  0
 21 20  1  0
 22 21  2  0
 23 24  2  0
 23 22  1  0
 24 19  1  0
  2 25  1  0
  2 26  1  0
  3 27  1  0
  3 28  1  0
  5 29  1  0
  5 30  1  0
  6 31  1  6
  8 32  1  0
  9 33  1  0
 10 34  1  0
 11 35  1  0
 14 36  1  0
 14 37  1  0
 15 38  1  0
 15 39  1  0
 16 40  1  0
 17 41  1  0
 17 42  1  0
 18 43  1  0
 18 44  1  0
 20 45  1  0
 21 46  1  0
 23 47  1  0
M  ISO  8  25  13  26  13  27  13  28  13  29  13  30  13  31  13  32  14
M  ISO  8  33  14  34  14  35  14  36  13  37  13  38  13  39  13  40   5
M  ISO  7  41  13  42  13  43  13  44  13  45  14  46  14  47  14
M  END
>  <minimizedAffinity>  (1) 
-4.72136068

>  <minimizedRMSD>  (1) 
0.615233302

$$$$
