
     RDKit          3D

 43 46  0  0  1  0  0  0  0  0999 V2000
   39.3240   22.5250   35.2670 N   0  0  0  0  0  0  0  0  0  0  0  0
   40.3030   22.0230   36.2070 C   0  0  0  0  0  0  0  0  0  0  0  0
   41.5820   21.9330   35.3610 C   0  0  0  0  0  0  0  0  0  0  0  0
   42.0440   23.2070   35.1310 O   0  0  0  0  0  0  0  0  0  0  0  0
   41.0650   24.1610   35.1280 C   0  0  0  0  0  0  0  0  0  0  0  0
   39.7660   23.7120   34.5210 C   0  0  2  0  0  0  0  0  0  0  0  0
   38.7850   24.8010   34.4900 C   0  0  0  0  0  0  0  0  0  0  0  0
   38.3460   25.4170   35.6490 C   0  0  0  0  0  0  0  0  0  0  0  0
   37.4290   26.4530   35.6620 C   0  0  0  0  0  0  0  0  0  0  0  0
   36.9210   26.9000   34.4710 C   0  0  0  0  0  0  0  0  0  0  0  0
   37.3200   26.3260   33.2860 C   0  0  0  0  0  0  0  0  0  0  0  0
   38.2540   25.2750   33.3030 C   0  0  0  0  0  0  0  0  0  0  0  0
   38.6010   24.8040   31.9700 C   0  0  0  0  0  0  0  0  0  0  0  0
   38.0420   23.8340   31.1660 C   0  0  0  0  0  0  0  0  0  0  0  0
   38.5440   23.5870   29.9210 C   0  0  0  0  0  0  0  0  0  0  0  0
   39.6110   24.2580   29.3730 C   0  0  0  0  0  0  0  0  0  0  0  0
   40.1900   25.2350   30.1550 C   0  0  0  0  0  0  0  0  0  0  0  0
   39.6890   25.4900   31.4150 C   0  0  0  0  0  0  0  0  0  0  0  0
   38.0600   21.9690   35.0350 C   0  0  0  0  0  0  0  0  0  0  0  0
   37.1020   21.7770   36.0310 C   0  0  0  0  0  0  0  0  0  0  0  0
   35.8940   21.2090   35.6420 C   0  0  0  0  0  0  0  0  0  0  0  0
   35.6860   20.8660   34.3310 N   0  0  0  0  0  0  0  0  0  0  0  0
   36.6360   21.0660   33.3990 C   0  0  0  0  0  0  0  0  0  0  0  0
   37.8070   21.6130   33.7610 N   0  0  0  0  0  0  0  0  0  0  0  0
   40.4346   22.7180   37.0494 H   0  0  0  0  0  0  0  0  0  0  0  0
   40.0153   21.0629   36.6604 H   0  0  0  0  0  0  0  0  0  0  0  0
   42.3447   21.3539   35.9022 H   0  0  0  0  0  0  0  0  0  0  0  0
   41.3671   21.4321   34.4055 H   0  0  0  0  0  0  0  0  0  0  0  0
   40.8734   24.4612   36.1687 H   0  0  0  0  0  0  0  0  0  0  0  0
   41.4341   24.9892   34.5052 H   0  0  0  0  0  0  0  0  0  0  0  0
   39.8910   23.4340   33.4641 H   0  0  0  0  0  0  0  0  0  0  0  0
   38.7473   25.0643   36.6106 H   0  0  0  0  0  0  0  0  0  0  0  0
   37.1135   26.9095   36.6118 H   0  0  0  0  0  0  0  0  0  0  0  0
   36.1903   27.7221   34.4620 H   0  0  0  0  0  0  0  0  0  0  0  0
   36.9108   26.6871   32.3309 H   0  0  0  0  0  0  0  0  0  0  0  0
   37.1825   23.2529   31.5315 H   0  0  0  0  0  0  0  0  0  0  0  0
   38.0645   22.8016   29.3184 H   0  0  0  0  0  0  0  0  0  0  0  0
   39.9834   24.0278   28.3639 H   0  0  0  0  0  0  0  0  0  0  0  0
   41.0482   25.8090   29.7757 H   0  0  0  0  0  0  0  0  0  0  0  0
   40.1703   26.2750   32.0167 H   0  0  0  0  0  0  0  0  0  0  0  0
   37.2936   22.0619   37.0760 H   0  0  0  0  0  0  0  0  0  0  0  0
   35.1040   21.0346   36.3873 H   0  0  0  0  0  0  0  0  0  0  0  0
   36.4547   20.7841   32.3513 H   0  0  0  0  0  0  0  0  0  0  0  0
  1  2  1  0
  3  2  1  0
  4  3  1  0
  5  4  1  0
  6  5  1  0
  6  1  1  0
  7  6  1  0
  7  8  2  0
  8  9  1  0
 10  9  2  0
 11 12  2  0
 11 10  1  0
 12  7  1  0
 13 12  1  0
 14 13  2  0
 15 14  1  0
 16 15  2  0
 16 17  1  0
 17 18  2  0
 18 13  1  0
 19  1  1  0
 19 20  2  0
 21 20  1  0
 22 21  2  0
 23 24  2  0
 23 22  1  0
 24 19  1  0
  2 25  1  0
  2 26  1  0
  3 27  1  0
  3 28  1  0
  5 29  1  0
  5 30  1  0
  6 31  1  6
  8 32  1  0
  9 33  1  0
 10 34  1  0
 11 35  1  0
 14 36  1  0
 15 37  1  0
 16 38  1  0
 17 39  1  0
 18 40  1  0
 20 41  1  0
 21 42  1  0
 23 43  1  0
M  ISO  8  25  13  26  13  27  13  28  13  29  13  30  13  31  13  32  14
M  ISO  8  33  14  34  14  35  14  36  14  37  14  38  14  39  14  40  14
M  ISO  3  41  14  42  14  43  14
M  END
>  <minimizedAffinity>  (1) 
-4.57989502

>  <minimizedRMSD>  (1) 
0.747463286

$$$$
