
     RDKit          3D

 46 49  0  0  1  0  0  0  0  0999 V2000
   39.1610   22.5560   35.4530 N   0  0  0  0  0  0  0  0  0  0  0  0
   40.0190   22.1750   36.5580 C   0  0  0  0  0  0  0  0  0  0  0  0
   41.3900   22.0020   35.8720 C   0  0  0  0  0  0  0  0  0  0  0  0
   41.8760   23.2670   35.5880 O   0  0  0  0  0  0  0  0  0  0  0  0
   40.8970   24.2010   35.3890 C   0  0  0  0  0  0  0  0  0  0  0  0
   39.6870   23.6650   34.6510 C   0  0  2  0  0  0  0  0  0  0  0  0
   38.7080   24.7370   34.4020 C   0  0  0  0  0  0  0  0  0  0  0  0
   38.1340   25.4610   35.4420 C   0  0  0  0  0  0  0  0  0  0  0  0
   37.2280   26.4820   35.2480 C   0  0  0  0  0  0  0  0  0  0  0  0
   36.8670   26.8050   33.9590 C   0  0  0  0  0  0  0  0  0  0  0  0
   37.4090   26.1170   32.8800 C   0  0  0  0  0  0  0  0  0  0  0  0
   38.3340   25.0790   33.1060 C   0  0  0  0  0  0  0  0  0  0  0  0
   38.7510   24.5010   31.8470 C   0  0  0  0  0  0  0  0  0  0  0  0
   37.6010   23.9330   31.0030 C   0  0  0  0  0  0  0  0  0  0  0  0
   38.4610   23.3370   29.9070 C   0  0  0  0  0  0  0  0  0  0  0  0
   39.3590   24.5350   29.5920 C   0  0  0  0  0  0  0  0  0  0  0  0
   39.3090   25.4450   30.8190 C   0  0  0  0  0  0  0  0  0  0  0  0
   37.9360   21.9620   35.1200 C   0  0  0  0  0  0  0  0  0  0  0  0
   36.9110   21.7020   36.0270 C   0  0  0  0  0  0  0  0  0  0  0  0
   35.7570   21.1100   35.5650 C   0  0  0  0  0  0  0  0  0  0  0  0
   35.6540   20.7950   34.2350 N   0  0  0  0  0  0  0  0  0  0  0  0
   36.6600   21.0550   33.3810 C   0  0  0  0  0  0  0  0  0  0  0  0
   37.7930   21.6340   33.8160 N   0  0  0  0  0  0  0  0  0  0  0  0
   40.0545   22.9637   37.3240 H   0  0  0  0  0  0  0  0  0  0  0  0
   39.6771   21.2738   37.0881 H   0  0  0  0  0  0  0  0  0  0  0  0
   42.0830   21.4758   36.5450 H   0  0  0  0  0  0  0  0  0  0  0  0
   41.2901   21.4095   34.9506 H   0  0  0  0  0  0  0  0  0  0  0  0
   40.5684   24.5746   36.3701 H   0  0  0  0  0  0  0  0  0  0  0  0
   41.3311   24.9943   34.7627 H   0  0  0  0  0  0  0  0  0  0  0  0
   39.9471   23.2889   33.6505 H   0  0  0  0  0  0  0  0  0  0  0  0
   38.4179   25.2054   36.4735 H   0  0  0  0  0  0  0  0  0  0  0  0
   36.8029   27.0265   36.1040 H   0  0  0  0  0  0  0  0  0  0  0  0
   36.1435   27.6144   33.7819 H   0  0  0  0  0  0  0  0  0  0  0  0
   37.1167   26.3821   31.8532 H   0  0  0  0  0  0  0  0  0  0  0  0
   39.4807   23.7805   32.2451 H   0  0  0  0  0  0  0  0  0  0  0  0
   37.0179   23.1720   31.5424 H   0  0  0  0  0  0  0  0  0  0  0  0
   36.8211   24.6423   30.6889 H   0  0  0  0  0  0  0  0  0  0  0  0
   39.0418   22.4751   30.2672 H   0  0  0  0  0  0  0  0  0  0  0  0
   37.9038   22.9372   29.0470 H   0  0  0  0  0  0  0  0  0  0  0  0
   40.3905   24.1997   29.4086 H   0  0  0  0  0  0  0  0  0  0  0  0
   39.0180   25.0630   28.6893 H   0  0  0  0  0  0  0  0  0  0  0  0
   40.3109   25.8024   31.0991 H   0  0  0  0  0  0  0  0  0  0  0  0
   38.7228   26.3653   30.6799 H   0  0  0  0  0  0  0  0  0  0  0  0
   37.0213   21.9641   37.0896 H   0  0  0  0  0  0  0  0  0  0  0  0
   34.9281   20.8925   36.2546 H   0  0  0  0  0  0  0  0  0  0  0  0
   36.5551   20.7919   32.3181 H   0  0  0  0  0  0  0  0  0  0  0  0
  1  2  1  0
  3  2  1  0
  4  3  1  0
  5  4  1  0
  6  5  1  0
  6  1  1  0
  7  6  1  0
  7  8  2  0
  9  8  1  0
 10  9  2  0
 11 12  2  0
 11 10  1  0
 12  7  1  0
 13 12  1  0
 14 13  1  0
 15 14  1  0
 16 15  1  0
 16 17  1  0
 17 13  1  0
 18  1  1  0
 18 19  2  0
 20 19  1  0
 21 20  2  0
 22 23  2  0
 22 21  1  0
 23 18  1  0
  2 24  1  0
  2 25  1  0
  3 26  1  0
  3 27  1  0
  5 28  1  0
  5 29  1  0
  6 30  1  6
  8 31  1  0
  9 32  1  0
 10 33  1  0
 11 34  1  0
 13 35  1  0
 14 36  1  0
 14 37  1  0
 15 38  1  0
 15 39  1  0
 16 40  1  0
 16 41  1  0
 17 42  1  0
 17 43  1  0
 19 44  1  0
 20 45  1  0
 22 46  1  0
M  ISO  8  24  13  25  13  26  13  27  13  28  13  29  13  30  13  31  14
M  ISO  8  32  14  33  14  34  14  35  13  36  13  37  13  38  13  39  13
M  ISO  7  40  13  41  13  42  13  43  13  44  14  45  14  46  14
M  END
>  <minimizedAffinity>  (1) 
-4.68061399

>  <minimizedRMSD>  (1) 
0.354628921

$$$$
