
     RDKit          3D

 44 47  0  0  1  0  0  0  0  0999 V2000
   39.5040   22.5300   35.2560 N   0  0  0  0  0  0  0  0  0  0  0  0
   40.5330   21.9580   36.1110 C   0  0  0  0  0  0  0  0  0  0  0  0
   41.7530   21.9040   35.1720 C   0  0  0  0  0  0  0  0  0  0  0  0
   42.2150   23.1900   34.9950 O   0  0  0  0  0  0  0  0  0  0  0  0
   41.2530   24.1530   35.1210 C   0  0  0  0  0  0  0  0  0  0  0  0
   39.9080   23.7470   34.5530 C   0  0  2  0  0  0  0  0  0  0  0  0
   38.9460   24.8490   34.6820 C   0  0  0  0  0  0  0  0  0  0  0  0
   38.5160   25.3320   35.9110 C   0  0  0  0  0  0  0  0  0  0  0  0
   37.6160   26.3720   36.0440 C   0  0  0  0  0  0  0  0  0  0  0  0
   37.1120   26.9690   34.9170 C   0  0  0  0  0  0  0  0  0  0  0  0
   37.5010   26.5360   33.6610 C   0  0  0  0  0  0  0  0  0  0  0  0
   38.4140   25.4810   33.5640 C   0  0  0  0  0  0  0  0  0  0  0  0
   38.7290   25.1530   32.2190 N   0  0  0  0  0  0  0  0  0  0  0  0
   39.8400   25.4290   31.5130 C   0  0  0  0  0  0  0  0  0  0  0  0
   39.9590   25.0240   30.2050 C   0  0  0  0  0  0  0  0  0  0  0  0
   38.9650   24.3230   29.5470 C   0  0  0  0  0  0  0  0  0  0  0  0
   39.2600   23.9890   28.2000 N   0  0  0  0  0  0  0  0  0  0  0  0
   37.8350   24.0400   30.2500 N   0  0  0  0  0  0  0  0  0  0  0  0
   37.7660   24.4620   31.5430 C   0  0  0  0  0  0  0  0  0  0  0  0
   36.6820   24.1510   32.1010 O   0  0  0  0  0  0  0  0  0  0  0  0
   38.2180   21.9990   35.0730 C   0  0  0  0  0  0  0  0  0  0  0  0
   37.2730   21.8660   36.0920 C   0  0  0  0  0  0  0  0  0  0  0  0
   36.0420   21.3200   35.7560 C   0  0  0  0  0  0  0  0  0  0  0  0
   35.8030   20.9380   34.4660 N   0  0  0  0  0  0  0  0  0  0  0  0
   36.7350   21.0800   33.5070 C   0  0  0  0  0  0  0  0  0  0  0  0
   37.9320   21.6080   33.8190 N   0  0  0  0  0  0  0  0  0  0  0  0
   40.7294   22.6010   36.9816 H   0  0  0  0  0  0  0  0  0  0  0  0
   40.2596   20.9793   36.5322 H   0  0  0  0  0  0  0  0  0  0  0  0
   42.5420   21.2830   35.6213 H   0  0  0  0  0  0  0  0  0  0  0  0
   41.4695   21.4646   34.2042 H   0  0  0  0  0  0  0  0  0  0  0  0
   41.1250   24.3785   36.1900 H   0  0  0  0  0  0  0  0  0  0  0  0
   41.5947   25.0265   34.5464 H   0  0  0  0  0  0  0  0  0  0  0  0
   39.9581   23.5343   33.4749 H   0  0  0  0  0  0  0  0  0  0  0  0
   38.9116   24.8633   36.8241 H   0  0  0  0  0  0  0  0  0  0  0  0
   37.3075   26.7169   37.0419 H   0  0  0  0  0  0  0  0  0  0  0  0
   36.3942   27.7971   35.0116 H   0  0  0  0  0  0  0  0  0  0  0  0
   37.0991   27.0133   32.7551 H   0  0  0  0  0  0  0  0  0  0  0  0
   40.6622   25.9848   31.9875 H   0  0  0  0  0  0  0  0  0  0  0  0
   40.8826   25.2674   29.6593 H   0  0  0  0  0  0  0  0  0  0  0  0
   38.5738   23.4667   27.6368 H   0  0  0  0  0  0  0  0  0  0  0  0
   40.1604   24.2688   27.7854 H   0  0  0  0  0  0  0  0  0  0  0  0
   37.4956   22.1819   37.1219 H   0  0  0  0  0  0  0  0  0  0  0  0
   35.2637   21.1956   36.5233 H   0  0  0  0  0  0  0  0  0  0  0  0
   36.5199   20.7666   32.4748 H   0  0  0  0  0  0  0  0  0  0  0  0
  1  2  1  0
  3  2  1  0
  4  5  1  0
  4  3  1  0
  6  7  1  0
  6  5  1  0
  6  1  1  0
  7  8  2  0
  8  9  1  0
 10  9  2  0
 11 10  1  0
 12 11  2  0
 12  7  1  0
 13 12  1  0
 14 13  1  0
 15 14  2  0
 16 15  1  0
 16 18  2  0
 17 16  1  0
 18 19  1  0
 19 20  2  0
 19 13  1  0
 21  1  1  0
 21 22  2  0
 23 22  1  0
 24 23  2  0
 25 26  2  0
 25 24  1  0
 26 21  1  0
  2 27  1  0
  2 28  1  0
  3 29  1  0
  3 30  1  0
  5 31  1  0
  5 32  1  0
  6 33  1  6
  8 34  1  0
  9 35  1  0
 10 36  1  0
 11 37  1  0
 14 38  1  0
 15 39  1  0
 17 40  1  0
 17 41  1  0
 22 42  1  0
 23 43  1  0
 25 44  1  0
M  ISO  8  27  13  28  13  29  13  30  13  31  13  32  13  33  13  34  14
M  ISO  8  35  14  36  14  37  14  38  14  39  14  42  14  43  14  44  14
M  END
>  <minimizedAffinity>  (1) 
-4.86507034

>  <minimizedRMSD>  (1) 
1.01722693

$$$$
