
     RDKit          3D

 40 43  0  0  1  0  0  0  0  0999 V2000
   39.3090   22.5300   35.2570 N   0  0  0  0  0  0  0  0  0  0  0  0
   40.2890   22.0340   36.1950 C   0  0  0  0  0  0  0  0  0  0  0  0
   41.5710   21.9440   35.3540 C   0  0  0  0  0  0  0  0  0  0  0  0
   42.0340   23.2220   35.1210 O   0  0  0  0  0  0  0  0  0  0  0  0
   41.0530   24.1720   35.1220 C   0  0  0  0  0  0  0  0  0  0  0  0
   39.7580   23.7110   34.4910 C   0  0  2  0  0  0  0  0  0  0  0  0
   38.7870   24.8020   34.4390 C   0  0  0  0  0  0  0  0  0  0  0  0
   38.4330   25.5270   35.5730 C   0  0  0  0  0  0  0  0  0  0  0  0
   37.5170   26.5560   35.6150 C   0  0  0  0  0  0  0  0  0  0  0  0
   36.8980   26.8980   34.4440 C   0  0  0  0  0  0  0  0  0  0  0  0
   37.1990   26.2280   33.2980 C   0  0  0  0  0  0  0  0  0  0  0  0
   38.1500   25.1710   33.2760 C   0  0  0  0  0  0  0  0  0  0  0  0
   38.4040   24.7110   31.9310 C   0  0  0  0  0  0  0  0  0  0  0  0
   37.7230   23.9240   31.0350 C   0  0  0  0  0  0  0  0  0  0  0  0
   38.4020   23.6860   29.9030 N   0  0  0  0  0  0  0  0  0  0  0  0
   39.5730   24.3160   30.0140 C   0  0  0  0  0  0  0  0  0  0  0  0
   39.5470   24.9080   31.2120 N   0  0  0  0  0  0  0  0  0  0  0  0
   38.0500   21.9760   35.0280 C   0  0  0  0  0  0  0  0  0  0  0  0
   37.0920   21.7880   36.0220 C   0  0  0  0  0  0  0  0  0  0  0  0
   35.8870   21.2120   35.6210 C   0  0  0  0  0  0  0  0  0  0  0  0
   35.6830   20.8620   34.3220 N   0  0  0  0  0  0  0  0  0  0  0  0
   36.6410   21.0600   33.3810 C   0  0  0  0  0  0  0  0  0  0  0  0
   37.8000   21.6110   33.7510 N   0  0  0  0  0  0  0  0  0  0  0  0
   40.4177   22.7315   37.0358 H   0  0  0  0  0  0  0  0  0  0  0  0
   40.0032   21.0730   36.6475 H   0  0  0  0  0  0  0  0  0  0  0  0
   42.3326   21.3675   35.8996 H   0  0  0  0  0  0  0  0  0  0  0  0
   41.3599   21.4405   34.3991 H   0  0  0  0  0  0  0  0  0  0  0  0
   40.8485   24.4587   36.1641 H   0  0  0  0  0  0  0  0  0  0  0  0
   41.4217   25.0148   34.5189 H   0  0  0  0  0  0  0  0  0  0  0  0
   39.8890   23.4165   33.4393 H   0  0  0  0  0  0  0  0  0  0  0  0
   38.9270   25.2553   36.5175 H   0  0  0  0  0  0  0  0  0  0  0  0
   37.2922   27.0822   36.5544 H   0  0  0  0  0  0  0  0  0  0  0  0
   36.1588   27.7125   34.4285 H   0  0  0  0  0  0  0  0  0  0  0  0
   36.6929   26.5119   32.3635 H   0  0  0  0  0  0  0  0  0  0  0  0
   36.7156   23.5263   31.2275 H   0  0  0  0  0  0  0  0  0  0  0  0
   40.3878   24.3425   29.2754 H   0  0  0  0  0  0  0  0  0  0  0  0
   40.3325   25.4719   31.5667 H   0  0  0  0  0  0  0  0  0  0  0  0
   37.2763   22.0783   37.0669 H   0  0  0  0  0  0  0  0  0  0  0  0
   35.0932   21.0388   36.3625 H   0  0  0  0  0  0  0  0  0  0  0  0
   36.4662   20.7722   32.3338 H   0  0  0  0  0  0  0  0  0  0  0  0
  1  2  1  0
  3  2  1  0
  4  5  1  0
  4  3  1  0
  6  5  1  0
  6  1  1  0
  7  6  1  0
  7  8  2  0
  8  9  1  0
 10  9  2  0
 11 10  1  0
 12 11  2  0
 12  7  1  0
 13 12  1  0
 14 13  2  0
 15 16  2  0
 15 14  1  0
 16 17  1  0
 17 13  1  0
 18  1  1  0
 18 19  2  0
 20 19  1  0
 21 20  2  0
 22 23  2  0
 22 21  1  0
 23 18  1  0
  2 24  1  0
  2 25  1  0
  3 26  1  0
  3 27  1  0
  5 28  1  0
  5 29  1  0
  6 30  1  6
  8 31  1  0
  9 32  1  0
 10 33  1  0
 11 34  1  0
 14 35  1  0
 16 36  1  0
 17 37  1  0
 19 38  1  0
 20 39  1  0
 22 40  1  0
M  ISO  8  24  13  25  13  26  13  27  13  28  13  29  13  30  13  31  14
M  ISO  8  32  14  33  14  34  14  35  14  36  14  37   9  38  14  39  14
M  ISO  1  40  14
M  END
>  <minimizedAffinity>  (1) 
-4.495327

>  <minimizedRMSD>  (1) 
0.465082288

$$$$
