
     RDKit          3D

 42 45  0  0  1  0  0  0  0  0999 V2000
   39.2120   22.5320   35.4750 N   0  0  0  0  0  0  0  0  0  0  0  0
   40.0770   22.1180   36.5640 C   0  0  0  0  0  0  0  0  0  0  0  0
   41.4380   21.9290   35.8710 C   0  0  0  0  0  0  0  0  0  0  0  0
   41.9480   23.1930   35.5880 O   0  0  0  0  0  0  0  0  0  0  0  0
   40.9850   24.1560   35.4300 C   0  0  0  0  0  0  0  0  0  0  0  0
   39.7650   23.6480   34.6850 C   0  0  2  0  0  0  0  0  0  0  0  0
   38.8070   24.7200   34.4160 C   0  0  0  0  0  0  0  0  0  0  0  0
   38.1930   25.3970   35.4730 C   0  0  0  0  0  0  0  0  0  0  0  0
   37.2910   26.4280   35.3100 C   0  0  0  0  0  0  0  0  0  0  0  0
   36.9730   26.8170   34.0390 C   0  0  0  0  0  0  0  0  0  0  0  0
   37.5450   26.1900   32.9770 C   0  0  0  0  0  0  0  0  0  0  0  0
   38.4670   25.1360   33.1480 C   0  0  0  0  0  0  0  0  0  0  0  0
   38.9970   24.5590   31.9250 C   0  0  0  0  0  0  0  0  0  0  0  0
   38.1930   23.8440   31.0760 C   0  0  0  0  0  0  0  0  0  0  0  0
   38.5510   23.2410   29.8990 C   0  0  0  0  0  0  0  0  0  0  0  0
   39.8590   23.3390   29.4890 C   0  0  0  0  0  0  0  0  0  0  0  0
   40.6860   24.0470   30.3180 C   0  0  0  0  0  0  0  0  0  0  0  0
   40.2180   24.5790   31.4210 N   0  0  0  0  0  0  0  0  0  0  0  0
   37.9780   21.9590   35.1430 C   0  0  0  0  0  0  0  0  0  0  0  0
   36.9690   21.7180   36.0740 C   0  0  0  0  0  0  0  0  0  0  0  0
   35.8010   21.1380   35.5750 C   0  0  0  0  0  0  0  0  0  0  0  0
   35.6870   20.8380   34.2440 N   0  0  0  0  0  0  0  0  0  0  0  0
   36.6910   21.0900   33.3800 C   0  0  0  0  0  0  0  0  0  0  0  0
   37.8140   21.6440   33.8510 N   0  0  0  0  0  0  0  0  0  0  0  0
   40.1334   22.8943   37.3413 H   0  0  0  0  0  0  0  0  0  0  0  0
   39.7230   21.2128   37.0792 H   0  0  0  0  0  0  0  0  0  0  0  0
   42.1259   21.3881   36.5375 H   0  0  0  0  0  0  0  0  0  0  0  0
   41.3217   21.3446   34.9464 H   0  0  0  0  0  0  0  0  0  0  0  0
   40.6699   24.5049   36.4245 H   0  0  0  0  0  0  0  0  0  0  0  0
   41.4236   24.9694   34.8333 H   0  0  0  0  0  0  0  0  0  0  0  0
   40.0331   23.2785   33.6842 H   0  0  0  0  0  0  0  0  0  0  0  0
   38.4445   25.0888   36.4986 H   0  0  0  0  0  0  0  0  0  0  0  0
   36.8390   26.9246   36.1813 H   0  0  0  0  0  0  0  0  0  0  0  0
   36.2562   27.6352   33.8758 H   0  0  0  0  0  0  0  0  0  0  0  0
   37.2823   26.5126   31.9587 H   0  0  0  0  0  0  0  0  0  0  0  0
   37.1390   23.7426   31.3739 H   0  0  0  0  0  0  0  0  0  0  0  0
   37.8107   22.6927   29.2978 H   0  0  0  0  0  0  0  0  0  0  0  0
   40.2174   22.8789   28.5563 H   0  0  0  0  0  0  0  0  0  0  0  0
   41.7477   24.1702   30.0579 H   0  0  0  0  0  0  0  0  0  0  0  0
   37.0859   21.9697   37.1384 H   0  0  0  0  0  0  0  0  0  0  0  0
   34.9657   20.9203   36.2568 H   0  0  0  0  0  0  0  0  0  0  0  0
   36.5891   20.8457   32.3123 H   0  0  0  0  0  0  0  0  0  0  0  0
  1  2  1  0
  3  2  1  0
  4  3  1  0
  5  4  1  0
  6  5  1  0
  6  1  1  0
  7  6  1  0
  7  8  2  0
  9  8  1  0
 10  9  2  0
 11 12  2  0
 11 10  1  0
 12  7  1  0
 13 12  1  0
 14 13  2  0
 15 14  1  0
 16 15  2  0
 16 17  1  0
 17 18  2  0
 18 13  1  0
 19  1  1  0
 19 20  2  0
 21 20  1  0
 22 21  2  0
 23 24  2  0
 23 22  1  0
 24 19  1  0
  2 25  1  0
  2 26  1  0
  3 27  1  0
  3 28  1  0
  5 29  1  0
  5 30  1  0
  6 31  1  6
  8 32  1  0
  9 33  1  0
 10 34  1  0
 11 35  1  0
 14 36  1  0
 15 37  1  0
 16 38  1  0
 17 39  1  0
 20 40  1  0
 21 41  1  0
 23 42  1  0
M  ISO  8  25  13  26  13  27  13  28  13  29  13  30  13  31  13  32  14
M  ISO  8  33  14  34  14  35  14  36  14  37  14  38  14  39  14  40  14
M  ISO  2  41  14  42  14
M  END
>  <minimizedAffinity>  (1) 
-4.50985384

>  <minimizedRMSD>  (1) 
0.431887746

$$$$
