
     RDKit          3D

 39 42  0  0  1  0  0  0  0  0999 V2000
   39.1680   22.5200   35.4730 N   0  0  0  0  0  0  0  0  0  0  0  0
   40.0580   22.1280   36.5480 C   0  0  0  0  0  0  0  0  0  0  0  0
   41.4040   21.9330   35.8290 C   0  0  0  0  0  0  0  0  0  0  0  0
   41.8950   23.1840   35.5280 O   0  0  0  0  0  0  0  0  0  0  0  0
   40.9360   24.1430   35.3340 C   0  0  0  0  0  0  0  0  0  0  0  0
   39.6930   23.6160   34.6490 C   0  0  2  0  0  0  0  0  0  0  0  0
   38.7290   24.6890   34.3890 C   0  0  0  0  0  0  0  0  0  0  0  0
   38.1820   25.4340   35.4340 C   0  0  0  0  0  0  0  0  0  0  0  0
   37.2810   26.4580   35.2740 C   0  0  0  0  0  0  0  0  0  0  0  0
   36.8810   26.7850   34.0110 C   0  0  0  0  0  0  0  0  0  0  0  0
   37.3850   26.0890   32.9540 C   0  0  0  0  0  0  0  0  0  0  0  0
   38.3130   25.0340   33.1170 C   0  0  0  0  0  0  0  0  0  0  0  0
   38.7850   24.3620   31.8800 C   0  0  0  0  0  0  0  0  0  0  0  0
   39.8740   24.8170   31.1920 C   0  0  0  0  0  0  0  0  0  0  0  0
   40.0720   23.7070   29.7790 S   0  0  0  0  0  0  0  0  0  0  0  0
   38.5600   22.7050   30.3360 C   0  0  0  0  0  0  0  0  0  0  0  0
   38.4090   23.3500   31.1970 N   0  0  0  0  0  0  0  0  0  0  0  0
   37.9240   21.9400   35.1850 C   0  0  0  0  0  0  0  0  0  0  0  0
   36.9350   21.7310   36.1450 C   0  0  0  0  0  0  0  0  0  0  0  0
   35.7550   21.1410   35.6940 C   0  0  0  0  0  0  0  0  0  0  0  0
   35.6110   20.7970   34.3670 N   0  0  0  0  0  0  0  0  0  0  0  0
   36.5960   21.0200   33.4780 C   0  0  0  0  0  0  0  0  0  0  0  0
   37.7340   21.5870   33.8990 N   0  0  0  0  0  0  0  0  0  0  0  0
   40.1280   22.9173   37.3110 H   0  0  0  0  0  0  0  0  0  0  0  0
   39.7195   21.2299   37.0854 H   0  0  0  0  0  0  0  0  0  0  0  0
   42.1077   21.4010   36.4861 H   0  0  0  0  0  0  0  0  0  0  0  0
   41.2728   21.3367   34.9140 H   0  0  0  0  0  0  0  0  0  0  0  0
   40.6481   24.5522   36.3136 H   0  0  0  0  0  0  0  0  0  0  0  0
   41.3704   24.9102   34.6762 H   0  0  0  0  0  0  0  0  0  0  0  0
   39.9250   23.2175   33.6503 H   0  0  0  0  0  0  0  0  0  0  0  0
   38.4945   25.1835   36.4585 H   0  0  0  0  0  0  0  0  0  0  0  0
   36.8899   27.0032   36.1457 H   0  0  0  0  0  0  0  0  0  0  0  0
   36.1607   27.6003   33.8485 H   0  0  0  0  0  0  0  0  0  0  0  0
   37.0589   26.3568   31.9382 H   0  0  0  0  0  0  0  0  0  0  0  0
   40.5028   25.6830   31.4462 H   0  0  0  0  0  0  0  0  0  0  0  0
   38.0405   21.8191   29.9419 H   0  0  0  0  0  0  0  0  0  0  0  0
   37.0774   22.0153   37.1980 H   0  0  0  0  0  0  0  0  0  0  0  0
   34.9345   20.9490   36.4010 H   0  0  0  0  0  0  0  0  0  0  0  0
   36.4686   20.7409   32.4216 H   0  0  0  0  0  0  0  0  0  0  0  0
  1  2  1  0
  3  2  1  0
  4  3  1  0
  5  4  1  0
  6  5  1  0
  6  1  1  0
  7  6  1  0
  7  8  2  0
  9  8  1  0
 10  9  2  0
 11 12  2  0
 11 10  1  0
 12  7  1  0
 13 12  1  0
 14 13  2  0
 15 16  1  0
 15 14  1  0
 16 17  2  0
 17 13  1  0
 18  1  1  0
 18 19  2  0
 20 19  1  0
 21 20  2  0
 22 23  2  0
 22 21  1  0
 23 18  1  0
  2 24  1  0
  2 25  1  0
  3 26  1  0
  3 27  1  0
  5 28  1  0
  5 29  1  0
  6 30  1  6
  8 31  1  0
  9 32  1  0
 10 33  1  0
 11 34  1  0
 14 35  1  0
 16 36  1  0
 19 37  1  0
 20 38  1  0
 22 39  1  0
M  ISO  8  24  13  25  13  26  13  27  13  28  13  29  13  30  13  31  14
M  ISO  8  32  14  33  14  34  14  35  14  36  14  37  14  38  14  39  14
M  END
>  <minimizedAffinity>  (1) 
-4.39006424

>  <minimizedRMSD>  (1) 
0.162938535

$$$$
