
     RDKit          3D

 43 45  0  0  1  0  0  0  0  0999 V2000
   39.9650   22.9200   36.1260 C   0  0  0  0  0  0  0  0  0  0  0  0
   39.5920   24.3860   35.9730 C   0  0  1  0  0  0  0  0  0  0  0  0
   39.8290   24.8370   34.6050 C   0  0  0  0  0  0  0  0  0  0  0  0
   38.6060   25.6510   34.1550 C   0  0  0  0  0  0  0  0  0  0  0  0
   38.4000   26.7250   35.1780 C   0  0  0  0  0  0  0  0  0  0  0  0
   38.0940   26.2040   36.5390 C   0  0  0  0  0  0  0  0  0  0  0  0
   38.1960   24.6730   36.4690 C   0  0  2  0  0  0  0  0  0  0  0  0
   37.9140   24.1060   37.8070 C   0  0  0  0  0  0  0  0  0  0  0  0
   38.0370   24.8170   38.8610 O   0  0  0  0  0  0  0  0  0  0  0  0
   37.5090   22.8870   38.3020 O   0  0  0  0  0  0  0  0  0  0  0  0
   37.6380   21.4570   33.6180 C   0  0  0  0  0  0  0  0  0  0  0  0
   38.5150   20.9510   32.6700 C   0  0  0  0  0  0  0  0  0  0  0  0
   39.8560   21.1230   32.9150 C   0  0  0  0  0  0  0  0  0  0  0  0
   40.2410   21.7620   34.0420 N   0  0  0  0  0  0  0  0  0  0  0  0
   39.3870   22.2400   34.9410 C   0  0  0  0  0  0  0  0  0  0  0  0
   38.0620   22.0880   34.7300 N   0  0  0  0  0  0  0  0  0  0  0  0
   37.9500   20.3160   31.5540 N   0  0  0  0  0  0  0  0  0  0  0  0
   37.1600   19.2480   31.8140 C   0  0  0  0  0  0  0  0  0  0  0  0
   36.5890   18.5990   30.7420 C   0  0  0  0  0  0  0  0  0  0  0  0
   36.8550   19.0720   29.4820 C   0  0  0  0  0  0  0  0  0  0  0  0
   36.2930   18.4410   28.3610 N   0  0  0  0  0  0  0  0  0  0  0  0
   37.6510   20.1420   29.2790 N   0  0  0  0  0  0  0  0  0  0  0  0
   38.2160   20.7870   30.3230 C   0  0  0  0  0  0  0  0  0  0  0  0
   38.9470   21.7750   30.1040 O   0  0  0  0  0  0  0  0  0  0  0  0
   41.0584   22.8009   36.1427 H   0  0  0  0  0  0  0  0  0  0  0  0
   39.5830   22.4970   37.0668 H   0  0  0  0  0  0  0  0  0  0  0  0
   40.2528   24.9799   36.6215 H   0  0  0  0  0  0  0  0  0  0  0  0
   40.7301   25.4670   34.5704 H   0  0  0  0  0  0  0  0  0  0  0  0
   39.9802   23.9746   33.9391 H   0  0  0  0  0  0  0  0  0  0  0  0
   38.7919   26.0992   33.1678 H   0  0  0  0  0  0  0  0  0  0  0  0
   37.7155   25.0108   34.0705 H   0  0  0  0  0  0  0  0  0  0  0  0
   39.3168   27.3302   35.2357 H   0  0  0  0  0  0  0  0  0  0  0  0
   37.5285   27.3135   34.8554 H   0  0  0  0  0  0  0  0  0  0  0  0
   38.8196   26.5978   37.2659 H   0  0  0  0  0  0  0  0  0  0  0  0
   37.0894   26.5155   36.8611 H   0  0  0  0  0  0  0  0  0  0  0  0
   37.4651   24.2097   35.7899 H   0  0  0  0  0  0  0  0  0  0  0  0
   37.3898   22.7635   39.2770 H   0  0  0  0  0  0  0  0  0  0  0  0
   36.5565   21.3387   33.4558 H   0  0  0  0  0  0  0  0  0  0  0  0
   40.6057   20.7459   32.2039 H   0  0  0  0  0  0  0  0  0  0  0  0
   36.9804   18.9104   32.8454 H   0  0  0  0  0  0  0  0  0  0  0  0
   35.9376   17.7254   30.8919 H   0  0  0  0  0  0  0  0  0  0  0  0
   36.4933   18.7968   27.4154 H   0  0  0  0  0  0  0  0  0  0  0  0
   35.6804   17.6222   28.4841 H   0  0  0  0  0  0  0  0  0  0  0  0
  2  1  1  0
  2  7  1  0
  3  2  1  0
  4  3  1  0
  4  5  1  0
  5  6  1  0
  7  6  1  0
  7  8  1  0
  8 10  1  0
  8  9  2  0
 11 16  2  0
 12 13  2  0
 12 11  1  0
 13 14  1  0
 14 15  2  0
 15  1  1  0
 16 15  1  0
 17 18  1  0
 17 12  1  0
 19 18  2  0
 20 19  1  0
 21 20  1  0
 22 20  2  0
 22 23  1  0
 23 17  1  0
 24 23  2  0
  1 25  1  0
  1 26  1  0
  2 27  1  1
  3 28  1  0
  3 29  1  0
  4 30  1  0
  4 31  1  0
  5 32  1  0
  5 33  1  0
  6 34  1  0
  6 35  1  0
  7 36  1  6
 10 37  1  0
 11 38  1  0
 13 39  1  0
 18 40  1  0
 19 41  1  0
 21 42  1  0
 21 43  1  0
M  ISO  8  25   8  26   8  27  13  28  13  29  13  30  13  31  13  32  13
M  ISO  8  33  13  34  13  35  13  36  13  37   3  38  14  39  14  40  14
M  ISO  1  41  14
M  END
>  <minimizedAffinity>  (1) 
-5.09339809

>  <minimizedRMSD>  (1) 
0.828993976

$$$$
