
     RDKit          3D

 35 37  0  0  1  0  0  0  0  0999 V2000
   39.1690   22.5340   35.4580 N   0  0  0  0  0  0  0  0  0  0  0  0
   40.0440   22.1350   36.5360 C   0  0  0  0  0  0  0  0  0  0  0  0
   41.4030   21.9630   35.8440 C   0  0  0  0  0  0  0  0  0  0  0  0
   41.8940   23.2090   35.5250 O   0  0  0  0  0  0  0  0  0  0  0  0
   40.9290   24.1630   35.3320 C   0  0  0  0  0  0  0  0  0  0  0  0
   39.6930   23.6420   34.6590 C   0  0  2  0  0  0  0  0  0  0  0  0
   38.7170   24.7100   34.4170 C   0  0  0  0  0  0  0  0  0  0  0  0
   38.1770   25.4490   35.4410 C   0  0  0  0  0  0  0  0  0  0  0  0
   37.2770   26.4770   35.2370 C   0  0  0  0  0  0  0  0  0  0  0  0
   36.8920   26.7890   33.9560 C   0  0  0  0  0  0  0  0  0  0  0  0
   37.3940   26.0900   32.8920 C   0  0  0  0  0  0  0  0  0  0  0  0
   38.2940   25.0680   33.1490 C   0  0  0  0  0  0  0  0  0  0  0  0
   38.7790   24.3780   31.9730 C   0  0  0  0  0  0  0  0  0  0  0  0
   38.4070   24.5450   30.7850 O   0  0  0  0  0  0  0  0  0  0  0  0
   37.9270   21.9470   35.1520 C   0  0  0  0  0  0  0  0  0  0  0  0
   36.9280   21.7180   36.0990 C   0  0  0  0  0  0  0  0  0  0  0  0
   35.7560   21.1220   35.6240 C   0  0  0  0  0  0  0  0  0  0  0  0
   35.6340   20.7950   34.2990 N   0  0  0  0  0  0  0  0  0  0  0  0
   36.6290   21.0370   33.4230 C   0  0  0  0  0  0  0  0  0  0  0  0
   37.7660   21.6100   33.8530 N   0  0  0  0  0  0  0  0  0  0  0  0
   40.0929   22.9130   37.3121 H   0  0  0  0  0  0  0  0  0  0  0  0
   39.7049   21.2236   37.0501 H   0  0  0  0  0  0  0  0  0  0  0  0
   42.1021   21.4516   36.5221 H   0  0  0  0  0  0  0  0  0  0  0  0
   41.2865   21.3599   34.9315 H   0  0  0  0  0  0  0  0  0  0  0  0
   40.6444   24.5726   36.3124 H   0  0  0  0  0  0  0  0  0  0  0  0
   41.3597   24.9266   34.6676 H   0  0  0  0  0  0  0  0  0  0  0  0
   39.9344   23.2579   33.6569 H   0  0  0  0  0  0  0  0  0  0  0  0
   38.4753   25.2110   36.4727 H   0  0  0  0  0  0  0  0  0  0  0  0
   36.8730   27.0397   36.0914 H   0  0  0  0  0  0  0  0  0  0  0  0
   36.1756   27.6059   33.7843 H   0  0  0  0  0  0  0  0  0  0  0  0
   37.0919   26.3323   31.8624 H   0  0  0  0  0  0  0  0  0  0  0  0
   39.5612   23.6225   32.1381 H   0  0  0  0  0  0  0  0  0  0  0  0
   37.0552   21.9904   37.1571 H   0  0  0  0  0  0  0  0  0  0  0  0
   34.9277   20.9145   36.3174 H   0  0  0  0  0  0  0  0  0  0  0  0
   36.5113   20.7673   32.3631 H   0  0  0  0  0  0  0  0  0  0  0  0
  1  2  1  0
  3  2  1  0
  4  3  1  0
  5  4  1  0
  6  5  1  0
  6  1  1  0
  7  6  1  0
  7  8  2  0
  9  8  1  0
 10  9  2  0
 11 12  2  0
 11 10  1  0
 12  7  1  0
 13 12  1  0
 14 13  2  0
 15  1  1  0
 15 16  2  0
 17 16  1  0
 18 17  2  0
 19 20  2  0
 19 18  1  0
 20 15  1  0
  2 21  1  0
  2 22  1  0
  3 23  1  0
  3 24  1  0
  5 25  1  0
  5 26  1  0
  6 27  1  6
  8 28  1  0
  9 29  1  0
 10 30  1  0
 11 31  1  0
 13 32  1  0
 16 33  1  0
 17 34  1  0
 19 35  1  0
M  ISO  8  21  13  22  13  23  13  24  13  25  13  26  13  27  13  28  14
M  ISO  7  29  14  30  14  31  14  32   6  33  14  34  14  35  14
M  END
>  <minimizedAffinity>  (1) 
-4.12323332

>  <minimizedRMSD>  (1) 
0.0940816253

$$$$
