
     RDKit          3D

 35 37  0  0  1  0  0  0  0  0999 V2000
   39.1410   22.5340   35.5030 N   0  0  0  0  0  0  0  0  0  0  0  0
   39.9880   22.1240   36.6070 C   0  0  0  0  0  0  0  0  0  0  0  0
   41.3680   21.9780   35.9520 C   0  0  0  0  0  0  0  0  0  0  0  0
   41.8550   23.2420   35.6730 O   0  0  0  0  0  0  0  0  0  0  0  0
   40.8860   24.1730   35.4530 C   0  0  0  0  0  0  0  0  0  0  0  0
   39.6720   23.6560   34.7370 C   0  0  2  0  0  0  0  0  0  0  0  0
   38.6970   24.7310   34.4770 C   0  0  0  0  0  0  0  0  0  0  0  0
   38.2430   25.5450   35.4940 C   0  0  0  0  0  0  0  0  0  0  0  0
   37.3400   26.5700   35.2790 C   0  0  0  0  0  0  0  0  0  0  0  0
   36.8680   26.7940   33.9950 C   0  0  0  0  0  0  0  0  0  0  0  0
   37.2950   26.0060   32.9490 C   0  0  0  0  0  0  0  0  0  0  0  0
   38.2130   24.9720   33.1910 C   0  0  0  0  0  0  0  0  0  0  0  0
   38.7080   24.1100   32.1770 N   0  0  0  0  0  0  0  0  0  0  0  0
   37.9150   21.9420   35.1530 C   0  0  0  0  0  0  0  0  0  0  0  0
   36.8850   21.6800   36.0580 C   0  0  0  0  0  0  0  0  0  0  0  0
   35.7340   21.0870   35.5590 C   0  0  0  0  0  0  0  0  0  0  0  0
   35.6490   20.7870   34.2310 N   0  0  0  0  0  0  0  0  0  0  0  0
   36.6620   21.0540   33.3830 C   0  0  0  0  0  0  0  0  0  0  0  0
   37.7810   21.6270   33.8570 N   0  0  0  0  0  0  0  0  0  0  0  0
   40.0049   22.8893   37.3970 H   0  0  0  0  0  0  0  0  0  0  0  0
   39.6426   21.2019   37.0974 H   0  0  0  0  0  0  0  0  0  0  0  0
   42.0525   21.4596   36.6395 H   0  0  0  0  0  0  0  0  0  0  0  0
   41.2861   21.3915   35.0250 H   0  0  0  0  0  0  0  0  0  0  0  0
   40.5658   24.5714   36.4270 H   0  0  0  0  0  0  0  0  0  0  0  0
   41.3313   24.9371   34.7988 H   0  0  0  0  0  0  0  0  0  0  0  0
   39.9350   23.2867   33.7348 H   0  0  0  0  0  0  0  0  0  0  0  0
   38.6135   25.3721   36.5152 H   0  0  0  0  0  0  0  0  0  0  0  0
   37.0009   27.1989   36.1153 H   0  0  0  0  0  0  0  0  0  0  0  0
   36.1486   27.6054   33.8104 H   0  0  0  0  0  0  0  0  0  0  0  0
   36.9192   26.1858   31.9309 H   0  0  0  0  0  0  0  0  0  0  0  0
   39.3813   23.3679   32.4154 H   0  0  0  0  0  0  0  0  0  0  0  0
   38.3938   24.2269   31.2031 H   0  0  0  0  0  0  0  0  0  0  0  0
   36.9819   21.9335   37.1240 H   0  0  0  0  0  0  0  0  0  0  0  0
   34.8937   20.8598   36.2315 H   0  0  0  0  0  0  0  0  0  0  0  0
   36.5736   20.8056   32.3151 H   0  0  0  0  0  0  0  0  0  0  0  0
  1  2  1  0
  3  2  1  0
  4  3  1  0
  5  4  1  0
  6  5  1  0
  6  1  1  0
  7  6  1  0
  7  8  2  0
  9  8  1  0
 10  9  2  0
 11 12  2  0
 11 10  1  0
 12  7  1  0
 13 12  1  0
 14  1  1  0
 14 15  2  0
 16 15  1  0
 17 16  2  0
 18 19  2  0
 18 17  1  0
 19 14  1  0
  2 20  1  0
  2 21  1  0
  3 22  1  0
  3 23  1  0
  5 24  1  0
  5 25  1  0
  6 26  1  6
  8 27  1  0
  9 28  1  0
 10 29  1  0
 11 30  1  0
 13 31  1  0
 13 32  1  0
 15 33  1  0
 16 34  1  0
 18 35  1  0
M  ISO  8  20  13  21  13  22  13  23  13  24  13  25  13  26  13  27  14
M  ISO  6  28  14  29  14  30  14  33  14  34  14  35  14
M  END
>  <minimizedAffinity>  (1) 
-4.24569607

>  <minimizedRMSD>  (1) 
0.0340655521

$$$$
