
     RDKit          3D

 47 49  0  0  1  0  0  0  0  0999 V2000
   39.5940   24.0100   35.7100 C   0  0  1  0  0  0  0  0  0  0  0  0
   39.9930   24.8290   34.5820 C   0  0  0  0  0  0  0  0  0  0  0  0
   38.7280   25.4980   34.0120 C   0  0  0  0  0  0  0  0  0  0  0  0
   38.0510   26.2030   35.1430 C   0  0  0  0  0  0  0  0  0  0  0  0
   37.5990   25.2920   36.2370 C   0  0  0  0  0  0  0  0  0  0  0  0
   38.0810   23.8710   35.8860 C   0  0  2  0  0  0  0  0  0  0  0  0
   37.7470   22.9510   36.9470 N   0  0  0  0  0  0  0  0  0  0  0  0
   38.0350   23.4600   38.2670 C   0  0  0  0  0  0  0  0  0  0  0  0
   38.0930   24.7530   38.4740 N   0  0  0  0  0  0  0  0  0  0  0  0
   38.2620   22.5580   39.3700 N   0  0  0  0  0  0  0  0  0  0  0  0
   38.3020   25.0980   39.4350 H   0  0  0  0  0  0  0  0  0  0  0  0
   40.2520   22.6350   35.6590 C   0  0  0  0  0  0  0  0  0  0  0  0
   37.8350   21.2190   33.2180 C   0  0  0  0  0  0  0  0  0  0  0  0
   38.6720   20.6600   32.2640 C   0  0  0  0  0  0  0  0  0  0  0  0
   40.0290   20.7810   32.4830 C   0  0  0  0  0  0  0  0  0  0  0  0
   40.4580   21.4250   33.5920 N   0  0  0  0  0  0  0  0  0  0  0  0
   39.6400   21.9540   34.4930 C   0  0  0  0  0  0  0  0  0  0  0  0
   38.2940   21.8550   34.3140 N   0  0  0  0  0  0  0  0  0  0  0  0
   38.0670   20.0240   31.1680 N   0  0  0  0  0  0  0  0  0  0  0  0
   37.3440   18.9090   31.4570 C   0  0  0  0  0  0  0  0  0  0  0  0
   36.7380   18.2610   30.4000 C   0  0  0  0  0  0  0  0  0  0  0  0
   36.9010   18.7800   29.1320 C   0  0  0  0  0  0  0  0  0  0  0  0
   36.2890   18.1250   28.0660 N   0  0  0  0  0  0  0  0  0  0  0  0
   37.6260   19.8830   28.9220 N   0  0  0  0  0  0  0  0  0  0  0  0
   38.2260   20.5300   29.9440 C   0  0  0  0  0  0  0  0  0  0  0  0
   38.8950   21.5570   29.7020 O   0  0  0  0  0  0  0  0  0  0  0  0
   39.9535   24.5540   36.5959 H   0  0  0  0  0  0  0  0  0  0  0  0
   40.7062   25.5985   34.9125 H   0  0  0  0  0  0  0  0  0  0  0  0
   40.4795   24.2112   33.8129 H   0  0  0  0  0  0  0  0  0  0  0  0
   39.0039   26.2200   33.2294 H   0  0  0  0  0  0  0  0  0  0  0  0
   38.0591   24.7487   33.5635 H   0  0  0  0  0  0  0  0  0  0  0  0
   38.7557   26.9328   35.5683 H   0  0  0  0  0  0  0  0  0  0  0  0
   37.1497   26.6795   34.7299 H   0  0  0  0  0  0  0  0  0  0  0  0
   38.0354   25.6105   37.1952 H   0  0  0  0  0  0  0  0  0  0  0  0
   36.5035   25.3165   36.3335 H   0  0  0  0  0  0  0  0  0  0  0  0
   37.6050   23.4692   34.9793 H   0  0  0  0  0  0  0  0  0  0  0  0
   37.3415   22.0193   36.7783 H   0  0  0  0  0  0  0  0  0  0  0  0
   38.4667   22.9322   40.3075 H   0  0  0  0  0  0  0  0  0  0  0  0
   38.2194   21.5399   39.2199 H   0  0  0  0  0  0  0  0  0  0  0  0
   41.3391   22.7325   35.5219 H   0  0  0  0  0  0  0  0  0  0  0  0
   40.0991   22.0713   36.5911 H   0  0  0  0  0  0  0  0  0  0  0  0
   36.7474   21.1397   33.0737 H   0  0  0  0  0  0  0  0  0  0  0  0
   40.7503   20.3603   31.7669 H   0  0  0  0  0  0  0  0  0  0  0  0
   37.2465   18.5397   32.4885 H   0  0  0  0  0  0  0  0  0  0  0  0
   36.1396   17.3528   30.5644 H   0  0  0  0  0  0  0  0  0  0  0  0
   36.3937   18.4902   27.1086 H   0  0  0  0  0  0  0  0  0  0  0  0
   35.7317   17.2755   28.2351 H   0  0  0  0  0  0  0  0  0  0  0  0
  1  6  1  0
  2  1  1  0
  3  2  1  0
  3  4  1  0
  4  5  1  0
  6  5  1  0
  6  7  1  0
  7  8  1  0
  8  9  2  0
  8 10  1  0
  9 11  1  0
 12  1  1  0
 13 18  2  0
 14 15  2  0
 14 13  1  0
 15 16  1  0
 16 17  2  0
 17 12  1  0
 18 17  1  0
 19 20  1  0
 19 14  1  0
 21 20  2  0
 22 21  1  0
 23 22  1  0
 24 22  2  0
 24 25  1  0
 25 19  1  0
 26 25  2  0
  1 27  1  1
  2 28  1  0
  2 29  1  0
  3 30  1  0
  3 31  1  0
  4 32  1  0
  4 33  1  0
  5 34  1  0
  5 35  1  0
  6 36  1  6
  7 37  1  0
 10 38  1  0
 10 39  1  0
 12 40  1  0
 12 41  1  0
 13 42  1  0
 15 43  1  0
 20 44  1  0
 21 45  1  0
 23 46  1  0
 23 47  1  0
M  ISO  8  27  13  28  13  29  13  30  13  31  13  32  13  33  13  34  13
M  ISO  8  35  13  36  13  40   8  41   8  42  14  43  14  44  14  45  14
M  END
>  <minimizedAffinity>  (1) 
-4.99811554

>  <minimizedRMSD>  (1) 
1.54198945

$$$$
