
     RDKit          3D

 30 31  0  0  0  0  0  0  0  0999 V2000
   38.2450   23.6040   36.9940 C   0  0  0  0  0  0  0  0  0  0  0  0
   39.6660   23.1330   36.8550 C   0  0  0  0  0  0  0  0  0  0  0  0
   40.3990   23.8510   35.8840 C   0  0  0  0  0  0  0  0  0  0  0  0
   41.7430   23.4950   35.6680 C   0  0  0  0  0  0  0  0  0  0  0  0
   42.2480   22.4760   36.4130 N   0  0  0  0  0  0  0  0  0  0  0  0
   41.5090   21.8130   37.3350 C   0  0  0  0  0  0  0  0  0  0  0  0
   40.2320   22.1390   37.5520 N   0  0  0  0  0  0  0  0  0  0  0  0
   37.8510   24.5280   35.8890 C   0  0  0  0  0  0  0  0  0  0  0  0
   38.0720   24.3550   38.3020 C   0  0  0  0  0  0  0  0  0  0  0  0
   37.3610   22.3920   37.0340 C   0  0  0  0  0  0  0  0  0  0  0  0
   37.0870   21.8420   35.6890 C   0  0  0  0  0  0  0  0  0  0  0  0
   35.9200   21.1090   35.4870 C   0  0  0  0  0  0  0  0  0  0  0  0
   35.5880   20.5600   34.2650 C   0  0  0  0  0  0  0  0  0  0  0  0
   36.4340   20.7430   33.2170 N   0  0  0  0  0  0  0  0  0  0  0  0
   37.5740   21.4590   33.4120 C   0  0  0  0  0  0  0  0  0  0  0  0
   37.8900   21.9940   34.6220 N   0  0  0  0  0  0  0  0  0  0  0  0
   39.9317   24.6663   35.3123 H   0  0  0  0  0  0  0  0  0  0  0  0
   42.3611   24.0207   34.9253 H   0  0  0  0  0  0  0  0  0  0  0  0
   41.9665   20.9959   37.9121 H   0  0  0  0  0  0  0  0  0  0  0  0
   37.4533   25.4608   36.3153 H   0  0  0  0  0  0  0  0  0  0  0  0
   38.7309   24.7542   35.2689 H   0  0  0  0  0  0  0  0  0  0  0  0
   37.0786   24.0496   35.2689 H   0  0  0  0  0  0  0  0  0  0  0  0
   38.2308   23.6657   39.1444 H   0  0  0  0  0  0  0  0  0  0  0  0
   38.8051   25.1734   38.3547 H   0  0  0  0  0  0  0  0  0  0  0  0
   37.0547   24.7701   38.3547 H   0  0  0  0  0  0  0  0  0  0  0  0
   37.8544   21.6161   37.6378 H   0  0  0  0  0  0  0  0  0  0  0  0
   36.3987   22.6964   37.4713 H   0  0  0  0  0  0  0  0  0  0  0  0
   35.2355   20.9618   36.3354 H   0  0  0  0  0  0  0  0  0  0  0  0
   34.6577   19.9861   34.1417 H   0  0  0  0  0  0  0  0  0  0  0  0
   38.2607   21.6098   32.5660 H   0  0  0  0  0  0  0  0  0  0  0  0
  1 10  1  0
  1  9  1  0
  2  1  1  0
  2  7  1  0
  3  2  2  0
  4  3  1  0
  4  5  2  0
  5  6  1  0
  6  7  2  0
  8  1  1  0
 11 10  1  0
 12 11  2  0
 13 12  1  0
 14 15  1  0
 14 13  2  0
 15 16  2  0
 16 11  1  0
  3 17  1  0
  4 18  1  0
  6 19  1  0
  8 20  1  0
  8 21  1  0
  8 22  1  0
  9 23  1  0
  9 24  1  0
  9 25  1  0
 10 26  1  0
 10 27  1  0
 12 28  1  0
 13 29  1  0
 15 30  1  0
M  ISO  8  17  14  18  14  19  14  20   8  21   8  22   8  23   8  24   8
M  ISO  6  25   8  26   8  27   8  28  14  29  14  30  14
M  END
>  <minimizedAffinity>  (1) 
-3.99020433

>  <minimizedRMSD>  (1) 
0.659655035

$$$$
