
     RDKit          3D

 24 24  0  0  0  0  0  0  0  0999 V2000
   38.1520   23.8910   37.1430 C   0  0  0  0  0  0  0  0  0  0  0  0
   39.5090   23.2990   36.9060 C   0  0  0  0  0  0  0  0  0  0  0  0
   40.1810   23.8900   35.8110 C   0  0  0  0  0  0  0  0  0  0  0  0
   41.4610   23.4180   35.4910 C   0  0  0  0  0  0  0  0  0  0  0  0
   41.9840   22.4090   36.2630 N   0  0  0  0  0  0  0  0  0  0  0  0
   41.3030   21.8770   37.3000 C   0  0  0  0  0  0  0  0  0  0  0  0
   40.0740   22.3210   37.6160 N   0  0  0  0  0  0  0  0  0  0  0  0
   37.8700   25.0380   36.2410 C   0  0  0  0  0  0  0  0  0  0  0  0
   38.0690   24.4190   38.5780 C   0  0  0  0  0  0  0  0  0  0  0  0
   37.1250   22.8200   36.9890 C   0  0  0  0  0  0  0  0  0  0  0  0
   37.6040   21.7870   36.0760 N   0  0  0  0  0  0  0  0  0  0  0  0
   39.7127   24.6965   35.2276 H   0  0  0  0  0  0  0  0  0  0  0  0
   42.0285   23.8415   34.6492 H   0  0  0  0  0  0  0  0  0  0  0  0
   41.7589   21.0708   37.8934 H   0  0  0  0  0  0  0  0  0  0  0  0
   37.6501   25.9322   36.8427 H   0  0  0  0  0  0  0  0  0  0  0  0
   38.7477   25.2298   35.6063 H   0  0  0  0  0  0  0  0  0  0  0  0
   37.0034   24.8009   35.6063 H   0  0  0  0  0  0  0  0  0  0  0  0
   38.2000   23.5853   39.2836 H   0  0  0  0  0  0  0  0  0  0  0  0
   38.8609   25.1649   38.7406 H   0  0  0  0  0  0  0  0  0  0  0  0
   37.0864   24.8860   38.7406 H   0  0  0  0  0  0  0  0  0  0  0  0
   36.9202   22.3695   37.9714 H   0  0  0  0  0  0  0  0  0  0  0  0
   36.2053   23.2623   36.5784 H   0  0  0  0  0  0  0  0  0  0  0  0
   37.9722   20.9929   36.6188 H   0  0  0  0  0  0  0  0  0  0  0  0
   36.8259   21.4658   35.4824 H   0  0  0  0  0  0  0  0  0  0  0  0
  1  9  1  0
  2  1  1  0
  2  7  2  0
  3  2  1  0
  4  3  2  0
  4  5  1  0
  5  6  2  0
  6  7  1  0
  8  1  1  0
 10  1  1  0
 11 10  1  0
  3 12  1  0
  4 13  1  0
  6 14  1  0
  8 15  1  0
  8 16  1  0
  8 17  1  0
  9 18  1  0
  9 19  1  0
  9 20  1  0
 10 21  1  0
 10 22  1  0
 11 23  1  0
 11 24  1  0
M  ISO  8  12  14  13  14  14  14  15   8  16   8  17   8  18   8  19   8
M  ISO  5  20   8  21   8  22   8  23   5  24   5
M  END
>  <minimizedAffinity>  (1) 
-3.5307653

>  <minimizedRMSD>  (1) 
0.319318146

$$$$
