
     RDKit          3D

 56 59  0  0  1  0  0  0  0  0999 V2000
   40.2180   22.4070   34.0980 C   0  0  0  0  0  0  0  0  0  0  0  0
   39.5660   23.7480   33.8170 C   0  0  1  0  0  0  0  0  0  0  0  0
   39.4000   23.9380   32.3790 C   0  0  0  0  0  0  0  0  0  0  0  0
   37.9750   24.4570   32.1230 C   0  0  0  0  0  0  0  0  0  0  0  0
   37.8270   25.6850   32.9660 C   0  0  0  0  0  0  0  0  0  0  0  0
   37.8670   25.3850   34.4440 C   0  0  0  0  0  0  0  0  0  0  0  0
   38.2770   23.9330   34.6140 C   0  0  2  0  0  0  0  0  0  0  0  0
   38.4230   23.6890   36.0670 C   0  0  0  0  0  0  0  0  0  0  0  0
   38.1220   24.9320   36.9180 C   0  0  0  0  0  0  0  0  0  0  0  0
   37.8100   24.4910   38.3320 C   0  0  0  0  0  0  0  0  0  0  0  0
   38.3830   23.1410   38.6290 C   0  0  0  0  0  0  0  0  0  0  0  0
   39.7560   23.0470   38.0240 C   0  0  0  0  0  0  0  0  0  0  0  0
   39.7730   23.1810   36.5200 C   0  0  0  0  0  0  0  0  0  0  0  0
   37.7050   20.3370   32.3460 C   0  0  0  0  0  0  0  0  0  0  0  0
   38.4890   19.5780   31.4900 C   0  0  0  0  0  0  0  0  0  0  0  0
   39.8470   19.7950   31.5420 C   0  0  0  0  0  0  0  0  0  0  0  0
   40.3300   20.7150   32.4070 N   0  0  0  0  0  0  0  0  0  0  0  0
   39.5580   21.4310   33.2160 C   0  0  0  0  0  0  0  0  0  0  0  0
   38.2120   21.2450   33.1940 N   0  0  0  0  0  0  0  0  0  0  0  0
   37.8290   18.6670   30.6560 N   0  0  0  0  0  0  0  0  0  0  0  0
   37.3570   17.5460   31.2490 C   0  0  0  0  0  0  0  0  0  0  0  0
   36.7020   16.6240   30.4670 C   0  0  0  0  0  0  0  0  0  0  0  0
   36.5670   16.8980   29.1290 C   0  0  0  0  0  0  0  0  0  0  0  0
   35.9060   15.9770   28.3070 N   0  0  0  0  0  0  0  0  0  0  0  0
   37.0550   18.0300   28.5830 N   0  0  0  0  0  0  0  0  0  0  0  0
   37.6990   18.9380   29.3530 C   0  0  0  0  0  0  0  0  0  0  0  0
   38.1400   19.9770   28.8160 O   0  0  0  0  0  0  0  0  0  0  0  0
   41.2944   22.4534   33.8760 H   0  0  0  0  0  0  0  0  0  0  0  0
   40.1103   22.1251   35.1558 H   0  0  0  0  0  0  0  0  0  0  0  0
   40.2342   24.5480   34.1683 H   0  0  0  0  0  0  0  0  0  0  0  0
   40.1343   24.6708   32.0132 H   0  0  0  0  0  0  0  0  0  0  0  0
   39.5582   22.9867   31.8498 H   0  0  0  0  0  0  0  0  0  0  0  0
   37.8437   24.7051   31.0594 H   0  0  0  0  0  0  0  0  0  0  0  0
   37.2183   23.7000   32.3765 H   0  0  0  0  0  0  0  0  0  0  0  0
   38.6467   26.3780   32.7253 H   0  0  0  0  0  0  0  0  0  0  0  0
   36.8437   26.1247   32.7428 H   0  0  0  0  0  0  0  0  0  0  0  0
   38.5988   26.0405   34.9388 H   0  0  0  0  0  0  0  0  0  0  0  0
   36.8804   25.5604   34.8977 H   0  0  0  0  0  0  0  0  0  0  0  0
   37.5451   23.2039   34.2361 H   0  0  0  0  0  0  0  0  0  0  0  0
   37.6784   22.8951   36.2260 H   0  0  0  0  0  0  0  0  0  0  0  0
   38.9978   25.5976   36.9230 H   0  0  0  0  0  0  0  0  0  0  0  0
   37.2622   25.4739   36.4971 H   0  0  0  0  0  0  0  0  0  0  0  0
   38.2355   25.2217   39.0356 H   0  0  0  0  0  0  0  0  0  0  0  0
   36.7169   24.4312   38.4396 H   0  0  0  0  0  0  0  0  0  0  0  0
   38.4496   23.0003   39.7179 H   0  0  0  0  0  0  0  0  0  0  0  0
   37.7353   22.3608   38.2026 H   0  0  0  0  0  0  0  0  0  0  0  0
   40.3777   23.8482   38.4500 H   0  0  0  0  0  0  0  0  0  0  0  0
   40.1403   22.0435   38.2593 H   0  0  0  0  0  0  0  0  0  0  0  0
   39.9729   22.2008   36.0626 H   0  0  0  0  0  0  0  0  0  0  0  0
   40.5617   23.8839   36.2137 H   0  0  0  0  0  0  0  0  0  0  0  0
   36.6153   20.1875   32.3290 H   0  0  0  0  0  0  0  0  0  0  0  0
   40.5286   19.2289   30.8901 H   0  0  0  0  0  0  0  0  0  0  0  0
   37.4936   17.3769   32.3273 H   0  0  0  0  0  0  0  0  0  0  0  0
   36.2991   15.6965   30.8999 H   0  0  0  0  0  0  0  0  0  0  0  0
   35.7975   16.1697   27.3010 H   0  0  0  0  0  0  0  0  0  0  0  0
   35.5283   15.1068   28.7083 H   0  0  0  0  0  0  0  0  0  0  0  0
  2  1  1  0
  2  7  1  0
  3  2  1  0
  4  3  1  0
  4  5  1  0
  5  6  1  0
  6  7  1  0
  7  8  1  0
  8 13  1  0
  8  9  1  0
  9 10  1  0
 10 11  1  0
 12 11  1  0
 13 12  1  0
 14 19  2  0
 15 16  2  0
 15 14  1  0
 16 17  1  0
 17 18  2  0
 18  1  1  0
 19 18  1  0
 20 21  1  0
 20 15  1  0
 22 21  2  0
 23 22  1  0
 24 23  1  0
 25 23  2  0
 25 26  1  0
 26 20  1  0
 27 26  2  0
  1 28  1  0
  1 29  1  0
  2 30  1  1
  3 31  1  0
  3 32  1  0
  4 33  1  0
  4 34  1  0
  5 35  1  0
  5 36  1  0
  6 37  1  0
  6 38  1  0
  7 39  1  6
  8 40  1  0
  9 41  1  0
  9 42  1  0
 10 43  1  0
 10 44  1  0
 11 45  1  0
 11 46  1  0
 12 47  1  0
 12 48  1  0
 13 49  1  0
 13 50  1  0
 14 51  1  0
 16 52  1  0
 21 53  1  0
 22 54  1  0
 24 55  1  0
 24 56  1  0
M  ISO  8  28   8  29   8  30  13  31  13  32  13  33  13  34  13  35  13
M  ISO  8  36  13  37  13  38  13  39  13  40  13  41  13  42  13  43  13
M  ISO  8  44  13  45  13  46  13  47  13  48  13  49  13  50  13  51  14
M  ISO  3  52  14  53  14  54  14
M  END
>  <minimizedAffinity>  (1) 
-4.84815502

>  <minimizedRMSD>  (1) 
2.48126245

$$$$
