
     RDKit          3D

 42 44  0  0  0  0  0  0  0  0999 V2000
   38.7130   22.2180   35.6780 C   0  0  0  0  0  0  0  0  0  0  0  0
   37.5230   21.6930   35.0430 C   0  0  0  0  0  0  0  0  0  0  0  0
   36.5270   20.9400   35.7310 C   0  0  0  0  0  0  0  0  0  0  0  0
   35.4970   20.6170   34.9350 N   0  0  0  0  0  0  0  0  0  0  0  0
   35.7340   21.1160   33.7130 C   0  0  0  0  0  0  0  0  0  0  0  0
   35.0490   21.1310   32.5230 C   0  0  0  0  0  0  0  0  0  0  0  0
   35.5130   21.7560   31.3700 C   0  0  0  0  0  0  0  0  0  0  0  0
   36.7370   22.3700   31.5040 C   0  0  0  0  0  0  0  0  0  0  0  0
   37.4280   22.3600   32.6780 C   0  0  0  0  0  0  0  0  0  0  0  0
   36.9520   21.7510   33.7980 C   0  0  0  0  0  0  0  0  0  0  0  0
   38.7820   22.9110   32.4030 C   0  0  0  0  0  0  0  0  0  0  0  0
   38.8490   23.2820   30.8800 C   0  0  0  0  0  0  0  0  0  0  0  0
   38.5300   23.3610   36.6450 C   0  0  0  0  0  0  0  0  0  0  0  0
   39.0370   24.6120   36.0060 C   0  0  0  0  0  0  0  0  0  0  0  0
   38.2780   25.7450   36.2260 C   0  0  0  0  0  0  0  0  0  0  0  0
   38.6750   26.9540   35.6480 C   0  0  0  0  0  0  0  0  0  0  0  0
   39.8050   26.9610   34.8850 N   0  0  0  0  0  0  0  0  0  0  0  0
   40.5440   25.8260   34.6800 C   0  0  0  0  0  0  0  0  0  0  0  0
   40.1020   24.7440   35.2570 N   0  0  0  0  0  0  0  0  0  0  0  0
   37.1430   23.5180   37.1270 C   0  0  0  0  0  0  0  0  0  0  0  0
   39.3950   23.0490   37.9000 C   0  0  0  0  0  0  0  0  0  0  0  0
   39.3885   22.5632   34.8814 H   0  0  0  0  0  0  0  0  0  0  0  0
   39.0985   21.3883   36.2887 H   0  0  0  0  0  0  0  0  0  0  0  0
   36.5953   20.6567   36.7917 H   0  0  0  0  0  0  0  0  0  0  0  0
   34.6654   20.0775   35.2147 H   0  0  0  0  0  0  0  0  0  0  0  0
   34.0765   20.6189   32.4788 H   0  0  0  0  0  0  0  0  0  0  0  0
   34.9468   21.7591   30.4269 H   0  0  0  0  0  0  0  0  0  0  0  0
   37.1717   22.8857   30.6350 H   0  0  0  0  0  0  0  0  0  0  0  0
   38.9517   23.8093   33.0147 H   0  0  0  0  0  0  0  0  0  0  0  0
   39.5560   22.1702   32.6523 H   0  0  0  0  0  0  0  0  0  0  0  0
   39.0436   24.3594   30.7733 H   0  0  0  0  0  0  0  0  0  0  0  0
   39.6591   22.7137   30.3995 H   0  0  0  0  0  0  0  0  0  0  0  0
   37.8914   23.0330   30.3995 H   0  0  0  0  0  0  0  0  0  0  0  0
   37.3723   25.6963   36.8484 H   0  0  0  0  0  0  0  0  0  0  0  0
   38.0923   27.8738   35.8042 H   0  0  0  0  0  0  0  0  0  0  0  0
   41.4561   25.8276   34.0651 H   0  0  0  0  0  0  0  0  0  0  0  0
   37.1350   23.5189   38.2270 H   0  0  0  0  0  0  0  0  0  0  0  0
   36.7315   24.4685   36.7565 H   0  0  0  0  0  0  0  0  0  0  0  0
   36.5294   22.6836   36.7565 H   0  0  0  0  0  0  0  0  0  0  0  0
   38.8119   23.2593   38.8087 H   0  0  0  0  0  0  0  0  0  0  0  0
   39.6876   21.9887   37.8893 H   0  0  0  0  0  0  0  0  0  0  0  0
   40.2971   23.6784   37.8893 H   0  0  0  0  0  0  0  0  0  0  0  0
  1 13  1  0
  2  1  1  0
  2  3  2  0
  4  3  1  0
  5 10  2  0
  5  4  1  0
  6  5  1  0
  7  8  1  0
  7  6  2  0
  8  9  2  0
  9 10  1  0
 10  2  1  0
 11  9  1  0
 12 11  1  0
 13 20  1  0
 13 21  1  0
 14 15  2  0
 14 13  1  0
 16 15  1  0
 17 16  2  0
 18 17  1  0
 18 19  2  0
 19 14  1  0
  1 22  1  0
  1 23  1  0
  3 24  1  0
  4 25  1  0
  6 26  1  0
  7 27  1  0
  8 28  1  0
 11 29  1  0
 11 30  1  0
 12 31  1  0
 12 32  1  0
 12 33  1  0
 15 34  1  0
 16 35  1  0
 18 36  1  0
 20 37  1  0
 20 38  1  0
 20 39  1  0
 21 40  1  0
 21 41  1  0
 21 42  1  0
M  ISO  8  22   8  23   8  24  14  25   9  26  14  27  14  28  14  29   8
M  ISO  8  30   8  31   8  32   8  33   8  34  14  35  14  36  14  37   8
M  ISO  5  38   8  39   8  40   8  41   8  42   8
M  END
>  <minimizedAffinity>  (1) 
-5.09146929

>  <minimizedRMSD>  (1) 
0.182196885

$$$$
