
     RDKit          3D

 49 52  0  0  1  0  0  0  0  0999 V2000
   38.5520   23.4030   36.5860 C   0  0  1  0  0  0  0  0  0  0  0  0
   38.8750   24.7580   36.0380 C   0  0  0  0  0  0  0  0  0  0  0  0
   38.0930   25.8100   36.5640 C   0  0  0  0  0  0  0  0  0  0  0  0
   38.3390   27.0760   36.0680 C   0  0  0  0  0  0  0  0  0  0  0  0
   39.2980   27.2700   35.1150 N   0  0  0  0  0  0  0  0  0  0  0  0
   40.0190   26.2530   34.6410 C   0  0  0  0  0  0  0  0  0  0  0  0
   39.7770   25.0520   35.1200 N   0  0  0  0  0  0  0  0  0  0  0  0
   37.2690   23.3230   37.2380 C   0  0  0  0  0  0  0  0  0  0  0  0
   38.7180   22.3760   35.4540 C   0  0  0  0  0  0  0  0  0  0  0  0
   37.5500   21.7570   34.9760 C   0  0  0  0  0  0  0  0  0  0  0  0
   36.6000   21.1430   35.8600 C   0  0  0  0  0  0  0  0  0  0  0  0
   35.5560   20.6360   35.2060 N   0  0  0  0  0  0  0  0  0  0  0  0
   35.7220   20.8590   33.8870 C   0  0  0  0  0  0  0  0  0  0  0  0
   34.9960   20.5500   32.7710 C   0  0  0  0  0  0  0  0  0  0  0  0
   35.4200   20.8820   31.4980 C   0  0  0  0  0  0  0  0  0  0  0  0
   36.6240   21.5450   31.4240 C   0  0  0  0  0  0  0  0  0  0  0  0
   37.3260   21.8460   32.5210 C   0  0  0  0  0  0  0  0  0  0  0  0
   36.9160   21.5240   33.7820 C   0  0  0  0  0  0  0  0  0  0  0  0
   38.5860   22.5290   32.1310 C   0  0  0  0  0  0  0  0  0  0  0  0
   38.9530   23.6200   32.7740 F   0  0  0  0  0  0  0  0  0  0  0  0
   38.9720   22.2090   30.8690 F   0  0  0  0  0  0  0  0  0  0  0  0
   39.7140   21.7580   32.6800 F   0  0  0  0  0  0  0  0  0  0  0  0
   39.6000   23.0930   37.6530 C   0  0  0  0  0  0  0  0  0  0  0  0
   40.8930   22.6410   37.2020 C   0  0  0  0  0  0  0  0  0  0  0  0
   41.2250   21.3120   37.5110 C   0  0  0  0  0  0  0  0  0  0  0  0
   42.4130   20.7120   37.1530 C   0  0  0  0  0  0  0  0  0  0  0  0
   43.3630   21.4190   36.4460 C   0  0  0  0  0  0  0  0  0  0  0  0
   43.0890   22.7280   36.1150 C   0  0  0  0  0  0  0  0  0  0  0  0
   41.9010   23.2640   36.4970 C   0  0  0  0  0  0  0  0  0  0  0  0
   37.3255   25.6302   37.3312 H   0  0  0  0  0  0  0  0  0  0  0  0
   37.7592   27.9324   36.4428 H   0  0  0  0  0  0  0  0  0  0  0  0
   40.7912   26.4134   33.8742 H   0  0  0  0  0  0  0  0  0  0  0  0
   37.4108   23.3318   38.3288 H   0  0  0  0  0  0  0  0  0  0  0  0
   36.6526   24.1845   36.9414 H   0  0  0  0  0  0  0  0  0  0  0  0
   36.7644   22.3916   36.9414 H   0  0  0  0  0  0  0  0  0  0  0  0
   39.1911   22.8916   34.6053 H   0  0  0  0  0  0  0  0  0  0  0  0
   39.3130   21.5616   35.8930 H   0  0  0  0  0  0  0  0  0  0  0  0
   36.7204   21.0965   36.9524 H   0  0  0  0  0  0  0  0  0  0  0  0
   34.7545   20.1534   35.6369 H   0  0  0  0  0  0  0  0  0  0  0  0
   34.0404   20.0183   32.8901 H   0  0  0  0  0  0  0  0  0  0  0  0
   34.8331   20.6324   30.6018 H   0  0  0  0  0  0  0  0  0  0  0  0
   37.0179   21.8341   30.4385 H   0  0  0  0  0  0  0  0  0  0  0  0
   39.7571   24.0114   38.2378 H   0  0  0  0  0  0  0  0  0  0  0  0
   39.1857   22.2434   38.2156 H   0  0  0  0  0  0  0  0  0  0  0  0
   40.4926   20.7136   38.0727 H   0  0  0  0  0  0  0  0  0  0  0  0
   42.6042   19.6653   37.4322 H   0  0  0  0  0  0  0  0  0  0  0  0
   44.3143   20.9501   36.1541 H   0  0  0  0  0  0  0  0  0  0  0  0
   43.8189   23.3279   35.5517 H   0  0  0  0  0  0  0  0  0  0  0  0
   41.7232   24.3115   36.2123 H   0  0  0  0  0  0  0  0  0  0  0  0
  1  9  1  6
  1  8  1  0
  1 23  1  0
  2  3  2  0
  2  1  1  0
  4  3  1  0
  5  4  2  0
  6  5  1  0
  6  7  2  0
  7  2  1  0
 10  9  1  0
 10 11  2  0
 12 11  1  0
 13 12  1  0
 14 13  2  0
 15 14  1  0
 16 15  2  0
 16 17  1  0
 17 18  2  0
 18 13  1  0
 18 10  1  0
 19 17  1  0
 19 22  1  0
 19 20  1  0
 21 19  1  0
 24 25  2  0
 24 23  1  0
 26 25  1  0
 27 26  2  0
 28 27  1  0
 28 29  2  0
 29 24  1  0
  3 30  1  0
  4 31  1  0
  6 32  1  0
  8 33  1  0
  8 34  1  0
  8 35  1  0
  9 36  1  0
  9 37  1  0
 11 38  1  0
 12 39  1  0
 14 40  1  0
 15 41  1  0
 16 42  1  0
 23 43  1  0
 23 44  1  0
 25 45  1  0
 26 46  1  0
 27 47  1  0
 28 48  1  0
 29 49  1  0
M  ISO  8  30  14  31  14  32  14  33   8  34   8  35   8  36   8  37   8
M  ISO  8  38  14  39   9  40  14  41  14  42  14  43   8  44   8  45  14
M  ISO  4  46  14  47  14  48  14  49  14
M  END
>  <minimizedAffinity>  (1) 
-6.45621061

>  <minimizedRMSD>  (1) 
0.708098888

$$$$
