
     RDKit          3D

 39 41  0  0  0  0  0  0  0  0999 V2000
   38.7170   22.3850   35.3380 C   0  0  0  0  0  0  0  0  0  0  0  0
   37.5150   21.7050   34.9360 C   0  0  0  0  0  0  0  0  0  0  0  0
   36.5820   21.1180   35.8330 C   0  0  0  0  0  0  0  0  0  0  0  0
   35.5030   20.6120   35.1950 N   0  0  0  0  0  0  0  0  0  0  0  0
   35.6760   20.8400   33.8740 C   0  0  0  0  0  0  0  0  0  0  0  0
   34.9150   20.5720   32.7570 C   0  0  0  0  0  0  0  0  0  0  0  0
   35.3250   20.9300   31.4740 C   0  0  0  0  0  0  0  0  0  0  0  0
   36.5310   21.5560   31.3960 C   0  0  0  0  0  0  0  0  0  0  0  0
   37.2750   21.8190   32.4880 C   0  0  0  0  0  0  0  0  0  0  0  0
   36.8820   21.4850   33.7470 C   0  0  0  0  0  0  0  0  0  0  0  0
   38.5160   22.5290   32.0600 C   0  0  0  0  0  0  0  0  0  0  0  0
   38.9850   23.5470   32.7830 F   0  0  0  0  0  0  0  0  0  0  0  0
   38.8270   22.2960   30.7660 F   0  0  0  0  0  0  0  0  0  0  0  0
   39.6540   21.6950   32.5230 F   0  0  0  0  0  0  0  0  0  0  0  0
   38.5940   23.3880   36.4700 C   0  0  0  0  0  0  0  0  0  0  0  0
   39.0550   24.7150   35.9490 C   0  0  0  0  0  0  0  0  0  0  0  0
   38.2050   25.7910   36.2400 C   0  0  0  0  0  0  0  0  0  0  0  0
   38.5650   27.0460   35.7550 C   0  0  0  0  0  0  0  0  0  0  0  0
   39.7110   27.1690   35.0310 N   0  0  0  0  0  0  0  0  0  0  0  0
   40.5050   26.1150   34.7740 C   0  0  0  0  0  0  0  0  0  0  0  0
   40.1470   24.9410   35.2410 N   0  0  0  0  0  0  0  0  0  0  0  0
   37.2640   23.4460   37.0590 C   0  0  0  0  0  0  0  0  0  0  0  0
   39.5490   22.9480   37.5990 C   0  0  0  0  0  0  0  0  0  0  0  0
   39.1045   22.9217   34.4595 H   0  0  0  0  0  0  0  0  0  0  0  0
   39.3766   21.5949   35.7261 H   0  0  0  0  0  0  0  0  0  0  0  0
   36.7221   21.0797   36.9234 H   0  0  0  0  0  0  0  0  0  0  0  0
   34.6991   20.1407   35.6337 H   0  0  0  0  0  0  0  0  0  0  0  0
   33.9507   20.0578   32.8822 H   0  0  0  0  0  0  0  0  0  0  0  0
   34.7143   20.7205   30.5834 H   0  0  0  0  0  0  0  0  0  0  0  0
   36.9109   21.8572   30.4086 H   0  0  0  0  0  0  0  0  0  0  0  0
   37.2873   25.6494   36.8298 H   0  0  0  0  0  0  0  0  0  0  0  0
   37.9330   27.9241   35.9540 H   0  0  0  0  0  0  0  0  0  0  0  0
   41.4289   26.2327   34.1888 H   0  0  0  0  0  0  0  0  0  0  0  0
   37.3482   23.4423   38.1558 H   0  0  0  0  0  0  0  0  0  0  0  0
   36.7585   24.3670   36.7332 H   0  0  0  0  0  0  0  0  0  0  0  0
   36.6803   22.5725   36.7332 H   0  0  0  0  0  0  0  0  0  0  0  0
   39.0867   23.1610   38.5741 H   0  0  0  0  0  0  0  0  0  0  0  0
   39.7448   21.8689   37.5139 H   0  0  0  0  0  0  0  0  0  0  0  0
   40.4964   23.5004   37.5139 H   0  0  0  0  0  0  0  0  0  0  0  0
  1 15  1  0
  2  1  1  0
  2  3  2  0
  4  3  1  0
  5  4  1  0
  6  5  2  0
  7  6  1  0
  8  7  2  0
  8  9  1  0
  9 10  2  0
 10  5  1  0
 10  2  1  0
 11  9  1  0
 11 14  1  0
 11 12  1  0
 13 11  1  0
 15 22  1  0
 15 23  1  0
 16 17  2  0
 16 15  1  0
 18 17  1  0
 19 18  2  0
 20 19  1  0
 20 21  2  0
 21 16  1  0
  1 24  1  0
  1 25  1  0
  3 26  1  0
  4 27  1  0
  6 28  1  0
  7 29  1  0
  8 30  1  0
 17 31  1  0
 18 32  1  0
 20 33  1  0
 22 34  1  0
 22 35  1  0
 22 36  1  0
 23 37  1  0
 23 38  1  0
 23 39  1  0
M  ISO  8  24   8  25   8  26  14  27   9  28  14  29  14  30  14  31  14
M  ISO  8  32  14  33  14  34   8  35   8  36   8  37   8  38   8  39   8
M  END
>  <minimizedAffinity>  (1) 
-5.45102882

>  <minimizedRMSD>  (1) 
0.65655309

$$$$
