
     RDKit          3D

 48 51  0  0  1  0  0  0  0  0999 V2000
   40.6460   22.4730   34.8060 C   0  0  0  0  0  0  0  0  0  0  0  0
   40.4470   23.9400   34.3980 C   0  0  1  0  0  0  0  0  0  0  0  0
   40.8020   24.1810   33.0260 C   0  0  0  0  0  0  0  0  0  0  0  0
   39.6700   25.0300   32.4040 C   0  0  0  0  0  0  0  0  0  0  0  0
   39.5380   26.2430   33.2740 C   0  0  0  0  0  0  0  0  0  0  0  0
   39.0690   25.9170   34.6700 C   0  0  0  0  0  0  0  0  0  0  0  0
   39.0400   24.3930   34.7950 C   0  0  2  0  0  0  0  0  0  0  0  0
   38.8980   24.1090   36.2490 C   0  0  0  0  0  0  0  0  0  0  0  0
   37.8880   24.6160   37.0280 C   0  0  0  0  0  0  0  0  0  0  0  0
   37.8780   24.2650   38.3810 C   0  0  0  0  0  0  0  0  0  0  0  0
   38.8310   23.4600   38.8750 N   0  0  0  0  0  0  0  0  0  0  0  0
   39.8270   22.9590   38.1040 C   0  0  0  0  0  0  0  0  0  0  0  0
   39.8480   23.2940   36.7870 N   0  0  0  0  0  0  0  0  0  0  0  0
   38.0760   20.9720   32.5920 C   0  0  0  0  0  0  0  0  0  0  0  0
   38.8450   20.2070   31.7250 C   0  0  0  0  0  0  0  0  0  0  0  0
   40.2120   20.2210   31.9210 C   0  0  0  0  0  0  0  0  0  0  0  0
   40.7270   20.9680   32.9290 N   0  0  0  0  0  0  0  0  0  0  0  0
   39.9710   21.6950   33.7470 C   0  0  0  0  0  0  0  0  0  0  0  0
   38.6200   21.7050   33.5860 N   0  0  0  0  0  0  0  0  0  0  0  0
   38.1650   19.4860   30.7300 N   0  0  0  0  0  0  0  0  0  0  0  0
   37.5110   18.3710   31.1500 C   0  0  0  0  0  0  0  0  0  0  0  0
   36.8340   17.6380   30.1990 C   0  0  0  0  0  0  0  0  0  0  0  0
   36.8640   18.0800   28.8920 C   0  0  0  0  0  0  0  0  0  0  0  0
   36.1840   17.3450   27.9180 N   0  0  0  0  0  0  0  0  0  0  0  0
   37.5260   19.1840   28.5470 N   0  0  0  0  0  0  0  0  0  0  0  0
   38.1930   19.9120   29.4710 C   0  0  0  0  0  0  0  0  0  0  0  0
   38.8010   20.9400   29.1020 O   0  0  0  0  0  0  0  0  0  0  0  0
   41.7166   22.2237   34.8480 H   0  0  0  0  0  0  0  0  0  0  0  0
   40.2371   22.2593   35.8046 H   0  0  0  0  0  0  0  0  0  0  0  0
   41.1503   24.5771   34.9543 H   0  0  0  0  0  0  0  0  0  0  0  0
   41.7553   24.7274   32.9736 H   0  0  0  0  0  0  0  0  0  0  0  0
   40.9236   23.2330   32.4816 H   0  0  0  0  0  0  0  0  0  0  0  0
   39.9323   25.3231   31.3767 H   0  0  0  0  0  0  0  0  0  0  0  0
   38.7264   24.4671   32.3515 H   0  0  0  0  0  0  0  0  0  0  0  0
   40.5191   26.7360   33.3397 H   0  0  0  0  0  0  0  0  0  0  0  0
   38.7808   26.8964   32.8160 H   0  0  0  0  0  0  0  0  0  0  0  0
   39.7635   26.3423   35.4095 H   0  0  0  0  0  0  0  0  0  0  0  0
   38.0716   26.3423   34.8553 H   0  0  0  0  0  0  0  0  0  0  0  0
   38.2492   23.9148   34.1984 H   0  0  0  0  0  0  0  0  0  0  0  0
   37.1154   25.2739   36.6035 H   0  0  0  0  0  0  0  0  0  0  0  0
   37.0873   24.6495   39.0420 H   0  0  0  0  0  0  0  0  0  0  0  0
   40.5966   22.2999   38.5322 H   0  0  0  0  0  0  0  0  0  0  0  0
   36.9835   20.9809   32.4639 H   0  0  0  0  0  0  0  0  0  0  0  0
   40.8745   19.6339   31.2680 H   0  0  0  0  0  0  0  0  0  0  0  0
   37.5215   18.0657   32.2067 H   0  0  0  0  0  0  0  0  0  0  0  0
   36.2848   16.7256   30.4744 H   0  0  0  0  0  0  0  0  0  0  0  0
   36.1938   17.6576   26.9366 H   0  0  0  0  0  0  0  0  0  0  0  0
   35.6728   16.4904   28.1812 H   0  0  0  0  0  0  0  0  0  0  0  0
  2  7  1  0
  2  1  1  0
  3  2  1  0
  4  3  1  0
  4  5  1  0
  5  6  1  0
  6  7  1  0
  7  8  1  0
  8 13  1  0
  8  9  2  0
  9 10  1  0
 10 11  2  0
 12 11  1  0
 13 12  2  0
 14 19  2  0
 15 16  2  0
 15 14  1  0
 16 17  1  0
 17 18  2  0
 18  1  1  0
 19 18  1  0
 20 21  1  0
 20 15  1  0
 22 21  2  0
 23 22  1  0
 24 23  1  0
 25 23  2  0
 25 26  1  0
 26 20  1  0
 27 26  2  0
  1 28  1  0
  1 29  1  0
  2 30  1  1
  3 31  1  0
  3 32  1  0
  4 33  1  0
  4 34  1  0
  5 35  1  0
  5 36  1  0
  6 37  1  0
  6 38  1  0
  7 39  1  6
  9 40  1  0
 10 41  1  0
 12 42  1  0
 14 43  1  0
 16 44  1  0
 21 45  1  0
 22 46  1  0
 24 47  1  0
 24 48  1  0
M  ISO  8  28   8  29   8  30  13  31  13  32  13  33  13  34  13  35  13
M  ISO  8  36  13  37  13  38  13  39  13  40  14  41  14  42  14  43  14
M  ISO  3  44  14  45  14  46  14
M  END
>  <minimizedAffinity>  (1) 
-4.74001837

>  <minimizedRMSD>  (1) 
2.05992937

$$$$
