
     RDKit          3D

 46 49  0  0  1  0  0  0  0  0999 V2000
   38.6200   23.3870   36.5460 C   0  0  1  0  0  0  0  0  0  0  0  0
   38.9570   24.7630   36.0180 C   0  0  0  0  0  0  0  0  0  0  0  0
   38.0720   25.7370   36.4370 C   0  0  0  0  0  0  0  0  0  0  0  0
   38.2940   27.0460   35.9670 C   0  0  0  0  0  0  0  0  0  0  0  0
   39.3570   27.2720   35.1330 N   0  0  0  0  0  0  0  0  0  0  0  0
   40.1840   26.2720   34.7590 C   0  0  0  0  0  0  0  0  0  0  0  0
   39.9610   25.0470   35.2110 N   0  0  0  0  0  0  0  0  0  0  0  0
   37.3410   23.3010   37.1990 C   0  0  0  0  0  0  0  0  0  0  0  0
   38.6080   22.5380   35.2940 C   0  0  0  0  0  0  0  0  0  0  0  0
   37.4890   21.7320   34.9370 C   0  0  0  0  0  0  0  0  0  0  0  0
   36.5960   21.1600   35.8360 C   0  0  0  0  0  0  0  0  0  0  0  0
   35.5360   20.6330   35.2060 N   0  0  0  0  0  0  0  0  0  0  0  0
   35.6910   20.8320   33.8760 C   0  0  0  0  0  0  0  0  0  0  0  0
   34.9600   20.5470   32.7650 C   0  0  0  0  0  0  0  0  0  0  0  0
   35.3730   20.8910   31.4740 C   0  0  0  0  0  0  0  0  0  0  0  0
   36.5650   21.5360   31.3880 C   0  0  0  0  0  0  0  0  0  0  0  0
   37.2930   21.8240   32.4800 C   0  0  0  0  0  0  0  0  0  0  0  0
   36.8870   21.4950   33.7260 C   0  0  0  0  0  0  0  0  0  0  0  0
   38.5650   22.4770   32.0620 C   0  0  0  0  0  0  0  0  0  0  0  0
   39.0970   23.4750   32.7360 F   0  0  0  0  0  0  0  0  0  0  0  0
   38.8950   22.1960   30.7780 F   0  0  0  0  0  0  0  0  0  0  0  0
   39.6830   21.6140   32.5470 F   0  0  0  0  0  0  0  0  0  0  0  0
   39.6870   22.9360   37.5090 C   0  0  0  0  0  0  0  0  0  0  0  0
   40.7570   22.1400   36.8950 C   0  0  0  0  0  0  0  0  0  0  0  0
   41.5640   21.2650   37.6320 C   0  0  0  0  0  0  0  0  0  0  0  0
   42.4840   20.6480   36.8050 C   0  0  0  0  0  0  0  0  0  0  0  0
   42.2140   21.1620   35.5770 N   0  0  0  0  0  0  0  0  0  0  0  0
   41.2140   22.0250   35.6380 N   0  0  0  0  0  0  0  0  0  0  0  0
   37.2322   25.5012   37.1071 H   0  0  0  0  0  0  0  0  0  0  0  0
   37.6278   27.8696   36.2634 H   0  0  0  0  0  0  0  0  0  0  0  0
   41.0320   26.4722   34.0876 H   0  0  0  0  0  0  0  0  0  0  0  0
   37.4847   23.3107   38.2895 H   0  0  0  0  0  0  0  0  0  0  0  0
   36.7199   24.1594   36.9034 H   0  0  0  0  0  0  0  0  0  0  0  0
   36.8404   22.3672   36.9034 H   0  0  0  0  0  0  0  0  0  0  0  0
   38.7707   23.2281   34.4530 H   0  0  0  0  0  0  0  0  0  0  0  0
   39.3731   21.7813   35.5219 H   0  0  0  0  0  0  0  0  0  0  0  0
   36.7407   21.1420   36.9263 H   0  0  0  0  0  0  0  0  0  0  0  0
   34.7406   20.1584   35.6566 H   0  0  0  0  0  0  0  0  0  0  0  0
   34.0009   20.0224   32.8875 H   0  0  0  0  0  0  0  0  0  0  0  0
   34.7706   20.6542   30.5846 H   0  0  0  0  0  0  0  0  0  0  0  0
   36.9445   21.8304   30.3984 H   0  0  0  0  0  0  0  0  0  0  0  0
   40.1399   23.8290   37.9645 H   0  0  0  0  0  0  0  0  0  0  0  0
   39.1926   22.2850   38.2451 H   0  0  0  0  0  0  0  0  0  0  0  0
   41.4782   21.0929   38.7151 H   0  0  0  0  0  0  0  0  0  0  0  0
   43.2550   19.9123   37.0778 H   0  0  0  0  0  0  0  0  0  0  0  0
   42.7198   20.9132   34.7149 H   0  0  0  0  0  0  0  0  0  0  0  0
  1  9  1  6
  1  8  1  0
  1 23  1  0
  2  3  2  0
  2  1  1  0
  4  3  1  0
  5  4  2  0
  6  5  1  0
  6  7  2  0
  7  2  1  0
 10  9  1  0
 10 11  2  0
 12 11  1  0
 13 12  1  0
 14 13  2  0
 15 14  1  0
 16 15  2  0
 16 17  1  0
 17 18  2  0
 18 13  1  0
 18 10  1  0
 19 17  1  0
 19 22  1  0
 19 20  1  0
 21 19  1  0
 24 23  1  0
 24 25  1  0
 26 25  2  0
 27 28  1  0
 27 26  1  0
 28 24  2  0
  3 29  1  0
  4 30  1  0
  6 31  1  0
  8 32  1  0
  8 33  1  0
  8 34  1  0
  9 35  1  0
  9 36  1  0
 11 37  1  0
 12 38  1  0
 14 39  1  0
 15 40  1  0
 16 41  1  0
 23 42  1  0
 23 43  1  0
 25 44  1  0
 26 45  1  0
 27 46  1  0
M  ISO  8  29  14  30  14  31  14  32   8  33   8  34   8  35   8  36   8
M  ISO  8  37  14  38   9  39  14  40  14  41  14  42   8  43   8  44  14
M  ISO  2  45  14  46   9
M  END
>  <minimizedAffinity>  (1) 
-5.99868393

>  <minimizedRMSD>  (1) 
0.654959261

$$$$
