
     RDKit          3D

 40 42  0  0  1  0  0  0  0  0999 V2000
   38.6990   22.2640   35.4230 C   0  0  0  0  0  0  0  0  0  0  0  0
   37.5240   21.7080   34.8910 C   0  0  0  0  0  0  0  0  0  0  0  0
   36.5610   21.0450   35.7220 C   0  0  0  0  0  0  0  0  0  0  0  0
   35.5060   20.6180   35.0320 N   0  0  0  0  0  0  0  0  0  0  0  0
   35.6810   20.9490   33.7330 C   0  0  0  0  0  0  0  0  0  0  0  0
   34.9380   20.7520   32.5900 C   0  0  0  0  0  0  0  0  0  0  0  0
   35.3890   21.1910   31.3600 C   0  0  0  0  0  0  0  0  0  0  0  0
   36.5870   21.8200   31.3290 C   0  0  0  0  0  0  0  0  0  0  0  0
   37.3090   22.0130   32.4500 C   0  0  0  0  0  0  0  0  0  0  0  0
   36.8940   21.5950   33.6830 C   0  0  0  0  0  0  0  0  0  0  0  0
   38.5820   22.7040   32.1310 C   0  0  0  0  0  0  0  0  0  0  0  0
   38.9560   23.7400   32.8580 F   0  0  0  0  0  0  0  0  0  0  0  0
   38.9690   22.4920   30.8460 F   0  0  0  0  0  0  0  0  0  0  0  0
   39.6890   21.8820   32.6070 F   0  0  0  0  0  0  0  0  0  0  0  0
   38.5390   23.3280   36.5190 C   0  0  1  0  0  0  0  0  0  0  0  0
   38.8580   24.6670   35.9250 C   0  0  0  0  0  0  0  0  0  0  0  0
   37.7720   25.5690   35.8980 C   0  0  0  0  0  0  0  0  0  0  0  0
   38.0110   26.8090   35.3360 C   0  0  0  0  0  0  0  0  0  0  0  0
   39.2460   27.1160   34.8450 N   0  0  0  0  0  0  0  0  0  0  0  0
   40.2460   26.2350   34.8930 C   0  0  0  0  0  0  0  0  0  0  0  0
   40.0180   25.0570   35.4250 N   0  0  0  0  0  0  0  0  0  0  0  0
   37.2760   23.2650   37.1960 C   0  0  0  0  0  0  0  0  0  0  0  0
   39.6170   23.0530   37.5770 C   0  0  0  0  0  0  0  0  0  0  0  0
   40.0030   21.7690   37.7160 O   0  0  0  0  0  0  0  0  0  0  0  0
   39.2928   21.4402   35.8458 H   0  0  0  0  0  0  0  0  0  0  0  0
   39.1685   22.7933   34.5807 H   0  0  0  0  0  0  0  0  0  0  0  0
   36.6808   20.9053   36.8065 H   0  0  0  0  0  0  0  0  0  0  0  0
   34.6934   20.1195   35.4219 H   0  0  0  0  0  0  0  0  0  0  0  0
   33.9688   20.2362   32.6576 H   0  0  0  0  0  0  0  0  0  0  0  0
   34.7992   21.0358   30.4445 H   0  0  0  0  0  0  0  0  0  0  0  0
   36.9799   22.1816   30.3673 H   0  0  0  0  0  0  0  0  0  0  0  0
   36.7859   25.2986   36.3036 H   0  0  0  0  0  0  0  0  0  0  0  0
   37.2013   27.5518   35.2845 H   0  0  0  0  0  0  0  0  0  0  0  0
   41.2396   26.4898   34.4957 H   0  0  0  0  0  0  0  0  0  0  0  0
   37.4420   23.2733   38.2834 H   0  0  0  0  0  0  0  0  0  0  0  0
   36.6640   24.1337   36.9119 H   0  0  0  0  0  0  0  0  0  0  0  0
   36.7534   22.3397   36.9119 H   0  0  0  0  0  0  0  0  0  0  0  0
   40.5062   23.6434   37.3109 H   0  0  0  0  0  0  0  0  0  0  0  0
   39.1607   23.3281   38.5393 H   0  0  0  0  0  0  0  0  0  0  0  0
   40.0698   21.5468   38.6784 H   0  0  0  0  0  0  0  0  0  0  0  0
  2  1  1  0
  2  3  2  0
  4  3  1  0
  5  4  1  0
  6  5  2  0
  7  6  1  0
  8  7  2  0
  8  9  1  0
  9 10  2  0
 10  5  1  0
 10  2  1  0
 11  9  1  0
 11 14  1  0
 11 12  1  0
 13 11  1  0
 15  1  1  6
 15 22  1  0
 15 23  1  0
 16 15  1  0
 17 16  2  0
 18 17  1  0
 19 20  1  0
 19 18  2  0
 20 21  2  0
 21 16  1  0
 23 24  1  0
  1 25  1  0
  1 26  1  0
  3 27  1  0
  4 28  1  0
  6 29  1  0
  7 30  1  0
  8 31  1  0
 17 32  1  0
 18 33  1  0
 20 34  1  0
 22 35  1  0
 22 36  1  0
 22 37  1  0
 23 38  1  0
 23 39  1  0
 24 40  1  0
M  ISO  8  25   8  26   8  27  14  28   9  29  14  30  14  31  14  32  14
M  ISO  8  33  14  34  14  35   8  36   8  37   8  38   8  39   8  40   3
M  END
>  <minimizedAffinity>  (1) 
-5.49032354

>  <minimizedRMSD>  (1) 
0.334227026

$$$$
