
     RDKit          3D

 41 43  0  0  1  0  0  0  0  0999 V2000
   38.6930   22.2100   35.5210 C   0  0  0  0  0  0  0  0  0  0  0  0
   37.5240   21.6740   34.9670 C   0  0  0  0  0  0  0  0  0  0  0  0
   36.5200   21.0480   35.7810 C   0  0  0  0  0  0  0  0  0  0  0  0
   35.4770   20.6330   35.0650 N   0  0  0  0  0  0  0  0  0  0  0  0
   35.6970   20.9340   33.7680 C   0  0  0  0  0  0  0  0  0  0  0  0
   34.9830   20.7320   32.6110 C   0  0  0  0  0  0  0  0  0  0  0  0
   35.4790   21.1380   31.3840 C   0  0  0  0  0  0  0  0  0  0  0  0
   36.6920   21.7370   31.3780 C   0  0  0  0  0  0  0  0  0  0  0  0
   37.3850   21.9320   32.5130 C   0  0  0  0  0  0  0  0  0  0  0  0
   36.9200   21.5470   33.7410 C   0  0  0  0  0  0  0  0  0  0  0  0
   38.6850   22.5780   32.2110 C   0  0  0  0  0  0  0  0  0  0  0  0
   39.0750   23.6140   32.9270 F   0  0  0  0  0  0  0  0  0  0  0  0
   39.1130   22.3120   30.9500 F   0  0  0  0  0  0  0  0  0  0  0  0
   39.7580   21.7300   32.7540 F   0  0  0  0  0  0  0  0  0  0  0  0
   38.5190   23.3020   36.5910 C   0  0  1  0  0  0  0  0  0  0  0  0
   38.8730   24.6170   35.9800 C   0  0  0  0  0  0  0  0  0  0  0  0
   37.8100   25.5440   35.9470 C   0  0  0  0  0  0  0  0  0  0  0  0
   38.0770   26.7690   35.3620 C   0  0  0  0  0  0  0  0  0  0  0  0
   39.3080   27.0430   34.8540 N   0  0  0  0  0  0  0  0  0  0  0  0
   40.2980   26.1370   34.9040 C   0  0  0  0  0  0  0  0  0  0  0  0
   40.0330   24.9700   35.4630 N   0  0  0  0  0  0  0  0  0  0  0  0
   37.2470   23.2620   37.2480 C   0  0  0  0  0  0  0  0  0  0  0  0
   39.5750   23.0400   37.6810 C   0  0  0  0  0  0  0  0  0  0  0  0
   40.2300   21.7970   37.6120 N   0  0  0  0  0  0  0  0  0  0  0  0
   39.2535   21.3819   35.9794 H   0  0  0  0  0  0  0  0  0  0  0  0
   39.2050   22.7075   34.6841 H   0  0  0  0  0  0  0  0  0  0  0  0
   36.6032   20.9254   36.8710 H   0  0  0  0  0  0  0  0  0  0  0  0
   34.6414   20.1608   35.4388 H   0  0  0  0  0  0  0  0  0  0  0  0
   34.0008   20.2393   32.6609 H   0  0  0  0  0  0  0  0  0  0  0  0
   34.9118   20.9805   30.4548 H   0  0  0  0  0  0  0  0  0  0  0  0
   37.1210   22.0722   30.4222 H   0  0  0  0  0  0  0  0  0  0  0  0
   36.8207   25.3053   36.3645 H   0  0  0  0  0  0  0  0  0  0  0  0
   37.2844   27.5298   35.3073 H   0  0  0  0  0  0  0  0  0  0  0  0
   41.2943   26.3589   34.4939 H   0  0  0  0  0  0  0  0  0  0  0  0
   37.3969   23.2667   38.3377 H   0  0  0  0  0  0  0  0  0  0  0  0
   36.6554   24.1420   36.9554 H   0  0  0  0  0  0  0  0  0  0  0  0
   36.7118   22.3466   36.9554 H   0  0  0  0  0  0  0  0  0  0  0  0
   40.3385   23.8285   37.6078 H   0  0  0  0  0  0  0  0  0  0  0  0
   39.0261   23.0362   38.6343 H   0  0  0  0  0  0  0  0  0  0  0  0
   40.4121   21.4515   38.5651 H   0  0  0  0  0  0  0  0  0  0  0  0
   39.6347   21.1226   37.1102 H   0  0  0  0  0  0  0  0  0  0  0  0
  2  1  1  0
  2  3  2  0
  4  3  1  0
  5  4  1  0
  6  5  2  0
  7  6  1  0
  8  7  2  0
  8  9  1  0
  9 10  2  0
 10  5  1  0
 10  2  1  0
 11  9  1  0
 11 14  1  0
 11 12  1  0
 13 11  1  0
 15  1  1  6
 15 22  1  0
 15 23  1  0
 16 15  1  0
 17 16  2  0
 18 17  1  0
 19 20  1  0
 19 18  2  0
 20 21  2  0
 21 16  1  0
 24 23  1  0
  1 25  1  0
  1 26  1  0
  3 27  1  0
  4 28  1  0
  6 29  1  0
  7 30  1  0
  8 31  1  0
 17 32  1  0
 18 33  1  0
 20 34  1  0
 22 35  1  0
 22 36  1  0
 22 37  1  0
 23 38  1  0
 23 39  1  0
 24 40  1  0
 24 41  1  0
M  ISO  8  25   8  26   8  27  14  28   9  29  14  30  14  31  14  32  14
M  ISO  8  33  14  34  14  35   8  36   8  37   8  38   8  39   8  40   5
M  ISO  1  41   5
M  END
>  <minimizedAffinity>  (1) 
-5.54746962

>  <minimizedRMSD>  (1) 
0.362719119

$$$$
