
     RDKit          3D

 44 46  0  0  1  0  0  0  0  0999 V2000
   38.5770   23.3010   36.5140 C   0  0  1  0  0  0  0  0  0  0  0  0
   39.1940   24.5210   35.9450 C   0  0  0  0  0  0  0  0  0  0  0  0
   38.3990   25.6710   36.0240 C   0  0  0  0  0  0  0  0  0  0  0  0
   38.9240   26.8320   35.5040 C   0  0  0  0  0  0  0  0  0  0  0  0
   40.1650   26.8340   34.9410 N   0  0  0  0  0  0  0  0  0  0  0  0
   40.9110   25.7110   34.8780 C   0  0  0  0  0  0  0  0  0  0  0  0
   40.3840   24.6080   35.3850 N   0  0  0  0  0  0  0  0  0  0  0  0
   37.2410   23.4760   37.0030 C   0  0  0  0  0  0  0  0  0  0  0  0
   38.6930   22.1350   35.4960 C   0  0  0  0  0  0  0  0  0  0  0  0
   37.5280   21.6590   34.9310 C   0  0  0  0  0  0  0  0  0  0  0  0
   36.5310   21.0320   35.7590 C   0  0  0  0  0  0  0  0  0  0  0  0
   35.4800   20.6440   35.0580 N   0  0  0  0  0  0  0  0  0  0  0  0
   35.6670   20.9580   33.7640 C   0  0  0  0  0  0  0  0  0  0  0  0
   34.9180   20.7770   32.6340 C   0  0  0  0  0  0  0  0  0  0  0  0
   35.3840   21.1980   31.4010 C   0  0  0  0  0  0  0  0  0  0  0  0
   36.6050   21.7920   31.3670 C   0  0  0  0  0  0  0  0  0  0  0  0
   37.3310   21.9640   32.4860 C   0  0  0  0  0  0  0  0  0  0  0  0
   36.8960   21.5600   33.7170 C   0  0  0  0  0  0  0  0  0  0  0  0
   38.6210   22.6010   32.1780 C   0  0  0  0  0  0  0  0  0  0  0  0
   39.0080   23.6450   32.8540 F   0  0  0  0  0  0  0  0  0  0  0  0
   39.0380   22.3090   30.9130 F   0  0  0  0  0  0  0  0  0  0  0  0
   39.6910   21.7350   32.6890 F   0  0  0  0  0  0  0  0  0  0  0  0
   39.4190   22.8830   37.7330 C   0  0  0  0  0  0  0  0  0  0  0  0
   40.3130   21.8230   37.5610 N   0  0  0  0  0  0  0  0  0  0  0  0
   41.6320   21.3280   37.5320 C   0  0  0  0  0  0  0  0  0  0  0  0
   42.4280   21.8290   36.7310 O   0  0  0  0  0  0  0  0  0  0  0  0
   42.2500   20.3430   38.2570 O   0  0  0  0  0  0  0  0  0  0  0  0
   37.3989   25.6474   36.4815 H   0  0  0  0  0  0  0  0  0  0  0  0
   38.3391   27.7628   35.5430 H   0  0  0  0  0  0  0  0  0  0  0  0
   41.9134   25.7125   34.4250 H   0  0  0  0  0  0  0  0  0  0  0  0
   37.2501   23.4748   38.1030 H   0  0  0  0  0  0  0  0  0  0  0  0
   36.8405   24.4343   36.6406 H   0  0  0  0  0  0  0  0  0  0  0  0
   36.6072   22.6532   36.6406 H   0  0  0  0  0  0  0  0  0  0  0  0
   39.3397   22.4786   34.6752 H   0  0  0  0  0  0  0  0  0  0  0  0
   39.0824   21.2905   36.0836 H   0  0  0  0  0  0  0  0  0  0  0  0
   36.6320   20.8925   36.8454 H   0  0  0  0  0  0  0  0  0  0  0  0
   34.6478   20.1745   35.4427 H   0  0  0  0  0  0  0  0  0  0  0  0
   33.9338   20.2911   32.7062 H   0  0  0  0  0  0  0  0  0  0  0  0
   34.7900   21.0574   30.4859 H   0  0  0  0  0  0  0  0  0  0  0  0
   37.0084   22.1395   30.4044 H   0  0  0  0  0  0  0  0  0  0  0  0
   40.0032   23.7603   38.0476 H   0  0  0  0  0  0  0  0  0  0  0  0
   38.6879   22.5192   38.4700 H   0  0  0  0  0  0  0  0  0  0  0  0
   39.7194   21.0067   37.3556 H   0  0  0  0  0  0  0  0  0  0  0  0
   43.2031   20.1314   38.0927 H   0  0  0  0  0  0  0  0  0  0  0  0
  1  9  1  6
  1  8  1  0
  1 23  1  0
  2  3  2  0
  2  1  1  0
  4  3  1  0
  5  4  2  0
  6  5  1  0
  6  7  2  0
  7  2  1  0
 10  9  1  0
 10 11  2  0
 12 11  1  0
 13 12  1  0
 14 13  2  0
 15 14  1  0
 16 15  2  0
 16 17  1  0
 17 18  2  0
 18 13  1  0
 18 10  1  0
 19 17  1  0
 19 22  1  0
 19 20  1  0
 21 19  1  0
 24 23  1  0
 25 24  1  0
 25 27  1  0
 26 25  2  0
  3 28  1  0
  4 29  1  0
  6 30  1  0
  8 31  1  0
  8 32  1  0
  8 33  1  0
  9 34  1  0
  9 35  1  0
 11 36  1  0
 12 37  1  0
 14 38  1  0
 15 39  1  0
 16 40  1  0
 23 41  1  0
 23 42  1  0
 24 43  1  0
 27 44  1  0
M  ISO  8  28  14  29  14  30  14  31   8  32   8  33   8  34   8  35   8
M  ISO  8  36  14  37   9  38  14  39  14  40  14  41   8  42   8  44   3
M  END
>  <minimizedAffinity>  (1) 
-6.27149296

>  <minimizedRMSD>  (1) 
0.573376119

$$$$
