
     RDKit          3D

 57 60  0  0  1  0  0  0  0  0999 V2000
   38.5950   23.2770   36.4640 C   0  0  1  0  0  0  0  0  0  0  0  0
   39.0050   24.6050   35.9580 C   0  0  0  0  0  0  0  0  0  0  0  0
   38.1400   25.6560   36.3130 C   0  0  0  0  0  0  0  0  0  0  0  0
   38.4690   26.9150   35.8630 C   0  0  0  0  0  0  0  0  0  0  0  0
   39.5870   27.1050   35.1100 N   0  0  0  0  0  0  0  0  0  0  0  0
   40.3920   26.0830   34.7880 C   0  0  0  0  0  0  0  0  0  0  0  0
   40.0600   24.8800   35.2300 N   0  0  0  0  0  0  0  0  0  0  0  0
   37.3110   23.2440   37.1040 C   0  0  0  0  0  0  0  0  0  0  0  0
   38.7140   22.2260   35.3270 C   0  0  0  0  0  0  0  0  0  0  0  0
   37.5480   21.7110   34.7990 C   0  0  0  0  0  0  0  0  0  0  0  0
   36.5940   21.0610   35.6590 C   0  0  0  0  0  0  0  0  0  0  0  0
   35.5390   20.6320   34.9930 N   0  0  0  0  0  0  0  0  0  0  0  0
   35.6800   20.9350   33.6910 C   0  0  0  0  0  0  0  0  0  0  0  0
   34.9100   20.7210   32.5790 C   0  0  0  0  0  0  0  0  0  0  0  0
   35.3290   21.1450   31.3290 C   0  0  0  0  0  0  0  0  0  0  0  0
   36.5240   21.7760   31.2610 C   0  0  0  0  0  0  0  0  0  0  0  0
   37.2790   21.9850   32.3570 C   0  0  0  0  0  0  0  0  0  0  0  0
   36.8910   21.5800   33.6030 C   0  0  0  0  0  0  0  0  0  0  0  0
   38.5380   22.6640   32.0070 C   0  0  0  0  0  0  0  0  0  0  0  0
   38.9310   23.6940   32.6950 F   0  0  0  0  0  0  0  0  0  0  0  0
   38.8980   22.4170   30.7150 F   0  0  0  0  0  0  0  0  0  0  0  0
   39.6490   21.8070   32.4390 F   0  0  0  0  0  0  0  0  0  0  0  0
   39.6170   22.8500   37.5310 C   0  0  0  0  0  0  0  0  0  0  0  0
   40.3820   21.7300   37.2850 N   0  0  0  0  0  0  0  0  0  0  0  0
   41.7490   21.5940   37.1760 C   0  0  0  0  0  0  0  0  0  0  0  0
   42.2070   20.8440   35.9160 C   0  0  0  0  0  0  0  0  0  0  0  0
   43.7180   20.6900   36.0630 C   0  0  0  0  0  0  0  0  0  0  0  0
   44.4180   22.0120   35.9500 C   0  0  0  0  0  0  0  0  0  0  0  0
   43.3600   23.0800   35.8920 C   0  0  0  0  0  0  0  0  0  0  0  0
   42.3310   23.0180   36.9570 C   0  0  0  0  0  0  0  0  0  0  0  0
   37.2414   25.4800   36.9225 H   0  0  0  0  0  0  0  0  0  0  0  0
   37.8254   27.7713   36.1131 H   0  0  0  0  0  0  0  0  0  0  0  0
   41.2949   26.2379   34.1791 H   0  0  0  0  0  0  0  0  0  0  0  0
   37.4453   23.2475   38.1958 H   0  0  0  0  0  0  0  0  0  0  0  0
   36.7287   24.1275   36.8034 H   0  0  0  0  0  0  0  0  0  0  0  0
   36.7748   22.3318   36.8034 H   0  0  0  0  0  0  0  0  0  0  0  0
   39.2670   22.6978   34.5014 H   0  0  0  0  0  0  0  0  0  0  0  0
   39.2073   21.3636   35.7992 H   0  0  0  0  0  0  0  0  0  0  0  0
   36.7287   20.9366   36.7436 H   0  0  0  0  0  0  0  0  0  0  0  0
   34.7331   20.1415   35.4062 H   0  0  0  0  0  0  0  0  0  0  0  0
   33.9441   20.2045   32.6802 H   0  0  0  0  0  0  0  0  0  0  0  0
   34.7171   20.9762   30.4307 H   0  0  0  0  0  0  0  0  0  0  0  0
   36.8888   22.1277   30.2847 H   0  0  0  0  0  0  0  0  0  0  0  0
   40.3088   23.6927   37.6766 H   0  0  0  0  0  0  0  0  0  0  0  0
   39.0047   22.5774   38.4032 H   0  0  0  0  0  0  0  0  0  0  0  0
   40.1250   21.0799   38.0414 H   0  0  0  0  0  0  0  0  0  0  0  0
   42.0754   21.0553   38.0778 H   0  0  0  0  0  0  0  0  0  0  0  0
   41.9653   21.4244   35.0134 H   0  0  0  0  0  0  0  0  0  0  0  0
   41.7046   19.8708   35.8139 H   0  0  0  0  0  0  0  0  0  0  0  0
   43.9387   20.2515   37.0474 H   0  0  0  0  0  0  0  0  0  0  0  0
   44.0791   20.0376   35.2544 H   0  0  0  0  0  0  0  0  0  0  0  0
   45.0644   22.1708   36.8257 H   0  0  0  0  0  0  0  0  0  0  0  0
   45.0480   22.0412   35.0487 H   0  0  0  0  0  0  0  0  0  0  0  0
   43.8607   24.0570   35.9611 H   0  0  0  0  0  0  0  0  0  0  0  0
   42.8237   22.9223   34.9446 H   0  0  0  0  0  0  0  0  0  0  0  0
   42.7851   23.3571   37.8998 H   0  0  0  0  0  0  0  0  0  0  0  0
   41.4979   23.6621   36.6391 H   0  0  0  0  0  0  0  0  0  0  0  0
  1  9  1  6
  1  8  1  0
  1 23  1  0
  2  3  2  0
  2  1  1  0
  4  3  1  0
  5  4  2  0
  6  5  1  0
  6  7  2  0
  7  2  1  0
 10  9  1  0
 10 11  2  0
 12 11  1  0
 13 12  1  0
 14 13  2  0
 15 14  1  0
 16 15  2  0
 16 17  1  0
 17 18  2  0
 18 13  1  0
 18 10  1  0
 19 17  1  0
 19 22  1  0
 19 20  1  0
 21 19  1  0
 24 23  1  0
 25 24  1  0
 26 27  1  0
 26 25  1  0
 28 27  1  0
 29 28  1  0
 29 30  1  0
 30 25  1  0
  3 31  1  0
  4 32  1  0
  6 33  1  0
  8 34  1  0
  8 35  1  0
  8 36  1  0
  9 37  1  0
  9 38  1  0
 11 39  1  0
 12 40  1  0
 14 41  1  0
 15 42  1  0
 16 43  1  0
 23 44  1  0
 23 45  1  0
 24 46  1  0
 25 47  1  0
 26 48  1  0
 26 49  1  0
 27 50  1  0
 27 51  1  0
 28 52  1  0
 28 53  1  0
 29 54  1  0
 29 55  1  0
 30 56  1  0
 30 57  1  0
M  ISO  8  31  14  32  14  33  14  34   8  35   8  36   8  37   8  38   8
M  ISO  8  39  14  40   9  41  14  42  14  43  14  44   8  45   8  46   5
M  ISO  8  47  13  48  13  49  13  50  13  51  13  52  13  53  13  54  13
M  ISO  3  55  13  56  13  57  13
M  END
>  <minimizedAffinity>  (1) 
-6.19955492

>  <minimizedRMSD>  (1) 
1.10453331

$$$$
