
     RDKit          3D

 44 46  0  0  1  0  0  0  0  0999 V2000
   38.6980   22.2320   35.4480 C   0  0  0  0  0  0  0  0  0  0  0  0
   37.5430   21.7250   34.8870 C   0  0  0  0  0  0  0  0  0  0  0  0
   36.5730   21.0610   35.7360 C   0  0  0  0  0  0  0  0  0  0  0  0
   35.5290   20.6420   35.0470 N   0  0  0  0  0  0  0  0  0  0  0  0
   35.6880   20.9620   33.7470 C   0  0  0  0  0  0  0  0  0  0  0  0
   34.9280   20.7620   32.6270 C   0  0  0  0  0  0  0  0  0  0  0  0
   35.3600   21.2030   31.3960 C   0  0  0  0  0  0  0  0  0  0  0  0
   36.5600   21.8380   31.3370 C   0  0  0  0  0  0  0  0  0  0  0  0
   37.2980   22.0280   32.4450 C   0  0  0  0  0  0  0  0  0  0  0  0
   36.8950   21.6040   33.6840 C   0  0  0  0  0  0  0  0  0  0  0  0
   38.5660   22.7070   32.1240 C   0  0  0  0  0  0  0  0  0  0  0  0
   38.9430   23.7430   32.8170 F   0  0  0  0  0  0  0  0  0  0  0  0
   38.9630   22.4540   30.8470 F   0  0  0  0  0  0  0  0  0  0  0  0
   39.6690   21.8580   32.5960 F   0  0  0  0  0  0  0  0  0  0  0  0
   38.5640   23.3700   36.4870 C   0  0  1  0  0  0  0  0  0  0  0  0
   39.1050   24.6280   35.9280 C   0  0  0  0  0  0  0  0  0  0  0  0
   38.2730   25.7520   36.1230 C   0  0  0  0  0  0  0  0  0  0  0  0
   38.7290   26.9500   35.6140 C   0  0  0  0  0  0  0  0  0  0  0  0
   39.9220   27.0170   34.9610 N   0  0  0  0  0  0  0  0  0  0  0  0
   40.6830   25.9280   34.7970 C   0  0  0  0  0  0  0  0  0  0  0  0
   40.2330   24.7870   35.2910 N   0  0  0  0  0  0  0  0  0  0  0  0
   37.2310   23.4680   37.0220 C   0  0  0  0  0  0  0  0  0  0  0  0
   39.4570   22.9690   37.6730 C   0  0  0  0  0  0  0  0  0  0  0  0
   40.1240   21.7440   37.5770 N   0  0  0  0  0  0  0  0  0  0  0  0
   41.5200   21.6590   37.4540 C   0  0  0  0  0  0  0  0  0  0  0  0
   39.2147   21.3966   35.9432 H   0  0  0  0  0  0  0  0  0  0  0  0
   39.2327   22.6929   34.6044 H   0  0  0  0  0  0  0  0  0  0  0  0
   36.6929   20.9236   36.8208 H   0  0  0  0  0  0  0  0  0  0  0  0
   34.7169   20.1464   35.4417 H   0  0  0  0  0  0  0  0  0  0  0  0
   33.9615   20.2434   32.7107 H   0  0  0  0  0  0  0  0  0  0  0  0
   34.7543   21.0466   30.4912 H   0  0  0  0  0  0  0  0  0  0  0  0
   36.9333   22.2020   30.3684 H   0  0  0  0  0  0  0  0  0  0  0  0
   37.3120   25.6762   36.6528 H   0  0  0  0  0  0  0  0  0  0  0  0
   38.1232   27.8599   35.7367 H   0  0  0  0  0  0  0  0  0  0  0  0
   41.6474   25.9804   34.2705 H   0  0  0  0  0  0  0  0  0  0  0  0
   37.2759   23.4647   38.1211 H   0  0  0  0  0  0  0  0  0  0  0  0
   36.7652   24.4028   36.6768 H   0  0  0  0  0  0  0  0  0  0  0  0
   36.6335   22.6114   36.6768 H   0  0  0  0  0  0  0  0  0  0  0  0
   40.2185   23.7533   37.7956 H   0  0  0  0  0  0  0  0  0  0  0  0
   38.7693   22.8551   38.5240 H   0  0  0  0  0  0  0  0  0  0  0  0
   39.8778   21.2156   38.4261 H   0  0  0  0  0  0  0  0  0  0  0  0
   41.9753   21.6313   38.4550 H   0  0  0  0  0  0  0  0  0  0  0  0
   41.7847   20.7431   36.9053 H   0  0  0  0  0  0  0  0  0  0  0  0
   41.8938   22.5360   36.9053 H   0  0  0  0  0  0  0  0  0  0  0  0
  2  1  1  0
  2  3  2  0
  4  3  1  0
  5  4  1  0
  6  5  2  0
  7  6  1  0
  8  7  2  0
  8  9  1  0
  9 10  2  0
 10  5  1  0
 10  2  1  0
 11  9  1  0
 11 14  1  0
 11 12  1  0
 13 11  1  0
 15  1  1  6
 15 22  1  0
 15 23  1  0
 16 17  2  0
 16 15  1  0
 18 17  1  0
 19 18  2  0
 20 19  1  0
 20 21  2  0
 21 16  1  0
 24 23  1  0
 25 24  1  0
  1 26  1  0
  1 27  1  0
  3 28  1  0
  4 29  1  0
  6 30  1  0
  7 31  1  0
  8 32  1  0
 17 33  1  0
 18 34  1  0
 20 35  1  0
 22 36  1  0
 22 37  1  0
 22 38  1  0
 23 39  1  0
 23 40  1  0
 24 41  1  0
 25 42  1  0
 25 43  1  0
 25 44  1  0
M  ISO  8  26   8  27   8  28  14  29   9  30  14  31  14  32  14  33  14
M  ISO  8  34  14  35  14  36   8  37   8  38   8  39   8  40   8  41   5
M  ISO  3  42   8  43   8  44   8
M  END
>  <minimizedAffinity>  (1) 
-5.61523533

>  <minimizedRMSD>  (1) 
0.318758816

$$$$
