
     RDKit          3D

 47 50  0  0  1  0  0  0  0  0999 V2000
   38.5150   23.3430   36.6630 C   0  0  1  0  0  0  0  0  0  0  0  0
   38.9430   24.6380   36.0840 C   0  0  0  0  0  0  0  0  0  0  0  0
   38.1080   25.7230   36.3980 C   0  0  0  0  0  0  0  0  0  0  0  0
   38.4560   26.9510   35.8840 C   0  0  0  0  0  0  0  0  0  0  0  0
   39.5680   27.0810   35.1060 N   0  0  0  0  0  0  0  0  0  0  0  0
   40.3500   26.0240   34.8210 C   0  0  0  0  0  0  0  0  0  0  0  0
   40.0040   24.8470   35.3220 N   0  0  0  0  0  0  0  0  0  0  0  0
   37.2140   23.3540   37.2610 C   0  0  0  0  0  0  0  0  0  0  0  0
   38.6800   22.2250   35.5940 C   0  0  0  0  0  0  0  0  0  0  0  0
   37.5310   21.6880   35.0540 C   0  0  0  0  0  0  0  0  0  0  0  0
   36.5400   21.0840   35.9050 C   0  0  0  0  0  0  0  0  0  0  0  0
   35.5050   20.6340   35.2200 N   0  0  0  0  0  0  0  0  0  0  0  0
   35.6870   20.8740   33.9140 C   0  0  0  0  0  0  0  0  0  0  0  0
   34.9570   20.6150   32.7900 C   0  0  0  0  0  0  0  0  0  0  0  0
   35.4260   20.9820   31.5330 C   0  0  0  0  0  0  0  0  0  0  0  0
   36.6300   21.6010   31.4760 C   0  0  0  0  0  0  0  0  0  0  0  0
   37.3430   21.8510   32.5900 C   0  0  0  0  0  0  0  0  0  0  0  0
   36.9090   21.5060   33.8380 C   0  0  0  0  0  0  0  0  0  0  0  0
   38.6190   22.5000   32.2550 C   0  0  0  0  0  0  0  0  0  0  0  0
   38.9910   23.5740   32.8930 F   0  0  0  0  0  0  0  0  0  0  0  0
   39.0330   22.1680   30.9950 F   0  0  0  0  0  0  0  0  0  0  0  0
   39.7110   21.6740   32.7900 F   0  0  0  0  0  0  0  0  0  0  0  0
   39.5010   22.9990   37.7940 C   0  0  0  0  0  0  0  0  0  0  0  0
   40.3210   21.8780   37.5950 N   0  0  0  0  0  0  0  0  0  0  0  0
   41.6640   21.7280   37.0880 C   0  0  0  0  0  0  0  0  0  0  0  0
   42.4420   22.8710   36.5220 C   0  0  0  0  0  0  0  0  0  0  0  0
   44.0040   21.9070   36.0610 S   0  0  0  0  0  0  0  0  0  0  0  0
   43.3160   20.2620   36.6950 C   0  0  0  0  0  0  0  0  0  0  0  0
   42.1540   20.5150   37.1320 N   0  0  0  0  0  0  0  0  0  0  0  0
   37.2148   25.5965   37.0274 H   0  0  0  0  0  0  0  0  0  0  0  0
   37.8342   27.8318   36.1018 H   0  0  0  0  0  0  0  0  0  0  0  0
   41.2466   26.1331   34.1931 H   0  0  0  0  0  0  0  0  0  0  0  0
   37.3140   23.3532   38.3564 H   0  0  0  0  0  0  0  0  0  0  0  0
   36.6719   24.2568   36.9430 H   0  0  0  0  0  0  0  0  0  0  0  0
   36.6567   22.4605   36.9430 H   0  0  0  0  0  0  0  0  0  0  0  0
   39.2686   22.6454   34.7653 H   0  0  0  0  0  0  0  0  0  0  0  0
   39.1545   21.3906   36.1312 H   0  0  0  0  0  0  0  0  0  0  0  0
   36.6339   21.0064   36.9982 H   0  0  0  0  0  0  0  0  0  0  0  0
   34.6816   20.1686   35.6278 H   0  0  0  0  0  0  0  0  0  0  0  0
   33.9844   20.1090   32.8796 H   0  0  0  0  0  0  0  0  0  0  0  0
   34.8434   20.7781   30.6225 H   0  0  0  0  0  0  0  0  0  0  0  0
   37.0332   21.9056   30.4989 H   0  0  0  0  0  0  0  0  0  0  0  0
   40.1567   23.8699   37.9411 H   0  0  0  0  0  0  0  0  0  0  0  0
   38.8714   22.7469   38.6601 H   0  0  0  0  0  0  0  0  0  0  0  0
   39.8778   20.9878   37.8633 H   0  0  0  0  0  0  0  0  0  0  0  0
   42.1876   23.9352   36.4091 H   0  0  0  0  0  0  0  0  0  0  0  0
   43.8218   19.2853   36.6860 H   0  0  0  0  0  0  0  0  0  0  0  0
  1  9  1  6
  1  8  1  0
  1 23  1  0
  2  3  2  0
  2  1  1  0
  4  3  1  0
  5  4  2  0
  6  5  1  0
  6  7  2  0
  7  2  1  0
 10  9  1  0
 10 11  2  0
 12 11  1  0
 13 12  1  0
 14 13  2  0
 15 14  1  0
 16 15  2  0
 16 17  1  0
 17 18  2  0
 18 13  1  0
 18 10  1  0
 19 17  1  0
 19 22  1  0
 19 20  1  0
 21 19  1  0
 24 23  1  0
 25 29  1  0
 25 24  1  0
 26 25  2  0
 27 26  1  0
 27 28  1  0
 28 29  2  0
  3 30  1  0
  4 31  1  0
  6 32  1  0
  8 33  1  0
  8 34  1  0
  8 35  1  0
  9 36  1  0
  9 37  1  0
 11 38  1  0
 12 39  1  0
 14 40  1  0
 15 41  1  0
 16 42  1  0
 23 43  1  0
 23 44  1  0
 24 45  1  0
 26 46  1  0
 28 47  1  0
M  ISO  8  30  14  31  14  32  14  33   8  34   8  35   8  36   8  37   8
M  ISO  8  38  14  39   9  40  14  41  14  42  14  43   8  44   8  46  14
M  ISO  1  47  14
M  END
>  <minimizedAffinity>  (1) 
-5.9866643

>  <minimizedRMSD>  (1) 
0.642999053

$$$$
