
     RDKit          3D

 47 49  0  0  1  0  0  0  0  0999 V2000
   38.6010   23.2610   36.3510 C   0  0  1  0  0  0  0  0  0  0  0  0
   39.0210   24.6260   35.8750 C   0  0  0  0  0  0  0  0  0  0  0  0
   38.1330   25.6580   36.2240 C   0  0  0  0  0  0  0  0  0  0  0  0
   38.4650   26.9310   35.8110 C   0  0  0  0  0  0  0  0  0  0  0  0
   39.5990   27.1570   35.1020 N   0  0  0  0  0  0  0  0  0  0  0  0
   40.4240   26.1540   34.7860 C   0  0  0  0  0  0  0  0  0  0  0  0
   40.1120   24.9340   35.1790 N   0  0  0  0  0  0  0  0  0  0  0  0
   37.3490   23.2270   37.0130 C   0  0  0  0  0  0  0  0  0  0  0  0
   38.7180   22.2770   35.1550 C   0  0  0  0  0  0  0  0  0  0  0  0
   37.5400   21.7420   34.6770 C   0  0  0  0  0  0  0  0  0  0  0  0
   36.6320   21.0570   35.5650 C   0  0  0  0  0  0  0  0  0  0  0  0
   35.5610   20.6210   34.9360 N   0  0  0  0  0  0  0  0  0  0  0  0
   35.6340   20.9460   33.6410 C   0  0  0  0  0  0  0  0  0  0  0  0
   34.8050   20.7280   32.5660 C   0  0  0  0  0  0  0  0  0  0  0  0
   35.1610   21.1810   31.3050 C   0  0  0  0  0  0  0  0  0  0  0  0
   36.3450   21.8410   31.1850 C   0  0  0  0  0  0  0  0  0  0  0  0
   37.1440   22.0460   32.2510 C   0  0  0  0  0  0  0  0  0  0  0  0
   36.8250   21.6140   33.5100 C   0  0  0  0  0  0  0  0  0  0  0  0
   38.3730   22.7520   31.8550 C   0  0  0  0  0  0  0  0  0  0  0  0
   38.8120   23.7440   32.5810 F   0  0  0  0  0  0  0  0  0  0  0  0
   38.6470   22.5870   30.5260 F   0  0  0  0  0  0  0  0  0  0  0  0
   39.5180   21.8850   32.1580 F   0  0  0  0  0  0  0  0  0  0  0  0
   39.6810   22.8450   37.3600 C   0  0  0  0  0  0  0  0  0  0  0  0
   40.2770   21.5760   37.1270 N   0  0  0  0  0  0  0  0  0  0  0  0
   41.9580   21.7570   36.7150 S   0  0  0  0  0  0  0  0  0  0  0  0
   42.1160   21.2690   35.0110 C   0  0  0  0  0  0  0  0  0  0  0  0
   42.7530   20.7600   37.5130 O   0  0  0  0  0  0  0  0  0  0  0  0
   42.4450   23.1280   36.9880 O   0  0  0  0  0  0  0  0  0  0  0  0
   37.2167   25.4596   36.7993 H   0  0  0  0  0  0  0  0  0  0  0  0
   37.8024   27.7732   36.0594 H   0  0  0  0  0  0  0  0  0  0  0  0
   41.3428   26.3417   34.2110 H   0  0  0  0  0  0  0  0  0  0  0  0
   37.5094   23.2314   38.1012 H   0  0  0  0  0  0  0  0  0  0  0  0
   36.7583   24.1094   36.7259 H   0  0  0  0  0  0  0  0  0  0  0  0
   36.8071   22.3138   36.7259 H   0  0  0  0  0  0  0  0  0  0  0  0
   39.2004   22.8155   34.3260 H   0  0  0  0  0  0  0  0  0  0  0  0
   39.2902   21.4200   35.5399 H   0  0  0  0  0  0  0  0  0  0  0  0
   36.8134   20.9158   36.6407 H   0  0  0  0  0  0  0  0  0  0  0  0
   34.7839   20.1070   35.3751 H   0  0  0  0  0  0  0  0  0  0  0  0
   33.8550   20.1917   32.7071 H   0  0  0  0  0  0  0  0  0  0  0  0
   34.5106   21.0132   30.4339 H   0  0  0  0  0  0  0  0  0  0  0  0
   36.6562   22.2147   30.1983 H   0  0  0  0  0  0  0  0  0  0  0  0
   40.4774   23.6034   37.3365 H   0  0  0  0  0  0  0  0  0  0  0  0
   39.1730   22.7671   38.3326 H   0  0  0  0  0  0  0  0  0  0  0  0
   40.1969   21.0026   37.9789 H   0  0  0  0  0  0  0  0  0  0  0  0
   42.4544   20.2237   34.9588 H   0  0  0  0  0  0  0  0  0  0  0  0
   41.1411   21.3642   34.5104 H   0  0  0  0  0  0  0  0  0  0  0  0
   42.8501   21.9175   34.5104 H   0  0  0  0  0  0  0  0  0  0  0  0
  1  9  1  6
  1  8  1  0
  1 23  1  0
  2  3  2  0
  2  1  1  0
  4  3  1  0
  5  4  2  0
  6  5  1  0
  6  7  2  0
  7  2  1  0
 10  9  1  0
 10 11  2  0
 12 11  1  0
 13 12  1  0
 14 13  2  0
 15 14  1  0
 16 15  2  0
 16 17  1  0
 17 18  2  0
 18 13  1  0
 18 10  1  0
 19 22  1  0
 19 17  1  0
 19 20  1  0
 21 19  1  0
 24 23  1  0
 25 28  2  0
 25 24  1  0
 25 27  2  0
 26 25  1  0
  3 29  1  0
  4 30  1  0
  6 31  1  0
  8 32  1  0
  8 33  1  0
  8 34  1  0
  9 35  1  0
  9 36  1  0
 11 37  1  0
 12 38  1  0
 14 39  1  0
 15 40  1  0
 16 41  1  0
 23 42  1  0
 23 43  1  0
 24 44  1  0
 26 45  1  0
 26 46  1  0
 26 47  1  0
M  ISO  8  29  14  30  14  31  14  32   8  33   8  34   8  35   8  36   8
M  ISO  8  37  14  38   9  39  14  40  14  41  14  42   8  43   8  44   5
M  ISO  3  45   8  46   8  47   8
M  END
>  <minimizedAffinity>  (1) 
-5.71049404

>  <minimizedRMSD>  (1) 
1.10940135

$$$$
