
     RDKit          3D

 32 35  0  0  0  0  0  0  0  0999 V2000
   39.4070   23.0040   37.8560 C   0  0  0  0  0  0  0  0  0  0  0  0
   40.5270   22.1640   37.6430 C   0  0  0  0  0  0  0  0  0  0  0  0
   41.2040   22.2950   36.4200 C   0  0  0  0  0  0  0  0  0  0  0  0
   40.7370   23.2170   35.5330 N   0  0  0  0  0  0  0  0  0  0  0  0
   39.6800   23.9880   35.7740 C   0  0  0  0  0  0  0  0  0  0  0  0
   39.0200   23.8750   36.9380 N   0  0  0  0  0  0  0  0  0  0  0  0
   39.3510   24.8860   34.7250 N   0  0  0  0  0  0  0  0  0  0  0  0
   39.4620   26.2150   34.9590 C   0  0  0  0  0  0  0  0  0  0  0  0
   39.0860   26.8850   33.7850 C   0  0  0  0  0  0  0  0  0  0  0  0
   38.7610   25.9360   32.8840 N   0  0  0  0  0  0  0  0  0  0  0  0
   38.9220   24.7320   33.4540 C   0  0  0  0  0  0  0  0  0  0  0  0
   38.7070   23.4310   32.9090 N   0  0  0  0  0  0  0  0  0  0  0  0
   39.4250   22.2900   32.8690 C   0  0  0  0  0  0  0  0  0  0  0  0
   38.7410   21.3440   32.2150 N   0  0  0  0  0  0  0  0  0  0  0  0
   37.5600   21.8330   31.8110 C   0  0  0  0  0  0  0  0  0  0  0  0
   36.5020   21.2830   31.1130 C   0  0  0  0  0  0  0  0  0  0  0  0
   35.4240   22.0800   30.8620 N   0  0  0  0  0  0  0  0  0  0  0  0
   35.3950   23.3600   31.2830 C   0  0  0  0  0  0  0  0  0  0  0  0
   36.4420   23.8550   31.9570 N   0  0  0  0  0  0  0  0  0  0  0  0
   37.5540   23.1380   32.2520 C   0  0  0  0  0  0  0  0  0  0  0  0
   38.7350   22.8580   39.0970 N   0  0  0  0  0  0  0  0  0  0  0  0
   36.5200   19.9330   30.6640 N   0  0  0  0  0  0  0  0  0  0  0  0
   40.8529   21.4394   38.4037 H   0  0  0  0  0  0  0  0  0  0  0  0
   42.0815   21.6743   36.1862 H   0  0  0  0  0  0  0  0  0  0  0  0
   39.7879   26.6843   35.8990 H   0  0  0  0  0  0  0  0  0  0  0  0
   39.0612   27.9737   33.6297 H   0  0  0  0  0  0  0  0  0  0  0  0
   40.4245   22.1569   33.3087 H   0  0  0  0  0  0  0  0  0  0  0  0
   34.5196   23.9928   31.0751 H   0  0  0  0  0  0  0  0  0  0  0  0
   37.9132   23.4415   39.3095 H   0  0  0  0  0  0  0  0  0  0  0  0
   39.0689   22.1685   39.7855 H   0  0  0  0  0  0  0  0  0  0  0  0
   35.7156   19.5518   30.1458 H   0  0  0  0  0  0  0  0  0  0  0  0
   37.3375   19.3369   30.8571 H   0  0  0  0  0  0  0  0  0  0  0  0
  1 21  1  0
  2  1  2  0
  3  2  1  0
  4  5  1  0
  4  3  2  0
  5  6  2  0
  6  1  1  0
  7  8  1  0
  7  5  1  0
  9  8  2  0
 10 11  2  0
 10  9  1  0
 11  7  1  0
 12 11  1  0
 13 12  1  0
 14 13  2  0
 15 14  1  0
 15 20  2  0
 16 15  1  0
 17 16  2  0
 17 18  1  0
 18 19  2  0
 19 20  1  0
 20 12  1  0
 22 16  1  0
  2 23  1  0
  3 24  1  0
  8 25  1  0
  9 26  1  0
 13 27  1  0
 18 28  1  0
 21 29  1  0
 21 30  1  0
 22 31  1  0
 22 32  1  0
M  ISO  6  23  14  24  14  25  14  26  14  27  14  28  14
M  END
>  <minimizedAffinity>  (1) 
-5.73774958

>  <minimizedRMSD>  (1) 
3.53748679

$$$$
