
     RDKit          3D

 35 37  0  0  0  0  0  0  0  0999 V2000
   38.8510   23.2710   37.5660 C   0  0  0  0  0  0  0  0  0  0  0  0
   40.1110   22.8170   37.0930 C   0  0  0  0  0  0  0  0  0  0  0  0
   40.5820   23.3710   35.9050 C   0  0  0  0  0  0  0  0  0  0  0  0
   39.8120   24.3060   35.2750 N   0  0  0  0  0  0  0  0  0  0  0  0
   38.6360   24.7060   35.7490 C   0  0  0  0  0  0  0  0  0  0  0  0
   38.1530   24.1800   36.9080 N   0  0  0  0  0  0  0  0  0  0  0  0
   37.9750   25.6780   34.9730 N   0  0  0  0  0  0  0  0  0  0  0  0
   37.7710   26.9000   35.4800 C   0  0  0  0  0  0  0  0  0  0  0  0
   37.1030   27.6860   34.5340 C   0  0  0  0  0  0  0  0  0  0  0  0
   36.9200   26.8900   33.4540 N   0  0  0  0  0  0  0  0  0  0  0  0
   37.4470   25.6890   33.7310 C   0  0  0  0  0  0  0  0  0  0  0  0
   37.4800   24.5150   32.8560 C   0  0  0  0  0  0  0  0  0  0  0  0
   36.2170   24.6030   31.9860 C   0  0  0  0  0  0  0  0  0  0  0  0
   35.9690   23.1540   31.5480 C   0  0  0  0  0  0  0  0  0  0  0  0
   37.1960   22.7200   30.8160 C   0  0  0  0  0  0  0  0  0  0  0  0
   38.2410   23.7680   30.6610 C   0  0  0  0  0  0  0  0  0  0  0  0
   38.6340   24.4930   31.9050 C   0  0  0  0  0  0  0  0  0  0  0  0
   38.3780   22.7030   38.7780 N   0  0  0  0  0  0  0  0  0  0  0  0
   40.6904   22.0599   37.6417 H   0  0  0  0  0  0  0  0  0  0  0  0
   41.5507   23.0627   35.4847 H   0  0  0  0  0  0  0  0  0  0  0  0
   38.0796   27.2337   36.4817 H   0  0  0  0  0  0  0  0  0  0  0  0
   36.7908   28.7349   34.6451 H   0  0  0  0  0  0  0  0  0  0  0  0
   37.5572   23.6230   33.4951 H   0  0  0  0  0  0  0  0  0  0  0  0
   35.3665   24.9868   32.5685 H   0  0  0  0  0  0  0  0  0  0  0  0
   36.3354   25.2892   31.1345 H   0  0  0  0  0  0  0  0  0  0  0  0
   35.8037   22.5137   32.4270 H   0  0  0  0  0  0  0  0  0  0  0  0
   35.0758   23.0770   30.9107 H   0  0  0  0  0  0  0  0  0  0  0  0
   37.6389   21.8752   31.3638 H   0  0  0  0  0  0  0  0  0  0  0  0
   36.8700   22.4588   29.7984 H   0  0  0  0  0  0  0  0  0  0  0  0
   39.1422   23.2862   30.2539 H   0  0  0  0  0  0  0  0  0  0  0  0
   37.7994   24.5301   30.0021 H   0  0  0  0  0  0  0  0  0  0  0  0
   39.4861   23.9798   32.3746 H   0  0  0  0  0  0  0  0  0  0  0  0
   38.9204   25.5247   31.6527 H   0  0  0  0  0  0  0  0  0  0  0  0
   37.4699   22.9974   39.1648 H   0  0  0  0  0  0  0  0  0  0  0  0
   38.9429   21.9965   39.2706 H   0  0  0  0  0  0  0  0  0  0  0  0
  1 18  1  0
  2  1  2  0
  3  2  1  0
  4  5  1  0
  4  3  2  0
  5  6  2  0
  6  1  1  0
  7  8  1  0
  7  5  1  0
  9  8  2  0
 10 11  2  0
 10  9  1  0
 11  7  1  0
 12 11  1  0
 13 12  1  0
 14 13  1  0
 15 14  1  0
 16 15  1  0
 16 17  1  0
 17 12  1  0
  2 19  1  0
  3 20  1  0
  8 21  1  0
  9 22  1  0
 12 23  1  0
 13 24  1  0
 13 25  1  0
 14 26  1  0
 14 27  1  0
 15 28  1  0
 15 29  1  0
 16 30  1  0
 16 31  1  0
 17 32  1  0
 17 33  1  0
 18 34  1  0
 18 35  1  0
M  ISO  8  19  14  20  14  21  14  22  14  23  13  24  13  25  13  26  13
M  ISO  7  27  13  28  13  29  13  30  13  31  13  32  13  33  13
M  END
>  <minimizedAffinity>  (1) 
-5.28610897

>  <minimizedRMSD>  (1) 
3.93800855

$$$$
