
     RDKit          3D

 47 50  0  0  1  0  0  0  0  0999 V2000
   40.3760   22.6740   35.1410 C   0  0  0  0  0  0  0  0  0  0  0  0
   40.1370   24.1380   34.7440 C   0  0  1  0  0  0  0  0  0  0  0  0
   40.4620   24.3970   33.3690 C   0  0  0  0  0  0  0  0  0  0  0  0
   39.2960   25.2190   32.7720 C   0  0  0  0  0  0  0  0  0  0  0  0
   39.1440   26.4220   33.6530 C   0  0  0  0  0  0  0  0  0  0  0  0
   38.7150   26.0770   35.0510 C   0  0  0  0  0  0  0  0  0  0  0  0
   38.7260   24.5490   35.1750 C   0  0  2  0  0  0  0  0  0  0  0  0
   38.5910   24.2530   36.5860 N   0  0  0  0  0  0  0  0  0  0  0  0
   37.8480   24.9960   37.4500 C   0  0  0  0  0  0  0  0  0  0  0  0
   38.0070   24.3520   38.6780 C   0  0  0  0  0  0  0  0  0  0  0  0
   38.8190   23.2680   38.5190 N   0  0  0  0  0  0  0  0  0  0  0  0
   39.1670   23.2300   37.2130 C   0  0  0  0  0  0  0  0  0  0  0  0
   37.9180   21.0960   32.8590 C   0  0  0  0  0  0  0  0  0  0  0  0
   38.7340   20.3840   31.9920 C   0  0  0  0  0  0  0  0  0  0  0  0
   40.0930   20.4580   32.2090 C   0  0  0  0  0  0  0  0  0  0  0  0
   40.5610   21.2080   33.2370 N   0  0  0  0  0  0  0  0  0  0  0  0
   39.7590   21.8850   34.0570 C   0  0  0  0  0  0  0  0  0  0  0  0
   38.4090   21.8350   33.8730 N   0  0  0  0  0  0  0  0  0  0  0  0
   38.0960   19.6530   30.9750 N   0  0  0  0  0  0  0  0  0  0  0  0
   37.4490   18.5310   31.3620 C   0  0  0  0  0  0  0  0  0  0  0  0
   36.8140   17.7880   30.3970 C   0  0  0  0  0  0  0  0  0  0  0  0
   36.8810   18.2390   29.0850 C   0  0  0  0  0  0  0  0  0  0  0  0
   36.2490   17.5000   28.0820 N   0  0  0  0  0  0  0  0  0  0  0  0
   37.5360   19.3550   28.7660 N   0  0  0  0  0  0  0  0  0  0  0  0
   38.1610   20.0860   29.7160 C   0  0  0  0  0  0  0  0  0  0  0  0
   38.7640   21.1280   29.3700 O   0  0  0  0  0  0  0  0  0  0  0  0
   41.4532   22.4619   35.2101 H   0  0  0  0  0  0  0  0  0  0  0  0
   39.9469   22.4349   36.1252 H   0  0  0  0  0  0  0  0  0  0  0  0
   40.8363   24.7924   35.2850 H   0  0  0  0  0  0  0  0  0  0  0  0
   41.3990   24.9696   33.3044 H   0  0  0  0  0  0  0  0  0  0  0  0
   40.6006   23.4562   32.8160 H   0  0  0  0  0  0  0  0  0  0  0  0
   39.5331   25.5266   31.7428 H   0  0  0  0  0  0  0  0  0  0  0  0
   38.3678   24.6301   32.7311 H   0  0  0  0  0  0  0  0  0  0  0  0
   40.1107   26.9446   33.7021 H   0  0  0  0  0  0  0  0  0  0  0  0
   38.3571   27.0531   33.2143 H   0  0  0  0  0  0  0  0  0  0  0  0
   39.4139   26.5174   35.7774 H   0  0  0  0  0  0  0  0  0  0  0  0
   37.7099   26.4742   35.2560 H   0  0  0  0  0  0  0  0  0  0  0  0
   37.9410   24.0480   34.5896 H   0  0  0  0  0  0  0  0  0  0  0  0
   37.2573   25.8977   37.2310 H   0  0  0  0  0  0  0  0  0  0  0  0
   37.5487   24.6694   39.6263 H   0  0  0  0  0  0  0  0  0  0  0  0
   39.8190   22.4774   36.7456 H   0  0  0  0  0  0  0  0  0  0  0  0
   36.8285   21.0557   32.7131 H   0  0  0  0  0  0  0  0  0  0  0  0
   40.7907   19.9143   31.5550 H   0  0  0  0  0  0  0  0  0  0  0  0
   37.4316   18.2224   32.4177 H   0  0  0  0  0  0  0  0  0  0  0  0
   36.2707   16.8668   30.6545 H   0  0  0  0  0  0  0  0  0  0  0  0
   36.2888   17.8201   27.1038 H   0  0  0  0  0  0  0  0  0  0  0  0
   35.7433   16.6350   28.3207 H   0  0  0  0  0  0  0  0  0  0  0  0
  2  1  1  0
  2  7  1  0
  3  2  1  0
  4  3  1  0
  4  5  1  0
  5  6  1  0
  6  7  1  0
  7  8  1  0
  8 12  1  0
  8  9  1  0
  9 10  2  0
 11 10  1  0
 12 11  2  0
 13 18  2  0
 14 15  2  0
 14 13  1  0
 15 16  1  0
 16 17  2  0
 17  1  1  0
 18 17  1  0
 19 20  1  0
 19 14  1  0
 21 20  2  0
 22 21  1  0
 23 22  1  0
 24 22  2  0
 24 25  1  0
 25 19  1  0
 26 25  2  0
  1 27  1  0
  1 28  1  0
  2 29  1  1
  3 30  1  0
  3 31  1  0
  4 32  1  0
  4 33  1  0
  5 34  1  0
  5 35  1  0
  6 36  1  0
  6 37  1  0
  7 38  1  6
  9 39  1  0
 10 40  1  0
 12 41  1  0
 13 42  1  0
 15 43  1  0
 20 44  1  0
 21 45  1  0
 23 46  1  0
 23 47  1  0
M  ISO  8  27   8  28   8  29  13  30  13  31  13  32  13  33  13  34  13
M  ISO  8  35  13  36  13  37  13  38  13  39  14  40  14  41  14  42  14
M  ISO  3  43  14  44  14  45  14
M  END
>  <minimizedAffinity>  (1) 
-4.57419538

>  <minimizedRMSD>  (1) 
1.5309931

$$$$
