
     RDKit          3D

 33 35  0  0  0  0  0  0  0  0999 V2000
   38.8460   23.2970   37.5510 C   0  0  0  0  0  0  0  0  0  0  0  0
   40.1720   22.9310   37.1480 C   0  0  0  0  0  0  0  0  0  0  0  0
   40.6890   23.5440   36.0190 C   0  0  0  0  0  0  0  0  0  0  0  0
   39.9000   24.4460   35.3790 N   0  0  0  0  0  0  0  0  0  0  0  0
   38.6750   24.7590   35.7790 C   0  0  0  0  0  0  0  0  0  0  0  0
   38.1470   24.1840   36.8670 N   0  0  0  0  0  0  0  0  0  0  0  0
   38.0130   25.7260   34.9660 N   0  0  0  0  0  0  0  0  0  0  0  0
   37.7160   26.9320   35.4800 C   0  0  0  0  0  0  0  0  0  0  0  0
   37.0660   27.6990   34.5120 C   0  0  0  0  0  0  0  0  0  0  0  0
   36.9870   26.9250   33.4270 N   0  0  0  0  0  0  0  0  0  0  0  0
   37.5560   25.7340   33.6950 C   0  0  0  0  0  0  0  0  0  0  0  0
   37.7150   24.5960   32.8540 N   0  0  0  0  0  0  0  0  0  0  0  0
   36.6630   23.6940   32.4200 C   0  0  0  0  0  0  0  0  0  0  0  0
   36.8940   23.2370   31.0190 C   0  0  0  0  0  0  0  0  0  0  0  0
   37.6340   24.1740   30.2050 N   0  0  0  0  0  0  0  0  0  0  0  0
   38.8770   24.6020   30.8020 C   0  0  0  0  0  0  0  0  0  0  0  0
   38.9990   24.1740   32.2730 C   0  0  0  0  0  0  0  0  0  0  0  0
   38.3490   22.6640   38.7040 N   0  0  0  0  0  0  0  0  0  0  0  0
   40.7568   22.1911   37.7142 H   0  0  0  0  0  0  0  0  0  0  0  0
   41.7000   23.3095   35.6543 H   0  0  0  0  0  0  0  0  0  0  0  0
   37.9487   27.2625   36.5030 H   0  0  0  0  0  0  0  0  0  0  0  0
   36.6952   28.7289   34.6206 H   0  0  0  0  0  0  0  0  0  0  0  0
   36.6431   22.8182   33.0853 H   0  0  0  0  0  0  0  0  0  0  0  0
   35.7034   24.2304   32.4596 H   0  0  0  0  0  0  0  0  0  0  0  0
   37.4547   22.2913   31.0526 H   0  0  0  0  0  0  0  0  0  0  0  0
   35.9029   23.1284   30.5543 H   0  0  0  0  0  0  0  0  0  0  0  0
   37.0453   25.0044   30.0476 H   0  0  0  0  0  0  0  0  0  0  0  0
   39.7109   24.1615   30.2357 H   0  0  0  0  0  0  0  0  0  0  0  0
   38.9034   25.7012   30.7695 H   0  0  0  0  0  0  0  0  0  0  0  0
   39.1311   23.0852   32.3573 H   0  0  0  0  0  0  0  0  0  0  0  0
   39.8684   24.6175   32.7804 H   0  0  0  0  0  0  0  0  0  0  0  0
   37.4024   22.8843   39.0450 H   0  0  0  0  0  0  0  0  0  0  0  0
   38.9316   21.9800   39.2076 H   0  0  0  0  0  0  0  0  0  0  0  0
  1 18  1  0
  2  1  2  0
  3  2  1  0
  4  5  1  0
  4  3  2  0
  5  6  2  0
  6  1  1  0
  7  8  1  0
  7  5  1  0
  9  8  2  0
 10 11  2  0
 10  9  1  0
 11  7  1  0
 12 11  1  0
 13 12  1  0
 14 13  1  0
 15 16  1  0
 15 14  1  0
 16 17  1  0
 17 12  1  0
  2 19  1  0
  3 20  1  0
  8 21  1  0
  9 22  1  0
 13 23  1  0
 13 24  1  0
 14 25  1  0
 14 26  1  0
 15 27  1  0
 16 28  1  0
 16 29  1  0
 17 30  1  0
 17 31  1  0
 18 32  1  0
 18 33  1  0
M  ISO  8  19  14  20  14  21  14  22  14  23  13  24  13  25  13  26  13
M  ISO  5  27   5  28  13  29  13  30  13  31  13
M  END
>  <minimizedAffinity>  (1) 
-5.33244181

>  <minimizedRMSD>  (1) 
3.96262884

$$$$
