
     RDKit          3D

 29 31  0  0  0  0  0  0  0  0999 V2000
   40.2210   22.5200   36.6850 C   0  0  0  0  0  0  0  0  0  0  0  0
   39.2980   21.9160   35.7780 C   0  0  0  0  0  0  0  0  0  0  0  0
   39.1900   22.5070   34.5100 C   0  0  0  0  0  0  0  0  0  0  0  0
   39.9500   23.5910   34.2310 N   0  0  0  0  0  0  0  0  0  0  0  0
   40.7950   24.1190   35.1060 C   0  0  0  0  0  0  0  0  0  0  0  0
   40.9400   23.5850   36.3500 N   0  0  0  0  0  0  0  0  0  0  0  0
   41.5020   25.2530   34.6500 N   0  0  0  0  0  0  0  0  0  0  0  0
   42.8260   25.2220   34.5030 C   0  0  0  0  0  0  0  0  0  0  0  0
   43.2980   26.4430   34.0530 C   0  0  0  0  0  0  0  0  0  0  0  0
   42.2140   27.2150   33.9310 N   0  0  0  0  0  0  0  0  0  0  0  0
   41.1080   26.5160   34.2880 C   0  0  0  0  0  0  0  0  0  0  0  0
   39.7130   26.9140   34.3240 C   0  0  0  0  0  0  0  0  0  0  0  0
   39.1110   27.2050   35.5300 C   0  0  0  0  0  0  0  0  0  0  0  0
   37.7820   27.5930   35.6480 C   0  0  0  0  0  0  0  0  0  0  0  0
   37.0730   27.6750   34.4520 C   0  0  0  0  0  0  0  0  0  0  0  0
   37.6290   27.3920   33.2100 C   0  0  0  0  0  0  0  0  0  0  0  0
   38.9580   27.0120   33.1720 C   0  0  0  0  0  0  0  0  0  0  0  0
   40.3170   21.9280   37.9580 N   0  0  0  0  0  0  0  0  0  0  0  0
   38.7033   21.0342   36.0586 H   0  0  0  0  0  0  0  0  0  0  0  0
   38.5007   22.0969   33.7572 H   0  0  0  0  0  0  0  0  0  0  0  0
   43.4577   24.3458   34.7109 H   0  0  0  0  0  0  0  0  0  0  0  0
   44.3416   26.7187   33.8412 H   0  0  0  0  0  0  0  0  0  0  0  0
   39.7143   27.1258   36.4464 H   0  0  0  0  0  0  0  0  0  0  0  0
   37.3209   27.8201   36.6205 H   0  0  0  0  0  0  0  0  0  0  0  0
   36.0169   27.9799   34.4925 H   0  0  0  0  0  0  0  0  0  0  0  0
   37.0324   27.4677   32.2890 H   0  0  0  0  0  0  0  0  0  0  0  0
   39.4242   26.7827   32.2024 H   0  0  0  0  0  0  0  0  0  0  0  0
   40.9645   22.3159   38.6588 H   0  0  0  0  0  0  0  0  0  0  0  0
   39.7397   21.1068   38.1889 H   0  0  0  0  0  0  0  0  0  0  0  0
  1 18  1  0
  2  1  2  0
  3  2  1  0
  4  3  2  0
  4  5  1  0
  5  6  2  0
  6  1  1  0
  7  5  1  0
  8  7  1  0
  9  8  2  0
 10  9  1  0
 10 11  2  0
 11 12  1  0
 11  7  1  0
 12 13  2  0
 13 14  1  0
 15 14  2  0
 16 15  1  0
 17 16  2  0
 17 12  1  0
  2 19  1  0
  3 20  1  0
  8 21  1  0
  9 22  1  0
 13 23  1  0
 14 24  1  0
 15 25  1  0
 16 26  1  0
 17 27  1  0
 18 28  1  0
 18 29  1  0
M  ISO  8  19  14  20  14  21  14  22  14  23  14  24  14  25  14  26  14
M  ISO  1  27  14
M  END
>  <minimizedAffinity>  (1) 
-5.39547443

>  <minimizedRMSD>  (1) 
6.15140295

$$$$
