
     RDKit          3D

 32 34  0  0  0  0  0  0  0  0999 V2000
   38.8610   22.9790   36.8210 C   0  0  0  0  0  0  0  0  0  0  0  0
   39.9530   22.1360   36.4880 C   0  0  0  0  0  0  0  0  0  0  0  0
   40.1720   21.8920   35.1240 C   0  0  0  0  0  0  0  0  0  0  0  0
   39.3400   22.4670   34.2030 N   0  0  0  0  0  0  0  0  0  0  0  0
   38.3290   23.2520   34.5740 C   0  0  0  0  0  0  0  0  0  0  0  0
   38.0850   23.5120   35.8830 N   0  0  0  0  0  0  0  0  0  0  0  0
   37.5640   23.7690   33.5030 N   0  0  0  0  0  0  0  0  0  0  0  0
   37.5480   25.1050   33.2770 C   0  0  0  0  0  0  0  0  0  0  0  0
   36.7280   25.3640   32.1760 C   0  0  0  0  0  0  0  0  0  0  0  0
   36.2690   24.1710   31.7640 N   0  0  0  0  0  0  0  0  0  0  0  0
   36.7700   23.2160   32.5620 C   0  0  0  0  0  0  0  0  0  0  0  0
   36.4750   19.0450   32.0500 C   0  0  0  0  0  0  0  0  0  0  0  0
   35.6960   19.6260   33.0300 C   0  0  0  0  0  0  0  0  0  0  0  0
   35.7280   20.9840   33.2670 C   0  0  0  0  0  0  0  0  0  0  0  0
   36.5570   21.7740   32.5080 C   0  0  0  0  0  0  0  0  0  0  0  0
   37.3470   21.1840   31.5140 C   0  0  0  0  0  0  0  0  0  0  0  0
   37.3100   19.8260   31.2820 C   0  0  0  0  0  0  0  0  0  0  0  0
   36.4200   17.3210   31.7640 S   0  0  0  0  0  0  0  0  0  0  0  0
   37.7560   16.7470   32.1560 O   0  0  0  0  0  0  0  0  0  0  0  0
   35.2880   16.6660   32.4710 O   0  0  0  0  0  0  0  0  0  0  0  0
   38.6500   23.2180   38.1950 N   0  0  0  0  0  0  0  0  0  0  0  0
   40.5972   21.6948   37.2628 H   0  0  0  0  0  0  0  0  0  0  0  0
   41.0017   21.2469   34.7994 H   0  0  0  0  0  0  0  0  0  0  0  0
   38.0910   25.8607   33.8636 H   0  0  0  0  0  0  0  0  0  0  0  0
   36.5036   26.3466   31.7355 H   0  0  0  0  0  0  0  0  0  0  0  0
   35.0338   18.9906   33.6365 H   0  0  0  0  0  0  0  0  0  0  0  0
   35.0989   21.4283   34.0524 H   0  0  0  0  0  0  0  0  0  0  0  0
   38.0103   21.8169   30.9062 H   0  0  0  0  0  0  0  0  0  0  0  0
   37.9357   19.3743   30.4981 H   0  0  0  0  0  0  0  0  0  0  0  0
   36.1879   17.0783   30.4358 H   0  0  0  0  0  0  0  0  0  0  0  0
   37.8730   23.8218   38.4993 H   0  0  0  0  0  0  0  0  0  0  0  0
   39.2729   22.7888   38.8940 H   0  0  0  0  0  0  0  0  0  0  0  0
  1 21  1  0
  2  1  2  0
  3  2  1  0
  4  5  1  0
  4  3  2  0
  5  6  2  0
  6  1  1  0
  7  5  1  0
  8  7  1  0
  9  8  2  0
 10  9  1  0
 10 11  2  0
 11  7  1  0
 12 13  2  0
 13 14  1  0
 15 11  1  0
 15 14  2  0
 16 15  1  0
 17 16  2  0
 17 12  1  0
 18 12  1  0
 18 19  2  0
 18 20  2  0
  2 22  1  0
  3 23  1  0
  8 24  1  0
  9 25  1  0
 13 26  1  0
 14 27  1  0
 16 28  1  0
 17 29  1  0
 18 30  1  0
 21 31  1  0
 21 32  1  0
M  ISO  8  22  14  23  14  24  14  25  14  26  14  27  14  28  14  29  14
M  ISO  1  30  11
M  END
>  <minimizedAffinity>  (1) 
-4.95631504

>  <minimizedRMSD>  (1) 
2.61587906

$$$$
