
     RDKit          3D

 26 28  0  0  0  0  0  0  0  0999 V2000
   39.2110   23.0590   37.6500 C   0  0  0  0  0  0  0  0  0  0  0  0
   40.5010   22.5860   37.3230 C   0  0  0  0  0  0  0  0  0  0  0  0
   40.9420   22.7980   36.0110 C   0  0  0  0  0  0  0  0  0  0  0  0
   40.1130   23.4410   35.1330 N   0  0  0  0  0  0  0  0  0  0  0  0
   38.8920   23.8710   35.5030 C   0  0  0  0  0  0  0  0  0  0  0  0
   38.4290   23.6830   36.7700 N   0  0  0  0  0  0  0  0  0  0  0  0
   38.1710   24.5160   34.4690 N   0  0  0  0  0  0  0  0  0  0  0  0
   37.8970   25.8380   34.5870 C   0  0  0  0  0  0  0  0  0  0  0  0
   37.1830   26.2400   33.4540 C   0  0  0  0  0  0  0  0  0  0  0  0
   37.0450   25.1470   32.6770 N   0  0  0  0  0  0  0  0  0  0  0  0
   37.6450   24.0990   33.2950 C   0  0  0  0  0  0  0  0  0  0  0  0
   37.7700   22.7390   32.8770 N   0  0  0  0  0  0  0  0  0  0  0  0
   38.5200   21.6470   33.1630 C   0  0  0  0  0  0  0  0  0  0  0  0
   38.0810   20.6210   32.3420 C   0  0  0  0  0  0  0  0  0  0  0  0
   37.0720   21.0900   31.5640 N   0  0  0  0  0  0  0  0  0  0  0  0
   36.8930   22.3750   31.8960 C   0  0  0  0  0  0  0  0  0  0  0  0
   38.7720   22.8390   38.9830 N   0  0  0  0  0  0  0  0  0  0  0  0
   41.1309   22.0742   38.0655 H   0  0  0  0  0  0  0  0  0  0  0  0
   41.9369   22.4538   35.6921 H   0  0  0  0  0  0  0  0  0  0  0  0
   38.1865   26.4837   35.4292 H   0  0  0  0  0  0  0  0  0  0  0  0
   36.8071   27.2511   33.2386 H   0  0  0  0  0  0  0  0  0  0  0  0
   39.3269   21.5866   33.9081 H   0  0  0  0  0  0  0  0  0  0  0  0
   38.4829   19.5972   32.3236 H   0  0  0  0  0  0  0  0  0  0  0  0
   36.1454   23.0425   31.4426 H   0  0  0  0  0  0  0  0  0  0  0  0
   37.8397   23.1625   39.2782 H   0  0  0  0  0  0  0  0  0  0  0  0
   39.3860   22.3560   39.6543 H   0  0  0  0  0  0  0  0  0  0  0  0
  1 17  1  0
  2  1  2  0
  3  2  1  0
  4  5  1  0
  4  3  2  0
  5  6  2  0
  6  1  1  0
  7  8  1  0
  7  5  1  0
  9  8  2  0
 10 11  2  0
 10  9  1  0
 11  7  1  0
 12 13  1  0
 12 11  1  0
 14 13  2  0
 15 16  2  0
 15 14  1  0
 16 12  1  0
  2 18  1  0
  3 19  1  0
  8 20  1  0
  9 21  1  0
 13 22  1  0
 14 23  1  0
 16 24  1  0
 17 25  1  0
 17 26  1  0
M  ISO  7  18  14  19  14  20  14  21  14  22  14  23  14  24  14
M  END
>  <minimizedAffinity>  (1) 
-4.95315075

>  <minimizedRMSD>  (1) 
2.23693085

$$$$
