
     RDKit          3D

 26 28  0  0  0  0  0  0  0  0999 V2000
   38.8580   23.2680   37.5660 C   0  0  0  0  0  0  0  0  0  0  0  0
   40.1400   22.8290   37.1230 C   0  0  0  0  0  0  0  0  0  0  0  0
   40.6180   23.3990   35.9490 C   0  0  0  0  0  0  0  0  0  0  0  0
   39.8580   24.3300   35.2890 N   0  0  0  0  0  0  0  0  0  0  0  0
   38.6520   24.7030   35.7600 C   0  0  0  0  0  0  0  0  0  0  0  0
   38.1400   24.1740   36.9050 N   0  0  0  0  0  0  0  0  0  0  0  0
   37.9870   25.6700   34.9710 N   0  0  0  0  0  0  0  0  0  0  0  0
   37.7430   26.8880   35.4560 C   0  0  0  0  0  0  0  0  0  0  0  0
   37.0800   27.6430   34.4840 C   0  0  0  0  0  0  0  0  0  0  0  0
   36.9410   26.8340   33.4100 N   0  0  0  0  0  0  0  0  0  0  0  0
   37.4860   25.6470   33.7030 C   0  0  0  0  0  0  0  0  0  0  0  0
   38.3790   22.6810   38.7650 N   0  0  0  0  0  0  0  0  0  0  0  0
   37.5780   24.4370   32.8480 C   0  0  0  0  0  0  0  0  0  0  0  0
   37.6700   24.6120   31.3760 C   0  0  0  0  0  0  0  0  0  0  0  0
   36.4040   24.0980   31.9570 C   0  0  0  0  0  0  0  0  0  0  0  0
   40.7200   22.0790   37.6807 H   0  0  0  0  0  0  0  0  0  0  0  0
   41.6006   23.1049   35.5515 H   0  0  0  0  0  0  0  0  0  0  0  0
   38.0192   27.2420   36.4602 H   0  0  0  0  0  0  0  0  0  0  0  0
   36.7400   28.6852   34.5748 H   0  0  0  0  0  0  0  0  0  0  0  0
   37.4595   22.9539   39.1405 H   0  0  0  0  0  0  0  0  0  0  0  0
   38.9506   21.9818   39.2603 H   0  0  0  0  0  0  0  0  0  0  0  0
   38.1654   23.9007   33.6079 H   0  0  0  0  0  0  0  0  0  0  0  0
   38.3118   23.9421   30.7850 H   0  0  0  0  0  0  0  0  0  0  0  0
   37.9292   25.4518   30.7146 H   0  0  0  0  0  0  0  0  0  0  0  0
   35.5042   24.7306   31.9656 H   0  0  0  0  0  0  0  0  0  0  0  0
   35.7751   23.2097   31.7975 H   0  0  0  0  0  0  0  0  0  0  0  0
  1 12  1  0
  2  1  2  0
  3  2  1  0
  4  5  1  0
  4  3  2  0
  5  6  2  0
  6  1  1  0
  7  8  1  0
  7  5  1  0
  9  8  2  0
 10 11  2  0
 10  9  1  0
 11  7  1  0
 13 11  1  0
 14 15  1  0
 14 13  1  0
 15 13  1  0
  2 16  1  0
  3 17  1  0
  8 18  1  0
  9 19  1  0
 12 20  1  0
 12 21  1  0
 13 22  1  0
 14 23  1  0
 14 24  1  0
 15 25  1  0
 15 26  1  0
M  ISO  8  16  14  17  14  18  14  19  14  22  13  23  13  24  13  25  13
M  ISO  1  26  13
M  END
>  <minimizedAffinity>  (1) 
-4.54426718

>  <minimizedRMSD>  (1) 
3.50716567

$$$$
