
     RDKit          3D

 21 22  0  0  0  0  0  0  0  0999 V2000
   39.0140   23.1810   37.8020 C   0  0  0  0  0  0  0  0  0  0  0  0
   40.2510   22.7070   37.3150 C   0  0  0  0  0  0  0  0  0  0  0  0
   40.7080   23.2520   36.1260 C   0  0  0  0  0  0  0  0  0  0  0  0
   39.9640   24.2020   35.4880 N   0  0  0  0  0  0  0  0  0  0  0  0
   38.7940   24.6170   35.9970 C   0  0  0  0  0  0  0  0  0  0  0  0
   38.3030   24.1150   37.1590 N   0  0  0  0  0  0  0  0  0  0  0  0
   38.1450   25.6070   35.2180 N   0  0  0  0  0  0  0  0  0  0  0  0
   37.9880   26.8490   35.7360 C   0  0  0  0  0  0  0  0  0  0  0  0
   37.3250   27.6460   34.7900 C   0  0  0  0  0  0  0  0  0  0  0  0
   37.1040   26.8590   33.7330 N   0  0  0  0  0  0  0  0  0  0  0  0
   37.5960   25.6310   33.9850 C   0  0  0  0  0  0  0  0  0  0  0  0
   37.6040   24.4620   33.1820 N   0  0  0  0  0  0  0  0  0  0  0  0
   38.5440   22.6240   39.0200 N   0  0  0  0  0  0  0  0  0  0  0  0
   40.8259   21.9400   37.8547 H   0  0  0  0  0  0  0  0  0  0  0  0
   41.6657   22.9207   35.6982 H   0  0  0  0  0  0  0  0  0  0  0  0
   38.3237   27.1775   36.7307 H   0  0  0  0  0  0  0  0  0  0  0  0
   37.0442   28.7042   34.8970 H   0  0  0  0  0  0  0  0  0  0  0  0
   38.0304   23.5950   33.5389 H   0  0  0  0  0  0  0  0  0  0  0  0
   37.1834   24.4800   32.2419 H   0  0  0  0  0  0  0  0  0  0  0  0
   37.6465   22.9368   39.4169 H   0  0  0  0  0  0  0  0  0  0  0  0
   39.1004   21.9070   39.5070 H   0  0  0  0  0  0  0  0  0  0  0  0
  1 13  1  0
  2  1  2  0
  3  2  1  0
  4  5  1  0
  4  3  2  0
  5  6  2  0
  6  1  1  0
  7  8  1  0
  7  5  1  0
  9  8  2  0
 10 11  2  0
 10  9  1  0
 11  7  1  0
 12 11  1  0
  2 14  1  0
  3 15  1  0
  8 16  1  0
  9 17  1  0
 12 18  1  0
 12 19  1  0
 13 20  1  0
 13 21  1  0
M  ISO  4  14  14  15  14  16  14  17  14
M  END
>  <minimizedAffinity>  (1) 
-4.38057089

>  <minimizedRMSD>  (1) 
3.09654856

$$$$
