
     RDKit          3D

 20 21  0  0  0  0  0  0  0  0999 V2000
   38.3090   23.2760   37.4840 C   0  0  0  0  0  0  0  0  0  0  0  0
   39.6280   22.8540   37.2060 C   0  0  0  0  0  0  0  0  0  0  0  0
   40.2460   23.4100   36.0840 C   0  0  0  0  0  0  0  0  0  0  0  0
   39.5520   24.3170   35.3300 N   0  0  0  0  0  0  0  0  0  0  0  0
   38.3090   24.6740   35.6470 C   0  0  0  0  0  0  0  0  0  0  0  0
   37.6780   24.1570   36.7260 N   0  0  0  0  0  0  0  0  0  0  0  0
   37.7320   25.6290   34.7570 N   0  0  0  0  0  0  0  0  0  0  0  0
   37.4420   26.8690   35.2220 C   0  0  0  0  0  0  0  0  0  0  0  0
   36.8900   27.6000   34.1550 C   0  0  0  0  0  0  0  0  0  0  0  0
   36.8640   26.7760   33.0810 N   0  0  0  0  0  0  0  0  0  0  0  0
   37.3710   25.5910   33.4500 C   0  0  0  0  0  0  0  0  0  0  0  0
   37.6800   22.7070   38.6310 N   0  0  0  0  0  0  0  0  0  0  0  0
   37.5950   24.1130   32.4720 S   0  0  0  0  0  0  0  0  0  0  0  0
   40.1444   22.1214   37.8437 H   0  0  0  0  0  0  0  0  0  0  0  0
   41.2725   23.1240   35.8111 H   0  0  0  0  0  0  0  0  0  0  0  0
   37.6080   27.2359   36.2457 H   0  0  0  0  0  0  0  0  0  0  0  0
   36.5446   28.6439   34.1869 H   0  0  0  0  0  0  0  0  0  0  0  0
   36.7184   22.9798   38.8795 H   0  0  0  0  0  0  0  0  0  0  0  0
   38.1875   22.0233   39.2106 H   0  0  0  0  0  0  0  0  0  0  0  0
   37.7582   23.0360   33.3029 H   0  0  0  0  0  0  0  0  0  0  0  0
  1 12  1  0
  2  1  2  0
  3  2  1  0
  4  5  1  0
  4  3  2  0
  5  6  2  0
  6  1  1  0
  7  8  1  0
  7  5  1  0
  9  8  2  0
 10 11  2  0
 10  9  1  0
 11  7  1  0
 13 11  1  0
  2 14  1  0
  3 15  1  0
  8 16  1  0
  9 17  1  0
 12 18  1  0
 12 19  1  0
 13 20  1  0
M  ISO  5  14  14  15  14  16  14  17  14  20  11
M  END
>  <minimizedAffinity>  (1) 
-4.20883751

>  <minimizedRMSD>  (1) 
3.09092045

$$$$
