
     RDKit          3D

 40 44  0  0  0  0  0  0  0  0999 V2000
   39.0700   23.1200   37.7550 C   0  0  0  0  0  0  0  0  0  0  0  0
   40.4090   22.8380   37.4000 C   0  0  0  0  0  0  0  0  0  0  0  0
   40.8650   23.3970   36.2450 C   0  0  0  0  0  0  0  0  0  0  0  0
   39.9940   24.1580   35.5600 N   0  0  0  0  0  0  0  0  0  0  0  0
   38.7600   24.4300   35.8620 C   0  0  0  0  0  0  0  0  0  0  0  0
   38.2920   23.8880   37.0010 N   0  0  0  0  0  0  0  0  0  0  0  0
   38.0700   25.2560   34.9700 N   0  0  0  0  0  0  0  0  0  0  0  0
   37.6880   26.4900   35.4000 C   0  0  0  0  0  0  0  0  0  0  0  0
   37.0220   27.1270   34.3620 C   0  0  0  0  0  0  0  0  0  0  0  0
   37.0160   26.2750   33.3380 N   0  0  0  0  0  0  0  0  0  0  0  0
   37.6580   25.1120   33.6940 C   0  0  0  0  0  0  0  0  0  0  0  0
   37.7920   23.9630   32.8680 C   0  0  0  0  0  0  0  0  0  0  0  0
   37.3170   22.6890   33.3010 C   0  0  0  0  0  0  0  0  0  0  0  0
   37.6060   21.7390   32.3450 N   0  0  0  0  0  0  0  0  0  0  0  0
   38.2560   22.4430   31.3360 C   0  0  0  0  0  0  0  0  0  0  0  0
   38.3220   23.7150   31.7010 N   0  0  0  0  0  0  0  0  0  0  0  0
   38.8380   24.3550   30.5780 C   0  0  0  0  0  0  0  0  0  0  0  0
   38.7720   23.6950   29.3710 C   0  0  0  0  0  0  0  0  0  0  0  0
   39.3520   24.4040   28.3560 N   0  0  0  0  0  0  0  0  0  0  0  0
   39.8120   25.5630   28.9150 C   0  0  0  0  0  0  0  0  0  0  0  0
   40.4770   26.6920   28.4740 C   0  0  0  0  0  0  0  0  0  0  0  0
   40.8010   27.7190   29.3450 C   0  0  0  0  0  0  0  0  0  0  0  0
   40.4640   27.6370   30.6860 C   0  0  0  0  0  0  0  0  0  0  0  0
   39.7930   26.5250   31.1950 C   0  0  0  0  0  0  0  0  0  0  0  0
   39.4910   25.5230   30.2840 C   0  0  0  0  0  0  0  0  0  0  0  0
   38.5560   22.5990   39.0020 N   0  0  0  0  0  0  0  0  0  0  0  0
   41.0502   22.1993   38.0252 H   0  0  0  0  0  0  0  0  0  0  0  0
   41.8936   23.2341   35.8907 H   0  0  0  0  0  0  0  0  0  0  0  0
   37.8751   26.9103   36.3991 H   0  0  0  0  0  0  0  0  0  0  0  0
   36.5853   28.1364   34.3812 H   0  0  0  0  0  0  0  0  0  0  0  0
   36.7995   22.4948   34.2520 H   0  0  0  0  0  0  0  0  0  0  0  0
   38.6465   22.0180   30.3996 H   0  0  0  0  0  0  0  0  0  0  0  0
   38.3049   22.7079   29.2384 H   0  0  0  0  0  0  0  0  0  0  0  0
   39.4271   24.1213   27.3684 H   0  0  0  0  0  0  0  0  0  0  0  0
   40.7537   26.7761   27.4127 H   0  0  0  0  0  0  0  0  0  0  0  0
   41.3302   28.6069   28.9688 H   0  0  0  0  0  0  0  0  0  0  0  0
   40.7302   28.4633   31.3615 H   0  0  0  0  0  0  0  0  0  0  0  0
   39.5191   26.4470   32.2575 H   0  0  0  0  0  0  0  0  0  0  0  0
   37.5831   22.7930   39.2792 H   0  0  0  0  0  0  0  0  0  0  0  0
   39.1627   22.0339   39.6131 H   0  0  0  0  0  0  0  0  0  0  0  0
  1 26  1  0
  2  1  2  0
  3  2  1  0
  4  5  1  0
  4  3  2  0
  5  6  2  0
  6  1  1  0
  7  8  1  0
  7  5  1  0
  9  8  2  0
 10 11  2  0
 10  9  1  0
 11  7  1  0
 12 13  2  0
 12 11  1  0
 14 13  1  0
 15 16  1  0
 15 14  2  0
 16 12  1  0
 17 16  1  0
 18 17  2  0
 19 20  1  0
 19 18  1  0
 20 25  2  0
 21 20  1  0
 21 22  2  0
 22 23  1  0
 23 24  2  0
 25 17  1  0
 25 24  1  0
  2 27  1  0
  3 28  1  0
  8 29  1  0
  9 30  1  0
 13 31  1  0
 15 32  1  0
 18 33  1  0
 19 34  1  0
 21 35  1  0
 22 36  1  0
 23 37  1  0
 24 38  1  0
 26 39  1  0
 26 40  1  0
M  ISO  8  27  14  28  14  29  14  30  14  31  14  32  14  33  14  34   9
M  ISO  4  35  14  36  14  37  14  38  14
M  END
>  <minimizedAffinity>  (1) 
-5.78853512

>  <minimizedRMSD>  (1) 
3.4120357

$$$$
