
     RDKit          3D

 38 41  0  0  1  0  0  0  0  0999 V2000
   38.2170   23.2570   37.1940 C   0  0  0  0  0  0  0  0  0  0  0  0
   39.5910   22.9660   37.0190 C   0  0  0  0  0  0  0  0  0  0  0  0
   40.2230   23.5930   35.9820 C   0  0  0  0  0  0  0  0  0  0  0  0
   39.4560   24.4110   35.2520 N   0  0  0  0  0  0  0  0  0  0  0  0
   38.2080   24.7070   35.3680 C   0  0  0  0  0  0  0  0  0  0  0  0
   37.5700   24.0980   36.3880 N   0  0  0  0  0  0  0  0  0  0  0  0
   37.6820   25.6090   34.4460 N   0  0  0  0  0  0  0  0  0  0  0  0
   37.2590   26.8190   34.9030 C   0  0  0  0  0  0  0  0  0  0  0  0
   36.7620   27.5450   33.8260 C   0  0  0  0  0  0  0  0  0  0  0  0
   36.8960   26.7590   32.7540 N   0  0  0  0  0  0  0  0  0  0  0  0
   37.4610   25.5610   33.1210 C   0  0  0  0  0  0  0  0  0  0  0  0
   37.6830   24.4660   32.2410 C   0  0  0  0  0  0  0  0  0  0  0  0
   38.7340   24.5140   31.2420 C   0  0  0  0  0  0  0  0  0  0  0  0
   38.6500   23.3540   30.5060 N   0  0  0  0  0  0  0  0  0  0  0  0
   37.6100   22.6270   31.0210 C   0  0  0  0  0  0  0  0  0  0  0  0
   37.0900   23.3170   32.0310 N   0  0  0  0  0  0  0  0  0  0  0  0
   35.4810   21.6080   31.7580 N   0  0  0  0  0  0  0  0  0  0  0  0
   34.9140   20.5090   32.4320 C   0  0  0  0  0  0  0  0  0  0  0  0
   35.5760   20.4550   33.7880 C   0  0  0  0  0  0  0  0  0  0  0  0
   36.7510   21.3990   33.5930 C   0  0  0  0  0  0  0  0  0  0  0  0
   36.1340   22.4880   32.6820 C   0  0  1  0  0  0  0  0  0  0  0  0
   37.5050   22.6330   38.2900 N   0  0  0  0  0  0  0  0  0  0  0  0
   40.1234   22.2702   37.6841 H   0  0  0  0  0  0  0  0  0  0  0  0
   41.2894   23.4359   35.7625 H   0  0  0  0  0  0  0  0  0  0  0  0
   37.3027   27.1641   35.9466 H   0  0  0  0  0  0  0  0  0  0  0  0
   36.3429   28.5617   33.8516 H   0  0  0  0  0  0  0  0  0  0  0  0
   39.4622   25.3260   31.0994 H   0  0  0  0  0  0  0  0  0  0  0  0
   37.2659   21.6457   30.6623 H   0  0  0  0  0  0  0  0  0  0  0  0
   36.1698   21.2656   31.0730 H   0  0  0  0  0  0  0  0  0  0  0  0
   33.8287   20.6494   32.5435 H   0  0  0  0  0  0  0  0  0  0  0  0
   35.0701   19.5741   31.8737 H   0  0  0  0  0  0  0  0  0  0  0  0
   34.9005   20.8131   34.5789 H   0  0  0  0  0  0  0  0  0  0  0  0
   35.8641   19.4418   34.1050 H   0  0  0  0  0  0  0  0  0  0  0  0
   37.0883   21.8219   34.5508 H   0  0  0  0  0  0  0  0  0  0  0  0
   37.6443   20.9170   33.1690 H   0  0  0  0  0  0  0  0  0  0  0  0
   35.5119   23.2315   33.2017 H   0  0  0  0  0  0  0  0  0  0  0  0
   36.5047   22.8320   38.4340 H   0  0  0  0  0  0  0  0  0  0  0  0
   37.9989   21.9902   38.9254 H   0  0  0  0  0  0  0  0  0  0  0  0
  1 22  1  0
  2  1  2  0
  3  2  1  0
  4  5  1  0
  4  3  2  0
  5  6  2  0
  6  1  1  0
  7  8  1  0
  7  5  1  0
  9  8  2  0
 10 11  2  0
 10  9  1  0
 11  7  1  0
 12 11  1  0
 13 12  2  0
 14 15  2  0
 14 13  1  0
 15 16  1  0
 16 12  1  0
 17 18  1  0
 17 21  1  0
 18 19  1  0
 20 19  1  0
 21 16  1  0
 21 20  1  0
  2 23  1  0
  3 24  1  0
  8 25  1  0
  9 26  1  0
 13 27  1  0
 15 28  1  0
 17 29  1  0
 18 30  1  0
 18 31  1  0
 19 32  1  0
 19 33  1  0
 20 34  1  0
 20 35  1  0
 21 36  1  1
 22 37  1  0
 22 38  1  0
M  ISO  8  23  14  24  14  25  14  26  14  27  14  28  14  29   5  30  13
M  ISO  6  31  13  32  13  33  13  34  13  35  13  36  13
M  END
>  <minimizedAffinity>  (1) 
-5.52113438

>  <minimizedRMSD>  (1) 
2.63701725

$$$$
