
     RDKit          3D

 33 36  0  0  0  0  0  0  0  0999 V2000
   38.9550   23.1280   37.9290 C   0  0  0  0  0  0  0  0  0  0  0  0
   40.1790   22.6190   37.4340 C   0  0  0  0  0  0  0  0  0  0  0  0
   40.6510   23.1620   36.2720 C   0  0  0  0  0  0  0  0  0  0  0  0
   39.8840   24.1230   35.7330 N   0  0  0  0  0  0  0  0  0  0  0  0
   38.7650   24.6170   36.1450 C   0  0  0  0  0  0  0  0  0  0  0  0
   38.2940   24.0890   37.2890 N   0  0  0  0  0  0  0  0  0  0  0  0
   38.1920   25.6230   35.3650 N   0  0  0  0  0  0  0  0  0  0  0  0
   38.1060   26.8720   35.9010 C   0  0  0  0  0  0  0  0  0  0  0  0
   37.5000   27.7050   34.9610 C   0  0  0  0  0  0  0  0  0  0  0  0
   37.2400   26.9400   33.8940 N   0  0  0  0  0  0  0  0  0  0  0  0
   37.6600   25.6560   34.1300 C   0  0  0  0  0  0  0  0  0  0  0  0
   37.4960   24.5630   33.2300 C   0  0  0  0  0  0  0  0  0  0  0  0
   37.8270   23.2100   33.6460 C   0  0  0  0  0  0  0  0  0  0  0  0
   37.6410   22.3760   32.5680 N   0  0  0  0  0  0  0  0  0  0  0  0
   37.2110   23.1860   31.5380 C   0  0  0  0  0  0  0  0  0  0  0  0
   37.1360   24.4330   31.9710 N   0  0  0  0  0  0  0  0  0  0  0  0
   36.4980   25.2660   30.9800 C   0  0  0  0  0  0  0  0  0  0  0  0
   34.9830   25.1620   30.8280 C   0  0  0  0  0  0  0  0  0  0  0  0
   35.5750   26.3840   31.3620 C   0  0  0  0  0  0  0  0  0  0  0  0
   38.4220   22.5960   39.1640 N   0  0  0  0  0  0  0  0  0  0  0  0
   40.7256   21.8227   37.9604 H   0  0  0  0  0  0  0  0  0  0  0  0
   41.5941   22.8343   35.8103 H   0  0  0  0  0  0  0  0  0  0  0  0
   38.4538   27.1714   36.9007 H   0  0  0  0  0  0  0  0  0  0  0  0
   37.2797   28.7768   35.0739 H   0  0  0  0  0  0  0  0  0  0  0  0
   38.1666   22.9064   34.6472 H   0  0  0  0  0  0  0  0  0  0  0  0
   36.9691   22.8486   30.5193 H   0  0  0  0  0  0  0  0  0  0  0  0
   37.3878   25.1894   30.3378 H   0  0  0  0  0  0  0  0  0  0  0  0
   34.5301   25.1636   29.8256 H   0  0  0  0  0  0  0  0  0  0  0  0
   34.2146   24.4556   31.1751 H   0  0  0  0  0  0  0  0  0  0  0  0
   35.4367   26.6368   32.4236 H   0  0  0  0  0  0  0  0  0  0  0  0
   35.5088   27.4481   31.0913 H   0  0  0  0  0  0  0  0  0  0  0  0
   37.5322   22.9555   39.5380 H   0  0  0  0  0  0  0  0  0  0  0  0
   38.9323   21.8577   39.6694 H   0  0  0  0  0  0  0  0  0  0  0  0
  1 20  1  0
  2  1  2  0
  3  2  1  0
  4  5  1  0
  4  3  2  0
  5  6  2  0
  6  1  1  0
  7  8  1  0
  7  5  1  0
  9  8  2  0
 10 11  2  0
 10  9  1  0
 11  7  1  0
 12 13  2  0
 12 11  1  0
 14 13  1  0
 15 16  1  0
 15 14  2  0
 16 12  1  0
 17 19  1  0
 17 16  1  0
 18 17  1  0
 18 19  1  0
  2 21  1  0
  3 22  1  0
  8 23  1  0
  9 24  1  0
 13 25  1  0
 15 26  1  0
 17 27  1  0
 18 28  1  0
 18 29  1  0
 19 30  1  0
 19 31  1  0
 20 32  1  0
 20 33  1  0
M  ISO  8  21  14  22  14  23  14  24  14  25  14  26  14  27  13  28  13
M  ISO  3  29  13  30  13  31  13
M  END
>  <minimizedAffinity>  (1) 
-5.5674901

>  <minimizedRMSD>  (1) 
2.30114222

$$$$
