
     RDKit          3D

 32 34  0  0  0  0  0  0  0  0999 V2000
   39.0740   23.0810   37.7380 C   0  0  0  0  0  0  0  0  0  0  0  0
   40.3920   22.7060   37.3890 C   0  0  0  0  0  0  0  0  0  0  0  0
   40.8420   23.1190   36.1640 C   0  0  0  0  0  0  0  0  0  0  0  0
   39.9630   23.8330   35.4480 N   0  0  0  0  0  0  0  0  0  0  0  0
   38.7590   24.1950   35.7190 C   0  0  0  0  0  0  0  0  0  0  0  0
   38.3110   23.7950   36.9190 N   0  0  0  0  0  0  0  0  0  0  0  0
   38.0890   24.9440   34.7530 N   0  0  0  0  0  0  0  0  0  0  0  0
   37.7640   26.2310   35.0600 C   0  0  0  0  0  0  0  0  0  0  0  0
   37.0960   26.7810   33.9720 C   0  0  0  0  0  0  0  0  0  0  0  0
   37.0360   25.8210   33.0440 N   0  0  0  0  0  0  0  0  0  0  0  0
   37.6420   24.6900   33.5100 C   0  0  0  0  0  0  0  0  0  0  0  0
   37.7160   23.4510   32.8030 C   0  0  0  0  0  0  0  0  0  0  0  0
   37.3880   22.2020   33.4720 C   0  0  0  0  0  0  0  0  0  0  0  0
   37.6400   21.1810   32.5860 N   0  0  0  0  0  0  0  0  0  0  0  0
   38.0930   21.7650   31.4280 C   0  0  0  0  0  0  0  0  0  0  0  0
   38.1130   23.0910   31.5980 N   0  0  0  0  0  0  0  0  0  0  0  0
   38.3130   23.6740   30.3060 C   0  0  0  0  0  0  0  0  0  0  0  0
   39.5280   24.6460   30.2870 C   0  0  0  0  0  0  0  0  0  0  0  0
   38.5670   22.6940   39.0400 N   0  0  0  0  0  0  0  0  0  0  0  0
   41.0232   22.1129   38.0671 H   0  0  0  0  0  0  0  0  0  0  0  0
   41.8507   22.8822   35.7947 H   0  0  0  0  0  0  0  0  0  0  0  0
   37.9909   26.7458   36.0052 H   0  0  0  0  0  0  0  0  0  0  0  0
   36.6964   27.8027   33.8910 H   0  0  0  0  0  0  0  0  0  0  0  0
   37.0080   22.0939   34.4986 H   0  0  0  0  0  0  0  0  0  0  0  0
   38.3898   21.2308   30.5134 H   0  0  0  0  0  0  0  0  0  0  0  0
   38.4903   22.8696   29.5770 H   0  0  0  0  0  0  0  0  0  0  0  0
   37.4121   24.2511   30.0504 H   0  0  0  0  0  0  0  0  0  0  0  0
   39.8242   24.8829   31.3195 H   0  0  0  0  0  0  0  0  0  0  0  0
   40.3704   24.1698   29.7640 H   0  0  0  0  0  0  0  0  0  0  0  0
   39.2483   25.5724   29.7640 H   0  0  0  0  0  0  0  0  0  0  0  0
   37.6103   22.9548   39.3184 H   0  0  0  0  0  0  0  0  0  0  0  0
   39.1636   22.1583   39.6865 H   0  0  0  0  0  0  0  0  0  0  0  0
  1 19  1  0
  2  1  2  0
  3  2  1  0
  4  5  1  0
  4  3  2  0
  5  6  2  0
  6  1  1  0
  7  8  1  0
  7  5  1  0
  9  8  2  0
 10 11  2  0
 10  9  1  0
 11  7  1  0
 12 13  2  0
 12 11  1  0
 14 13  1  0
 15 16  1  0
 15 14  2  0
 16 12  1  0
 17 16  1  0
 18 17  1  0
  2 20  1  0
  3 21  1  0
  8 22  1  0
  9 23  1  0
 13 24  1  0
 15 25  1  0
 17 26  1  0
 17 27  1  0
 18 28  1  0
 18 29  1  0
 18 30  1  0
 19 31  1  0
 19 32  1  0
M  ISO  8  20  14  21  14  22  14  23  14  24  14  25  14  26   8  27   8
M  ISO  3  28   8  29   8  30   8
M  END
>  <minimizedAffinity>  (1) 
-4.75683403

>  <minimizedRMSD>  (1) 
1.62985134

$$$$
