
     RDKit          3D

 35 37  0  0  0  0  0  0  0  0999 V2000
   39.2140   23.0600   37.7050 C   0  0  0  0  0  0  0  0  0  0  0  0
   40.5410   22.6710   37.3650 C   0  0  0  0  0  0  0  0  0  0  0  0
   40.9700   22.9800   36.1070 C   0  0  0  0  0  0  0  0  0  0  0  0
   40.0670   23.6200   35.3450 N   0  0  0  0  0  0  0  0  0  0  0  0
   38.8670   23.9890   35.5950 C   0  0  0  0  0  0  0  0  0  0  0  0
   38.4410   23.6900   36.8280 N   0  0  0  0  0  0  0  0  0  0  0  0
   38.1850   24.6450   34.5720 N   0  0  0  0  0  0  0  0  0  0  0  0
   37.8480   25.9460   34.7630 C   0  0  0  0  0  0  0  0  0  0  0  0
   37.1740   26.3930   33.6310 C   0  0  0  0  0  0  0  0  0  0  0  0
   37.1200   25.3540   32.7930 N   0  0  0  0  0  0  0  0  0  0  0  0
   37.7380   24.2670   33.3560 C   0  0  0  0  0  0  0  0  0  0  0  0
   37.8020   22.9700   32.7700 C   0  0  0  0  0  0  0  0  0  0  0  0
   37.0240   21.8760   33.3340 C   0  0  0  0  0  0  0  0  0  0  0  0
   37.3640   20.7320   32.6480 N   0  0  0  0  0  0  0  0  0  0  0  0
   38.2990   21.1180   31.7090 C   0  0  0  0  0  0  0  0  0  0  0  0
   38.5040   22.4110   31.8170 N   0  0  0  0  0  0  0  0  0  0  0  0
   39.3000   22.8700   30.7180 C   0  0  0  0  0  0  0  0  0  0  0  0
   39.6090   21.7710   29.6440 C   0  0  0  0  0  0  0  0  0  0  0  0
   38.6750   23.8710   29.8120 C   0  0  0  0  0  0  0  0  0  0  0  0
   38.7240   22.7800   39.0350 N   0  0  0  0  0  0  0  0  0  0  0  0
   41.1893   22.1464   38.0823 H   0  0  0  0  0  0  0  0  0  0  0  0
   41.9769   22.7250   35.7448 H   0  0  0  0  0  0  0  0  0  0  0  0
   38.0698   26.5442   35.6591 H   0  0  0  0  0  0  0  0  0  0  0  0
   36.7669   27.4005   33.4601 H   0  0  0  0  0  0  0  0  0  0  0  0
   36.2980   21.9501   34.1570 H   0  0  0  0  0  0  0  0  0  0  0  0
   38.7926   20.4509   30.9870 H   0  0  0  0  0  0  0  0  0  0  0  0
   40.1541   23.2526   31.2961 H   0  0  0  0  0  0  0  0  0  0  0  0
   39.8736   20.8298   30.1481 H   0  0  0  0  0  0  0  0  0  0  0  0
   38.7205   21.6129   29.0151 H   0  0  0  0  0  0  0  0  0  0  0  0
   40.4497   22.0991   29.0151 H   0  0  0  0  0  0  0  0  0  0  0  0
   38.1865   24.6534   30.4113 H   0  0  0  0  0  0  0  0  0  0  0  0
   39.4500   24.3255   29.1774 H   0  0  0  0  0  0  0  0  0  0  0  0
   37.9264   23.3742   29.1774 H   0  0  0  0  0  0  0  0  0  0  0  0
   37.7669   23.0538   39.2995 H   0  0  0  0  0  0  0  0  0  0  0  0
   39.3317   22.3066   39.7187 H   0  0  0  0  0  0  0  0  0  0  0  0
  1 20  1  0
  2  1  2  0
  3  2  1  0
  4  5  1  0
  4  3  2  0
  5  6  2  0
  6  1  1  0
  7  8  1  0
  7  5  1  0
  9  8  2  0
 10 11  2  0
 10  9  1  0
 11  7  1  0
 12 13  2  0
 12 11  1  0
 14 13  1  0
 15 16  1  0
 15 14  2  0
 16 12  1  0
 17 16  1  0
 18 17  1  0
 19 17  1  0
  2 21  1  0
  3 22  1  0
  8 23  1  0
  9 24  1  0
 13 25  1  0
 15 26  1  0
 17 27  1  0
 18 28  1  0
 18 29  1  0
 18 30  1  0
 19 31  1  0
 19 32  1  0
 19 33  1  0
 20 34  1  0
 20 35  1  0
M  ISO  8  21  14  22  14  23  14  24  14  25  14  26  14  27   8  28   8
M  ISO  5  29   8  30   8  31   8  32   8  33   8
M  END
>  <minimizedAffinity>  (1) 
-4.83442068

>  <minimizedRMSD>  (1) 
1.85283685

$$$$
