
     RDKit          3D

 50 55  0  0  0  0  0  0  0  0999 V2000
   39.0520   23.5130   36.1060 C   0  0  0  0  0  0  0  0  0  0  0  0
   40.4590   23.6450   35.9830 C   0  0  0  0  0  0  0  0  0  0  0  0
   40.9260   24.7180   35.2680 C   0  0  0  0  0  0  0  0  0  0  0  0
   40.0020   25.5370   34.7560 N   0  0  0  0  0  0  0  0  0  0  0  0
   38.6980   25.4350   34.8550 C   0  0  0  0  0  0  0  0  0  0  0  0
   38.2230   24.3920   35.5500 N   0  0  0  0  0  0  0  0  0  0  0  0
   37.9560   26.4430   34.2230 N   0  0  0  0  0  0  0  0  0  0  0  0
   37.2520   27.3010   35.0040 C   0  0  0  0  0  0  0  0  0  0  0  0
   36.6000   28.2070   34.1850 C   0  0  0  0  0  0  0  0  0  0  0  0
   36.9190   27.8820   32.9330 N   0  0  0  0  0  0  0  0  0  0  0  0
   37.7600   26.7870   32.9500 C   0  0  0  0  0  0  0  0  0  0  0  0
   38.2790   26.1660   31.7780 C   0  0  0  0  0  0  0  0  0  0  0  0
   38.7270   26.9100   30.6680 C   0  0  0  0  0  0  0  0  0  0  0  0
   39.1490   26.0500   29.6850 N   0  0  0  0  0  0  0  0  0  0  0  0
   38.9560   24.7610   30.1980 C   0  0  0  0  0  0  0  0  0  0  0  0
   38.4530   24.9170   31.4130 N   0  0  0  0  0  0  0  0  0  0  0  0
   38.3660   23.6040   31.8840 C   0  0  0  0  0  0  0  0  0  0  0  0
   39.5150   23.1860   32.4290 N   0  0  0  0  0  0  0  0  0  0  0  0
   39.6130   21.9070   32.8800 C   0  0  0  0  0  0  0  0  0  0  0  0
   38.6230   21.0190   32.8200 N   0  0  0  0  0  0  0  0  0  0  0  0
   37.4450   21.3990   32.2780 C   0  0  0  0  0  0  0  0  0  0  0  0
   36.3500   20.5900   32.1450 C   0  0  0  0  0  0  0  0  0  0  0  0
   35.1940   21.0230   31.5840 C   0  0  0  0  0  0  0  0  0  0  0  0
   35.1080   22.3350   31.1260 C   0  0  0  0  0  0  0  0  0  0  0  0
   36.1720   23.1980   31.2300 C   0  0  0  0  0  0  0  0  0  0  0  0
   37.3130   22.7100   31.8040 C   0  0  0  0  0  0  0  0  0  0  0  0
   35.7270   29.3120   34.6330 C   0  0  0  0  0  0  0  0  0  0  0  0
   36.2520   30.3150   35.4020 C   0  0  0  0  0  0  0  0  0  0  0  0
   35.4670   31.3500   35.8300 C   0  0  0  0  0  0  0  0  0  0  0  0
   34.1380   31.3510   35.4650 C   0  0  0  0  0  0  0  0  0  0  0  0
   33.5980   30.3290   34.6840 C   0  0  0  0  0  0  0  0  0  0  0  0
   34.4020   29.2840   34.2530 C   0  0  0  0  0  0  0  0  0  0  0  0
   38.5320   22.4000   36.8610 N   0  0  0  0  0  0  0  0  0  0  0  0
   41.1458   22.9181   36.4413 H   0  0  0  0  0  0  0  0  0  0  0  0
   42.0020   24.8950   35.1237 H   0  0  0  0  0  0  0  0  0  0  0  0
   37.2070   27.2801   36.1029 H   0  0  0  0  0  0  0  0  0  0  0  0
   38.7369   28.0079   30.6001 H   0  0  0  0  0  0  0  0  0  0  0  0
   39.1779   23.8095   29.6927 H   0  0  0  0  0  0  0  0  0  0  0  0
   40.5683   21.5866   33.3212 H   0  0  0  0  0  0  0  0  0  0  0  0
   36.4093   19.5525   32.5056 H   0  0  0  0  0  0  0  0  0  0  0  0
   34.3330   20.3447   31.4917 H   0  0  0  0  0  0  0  0  0  0  0  0
   34.1700   22.6874   30.6721 H   0  0  0  0  0  0  0  0  0  0  0  0
   36.1088   24.2347   30.8678 H   0  0  0  0  0  0  0  0  0  0  0  0
   37.3163   30.2885   35.6787 H   0  0  0  0  0  0  0  0  0  0  0  0
   35.8845   32.1586   36.4480 H   0  0  0  0  0  0  0  0  0  0  0  0
   33.4893   32.1752   35.7966 H   0  0  0  0  0  0  0  0  0  0  0  0
   32.5330   30.3518   34.4095 H   0  0  0  0  0  0  0  0  0  0  0  0
   33.9997   28.4681   33.6346 H   0  0  0  0  0  0  0  0  0  0  0  0
   37.5145   22.2797   36.9665 H   0  0  0  0  0  0  0  0  0  0  0  0
   39.1781   21.7252   37.2948 H   0  0  0  0  0  0  0  0  0  0  0  0
  1 33  1  0
  2  1  2  0
  3  2  1  0
  4  5  1  0
  4  3  2  0
  5  6  2  0
  6  1  1  0
  7  5  1  0
  7  8  1  0
  9 27  1  0
  9  8  2  0
 10 11  2  0
 10  9  1  0
 11  7  1  0
 12 11  1  0
 13 12  2  0
 14 15  2  0
 14 13  1  0
 15 16  1  0
 16 12  1  0
 16 17  1  0
 17 18  2  0
 18 19  1  0
 20 19  2  0
 21 20  1  0
 22 21  2  0
 23 22  1  0
 24 25  1  0
 24 23  2  0
 25 26  2  0
 26 17  1  0
 26 21  1  0
 27 28  2  0
 28 29  1  0
 30 29  2  0
 31 30  1  0
 32 27  1  0
 32 31  2  0
  2 34  1  0
  3 35  1  0
  8 36  1  0
 13 37  1  0
 15 38  1  0
 19 39  1  0
 22 40  1  0
 23 41  1  0
 24 42  1  0
 25 43  1  0
 28 44  1  0
 29 45  1  0
 30 46  1  0
 31 47  1  0
 32 48  1  0
 33 49  1  0
 33 50  1  0
M  ISO  8  34  14  35  14  36  14  37  14  38  14  39  14  40  14  41  14
M  ISO  7  42  14  43  14  44  14  45  14  46  14  47  14  48  14
M  END
>  <minimizedAffinity>  (1) 
-7.23647118

>  <minimizedRMSD>  (1) 
0.788904548

$$$$
