
     RDKit          3D

 42 44  0  0  1  0  0  0  0  0999 V2000
   39.5760   23.4140   35.9870 C   0  0  0  0  0  0  0  0  0  0  0  0
   39.7530   24.8130   35.3740 C   0  0  1  0  0  0  0  0  0  0  0  0
   39.9830   24.7630   33.9590 C   0  0  0  0  0  0  0  0  0  0  0  0
   39.1090   25.8670   33.3300 C   0  0  0  0  0  0  0  0  0  0  0  0
   39.4600   27.1410   34.0190 C   0  0  0  0  0  0  0  0  0  0  0  0
   39.1300   27.1540   35.4740 C   0  0  0  0  0  0  0  0  0  0  0  0
   38.6670   25.7390   35.8700 C   0  0  1  0  0  0  0  0  0  0  0  0
   37.3360   25.5080   35.5230 N   0  0  0  0  0  0  0  0  0  0  0  0
   37.4180   21.7410   33.4920 C   0  0  0  0  0  0  0  0  0  0  0  0
   38.3300   21.0230   32.7320 C   0  0  0  0  0  0  0  0  0  0  0  0
   39.6520   21.1260   33.0930 C   0  0  0  0  0  0  0  0  0  0  0  0
   39.9930   21.9050   34.1480 N   0  0  0  0  0  0  0  0  0  0  0  0
   39.0990   22.5860   34.8630 C   0  0  0  0  0  0  0  0  0  0  0  0
   37.7810   22.5070   34.5350 N   0  0  0  0  0  0  0  0  0  0  0  0
   37.8070   20.2660   31.6720 N   0  0  0  0  0  0  0  0  0  0  0  0
   37.1000   19.1690   32.0080 C   0  0  0  0  0  0  0  0  0  0  0  0
   36.5750   18.4040   30.9920 C   0  0  0  0  0  0  0  0  0  0  0  0
   36.8000   18.7990   29.6980 C   0  0  0  0  0  0  0  0  0  0  0  0
   36.2790   18.0460   28.6420 N   0  0  0  0  0  0  0  0  0  0  0  0
   37.5120   19.9010   29.4180 N   0  0  0  0  0  0  0  0  0  0  0  0
   38.0320   20.6580   30.4120 C   0  0  0  0  0  0  0  0  0  0  0  0
   38.6890   21.6790   30.1090 O   0  0  0  0  0  0  0  0  0  0  0  0
   40.5328   23.0333   36.3738 H   0  0  0  0  0  0  0  0  0  0  0  0
   38.8796   23.4113   36.8385 H   0  0  0  0  0  0  0  0  0  0  0  0
   40.6856   25.2725   35.7333 H   0  0  0  0  0  0  0  0  0  0  0  0
   41.0449   24.9493   33.7405 H   0  0  0  0  0  0  0  0  0  0  0  0
   39.7269   23.7742   33.5507 H   0  0  0  0  0  0  0  0  0  0  0  0
   39.3193   25.9487   32.2534 H   0  0  0  0  0  0  0  0  0  0  0  0
   38.0396   25.6374   33.4469 H   0  0  0  0  0  0  0  0  0  0  0  0
   40.5416   27.3079   33.9080 H   0  0  0  0  0  0  0  0  0  0  0  0
   38.8591   27.9335   33.5489 H   0  0  0  0  0  0  0  0  0  0  0  0
   40.0209   27.4319   36.0563 H   0  0  0  0  0  0  0  0  0  0  0  0
   38.3360   27.8872   35.6791 H   0  0  0  0  0  0  0  0  0  0  0  0
   38.5827   25.5575   36.9516 H   0  0  0  0  0  0  0  0  0  0  0  0
   36.7703   25.4098   36.3781 H   0  0  0  0  0  0  0  0  0  0  0  0
   36.9836   26.3004   34.9673 H   0  0  0  0  0  0  0  0  0  0  0  0
   36.3515   21.6807   33.2295 H   0  0  0  0  0  0  0  0  0  0  0  0
   40.4254   20.5817   32.5313 H   0  0  0  0  0  0  0  0  0  0  0  0
   36.9474   18.8937   33.0620 H   0  0  0  0  0  0  0  0  0  0  0  0
   35.9899   17.4989   31.2119 H   0  0  0  0  0  0  0  0  0  0  0  0
   36.4458   18.3394   27.6689 H   0  0  0  0  0  0  0  0  0  0  0  0
   35.7283   17.1977   28.8370 H   0  0  0  0  0  0  0  0  0  0  0  0
  2  7  1  0
  2  1  1  0
  3  2  1  0
  4  3  1  0
  4  5  1  0
  5  6  1  0
  6  7  1  0
  8  7  1  0
  9 14  2  0
 10 11  2  0
 10  9  1  0
 11 12  1  0
 12 13  2  0
 13  1  1  0
 14 13  1  0
 15 16  1  0
 15 10  1  0
 17 16  2  0
 18 17  1  0
 19 18  1  0
 20 18  2  0
 20 21  1  0
 21 15  1  0
 22 21  2  0
  1 23  1  0
  1 24  1  0
  2 25  1  1
  3 26  1  0
  3 27  1  0
  4 28  1  0
  4 29  1  0
  5 30  1  0
  5 31  1  0
  6 32  1  0
  6 33  1  0
  7 34  1  1
  8 35  1  0
  8 36  1  0
  9 37  1  0
 11 38  1  0
 16 39  1  0
 17 40  1  0
 19 41  1  0
 19 42  1  0
M  ISO  8  23   8  24   8  25  13  26  13  27  13  28  13  29  13  30  13
M  ISO  8  31  13  32  13  33  13  34  13  35   5  36   5  37  14  38  14
M  ISO  2  39  14  40  14
M  END
>  <minimizedAffinity>  (1) 
-4.35325861

>  <minimizedRMSD>  (1) 
0.578222215

$$$$
