
     RDKit          3D

 56 61  0  0  0  0  0  0  0  0999 V2000
   39.2600   23.4820   36.0930 C   0  0  0  0  0  0  0  0  0  0  0  0
   40.6580   23.7120   35.9500 C   0  0  0  0  0  0  0  0  0  0  0  0
   41.0400   24.8030   35.2140 C   0  0  0  0  0  0  0  0  0  0  0  0
   40.0470   25.5460   34.7020 N   0  0  0  0  0  0  0  0  0  0  0  0
   38.7580   25.3570   34.8180 C   0  0  0  0  0  0  0  0  0  0  0  0
   38.3670   24.2940   35.5350 N   0  0  0  0  0  0  0  0  0  0  0  0
   37.9420   26.3000   34.1790 N   0  0  0  0  0  0  0  0  0  0  0  0
   37.1750   27.1140   34.9460 C   0  0  0  0  0  0  0  0  0  0  0  0
   36.4610   27.9590   34.1200 C   0  0  0  0  0  0  0  0  0  0  0  0
   36.8030   27.6480   32.8800 N   0  0  0  0  0  0  0  0  0  0  0  0
   37.7230   26.6150   32.9010 C   0  0  0  0  0  0  0  0  0  0  0  0
   38.2730   26.0080   31.7320 C   0  0  0  0  0  0  0  0  0  0  0  0
   38.6870   26.7650   30.6180 C   0  0  0  0  0  0  0  0  0  0  0  0
   39.1390   25.9150   29.6400 N   0  0  0  0  0  0  0  0  0  0  0  0
   39.0000   24.6240   30.1620 C   0  0  0  0  0  0  0  0  0  0  0  0
   38.4960   24.7660   31.3780 N   0  0  0  0  0  0  0  0  0  0  0  0
   38.4620   23.4520   31.8540 C   0  0  0  0  0  0  0  0  0  0  0  0
   39.6270   23.0880   32.4020 N   0  0  0  0  0  0  0  0  0  0  0  0
   39.7820   21.8180   32.8620 C   0  0  0  0  0  0  0  0  0  0  0  0
   38.8330   20.8870   32.8040 N   0  0  0  0  0  0  0  0  0  0  0  0
   37.6450   21.2100   32.2590 C   0  0  0  0  0  0  0  0  0  0  0  0
   36.5830   20.3520   32.1360 C   0  0  0  0  0  0  0  0  0  0  0  0
   35.4030   20.7360   31.5740 C   0  0  0  0  0  0  0  0  0  0  0  0
   35.2620   22.0410   31.1090 C   0  0  0  0  0  0  0  0  0  0  0  0
   36.2880   22.9460   31.2040 C   0  0  0  0  0  0  0  0  0  0  0  0
   37.4520   22.5100   31.7760 C   0  0  0  0  0  0  0  0  0  0  0  0
   35.4880   29.0230   34.5030 C   0  0  0  0  0  0  0  0  0  0  0  0
   36.1940   30.3070   34.8520 C   0  0  0  0  0  0  0  0  0  0  0  0
   35.2090   31.1100   35.6940 C   0  0  0  0  0  0  0  0  0  0  0  0
   33.7810   30.7760   35.3380 C   0  0  0  0  0  0  0  0  0  0  0  0
   33.6120   30.4290   33.8760 C   0  0  0  0  0  0  0  0  0  0  0  0
   34.5030   29.3320   33.4010 C   0  0  0  0  0  0  0  0  0  0  0  0
   38.8150   22.3530   36.8740 N   0  0  0  0  0  0  0  0  0  0  0  0
   41.3995   23.0426   36.4106 H   0  0  0  0  0  0  0  0  0  0  0  0
   42.0985   25.0548   35.0525 H   0  0  0  0  0  0  0  0  0  0  0  0
   37.1293   27.1028   36.0450 H   0  0  0  0  0  0  0  0  0  0  0  0
   38.6533   27.8620   30.5441 H   0  0  0  0  0  0  0  0  0  0  0  0
   39.2582   23.6791   29.6615 H   0  0  0  0  0  0  0  0  0  0  0  0
   40.7492   21.5439   33.3086 H   0  0  0  0  0  0  0  0  0  0  0  0
   36.6870   19.3202   32.5029 H   0  0  0  0  0  0  0  0  0  0  0  0
   34.5701   20.0226   31.4884 H   0  0  0  0  0  0  0  0  0  0  0  0
   34.3088   22.3521   30.6565 H   0  0  0  0  0  0  0  0  0  0  0  0
   36.1799   23.9771   30.8365 H   0  0  0  0  0  0  0  0  0  0  0  0
   34.9469   28.6260   35.3746 H   0  0  0  0  0  0  0  0  0  0  0  0
   37.1074   30.0971   35.4280 H   0  0  0  0  0  0  0  0  0  0  0  0
   36.4979   30.8587   33.9502 H   0  0  0  0  0  0  0  0  0  0  0  0
   35.3761   30.8803   36.7567 H   0  0  0  0  0  0  0  0  0  0  0  0
   35.3746   32.1792   35.4953 H   0  0  0  0  0  0  0  0  0  0  0  0
   33.4588   29.9161   35.9437 H   0  0  0  0  0  0  0  0  0  0  0  0
   33.1697   31.6675   35.5416 H   0  0  0  0  0  0  0  0  0  0  0  0
   32.5687   30.1210   33.7130 H   0  0  0  0  0  0  0  0  0  0  0  0
   33.8854   31.3281   33.3042 H   0  0  0  0  0  0  0  0  0  0  0  0
   33.9050   28.4374   33.1727 H   0  0  0  0  0  0  0  0  0  0  0  0
   35.0340   29.6384   32.4877 H   0  0  0  0  0  0  0  0  0  0  0  0
   37.8077   22.1709   36.9884 H   0  0  0  0  0  0  0  0  0  0  0  0
   39.5047   21.7293   37.3170 H   0  0  0  0  0  0  0  0  0  0  0  0
  1 33  1  0
  2  1  2  0
  3  2  1  0
  4  5  1  0
  4  3  2  0
  5  6  2  0
  6  1  1  0
  7  5  1  0
  7  8  1  0
  9 27  1  0
  9  8  2  0
 10 11  2  0
 10  9  1  0
 11  7  1  0
 12 11  1  0
 13 12  2  0
 14 15  2  0
 14 13  1  0
 15 16  1  0
 16 12  1  0
 16 17  1  0
 17 18  2  0
 18 19  1  0
 20 19  2  0
 21 20  1  0
 22 21  2  0
 23 22  1  0
 24 25  1  0
 24 23  2  0
 25 26  2  0
 26 17  1  0
 26 21  1  0
 27 28  1  0
 28 29  1  0
 30 29  1  0
 31 30  1  0
 32 31  1  0
 32 27  1  0
  2 34  1  0
  3 35  1  0
  8 36  1  0
 13 37  1  0
 15 38  1  0
 19 39  1  0
 22 40  1  0
 23 41  1  0
 24 42  1  0
 25 43  1  0
 27 44  1  0
 28 45  1  0
 28 46  1  0
 29 47  1  0
 29 48  1  0
 30 49  1  0
 30 50  1  0
 31 51  1  0
 31 52  1  0
 32 53  1  0
 32 54  1  0
 33 55  1  0
 33 56  1  0
M  ISO  8  34  14  35  14  36  14  37  14  38  14  39  14  40  14  41  14
M  ISO  8  42  14  43  14  44  13  45  13  46  13  47  13  48  13  49  13
M  ISO  5  50  13  51  13  52  13  53  13  54  13
M  END
>  <minimizedAffinity>  (1) 
-6.98660851

>  <minimizedRMSD>  (1) 
0.466595143

$$$$
