
     RDKit          3D

 55 60  0  0  0  0  0  0  0  0999 V2000
   39.0720   23.4540   36.0970 C   0  0  0  0  0  0  0  0  0  0  0  0
   40.4810   23.5890   35.9850 C   0  0  0  0  0  0  0  0  0  0  0  0
   40.9510   24.6340   35.2320 C   0  0  0  0  0  0  0  0  0  0  0  0
   40.0210   25.4240   34.6740 N   0  0  0  0  0  0  0  0  0  0  0  0
   38.7330   25.3240   34.7600 C   0  0  0  0  0  0  0  0  0  0  0  0
   38.2460   24.3050   35.4950 N   0  0  0  0  0  0  0  0  0  0  0  0
   37.9870   26.2970   34.0780 N   0  0  0  0  0  0  0  0  0  0  0  0
   37.2540   27.1800   34.8080 C   0  0  0  0  0  0  0  0  0  0  0  0
   36.6060   28.0390   33.9460 C   0  0  0  0  0  0  0  0  0  0  0  0
   36.9480   27.6730   32.7150 N   0  0  0  0  0  0  0  0  0  0  0  0
   37.8070   26.5880   32.7880 C   0  0  0  0  0  0  0  0  0  0  0  0
   38.3460   25.9180   31.6490 C   0  0  0  0  0  0  0  0  0  0  0  0
   38.8210   26.6160   30.5210 C   0  0  0  0  0  0  0  0  0  0  0  0
   39.2490   25.7140   29.5820 N   0  0  0  0  0  0  0  0  0  0  0  0
   39.0340   24.4470   30.1370 C   0  0  0  0  0  0  0  0  0  0  0  0
   38.5130   24.6550   31.3360 N   0  0  0  0  0  0  0  0  0  0  0  0
   38.3990   23.3610   31.8530 C   0  0  0  0  0  0  0  0  0  0  0  0
   39.5310   22.9500   32.4360 N   0  0  0  0  0  0  0  0  0  0  0  0
   39.6110   21.6910   32.9350 C   0  0  0  0  0  0  0  0  0  0  0  0
   38.6150   20.8080   32.8870 N   0  0  0  0  0  0  0  0  0  0  0  0
   37.4540   21.1780   32.3090 C   0  0  0  0  0  0  0  0  0  0  0  0
   36.3530   20.3740   32.1870 C   0  0  0  0  0  0  0  0  0  0  0  0
   35.2070   20.8000   31.5890 C   0  0  0  0  0  0  0  0  0  0  0  0
   35.1440   22.0970   31.0800 C   0  0  0  0  0  0  0  0  0  0  0  0
   36.2140   22.9480   31.1740 C   0  0  0  0  0  0  0  0  0  0  0  0
   37.3420   22.4710   31.7840 C   0  0  0  0  0  0  0  0  0  0  0  0
   35.7310   29.1220   34.2490 N   0  0  0  0  0  0  0  0  0  0  0  0
   36.0530   30.0930   35.3060 C   0  0  0  0  0  0  0  0  0  0  0  0
   35.6640   31.4740   34.8930 C   0  0  0  0  0  0  0  0  0  0  0  0
   35.4900   31.6240   33.3980 C   0  0  0  0  0  0  0  0  0  0  0  0
   34.3930   30.6950   32.9210 C   0  0  0  0  0  0  0  0  0  0  0  0
   34.4810   29.3380   33.5450 C   0  0  0  0  0  0  0  0  0  0  0  0
   38.5370   22.3760   36.8960 N   0  0  0  0  0  0  0  0  0  0  0  0
   41.1660   22.8855   36.4810 H   0  0  0  0  0  0  0  0  0  0  0  0
   42.0273   24.8141   35.0935 H   0  0  0  0  0  0  0  0  0  0  0  0
   37.1889   27.2047   35.9058 H   0  0  0  0  0  0  0  0  0  0  0  0
   38.8446   27.7103   30.4115 H   0  0  0  0  0  0  0  0  0  0  0  0
   39.2536   23.4751   29.6710 H   0  0  0  0  0  0  0  0  0  0  0  0
   40.5547   21.3809   33.4074 H   0  0  0  0  0  0  0  0  0  0  0  0
   36.3958   19.3496   32.5855 H   0  0  0  0  0  0  0  0  0  0  0  0
   34.3396   20.1284   31.5080 H   0  0  0  0  0  0  0  0  0  0  0  0
   34.2194   22.4428   30.5947 H   0  0  0  0  0  0  0  0  0  0  0  0
   36.1679   23.9722   30.7755 H   0  0  0  0  0  0  0  0  0  0  0  0
   35.5071   29.8232   36.2221 H   0  0  0  0  0  0  0  0  0  0  0  0
   37.1379   30.0712   35.4865 H   0  0  0  0  0  0  0  0  0  0  0  0
   34.7129   31.7302   35.3828 H   0  0  0  0  0  0  0  0  0  0  0  0
   36.4800   32.1468   35.1955 H   0  0  0  0  0  0  0  0  0  0  0  0
   35.2178   32.6636   33.1631 H   0  0  0  0  0  0  0  0  0  0  0  0
   36.4326   31.3681   32.8919 H   0  0  0  0  0  0  0  0  0  0  0  0
   33.4192   31.1384   33.1763 H   0  0  0  0  0  0  0  0  0  0  0  0
   34.5082   30.5716   31.8340 H   0  0  0  0  0  0  0  0  0  0  0  0
   33.6517   29.2252   34.2589 H   0  0  0  0  0  0  0  0  0  0  0  0
   34.4257   28.5968   32.7341 H   0  0  0  0  0  0  0  0  0  0  0  0
   37.5177   22.2612   36.9897 H   0  0  0  0  0  0  0  0  0  0  0  0
   39.1748   21.7222   37.3720 H   0  0  0  0  0  0  0  0  0  0  0  0
  1 33  1  0
  2  1  2  0
  3  2  1  0
  4  5  1  0
  4  3  2  0
  5  6  2  0
  6  1  1  0
  7  5  1  0
  7  8  1  0
  9 27  1  0
  9  8  2  0
 10 11  2  0
 10  9  1  0
 11  7  1  0
 12 11  1  0
 13 12  2  0
 14 15  2  0
 14 13  1  0
 15 16  1  0
 16 12  1  0
 16 17  1  0
 17 18  2  0
 18 19  1  0
 20 19  2  0
 21 20  1  0
 22 21  2  0
 23 22  1  0
 24 25  1  0
 24 23  2  0
 25 26  2  0
 26 17  1  0
 26 21  1  0
 27 28  1  0
 29 28  1  0
 30 29  1  0
 31 30  1  0
 31 32  1  0
 32 27  1  0
  2 34  1  0
  3 35  1  0
  8 36  1  0
 13 37  1  0
 15 38  1  0
 19 39  1  0
 22 40  1  0
 23 41  1  0
 24 42  1  0
 25 43  1  0
 28 44  1  0
 28 45  1  0
 29 46  1  0
 29 47  1  0
 30 48  1  0
 30 49  1  0
 31 50  1  0
 31 51  1  0
 32 52  1  0
 32 53  1  0
 33 54  1  0
 33 55  1  0
M  ISO  8  34  14  35  14  36  14  37  14  38  14  39  14  40  14  41  14
M  ISO  8  42  14  43  14  44  13  45  13  46  13  47  13  48  13  49  13
M  ISO  4  50  13  51  13  52  13  53  13
M  END
>  <minimizedAffinity>  (1) 
-6.77135801

>  <minimizedRMSD>  (1) 
0.725304484

$$$$
