
     RDKit          3D

 45 50  0  0  0  0  0  0  0  0999 V2000
   39.0870   23.3770   36.1110 C   0  0  0  0  0  0  0  0  0  0  0  0
   40.4980   23.5280   35.9900 C   0  0  0  0  0  0  0  0  0  0  0  0
   40.9520   24.5900   35.2550 C   0  0  0  0  0  0  0  0  0  0  0  0
   40.0110   25.3840   34.7200 N   0  0  0  0  0  0  0  0  0  0  0  0
   38.7200   25.2670   34.8150 C   0  0  0  0  0  0  0  0  0  0  0  0
   38.2480   24.2310   35.5320 N   0  0  0  0  0  0  0  0  0  0  0  0
   37.9640   26.2480   34.1560 N   0  0  0  0  0  0  0  0  0  0  0  0
   37.2320   27.1120   34.9100 C   0  0  0  0  0  0  0  0  0  0  0  0
   36.5720   27.9840   34.0710 C   0  0  0  0  0  0  0  0  0  0  0  0
   36.9070   27.6460   32.8300 N   0  0  0  0  0  0  0  0  0  0  0  0
   37.7730   26.5630   32.8730 C   0  0  0  0  0  0  0  0  0  0  0  0
   38.3090   25.9200   31.7180 C   0  0  0  0  0  0  0  0  0  0  0  0
   38.7690   26.6470   30.6020 C   0  0  0  0  0  0  0  0  0  0  0  0
   39.2000   25.7690   29.6400 N   0  0  0  0  0  0  0  0  0  0  0  0
   39.0010   24.4900   30.1730 C   0  0  0  0  0  0  0  0  0  0  0  0
   38.4860   24.6660   31.3790 N   0  0  0  0  0  0  0  0  0  0  0  0
   38.3870   23.3620   31.8690 C   0  0  0  0  0  0  0  0  0  0  0  0
   39.5280   22.9510   32.4370 N   0  0  0  0  0  0  0  0  0  0  0  0
   39.6190   21.6810   32.9110 C   0  0  0  0  0  0  0  0  0  0  0  0
   38.6280   20.7920   32.8510 N   0  0  0  0  0  0  0  0  0  0  0  0
   37.4610   21.1630   32.2870 C   0  0  0  0  0  0  0  0  0  0  0  0
   36.3650   20.3540   32.1570 C   0  0  0  0  0  0  0  0  0  0  0  0
   35.2110   20.7830   31.5760 C   0  0  0  0  0  0  0  0  0  0  0  0
   35.1360   22.0880   31.0950 C   0  0  0  0  0  0  0  0  0  0  0  0
   36.2000   22.9460   31.1970 C   0  0  0  0  0  0  0  0  0  0  0  0
   37.3360   22.4660   31.7900 C   0  0  0  0  0  0  0  0  0  0  0  0
   35.6670   29.0900   34.3810 C   0  0  0  0  0  0  0  0  0  0  0  0
   34.3800   29.2900   34.0350 N   0  0  0  0  0  0  0  0  0  0  0  0
   34.0060   30.4410   34.5610 O   0  0  0  0  0  0  0  0  0  0  0  0
   34.9700   30.9990   35.2230 C   0  0  0  0  0  0  0  0  0  0  0  0
   36.0350   30.1560   35.1210 N   0  0  0  0  0  0  0  0  0  0  0  0
   38.5670   22.2780   36.8910 N   0  0  0  0  0  0  0  0  0  0  0  0
   41.1933   22.8215   36.4668 H   0  0  0  0  0  0  0  0  0  0  0  0
   42.0256   24.7816   35.1111 H   0  0  0  0  0  0  0  0  0  0  0  0
   37.1760   27.1143   36.0086 H   0  0  0  0  0  0  0  0  0  0  0  0
   38.7807   27.7436   30.5159 H   0  0  0  0  0  0  0  0  0  0  0  0
   39.2276   23.5300   29.6862 H   0  0  0  0  0  0  0  0  0  0  0  0
   40.5674   21.3678   33.3719 H   0  0  0  0  0  0  0  0  0  0  0  0
   36.4182   19.3222   32.5347 H   0  0  0  0  0  0  0  0  0  0  0  0
   34.3478   20.1069   31.4874 H   0  0  0  0  0  0  0  0  0  0  0  0
   34.2050   22.4367   30.6242 H   0  0  0  0  0  0  0  0  0  0  0  0
   36.1431   23.9771   30.8181 H   0  0  0  0  0  0  0  0  0  0  0  0
   34.9353   31.9590   35.7588 H   0  0  0  0  0  0  0  0  0  0  0  0
   37.5494   22.1527   36.9898 H   0  0  0  0  0  0  0  0  0  0  0  0
   39.2138   21.6197   37.3484 H   0  0  0  0  0  0  0  0  0  0  0  0
  1 32  1  0
  2  1  2  0
  3  2  1  0
  4  5  1  0
  4  3  2  0
  5  6  2  0
  6  1  1  0
  7  5  1  0
  7  8  1  0
  9 27  1  0
  9  8  2  0
 10 11  2  0
 10  9  1  0
 11  7  1  0
 12 11  1  0
 13 12  2  0
 14 15  2  0
 14 13  1  0
 15 16  1  0
 16 12  1  0
 16 17  1  0
 17 18  2  0
 18 19  1  0
 20 19  2  0
 21 20  1  0
 22 21  2  0
 23 22  1  0
 24 25  1  0
 24 23  2  0
 25 26  2  0
 26 17  1  0
 26 21  1  0
 27 31  1  0
 28 27  2  0
 28 29  1  0
 29 30  1  0
 31 30  2  0
  2 33  1  0
  3 34  1  0
  8 35  1  0
 13 36  1  0
 15 37  1  0
 19 38  1  0
 22 39  1  0
 23 40  1  0
 24 41  1  0
 25 42  1  0
 30 43  1  0
 32 44  1  0
 32 45  1  0
M  ISO  8  33  14  34  14  35  14  36  14  37  14  38  14  39  14  40  14
M  ISO  3  41  14  42  14  43  14
M  END
>  <minimizedAffinity>  (1) 
-6.65463543

>  <minimizedRMSD>  (1) 
0.505804896

$$$$
