
     RDKit          3D

 53 56  0  0  1  0  0  0  0  0999 V2000
   40.5970   23.5080   35.8750 C   0  0  1  0  0  0  0  0  0  0  0  0
   41.8100   24.1740   35.4360 C   0  0  0  0  0  0  0  0  0  0  0  0
   41.4080   25.1980   34.3560 C   0  0  0  0  0  0  0  0  0  0  0  0
   40.3460   26.0670   34.9690 C   0  0  0  0  0  0  0  0  0  0  0  0
   39.0950   25.3260   35.3110 C   0  0  0  0  0  0  0  0  0  0  0  0
   39.3670   23.8400   35.0640 C   0  0  2  0  0  0  0  0  0  0  0  0
   38.2670   23.0470   35.5590 N   0  0  0  0  0  0  0  0  0  0  0  0
   37.5400   22.1910   34.8360 C   0  0  0  0  0  0  0  0  0  0  0  0
   36.4910   21.4310   35.2990 C   0  0  0  0  0  0  0  0  0  0  0  0
   35.7330   20.4970   34.4080 C   0  0  0  0  0  0  0  0  0  0  0  0
   36.1350   21.5380   36.6260 C   0  0  0  0  0  0  0  0  0  0  0  0
   35.1970   20.8740   37.0920 O   0  0  0  0  0  0  0  0  0  0  0  0
   36.8530   22.3930   37.3750 N   0  0  0  0  0  0  0  0  0  0  0  0
   37.8680   23.1070   36.8560 C   0  0  0  0  0  0  0  0  0  0  0  0
   38.4430   23.8590   37.6770 O   0  0  0  0  0  0  0  0  0  0  0  0
   40.7770   21.9850   35.9500 C   0  0  0  0  0  0  0  0  0  0  0  0
   41.4540   21.2070   32.3990 C   0  0  0  0  0  0  0  0  0  0  0  0
   42.8090   20.9150   32.4040 C   0  0  0  0  0  0  0  0  0  0  0  0
   43.4580   20.9890   33.6200 C   0  0  0  0  0  0  0  0  0  0  0  0
   42.7460   21.3380   34.7180 N   0  0  0  0  0  0  0  0  0  0  0  0
   41.4520   21.6140   34.6930 C   0  0  0  0  0  0  0  0  0  0  0  0
   40.7790   21.5490   33.5100 N   0  0  0  0  0  0  0  0  0  0  0  0
   43.3980   20.5700   31.1740 N   0  0  0  0  0  0  0  0  0  0  0  0
   43.3170   19.2550   30.8300 C   0  0  0  0  0  0  0  0  0  0  0  0
   43.8910   18.8870   29.6300 C   0  0  0  0  0  0  0  0  0  0  0  0
   44.5050   19.8720   28.8640 C   0  0  0  0  0  0  0  0  0  0  0  0
   45.0930   19.5040   27.6520 N   0  0  0  0  0  0  0  0  0  0  0  0
   44.5440   21.1410   29.2660 N   0  0  0  0  0  0  0  0  0  0  0  0
   43.9850   21.5120   30.4400 C   0  0  0  0  0  0  0  0  0  0  0  0
   44.0480   22.7200   30.7770 O   0  0  0  0  0  0  0  0  0  0  0  0
   40.4204   23.9080   36.8843 H   0  0  0  0  0  0  0  0  0  0  0  0
   42.2845   24.6889   36.2844 H   0  0  0  0  0  0  0  0  0  0  0  0
   42.5290   23.4457   35.0326 H   0  0  0  0  0  0  0  0  0  0  0  0
   41.0115   24.6805   33.4700 H   0  0  0  0  0  0  0  0  0  0  0  0
   42.2729   25.7949   34.0310 H   0  0  0  0  0  0  0  0  0  0  0  0
   40.7496   26.5129   35.8900 H   0  0  0  0  0  0  0  0  0  0  0  0
   40.0778   26.8273   34.2207 H   0  0  0  0  0  0  0  0  0  0  0  0
   38.8360   25.4912   36.3672 H   0  0  0  0  0  0  0  0  0  0  0  0
   38.2532   25.6763   34.6957 H   0  0  0  0  0  0  0  0  0  0  0  0
   39.4960   23.6324   33.9915 H   0  0  0  0  0  0  0  0  0  0  0  0
   37.8041   22.0840   33.7736 H   0  0  0  0  0  0  0  0  0  0  0  0
   35.1583   19.7889   35.0231 H   0  0  0  0  0  0  0  0  0  0  0  0
   35.0444   21.0738   33.7731 H   0  0  0  0  0  0  0  0  0  0  0  0
   36.4392   19.9419   33.7731 H   0  0  0  0  0  0  0  0  0  0  0  0
   36.6198   22.5042   38.3721 H   0  0  0  0  0  0  0  0  0  0  0  0
   41.3974   21.7120   36.8163 H   0  0  0  0  0  0  0  0  0  0  0  0
   39.8165   21.4626   36.0710 H   0  0  0  0  0  0  0  0  0  0  0  0
   40.9079   21.1567   31.4455 H   0  0  0  0  0  0  0  0  0  0  0  0
   44.5330   20.7687   33.6958 H   0  0  0  0  0  0  0  0  0  0  0  0
   42.8173   18.5202   31.4783 H   0  0  0  0  0  0  0  0  0  0  0  0
   43.8635   17.8418   29.2884 H   0  0  0  0  0  0  0  0  0  0  0  0
   45.0624   18.5223   27.3418 H   0  0  0  0  0  0  0  0  0  0  0  0
   45.5573   20.2143   27.0682 H   0  0  0  0  0  0  0  0  0  0  0  0
  1 16  1  0
  2  1  1  0
  3  4  1  0
  3  2  1  0
  4  5  1  0
  6  5  1  0
  6  7  1  0
  6  1  1  0
  7 14  1  0
  8  9  2  0
  8  7  1  0
  9 11  1  0
 10  9  1  0
 11 12  2  0
 11 13  1  0
 14 13  1  0
 14 15  2  0
 17 18  2  0
 17 22  1  0
 18 19  1  0
 19 20  2  0
 21 20  1  0
 21 16  1  0
 22 21  2  0
 23 18  1  0
 24 23  1  0
 25 24  2  0
 26 28  2  0
 26 25  1  0
 27 26  1  0
 28 29  1  0
 29 30  2  0
 29 23  1  0
  1 31  1  1
  2 32  1  0
  2 33  1  0
  3 34  1  0
  3 35  1  0
  4 36  1  0
  4 37  1  0
  5 38  1  0
  5 39  1  0
  6 40  1  6
  8 41  1  0
 10 42  1  0
 10 43  1  0
 10 44  1  0
 13 45  1  0
 16 46  1  0
 16 47  1  0
 17 48  1  0
 19 49  1  0
 24 50  1  0
 25 51  1  0
 27 52  1  0
 27 53  1  0
M  ISO  8  31  13  32  13  33  13  34  13  35  13  36  13  37  13  38  13
M  ISO  8  39  13  40  13  41  14  42   8  43   8  44   8  45   9  46   8
M  ISO  5  47   8  48  14  49  14  50  14  51  14
M  END
>  <minimizedAffinity>  (1) 
-4.27377892

>  <minimizedRMSD>  (1) 
4.71163321

$$$$
