
     RDKit          3D

 46 50  0  0  0  0  0  0  0  0999 V2000
   38.4040   25.8580   31.6470 C   0  0  0  0  0  0  0  0  0  0  0  0
   38.8370   26.5810   30.5170 C   0  0  0  0  0  0  0  0  0  0  0  0
   39.2620   25.7000   29.5530 N   0  0  0  0  0  0  0  0  0  0  0  0
   39.0880   24.4250   30.1000 C   0  0  0  0  0  0  0  0  0  0  0  0
   38.5920   24.6010   31.3110 N   0  0  0  0  0  0  0  0  0  0  0  0
   38.5100   23.2990   31.8130 C   0  0  0  0  0  0  0  0  0  0  0  0
   39.6620   22.9020   32.3620 N   0  0  0  0  0  0  0  0  0  0  0  0
   39.7750   21.6380   32.8430 C   0  0  0  0  0  0  0  0  0  0  0  0
   38.7880   20.7380   32.8070 N   0  0  0  0  0  0  0  0  0  0  0  0
   37.6080   21.0980   32.2650 C   0  0  0  0  0  0  0  0  0  0  0  0
   36.5170   20.2790   32.1580 C   0  0  0  0  0  0  0  0  0  0  0  0
   35.3490   20.6930   31.5940 C   0  0  0  0  0  0  0  0  0  0  0  0
   35.2570   21.9940   31.1060 C   0  0  0  0  0  0  0  0  0  0  0  0
   36.3140   22.8620   31.1850 C   0  0  0  0  0  0  0  0  0  0  0  0
   37.4650   22.3970   31.7600 C   0  0  0  0  0  0  0  0  0  0  0  0
   39.3910   23.4140   36.0540 C   0  0  0  0  0  0  0  0  0  0  0  0
   40.7930   23.6010   35.8900 C   0  0  0  0  0  0  0  0  0  0  0  0
   41.1940   24.6640   35.1230 C   0  0  0  0  0  0  0  0  0  0  0  0
   40.2180   25.4180   34.6050 N   0  0  0  0  0  0  0  0  0  0  0  0
   38.9260   25.2680   34.7410 C   0  0  0  0  0  0  0  0  0  0  0  0
   38.5130   24.2340   35.4870 N   0  0  0  0  0  0  0  0  0  0  0  0
   38.1280   26.2160   34.0870 N   0  0  0  0  0  0  0  0  0  0  0  0
   37.4040   27.0740   34.8520 C   0  0  0  0  0  0  0  0  0  0  0  0
   36.6960   27.9200   34.0170 C   0  0  0  0  0  0  0  0  0  0  0  0
   37.0020   27.5610   32.7690 N   0  0  0  0  0  0  0  0  0  0  0  0
   37.8860   26.5070   32.8080 C   0  0  0  0  0  0  0  0  0  0  0  0
   38.9360   22.3120   36.8660 N   0  0  0  0  0  0  0  0  0  0  0  0
   35.7680   29.0250   34.4370 C   0  0  0  0  0  0  0  0  0  0  0  0
   35.5310   29.9000   33.2220 C   0  0  0  0  0  0  0  0  0  0  0  0
   38.8348   27.6769   30.4224 H   0  0  0  0  0  0  0  0  0  0  0  0
   39.3189   23.4643   29.6166 H   0  0  0  0  0  0  0  0  0  0  0  0
   40.7347   21.3369   33.2883 H   0  0  0  0  0  0  0  0  0  0  0  0
   36.5861   19.2502   32.5411 H   0  0  0  0  0  0  0  0  0  0  0  0
   34.4900   20.0094   31.5248 H   0  0  0  0  0  0  0  0  0  0  0  0
   34.3159   22.3318   30.6475 H   0  0  0  0  0  0  0  0  0  0  0  0
   36.2403   23.8905   30.8019 H   0  0  0  0  0  0  0  0  0  0  0  0
   41.5217   22.9228   36.3579 H   0  0  0  0  0  0  0  0  0  0  0  0
   42.2567   24.8842   34.9439 H   0  0  0  0  0  0  0  0  0  0  0  0
   37.3840   27.0929   35.9517 H   0  0  0  0  0  0  0  0  0  0  0  0
   37.9272   22.1540   37.0011 H   0  0  0  0  0  0  0  0  0  0  0  0
   39.6199   21.6832   37.3107 H   0  0  0  0  0  0  0  0  0  0  0  0
   34.8150   28.6031   34.7888 H   0  0  0  0  0  0  0  0  0  0  0  0
   36.2057   29.6101   35.2592 H   0  0  0  0  0  0  0  0  0  0  0  0
   35.2564   30.9140   33.5483 H   0  0  0  0  0  0  0  0  0  0  0  0
   36.4492   29.9453   32.6180 H   0  0  0  0  0  0  0  0  0  0  0  0
   34.7154   29.4757   32.6180 H   0  0  0  0  0  0  0  0  0  0  0  0
  1 26  1  0
  2  1  2  0
  3  4  2  0
  3  2  1  0
  4  5  1  0
  5  1  1  0
  5  6  1  0
  6  7  2  0
  7  8  1  0
  9  8  2  0
 10  9  1  0
 11 10  2  0
 12 11  1  0
 13 14  1  0
 13 12  2  0
 14 15  2  0
 15  6  1  0
 15 10  1  0
 16 27  1  0
 17 16  2  0
 18 17  1  0
 19 20  1  0
 19 18  2  0
 20 21  2  0
 21 16  1  0
 22 20  1  0
 22 23  1  0
 24 28  1  0
 24 23  2  0
 25 26  2  0
 25 24  1  0
 26 22  1  0
 29 28  1  0
  2 30  1  0
  4 31  1  0
  8 32  1  0
 11 33  1  0
 12 34  1  0
 13 35  1  0
 14 36  1  0
 17 37  1  0
 18 38  1  0
 23 39  1  0
 27 40  1  0
 27 41  1  0
 28 42  1  0
 28 43  1  0
 29 44  1  0
 29 45  1  0
 29 46  1  0
M  ISO  8  30  14  31  14  32  14  33  14  34  14  35  14  36  14  37  14
M  ISO  7  38  14  39  14  42   8  43   8  44   8  45   8  46   8
M  END
>  <minimizedAffinity>  (1) 
-6.19335461

>  <minimizedRMSD>  (1) 
0.316395402

$$$$
