
     RDKit          3D

 46 49  0  0  1  0  0  0  0  0999 V2000
   40.8370   22.4110   34.7890 C   0  0  0  0  0  0  0  0  0  0  0  0
   40.6780   23.8850   34.4000 C   0  0  1  0  0  0  0  0  0  0  0  0
   41.0320   24.1040   33.0060 C   0  0  0  0  0  0  0  0  0  0  0  0
   39.9380   24.9840   32.3740 C   0  0  0  0  0  0  0  0  0  0  0  0
   39.8190   26.2060   33.2420 C   0  0  0  0  0  0  0  0  0  0  0  0
   39.3700   25.9190   34.6350 C   0  0  0  0  0  0  0  0  0  0  0  0
   39.2860   24.3950   34.7650 C   0  0  2  0  0  0  0  0  0  0  0  0
   38.9540   24.0720   36.1770 C   0  0  0  0  0  0  0  0  0  0  0  0
   37.7500   24.5140   36.8100 C   0  0  0  0  0  0  0  0  0  0  0  0
   37.9410   23.7950   38.5120 S   0  0  0  0  0  0  0  0  0  0  0  0
   39.5960   23.0400   38.0520 C   0  0  0  0  0  0  0  0  0  0  0  0
   39.7610   23.3490   36.9370 N   0  0  0  0  0  0  0  0  0  0  0  0
   38.2290   20.9730   32.5870 C   0  0  0  0  0  0  0  0  0  0  0  0
   38.9850   20.1830   31.7040 C   0  0  0  0  0  0  0  0  0  0  0  0
   40.3430   20.1760   31.9010 C   0  0  0  0  0  0  0  0  0  0  0  0
   40.8720   20.9100   32.9080 N   0  0  0  0  0  0  0  0  0  0  0  0
   40.1440   21.6530   33.7330 C   0  0  0  0  0  0  0  0  0  0  0  0
   38.7920   21.6910   33.5780 N   0  0  0  0  0  0  0  0  0  0  0  0
   38.2710   19.4890   30.7220 N   0  0  0  0  0  0  0  0  0  0  0  0
   37.6170   18.3730   31.1410 C   0  0  0  0  0  0  0  0  0  0  0  0
   36.8930   17.6600   30.2110 C   0  0  0  0  0  0  0  0  0  0  0  0
   36.8770   18.1280   28.9140 C   0  0  0  0  0  0  0  0  0  0  0  0
   36.1460   17.4540   27.9470 N   0  0  0  0  0  0  0  0  0  0  0  0
   37.5490   19.2460   28.5590 N   0  0  0  0  0  0  0  0  0  0  0  0
   38.2610   19.9460   29.4740 C   0  0  0  0  0  0  0  0  0  0  0  0
   38.8680   20.9710   29.1090 O   0  0  0  0  0  0  0  0  0  0  0  0
   41.9012   22.1350   34.8261 H   0  0  0  0  0  0  0  0  0  0  0  0
   40.4190   22.2024   35.7849 H   0  0  0  0  0  0  0  0  0  0  0  0
   41.3891   24.4858   34.9860 H   0  0  0  0  0  0  0  0  0  0  0  0
   42.0048   24.6136   32.9428 H   0  0  0  0  0  0  0  0  0  0  0  0
   41.1074   23.1442   32.4739 H   0  0  0  0  0  0  0  0  0  0  0  0
   40.2245   25.2706   31.3514 H   0  0  0  0  0  0  0  0  0  0  0  0
   38.9809   24.4455   32.3117 H   0  0  0  0  0  0  0  0  0  0  0  0
   40.8038   26.6938   33.2895 H   0  0  0  0  0  0  0  0  0  0  0  0
   39.0505   26.8471   32.7855 H   0  0  0  0  0  0  0  0  0  0  0  0
   40.0950   26.3218   35.3576 H   0  0  0  0  0  0  0  0  0  0  0  0
   38.3967   26.3881   34.8416 H   0  0  0  0  0  0  0  0  0  0  0  0
   38.5207   23.9383   34.1201 H   0  0  0  0  0  0  0  0  0  0  0  0
   36.9289   25.1191   36.3982 H   0  0  0  0  0  0  0  0  0  0  0  0
   40.2623   22.4403   38.6895 H   0  0  0  0  0  0  0  0  0  0  0  0
   37.1364   21.0062   32.4642 H   0  0  0  0  0  0  0  0  0  0  0  0
   40.9957   19.5795   31.2467 H   0  0  0  0  0  0  0  0  0  0  0  0
   37.6646   18.0492   32.1912 H   0  0  0  0  0  0  0  0  0  0  0  0
   36.3462   16.7483   30.4934 H   0  0  0  0  0  0  0  0  0  0  0  0
   36.1319   17.8008   26.9773 H   0  0  0  0  0  0  0  0  0  0  0  0
   35.6173   16.6066   28.1986 H   0  0  0  0  0  0  0  0  0  0  0  0
  2  7  1  0
  2  1  1  0
  3  2  1  0
  4  3  1  0
  4  5  1  0
  5  6  1  0
  6  7  1  0
  7  8  1  0
  8  9  2  0
  8 12  1  0
  9 10  1  0
 11 10  1  0
 12 11  2  0
 13 18  2  0
 14 15  2  0
 14 13  1  0
 15 16  1  0
 16 17  2  0
 17  1  1  0
 18 17  1  0
 19 20  1  0
 19 14  1  0
 21 20  2  0
 22 21  1  0
 23 22  1  0
 24 22  2  0
 24 25  1  0
 25 19  1  0
 26 25  2  0
  1 27  1  0
  1 28  1  0
  2 29  1  1
  3 30  1  0
  3 31  1  0
  4 32  1  0
  4 33  1  0
  5 34  1  0
  5 35  1  0
  6 36  1  0
  6 37  1  0
  7 38  1  6
  9 39  1  0
 11 40  1  0
 13 41  1  0
 15 42  1  0
 20 43  1  0
 21 44  1  0
 23 45  1  0
 23 46  1  0
M  ISO  8  27   8  28   8  29  13  30  13  31  13  32  13  33  13  34  13
M  ISO  8  35  13  36  13  37  13  38  13  39  14  40  14  41  14  42  14
M  ISO  2  43  14  44  14
M  END
>  <minimizedAffinity>  (1) 
-4.24016523

>  <minimizedRMSD>  (1) 
2.09307671

$$$$
