
     RDKit          3D

 43 47  0  0  0  0  0  0  0  0999 V2000
   38.3290   25.9050   31.6900 C   0  0  0  0  0  0  0  0  0  0  0  0
   38.7950   26.6210   30.5700 C   0  0  0  0  0  0  0  0  0  0  0  0
   39.2240   25.7350   29.6150 N   0  0  0  0  0  0  0  0  0  0  0  0
   39.0180   24.4600   30.1560 C   0  0  0  0  0  0  0  0  0  0  0  0
   38.5020   24.6480   31.3600 N   0  0  0  0  0  0  0  0  0  0  0  0
   38.3990   23.3460   31.8600 C   0  0  0  0  0  0  0  0  0  0  0  0
   39.5380   22.9370   32.4320 N   0  0  0  0  0  0  0  0  0  0  0  0
   39.6250   21.6710   32.9150 C   0  0  0  0  0  0  0  0  0  0  0  0
   38.6330   20.7840   32.8610 N   0  0  0  0  0  0  0  0  0  0  0  0
   37.4650   21.1550   32.2930 C   0  0  0  0  0  0  0  0  0  0  0  0
   36.3680   20.3460   32.1670 C   0  0  0  0  0  0  0  0  0  0  0  0
   35.2180   20.7740   31.5820 C   0  0  0  0  0  0  0  0  0  0  0  0
   35.1460   22.0760   31.0900 C   0  0  0  0  0  0  0  0  0  0  0  0
   36.2130   22.9330   31.1880 C   0  0  0  0  0  0  0  0  0  0  0  0
   37.3440   22.4530   31.7870 C   0  0  0  0  0  0  0  0  0  0  0  0
   39.0980   23.3930   36.1020 C   0  0  0  0  0  0  0  0  0  0  0  0
   40.5080   23.5390   35.9830 C   0  0  0  0  0  0  0  0  0  0  0  0
   40.9660   24.5960   35.2400 C   0  0  0  0  0  0  0  0  0  0  0  0
   40.0250   25.3870   34.6990 N   0  0  0  0  0  0  0  0  0  0  0  0
   38.7300   25.2730   34.7920 C   0  0  0  0  0  0  0  0  0  0  0  0
   38.2630   24.2450   35.5160 N   0  0  0  0  0  0  0  0  0  0  0  0
   37.9810   26.2510   34.1260 N   0  0  0  0  0  0  0  0  0  0  0  0
   37.2520   27.1250   34.8710 C   0  0  0  0  0  0  0  0  0  0  0  0
   36.5980   27.9940   34.0240 C   0  0  0  0  0  0  0  0  0  0  0  0
   36.9350   27.6420   32.7850 N   0  0  0  0  0  0  0  0  0  0  0  0
   37.7940   26.5600   32.8410 C   0  0  0  0  0  0  0  0  0  0  0  0
   38.5760   22.3000   36.8910 N   0  0  0  0  0  0  0  0  0  0  0  0
   35.7030   29.0990   34.3640 C   0  0  0  0  0  0  0  0  0  0  0  0
   34.5360   29.1770   33.9010 O   0  0  0  0  0  0  0  0  0  0  0  0
   36.1220   30.1190   35.2270 O   0  0  0  0  0  0  0  0  0  0  0  0
   38.8121   27.7169   30.4762 H   0  0  0  0  0  0  0  0  0  0  0  0
   39.2405   23.4954   29.6763 H   0  0  0  0  0  0  0  0  0  0  0  0
   40.5723   21.3590   33.3790 H   0  0  0  0  0  0  0  0  0  0  0  0
   36.4187   19.3166   32.5514 H   0  0  0  0  0  0  0  0  0  0  0  0
   34.3531   20.0996   31.4978 H   0  0  0  0  0  0  0  0  0  0  0  0
   34.2168   22.4229   30.6144 H   0  0  0  0  0  0  0  0  0  0  0  0
   36.1605   23.9615   30.8014 H   0  0  0  0  0  0  0  0  0  0  0  0
   41.2007   22.8343   36.4662 H   0  0  0  0  0  0  0  0  0  0  0  0
   42.0400   24.7850   35.0955 H   0  0  0  0  0  0  0  0  0  0  0  0
   37.1939   27.1365   35.9694 H   0  0  0  0  0  0  0  0  0  0  0  0
   37.5582   22.1764   36.9900 H   0  0  0  0  0  0  0  0  0  0  0  0
   39.2218   21.6448   37.3542 H   0  0  0  0  0  0  0  0  0  0  0  0
   35.5073   30.8623   35.4501 H   0  0  0  0  0  0  0  0  0  0  0  0
  1 26  1  0
  2  1  2  0
  3  4  2  0
  3  2  1  0
  4  5  1  0
  5  1  1  0
  5  6  1  0
  6  7  2  0
  7  8  1  0
  9  8  2  0
 10  9  1  0
 11 10  2  0
 12 11  1  0
 13 14  1  0
 13 12  2  0
 14 15  2  0
 15  6  1  0
 15 10  1  0
 16 27  1  0
 17 16  2  0
 18 17  1  0
 19 20  1  0
 19 18  2  0
 20 21  2  0
 21 16  1  0
 22 20  1  0
 22 23  1  0
 24 28  1  0
 24 23  2  0
 25 26  2  0
 25 24  1  0
 26 22  1  0
 28 30  1  0
 29 28  2  0
  2 31  1  0
  4 32  1  0
  8 33  1  0
 11 34  1  0
 12 35  1  0
 13 36  1  0
 14 37  1  0
 17 38  1  0
 18 39  1  0
 23 40  1  0
 27 41  1  0
 27 42  1  0
 30 43  1  0
M  ISO  8  31  14  32  14  33  14  34  14  35  14  36  14  37  14  38  14
M  ISO  3  39  14  40  14  43   3
M  END
>  <minimizedAffinity>  (1) 
-6.26988459

>  <minimizedRMSD>  (1) 
0.438677728

$$$$
