
     RDKit          3D

 47 52  0  0  0  0  0  0  0  0999 V2000
   38.2270   25.9460   31.6700 C   0  0  0  0  0  0  0  0  0  0  0  0
   38.6590   26.6780   30.5460 C   0  0  0  0  0  0  0  0  0  0  0  0
   39.1310   25.8100   29.5950 N   0  0  0  0  0  0  0  0  0  0  0  0
   38.9860   24.5270   30.1410 C   0  0  0  0  0  0  0  0  0  0  0  0
   38.4590   24.6960   31.3440 N   0  0  0  0  0  0  0  0  0  0  0  0
   38.4180   23.3930   31.8500 C   0  0  0  0  0  0  0  0  0  0  0  0
   39.5750   23.0410   32.4240 N   0  0  0  0  0  0  0  0  0  0  0  0
   39.7220   21.7830   32.9140 C   0  0  0  0  0  0  0  0  0  0  0  0
   38.7730   20.8510   32.8640 N   0  0  0  0  0  0  0  0  0  0  0  0
   37.5890   21.1620   32.2940 C   0  0  0  0  0  0  0  0  0  0  0  0
   36.5290   20.3040   32.1730 C   0  0  0  0  0  0  0  0  0  0  0  0
   35.3550   20.6740   31.5840 C   0  0  0  0  0  0  0  0  0  0  0  0
   35.2290   21.9650   31.0890 C   0  0  0  0  0  0  0  0  0  0  0  0
   36.2540   22.8730   31.1790 C   0  0  0  0  0  0  0  0  0  0  0  0
   37.4090   22.4530   31.7790 C   0  0  0  0  0  0  0  0  0  0  0  0
   39.1180   23.4980   36.0940 C   0  0  0  0  0  0  0  0  0  0  0  0
   40.5170   23.7120   35.9730 C   0  0  0  0  0  0  0  0  0  0  0  0
   40.9220   24.7860   35.2250 C   0  0  0  0  0  0  0  0  0  0  0  0
   39.9460   25.5260   34.6800 N   0  0  0  0  0  0  0  0  0  0  0  0
   38.6600   25.3520   34.7740 C   0  0  0  0  0  0  0  0  0  0  0  0
   38.2430   24.3050   35.5030 N   0  0  0  0  0  0  0  0  0  0  0  0
   37.8630   26.2880   34.1020 N   0  0  0  0  0  0  0  0  0  0  0  0
   37.0930   27.1270   34.8440 C   0  0  0  0  0  0  0  0  0  0  0  0
   36.3960   27.9590   33.9920 C   0  0  0  0  0  0  0  0  0  0  0  0
   36.7480   27.6170   32.7520 N   0  0  0  0  0  0  0  0  0  0  0  0
   37.6600   26.5780   32.8150 C   0  0  0  0  0  0  0  0  0  0  0  0
   38.6510   22.3850   36.8880 N   0  0  0  0  0  0  0  0  0  0  0  0
   35.4220   29.0460   34.3620 C   0  0  0  0  0  0  0  0  0  0  0  0
   35.5110   30.3400   33.6430 C   0  0  0  0  0  0  0  0  0  0  0  0
   35.9980   30.2510   35.0460 C   0  0  0  0  0  0  0  0  0  0  0  0
   38.6232   27.7730   30.4470 H   0  0  0  0  0  0  0  0  0  0  0  0
   39.2557   23.5723   29.6659 H   0  0  0  0  0  0  0  0  0  0  0  0
   40.6826   21.5185   33.3800 H   0  0  0  0  0  0  0  0  0  0  0  0
   36.6271   19.2806   32.5642 H   0  0  0  0  0  0  0  0  0  0  0  0
   34.5216   19.9607   31.5027 H   0  0  0  0  0  0  0  0  0  0  0  0
   34.2845   22.2674   30.6131 H   0  0  0  0  0  0  0  0  0  0  0  0
   36.1510   23.8950   30.7854 H   0  0  0  0  0  0  0  0  0  0  0  0
   41.2438   23.0443   36.4588 H   0  0  0  0  0  0  0  0  0  0  0  0
   41.9855   25.0269   35.0801 H   0  0  0  0  0  0  0  0  0  0  0  0
   37.0350   27.1405   35.9424 H   0  0  0  0  0  0  0  0  0  0  0  0
   37.6406   22.2122   36.9886 H   0  0  0  0  0  0  0  0  0  0  0  0
   39.3285   21.7643   37.3535 H   0  0  0  0  0  0  0  0  0  0  0  0
   34.6084   28.3346   34.5669 H   0  0  0  0  0  0  0  0  0  0  0  0
   36.2304   30.4613   32.8197 H   0  0  0  0  0  0  0  0  0  0  0  0
   34.7919   30.9817   33.1127 H   0  0  0  0  0  0  0  0  0  0  0  0
   35.4404   30.7446   35.8556 H   0  0  0  0  0  0  0  0  0  0  0  0
   36.9431   30.4795   35.5603 H   0  0  0  0  0  0  0  0  0  0  0  0
  1 26  1  0
  2  1  2  0
  3  4  2  0
  3  2  1  0
  4  5  1  0
  5  1  1  0
  5  6  1  0
  6  7  2  0
  7  8  1  0
  9  8  2  0
 10  9  1  0
 11 10  2  0
 12 11  1  0
 13 14  1  0
 13 12  2  0
 14 15  2  0
 15  6  1  0
 15 10  1  0
 16 27  1  0
 17 16  2  0
 18 17  1  0
 19 20  1  0
 19 18  2  0
 20 21  2  0
 21 16  1  0
 22 20  1  0
 22 23  1  0
 24 28  1  0
 24 23  2  0
 25 26  2  0
 25 24  1  0
 26 22  1  0
 28 30  1  0
 29 28  1  0
 29 30  1  0
  2 31  1  0
  4 32  1  0
  8 33  1  0
 11 34  1  0
 12 35  1  0
 13 36  1  0
 14 37  1  0
 17 38  1  0
 18 39  1  0
 23 40  1  0
 27 41  1  0
 27 42  1  0
 28 43  1  0
 29 44  1  0
 29 45  1  0
 30 46  1  0
 30 47  1  0
M  ISO  8  31  14  32  14  33  14  34  14  35  14  36  14  37  14  38  14
M  ISO  7  39  14  40  14  43  13  44  13  45  13  46  13  47  13
M  END
>  <minimizedAffinity>  (1) 
-6.40531349

>  <minimizedRMSD>  (1) 
0.5114308

$$$$
