
     RDKit          3D

 32 33  0  0  0  0  0  0  0  0999 V2000
   39.9970   22.6200   37.6340 C   0  0  0  0  0  0  0  0  0  0  0  0
   38.9770   23.2470   38.3960 C   0  0  0  0  0  0  0  0  0  0  0  0
   37.7510   23.4780   37.7620 C   0  0  0  0  0  0  0  0  0  0  0  0
   37.5990   23.0990   36.4670 N   0  0  0  0  0  0  0  0  0  0  0  0
   38.6070   22.4990   35.7690 C   0  0  0  0  0  0  0  0  0  0  0  0
   39.7930   22.2640   36.3500 N   0  0  0  0  0  0  0  0  0  0  0  0
   38.4510   22.1010   34.4120 N   0  0  0  0  0  0  0  0  0  0  0  0
   39.5100   22.3750   33.5850 C   0  0  0  0  0  0  0  0  0  0  0  0
   39.3700   21.9910   32.2540 C   0  0  0  0  0  0  0  0  0  0  0  0
   38.1960   21.3630   31.8410 C   0  0  0  0  0  0  0  0  0  0  0  0
   38.1300   21.0400   30.6220 O   0  0  0  0  0  0  0  0  0  0  0  0
   37.2050   21.1290   32.7070 N   0  0  0  0  0  0  0  0  0  0  0  0
   37.3240   21.4960   34.0020 C   0  0  0  0  0  0  0  0  0  0  0  0
   36.4460   21.3070   34.8510 O   0  0  0  0  0  0  0  0  0  0  0  0
   36.0300   20.4890   32.2420 C   0  0  0  0  0  0  0  0  0  0  0  0
   35.5240   19.4540   33.2560 C   0  0  0  0  0  0  0  0  0  0  0  0
   36.1190   19.7970   30.9390 C   0  0  0  0  0  0  0  0  0  0  0  0
   34.9330   21.5340   32.1370 C   0  0  0  0  0  0  0  0  0  0  0  0
   40.9731   22.4206   38.1003 H   0  0  0  0  0  0  0  0  0  0  0  0
   39.1435   23.5397   39.4432 H   0  0  0  0  0  0  0  0  0  0  0  0
   36.9235   23.9590   38.3042 H   0  0  0  0  0  0  0  0  0  0  0  0
   40.4202   22.8710   33.9530 H   0  0  0  0  0  0  0  0  0  0  0  0
   40.1795   22.1817   31.5340 H   0  0  0  0  0  0  0  0  0  0  0  0
   35.7041   19.8223   34.2767 H   0  0  0  0  0  0  0  0  0  0  0  0
   34.4458   19.2934   33.1090 H   0  0  0  0  0  0  0  0  0  0  0  0
   36.0595   18.5045   33.1090 H   0  0  0  0  0  0  0  0  0  0  0  0
   36.2577   18.7185   31.1053 H   0  0  0  0  0  0  0  0  0  0  0  0
   35.1920   19.9642   30.3710 H   0  0  0  0  0  0  0  0  0  0  0  0
   36.9736   20.1933   30.3710 H   0  0  0  0  0  0  0  0  0  0  0  0
   34.6162   21.8358   33.1463 H   0  0  0  0  0  0  0  0  0  0  0  0
   35.3136   22.4119   31.5943 H   0  0  0  0  0  0  0  0  0  0  0  0
   34.0746   21.1113   31.5943 H   0  0  0  0  0  0  0  0  0  0  0  0
  1  2  2  0
  3  2  1  0
  4  3  2  0
  5  6  2  0
  5  4  1  0
  6  1  1  0
  7  5  1  0
  8  7  1  0
  9  8  2  0
 10  9  1  0
 10 12  1  0
 11 10  2  0
 12 13  1  0
 13  7  1  0
 13 14  2  0
 15 12  1  0
 15 16  1  0
 17 15  1  0
 18 15  1  0
  1 19  1  0
  2 20  1  0
  3 21  1  0
  8 22  1  0
  9 23  1  0
 16 24  1  0
 16 25  1  0
 16 26  1  0
 17 27  1  0
 17 28  1  0
 17 29  1  0
 18 30  1  0
 18 31  1  0
 18 32  1  0
M  ISO  8  19  14  20  14  21  14  22  14  23  14  24   8  25   8  26   8
M  ISO  6  27   8  28   8  29   8  30   8  31   8  32   8
M  END
>  <minimizedAffinity>  (1) 
-4.95937538

>  <minimizedRMSD>  (1) 
2.34389925

$$$$
