
     RDKit          3D

 34 36  0  0  0  0  0  0  0  0999 V2000
   39.9990   22.7820   37.6670 C   0  0  0  0  0  0  0  0  0  0  0  0
   39.0430   23.1910   38.6110 C   0  0  0  0  0  0  0  0  0  0  0  0
   37.7070   23.3180   38.1580 C   0  0  0  0  0  0  0  0  0  0  0  0
   37.4480   23.0420   36.8650 N   0  0  0  0  0  0  0  0  0  0  0  0
   38.3880   22.6520   35.9830 C   0  0  0  0  0  0  0  0  0  0  0  0
   39.6760   22.5180   36.3800 N   0  0  0  0  0  0  0  0  0  0  0  0
   38.1060   22.3610   34.6150 N   0  0  0  0  0  0  0  0  0  0  0  0
   39.0180   22.8420   33.7120 C   0  0  0  0  0  0  0  0  0  0  0  0
   38.7700   22.5750   32.3760 C   0  0  0  0  0  0  0  0  0  0  0  0
   37.6360   21.8490   32.0290 C   0  0  0  0  0  0  0  0  0  0  0  0
   37.4010   21.6000   30.8220 O   0  0  0  0  0  0  0  0  0  0  0  0
   36.7900   21.4100   32.9650 N   0  0  0  0  0  0  0  0  0  0  0  0
   37.0160   21.6620   34.2830 C   0  0  0  0  0  0  0  0  0  0  0  0
   36.2830   21.2930   35.2120 O   0  0  0  0  0  0  0  0  0  0  0  0
   35.6190   20.6610   32.6150 C   0  0  0  0  0  0  0  0  0  0  0  0
   35.5890   19.2680   33.1830 C   0  0  0  0  0  0  0  0  0  0  0  0
   35.8880   18.2190   32.2070 C   0  0  0  0  0  0  0  0  0  0  0  0
   35.5520   16.8780   32.4340 C   0  0  0  0  0  0  0  0  0  0  0  0
   35.8970   15.9870   31.4190 C   0  0  0  0  0  0  0  0  0  0  0  0
   36.5120   16.4140   30.3050 N   0  0  0  0  0  0  0  0  0  0  0  0
   36.8250   17.6870   30.1030 C   0  0  0  0  0  0  0  0  0  0  0  0
   36.5150   18.5920   31.0520 N   0  0  0  0  0  0  0  0  0  0  0  0
   41.0463   22.6725   37.9849 H   0  0  0  0  0  0  0  0  0  0  0  0
   39.3191   23.4030   39.6545 H   0  0  0  0  0  0  0  0  0  0  0  0
   36.9047   23.6326   38.8416 H   0  0  0  0  0  0  0  0  0  0  0  0
   39.9027   23.4117   34.0325 H   0  0  0  0  0  0  0  0  0  0  0  0
   39.4615   22.9328   31.5989 H   0  0  0  0  0  0  0  0  0  0  0  0
   34.7375   21.2045   32.9859 H   0  0  0  0  0  0  0  0  0  0  0  0
   35.6240   20.5573   31.5199 H   0  0  0  0  0  0  0  0  0  0  0  0
   36.3315   19.2088   33.9924 H   0  0  0  0  0  0  0  0  0  0  0  0
   34.5621   19.0907   33.5352 H   0  0  0  0  0  0  0  0  0  0  0  0
   35.0479   16.5491   33.3547 H   0  0  0  0  0  0  0  0  0  0  0  0
   35.6618   14.9185   31.5327 H   0  0  0  0  0  0  0  0  0  0  0  0
   37.3292   17.9987   29.1764 H   0  0  0  0  0  0  0  0  0  0  0  0
  1  2  2  0
  3  2  1  0
  4  3  2  0
  5  6  2  0
  5  4  1  0
  6  1  1  0
  7  5  1  0
  8  7  1  0
  9  8  2  0
 10  9  1  0
 10 12  1  0
 11 10  2  0
 12 13  1  0
 13  7  1  0
 13 14  2  0
 15 12  1  0
 15 16  1  0
 17 18  2  0
 17 16  1  0
 19 18  1  0
 20 19  2  0
 21 20  1  0
 21 22  2  0
 22 17  1  0
  1 23  1  0
  2 24  1  0
  3 25  1  0
  8 26  1  0
  9 27  1  0
 15 28  1  0
 15 29  1  0
 16 30  1  0
 16 31  1  0
 18 32  1  0
 19 33  1  0
 21 34  1  0
M  ISO  8  23  14  24  14  25  14  26  14  27  14  28   8  29   8  30   8
M  ISO  4  31   8  32  14  33  14  34  14
M  END
>  <minimizedAffinity>  (1) 
-5.0035615

>  <minimizedRMSD>  (1) 
0.877110362

$$$$
