
     RDKit          3D

 27 28  0  0  0  0  0  0  0  0999 V2000
   39.9870   22.6870   37.5240 C   0  0  0  0  0  0  0  0  0  0  0  0
   39.1070   23.2130   38.4870 C   0  0  0  0  0  0  0  0  0  0  0  0
   37.7380   23.3430   38.1040 C   0  0  0  0  0  0  0  0  0  0  0  0
   37.3860   22.9560   36.8620 N   0  0  0  0  0  0  0  0  0  0  0  0
   38.2760   22.4510   35.9610 C   0  0  0  0  0  0  0  0  0  0  0  0
   39.5610   22.3240   36.3020 N   0  0  0  0  0  0  0  0  0  0  0  0
   37.8730   22.0530   34.6600 N   0  0  0  0  0  0  0  0  0  0  0  0
   38.7380   22.4300   33.6550 C   0  0  0  0  0  0  0  0  0  0  0  0
   38.3960   22.0690   32.3600 C   0  0  0  0  0  0  0  0  0  0  0  0
   37.2250   21.3640   32.1580 C   0  0  0  0  0  0  0  0  0  0  0  0
   36.9090   21.0310   30.9730 O   0  0  0  0  0  0  0  0  0  0  0  0
   36.4280   21.0290   33.1790 N   0  0  0  0  0  0  0  0  0  0  0  0
   36.7580   21.3780   34.4430 C   0  0  0  0  0  0  0  0  0  0  0  0
   36.0770   21.1090   35.4460 O   0  0  0  0  0  0  0  0  0  0  0  0
   35.2180   20.2960   32.9480 C   0  0  0  0  0  0  0  0  0  0  0  0
   35.4220   18.7950   32.9140 C   0  0  0  0  0  0  0  0  0  0  0  0
   34.5080   18.3020   31.9710 O   0  0  0  0  0  0  0  0  0  0  0  0
   41.0510   22.5697   37.7774 H   0  0  0  0  0  0  0  0  0  0  0  0
   39.4568   23.5098   39.4868 H   0  0  0  0  0  0  0  0  0  0  0  0
   36.9913   23.7477   38.8030 H   0  0  0  0  0  0  0  0  0  0  0  0
   39.6586   22.9922   33.8704 H   0  0  0  0  0  0  0  0  0  0  0  0
   39.0431   22.3382   31.5122 H   0  0  0  0  0  0  0  0  0  0  0  0
   34.5072   20.5333   33.7533 H   0  0  0  0  0  0  0  0  0  0  0  0
   34.8403   20.5953   31.9592 H   0  0  0  0  0  0  0  0  0  0  0  0
   36.4517   18.5560   32.6096 H   0  0  0  0  0  0  0  0  0  0  0  0
   35.2618   18.3440   33.9044 H   0  0  0  0  0  0  0  0  0  0  0  0
   33.7407   17.8881   32.4402 H   0  0  0  0  0  0  0  0  0  0  0  0
  1  2  2  0
  3  2  1  0
  4  3  2  0
  5  6  2  0
  5  4  1  0
  6  1  1  0
  7  5  1  0
  8  7  1  0
  9  8  2  0
 10  9  1  0
 10 12  1  0
 11 10  2  0
 12 13  1  0
 13  7  1  0
 13 14  2  0
 15 12  1  0
 16 15  1  0
 17 16  1  0
  1 18  1  0
  2 19  1  0
  3 20  1  0
  8 21  1  0
  9 22  1  0
 15 23  1  0
 15 24  1  0
 16 25  1  0
 16 26  1  0
 17 27  1  0
M  ISO  8  18  14  19  14  20  14  21  14  22  14  23   8  24   8  25   8
M  ISO  2  26   8  27   3
M  END
>  <minimizedAffinity>  (1) 
-4.94258451

>  <minimizedRMSD>  (1) 
0.192983165

$$$$
