
     RDKit          3D

 28 29  0  0  0  0  0  0  0  0999 V2000
   39.8410   22.9580   37.4810 C   0  0  0  0  0  0  0  0  0  0  0  0
   38.9460   23.2540   38.5190 C   0  0  0  0  0  0  0  0  0  0  0  0
   37.5580   23.1880   38.2040 C   0  0  0  0  0  0  0  0  0  0  0  0
   37.2080   22.8500   36.9450 N   0  0  0  0  0  0  0  0  0  0  0  0
   38.1100   22.5700   35.9690 C   0  0  0  0  0  0  0  0  0  0  0  0
   39.4270   22.6270   36.2450 N   0  0  0  0  0  0  0  0  0  0  0  0
   37.7160   22.2180   34.6540 N   0  0  0  0  0  0  0  0  0  0  0  0
   38.4420   22.8120   33.6530 C   0  0  0  0  0  0  0  0  0  0  0  0
   38.0930   22.4980   32.3540 C   0  0  0  0  0  0  0  0  0  0  0  0
   37.0460   21.6160   32.1370 C   0  0  0  0  0  0  0  0  0  0  0  0
   36.7240   21.3250   30.9410 O   0  0  0  0  0  0  0  0  0  0  0  0
   36.3750   21.0670   33.1660 N   0  0  0  0  0  0  0  0  0  0  0  0
   36.7170   21.3760   34.4370 C   0  0  0  0  0  0  0  0  0  0  0  0
   36.1470   20.9130   35.4340 O   0  0  0  0  0  0  0  0  0  0  0  0
   35.2960   20.1580   32.9150 C   0  0  0  0  0  0  0  0  0  0  0  0
   35.7680   18.7550   32.6180 C   0  0  0  0  0  0  0  0  0  0  0  0
   34.7360   17.7940   32.8680 N   0  0  0  0  0  0  0  0  0  0  0  0
   40.9212   22.9980   37.6851 H   0  0  0  0  0  0  0  0  0  0  0  0
   39.2977   23.5236   39.5258 H   0  0  0  0  0  0  0  0  0  0  0  0
   36.7939   23.4061   38.9647 H   0  0  0  0  0  0  0  0  0  0  0  0
   39.2651   23.5071   33.8749 H   0  0  0  0  0  0  0  0  0  0  0  0
   38.6367   22.9403   31.5062 H   0  0  0  0  0  0  0  0  0  0  0  0
   34.6470   20.1296   33.8027 H   0  0  0  0  0  0  0  0  0  0  0  0
   34.7581   20.5207   32.0267 H   0  0  0  0  0  0  0  0  0  0  0  0
   36.6335   18.5255   33.2569 H   0  0  0  0  0  0  0  0  0  0  0  0
   36.0432   18.6996   31.5544 H   0  0  0  0  0  0  0  0  0  0  0  0
   34.6127   17.6791   33.8841 H   0  0  0  0  0  0  0  0  0  0  0  0
   33.8534   18.1213   32.4498 H   0  0  0  0  0  0  0  0  0  0  0  0
  1  2  2  0
  3  2  1  0
  4  3  2  0
  5  6  2  0
  5  4  1  0
  6  1  1  0
  7  5  1  0
  8  7  1  0
  9  8  2  0
 10  9  1  0
 10 12  1  0
 11 10  2  0
 12 13  1  0
 13  7  1  0
 13 14  2  0
 15 12  1  0
 16 17  1  0
 16 15  1  0
  1 18  1  0
  2 19  1  0
  3 20  1  0
  8 21  1  0
  9 22  1  0
 15 23  1  0
 15 24  1  0
 16 25  1  0
 16 26  1  0
 17 27  1  0
 17 28  1  0
M  ISO  8  18  14  19  14  20  14  21  14  22  14  23   8  24   8  25   8
M  ISO  3  26   8  27   5  28   5
M  END
>  <minimizedAffinity>  (1) 
-4.57412577

>  <minimizedRMSD>  (1) 
0.540908575

$$$$
