
     RDKit          3D

 54 58  0  0  1  0  0  0  0  0999 V2000
   42.2750   23.2710   35.6740 C   0  0  1  0  0  0  0  0  0  0  0  0
   41.2910   23.9040   36.5160 C   0  0  0  0  0  0  0  0  0  0  0  0
   40.2520   22.8420   36.9350 C   0  0  0  0  0  0  0  0  0  0  0  0
   41.0240   21.7150   37.5450 C   0  0  0  0  0  0  0  0  0  0  0  0
   41.9710   21.0540   36.6090 C   0  0  0  0  0  0  0  0  0  0  0  0
   41.9430   21.8300   35.2810 C   0  0  2  0  0  0  0  0  0  0  0  0
   42.9340   21.2510   34.3430 C   0  0  0  0  0  0  0  0  0  0  0  0
   44.2470   21.3170   34.5440 N   0  0  0  0  0  0  0  0  0  0  0  0
   45.1150   20.7750   33.6750 C   0  0  0  0  0  0  0  0  0  0  0  0
   44.7280   20.1270   32.5370 N   0  0  0  0  0  0  0  0  0  0  0  0
   43.3960   20.0230   32.2700 C   0  0  0  0  0  0  0  0  0  0  0  0
   43.0110   19.3730   31.1380 C   0  0  0  0  0  0  0  0  0  0  0  0
   41.6820   19.2560   30.8530 C   0  0  0  0  0  0  0  0  0  0  0  0
   40.7620   19.8010   31.7290 C   0  0  0  0  0  0  0  0  0  0  0  0
   41.2070   20.4500   32.8640 C   0  0  0  0  0  0  0  0  0  0  0  0
   42.5230   20.6000   33.1990 C   0  0  0  0  0  0  0  0  0  0  0  0
   42.5910   24.1060   34.4510 C   0  0  0  0  0  0  0  0  0  0  0  0
   39.7240   24.0090   32.0820 C   0  0  0  0  0  0  0  0  0  0  0  0
   38.8110   24.8480   32.7060 C   0  0  0  0  0  0  0  0  0  0  0  0
   39.1940   25.4210   33.9040 C   0  0  0  0  0  0  0  0  0  0  0  0
   40.4220   25.1400   34.4010 N   0  0  0  0  0  0  0  0  0  0  0  0
   41.2830   24.3310   33.7850 C   0  0  0  0  0  0  0  0  0  0  0  0
   40.9380   23.7480   32.6040 N   0  0  0  0  0  0  0  0  0  0  0  0
   37.5780   25.0360   32.0620 N   0  0  0  0  0  0  0  0  0  0  0  0
   36.7410   23.9740   32.0500 C   0  0  0  0  0  0  0  0  0  0  0  0
   35.5220   24.1280   31.4230 C   0  0  0  0  0  0  0  0  0  0  0  0
   35.2340   25.3520   30.8490 C   0  0  0  0  0  0  0  0  0  0  0  0
   34.0020   25.5070   30.2130 N   0  0  0  0  0  0  0  0  0  0  0  0
   36.1020   26.3620   30.8940 N   0  0  0  0  0  0  0  0  0  0  0  0
   37.3010   26.2220   31.5060 C   0  0  0  0  0  0  0  0  0  0  0  0
   38.0840   27.2000   31.5230 O   0  0  0  0  0  0  0  0  0  0  0  0
   43.1766   23.2073   36.3009 H   0  0  0  0  0  0  0  0  0  0  0  0
   41.7790   24.3192   37.4101 H   0  0  0  0  0  0  0  0  0  0  0  0
   40.7968   24.7215   35.9706 H   0  0  0  0  0  0  0  0  0  0  0  0
   39.5508   23.2646   37.6697 H   0  0  0  0  0  0  0  0  0  0  0  0
   39.6606   22.5002   36.0728 H   0  0  0  0  0  0  0  0  0  0  0  0
   41.5981   22.1099   38.3962 H   0  0  0  0  0  0  0  0  0  0  0  0
   40.2901   20.9529   37.8459 H   0  0  0  0  0  0  0  0  0  0  0  0
   42.9868   21.0717   37.0308 H   0  0  0  0  0  0  0  0  0  0  0  0
   41.6797   20.0058   36.4463 H   0  0  0  0  0  0  0  0  0  0  0  0
   40.9758   21.7800   34.7595 H   0  0  0  0  0  0  0  0  0  0  0  0
   46.1906   20.8569   33.8902 H   0  0  0  0  0  0  0  0  0  0  0  0
   43.7641   18.9461   30.4594 H   0  0  0  0  0  0  0  0  0  0  0  0
   41.3484   18.7371   29.9422 H   0  0  0  0  0  0  0  0  0  0  0  0
   39.6845   19.7185   31.5238 H   0  0  0  0  0  0  0  0  0  0  0  0
   40.4524   20.8740   33.5428 H   0  0  0  0  0  0  0  0  0  0  0  0
   43.0443   25.0643   34.7447 H   0  0  0  0  0  0  0  0  0  0  0  0
   43.3104   23.6056   33.7861 H   0  0  0  0  0  0  0  0  0  0  0  0
   39.4460   23.5402   31.1265 H   0  0  0  0  0  0  0  0  0  0  0  0
   38.5126   26.0942   34.4449 H   0  0  0  0  0  0  0  0  0  0  0  0
   37.0221   23.0216   32.5232 H   0  0  0  0  0  0  0  0  0  0  0  0
   34.7993   23.2998   31.3810 H   0  0  0  0  0  0  0  0  0  0  0  0
   33.3360   24.7219   30.1821 H   0  0  0  0  0  0  0  0  0  0  0  0
   33.7584   26.4065   29.7743 H   0  0  0  0  0  0  0  0  0  0  0  0
  1  2  1  0
  2  3  1  0
  3  4  1  0
  5  4  1  0
  6  1  1  0
  6  5  1  0
  7  8  2  0
  7  6  1  0
  9  8  1  0
 10  9  2  0
 11 10  1  0
 11 16  2  0
 12 11  1  0
 13 12  2  0
 13 14  1  0
 14 15  2  0
 15 16  1  0
 16  7  1  0
 17  1  1  0
 18 23  2  0
 18 19  1  0
 19 20  2  0
 20 21  1  0
 22 21  2  0
 22 17  1  0
 23 22  1  0
 24 19  1  0
 25 24  1  0
 26 25  2  0
 27 29  2  0
 27 26  1  0
 28 27  1  0
 29 30  1  0
 30 31  2  0
 30 24  1  0
  1 32  1  1
  2 33  1  0
  2 34  1  0
  3 35  1  0
  3 36  1  0
  4 37  1  0
  4 38  1  0
  5 39  1  0
  5 40  1  0
  6 41  1  6
  9 42  1  0
 12 43  1  0
 13 44  1  0
 14 45  1  0
 15 46  1  0
 17 47  1  0
 17 48  1  0
 18 49  1  0
 20 50  1  0
 25 51  1  0
 26 52  1  0
 28 53  1  0
 28 54  1  0
M  ISO  8  32  13  33  13  34  13  35  13  36  13  37  13  38  13  39  13
M  ISO  8  40  13  41  13  42  14  43  14  44  14  45  14  46  14  47   8
M  ISO  5  48   8  49  14  50  14  51  14  52  14
M  END
>  <minimizedAffinity>  (1) 
-4.09185123

>  <minimizedRMSD>  (1) 
6.8650322

$$$$
