
     RDKit          3D

 40 42  0  0  1  0  0  0  0  0999 V2000
   36.4250   22.2710   31.3280 C   0  0  0  0  0  0  0  0  0  0  0  0
   40.4110   23.0380   37.0740 C   0  0  0  0  0  0  0  0  0  0  0  0
   39.3860   23.0060   38.0430 C   0  0  0  0  0  0  0  0  0  0  0  0
   38.0610   23.1250   37.5700 C   0  0  0  0  0  0  0  0  0  0  0  0
   37.8750   23.2590   36.2410 N   0  0  0  0  0  0  0  0  0  0  0  0
   38.8820   23.2860   35.3390 C   0  0  0  0  0  0  0  0  0  0  0  0
   40.1310   23.1750   35.7700 N   0  0  0  0  0  0  0  0  0  0  0  0
   38.6570   23.4280   33.9520 N   0  0  0  0  0  0  0  0  0  0  0  0
   39.5410   24.2750   33.3030 C   0  0  0  0  0  0  0  0  0  0  0  0
   39.3600   24.4470   31.9390 C   0  0  0  0  0  0  0  0  0  0  0  0
   38.3310   23.7770   31.3180 C   0  0  0  0  0  0  0  0  0  0  0  0
   38.1610   23.9320   30.0730 O   0  0  0  0  0  0  0  0  0  0  0  0
   37.5070   22.9720   31.9940 N   0  0  0  0  0  0  0  0  0  0  0  0
   37.6730   22.7920   33.3380 C   0  0  0  0  0  0  0  0  0  0  0  0
   36.9590   22.0670   34.0340 O   0  0  0  0  0  0  0  0  0  0  0  0
   36.8020   20.9550   30.8430 C   0  0  0  0  0  0  0  0  0  0  0  0
   35.8090   19.8650   30.9270 C   0  0  1  0  0  0  0  0  0  0  0  0
   36.4690   18.5040   30.8970 C   0  0  0  0  0  0  0  0  0  0  0  0
   36.1670   17.8330   32.1920 C   0  0  0  0  0  0  0  0  0  0  0  0
   35.4790   18.8360   33.0620 C   0  0  0  0  0  0  0  0  0  0  0  0
   34.9500   19.8970   32.0940 C   0  0  2  0  0  0  0  0  0  0  0  0
   33.6750   19.4020   31.7250 O   0  0  0  0  0  0  0  0  0  0  0  0
   35.5943   22.1554   32.0397 H   0  0  0  0  0  0  0  0  0  0  0  0
   36.1409   22.8710   30.4509 H   0  0  0  0  0  0  0  0  0  0  0  0
   41.4595   22.9489   37.3944 H   0  0  0  0  0  0  0  0  0  0  0  0
   39.6082   22.8938   39.1145 H   0  0  0  0  0  0  0  0  0  0  0  0
   37.2074   23.1089   38.2636 H   0  0  0  0  0  0  0  0  0  0  0  0
   40.3494   24.7875   33.8450 H   0  0  0  0  0  0  0  0  0  0  0  0
   40.0266   25.1067   31.3642 H   0  0  0  0  0  0  0  0  0  0  0  0
   37.6839   20.6367   31.4182 H   0  0  0  0  0  0  0  0  0  0  0  0
   36.9558   21.0983   29.7633 H   0  0  0  0  0  0  0  0  0  0  0  0
   35.1808   20.0348   30.0401 H   0  0  0  0  0  0  0  0  0  0  0  0
   36.0672   17.9097   30.0631 H   0  0  0  0  0  0  0  0  0  0  0  0
   37.5553   18.6026   30.7551 H   0  0  0  0  0  0  0  0  0  0  0  0
   35.5098   16.9672   32.0232 H   0  0  0  0  0  0  0  0  0  0  0  0
   37.0904   17.4720   32.6685 H   0  0  0  0  0  0  0  0  0  0  0  0
   34.6506   18.3671   33.6132 H   0  0  0  0  0  0  0  0  0  0  0  0
   36.1552   19.2635   33.8170 H   0  0  0  0  0  0  0  0  0  0  0  0
   34.9134   20.9153   32.5083 H   0  0  0  0  0  0  0  0  0  0  0  0
   33.1513   19.1987   32.5402 H   0  0  0  0  0  0  0  0  0  0  0  0
  1 13  1  0
  2  3  2  0
  4  3  1  0
  5  4  2  0
  6  7  2  0
  6  5  1  0
  7  2  1  0
  8  6  1  0
  9  8  1  0
 10  9  2  0
 11 10  1  0
 11 13  1  0
 12 11  2  0
 13 14  1  0
 14  8  1  0
 14 15  2  0
 16 17  1  0
 16  1  1  0
 17 21  1  0
 18 17  1  0
 18 19  1  0
 19 20  1  0
 21 20  1  0
 22 21  1  0
  1 23  1  0
  1 24  1  0
  2 25  1  0
  3 26  1  0
  4 27  1  0
  9 28  1  0
 10 29  1  0
 16 30  1  0
 16 31  1  0
 17 32  1  6
 18 33  1  0
 18 34  1  0
 19 35  1  0
 19 36  1  0
 20 37  1  0
 20 38  1  0
 21 39  1  1
 22 40  1  0
M  ISO  8  23   8  24   8  25  14  26  14  27  14  28  14  29  14  30   8
M  ISO  8  31   8  32  13  33  13  34  13  35  13  36  13  37  13  38  13
M  ISO  2  39  13  40   3
M  END
>  <minimizedAffinity>  (1) 
-5.20027542

>  <minimizedRMSD>  (1) 
0.105681062

$$$$
