
     RDKit          3D

 46 49  0  0  1  0  0  0  0  0999 V2000
   39.3420   23.9230   35.6220 C   0  0  0  0  0  0  0  0  0  0  0  0
   35.2320   18.9540   32.7830 C   0  0  0  0  0  0  0  0  0  0  0  0
   35.0430   19.5450   31.5140 C   0  0  0  0  0  0  0  0  0  0  0  0
   35.4360   20.9050   31.3700 C   0  0  0  0  0  0  0  0  0  0  0  0
   35.9560   21.5260   32.4470 N   0  0  0  0  0  0  0  0  0  0  0  0
   36.1220   20.9340   33.6420 C   0  0  0  0  0  0  0  0  0  0  0  0
   35.7580   19.6590   33.7920 N   0  0  0  0  0  0  0  0  0  0  0  0
   36.6710   21.6040   34.7640 N   0  0  0  0  0  0  0  0  0  0  0  0
   36.0390   21.3470   35.9670 C   0  0  0  0  0  0  0  0  0  0  0  0
   36.5470   21.9830   37.0870 C   0  0  0  0  0  0  0  0  0  0  0  0
   37.6290   22.8190   36.9460 C   0  0  0  0  0  0  0  0  0  0  0  0
   38.1000   23.4050   37.9680 O   0  0  0  0  0  0  0  0  0  0  0  0
   38.2000   23.0300   35.7570 N   0  0  0  0  0  0  0  0  0  0  0  0
   37.7110   22.4100   34.6420 C   0  0  0  0  0  0  0  0  0  0  0  0
   38.1810   22.5490   33.5050 O   0  0  0  0  0  0  0  0  0  0  0  0
   40.5840   23.2180   35.3620 C   0  0  0  0  0  0  0  0  0  0  0  0
   41.5480   23.0900   36.4750 C   0  0  1  0  0  0  0  0  0  0  0  0
   41.2420   21.8870   37.3280 C   0  0  0  0  0  0  0  0  0  0  0  0
   42.4100   20.9760   37.2400 C   0  0  0  0  0  0  0  0  0  0  0  0
   43.3260   21.5340   36.1900 C   0  0  0  0  0  0  0  0  0  0  0  0
   42.9700   22.9910   36.0670 C   0  0  2  0  0  0  0  0  0  0  0  0
   43.7810   23.9230   36.9230 C   0  0  0  0  0  0  0  0  0  0  0  0
   45.2160   24.1760   36.6950 C   0  0  0  0  0  0  0  0  0  0  0  0
   44.1940   25.2280   36.2960 C   0  0  0  0  0  0  0  0  0  0  0  0
   39.1500   24.6145   34.7883 H   0  0  0  0  0  0  0  0  0  0  0  0
   39.4589   24.4554   36.5775 H   0  0  0  0  0  0  0  0  0  0  0  0
   34.9442   17.9045   32.9435 H   0  0  0  0  0  0  0  0  0  0  0  0
   34.6115   18.9794   30.6750 H   0  0  0  0  0  0  0  0  0  0  0  0
   35.3192   21.4319   30.4115 H   0  0  0  0  0  0  0  0  0  0  0  0
   35.1744   20.6699   36.0309 H   0  0  0  0  0  0  0  0  0  0  0  0
   36.0914   21.8217   38.0751 H   0  0  0  0  0  0  0  0  0  0  0  0
   40.3221   22.2007   35.0358 H   0  0  0  0  0  0  0  0  0  0  0  0
   41.1031   23.8362   34.6147 H   0  0  0  0  0  0  0  0  0  0  0  0
   41.4229   24.0300   37.0324 H   0  0  0  0  0  0  0  0  0  0  0  0
   41.0832   22.1960   38.3717 H   0  0  0  0  0  0  0  0  0  0  0  0
   40.3282   21.3839   36.9789 H   0  0  0  0  0  0  0  0  0  0  0  0
   42.9287   20.9327   38.2090 H   0  0  0  0  0  0  0  0  0  0  0  0
   42.0922   19.9554   36.9804 H   0  0  0  0  0  0  0  0  0  0  0  0
   44.3758   21.4210   36.4983 H   0  0  0  0  0  0  0  0  0  0  0  0
   43.2112   21.0070   35.2313 H   0  0  0  0  0  0  0  0  0  0  0  0
   43.1742   23.3051   35.0328 H   0  0  0  0  0  0  0  0  0  0  0  0
   43.2273   23.5958   37.8154 H   0  0  0  0  0  0  0  0  0  0  0  0
   45.8844   24.3562   37.5499 H   0  0  0  0  0  0  0  0  0  0  0  0
   46.0245   23.6428   36.1736 H   0  0  0  0  0  0  0  0  0  0  0  0
   44.1133   26.1663   36.8643 H   0  0  0  0  0  0  0  0  0  0  0  0
   43.9435   25.7725   35.3736 H   0  0  0  0  0  0  0  0  0  0  0  0
  1 13  1  0
  2  7  2  0
  3  2  1  0
  4  3  2  0
  4  5  1  0
  5  6  2  0
  6  7  1  0
  6  8  1  0
  8  9  1  0
  9 10  2  0
 11 10  1  0
 11 12  2  0
 13 11  1  0
 14  8  1  0
 14 13  1  0
 15 14  2  0
 16  1  1  0
 16 17  1  0
 17 18  1  0
 19 18  1  0
 20 19  1  0
 21 20  1  0
 21 17  1  0
 21 22  1  0
 23 22  1  0
 24 23  1  0
 24 22  1  0
  1 25  1  0
  1 26  1  0
  2 27  1  0
  3 28  1  0
  4 29  1  0
  9 30  1  0
 10 31  1  0
 16 32  1  0
 16 33  1  0
 17 34  1  1
 18 35  1  0
 18 36  1  0
 19 37  1  0
 19 38  1  0
 20 39  1  0
 20 40  1  0
 21 41  1  6
 22 42  1  0
 23 43  1  0
 23 44  1  0
 24 45  1  0
 24 46  1  0
M  ISO  8  25   8  26   8  27  14  28  14  29  14  30  14  31  14  32   8
M  ISO  8  33   8  34  13  35  13  36  13  37  13  38  13  39  13  40  13
M  ISO  6  41  13  42  13  43  13  44  13  45  13  46  13
M  END
>  <minimizedAffinity>  (1) 
-5.25606441

>  <minimizedRMSD>  (1) 
7.75992918

$$$$
