
     RDKit          3D

 44 47  0  0  1  0  0  0  0  0999 V2000
   37.3180   22.3300   32.8170 C   0  0  0  0  0  0  0  0  0  0  0  0
   36.9490   16.5610   28.8220 C   0  0  0  0  0  0  0  0  0  0  0  0
   36.9510   17.1660   27.5700 C   0  0  0  0  0  0  0  0  0  0  0  0
   36.7410   18.5520   27.5490 C   0  0  0  0  0  0  0  0  0  0  0  0
   36.5550   19.1900   28.7220 N   0  0  0  0  0  0  0  0  0  0  0  0
   36.5590   18.5800   29.9110 C   0  0  0  0  0  0  0  0  0  0  0  0
   36.7550   17.2690   29.9430 N   0  0  0  0  0  0  0  0  0  0  0  0
   36.3620   19.2570   31.1430 N   0  0  0  0  0  0  0  0  0  0  0  0
   35.5590   18.6010   32.0530 C   0  0  0  0  0  0  0  0  0  0  0  0
   35.3460   19.2280   33.2630 C   0  0  0  0  0  0  0  0  0  0  0  0
   35.9330   20.4530   33.4920 C   0  0  0  0  0  0  0  0  0  0  0  0
   35.7430   21.0320   34.5950 O   0  0  0  0  0  0  0  0  0  0  0  0
   36.7030   21.0430   32.5730 N   0  0  0  0  0  0  0  0  0  0  0  0
   36.9210   20.4310   31.3720 C   0  0  0  0  0  0  0  0  0  0  0  0
   37.6200   20.9110   30.4710 O   0  0  0  0  0  0  0  0  0  0  0  0
   38.7480   22.2600   33.0500 C   0  0  0  0  0  0  0  0  0  0  0  0
   39.2250   22.3810   34.4450 C   0  0  1  0  0  0  0  0  0  0  0  0
   40.6850   22.0040   34.5440 C   0  0  0  0  0  0  0  0  0  0  0  0
   41.4390   23.2180   34.9780 C   0  0  0  0  0  0  0  0  0  0  0  0
   40.4710   24.3560   34.9890 C   0  0  0  0  0  0  0  0  0  0  0  0
   39.0860   23.7030   35.0350 C   0  0  2  0  0  0  0  0  0  0  0  0
   38.6900   23.5190   36.4810 C   0  0  0  0  0  0  0  0  0  0  0  0
   39.5420   23.2080   37.4900 N   0  0  0  0  0  0  0  0  0  0  0  0
   38.8860   23.1280   38.5830 O   0  0  0  0  0  0  0  0  0  0  0  0
   37.6000   23.3710   38.3740 C   0  0  0  0  0  0  0  0  0  0  0  0
   37.4680   23.6190   37.0600 N   0  0  0  0  0  0  0  0  0  0  0  0
   36.8438   22.7789   33.7022 H   0  0  0  0  0  0  0  0  0  0  0  0
   37.1702   22.9333   31.9092 H   0  0  0  0  0  0  0  0  0  0  0  0
   37.1105   15.4753   28.8939 H   0  0  0  0  0  0  0  0  0  0  0  0
   37.1087   16.5889   26.6469 H   0  0  0  0  0  0  0  0  0  0  0  0
   36.7283   19.1055   26.5985 H   0  0  0  0  0  0  0  0  0  0  0  0
   35.1095   17.6234   31.8243 H   0  0  0  0  0  0  0  0  0  0  0  0
   34.7172   18.7572   34.0331 H   0  0  0  0  0  0  0  0  0  0  0  0
   39.0959   21.2893   32.6671 H   0  0  0  0  0  0  0  0  0  0  0  0
   39.1561   23.1447   32.5394 H   0  0  0  0  0  0  0  0  0  0  0  0
   38.5736   21.6945   35.0057 H   0  0  0  0  0  0  0  0  0  0  0  0
   40.8148   21.1987   35.2820 H   0  0  0  0  0  0  0  0  0  0  0  0
   41.0572   21.6461   33.5727 H   0  0  0  0  0  0  0  0  0  0  0  0
   41.8528   23.0649   35.9856 H   0  0  0  0  0  0  0  0  0  0  0  0
   42.2767   23.4233   34.2953 H   0  0  0  0  0  0  0  0  0  0  0  0
   40.6291   24.9886   35.8749 H   0  0  0  0  0  0  0  0  0  0  0  0
   40.5904   25.0065   34.1101 H   0  0  0  0  0  0  0  0  0  0  0  0
   38.3396   24.3148   34.5071 H   0  0  0  0  0  0  0  0  0  0  0  0
   36.7987   23.3699   39.1276 H   0  0  0  0  0  0  0  0  0  0  0  0
  1 16  1  0
  2  7  2  0
  3  2  1  0
  4  3  2  0
  4  5  1  0
  5  6  2  0
  6  7  1  0
  6  8  1  0
  8 14  1  0
  8  9  1  0
  9 10  2  0
 10 11  1  0
 11 12  2  0
 13  1  1  0
 13 11  1  0
 14 13  1  0
 15 14  2  0
 16 17  1  0
 17 18  1  0
 17 21  1  0
 18 19  1  0
 19 20  1  0
 20 21  1  0
 21 22  1  0
 22 26  1  0
 22 23  2  0
 23 24  1  0
 25 24  1  0
 26 25  2  0
  1 27  1  0
  1 28  1  0
  2 29  1  0
  3 30  1  0
  4 31  1  0
  9 32  1  0
 10 33  1  0
 16 34  1  0
 16 35  1  0
 17 36  1  1
 18 37  1  0
 18 38  1  0
 19 39  1  0
 19 40  1  0
 20 41  1  0
 20 42  1  0
 21 43  1  6
 25 44  1  0
M  ISO  8  27   8  28   8  29  14  30  14  31  14  32  14  33  14  34   8
M  ISO  8  35   8  36  13  37  13  38  13  39  13  40  13  41  13  42  13
M  ISO  2  43  13  44  14
M  END
>  <minimizedAffinity>  (1) 
-5.17480278

>  <minimizedRMSD>  (1) 
7.74593925

$$$$
