
     RDKit          3D

 41 43  0  0  1  0  0  0  0  0999 V2000
   36.6260   22.3490   31.3010 C   0  0  0  0  0  0  0  0  0  0  0  0
   40.2670   22.9840   37.2810 C   0  0  0  0  0  0  0  0  0  0  0  0
   39.1930   23.0360   38.1780 C   0  0  0  0  0  0  0  0  0  0  0  0
   37.9040   23.2310   37.6200 C   0  0  0  0  0  0  0  0  0  0  0  0
   37.8130   23.3490   36.2800 N   0  0  0  0  0  0  0  0  0  0  0  0
   38.8650   23.2940   35.4470 C   0  0  0  0  0  0  0  0  0  0  0  0
   40.0720   23.1120   35.9650 N   0  0  0  0  0  0  0  0  0  0  0  0
   38.7440   23.4210   34.0460 N   0  0  0  0  0  0  0  0  0  0  0  0
   39.7230   24.1980   33.4420 C   0  0  0  0  0  0  0  0  0  0  0  0
   39.6410   24.3480   32.0690 C   0  0  0  0  0  0  0  0  0  0  0  0
   38.6140   23.7300   31.3870 C   0  0  0  0  0  0  0  0  0  0  0  0
   38.5390   23.8680   30.1340 O   0  0  0  0  0  0  0  0  0  0  0  0
   37.7000   22.9940   32.0230 N   0  0  0  0  0  0  0  0  0  0  0  0
   37.7670   22.8360   33.3780 C   0  0  0  0  0  0  0  0  0  0  0  0
   36.9620   22.1710   34.0410 O   0  0  0  0  0  0  0  0  0  0  0  0
   36.9480   20.9940   30.8730 C   0  0  0  0  0  0  0  0  0  0  0  0
   35.8800   19.9740   30.9450 C   0  0  1  0  0  0  0  0  0  0  0  0
   36.4510   18.5770   30.8810 C   0  0  0  0  0  0  0  0  0  0  0  0
   36.1430   17.8990   32.1710 C   0  0  0  0  0  0  0  0  0  0  0  0
   35.5220   18.9240   33.0660 C   0  0  0  0  0  0  0  0  0  0  0  0
   35.0420   20.0340   32.1280 C   0  0  2  0  0  0  0  0  0  0  0  0
   33.6850   19.6040   31.7410 N   0  0  0  0  0  0  0  0  0  0  0  0
   35.7422   22.3074   31.9546 H   0  0  0  0  0  0  0  0  0  0  0  0
   36.4438   22.9417   30.3924 H   0  0  0  0  0  0  0  0  0  0  0  0
   41.2869   22.8355   37.6654 H   0  0  0  0  0  0  0  0  0  0  0  0
   39.3420   22.9307   39.2628 H   0  0  0  0  0  0  0  0  0  0  0  0
   37.0096   23.2841   38.2581 H   0  0  0  0  0  0  0  0  0  0  0  0
   40.5253   24.6716   34.0268 H   0  0  0  0  0  0  0  0  0  0  0  0
   40.3849   24.9520   31.5288 H   0  0  0  0  0  0  0  0  0  0  0  0
   37.7805   20.6415   31.4997 H   0  0  0  0  0  0  0  0  0  0  0  0
   37.1675   21.0885   29.7993 H   0  0  0  0  0  0  0  0  0  0  0  0
   35.2508   20.2070   30.0733 H   0  0  0  0  0  0  0  0  0  0  0  0
   35.9924   18.0232   30.0485 H   0  0  0  0  0  0  0  0  0  0  0  0
   37.5380   18.6137   30.7165 H   0  0  0  0  0  0  0  0  0  0  0  0
   35.4411   17.0688   32.0033 H   0  0  0  0  0  0  0  0  0  0  0  0
   37.0553   17.4833   32.6238 H   0  0  0  0  0  0  0  0  0  0  0  0
   34.6746   18.4918   33.6183 H   0  0  0  0  0  0  0  0  0  0  0  0
   36.2317   19.2984   33.8184 H   0  0  0  0  0  0  0  0  0  0  0  0
   35.0693   21.0408   32.5702 H   0  0  0  0  0  0  0  0  0  0  0  0
   33.1263   19.4270   32.5880 H   0  0  0  0  0  0  0  0  0  0  0  0
   33.2366   20.3441   31.1824 H   0  0  0  0  0  0  0  0  0  0  0  0
  1 13  1  0
  2  3  2  0
  4  3  1  0
  5  4  2  0
  6  7  2  0
  6  5  1  0
  7  2  1  0
  8  6  1  0
  9  8  1  0
 10  9  2  0
 11 13  1  0
 11 10  1  0
 12 11  2  0
 13 14  1  0
 14 15  2  0
 14  8  1  0
 16 17  1  0
 16  1  1  0
 17 21  1  0
 18 17  1  0
 18 19  1  0
 19 20  1  0
 21 20  1  0
 22 21  1  0
  1 23  1  0
  1 24  1  0
  2 25  1  0
  3 26  1  0
  4 27  1  0
  9 28  1  0
 10 29  1  0
 16 30  1  0
 16 31  1  0
 17 32  1  6
 18 33  1  0
 18 34  1  0
 19 35  1  0
 19 36  1  0
 20 37  1  0
 20 38  1  0
 21 39  1  1
 22 40  1  0
 22 41  1  0
M  ISO  8  23   8  24   8  25  14  26  14  27  14  28  14  29  14  30   8
M  ISO  8  31   8  32  13  33  13  34  13  35  13  36  13  37  13  38  13
M  ISO  3  39  13  40   5  41   5
M  END
>  <minimizedAffinity>  (1) 
-5.04585648

>  <minimizedRMSD>  (1) 
0.228649721

$$$$
