
     RDKit          3D

 45 47  0  0  1  0  0  0  0  0999 V2000
   35.9500   22.3000   32.0720 C   0  0  0  0  0  0  0  0  0  0  0  0
   41.7060   23.4780   35.9250 C   0  0  0  0  0  0  0  0  0  0  0  0
   41.3980   22.6780   37.0210 C   0  0  0  0  0  0  0  0  0  0  0  0
   40.0730   22.2190   37.1080 C   0  0  0  0  0  0  0  0  0  0  0  0
   39.2040   22.5810   36.1400 N   0  0  0  0  0  0  0  0  0  0  0  0
   39.5290   23.3510   35.0970 C   0  0  0  0  0  0  0  0  0  0  0  0
   40.7890   23.7980   34.9970 N   0  0  0  0  0  0  0  0  0  0  0  0
   38.6150   23.7320   34.0790 N   0  0  0  0  0  0  0  0  0  0  0  0
   38.7020   25.0400   33.6670 C   0  0  0  0  0  0  0  0  0  0  0  0
   37.8200   25.4390   32.6730 C   0  0  0  0  0  0  0  0  0  0  0  0
   36.9280   24.5210   32.1670 C   0  0  0  0  0  0  0  0  0  0  0  0
   36.1200   24.8760   31.2580 O   0  0  0  0  0  0  0  0  0  0  0  0
   36.8910   23.2580   32.6090 N   0  0  0  0  0  0  0  0  0  0  0  0
   37.7520   22.8540   33.5850 C   0  0  0  0  0  0  0  0  0  0  0  0
   37.7840   21.7050   34.0500 O   0  0  0  0  0  0  0  0  0  0  0  0
   36.5070   21.4650   31.0220 C   0  0  0  0  0  0  0  0  0  0  0  0
   36.0050   20.0730   30.9290 C   0  0  1  0  0  0  0  0  0  0  0  0
   36.5550   19.4030   29.6910 C   0  0  0  0  0  0  0  0  0  0  0  0
   37.4240   18.2720   30.1360 C   0  0  0  0  0  0  0  0  0  0  0  0
   37.4930   18.3410   31.6260 C   0  0  0  0  0  0  0  0  0  0  0  0
   36.3180   19.2170   32.0580 C   0  0  2  0  0  0  0  0  0  0  0  0
   35.1390   18.2660   32.3130 C   0  0  0  0  0  0  0  0  0  0  0  0
   35.7670   16.8960   32.5700 C   0  0  0  0  0  0  0  0  0  0  0  0
   35.6107   21.6489   32.8911 H   0  0  0  0  0  0  0  0  0  0  0  0
   35.1247   22.8736   31.6249 H   0  0  0  0  0  0  0  0  0  0  0  0
   42.7317   23.8600   35.8151 H   0  0  0  0  0  0  0  0  0  0  0  0
   42.1518   22.4187   37.7790 H   0  0  0  0  0  0  0  0  0  0  0  0
   39.7515   21.5805   37.9440 H   0  0  0  0  0  0  0  0  0  0  0  0
   39.4340   25.7357   34.1032 H   0  0  0  0  0  0  0  0  0  0  0  0
   37.8334   26.4721   32.2955 H   0  0  0  0  0  0  0  0  0  0  0  0
   36.2981   21.9576   30.0609 H   0  0  0  0  0  0  0  0  0  0  0  0
   37.5738   21.3670   31.2719 H   0  0  0  0  0  0  0  0  0  0  0  0
   34.9111   20.1855   30.9032 H   0  0  0  0  0  0  0  0  0  0  0  0
   37.1468   20.1230   29.1067 H   0  0  0  0  0  0  0  0  0  0  0  0
   35.7361   19.0336   29.0562 H   0  0  0  0  0  0  0  0  0  0  0  0
   36.9876   17.3126   29.8212 H   0  0  0  0  0  0  0  0  0  0  0  0
   38.4271   18.3462   29.6907 H   0  0  0  0  0  0  0  0  0  0  0  0
   37.4005   17.3347   32.0606 H   0  0  0  0  0  0  0  0  0  0  0  0
   38.4532   18.7549   31.9677 H   0  0  0  0  0  0  0  0  0  0  0  0
   36.5323   19.8196   32.9530 H   0  0  0  0  0  0  0  0  0  0  0  0
   34.5624   18.5952   33.1900 H   0  0  0  0  0  0  0  0  0  0  0  0
   34.4425   18.2423   31.4619 H   0  0  0  0  0  0  0  0  0  0  0  0
   35.8450   16.7259   33.6540 H   0  0  0  0  0  0  0  0  0  0  0  0
   35.1375   16.1139   32.1205 H   0  0  0  0  0  0  0  0  0  0  0  0
   36.7704   16.8624   32.1205 H   0  0  0  0  0  0  0  0  0  0  0  0
  1 13  1  0
  2  3  2  0
  3  4  1  0
  5  4  2  0
  6  5  1  0
  7  6  2  0
  7  2  1  0
  8  6  1  0
  9  8  1  0
 10  9  2  0
 11 13  1  0
 11 10  1  0
 12 11  2  0
 13 14  1  0
 14 15  2  0
 14  8  1  0
 16  1  1  0
 17 16  1  0
 17 21  1  0
 18 19  1  0
 18 17  1  0
 19 20  1  0
 20 21  1  0
 21 22  1  0
 22 23  1  0
  1 24  1  0
  1 25  1  0
  2 26  1  0
  3 27  1  0
  4 28  1  0
  9 29  1  0
 10 30  1  0
 16 31  1  0
 16 32  1  0
 17 33  1  6
 18 34  1  0
 18 35  1  0
 19 36  1  0
 19 37  1  0
 20 38  1  0
 20 39  1  0
 21 40  1  1
 22 41  1  0
 22 42  1  0
 23 43  1  0
 23 44  1  0
 23 45  1  0
M  ISO  8  24   8  25   8  26  14  27  14  28  14  29  14  30  14  31   8
M  ISO  8  32   8  33  13  34  13  35  13  36  13  37  13  38  13  39  13
M  ISO  6  40  13  41   8  42   8  43   8  44   8  45   8
M  END
>  <minimizedAffinity>  (1) 
-4.91357231

>  <minimizedRMSD>  (1) 
1.74845386

$$$$
