
     RDKit          3D

 46 48  0  0  1  0  0  0  0  0999 V2000
   38.3050   20.8310   30.0520 C   0  0  0  0  0  0  0  0  0  0  0  0
   37.1290   19.9280   30.0700 C   0  0  1  0  0  0  0  0  0  0  0  0
   37.1240   19.0610   28.8280 C   0  0  0  0  0  0  0  0  0  0  0  0
   37.2940   17.6390   29.2490 C   0  0  0  0  0  0  0  0  0  0  0  0
   37.6260   17.6410   30.7390 C   0  0  0  0  0  0  0  0  0  0  0  0
   37.0500   18.9630   31.1630 C   0  0  1  0  0  0  0  0  0  0  0  0
   36.7100   19.2200   32.4860 N   0  0  0  0  0  0  0  0  0  0  0  0
   35.4160   19.4680   32.9980 C   0  0  0  0  0  0  0  0  0  0  0  0
   34.4090   19.1100   32.2740 N   0  0  0  0  0  0  0  0  0  0  0  0
   35.2790   20.0920   34.2690 N   0  0  0  0  0  0  0  0  0  0  0  0
   33.4170   19.2190   32.5000 H   0  0  0  0  0  0  0  0  0  0  0  0
   38.0750   22.1870   30.4990 C   0  0  0  0  0  0  0  0  0  0  0  0
   40.0090   22.6330   37.2520 C   0  0  0  0  0  0  0  0  0  0  0  0
   38.7800   23.0430   37.7960 C   0  0  0  0  0  0  0  0  0  0  0  0
   37.7790   23.4670   36.8770 C   0  0  0  0  0  0  0  0  0  0  0  0
   38.0880   23.4430   35.5650 N   0  0  0  0  0  0  0  0  0  0  0  0
   39.2660   23.0490   35.0740 C   0  0  0  0  0  0  0  0  0  0  0  0
   40.2040   22.6500   35.9280 N   0  0  0  0  0  0  0  0  0  0  0  0
   39.5560   23.0360   33.6930 N   0  0  0  0  0  0  0  0  0  0  0  0
   40.8220   23.4990   33.3660 C   0  0  0  0  0  0  0  0  0  0  0  0
   41.1720   23.5150   32.0230 C   0  0  0  0  0  0  0  0  0  0  0  0
   40.2430   23.0680   31.1000 C   0  0  0  0  0  0  0  0  0  0  0  0
   40.5550   23.0790   29.8760 O   0  0  0  0  0  0  0  0  0  0  0  0
   39.0290   22.6300   31.4930 N   0  0  0  0  0  0  0  0  0  0  0  0
   38.6780   22.6120   32.7990 C   0  0  0  0  0  0  0  0  0  0  0  0
   37.6000   22.2340   33.2310 O   0  0  0  0  0  0  0  0  0  0  0  0
   39.0767   20.3902   30.7002 H   0  0  0  0  0  0  0  0  0  0  0  0
   38.5960   20.9147   28.9945 H   0  0  0  0  0  0  0  0  0  0  0  0
   36.2934   20.6371   30.1649 H   0  0  0  0  0  0  0  0  0  0  0  0
   37.9520   19.3546   28.1660 H   0  0  0  0  0  0  0  0  0  0  0  0
   36.1764   19.1845   28.2831 H   0  0  0  0  0  0  0  0  0  0  0  0
   36.3630   17.0805   29.0719 H   0  0  0  0  0  0  0  0  0  0  0  0
   38.0971   17.1565   28.6726 H   0  0  0  0  0  0  0  0  0  0  0  0
   37.1408   16.8034   31.2615 H   0  0  0  0  0  0  0  0  0  0  0  0
   38.6961   17.5211   30.9639 H   0  0  0  0  0  0  0  0  0  0  0  0
   36.0450   19.1390   31.5740 H   0  0  0  0  0  0  0  0  0  0  0  0
   37.4836   19.2309   33.1659 H   0  0  0  0  0  0  0  0  0  0  0  0
   34.3415   20.2781   34.6530 H   0  0  0  0  0  0  0  0  0  0  0  0
   36.1173   20.3577   34.8053 H   0  0  0  0  0  0  0  0  0  0  0  0
   38.1398   22.8574   29.6293 H   0  0  0  0  0  0  0  0  0  0  0  0
   37.0800   22.2121   30.9674 H   0  0  0  0  0  0  0  0  0  0  0  0
   40.8163   22.2958   37.9188 H   0  0  0  0  0  0  0  0  0  0  0  0
   38.5999   23.0366   38.8811 H   0  0  0  0  0  0  0  0  0  0  0  0
   36.7904   23.8017   37.2244 H   0  0  0  0  0  0  0  0  0  0  0  0
   41.5225   23.8408   34.1422 H   0  0  0  0  0  0  0  0  0  0  0  0
   42.1610   23.8733   31.7011 H   0  0  0  0  0  0  0  0  0  0  0  0
  1  2  1  0
  1 12  1  0
  2  6  1  0
  3  4  1  0
  3  2  1  0
  4  5  1  0
  5  6  1  0
  6  7  1  0
  7  8  1  0
  8 10  1  0
  9 11  1  0
  9  8  2  0
 12 24  1  0
 13 14  2  0
 15 14  1  0
 16 15  2  0
 17 16  1  0
 17 18  2  0
 18 13  1  0
 19 17  1  0
 20 19  1  0
 21 20  2  0
 22 24  1  0
 22 21  1  0
 23 22  2  0
 24 25  1  0
 25 26  2  0
 25 19  1  0
  1 27  1  0
  1 28  1  0
  2 29  1  6
  3 30  1  0
  3 31  1  0
  4 32  1  0
  4 33  1  0
  5 34  1  0
  5 35  1  0
  6 36  1  6
  7 37  1  0
 10 38  1  0
 10 39  1  0
 12 40  1  0
 12 41  1  0
 13 42  1  0
 14 43  1  0
 15 44  1  0
 20 45  1  0
 21 46  1  0
M  ISO  8  27   8  28   8  29  13  30  13  31  13  32  13  33  13  34  13
M  ISO  8  35  13  36  13  40   8  41   8  42  14  43  14  44  14  45  14
M  ISO  1  46  14
M  END
>  <minimizedAffinity>  (1) 
-4.40079355

>  <minimizedRMSD>  (1) 
2.16989231

$$$$
