
     RDKit          3D

 38 39  0  0  0  0  0  0  0  0999 V2000
   38.5920   26.5420   34.3130 C   0  0  0  0  0  0  0  0  0  0  0  0
   37.4720   27.4390   34.8170 C   0  0  0  0  0  0  0  0  0  0  0  0
   38.8590   26.9380   32.8930 C   0  0  0  0  0  0  0  0  0  0  0  0
   39.8310   26.8810   35.1090 C   0  0  0  0  0  0  0  0  0  0  0  0
   41.0710   26.6860   34.4870 N   0  0  0  0  0  0  0  0  0  0  0  0
   41.6680   25.4630   34.8060 C   0  0  0  0  0  0  0  0  0  0  0  0
   42.6440   24.8830   33.8460 C   0  0  0  0  0  0  0  0  0  0  0  0
   43.1620   25.8290   32.8070 C   0  0  0  0  0  0  0  0  0  0  0  0
   42.9890   27.2760   33.2420 C   0  0  0  0  0  0  0  0  0  0  0  0
   41.4560   27.4130   33.3650 C   0  0  0  0  0  0  0  0  0  0  0  0
   38.2910   24.7990   34.5560 S   0  0  0  0  0  0  0  0  0  0  0  0
   37.9960   24.1940   38.5660 C   0  0  0  0  0  0  0  0  0  0  0  0
   37.7690   24.6800   37.2610 C   0  0  0  0  0  0  0  0  0  0  0  0
   38.5340   24.2190   36.2110 C   0  0  0  0  0  0  0  0  0  0  0  0
   39.4810   23.3000   36.5120 N   0  0  0  0  0  0  0  0  0  0  0  0
   39.6950   22.8410   37.7490 C   0  0  0  0  0  0  0  0  0  0  0  0
   38.9690   23.2720   38.7760 N   0  0  0  0  0  0  0  0  0  0  0  0
   37.4702   27.4404   35.9170 H   0  0  0  0  0  0  0  0  0  0  0  0
   37.6293   28.4637   34.4493 H   0  0  0  0  0  0  0  0  0  0  0  0
   36.5064   27.0617   34.4493 H   0  0  0  0  0  0  0  0  0  0  0  0
   39.4739   27.8499   32.8761 H   0  0  0  0  0  0  0  0  0  0  0  0
   39.3943   26.1253   32.3802 H   0  0  0  0  0  0  0  0  0  0  0  0
   37.9049   27.1295   32.3802 H   0  0  0  0  0  0  0  0  0  0  0  0
   39.7645   27.9434   35.3862 H   0  0  0  0  0  0  0  0  0  0  0  0
   39.8254   26.1745   35.9521 H   0  0  0  0  0  0  0  0  0  0  0  0
   42.1931   25.5969   35.7633 H   0  0  0  0  0  0  0  0  0  0  0  0
   40.8333   24.7466   34.8103 H   0  0  0  0  0  0  0  0  0  0  0  0
   43.5030   24.5067   34.4209 H   0  0  0  0  0  0  0  0  0  0  0  0
   42.1012   24.0986   33.2983 H   0  0  0  0  0  0  0  0  0  0  0  0
   42.6102   25.6683   31.8691 H   0  0  0  0  0  0  0  0  0  0  0  0
   44.2354   25.6350   32.6650 H   0  0  0  0  0  0  0  0  0  0  0  0
   43.4825   27.4616   34.2074 H   0  0  0  0  0  0  0  0  0  0  0  0
   43.4369   27.9981   32.5435 H   0  0  0  0  0  0  0  0  0  0  0  0
   41.1799   28.4707   33.4873 H   0  0  0  0  0  0  0  0  0  0  0  0
   40.9546   27.0354   32.4617 H   0  0  0  0  0  0  0  0  0  0  0  0
   37.3886   24.5599   39.4070 H   0  0  0  0  0  0  0  0  0  0  0  0
   36.9816   25.4268   37.0815 H   0  0  0  0  0  0  0  0  0  0  0  0
   40.4846   22.0945   37.9201 H   0  0  0  0  0  0  0  0  0  0  0  0
  1 11  1  0
  1  2  1  0
  1  4  1  0
  3  1  1  0
  5  6  1  0
  5  4  1  0
  7  6  1  0
  8  9  1  0
  8  7  1  0
  9 10  1  0
 10  5  1  0
 11 14  1  0
 12 17  2  0
 13 12  1  0
 14 15  1  0
 14 13  2  0
 15 16  2  0
 16 17  1  0
  2 18  1  0
  2 19  1  0
  2 20  1  0
  3 21  1  0
  3 22  1  0
  3 23  1  0
  4 24  1  0
  4 25  1  0
  6 26  1  0
  6 27  1  0
  7 28  1  0
  7 29  1  0
  8 30  1  0
  8 31  1  0
  9 32  1  0
  9 33  1  0
 10 34  1  0
 10 35  1  0
 12 36  1  0
 13 37  1  0
 16 38  1  0
M  ISO  8  18   8  19   8  20   8  21   8  22   8  23   8  24   8  25   8
M  ISO  8  26  13  27  13  28  13  29  13  30  13  31  13  32  13  33  13
M  ISO  5  34  13  35  13  36  14  37  14  38  14
M  END
>  <minimizedAffinity>  (1) 
-4.08650017

>  <minimizedRMSD>  (1) 
0.906085312

$$$$
