
     RDKit          3D

 52 55  0  0  0  0  0  0  0  0999 V2000
   38.5520   26.7540   34.4810 C   0  0  0  0  0  0  0  0  0  0  0  0
   37.7970   27.7170   35.4130 C   0  0  0  0  0  0  0  0  0  0  0  0
   38.4380   27.3640   33.1280 C   0  0  0  0  0  0  0  0  0  0  0  0
   39.9910   26.8270   34.9190 C   0  0  0  0  0  0  0  0  0  0  0  0
   41.0370   26.3920   33.9900 C   0  0  0  0  0  0  0  0  0  0  0  0
   41.9510   25.4280   34.7370 C   0  0  0  0  0  0  0  0  0  0  0  0
   43.3790   25.8670   34.7420 C   0  0  0  0  0  0  0  0  0  0  0  0
   43.9630   26.0900   33.3860 C   0  0  0  0  0  0  0  0  0  0  0  0
   42.8870   26.6190   32.4820 C   0  0  0  0  0  0  0  0  0  0  0  0
   41.9230   27.4240   33.3920 C   0  0  0  0  0  0  0  0  0  0  0  0
   37.9840   25.0810   34.6420 S   0  0  0  0  0  0  0  0  0  0  0  0
   38.5290   23.6550   38.3970 C   0  0  0  0  0  0  0  0  0  0  0  0
   38.0210   24.3720   37.3030 C   0  0  0  0  0  0  0  0  0  0  0  0
   38.5970   24.1980   36.0440 C   0  0  0  0  0  0  0  0  0  0  0  0
   39.6440   23.3220   35.9380 N   0  0  0  0  0  0  0  0  0  0  0  0
   40.1080   22.6510   37.0020 C   0  0  0  0  0  0  0  0  0  0  0  0
   39.5640   22.8100   38.2180 N   0  0  0  0  0  0  0  0  0  0  0  0
   41.2000   21.7500   36.8520 N   0  0  0  0  0  0  0  0  0  0  0  0
   41.8770   21.0780   37.7990 C   0  0  0  0  0  0  0  0  0  0  0  0
   42.8560   20.3160   37.2290 N   0  0  0  0  0  0  0  0  0  0  0  0
   42.8190   20.4910   35.9040 C   0  0  0  0  0  0  0  0  0  0  0  0
   43.4900   20.0450   34.8090 C   0  0  0  0  0  0  0  0  0  0  0  0
   43.1700   20.4490   33.5460 N   0  0  0  0  0  0  0  0  0  0  0  0
   42.1490   21.3280   33.3580 C   0  0  0  0  0  0  0  0  0  0  0  0
   41.4850   21.7690   34.4460 N   0  0  0  0  0  0  0  0  0  0  0  0
   41.7900   21.3760   35.7030 C   0  0  0  0  0  0  0  0  0  0  0  0
   44.5530   19.1320   34.9790 N   0  0  0  0  0  0  0  0  0  0  0  0
   38.0047   27.4520   36.4602 H   0  0  0  0  0  0  0  0  0  0  0  0
   38.1300   28.7480   35.2226 H   0  0  0  0  0  0  0  0  0  0  0  0
   36.7164   27.6397   35.2226 H   0  0  0  0  0  0  0  0  0  0  0  0
   38.2367   28.4409   33.2271 H   0  0  0  0  0  0  0  0  0  0  0  0
   39.3794   27.2159   32.5785 H   0  0  0  0  0  0  0  0  0  0  0  0
   37.6136   26.8860   32.5785 H   0  0  0  0  0  0  0  0  0  0  0  0
   40.1990   27.8775   35.1703 H   0  0  0  0  0  0  0  0  0  0  0  0
   40.0533   26.1037   35.7454 H   0  0  0  0  0  0  0  0  0  0  0  0
   40.4724   25.9716   33.1447 H   0  0  0  0  0  0  0  0  0  0  0  0
   41.6039   25.3506   35.7779 H   0  0  0  0  0  0  0  0  0  0  0  0
   41.9051   24.4597   34.2172 H   0  0  0  0  0  0  0  0  0  0  0  0
   43.4466   26.8099   35.3045 H   0  0  0  0  0  0  0  0  0  0  0  0
   43.9558   25.0503   35.2006 H   0  0  0  0  0  0  0  0  0  0  0  0
   44.7838   26.8194   33.4514 H   0  0  0  0  0  0  0  0  0  0  0  0
   44.3578   25.1441   32.9867 H   0  0  0  0  0  0  0  0  0  0  0  0
   43.3219   27.2734   31.7121 H   0  0  0  0  0  0  0  0  0  0  0  0
   42.3630   25.8051   31.9595 H   0  0  0  0  0  0  0  0  0  0  0  0
   42.4812   27.9594   34.1742 H   0  0  0  0  0  0  0  0  0  0  0  0
   41.3617   28.1900   32.8369 H   0  0  0  0  0  0  0  0  0  0  0  0
   38.0850   23.7818   39.3954 H   0  0  0  0  0  0  0  0  0  0  0  0
   37.1769   25.0645   37.4366 H   0  0  0  0  0  0  0  0  0  0  0  0
   41.6717   21.1340   38.8782 H   0  0  0  0  0  0  0  0  0  0  0  0
   41.8733   21.6688   32.3491 H   0  0  0  0  0  0  0  0  0  0  0  0
   45.0704   18.7855   34.1586 H   0  0  0  0  0  0  0  0  0  0  0  0
   44.8112   18.8123   35.9235 H   0  0  0  0  0  0  0  0  0  0  0  0
  1 11  1  0
  1  4  1  0
  1  2  1  0
  3  1  1  0
  5  6  1  0
  5  4  1  0
  6  7  1  0
  8  7  1  0
  9  8  1  0
  9 10  1  0
 10  5  1  0
 11 14  1  0
 13 12  2  0
 14 13  1  0
 15 14  2  0
 15 16  1  0
 16 17  2  0
 17 12  1  0
 18 16  1  0
 18 19  1  0
 20 19  2  0
 21 20  1  0
 22 27  1  0
 22 21  2  0
 23 22  1  0
 24 23  2  0
 24 25  1  0
 25 26  2  0
 26 21  1  0
 26 18  1  0
  2 28  1  0
  2 29  1  0
  2 30  1  0
  3 31  1  0
  3 32  1  0
  3 33  1  0
  4 34  1  0
  4 35  1  0
  5 36  1  0
  6 37  1  0
  6 38  1  0
  7 39  1  0
  7 40  1  0
  8 41  1  0
  8 42  1  0
  9 43  1  0
  9 44  1  0
 10 45  1  0
 10 46  1  0
 12 47  1  0
 13 48  1  0
 19 49  1  0
 24 50  1  0
 27 51  1  0
 27 52  1  0
M  ISO  8  28   8  29   8  30   8  31   8  32   8  33   8  34   8  35   8
M  ISO  8  36  13  37  13  38  13  39  13  40  13  41  13  42  13  43  13
M  ISO  7  44  13  45  13  46  13  47  14  48  14  49  14  50  14
M  END
>  <minimizedAffinity>  (1) 
-5.36121178

>  <minimizedRMSD>  (1) 
0.952607691

$$$$
