
     RDKit          3D

 51 53  0  0  0  0  0  0  0  0999 V2000
   38.4830   26.7210   34.3510 C   0  0  0  0  0  0  0  0  0  0  0  0
   37.7200   27.5380   35.3950 C   0  0  0  0  0  0  0  0  0  0  0  0
   38.1770   27.3400   33.0250 C   0  0  0  0  0  0  0  0  0  0  0  0
   39.9440   26.9240   34.6530 C   0  0  0  0  0  0  0  0  0  0  0  0
   40.9420   26.5580   33.6460 C   0  0  0  0  0  0  0  0  0  0  0  0
   41.9650   25.6440   34.3090 C   0  0  0  0  0  0  0  0  0  0  0  0
   43.3680   26.1650   34.2340 C   0  0  0  0  0  0  0  0  0  0  0  0
   43.8360   26.4640   32.8420 C   0  0  0  0  0  0  0  0  0  0  0  0
   42.6650   26.9090   32.0230 C   0  0  0  0  0  0  0  0  0  0  0  0
   41.7320   27.6450   33.0020 C   0  0  0  0  0  0  0  0  0  0  0  0
   38.1170   24.9700   34.4680 S   0  0  0  0  0  0  0  0  0  0  0  0
   38.3450   23.5570   38.2660 C   0  0  0  0  0  0  0  0  0  0  0  0
   37.8710   24.1960   37.1010 C   0  0  0  0  0  0  0  0  0  0  0  0
   38.6590   24.1860   35.9590 C   0  0  0  0  0  0  0  0  0  0  0  0
   39.8550   23.5560   36.0220 N   0  0  0  0  0  0  0  0  0  0  0  0
   40.2940   22.9500   37.1430 C   0  0  0  0  0  0  0  0  0  0  0  0
   39.5620   22.9410   38.2600 N   0  0  0  0  0  0  0  0  0  0  0  0
   41.5640   22.3140   37.1140 N   0  0  0  0  0  0  0  0  0  0  0  0
   42.7900   22.8770   36.5370 C   0  0  0  0  0  0  0  0  0  0  0  0
   43.4820   21.6570   35.9810 C   0  0  0  0  0  0  0  0  0  0  0  0
   42.8780   20.4560   36.6340 C   0  0  0  0  0  0  0  0  0  0  0  0
   41.9150   21.0110   37.6340 C   0  0  0  0  0  0  0  0  0  0  0  0
   38.0202   27.2165   36.4032 H   0  0  0  0  0  0  0  0  0  0  0  0
   37.9519   28.6055   35.2663 H   0  0  0  0  0  0  0  0  0  0  0  0
   36.6391   27.3795   35.2663 H   0  0  0  0  0  0  0  0  0  0  0  0
   37.6943   28.3164   33.1788 H   0  0  0  0  0  0  0  0  0  0  0  0
   39.1109   27.4775   32.4603 H   0  0  0  0  0  0  0  0  0  0  0  0
   37.5006   26.6815   32.4603 H   0  0  0  0  0  0  0  0  0  0  0  0
   40.0817   27.9942   34.8669 H   0  0  0  0  0  0  0  0  0  0  0  0
   40.1388   26.2240   35.4789 H   0  0  0  0  0  0  0  0  0  0  0  0
   40.3362   26.1158   32.8413 H   0  0  0  0  0  0  0  0  0  0  0  0
   41.6929   25.5273   35.3684 H   0  0  0  0  0  0  0  0  0  0  0  0
   41.9451   24.6877   33.7658 H   0  0  0  0  0  0  0  0  0  0  0  0
   43.4244   27.0917   34.8239 H   0  0  0  0  0  0  0  0  0  0  0  0
   44.0222   25.3719   34.6252 H   0  0  0  0  0  0  0  0  0  0  0  0
   44.5921   27.2625   32.8700 H   0  0  0  0  0  0  0  0  0  0  0  0
   44.2818   25.5625   32.3965 H   0  0  0  0  0  0  0  0  0  0  0  0
   42.9925   27.5871   31.2212 H   0  0  0  0  0  0  0  0  0  0  0  0
   42.1599   26.0599   31.5393 H   0  0  0  0  0  0  0  0  0  0  0  0
   42.3142   28.2003   33.7521 H   0  0  0  0  0  0  0  0  0  0  0  0
   41.0941   28.3858   32.4978 H   0  0  0  0  0  0  0  0  0  0  0  0
   37.7327   23.5555   39.1799 H   0  0  0  0  0  0  0  0  0  0  0  0
   36.8907   24.6950   37.0980 H   0  0  0  0  0  0  0  0  0  0  0  0
   42.5586   23.5998   35.7407 H   0  0  0  0  0  0  0  0  0  0  0  0
   43.4003   23.4333   37.2637 H   0  0  0  0  0  0  0  0  0  0  0  0
   43.3341   21.6058   34.8922 H   0  0  0  0  0  0  0  0  0  0  0  0
   44.5628   21.7020   36.1808 H   0  0  0  0  0  0  0  0  0  0  0  0
   42.3530   19.8348   35.8934 H   0  0  0  0  0  0  0  0  0  0  0  0
   43.6367   19.8107   37.1009 H   0  0  0  0  0  0  0  0  0  0  0  0
   42.3897   21.1017   38.6222 H   0  0  0  0  0  0  0  0  0  0  0  0
   41.0356   20.3646   37.7713 H   0  0  0  0  0  0  0  0  0  0  0  0
  1 11  1  0
  1  4  1  0
  1  2  1  0
  3  1  1  0
  5  6  1  0
  5  4  1  0
  7  6  1  0
  8  7  1  0
  9  8  1  0
  9 10  1  0
 10  5  1  0
 11 14  1  0
 13 12  2  0
 14 15  2  0
 14 13  1  0
 15 16  1  0
 16 17  2  0
 17 12  1  0
 18 16  1  0
 18 22  1  0
 19 18  1  0
 20 19  1  0
 20 21  1  0
 21 22  1  0
  2 23  1  0
  2 24  1  0
  2 25  1  0
  3 26  1  0
  3 27  1  0
  3 28  1  0
  4 29  1  0
  4 30  1  0
  5 31  1  0
  6 32  1  0
  6 33  1  0
  7 34  1  0
  7 35  1  0
  8 36  1  0
  8 37  1  0
  9 38  1  0
  9 39  1  0
 10 40  1  0
 10 41  1  0
 12 42  1  0
 13 43  1  0
 19 44  1  0
 19 45  1  0
 20 46  1  0
 20 47  1  0
 21 48  1  0
 21 49  1  0
 22 50  1  0
 22 51  1  0
M  ISO  8  23   8  24   8  25   8  26   8  27   8  28   8  29   8  30   8
M  ISO  8  31  13  32  13  33  13  34  13  35  13  36  13  37  13  38  13
M  ISO  8  39  13  40  13  41  13  42  14  43  14  44  13  45  13  46  13
M  ISO  5  47  13  48  13  49  13  50  13  51  13
M  END
>  <minimizedAffinity>  (1) 
-5.17852879

>  <minimizedRMSD>  (1) 
0.976143479

$$$$
