
     RDKit          3D

 52 54  0  0  0  0  0  0  0  0999 V2000
   38.6220   26.6380   34.4530 C   0  0  0  0  0  0  0  0  0  0  0  0
   37.8510   27.3970   35.5460 C   0  0  0  0  0  0  0  0  0  0  0  0
   38.2420   27.3080   33.1790 C   0  0  0  0  0  0  0  0  0  0  0  0
   40.0740   26.8950   34.7270 C   0  0  0  0  0  0  0  0  0  0  0  0
   41.0550   26.5550   33.6890 C   0  0  0  0  0  0  0  0  0  0  0  0
   42.1940   25.7810   34.3520 C   0  0  0  0  0  0  0  0  0  0  0  0
   43.5300   26.4380   34.1540 C   0  0  0  0  0  0  0  0  0  0  0  0
   43.9040   26.6560   32.7270 C   0  0  0  0  0  0  0  0  0  0  0  0
   42.6540   26.9630   31.9480 C   0  0  0  0  0  0  0  0  0  0  0  0
   41.7010   27.6710   32.9340 C   0  0  0  0  0  0  0  0  0  0  0  0
   38.3130   24.8780   34.5250 S   0  0  0  0  0  0  0  0  0  0  0  0
   38.8390   23.2900   38.2260 C   0  0  0  0  0  0  0  0  0  0  0  0
   38.2720   23.9500   37.1210 C   0  0  0  0  0  0  0  0  0  0  0  0
   38.9890   24.0570   35.9370 C   0  0  0  0  0  0  0  0  0  0  0  0
   40.2420   23.5020   35.9020 N   0  0  0  0  0  0  0  0  0  0  0  0
   40.7610   22.8760   36.9740 C   0  0  0  0  0  0  0  0  0  0  0  0
   40.0910   22.7600   38.1250 N   0  0  0  0  0  0  0  0  0  0  0  0
   42.0670   22.3170   36.8860 N   0  0  0  0  0  0  0  0  0  0  0  0
   42.2970   20.8970   37.0880 C   0  0  0  0  0  0  0  0  0  0  0  0
   42.7930   20.3460   35.7670 C   0  0  0  0  0  0  0  0  0  0  0  0
   43.6330   21.2330   35.1420 O   0  0  0  0  0  0  0  0  0  0  0  0
   44.2380   22.1620   35.9510 C   0  0  0  0  0  0  0  0  0  0  0  0
   43.2420   23.1160   36.5920 C   0  0  0  0  0  0  0  0  0  0  0  0
   38.1924   27.0609   36.5362 H   0  0  0  0  0  0  0  0  0  0  0  0
   38.0346   28.4765   35.4418 H   0  0  0  0  0  0  0  0  0  0  0  0
   36.7745   27.1965   35.4418 H   0  0  0  0  0  0  0  0  0  0  0  0
   37.7106   28.2450   33.4018 H   0  0  0  0  0  0  0  0  0  0  0  0
   39.1486   27.5301   32.5969 H   0  0  0  0  0  0  0  0  0  0  0  0
   37.5861   26.6439   32.5969 H   0  0  0  0  0  0  0  0  0  0  0  0
   40.1798   27.9702   34.9337 H   0  0  0  0  0  0  0  0  0  0  0  0
   40.3151   26.2152   35.5575 H   0  0  0  0  0  0  0  0  0  0  0  0
   40.4598   26.0034   32.9464 H   0  0  0  0  0  0  0  0  0  0  0  0
   41.9918   25.7118   35.4310 H   0  0  0  0  0  0  0  0  0  0  0  0
   42.2386   24.7868   33.8833 H   0  0  0  0  0  0  0  0  0  0  0  0
   43.5106   27.4157   34.6578 H   0  0  0  0  0  0  0  0  0  0  0  0
   44.2817   25.7537   34.5744 H   0  0  0  0  0  0  0  0  0  0  0  0
   44.6049   27.5004   32.6519 H   0  0  0  0  0  0  0  0  0  0  0  0
   44.3889   25.7553   32.3224 H   0  0  0  0  0  0  0  0  0  0  0  0
   42.8852   27.6233   31.0992 H   0  0  0  0  0  0  0  0  0  0  0  0
   42.2012   26.0489   31.5364 H   0  0  0  0  0  0  0  0  0  0  0  0
   42.2623   28.3282   33.6145 H   0  0  0  0  0  0  0  0  0  0  0  0
   40.9678   28.3122   32.4227 H   0  0  0  0  0  0  0  0  0  0  0  0
   38.2754   23.2019   39.1665 H   0  0  0  0  0  0  0  0  0  0  0  0
   37.2625   24.3806   37.1947 H   0  0  0  0  0  0  0  0  0  0  0  0
   43.0536   20.7429   37.8715 H   0  0  0  0  0  0  0  0  0  0  0  0
   41.3762   20.3880   37.4091 H   0  0  0  0  0  0  0  0  0  0  0  0
   43.3357   19.4071   35.9512 H   0  0  0  0  0  0  0  0  0  0  0  0
   41.9244   20.1712   35.1150 H   0  0  0  0  0  0  0  0  0  0  0  0
   44.7830   21.6341   36.7474 H   0  0  0  0  0  0  0  0  0  0  0  0
   44.9155   22.7596   35.3235 H   0  0  0  0  0  0  0  0  0  0  0  0
   43.6585   23.5406   37.5173 H   0  0  0  0  0  0  0  0  0  0  0  0
   43.0034   23.9603   35.9285 H   0  0  0  0  0  0  0  0  0  0  0  0
  1 11  1  0
  1  4  1  0
  1  2  1  0
  3  1  1  0
  5  6  1  0
  5  4  1  0
  7  6  1  0
  8  7  1  0
  9  8  1  0
  9 10  1  0
 10  5  1  0
 11 14  1  0
 13 12  2  0
 14 13  1  0
 15 14  2  0
 15 16  1  0
 16 17  2  0
 17 12  1  0
 18 16  1  0
 18 19  1  0
 20 19  1  0
 21 20  1  0
 21 22  1  0
 22 23  1  0
 23 18  1  0
  2 24  1  0
  2 25  1  0
  2 26  1  0
  3 27  1  0
  3 28  1  0
  3 29  1  0
  4 30  1  0
  4 31  1  0
  5 32  1  0
  6 33  1  0
  6 34  1  0
  7 35  1  0
  7 36  1  0
  8 37  1  0
  8 38  1  0
  9 39  1  0
  9 40  1  0
 10 41  1  0
 10 42  1  0
 12 43  1  0
 13 44  1  0
 19 45  1  0
 19 46  1  0
 20 47  1  0
 20 48  1  0
 22 49  1  0
 22 50  1  0
 23 51  1  0
 23 52  1  0
M  ISO  8  24   8  25   8  26   8  27   8  28   8  29   8  30   8  31   8
M  ISO  8  32  13  33  13  34  13  35  13  36  13  37  13  38  13  39  13
M  ISO  8  40  13  41  13  42  13  43  14  44  14  45  13  46  13  47  13
M  ISO  5  48  13  49  13  50  13  51  13  52  13
M  END
>  <minimizedAffinity>  (1) 
-4.98831558

>  <minimizedRMSD>  (1) 
1.37967837

$$$$
