
     RDKit          3D

 45 47  0  0  0  0  0  0  0  0999 V2000
   38.5070   26.7720   34.4620 C   0  0  0  0  0  0  0  0  0  0  0  0
   37.7580   27.7100   35.4140 C   0  0  0  0  0  0  0  0  0  0  0  0
   38.3290   27.3570   33.1030 C   0  0  0  0  0  0  0  0  0  0  0  0
   39.9440   26.8790   34.8510 C   0  0  0  0  0  0  0  0  0  0  0  0
   40.9720   26.4530   33.8890 C   0  0  0  0  0  0  0  0  0  0  0  0
   41.9100   25.4770   34.5990 C   0  0  0  0  0  0  0  0  0  0  0  0
   43.3370   25.9330   34.5810 C   0  0  0  0  0  0  0  0  0  0  0  0
   43.8920   26.1850   33.2210 C   0  0  0  0  0  0  0  0  0  0  0  0
   42.7920   26.7110   32.3420 C   0  0  0  0  0  0  0  0  0  0  0  0
   41.8500   27.4950   33.2840 C   0  0  0  0  0  0  0  0  0  0  0  0
   37.9750   25.0860   34.6520 S   0  0  0  0  0  0  0  0  0  0  0  0
   38.4710   23.7850   38.4570 C   0  0  0  0  0  0  0  0  0  0  0  0
   37.9910   24.4610   37.3200 C   0  0  0  0  0  0  0  0  0  0  0  0
   38.5630   24.2470   36.0890 C   0  0  0  0  0  0  0  0  0  0  0  0
   39.5990   23.3650   36.0320 N   0  0  0  0  0  0  0  0  0  0  0  0
   40.0600   22.7170   37.1250 C   0  0  0  0  0  0  0  0  0  0  0  0
   39.5020   22.9230   38.3290 N   0  0  0  0  0  0  0  0  0  0  0  0
   41.1930   21.7960   36.8710 C   0  0  0  0  0  0  0  0  0  0  0  0
   41.6180   21.7820   35.4880 C   0  0  0  0  0  0  0  0  0  0  0  0
   42.9890   20.6010   35.4390 S   0  0  0  0  0  0  0  0  0  0  0  0
   42.7910   20.2910   37.3140 C   0  0  0  0  0  0  0  0  0  0  0  0
   41.9380   20.9660   37.5760 N   0  0  0  0  0  0  0  0  0  0  0  0
   37.9809   27.4309   36.4544 H   0  0  0  0  0  0  0  0  0  0  0  0
   38.0795   28.7467   35.2356 H   0  0  0  0  0  0  0  0  0  0  0  0
   36.6758   27.6259   35.2356 H   0  0  0  0  0  0  0  0  0  0  0  0
   38.0099   28.4057   33.1942 H   0  0  0  0  0  0  0  0  0  0  0  0
   39.2821   27.3100   32.5558 H   0  0  0  0  0  0  0  0  0  0  0  0
   37.5636   26.7871   32.5558 H   0  0  0  0  0  0  0  0  0  0  0  0
   40.1379   27.9363   35.0844 H   0  0  0  0  0  0  0  0  0  0  0  0
   40.0479   26.1678   35.6837 H   0  0  0  0  0  0  0  0  0  0  0  0
   40.3827   26.0435   33.0553 H   0  0  0  0  0  0  0  0  0  0  0  0
   41.5860   25.3749   35.6452 H   0  0  0  0  0  0  0  0  0  0  0  0
   41.8601   24.5175   34.0633 H   0  0  0  0  0  0  0  0  0  0  0  0
   43.4057   26.8671   35.1578 H   0  0  0  0  0  0  0  0  0  0  0  0
   43.9309   25.1138   35.0126 H   0  0  0  0  0  0  0  0  0  0  0  0
   44.7025   26.9261   33.2833 H   0  0  0  0  0  0  0  0  0  0  0  0
   44.2935   25.2511   32.8009 H   0  0  0  0  0  0  0  0  0  0  0  0
   43.2030   27.3763   31.5684 H   0  0  0  0  0  0  0  0  0  0  0  0
   42.2640   25.8998   31.8194 H   0  0  0  0  0  0  0  0  0  0  0  0
   42.4256   28.0176   34.0622 H   0  0  0  0  0  0  0  0  0  0  0  0
   41.2755   28.2674   32.7517 H   0  0  0  0  0  0  0  0  0  0  0  0
   38.0104   23.9574   39.4409 H   0  0  0  0  0  0  0  0  0  0  0  0
   37.1520   25.1657   37.4173 H   0  0  0  0  0  0  0  0  0  0  0  0
   41.2003   22.3611   34.6512 H   0  0  0  0  0  0  0  0  0  0  0  0
   43.3678   19.6207   37.9682 H   0  0  0  0  0  0  0  0  0  0  0  0
  1 11  1  0
  1  4  1  0
  1  2  1  0
  3  1  1  0
  5  6  1  0
  5  4  1  0
  7  6  1  0
  8  7  1  0
  9  8  1  0
  9 10  1  0
 10  5  1  0
 11 14  1  0
 13 12  2  0
 14 13  1  0
 15 14  2  0
 15 16  1  0
 16 17  2  0
 17 12  1  0
 18 16  1  0
 18 22  1  0
 19 18  2  0
 20 19  1  0
 20 21  1  0
 21 22  2  0
  2 23  1  0
  2 24  1  0
  2 25  1  0
  3 26  1  0
  3 27  1  0
  3 28  1  0
  4 29  1  0
  4 30  1  0
  5 31  1  0
  6 32  1  0
  6 33  1  0
  7 34  1  0
  7 35  1  0
  8 36  1  0
  8 37  1  0
  9 38  1  0
  9 39  1  0
 10 40  1  0
 10 41  1  0
 12 42  1  0
 13 43  1  0
 19 44  1  0
 21 45  1  0
M  ISO  8  23   8  24   8  25   8  26   8  27   8  28   8  29   8  30   8
M  ISO  8  31  13  32  13  33  13  34  13  35  13  36  13  37  13  38  13
M  ISO  7  39  13  40  13  41  13  42  14  43  14  44  14  45  14
M  END
>  <minimizedAffinity>  (1) 
-4.93741751

>  <minimizedRMSD>  (1) 
0.663226843

$$$$
