
     RDKit          3D

 30 32  0  0  1  0  0  0  0  0999 V2000
   40.7390   22.0330   37.5320 C   0  0  0  0  0  0  0  0  0  0  0  0
   39.9950   23.1860   37.2460 C   0  0  0  0  0  0  0  0  0  0  0  0
   40.0410   23.6720   35.9210 C   0  0  0  0  0  0  0  0  0  0  0  0
   40.7920   23.0150   34.9880 N   0  0  0  0  0  0  0  0  0  0  0  0
   41.4980   21.8970   35.3150 C   0  0  0  0  0  0  0  0  0  0  0  0
   41.4680   21.4140   36.5800 N   0  0  0  0  0  0  0  0  0  0  0  0
   39.3330   24.8210   35.5240 N   0  0  0  0  0  0  0  0  0  0  0  0
   39.8290   26.0890   34.9820 C   0  0  0  0  0  0  0  0  0  0  0  0
   38.9100   27.0470   35.7040 C   0  0  0  0  0  0  0  0  0  0  0  0
   37.5690   26.4220   35.4090 C   0  0  2  0  0  0  0  0  0  0  0  0
   37.8970   24.9460   35.5920 C   0  0  0  0  0  0  0  0  0  0  0  0
   37.1040   26.6060   34.0210 C   0  0  0  0  0  0  0  0  0  0  0  0
   36.7410   27.9130   33.7300 C   0  0  0  0  0  0  0  0  0  0  0  0
   36.2680   28.3180   32.4770 C   0  0  0  0  0  0  0  0  0  0  0  0
   36.1650   27.3670   31.5110 N   0  0  0  0  0  0  0  0  0  0  0  0
   36.5200   26.0840   31.7930 C   0  0  0  0  0  0  0  0  0  0  0  0
   36.9690   25.7400   33.0110 N   0  0  0  0  0  0  0  0  0  0  0  0
   40.7284   21.6244   38.5533 H   0  0  0  0  0  0  0  0  0  0  0  0
   39.4002   23.6911   38.0213 H   0  0  0  0  0  0  0  0  0  0  0  0
   42.0958   21.3836   34.5475 H   0  0  0  0  0  0  0  0  0  0  0  0
   40.8845   26.2603   35.2399 H   0  0  0  0  0  0  0  0  0  0  0  0
   39.8158   26.1656   33.8848 H   0  0  0  0  0  0  0  0  0  0  0  0
   39.1172   27.0715   36.7840 H   0  0  0  0  0  0  0  0  0  0  0  0
   39.0045   28.0965   35.3884 H   0  0  0  0  0  0  0  0  0  0  0  0
   36.7761   26.8542   36.0371 H   0  0  0  0  0  0  0  0  0  0  0  0
   37.4280   24.3530   34.7930 H   0  0  0  0  0  0  0  0  0  0  0  0
   37.5161   24.5759   36.5553 H   0  0  0  0  0  0  0  0  0  0  0  0
   36.8295   28.6689   34.5242 H   0  0  0  0  0  0  0  0  0  0  0  0
   35.9905   29.3643   32.2813 H   0  0  0  0  0  0  0  0  0  0  0  0
   36.4378   25.3157   31.0101 H   0  0  0  0  0  0  0  0  0  0  0  0
  2  1  2  0
  3  2  1  0
  4  5  1  0
  4  3  2  0
  5  6  2  0
  6  1  1  0
  7 11  1  0
  7  3  1  0
  8  7  1  0
  8  9  1  0
 10 11  1  0
 10  9  1  0
 12 10  1  0
 13 12  2  0
 14 13  1  0
 15 16  1  0
 15 14  2  0
 16 17  2  0
 17 12  1  0
  1 18  1  0
  2 19  1  0
  5 20  1  0
  8 21  1  0
  8 22  1  0
  9 23  1  0
  9 24  1  0
 10 25  1  1
 11 26  1  0
 11 27  1  0
 13 28  1  0
 14 29  1  0
 16 30  1  0
M  ISO  8  18  14  19  14  20  14  21  13  22  13  23  13  24  13  25  13
M  ISO  5  26  13  27  13  28  14  29  14  30  14
M  END
>  <minimizedAffinity>  (1) 
-4.80816698

>  <minimizedRMSD>  (1) 
1.19658744

$$$$
