
     RDKit          3D

 32 34  0  0  1  0  0  0  0  0999 V2000
   37.9480   24.2950   38.3920 C   0  0  0  0  0  0  0  0  0  0  0  0
   38.0380   25.0670   37.2180 C   0  0  0  0  0  0  0  0  0  0  0  0
   38.9380   24.5990   36.2350 C   0  0  0  0  0  0  0  0  0  0  0  0
   39.6480   23.4570   36.4720 N   0  0  0  0  0  0  0  0  0  0  0  0
   39.5170   22.7580   37.6230 C   0  0  0  0  0  0  0  0  0  0  0  0
   38.6690   23.1790   38.5760 N   0  0  0  0  0  0  0  0  0  0  0  0
   39.1250   25.2760   35.0150 N   0  0  0  0  0  0  0  0  0  0  0  0
   40.3260   25.8840   34.4340 C   0  0  0  0  0  0  0  0  0  0  0  0
   39.6990   27.1650   33.8870 C   0  0  0  0  0  0  0  0  0  0  0  0
   38.6230   26.4740   33.0290 C   0  0  1  0  0  0  0  0  0  0  0  0
   38.0650   25.5000   34.0590 C   0  0  0  0  0  0  0  0  0  0  0  0
   37.6380   27.3930   32.4790 C   0  0  0  0  0  0  0  0  0  0  0  0
   36.7550   27.9450   33.4140 C   0  0  0  0  0  0  0  0  0  0  0  0
   35.7820   28.8310   32.9910 C   0  0  0  0  0  0  0  0  0  0  0  0
   35.7250   29.1370   31.6410 C   0  0  0  0  0  0  0  0  0  0  0  0
   36.6180   28.5690   30.7480 C   0  0  0  0  0  0  0  0  0  0  0  0
   37.5980   27.6810   31.1500 C   0  0  0  0  0  0  0  0  0  0  0  0
   37.2611   24.6190   39.1877 H   0  0  0  0  0  0  0  0  0  0  0  0
   37.4426   25.9807   37.0747 H   0  0  0  0  0  0  0  0  0  0  0  0
   40.1065   21.8425   37.7788 H   0  0  0  0  0  0  0  0  0  0  0  0
   41.0932   26.0915   35.1945 H   0  0  0  0  0  0  0  0  0  0  0  0
   40.8625   25.2664   33.6986 H   0  0  0  0  0  0  0  0  0  0  0  0
   39.2688   27.7972   34.6777 H   0  0  0  0  0  0  0  0  0  0  0  0
   40.3702   27.8691   33.3735 H   0  0  0  0  0  0  0  0  0  0  0  0
   38.9937   25.9994   32.1085 H   0  0  0  0  0  0  0  0  0  0  0  0
   37.1863   25.9344   34.5582 H   0  0  0  0  0  0  0  0  0  0  0  0
   37.7428   24.5592   33.5888 H   0  0  0  0  0  0  0  0  0  0  0  0
   36.8347   27.6758   34.4776 H   0  0  0  0  0  0  0  0  0  0  0  0
   35.0747   29.2793   33.7043 H   0  0  0  0  0  0  0  0  0  0  0  0
   34.9617   29.8391   31.2743 H   0  0  0  0  0  0  0  0  0  0  0  0
   36.5450   28.8334   29.6827 H   0  0  0  0  0  0  0  0  0  0  0  0
   38.3050   27.2329   30.4363 H   0  0  0  0  0  0  0  0  0  0  0  0
  1  6  2  0
  2  1  1  0
  3  4  1  0
  3  2  2  0
  4  5  2  0
  5  6  1  0
  7  3  1  0
  8  7  1  0
  9  8  1  0
 10  9  1  0
 10 11  1  0
 11  7  1  0
 12 10  1  0
 12 13  2  0
 14 13  1  0
 15 14  2  0
 16 17  2  0
 16 15  1  0
 17 12  1  0
  1 18  1  0
  2 19  1  0
  5 20  1  0
  8 21  1  0
  8 22  1  0
  9 23  1  0
  9 24  1  0
 10 25  1  6
 11 26  1  0
 11 27  1  0
 13 28  1  0
 14 29  1  0
 15 30  1  0
 16 31  1  0
 17 32  1  0
M  ISO  8  18  14  19  14  20  14  21  13  22  13  23  13  24  13  25  13
M  ISO  7  26  13  27  13  28  14  29  14  30  14  31  14  32  14
M  END
>  <minimizedAffinity>  (1) 
-4.94309807

>  <minimizedRMSD>  (1) 
3.29019785

$$$$
