
     RDKit          3D

 35 37  0  0  1  0  0  0  0  0999 V2000
   39.9700   22.4750   37.6210 C   0  0  0  0  0  0  0  0  0  0  0  0
   39.2330   23.5430   37.1050 C   0  0  0  0  0  0  0  0  0  0  0  0
   39.7800   24.2660   36.0370 C   0  0  0  0  0  0  0  0  0  0  0  0
   41.0080   23.8870   35.5570 N   0  0  0  0  0  0  0  0  0  0  0  0
   41.6880   22.8430   36.0910 C   0  0  0  0  0  0  0  0  0  0  0  0
   41.1800   22.1420   37.1090 N   0  0  0  0  0  0  0  0  0  0  0  0
   39.1270   25.3620   35.4360 N   0  0  0  0  0  0  0  0  0  0  0  0
   39.5250   26.7490   35.2940 C   0  0  0  0  0  0  0  0  0  0  0  0
   38.1630   27.4010   35.5760 C   0  0  0  0  0  0  0  0  0  0  0  0
   37.3300   26.6270   34.5740 C   0  0  2  0  0  0  0  0  0  0  0  0
   37.8130   25.2440   34.8000 C   0  0  0  0  0  0  0  0  0  0  0  0
   37.3960   27.1380   33.2630 N   0  0  0  0  0  0  0  0  0  0  0  0
   36.3860   28.1140   33.0040 C   0  0  0  0  0  0  0  0  0  0  0  0
   35.8590   28.0090   31.5980 C   0  0  0  0  0  0  0  0  0  0  0  0
   35.2850   26.7460   31.4690 O   0  0  0  0  0  0  0  0  0  0  0  0
   36.2190   25.7530   31.5980 C   0  0  0  0  0  0  0  0  0  0  0  0
   37.5280   26.2420   32.1900 C   0  0  0  0  0  0  0  0  0  0  0  0
   39.5605   21.8925   38.4595 H   0  0  0  0  0  0  0  0  0  0  0  0
   38.2516   23.8088   37.5249 H   0  0  0  0  0  0  0  0  0  0  0  0
   42.6712   22.5691   35.6808 H   0  0  0  0  0  0  0  0  0  0  0  0
   40.2859   27.0405   36.0329 H   0  0  0  0  0  0  0  0  0  0  0  0
   39.9962   27.0172   34.3369 H   0  0  0  0  0  0  0  0  0  0  0  0
   37.8292   27.2322   36.6104 H   0  0  0  0  0  0  0  0  0  0  0  0
   38.1292   28.4963   35.4797 H   0  0  0  0  0  0  0  0  0  0  0  0
   36.2410   26.6973   34.7123 H   0  0  0  0  0  0  0  0  0  0  0  0
   37.1190   24.7019   35.4591 H   0  0  0  0  0  0  0  0  0  0  0  0
   37.8770   24.6852   33.8547 H   0  0  0  0  0  0  0  0  0  0  0  0
   35.5549   27.9628   33.7086 H   0  0  0  0  0  0  0  0  0  0  0  0
   36.8323   29.1115   33.1297 H   0  0  0  0  0  0  0  0  0  0  0  0
   35.1025   28.7873   31.4195 H   0  0  0  0  0  0  0  0  0  0  0  0
   36.6676   28.1483   30.8653 H   0  0  0  0  0  0  0  0  0  0  0  0
   35.8094   24.9697   32.2527 H   0  0  0  0  0  0  0  0  0  0  0  0
   36.4364   25.3732   30.5888 H   0  0  0  0  0  0  0  0  0  0  0  0
   38.0907   25.3658   32.5444 H   0  0  0  0  0  0  0  0  0  0  0  0
   38.0401   26.7951   31.3889 H   0  0  0  0  0  0  0  0  0  0  0  0
  2  1  2  0
  3  2  1  0
  4  3  2  0
  4  5  1  0
  5  6  2  0
  6  1  1  0
  7  3  1  0
  8  7  1  0
  8  9  1  0
 10 11  1  0
 10  9  1  0
 11  7  1  0
 12 10  1  0
 13 12  1  0
 14 13  1  0
 15 16  1  0
 15 14  1  0
 16 17  1  0
 17 12  1  0
  1 18  1  0
  2 19  1  0
  5 20  1  0
  8 21  1  0
  8 22  1  0
  9 23  1  0
  9 24  1  0
 10 25  1  1
 11 26  1  0
 11 27  1  0
 13 28  1  0
 13 29  1  0
 14 30  1  0
 14 31  1  0
 16 32  1  0
 16 33  1  0
 17 34  1  0
 17 35  1  0
M  ISO  8  18  14  19  14  20  14  21  13  22  13  23  13  24  13  25  13
M  ISO  8  26  13  27  13  28  13  29  13  30  13  31  13  32  13  33  13
M  ISO  2  34  13  35  13
M  END
>  <minimizedAffinity>  (1) 
-4.54516125

>  <minimizedRMSD>  (1) 
1.129251

$$$$
