
     RDKit          3D

 33 35  0  0  1  0  0  0  0  0999 V2000
   35.4350   24.0010   31.4420 C   0  0  0  0  0  0  0  0  0  0  0  0
   36.6780   24.0270   32.0830 C   0  0  0  0  0  0  0  0  0  0  0  0
   37.3870   25.2270   32.1010 C   0  0  0  0  0  0  0  0  0  0  0  0
   36.8310   26.3160   31.4920 N   0  0  0  0  0  0  0  0  0  0  0  0
   35.6220   26.2580   30.8780 C   0  0  0  0  0  0  0  0  0  0  0  0
   34.9310   25.1130   30.8530 N   0  0  0  0  0  0  0  0  0  0  0  0
   38.6540   25.3720   32.7210 N   0  0  0  0  0  0  0  0  0  0  0  0
   39.9470   25.7760   32.1710 C   0  0  0  0  0  0  0  0  0  0  0  0
   40.8250   24.7640   32.9210 C   0  0  0  0  0  0  0  0  0  0  0  0
   40.3640   25.0740   34.3340 C   0  0  1  0  0  0  0  0  0  0  0  0
   38.8540   25.1040   34.1440 C   0  0  0  0  0  0  0  0  0  0  0  0
   40.6780   24.0240   35.2500 N   0  0  0  0  0  0  0  0  0  0  0  0
   39.7290   23.1160   35.5310 C   0  0  0  0  0  0  0  0  0  0  0  0
   39.9720   22.0690   36.4160 C   0  0  0  0  0  0  0  0  0  0  0  0
   41.2450   22.0150   36.9890 C   0  0  0  0  0  0  0  0  0  0  0  0
   41.5680   20.9720   37.9040 N   0  0  0  0  0  0  0  0  0  0  0  0
   42.1880   22.9480   36.6870 N   0  0  0  0  0  0  0  0  0  0  0  0
   41.9130   23.9500   35.8220 C   0  0  0  0  0  0  0  0  0  0  0  0
   42.7570   24.8340   35.5150 O   0  0  0  0  0  0  0  0  0  0  0  0
   34.8582   23.0647   31.4155 H   0  0  0  0  0  0  0  0  0  0  0  0
   37.0855   23.1237   32.5606 H   0  0  0  0  0  0  0  0  0  0  0  0
   35.2082   27.1573   30.3984 H   0  0  0  0  0  0  0  0  0  0  0  0
   39.9959   25.6420   31.0803 H   0  0  0  0  0  0  0  0  0  0  0  0
   40.2156   26.8351   32.2981 H   0  0  0  0  0  0  0  0  0  0  0  0
   40.6031   23.7266   32.6304 H   0  0  0  0  0  0  0  0  0  0  0  0
   41.9074   24.8442   32.7422 H   0  0  0  0  0  0  0  0  0  0  0  0
   40.8274   25.9836   34.7437 H   0  0  0  0  0  0  0  0  0  0  0  0
   38.4039   25.9011   34.7540 H   0  0  0  0  0  0  0  0  0  0  0  0
   38.3807   24.1614   34.4561 H   0  0  0  0  0  0  0  0  0  0  0  0
   38.7418   23.2011   35.0532 H   0  0  0  0  0  0  0  0  0  0  0  0
   39.2002   21.3216   36.6522 H   0  0  0  0  0  0  0  0  0  0  0  0
   42.5060   20.9306   38.3274 H   0  0  0  0  0  0  0  0  0  0  0  0
   40.8635   20.2593   38.1421 H   0  0  0  0  0  0  0  0  0  0  0  0
  1  2  2  0
  2  3  1  0
  3  7  1  0
  4  3  2  0
  5  4  1  0
  6  5  2  0
  6  1  1  0
  7 11  1  0
  8  7  1  0
  8  9  1  0
  9 10  1  0
 10 12  1  0
 11 10  1  0
 12 13  1  0
 12 18  1  0
 13 14  2  0
 14 15  1  0
 15 16  1  0
 17 15  2  0
 18 17  1  0
 19 18  2  0
  1 20  1  0
  2 21  1  0
  5 22  1  0
  8 23  1  0
  8 24  1  0
  9 25  1  0
  9 26  1  0
 10 27  1  1
 11 28  1  0
 11 29  1  0
 13 30  1  0
 14 31  1  0
 16 32  1  0
 16 33  1  0
M  ISO  8  20  14  21  14  22  14  23  13  24  13  25  13  26  13  27  13
M  ISO  4  28  13  29  13  30  14  31  14
M  END
>  <minimizedAffinity>  (1) 
-4.7234149

>  <minimizedRMSD>  (1) 
6.73263741

$$$$
