
     RDKit          3D

 34 35  0  0  1  0  0  0  0  0999 V2000
   37.9910   24.1960   38.2880 C   0  0  0  0  0  0  0  0  0  0  0  0
   38.0010   24.9350   37.0990 C   0  0  0  0  0  0  0  0  0  0  0  0
   38.9120   24.5500   36.1130 C   0  0  0  0  0  0  0  0  0  0  0  0
   39.7360   23.4850   36.3510 N   0  0  0  0  0  0  0  0  0  0  0  0
   39.6900   22.7970   37.5240 C   0  0  0  0  0  0  0  0  0  0  0  0
   38.8190   23.1550   38.4830 N   0  0  0  0  0  0  0  0  0  0  0  0
   39.0250   25.2100   34.8680 N   0  0  0  0  0  0  0  0  0  0  0  0
   40.1480   25.8860   34.2460 C   0  0  0  0  0  0  0  0  0  0  0  0
   39.3930   27.0970   33.6680 C   0  0  0  0  0  0  0  0  0  0  0  0
   38.3610   26.2910   32.8730 C   0  0  1  0  0  0  0  0  0  0  0  0
   37.9040   25.3190   33.9280 C   0  0  0  0  0  0  0  0  0  0  0  0
   37.2860   27.1490   32.2930 C   0  0  0  0  0  0  0  0  0  0  0  0
   36.5780   27.9190   33.3630 C   0  0  0  0  0  0  0  0  0  0  0  0
   36.2530   26.1670   31.7240 C   0  0  0  0  0  0  0  0  0  0  0  0
   37.7530   28.0110   31.1590 C   0  0  0  0  0  0  0  0  0  0  0  0
   37.2859   24.4749   39.0849 H   0  0  0  0  0  0  0  0  0  0  0  0
   37.3189   25.7846   36.9475 H   0  0  0  0  0  0  0  0  0  0  0  0
   40.3672   21.9458   37.6878 H   0  0  0  0  0  0  0  0  0  0  0  0
   40.9105   26.1848   34.9804 H   0  0  0  0  0  0  0  0  0  0  0  0
   40.7224   25.2905   33.5211 H   0  0  0  0  0  0  0  0  0  0  0  0
   38.9329   27.7209   34.4484 H   0  0  0  0  0  0  0  0  0  0  0  0
   39.9877   27.8340   33.1085 H   0  0  0  0  0  0  0  0  0  0  0  0
   38.7421   25.7952   31.9680 H   0  0  0  0  0  0  0  0  0  0  0  0
   37.0079   25.6997   34.4400 H   0  0  0  0  0  0  0  0  0  0  0  0
   37.6349   24.3434   33.4969 H   0  0  0  0  0  0  0  0  0  0  0  0
   36.9065   27.5618   34.3502 H   0  0  0  0  0  0  0  0  0  0  0  0
   36.8147   28.9885   33.2627 H   0  0  0  0  0  0  0  0  0  0  0  0
   35.4924   27.7727   33.2627 H   0  0  0  0  0  0  0  0  0  0  0  0
   35.7275   25.6674   32.5512 H   0  0  0  0  0  0  0  0  0  0  0  0
   35.5267   26.7158   31.1065 H   0  0  0  0  0  0  0  0  0  0  0  0
   36.7643   25.4139   31.1065 H   0  0  0  0  0  0  0  0  0  0  0  0
   38.2409   28.9117   31.5599 H   0  0  0  0  0  0  0  0  0  0  0  0
   38.4701   27.4491   30.5425 H   0  0  0  0  0  0  0  0  0  0  0  0
   36.8907   28.3048   30.5425 H   0  0  0  0  0  0  0  0  0  0  0  0
  1  6  2  0
  2  1  1  0
  3  4  1  0
  3  2  2  0
  4  5  2  0
  5  6  1  0
  7  3  1  0
  8  7  1  0
  9  8  1  0
 10  9  1  0
 10 11  1  0
 11  7  1  0
 12 10  1  0
 12 13  1  0
 14 12  1  0
 15 12  1  0
  1 16  1  0
  2 17  1  0
  5 18  1  0
  8 19  1  0
  8 20  1  0
  9 21  1  0
  9 22  1  0
 10 23  1  6
 11 24  1  0
 11 25  1  0
 13 26  1  0
 13 27  1  0
 13 28  1  0
 14 29  1  0
 14 30  1  0
 14 31  1  0
 15 32  1  0
 15 33  1  0
 15 34  1  0
M  ISO  8  16  14  17  14  18  14  19  13  20  13  21  13  22  13  23  13
M  ISO  8  24  13  25  13  26   8  27   8  28   8  29   8  30   8  31   8
M  ISO  3  32   8  33   8  34   8
M  END
>  <minimizedAffinity>  (1) 
-4.39260769

>  <minimizedRMSD>  (1) 
2.81471562

$$$$
