
     RDKit          3D

 28 30  0  0  1  0  0  0  0  0999 V2000
   40.8550   21.9400   37.5270 C   0  0  0  0  0  0  0  0  0  0  0  0
   40.0760   23.0770   37.2720 C   0  0  0  0  0  0  0  0  0  0  0  0
   40.0840   23.5920   35.9570 C   0  0  0  0  0  0  0  0  0  0  0  0
   40.8430   22.9660   35.0070 N   0  0  0  0  0  0  0  0  0  0  0  0
   41.5830   21.8610   35.3170 C   0  0  0  0  0  0  0  0  0  0  0  0
   41.5870   21.3560   36.5650 N   0  0  0  0  0  0  0  0  0  0  0  0
   39.3410   24.7250   35.5890 N   0  0  0  0  0  0  0  0  0  0  0  0
   39.7860   26.0060   35.0420 C   0  0  0  0  0  0  0  0  0  0  0  0
   38.8670   26.9300   35.8160 C   0  0  0  0  0  0  0  0  0  0  0  0
   37.5320   26.2710   35.5110 C   0  0  2  0  0  0  0  0  0  0  0  0
   37.9030   24.8070   35.7040 C   0  0  0  0  0  0  0  0  0  0  0  0
   37.0880   26.5530   34.0980 C   0  0  0  0  0  0  0  0  0  0  0  0
   36.7330   27.8560   33.9220 C   0  0  0  0  0  0  0  0  0  0  0  0
   36.2240   27.9840   32.1310 S   0  0  0  0  0  0  0  0  0  0  0  0
   36.6110   26.1300   31.9480 C   0  0  0  0  0  0  0  0  0  0  0  0
   36.9500   25.8760   32.9890 N   0  0  0  0  0  0  0  0  0  0  0  0
   40.8669   21.5152   38.5416 H   0  0  0  0  0  0  0  0  0  0  0  0
   39.4806   23.5505   38.0665 H   0  0  0  0  0  0  0  0  0  0  0  0
   42.1853   21.3759   34.5348 H   0  0  0  0  0  0  0  0  0  0  0  0
   40.8462   26.2014   35.2608 H   0  0  0  0  0  0  0  0  0  0  0  0
   39.7323   26.0957   33.9470 H   0  0  0  0  0  0  0  0  0  0  0  0
   39.0911   26.9236   36.8929 H   0  0  0  0  0  0  0  0  0  0  0  0
   38.9364   27.9937   35.5446 H   0  0  0  0  0  0  0  0  0  0  0  0
   36.6914   26.6172   36.1303 H   0  0  0  0  0  0  0  0  0  0  0  0
   37.4248   24.1893   34.9295 H   0  0  0  0  0  0  0  0  0  0  0  0
   37.5624   24.4380   36.6827 H   0  0  0  0  0  0  0  0  0  0  0  0
   36.7439   28.6595   34.6732 H   0  0  0  0  0  0  0  0  0  0  0  0
   36.5260   25.4822   31.0630 H   0  0  0  0  0  0  0  0  0  0  0  0
  2  1  2  0
  3  2  1  0
  4  5  1  0
  4  3  2  0
  5  6  2  0
  6  1  1  0
  7 11  1  0
  7  3  1  0
  8  7  1  0
  8  9  1  0
 10 11  1  0
 10  9  1  0
 12 10  1  0
 13 12  2  0
 14 13  1  0
 15 14  1  0
 15 16  2  0
 16 12  1  0
  1 17  1  0
  2 18  1  0
  5 19  1  0
  8 20  1  0
  8 21  1  0
  9 22  1  0
  9 23  1  0
 10 24  1  1
 11 25  1  0
 11 26  1  0
 13 27  1  0
 15 28  1  0
M  ISO  8  17  14  18  14  19  14  20  13  21  13  22  13  23  13  24  13
M  ISO  4  25  13  26  13  27  14  28  14
M  END
>  <minimizedAffinity>  (1) 
-4.45383644

>  <minimizedRMSD>  (1) 
1.24972391

$$$$
