
     RDKit          3D

 25 26  0  0  1  0  0  0  0  0999 V2000
   40.5990   22.0780   37.5860 C   0  0  0  0  0  0  0  0  0  0  0  0
   40.1500   23.2580   36.9770 C   0  0  0  0  0  0  0  0  0  0  0  0
   40.6510   23.5920   35.7200 C   0  0  0  0  0  0  0  0  0  0  0  0
   41.5580   22.7430   35.1470 N   0  0  0  0  0  0  0  0  0  0  0  0
   41.9750   21.6080   35.7580 C   0  0  0  0  0  0  0  0  0  0  0  0
   41.4910   21.2790   36.9810 N   0  0  0  0  0  0  0  0  0  0  0  0
   40.2720   24.7460   35.0170 N   0  0  0  0  0  0  0  0  0  0  0  0
   41.0570   25.8680   34.5180 C   0  0  0  0  0  0  0  0  0  0  0  0
   40.1080   27.0080   34.9140 C   0  0  0  0  0  0  0  0  0  0  0  0
   38.8480   26.4790   34.2280 C   0  0  1  0  0  0  0  0  0  0  0  0
   38.9040   25.0320   34.6370 C   0  0  0  0  0  0  0  0  0  0  0  0
   37.6530   27.1930   34.8080 C   0  0  0  0  0  0  0  0  0  0  0  0
   38.0290   28.0430   35.8290 F   0  0  0  0  0  0  0  0  0  0  0  0
   37.0980   27.9980   33.8240 F   0  0  0  0  0  0  0  0  0  0  0  0
   36.7190   26.2870   35.2700 F   0  0  0  0  0  0  0  0  0  0  0  0
   40.2129   21.8020   38.5783 H   0  0  0  0  0  0  0  0  0  0  0  0
   39.4179   23.9065   37.4804 H   0  0  0  0  0  0  0  0  0  0  0  0
   42.7064   20.9532   35.2617 H   0  0  0  0  0  0  0  0  0  0  0  0
   41.2092   25.8152   33.4299 H   0  0  0  0  0  0  0  0  0  0  0  0
   42.0822   25.9438   34.9095 H   0  0  0  0  0  0  0  0  0  0  0  0
   39.9864   27.0900   36.0042 H   0  0  0  0  0  0  0  0  0  0  0  0
   40.4246   28.0223   34.6294 H   0  0  0  0  0  0  0  0  0  0  0  0
   38.7802   26.6191   33.1391 H   0  0  0  0  0  0  0  0  0  0  0  0
   38.2315   24.8552   35.4893 H   0  0  0  0  0  0  0  0  0  0  0  0
   38.5844   24.3804   33.8104 H   0  0  0  0  0  0  0  0  0  0  0  0
  2  1  2  0
  3  2  1  0
  4  3  2  0
  4  5  1  0
  5  6  2  0
  6  1  1  0
  7  3  1  0
  8  9  1  0
  8  7  1  0
 10 11  1  0
 10 12  1  0
 10  9  1  0
 11  7  1  0
 12 15  1  0
 12 13  1  0
 14 12  1  0
  1 16  1  0
  2 17  1  0
  5 18  1  0
  8 19  1  0
  8 20  1  0
  9 21  1  0
  9 22  1  0
 10 23  1  6
 11 24  1  0
 11 25  1  0
M  ISO  8  16  14  17  14  18  14  19  13  20  13  21  13  22  13  23  13
M  ISO  2  24  13  25  13
M  END
>  <minimizedAffinity>  (1) 
-4.08618164

>  <minimizedRMSD>  (1) 
1.58664906

$$$$
