
     RDKit          3D

 25 26  0  0  1  0  0  0  0  0999 V2000
   40.2940   22.1750   36.9340 C   0  0  0  0  0  0  0  0  0  0  0  0
   39.5220   23.3360   36.7270 C   0  0  0  0  0  0  0  0  0  0  0  0
   39.8720   24.1210   35.6150 C   0  0  0  0  0  0  0  0  0  0  0  0
   40.9110   23.7220   34.8210 N   0  0  0  0  0  0  0  0  0  0  0  0
   41.6200   22.5970   35.0650 C   0  0  0  0  0  0  0  0  0  0  0  0
   41.3090   21.8310   36.1170 N   0  0  0  0  0  0  0  0  0  0  0  0
   39.1910   25.3090   35.2830 N   0  0  0  0  0  0  0  0  0  0  0  0
   39.6710   26.6890   35.1940 C   0  0  0  0  0  0  0  0  0  0  0  0
   38.4980   27.3980   35.8400 C   0  0  0  0  0  0  0  0  0  0  0  0
   37.3540   26.8140   35.0400 C   0  0  2  0  0  0  0  0  0  0  0  0
   37.7870   25.3650   34.9460 C   0  0  0  0  0  0  0  0  0  0  0  0
   37.1830   27.4530   33.6990 C   0  0  0  0  0  0  0  0  0  0  0  0
   40.0599   21.5275   37.7919 H   0  0  0  0  0  0  0  0  0  0  0  0
   38.6940   23.6116   37.3967 H   0  0  0  0  0  0  0  0  0  0  0  0
   42.4496   22.3125   34.4010 H   0  0  0  0  0  0  0  0  0  0  0  0
   40.6031   26.8375   35.7589 H   0  0  0  0  0  0  0  0  0  0  0  0
   39.9287   27.0329   34.1814 H   0  0  0  0  0  0  0  0  0  0  0  0
   38.4134   27.1534   36.9091 H   0  0  0  0  0  0  0  0  0  0  0  0
   38.5580   28.4962   35.8228 H   0  0  0  0  0  0  0  0  0  0  0  0
   36.3657   26.9664   35.4984 H   0  0  0  0  0  0  0  0  0  0  0  0
   37.2065   24.7529   35.6520 H   0  0  0  0  0  0  0  0  0  0  0  0
   37.6158   24.9743   33.9321 H   0  0  0  0  0  0  0  0  0  0  0  0
   36.9006   28.5082   33.8290 H   0  0  0  0  0  0  0  0  0  0  0  0
   38.1289   27.3926   33.1408 H   0  0  0  0  0  0  0  0  0  0  0  0
   36.3937   26.9283   33.1408 H   0  0  0  0  0  0  0  0  0  0  0  0
  2  1  2  0
  3  2  1  0
  4  5  1  0
  4  3  2  0
  5  6  2  0
  6  1  1  0
  7  3  1  0
  8  7  1  0
  8  9  1  0
 10  9  1  0
 11 10  1  0
 11  7  1  0
 12 10  1  0
  1 13  1  0
  2 14  1  0
  5 15  1  0
  8 16  1  0
  8 17  1  0
  9 18  1  0
  9 19  1  0
 10 20  1  1
 11 21  1  0
 11 22  1  0
 12 23  1  0
 12 24  1  0
 12 25  1  0
M  ISO  8  13  14  14  14  15  14  16  13  17  13  18  13  19  13  20  13
M  ISO  5  21  13  22  13  23   8  24   8  25   8
M  END
>  <minimizedAffinity>  (1) 
-3.68705249

>  <minimizedRMSD>  (1) 
0.057539314

$$$$
