
     RDKit          3D

 47 50  0  0  1  0  0  0  0  0999 V2000
   41.7470   21.2510   37.0770 C   0  0  0  0  0  0  0  0  0  0  0  0
   41.4250   22.4170   36.3750 C   0  0  0  0  0  0  0  0  0  0  0  0
   42.3510   23.0190   35.5350 C   0  0  0  0  0  0  0  0  0  0  0  0
   43.5640   22.4260   35.4340 N   0  0  0  0  0  0  0  0  0  0  0  0
   43.8730   21.2880   36.1220 C   0  0  0  0  0  0  0  0  0  0  0  0
   42.9750   20.7100   36.9330 N   0  0  0  0  0  0  0  0  0  0  0  0
   42.0800   24.1800   34.8110 N   0  0  0  0  0  0  0  0  0  0  0  0
   42.7510   25.4820   34.8400 C   0  0  0  0  0  0  0  0  0  0  0  0
   41.5060   26.3740   34.6700 C   0  0  0  0  0  0  0  0  0  0  0  0
   40.8200   25.7350   33.5850 C   0  0  1  0  0  0  0  0  0  0  0  0
   41.0160   24.2700   33.8340 C   0  0  0  0  0  0  0  0  0  0  0  0
   39.4010   25.8820   33.6850 N   0  0  0  0  0  0  0  0  0  0  0  0
   38.6360   25.1850   32.7810 C   0  0  0  0  0  0  0  0  0  0  0  0
   37.2440   25.6090   33.2180 C   0  0  0  0  0  0  0  0  0  0  0  0
   37.4370   26.1330   34.6070 C   0  0  0  0  0  0  0  0  0  0  0  0
   38.9150   25.8990   34.9650 C   0  0  1  0  0  0  0  0  0  0  0  0
   38.8190   24.8670   35.9730 C   0  0  0  0  0  0  0  0  0  0  0  0
   38.0130   23.6420   35.7530 C   0  0  0  0  0  0  0  0  0  0  0  0
   37.4620   23.2130   37.0950 C   0  0  0  0  0  0  0  0  0  0  0  0
   37.9660   24.2240   38.0740 C   0  0  0  0  0  0  0  0  0  0  0  0
   38.1310   25.4490   37.2040 C   0  0  0  0  0  0  0  0  0  0  0  0
   41.0066   20.7795   37.7400 H   0  0  0  0  0  0  0  0  0  0  0  0
   40.4257   22.8622   36.4901 H   0  0  0  0  0  0  0  0  0  0  0  0
   44.8711   20.8396   36.0097 H   0  0  0  0  0  0  0  0  0  0  0  0
   43.2655   25.6636   35.7952 H   0  0  0  0  0  0  0  0  0  0  0  0
   43.5515   25.6272   34.0997 H   0  0  0  0  0  0  0  0  0  0  0  0
   40.8916   26.3790   35.5824 H   0  0  0  0  0  0  0  0  0  0  0  0
   41.7434   27.4312   34.4802 H   0  0  0  0  0  0  0  0  0  0  0  0
   41.1873   26.1463   32.6332 H   0  0  0  0  0  0  0  0  0  0  0  0
   40.0929   23.8208   34.2292 H   0  0  0  0  0  0  0  0  0  0  0  0
   41.2662   23.7299   32.9090 H   0  0  0  0  0  0  0  0  0  0  0  0
   38.8486   25.4917   31.7462 H   0  0  0  0  0  0  0  0  0  0  0  0
   38.8056   24.0982   32.7761 H   0  0  0  0  0  0  0  0  0  0  0  0
   36.8500   26.3944   32.5563 H   0  0  0  0  0  0  0  0  0  0  0  0
   36.5201   24.7818   33.1773 H   0  0  0  0  0  0  0  0  0  0  0  0
   37.2035   27.2073   34.6430 H   0  0  0  0  0  0  0  0  0  0  0  0
   36.7714   25.6230   35.3189 H   0  0  0  0  0  0  0  0  0  0  0  0
   39.6534   26.5298   35.4817 H   0  0  0  0  0  0  0  0  0  0  0  0
   39.8746   24.5609   36.0170 H   0  0  0  0  0  0  0  0  0  0  0  0
   37.1869   23.8556   35.0588 H   0  0  0  0  0  0  0  0  0  0  0  0
   38.6316   22.8446   35.3154 H   0  0  0  0  0  0  0  0  0  0  0  0
   36.3622   23.2107   37.0763 H   0  0  0  0  0  0  0  0  0  0  0  0
   37.7796   22.1938   37.3602 H   0  0  0  0  0  0  0  0  0  0  0  0
   37.2363   24.4002   38.8780 H   0  0  0  0  0  0  0  0  0  0  0  0
   38.8881   23.9196   38.5908 H   0  0  0  0  0  0  0  0  0  0  0  0
   38.7604   26.2065   37.6940 H   0  0  0  0  0  0  0  0  0  0  0  0
   37.1871   25.9688   36.9828 H   0  0  0  0  0  0  0  0  0  0  0  0
  2  1  2  0
  3  2  1  0
  4  3  2  0
  4  5  1  0
  5  6  2  0
  6  1  1  0
  7  8  1  0
  7  3  1  0
  9  8  1  0
 10 12  1  0
 10 11  1  0
 10  9  1  0
 11  7  1  0
 12 13  1  0
 12 16  1  0
 13 14  1  0
 14 15  1  0
 15 16  1  0
 16 17  1  0
 17 21  1  0
 18 17  1  0
 18 19  1  0
 19 20  1  0
 21 20  1  0
  1 22  1  0
  2 23  1  0
  5 24  1  0
  8 25  1  0
  8 26  1  0
  9 27  1  0
  9 28  1  0
 10 29  1  6
 11 30  1  0
 11 31  1  0
 13 32  1  0
 13 33  1  0
 14 34  1  0
 14 35  1  0
 15 36  1  0
 15 37  1  0
 16 38  1  1
 17 39  1  0
 18 40  1  0
 18 41  1  0
 19 42  1  0
 19 43  1  0
 20 44  1  0
 20 45  1  0
 21 46  1  0
 21 47  1  0
M  ISO  8  22  14  23  14  24  14  25  13  26  13  27  13  28  13  29  13
M  ISO  8  30  13  31  13  32  13  33  13  34  13  35  13  36  13  37  13
M  ISO  8  38  13  39  13  40  13  41  13  42  13  43  13  44  13  45  13
M  ISO  2  46  13  47  13
M  END
>  <minimizedAffinity>  (1) 
-4.56441975

>  <minimizedRMSD>  (1) 
1.51775587

$$$$
