
     RDKit          3D

 17 17  0  0  0  0  0  0  0  0999 V2000
   41.8140   21.2940   37.2120 C   0  0  0  0  0  0  0  0  0  0  0  0
   40.5940   21.9490   36.9870 C   0  0  0  0  0  0  0  0  0  0  0  0
   40.5500   23.1460   36.2980 C   0  0  0  0  0  0  0  0  0  0  0  0
   41.7320   23.6590   35.8510 N   0  0  0  0  0  0  0  0  0  0  0  0
   42.8930   23.0230   36.0720 C   0  0  0  0  0  0  0  0  0  0  0  0
   42.9440   21.8720   36.7340 N   0  0  0  0  0  0  0  0  0  0  0  0
   39.2270   23.7700   36.1040 C   0  0  0  0  0  0  0  0  0  0  0  0
   38.2580   23.1850   37.0920 C   0  0  0  0  0  0  0  0  0  0  0  0
   37.9740   24.1990   38.5480 S   0  0  0  0  0  0  0  0  0  0  0  0
   41.8529   20.3407   37.7594 H   0  0  0  0  0  0  0  0  0  0  0  0
   39.6611   21.5043   37.3636 H   0  0  0  0  0  0  0  0  0  0  0  0
   43.8267   23.4661   35.6953 H   0  0  0  0  0  0  0  0  0  0  0  0
   39.3049   24.8557   36.2630 H   0  0  0  0  0  0  0  0  0  0  0  0
   38.8734   23.5784   35.0802 H   0  0  0  0  0  0  0  0  0  0  0  0
   37.2943   23.0383   36.5823 H   0  0  0  0  0  0  0  0  0  0  0  0
   38.7041   22.2447   37.4481 H   0  0  0  0  0  0  0  0  0  0  0  0
   38.1841   23.4489   39.6750 H   0  0  0  0  0  0  0  0  0  0  0  0
  2  1  2  0
  3  2  1  0
  4  5  1  0
  4  3  2  0
  5  6  2  0
  6  1  1  0
  7  3  1  0
  7  8  1  0
  8  9  1  0
  1 10  1  0
  2 11  1  0
  5 12  1  0
  7 13  1  0
  7 14  1  0
  8 15  1  0
  8 16  1  0
  9 17  1  0
M  ISO  8  10  14  11  14  12  14  13   8  14   8  15   8  16   8  17  11
M  END
>  <minimizedAffinity>  (1) 
-2.51587367

>  <minimizedRMSD>  (1) 
1.97775817

$$$$
