
     RDKit          3D

 46 48  0  0  1  0  0  0  0  0999 V2000
   37.7790   23.7210   37.8610 C   0  0  0  0  0  0  0  0  0  0  0  0
   37.8810   23.4490   36.4900 C   0  0  0  0  0  0  0  0  0  0  0  0
   39.0730   22.8860   36.0020 C   0  0  0  0  0  0  0  0  0  0  0  0
   40.0490   22.6410   36.9000 N   0  0  0  0  0  0  0  0  0  0  0  0
   39.9290   22.9090   38.2210 C   0  0  0  0  0  0  0  0  0  0  0  0
   38.7900   23.4510   38.6990 N   0  0  0  0  0  0  0  0  0  0  0  0
   39.2660   22.5950   34.6460 N   0  0  0  0  0  0  0  0  0  0  0  0
   40.3010   23.0500   33.7310 C   0  0  0  0  0  0  0  0  0  0  0  0
   39.4640   23.1520   32.4610 C   0  0  0  0  0  0  0  0  0  0  0  0
   38.6770   21.9560   32.4690 C   0  0  1  0  0  0  0  0  0  0  0  0
   38.3740   21.7280   33.9140 C   0  0  0  0  0  0  0  0  0  0  0  0
   37.3840   22.2380   31.9130 N   0  0  0  0  0  0  0  0  0  0  0  0
   36.3780   21.4600   32.5120 C   0  0  0  0  0  0  0  0  0  0  0  0
   35.2060   21.8510   31.6630 C   0  0  0  0  0  0  0  0  0  0  0  0
   35.6690   23.1350   30.9990 C   0  0  0  0  0  0  0  0  0  0  0  0
   37.0590   23.4620   31.5410 C   0  0  1  0  0  0  0  0  0  0  0  0
   36.8960   24.8380   31.8800 C   0  0  0  0  0  0  0  0  0  0  0  0
   37.1280   25.5750   33.1020 C   0  0  0  0  0  0  0  0  0  0  0  0
   37.8490   25.6120   30.9160 C   0  0  0  0  0  0  0  0  0  0  0  0
   35.5060   25.2980   31.3650 C   0  0  0  0  0  0  0  0  0  0  0  0
   36.8530   24.1639   38.2565 H   0  0  0  0  0  0  0  0  0  0  0  0
   37.0456   23.6715   35.8099 H   0  0  0  0  0  0  0  0  0  0  0  0
   40.7606   22.6848   38.9052 H   0  0  0  0  0  0  0  0  0  0  0  0
   40.7180   24.0230   34.0300 H   0  0  0  0  0  0  0  0  0  0  0  0
   41.1901   22.4059   33.6626 H   0  0  0  0  0  0  0  0  0  0  0  0
   40.1081   23.1905   31.5701 H   0  0  0  0  0  0  0  0  0  0  0  0
   38.8492   24.0636   32.4308 H   0  0  0  0  0  0  0  0  0  0  0  0
   39.1902   21.1414   31.9369 H   0  0  0  0  0  0  0  0  0  0  0  0
   37.3267   21.9853   34.1307 H   0  0  0  0  0  0  0  0  0  0  0  0
   38.5141   20.6738   34.1949 H   0  0  0  0  0  0  0  0  0  0  0  0
   36.5952   20.3842   32.4375 H   0  0  0  0  0  0  0  0  0  0  0  0
   36.2444   21.6266   33.5911 H   0  0  0  0  0  0  0  0  0  0  0  0
   34.9867   21.0765   30.9133 H   0  0  0  0  0  0  0  0  0  0  0  0
   34.2783   21.9754   32.2408 H   0  0  0  0  0  0  0  0  0  0  0  0
   34.9722   23.9523   31.2368 H   0  0  0  0  0  0  0  0  0  0  0  0
   35.6998   23.0145   29.9060 H   0  0  0  0  0  0  0  0  0  0  0  0
   38.1095   23.7007   31.3187 H   0  0  0  0  0  0  0  0  0  0  0  0
   36.9236   24.9258   33.9662 H   0  0  0  0  0  0  0  0  0  0  0  0
   38.1751   25.9103   33.1348 H   0  0  0  0  0  0  0  0  0  0  0  0
   36.4617   26.4497   33.1348 H   0  0  0  0  0  0  0  0  0  0  0  0
   38.5700   26.1976   31.5052 H   0  0  0  0  0  0  0  0  0  0  0  0
   38.3905   24.8947   30.2817 H   0  0  0  0  0  0  0  0  0  0  0  0
   37.2581   26.2891   30.2817 H   0  0  0  0  0  0  0  0  0  0  0  0
   34.8509   25.5148   32.2217 H   0  0  0  0  0  0  0  0  0  0  0  0
   35.6231   26.2053   30.7542 H   0  0  0  0  0  0  0  0  0  0  0  0
   35.0588   24.4999   30.7542 H   0  0  0  0  0  0  0  0  0  0  0  0
  1  6  2  0
  2  1  1  0
  3  2  2  0
  3  4  1  0
  4  5  2  0
  5  6  1  0
  7  3  1  0
  8  7  1  0
  9 10  1  0
  9  8  1  0
 10 11  1  0
 11  7  1  0
 12 10  1  0
 12 13  1  0
 14 13  1  0
 15 16  1  0
 15 14  1  0
 16 17  1  0
 16 12  1  0
 17 18  1  0
 19 17  1  0
 20 17  1  0
  1 21  1  0
  2 22  1  0
  5 23  1  0
  8 24  1  0
  8 25  1  0
  9 26  1  0
  9 27  1  0
 10 28  1  6
 11 29  1  0
 11 30  1  0
 13 31  1  0
 13 32  1  0
 14 33  1  0
 14 34  1  0
 15 35  1  0
 15 36  1  0
 16 37  1  6
 18 38  1  0
 18 39  1  0
 18 40  1  0
 19 41  1  0
 19 42  1  0
 19 43  1  0
 20 44  1  0
 20 45  1  0
 20 46  1  0
M  ISO  8  21  14  22  14  23  14  24  13  25  13  26  13  27  13  28  13
M  ISO  8  29  13  30  13  31  13  32  13  33  13  34  13  35  13  36  13
M  ISO  8  37  13  38   8  39   8  40   8  41   8  42   8  43   8  44   8
M  ISO  2  45   8  46   8
M  END
>  <minimizedAffinity>  (1) 
-4.77434349

>  <minimizedRMSD>  (1) 
4.90149879

$$$$
