
     RDKit          3D

 50 53  0  0  1  0  0  0  0  0999 V2000
   39.2710   23.2610   37.3180 C   0  0  0  0  0  0  0  0  0  0  0  0
   39.1860   23.5710   35.9600 C   0  0  0  0  0  0  0  0  0  0  0  0
   40.0320   22.9580   35.0480 C   0  0  0  0  0  0  0  0  0  0  0  0
   40.9120   22.0710   35.5570 N   0  0  0  0  0  0  0  0  0  0  0  0
   40.9990   21.7670   36.8660 C   0  0  0  0  0  0  0  0  0  0  0  0
   40.1700   22.3680   37.7520 N   0  0  0  0  0  0  0  0  0  0  0  0
   40.0130   23.2270   33.6760 N   0  0  0  0  0  0  0  0  0  0  0  0
   41.0790   23.7230   32.7970 C   0  0  0  0  0  0  0  0  0  0  0  0
   40.2300   24.6460   31.9150 C   0  0  0  0  0  0  0  0  0  0  0  0
   39.1110   23.8070   31.5800 C   0  0  1  0  0  0  0  0  0  0  0  0
   38.8500   23.0320   32.8430 C   0  0  0  0  0  0  0  0  0  0  0  0
   37.9010   24.5750   31.4270 N   0  0  0  0  0  0  0  0  0  0  0  0
   36.7260   23.9870   31.8560 C   0  0  0  0  0  0  0  0  0  0  0  0
   35.7520   25.0700   31.4180 C   0  0  0  0  0  0  0  0  0  0  0  0
   36.5870   26.3070   31.3170 C   0  0  0  0  0  0  0  0  0  0  0  0
   38.0140   25.8970   31.7100 C   0  0  1  0  0  0  0  0  0  0  0  0
   38.1890   26.6240   32.9660 C   0  0  0  0  0  0  0  0  0  0  0  0
   39.5690   26.8560   33.4900 C   0  0  0  0  0  0  0  0  0  0  0  0
   39.6060   27.0390   34.9940 C   0  0  0  0  0  0  0  0  0  0  0  0
   38.3350   27.5460   35.5850 C   0  0  0  0  0  0  0  0  0  0  0  0
   37.1210   26.7720   35.2080 C   0  0  0  0  0  0  0  0  0  0  0  0
   37.4980   25.8210   34.0670 C   0  0  0  0  0  0  0  0  0  0  0  0
   38.5968   23.7521   38.0351 H   0  0  0  0  0  0  0  0  0  0  0  0
   38.4445   24.3050   35.6114 H   0  0  0  0  0  0  0  0  0  0  0  0
   41.7408   21.0332   37.2142 H   0  0  0  0  0  0  0  0  0  0  0  0
   41.8517   24.2749   33.3523 H   0  0  0  0  0  0  0  0  0  0  0  0
   41.6591   22.9537   32.2663 H   0  0  0  0  0  0  0  0  0  0  0  0
   39.9061   25.5392   32.4693 H   0  0  0  0  0  0  0  0  0  0  0  0
   40.7681   25.0333   31.0372 H   0  0  0  0  0  0  0  0  0  0  0  0
   39.3334   23.2379   30.6653 H   0  0  0  0  0  0  0  0  0  0  0  0
   37.9501   23.4143   33.3471 H   0  0  0  0  0  0  0  0  0  0  0  0
   38.6780   21.9659   32.6337 H   0  0  0  0  0  0  0  0  0  0  0  0
   36.5342   23.0292   31.3502 H   0  0  0  0  0  0  0  0  0  0  0  0
   36.6904   23.7183   32.9221 H   0  0  0  0  0  0  0  0  0  0  0  0
   35.3065   24.8211   30.4435 H   0  0  0  0  0  0  0  0  0  0  0  0
   34.9139   25.1876   32.1207 H   0  0  0  0  0  0  0  0  0  0  0  0
   36.5718   26.6938   30.2874 H   0  0  0  0  0  0  0  0  0  0  0  0
   36.2044   27.1024   31.9735 H   0  0  0  0  0  0  0  0  0  0  0  0
   38.9975   26.1285   31.2751 H   0  0  0  0  0  0  0  0  0  0  0  0
   37.7861   27.6183   32.7230 H   0  0  0  0  0  0  0  0  0  0  0  0
   40.1946   25.9905   33.2263 H   0  0  0  0  0  0  0  0  0  0  0  0
   39.9428   27.7852   33.0352 H   0  0  0  0  0  0  0  0  0  0  0  0
   39.8347   26.0660   35.4533 H   0  0  0  0  0  0  0  0  0  0  0  0
   40.3726   27.8010   35.1983 H   0  0  0  0  0  0  0  0  0  0  0  0
   38.4319   27.5191   36.6804 H   0  0  0  0  0  0  0  0  0  0  0  0
   38.1914   28.5617   35.1878 H   0  0  0  0  0  0  0  0  0  0  0  0
   36.7641   26.1936   36.0729 H   0  0  0  0  0  0  0  0  0  0  0  0
   36.3191   27.4532   34.8871 H   0  0  0  0  0  0  0  0  0  0  0  0
   36.5902   25.3473   33.6651 H   0  0  0  0  0  0  0  0  0  0  0  0
   38.1750   25.0385   34.4404 H   0  0  0  0  0  0  0  0  0  0  0  0
  1  6  2  0
  2  1  1  0
  3  4  1  0
  3  2  2  0
  4  5  2  0
  5  6  1  0
  7  3  1  0
  8  7  1  0
  9  8  1  0
 10  9  1  0
 10 11  1  0
 11  7  1  0
 12 10  1  0
 12 16  1  0
 12 13  1  0
 14 13  1  0
 15 14  1  0
 15 16  1  0
 16 17  1  0
 17 18  1  0
 17 22  1  0
 18 19  1  0
 19 20  1  0
 21 20  1  0
 22 21  1  0
  1 23  1  0
  2 24  1  0
  5 25  1  0
  8 26  1  0
  8 27  1  0
  9 28  1  0
  9 29  1  0
 10 30  1  6
 11 31  1  0
 11 32  1  0
 13 33  1  0
 13 34  1  0
 14 35  1  0
 14 36  1  0
 15 37  1  0
 15 38  1  0
 16 39  1  6
 17 40  1  0
 18 41  1  0
 18 42  1  0
 19 43  1  0
 19 44  1  0
 20 45  1  0
 20 46  1  0
 21 47  1  0
 21 48  1  0
 22 49  1  0
 22 50  1  0
M  ISO  8  23  14  24  14  25  14  26  13  27  13  28  13  29  13  30  13
M  ISO  8  31  13  32  13  33  13  34  13  35  13  36  13  37  13  38  13
M  ISO  8  39  13  40  13  41  13  42  13  43  13  44  13  45  13  46  13
M  ISO  4  47  13  48  13  49  13  50  13
M  END
>  <minimizedAffinity>  (1) 
-5.31016731

>  <minimizedRMSD>  (1) 
3.17233205

$$$$
