
     RDKit          3D

 35 37  0  0  1  0  0  0  0  0999 V2000
   40.6700   22.0830   37.5190 C   0  0  0  0  0  0  0  0  0  0  0  0
   40.5230   23.2080   36.6910 C   0  0  0  0  0  0  0  0  0  0  0  0
   41.4710   23.4590   35.6950 C   0  0  0  0  0  0  0  0  0  0  0  0
   42.5010   22.5880   35.5790 N   0  0  0  0  0  0  0  0  0  0  0  0
   42.6250   21.5020   36.3930 C   0  0  0  0  0  0  0  0  0  0  0  0
   41.7110   21.2540   37.3580 N   0  0  0  0  0  0  0  0  0  0  0  0
   41.3990   24.5560   34.8260 N   0  0  0  0  0  0  0  0  0  0  0  0
   42.3240   25.6690   34.6110 C   0  0  0  0  0  0  0  0  0  0  0  0
   41.2750   26.7920   34.5000 C   0  0  0  0  0  0  0  0  0  0  0  0
   40.3880   26.1930   33.4620 C   0  0  1  0  0  0  0  0  0  0  0  0
   40.2960   24.7770   33.9110 C   0  0  0  0  0  0  0  0  0  0  0  0
   39.0580   26.7140   33.5880 N   0  0  0  0  0  0  0  0  0  0  0  0
   38.0130   25.9310   33.1100 C   0  0  0  0  0  0  0  0  0  0  0  0
   36.8270   26.8170   33.5260 C   0  0  0  0  0  0  0  0  0  0  0  0
   37.3070   27.5680   34.7430 C   0  0  0  0  0  0  0  0  0  0  0  0
   38.7670   27.1410   34.9010 C   0  0  1  0  0  0  0  0  0  0  0  0
   38.7480   26.2300   35.9090 O   0  0  0  0  0  0  0  0  0  0  0  0
   39.9265   21.8811   38.3042 H   0  0  0  0  0  0  0  0  0  0  0  0
   39.6679   23.8867   36.8254 H   0  0  0  0  0  0  0  0  0  0  0  0
   43.4781   20.8197   36.2635 H   0  0  0  0  0  0  0  0  0  0  0  0
   43.0053   25.8163   35.4620 H   0  0  0  0  0  0  0  0  0  0  0  0
   43.0173   25.5670   33.7631 H   0  0  0  0  0  0  0  0  0  0  0  0
   40.7446   26.9543   35.4499 H   0  0  0  0  0  0  0  0  0  0  0  0
   41.6761   27.7872   34.2576 H   0  0  0  0  0  0  0  0  0  0  0  0
   40.7588   26.3682   32.4413 H   0  0  0  0  0  0  0  0  0  0  0  0
   39.3382   24.6035   34.4233 H   0  0  0  0  0  0  0  0  0  0  0  0
   40.3479   24.0872   33.0557 H   0  0  0  0  0  0  0  0  0  0  0  0
   38.0643   25.7984   32.0192 H   0  0  0  0  0  0  0  0  0  0  0  0
   37.9858   24.8998   33.4920 H   0  0  0  0  0  0  0  0  0  0  0  0
   36.5654   27.5166   32.7185 H   0  0  0  0  0  0  0  0  0  0  0  0
   35.9237   26.2254   33.7359 H   0  0  0  0  0  0  0  0  0  0  0  0
   37.2339   28.6540   34.5843 H   0  0  0  0  0  0  0  0  0  0  0  0
   36.7058   27.3463   35.6371 H   0  0  0  0  0  0  0  0  0  0  0  0
   39.5497   27.8534   35.2008 H   0  0  0  0  0  0  0  0  0  0  0  0
   38.7578   26.7010   36.7797 H   0  0  0  0  0  0  0  0  0  0  0  0
  2  1  2  0
  3  2  1  0
  4  3  2  0
  4  5  1  0
  5  6  2  0
  6  1  1  0
  7  3  1  0
  8  7  1  0
  9  8  1  0
 10 12  1  0
 10 11  1  0
 10  9  1  0
 11  7  1  0
 12 13  1  0
 12 16  1  0
 13 14  1  0
 14 15  1  0
 15 16  1  0
 16 17  1  0
  1 18  1  0
  2 19  1  0
  5 20  1  0
  8 21  1  0
  8 22  1  0
  9 23  1  0
  9 24  1  0
 10 25  1  6
 11 26  1  0
 11 27  1  0
 13 28  1  0
 13 29  1  0
 14 30  1  0
 14 31  1  0
 15 32  1  0
 15 33  1  0
 16 34  1  1
 17 35  1  0
M  ISO  8  18  14  19  14  20  14  21  13  22  13  23  13  24  13  25  13
M  ISO  8  26  13  27  13  28  13  29  13  30  13  31  13  32  13  33  13
M  ISO  2  34  13  35   3
M  END
>  <minimizedAffinity>  (1) 
-4.02231455

>  <minimizedRMSD>  (1) 
0.504412472

$$$$
