
     RDKit          3D

 45 47  0  0  1  0  0  0  0  0999 V2000
   37.7810   24.0900   37.8620 C   0  0  0  0  0  0  0  0  0  0  0  0
   37.9180   24.3110   36.4820 C   0  0  0  0  0  0  0  0  0  0  0  0
   38.9950   23.7490   35.7940 C   0  0  0  0  0  0  0  0  0  0  0  0
   39.8650   23.0100   36.5030 N   0  0  0  0  0  0  0  0  0  0  0  0
   39.7340   22.7960   37.8350 C   0  0  0  0  0  0  0  0  0  0  0  0
   38.6960   23.3350   38.5100 N   0  0  0  0  0  0  0  0  0  0  0  0
   39.1930   23.9200   34.4230 N   0  0  0  0  0  0  0  0  0  0  0  0
   40.3150   24.5050   33.6800 C   0  0  0  0  0  0  0  0  0  0  0  0
   39.4980   25.2640   32.6200 C   0  0  0  0  0  0  0  0  0  0  0  0
   38.5940   24.2210   32.1600 C   0  0  1  0  0  0  0  0  0  0  0  0
   38.2350   23.5080   33.4090 C   0  0  0  0  0  0  0  0  0  0  0  0
   37.3440   24.7320   31.6830 N   0  0  0  0  0  0  0  0  0  0  0  0
   36.2490   23.9600   31.7250 C   0  0  0  0  0  0  0  0  0  0  0  0
   35.1770   24.9420   31.2230 C   0  0  0  0  0  0  0  0  0  0  0  0
   35.8040   26.3150   31.3940 C   0  0  0  0  0  0  0  0  0  0  0  0
   37.1140   26.0410   32.1040 C   0  0  1  0  0  0  0  0  0  0  0  0
   36.8860   26.3020   33.4580 N   0  0  0  0  0  0  0  0  0  0  0  0
   37.3480   27.5650   33.9310 C   0  0  0  0  0  0  0  0  0  0  0  0
   38.1120   27.5100   35.2350 C   0  0  0  0  0  0  0  0  0  0  0  0
   36.1080   28.4300   34.2370 C   0  0  0  0  0  0  0  0  0  0  0  0
   36.9350   24.5282   38.4118 H   0  0  0  0  0  0  0  0  0  0  0  0
   37.1796   24.9246   35.9451 H   0  0  0  0  0  0  0  0  0  0  0  0
   40.4751   22.1817   38.3675 H   0  0  0  0  0  0  0  0  0  0  0  0
   40.9197   25.1809   34.3026 H   0  0  0  0  0  0  0  0  0  0  0  0
   41.0621   23.7948   33.2960 H   0  0  0  0  0  0  0  0  0  0  0  0
   38.9482   26.1076   33.0627 H   0  0  0  0  0  0  0  0  0  0  0  0
   40.1045   25.7195   31.8233 H   0  0  0  0  0  0  0  0  0  0  0  0
   39.0745   23.6440   31.3562 H   0  0  0  0  0  0  0  0  0  0  0  0
   37.2154   23.7798   33.7197 H   0  0  0  0  0  0  0  0  0  0  0  0
   38.2631   22.4183   33.2614 H   0  0  0  0  0  0  0  0  0  0  0  0
   36.3428   23.0895   31.0590 H   0  0  0  0  0  0  0  0  0  0  0  0
   36.0384   23.5258   32.7135 H   0  0  0  0  0  0  0  0  0  0  0  0
   34.2599   24.8564   31.8244 H   0  0  0  0  0  0  0  0  0  0  0  0
   34.8852   24.7438   30.1811 H   0  0  0  0  0  0  0  0  0  0  0  0
   35.9816   26.7870   30.4164 H   0  0  0  0  0  0  0  0  0  0  0  0
   35.1577   27.0058   31.9552 H   0  0  0  0  0  0  0  0  0  0  0  0
   38.0148   26.6375   31.8971 H   0  0  0  0  0  0  0  0  0  0  0  0
   35.8703   26.2548   33.6226 H   0  0  0  0  0  0  0  0  0  0  0  0
   38.0166   27.9532   33.1485 H   0  0  0  0  0  0  0  0  0  0  0  0
   37.4053   27.5609   36.0764 H   0  0  0  0  0  0  0  0  0  0  0  0
   38.6787   26.5687   35.2885 H   0  0  0  0  0  0  0  0  0  0  0  0
   38.8077   28.3604   35.2885 H   0  0  0  0  0  0  0  0  0  0  0  0
   35.9820   28.5179   35.3262 H   0  0  0  0  0  0  0  0  0  0  0  0
   36.2427   29.4311   33.8015 H   0  0  0  0  0  0  0  0  0  0  0  0
   35.2150   27.9578   33.8015 H   0  0  0  0  0  0  0  0  0  0  0  0
  1  6  2  0
  2  1  1  0
  3  2  2  0
  3  4  1  0
  4  5  2  0
  5  6  1  0
  7  3  1  0
  8  7  1  0
  9  8  1  0
 10  9  1  0
 10 11  1  0
 11  7  1  0
 12 13  1  0
 12 16  1  0
 12 10  1  0
 14 15  1  0
 14 13  1  0
 15 16  1  0
 16 17  1  0
 17 18  1  0
 18 20  1  0
 18 19  1  0
  1 21  1  0
  2 22  1  0
  5 23  1  0
  8 24  1  0
  8 25  1  0
  9 26  1  0
  9 27  1  0
 10 28  1  6
 11 29  1  0
 11 30  1  0
 13 31  1  0
 13 32  1  0
 14 33  1  0
 14 34  1  0
 15 35  1  0
 15 36  1  0
 16 37  1  6
 17 38  1  0
 18 39  1  0
 19 40  1  0
 19 41  1  0
 19 42  1  0
 20 43  1  0
 20 44  1  0
 20 45  1  0
M  ISO  8  21  14  22  14  23  14  24  13  25  13  26  13  27  13  28  13
M  ISO  8  29  13  30  13  31  13  32  13  33  13  34  13  35  13  36  13
M  ISO  8  37  13  38   5  39   8  40   8  41   8  42   8  43   8  44   8
M  ISO  1  45   8
M  END
>  <minimizedAffinity>  (1) 
-5.11277485

>  <minimizedRMSD>  (1) 
3.04184818

$$$$
