
     RDKit          3D

 40 42  0  0  1  0  0  0  0  0999 V2000
   37.7990   24.1350   37.8420 C   0  0  0  0  0  0  0  0  0  0  0  0
   37.9480   24.3690   36.4690 C   0  0  0  0  0  0  0  0  0  0  0  0
   39.0120   23.8250   35.7690 C   0  0  0  0  0  0  0  0  0  0  0  0
   39.8720   23.0720   36.4900 N   0  0  0  0  0  0  0  0  0  0  0  0
   39.7370   22.8410   37.8120 C   0  0  0  0  0  0  0  0  0  0  0  0
   38.7040   23.3720   38.4850 N   0  0  0  0  0  0  0  0  0  0  0  0
   39.2080   24.0110   34.4100 N   0  0  0  0  0  0  0  0  0  0  0  0
   40.3400   24.6230   33.6920 C   0  0  0  0  0  0  0  0  0  0  0  0
   39.5340   25.3400   32.5980 C   0  0  0  0  0  0  0  0  0  0  0  0
   38.6100   24.3160   32.1530 C   0  0  1  0  0  0  0  0  0  0  0  0
   38.2700   23.5870   33.3800 C   0  0  0  0  0  0  0  0  0  0  0  0
   37.3840   24.8540   31.6760 N   0  0  0  0  0  0  0  0  0  0  0  0
   36.2970   24.0660   31.6560 C   0  0  0  0  0  0  0  0  0  0  0  0
   35.2210   25.0520   31.1820 C   0  0  0  0  0  0  0  0  0  0  0  0
   35.8090   26.4110   31.4380 C   0  0  0  0  0  0  0  0  0  0  0  0
   37.1610   26.1430   32.1400 C   0  0  1  0  0  0  0  0  0  0  0  0
   36.8380   26.3300   33.4980 N   0  0  0  0  0  0  0  0  0  0  0  0
   36.9290   27.5100   34.2970 C   0  0  0  0  0  0  0  0  0  0  0  0
   36.1510   28.6830   34.3690 N   0  0  0  0  0  0  0  0  0  0  0  0
   37.8700   27.6310   35.1550 O   0  0  0  0  0  0  0  0  0  0  0  0
   36.9506   24.5704   38.3903 H   0  0  0  0  0  0  0  0  0  0  0  0
   37.2114   24.9921   35.9406 H   0  0  0  0  0  0  0  0  0  0  0  0
   40.4739   22.2171   38.3390 H   0  0  0  0  0  0  0  0  0  0  0  0
   40.9032   25.3259   34.3234 H   0  0  0  0  0  0  0  0  0  0  0  0
   41.1213   23.9321   33.3426 H   0  0  0  0  0  0  0  0  0  0  0  0
   38.9960   26.2077   33.0073 H   0  0  0  0  0  0  0  0  0  0  0  0
   40.1615   25.7406   31.7882 H   0  0  0  0  0  0  0  0  0  0  0  0
   39.0673   23.7271   31.3443 H   0  0  0  0  0  0  0  0  0  0  0  0
   37.2410   23.8257   33.6867 H   0  0  0  0  0  0  0  0  0  0  0  0
   38.3344   22.5009   33.2181 H   0  0  0  0  0  0  0  0  0  0  0  0
   36.4175   23.2311   30.9500 H   0  0  0  0  0  0  0  0  0  0  0  0
   36.0729   23.5823   32.6182 H   0  0  0  0  0  0  0  0  0  0  0  0
   34.2919   24.9172   31.7552 H   0  0  0  0  0  0  0  0  0  0  0  0
   34.9589   24.9047   30.1239 H   0  0  0  0  0  0  0  0  0  0  0  0
   35.9660   26.9479   30.4908 H   0  0  0  0  0  0  0  0  0  0  0  0
   35.1446   27.0372   32.0515 H   0  0  0  0  0  0  0  0  0  0  0  0
   38.0679   26.7420   31.9706 H   0  0  0  0  0  0  0  0  0  0  0  0
   36.4849   25.4943   33.9856 H   0  0  0  0  0  0  0  0  0  0  0  0
   36.4025   29.4277   35.0346 H   0  0  0  0  0  0  0  0  0  0  0  0
   35.3310   28.7955   33.7560 H   0  0  0  0  0  0  0  0  0  0  0  0
  1  6  2  0
  2  1  1  0
  3  2  2  0
  3  4  1  0
  4  5  2  0
  5  6  1  0
  7  3  1  0
  8  7  1  0
  9  8  1  0
 10  9  1  0
 10 11  1  0
 11  7  1  0
 12 13  1  0
 12 16  1  0
 12 10  1  0
 14 15  1  0
 14 13  1  0
 15 16  1  0
 16 17  1  0
 17 18  1  0
 18 19  1  0
 18 20  2  0
  1 21  1  0
  2 22  1  0
  5 23  1  0
  8 24  1  0
  8 25  1  0
  9 26  1  0
  9 27  1  0
 10 28  1  6
 11 29  1  0
 11 30  1  0
 13 31  1  0
 13 32  1  0
 14 33  1  0
 14 34  1  0
 15 35  1  0
 15 36  1  0
 16 37  1  6
 17 38  1  0
 19 39  1  0
 19 40  1  0
M  ISO  8  21  14  22  14  23  14  24  13  25  13  26  13  27  13  28  13
M  ISO  8  29  13  30  13  31  13  32  13  33  13  34  13  35  13  36  13
M  ISO  1  37  13
M  END
>  <minimizedAffinity>  (1) 
-5.16222954

>  <minimizedRMSD>  (1) 
3.1310339

$$$$
