
     RDKit          3D

 43 46  0  0  1  0  0  0  0  0999 V2000
   41.1870   21.6490   37.2460 C   0  0  0  0  0  0  0  0  0  0  0  0
   40.9530   22.7920   36.4680 C   0  0  0  0  0  0  0  0  0  0  0  0
   41.9250   23.2950   35.6300 C   0  0  0  0  0  0  0  0  0  0  0  0
   43.0960   22.6240   35.6100 N   0  0  0  0  0  0  0  0  0  0  0  0
   43.3470   21.5230   36.3460 C   0  0  0  0  0  0  0  0  0  0  0  0
   42.3980   21.0360   37.1620 N   0  0  0  0  0  0  0  0  0  0  0  0
   41.7410   24.4120   34.8350 N   0  0  0  0  0  0  0  0  0  0  0  0
   42.4640   25.7020   34.8320 C   0  0  0  0  0  0  0  0  0  0  0  0
   41.2600   26.6110   34.5810 C   0  0  0  0  0  0  0  0  0  0  0  0
   40.5960   25.9510   33.4720 C   0  0  1  0  0  0  0  0  0  0  0  0
   40.7570   24.5210   33.7760 C   0  0  0  0  0  0  0  0  0  0  0  0
   39.1820   26.1580   33.4530 N   0  0  0  0  0  0  0  0  0  0  0  0
   38.4700   25.8110   32.3800 C   0  0  0  0  0  0  0  0  0  0  0  0
   37.0410   26.1120   32.8560 C   0  0  0  0  0  0  0  0  0  0  0  0
   37.1460   26.1850   34.3560 C   0  0  0  0  0  0  0  0  0  0  0  0
   38.6080   25.8190   34.6860 C   0  0  1  0  0  0  0  0  0  0  0  0
   38.5070   24.4500   35.0180 N   0  0  0  0  0  0  0  0  0  0  0  0
   38.1430   24.1720   36.3960 C   0  0  0  0  0  0  0  0  0  0  0  0
   38.3370   25.0660   37.4500 C   0  0  0  0  0  0  0  0  0  0  0  0
   37.8910   24.5160   38.6430 C   0  0  0  0  0  0  0  0  0  0  0  0
   37.4390   23.2930   38.2570 C   0  0  0  0  0  0  0  0  0  0  0  0
   37.5870   23.1050   36.9700 O   0  0  0  0  0  0  0  0  0  0  0  0
   40.4052   21.2554   37.9122 H   0  0  0  0  0  0  0  0  0  0  0  0
   39.9770   23.2959   36.5275 H   0  0  0  0  0  0  0  0  0  0  0  0
   44.3256   21.0252   36.2785 H   0  0  0  0  0  0  0  0  0  0  0  0
   42.9512   25.9103   35.7960 H   0  0  0  0  0  0  0  0  0  0  0  0
   43.2965   25.7905   34.1184 H   0  0  0  0  0  0  0  0  0  0  0  0
   40.6065   26.6586   35.4645 H   0  0  0  0  0  0  0  0  0  0  0  0
   41.5344   27.6551   34.3700 H   0  0  0  0  0  0  0  0  0  0  0  0
   41.0142   26.3200   32.5239 H   0  0  0  0  0  0  0  0  0  0  0  0
   39.7981   24.0968   34.1084 H   0  0  0  0  0  0  0  0  0  0  0  0
   41.0840   23.9681   32.8830 H   0  0  0  0  0  0  0  0  0  0  0  0
   38.7392   26.4197   31.5042 H   0  0  0  0  0  0  0  0  0  0  0  0
   38.6261   24.7725   32.0526 H   0  0  0  0  0  0  0  0  0  0  0  0
   36.6886   27.0694   32.4446 H   0  0  0  0  0  0  0  0  0  0  0  0
   36.3223   25.3476   32.5255 H   0  0  0  0  0  0  0  0  0  0  0  0
   36.9153   27.2012   34.7084 H   0  0  0  0  0  0  0  0  0  0  0  0
   36.4345   25.5056   34.8481 H   0  0  0  0  0  0  0  0  0  0  0  0
   39.1854   26.2833   35.4991 H   0  0  0  0  0  0  0  0  0  0  0  0
   38.6793   23.7018   34.3314 H   0  0  0  0  0  0  0  0  0  0  0  0
   38.7815   26.0671   37.3489 H   0  0  0  0  0  0  0  0  0  0  0  0
   37.9006   24.9588   39.6499 H   0  0  0  0  0  0  0  0  0  0  0  0
   37.0022   22.5520   38.9426 H   0  0  0  0  0  0  0  0  0  0  0  0
  2  1  2  0
  3  2  1  0
  4  3  2  0
  4  5  1  0
  5  6  2  0
  6  1  1  0
  7  3  1  0
  8  7  1  0
  9  8  1  0
 10 11  1  0
 10  9  1  0
 11  7  1  0
 12 13  1  0
 12 10  1  0
 12 16  1  0
 13 14  1  0
 14 15  1  0
 15 16  1  0
 16 17  1  0
 17 18  1  0
 18 22  1  0
 18 19  2  0
 19 20  1  0
 21 20  2  0
 22 21  1  0
  1 23  1  0
  2 24  1  0
  5 25  1  0
  8 26  1  0
  8 27  1  0
  9 28  1  0
  9 29  1  0
 10 30  1  6
 11 31  1  0
 11 32  1  0
 13 33  1  0
 13 34  1  0
 14 35  1  0
 14 36  1  0
 15 37  1  0
 15 38  1  0
 16 39  1  1
 17 40  1  0
 19 41  1  0
 20 42  1  0
 21 43  1  0
M  ISO  8  23  14  24  14  25  14  26  13  27  13  28  13  29  13  30  13
M  ISO  8  31  13  32  13  33  13  34  13  35  13  36  13  37  13  38  13
M  ISO  4  39  13  41  14  42  14  43  14
M  END
>  <minimizedAffinity>  (1) 
-4.73891783

>  <minimizedRMSD>  (1) 
1.88962841

$$$$
