
     RDKit          3D

 44 47  0  0  1  0  0  0  0  0999 V2000
   40.3070   22.2970   37.5670 C   0  0  0  0  0  0  0  0  0  0  0  0
   40.2770   23.3460   36.6380 C   0  0  0  0  0  0  0  0  0  0  0  0
   41.3260   23.5560   35.7670 C   0  0  0  0  0  0  0  0  0  0  0  0
   42.3570   22.7020   35.8710 N   0  0  0  0  0  0  0  0  0  0  0  0
   42.4200   21.6870   36.7480 C   0  0  0  0  0  0  0  0  0  0  0  0
   41.3950   21.4820   37.5970 N   0  0  0  0  0  0  0  0  0  0  0  0
   41.3390   24.5700   34.8230 N   0  0  0  0  0  0  0  0  0  0  0  0
   42.2730   25.7050   34.6630 C   0  0  0  0  0  0  0  0  0  0  0  0
   41.2480   26.7600   34.2630 C   0  0  0  0  0  0  0  0  0  0  0  0
   40.4810   26.0730   33.2340 C   0  0  1  0  0  0  0  0  0  0  0  0
   40.3940   24.7010   33.7320 C   0  0  0  0  0  0  0  0  0  0  0  0
   39.1210   26.5230   33.1540 N   0  0  0  0  0  0  0  0  0  0  0  0
   38.7830   27.4490   32.2550 C   0  0  0  0  0  0  0  0  0  0  0  0
   37.2600   27.5260   32.4680 C   0  0  0  0  0  0  0  0  0  0  0  0
   36.9050   26.2450   33.1790 C   0  0  0  0  0  0  0  0  0  0  0  0
   38.2240   25.4520   33.2730 C   0  0  1  0  0  0  0  0  0  0  0  0
   38.1150   24.5600   32.1770 N   0  0  0  0  0  0  0  0  0  0  0  0
   37.2810   23.3850   32.1970 C   0  0  0  0  0  0  0  0  0  0  0  0
   37.4280   22.4860   33.2400 C   0  0  0  0  0  0  0  0  0  0  0  0
   36.6030   21.3850   33.1940 C   0  0  0  0  0  0  0  0  0  0  0  0
   35.6910   21.1310   32.2270 N   0  0  0  0  0  0  0  0  0  0  0  0
   35.5970   22.0570   31.2240 C   0  0  0  0  0  0  0  0  0  0  0  0
   36.3860   23.1370   31.2440 N   0  0  0  0  0  0  0  0  0  0  0  0
   39.4667   22.1361   38.2584 H   0  0  0  0  0  0  0  0  0  0  0  0
   39.4028   24.0127   36.6028 H   0  0  0  0  0  0  0  0  0  0  0  0
   43.3011   21.0289   36.7727 H   0  0  0  0  0  0  0  0  0  0  0  0
   42.7880   25.9577   35.6016 H   0  0  0  0  0  0  0  0  0  0  0  0
   43.1085   25.5509   33.9643 H   0  0  0  0  0  0  0  0  0  0  0  0
   40.6108   27.0395   35.1150 H   0  0  0  0  0  0  0  0  0  0  0  0
   41.6978   27.7037   33.9207 H   0  0  0  0  0  0  0  0  0  0  0  0
   40.9561   26.2240   32.2535 H   0  0  0  0  0  0  0  0  0  0  0  0
   39.3749   24.4965   34.0919 H   0  0  0  0  0  0  0  0  0  0  0  0
   40.6268   23.9838   32.9311 H   0  0  0  0  0  0  0  0  0  0  0  0
   39.2693   28.4128   32.4659 H   0  0  0  0  0  0  0  0  0  0  0  0
   39.0845   27.2107   31.2243 H   0  0  0  0  0  0  0  0  0  0  0  0
   36.9988   28.3975   33.0863 H   0  0  0  0  0  0  0  0  0  0  0  0
   36.7135   27.6398   31.5201 H   0  0  0  0  0  0  0  0  0  0  0  0
   36.5115   26.4585   34.1838 H   0  0  0  0  0  0  0  0  0  0  0  0
   36.1256   25.6821   32.6445 H   0  0  0  0  0  0  0  0  0  0  0  0
   38.5009   24.8381   34.1427 H   0  0  0  0  0  0  0  0  0  0  0  0
   38.6580   24.7613   31.3252 H   0  0  0  0  0  0  0  0  0  0  0  0
   38.1551   22.6412   34.0507 H   0  0  0  0  0  0  0  0  0  0  0  0
   36.6923   20.6522   34.0095 H   0  0  0  0  0  0  0  0  0  0  0  0
   34.8763   21.9140   30.4054 H   0  0  0  0  0  0  0  0  0  0  0  0
  1  6  2  0
  2  1  1  0
  3  4  1  0
  3  2  2  0
  4  5  2  0
  5  6  1  0
  7  3  1  0
  8  7  1  0
  9  8  1  0
 10 11  1  0
 10  9  1  0
 11  7  1  0
 12 13  1  0
 12 10  1  0
 12 16  1  0
 13 14  1  0
 14 15  1  0
 15 16  1  0
 17 18  1  0
 17 16  1  0
 18 19  2  0
 20 19  1  0
 21 20  2  0
 22 23  2  0
 22 21  1  0
 23 18  1  0
  1 24  1  0
  2 25  1  0
  5 26  1  0
  8 27  1  0
  8 28  1  0
  9 29  1  0
  9 30  1  0
 10 31  1  6
 11 32  1  0
 11 33  1  0
 13 34  1  0
 13 35  1  0
 14 36  1  0
 14 37  1  0
 15 38  1  0
 15 39  1  0
 16 40  1  1
 17 41  1  0
 19 42  1  0
 20 43  1  0
 22 44  1  0
M  ISO  8  24  14  25  14  26  14  27  13  28  13  29  13  30  13  31  13
M  ISO  8  32  13  33  13  34  13  35  13  36  13  37  13  38  13  39  13
M  ISO  4  40  13  42  14  43  14  44  14
M  END
>  <minimizedAffinity>  (1) 
-4.71542215

>  <minimizedRMSD>  (1) 
4.42016077

$$$$
