
     RDKit          3D

 44 47  0  0  1  0  0  0  0  0999 V2000
   39.9430   22.5390   37.4970 C   0  0  0  0  0  0  0  0  0  0  0  0
   39.9350   23.5510   36.5270 C   0  0  0  0  0  0  0  0  0  0  0  0
   41.0170   23.7530   35.6950 C   0  0  0  0  0  0  0  0  0  0  0  0
   42.0690   22.9280   35.8710 N   0  0  0  0  0  0  0  0  0  0  0  0
   42.1030   21.9460   36.7980 C   0  0  0  0  0  0  0  0  0  0  0  0
   41.0470   21.7510   37.6080 N   0  0  0  0  0  0  0  0  0  0  0  0
   41.0540   24.7310   34.7190 N   0  0  0  0  0  0  0  0  0  0  0  0
   41.9720   25.8800   34.5520 C   0  0  0  0  0  0  0  0  0  0  0  0
   40.9420   26.9020   34.0690 C   0  0  0  0  0  0  0  0  0  0  0  0
   40.2340   26.1600   33.0380 C   0  0  1  0  0  0  0  0  0  0  0  0
   40.1500   24.8020   33.5880 C   0  0  0  0  0  0  0  0  0  0  0  0
   38.8710   26.5730   32.8780 N   0  0  0  0  0  0  0  0  0  0  0  0
   38.5570   27.5130   31.9840 C   0  0  0  0  0  0  0  0  0  0  0  0
   37.0250   27.5330   32.1070 C   0  0  0  0  0  0  0  0  0  0  0  0
   36.6750   26.2220   32.7450 C   0  0  0  0  0  0  0  0  0  0  0  0
   38.0080   25.4670   32.8980 C   0  0  1  0  0  0  0  0  0  0  0  0
   38.0020   24.6040   31.7840 N   0  0  0  0  0  0  0  0  0  0  0  0
   37.2050   23.4240   31.9330 C   0  0  0  0  0  0  0  0  0  0  0  0
   37.3410   22.5760   33.0160 C   0  0  0  0  0  0  0  0  0  0  0  0
   36.6120   21.4250   33.2130 C   0  0  0  0  0  0  0  0  0  0  0  0
   35.6940   21.1250   32.2530 N   0  0  0  0  0  0  0  0  0  0  0  0
   35.5350   21.9380   31.1750 C   0  0  0  0  0  0  0  0  0  0  0  0
   36.2660   23.0480   31.0240 N   0  0  0  0  0  0  0  0  0  0  0  0
   39.0749   22.3850   38.1548 H   0  0  0  0  0  0  0  0  0  0  0  0
   39.0496   24.1961   36.4273 H   0  0  0  0  0  0  0  0  0  0  0  0
   42.9933   21.3065   36.8903 H   0  0  0  0  0  0  0  0  0  0  0  0
   42.4434   26.1787   35.4999 H   0  0  0  0  0  0  0  0  0  0  0  0
   42.8375   25.7164   33.8931 H   0  0  0  0  0  0  0  0  0  0  0  0
   40.2642   27.2003   34.8824 H   0  0  0  0  0  0  0  0  0  0  0  0
   41.3869   27.8419   33.7102 H   0  0  0  0  0  0  0  0  0  0  0  0
   40.7505   26.2857   32.0750 H   0  0  0  0  0  0  0  0  0  0  0  0
   39.1211   24.5932   33.9164 H   0  0  0  0  0  0  0  0  0  0  0  0
   40.4256   24.0585   32.8256 H   0  0  0  0  0  0  0  0  0  0  0  0
   38.9965   28.4859   32.2492 H   0  0  0  0  0  0  0  0  0  0  0  0
   38.9282   27.3149   30.9677 H   0  0  0  0  0  0  0  0  0  0  0  0
   36.6979   28.3714   32.7396 H   0  0  0  0  0  0  0  0  0  0  0  0
   36.5318   27.6655   31.1327 H   0  0  0  0  0  0  0  0  0  0  0  0
   36.2112   26.3855   33.7289 H   0  0  0  0  0  0  0  0  0  0  0  0
   35.9530   25.6545   32.1394 H   0  0  0  0  0  0  0  0  0  0  0  0
   38.2515   24.8306   33.7616 H   0  0  0  0  0  0  0  0  0  0  0  0
   38.5325   24.8074   30.9249 H   0  0  0  0  0  0  0  0  0  0  0  0
   38.0885   22.8410   33.7783 H   0  0  0  0  0  0  0  0  0  0  0  0
   36.7623   20.7848   34.0948 H   0  0  0  0  0  0  0  0  0  0  0  0
   34.7887   21.6772   30.4101 H   0  0  0  0  0  0  0  0  0  0  0  0
  1  6  2  0
  2  1  1  0
  3  4  1  0
  3  2  2  0
  4  5  2  0
  5  6  1  0
  7  3  1  0
  8  7  1  0
  9  8  1  0
 10 11  1  0
 10  9  1  0
 11  7  1  0
 12 13  1  0
 12 16  1  0
 12 10  1  0
 13 14  1  0
 14 15  1  0
 15 16  1  0
 17 18  1  0
 17 16  1  0
 18 19  2  0
 19 20  1  0
 21 20  2  0
 22 21  1  0
 23 22  2  0
 23 18  1  0
  1 24  1  0
  2 25  1  0
  5 26  1  0
  8 27  1  0
  8 28  1  0
  9 29  1  0
  9 30  1  0
 10 31  1  6
 11 32  1  0
 11 33  1  0
 13 34  1  0
 13 35  1  0
 14 36  1  0
 14 37  1  0
 15 38  1  0
 15 39  1  0
 16 40  1  1
 17 41  1  0
 19 42  1  0
 20 43  1  0
 22 44  1  0
M  ISO  8  24  14  25  14  26  14  27  13  28  13  29  13  30  13  31  13
M  ISO  8  32  13  33  13  34  13  35  13  36  13  37  13  38  13  39  13
M  ISO  4  40  13  42  14  43  14  44  14
M  END
>  <minimizedAffinity>  (1) 
-4.73747778

>  <minimizedRMSD>  (1) 
4.54762077

$$$$
