
     RDKit          3D

 49 52  0  0  1  0  0  0  0  0999 V2000
   40.3060   22.2820   37.5480 C   0  0  0  0  0  0  0  0  0  0  0  0
   40.2450   23.3370   36.6260 C   0  0  0  0  0  0  0  0  0  0  0  0
   41.3300   23.5570   35.7570 C   0  0  0  0  0  0  0  0  0  0  0  0
   42.3830   22.7270   35.8590 N   0  0  0  0  0  0  0  0  0  0  0  0
   42.4330   21.7080   36.7520 C   0  0  0  0  0  0  0  0  0  0  0  0
   41.3890   21.4880   37.6000 N   0  0  0  0  0  0  0  0  0  0  0  0
   41.3450   24.5840   34.8040 N   0  0  0  0  0  0  0  0  0  0  0  0
   42.2510   25.7060   34.6300 C   0  0  0  0  0  0  0  0  0  0  0  0
   41.2080   26.7780   34.2640 C   0  0  0  0  0  0  0  0  0  0  0  0
   40.4610   26.0920   33.2230 C   0  0  1  0  0  0  0  0  0  0  0  0
   40.3700   24.7000   33.7400 C   0  0  0  0  0  0  0  0  0  0  0  0
   39.1080   26.5280   33.1500 N   0  0  0  0  0  0  0  0  0  0  0  0
   38.7720   27.4730   32.2620 C   0  0  0  0  0  0  0  0  0  0  0  0
   37.2540   27.5490   32.4470 C   0  0  0  0  0  0  0  0  0  0  0  0
   36.9000   26.2690   33.1880 C   0  0  0  0  0  0  0  0  0  0  0  0
   38.1810   25.4640   33.2090 C   0  0  1  0  0  0  0  0  0  0  0  0
   38.1150   24.5630   32.1550 N   0  0  0  0  0  0  0  0  0  0  0  0
   36.9820   23.6800   32.2300 C   0  0  0  0  0  0  0  0  0  0  0  0
   37.2170   22.4260   33.0520 C   0  0  0  0  0  0  0  0  0  0  0  0
   36.0250   21.5600   32.6100 C   0  0  0  0  0  0  0  0  0  0  0  0
   35.5890   22.0880   31.2670 C   0  0  0  0  0  0  0  0  0  0  0  0
   36.7630   22.9860   30.8600 C   0  0  0  0  0  0  0  0  0  0  0  0
   39.4632   22.1035   38.2320 H   0  0  0  0  0  0  0  0  0  0  0  0
   39.3580   23.9861   36.5825 H   0  0  0  0  0  0  0  0  0  0  0  0
   43.3187   21.0570   36.7922 H   0  0  0  0  0  0  0  0  0  0  0  0
   42.7915   25.9512   35.5562 H   0  0  0  0  0  0  0  0  0  0  0  0
   43.0636   25.5588   33.9034 H   0  0  0  0  0  0  0  0  0  0  0  0
   40.5677   27.0288   35.1226 H   0  0  0  0  0  0  0  0  0  0  0  0
   41.6374   27.7422   33.9544 H   0  0  0  0  0  0  0  0  0  0  0  0
   40.9416   26.2440   32.2453 H   0  0  0  0  0  0  0  0  0  0  0  0
   39.3597   24.5060   34.1294 H   0  0  0  0  0  0  0  0  0  0  0  0
   40.5679   23.9691   32.9421 H   0  0  0  0  0  0  0  0  0  0  0  0
   39.2531   28.4337   32.4978 H   0  0  0  0  0  0  0  0  0  0  0  0
   39.0851   27.2484   31.2317 H   0  0  0  0  0  0  0  0  0  0  0  0
   36.9779   28.4323   33.0416 H   0  0  0  0  0  0  0  0  0  0  0  0
   36.7187   27.6421   31.4906 H   0  0  0  0  0  0  0  0  0  0  0  0
   36.5676   26.4941   34.2121 H   0  0  0  0  0  0  0  0  0  0  0  0
   36.0766   25.7242   32.7031 H   0  0  0  0  0  0  0  0  0  0  0  0
   38.4276   24.8043   34.0539 H   0  0  0  0  0  0  0  0  0  0  0  0
   38.9735   23.9939   32.1574 H   0  0  0  0  0  0  0  0  0  0  0  0
   36.1880   24.3337   32.6201 H   0  0  0  0  0  0  0  0  0  0  0  0
   38.1769   21.9515   32.8001 H   0  0  0  0  0  0  0  0  0  0  0  0
   37.2756   22.5984   34.1368 H   0  0  0  0  0  0  0  0  0  0  0  0
   36.3313   20.5071   32.5234 H   0  0  0  0  0  0  0  0  0  0  0  0
   35.2052   21.6072   33.3419 H   0  0  0  0  0  0  0  0  0  0  0  0
   35.4474   21.2694   30.5460 H   0  0  0  0  0  0  0  0  0  0  0  0
   34.6252   22.6173   31.2983 H   0  0  0  0  0  0  0  0  0  0  0  0
   37.6413   22.4058   30.5408 H   0  0  0  0  0  0  0  0  0  0  0  0
   36.5892   23.6517   30.0017 H   0  0  0  0  0  0  0  0  0  0  0  0
  1  6  2  0
  2  1  1  0
  3  4  1  0
  3  2  2  0
  4  5  2  0
  5  6  1  0
  7  3  1  0
  8  7  1  0
  9  8  1  0
 10 11  1  0
 10  9  1  0
 11  7  1  0
 12 13  1  0
 12 16  1  0
 12 10  1  0
 13 14  1  0
 14 15  1  0
 15 16  1  0
 17 18  1  0
 17 16  1  0
 18 19  1  0
 20 19  1  0
 21 20  1  0
 22 21  1  0
 22 18  1  0
  1 23  1  0
  2 24  1  0
  5 25  1  0
  8 26  1  0
  8 27  1  0
  9 28  1  0
  9 29  1  0
 10 30  1  6
 11 31  1  0
 11 32  1  0
 13 33  1  0
 13 34  1  0
 14 35  1  0
 14 36  1  0
 15 37  1  0
 15 38  1  0
 16 39  1  1
 17 40  1  0
 18 41  1  0
 19 42  1  0
 19 43  1  0
 20 44  1  0
 20 45  1  0
 21 46  1  0
 21 47  1  0
 22 48  1  0
 22 49  1  0
M  ISO  8  23  14  24  14  25  14  26  13  27  13  28  13  29  13  30  13
M  ISO  8  31  13  32  13  33  13  34  13  35  13  36  13  37  13  38  13
M  ISO  8  39  13  40   5  41  13  42  13  43  13  44  13  45  13  46  13
M  ISO  3  47  13  48  13  49  13
M  END
>  <minimizedAffinity>  (1) 
-4.68727732

>  <minimizedRMSD>  (1) 
3.97606659

$$$$
