
     RDKit          3D

 49 52  0  0  1  0  0  0  0  0999 V2000
   37.5130   27.6330   32.6840 N   0  0  0  0  0  0  0  0  0  0  0  0
   36.2200   27.9280   32.6370 C   0  0  0  0  0  0  0  0  0  0  0  0
   35.9980   28.5120   34.0480 C   0  0  0  0  0  0  0  0  0  0  0  0
   37.2030   28.0560   34.8490 C   0  0  0  0  0  0  0  0  0  0  0  0
   37.9520   27.1370   33.8970 C   0  0  1  0  0  0  0  0  0  0  0  0
   37.8840   24.6860   31.0370 N   0  0  0  0  0  0  0  0  0  0  0  0
   39.3030   25.0700   30.8980 C   0  0  0  0  0  0  0  0  0  0  0  0
   39.3000   26.2360   31.9100 C   0  0  0  0  0  0  0  0  0  0  0  0
   38.1210   26.9450   31.5900 C   0  0  1  0  0  0  0  0  0  0  0  0
   37.1390   25.9110   31.2060 C   0  0  0  0  0  0  0  0  0  0  0  0
   35.4450   21.9090   31.2710 C   0  0  0  0  0  0  0  0  0  0  0  0
   35.9750   23.2070   31.3110 C   0  0  0  0  0  0  0  0  0  0  0  0
   37.3060   23.4190   31.0140 C   0  0  0  0  0  0  0  0  0  0  0  0
   38.0340   22.3430   30.6950 N   0  0  0  0  0  0  0  0  0  0  0  0
   37.5250   21.0860   30.6530 C   0  0  0  0  0  0  0  0  0  0  0  0
   36.2410   20.8740   30.9390 N   0  0  0  0  0  0  0  0  0  0  0  0
   37.5950   25.8280   34.2790 N   0  0  0  0  0  0  0  0  0  0  0  0
   37.4950   25.7630   35.7090 C   0  0  0  0  0  0  0  0  0  0  0  0
   38.3610   24.7100   36.3150 C   0  0  0  0  0  0  0  0  0  0  0  0
   38.0390   24.3320   37.6210 C   0  0  0  0  0  0  0  0  0  0  0  0
   38.7110   23.3980   38.3560 C   0  0  0  0  0  0  0  0  0  0  0  0
   39.7860   22.7760   37.7740 C   0  0  0  0  0  0  0  0  0  0  0  0
   40.1310   23.1170   36.5040 C   0  0  0  0  0  0  0  0  0  0  0  0
   39.4520   24.0550   35.7740 C   0  0  0  0  0  0  0  0  0  0  0  0
   36.0034   28.6700   31.8543 H   0  0  0  0  0  0  0  0  0  0  0  0
   35.5696   27.0753   32.3924 H   0  0  0  0  0  0  0  0  0  0  0  0
   35.9508   29.6103   34.0100 H   0  0  0  0  0  0  0  0  0  0  0  0
   35.0507   28.1740   34.4934 H   0  0  0  0  0  0  0  0  0  0  0  0
   37.8283   28.9139   35.1371 H   0  0  0  0  0  0  0  0  0  0  0  0
   36.9224   27.5553   35.7874 H   0  0  0  0  0  0  0  0  0  0  0  0
   39.0512   27.1012   33.8769 H   0  0  0  0  0  0  0  0  0  0  0  0
   39.9863   24.2606   31.1946 H   0  0  0  0  0  0  0  0  0  0  0  0
   39.6443   25.3103   29.8803 H   0  0  0  0  0  0  0  0  0  0  0  0
   39.2650   25.8602   32.9432 H   0  0  0  0  0  0  0  0  0  0  0  0
   40.2048   26.8586   31.8501 H   0  0  0  0  0  0  0  0  0  0  0  0
   38.3869   27.6934   30.8290 H   0  0  0  0  0  0  0  0  0  0  0  0
   36.6432   26.1880   30.2640 H   0  0  0  0  0  0  0  0  0  0  0  0
   36.3562   25.8001   31.9708 H   0  0  0  0  0  0  0  0  0  0  0  0
   34.3850   21.7370   31.5094 H   0  0  0  0  0  0  0  0  0  0  0  0
   35.3295   24.0564   31.5792 H   0  0  0  0  0  0  0  0  0  0  0  0
   38.1738   20.2400   30.3822 H   0  0  0  0  0  0  0  0  0  0  0  0
   36.6872   25.5823   33.8589 H   0  0  0  0  0  0  0  0  0  0  0  0
   37.7893   26.7383   36.1240 H   0  0  0  0  0  0  0  0  0  0  0  0
   36.4531   25.5063   35.9509 H   0  0  0  0  0  0  0  0  0  0  0  0
   37.1770   24.8253   38.0938 H   0  0  0  0  0  0  0  0  0  0  0  0
   38.4002   23.1522   39.3821 H   0  0  0  0  0  0  0  0  0  0  0  0
   40.3585   22.0152   38.3248 H   0  0  0  0  0  0  0  0  0  0  0  0
   40.9948   22.6165   36.0421 H   0  0  0  0  0  0  0  0  0  0  0  0
   39.7767   24.2894   34.7495 H   0  0  0  0  0  0  0  0  0  0  0  0
  1  2  1  0
  1  5  1  0
  2  3  1  0
  3  4  1  0
  5 17  1  0
  5  4  1  0
  6 10  1  0
  7  6  1  0
  7  8  1  0
  9  8  1  0
  9  1  1  0
 10  9  1  0
 11 12  2  0
 13  6  1  0
 13 12  1  0
 14 13  2  0
 15 14  1  0
 15 16  2  0
 16 11  1  0
 17 18  1  0
 18 19  1  0
 19 20  2  0
 20 21  1  0
 22 21  2  0
 23 22  1  0
 24 19  1  0
 24 23  2  0
  2 25  1  0
  2 26  1  0
  3 27  1  0
  3 28  1  0
  4 29  1  0
  4 30  1  0
  5 31  1  6
  7 32  1  0
  7 33  1  0
  8 34  1  0
  8 35  1  0
  9 36  1  6
 10 37  1  0
 10 38  1  0
 11 39  1  0
 12 40  1  0
 15 41  1  0
 17 42  1  0
 18 43  1  0
 18 44  1  0
 20 45  1  0
 21 46  1  0
 22 47  1  0
 23 48  1  0
 24 49  1  0
M  ISO  8  25  13  26  13  27  13  28  13  29  13  30  13  31  13  32  13
M  ISO  8  33  13  34  13  35  13  36  13  37  13  38  13  39  14  40  14
M  ISO  8  41  14  42   5  43   8  44   8  45  14  46  14  47  14  48  14
M  ISO  1  49  14
M  END
>  <minimizedAffinity>  (1) 
-5.56492472

>  <minimizedRMSD>  (1) 
4.53332043

$$$$
