
     RDKit          3D

 52 55  0  0  1  0  0  0  0  0999 V2000
   37.6550   25.8630   31.8760 N   0  0  0  0  0  0  0  0  0  0  0  0
   36.7960   24.8440   31.9520 C   0  0  0  0  0  0  0  0  0  0  0  0
   35.5520   25.4180   31.2550 C   0  0  0  0  0  0  0  0  0  0  0  0
   35.8170   26.9160   31.2110 C   0  0  0  0  0  0  0  0  0  0  0  0
   37.0570   27.1130   32.0460 C   0  0  1  0  0  0  0  0  0  0  0  0
   39.3320   25.1400   34.7430 N   0  0  0  0  0  0  0  0  0  0  0  0
   40.1480   26.3120   34.4220 C   0  0  0  0  0  0  0  0  0  0  0  0
   39.2350   26.9210   33.3340 C   0  0  0  0  0  0  0  0  0  0  0  0
   38.9150   25.8000   32.5410 C   0  0  1  0  0  0  0  0  0  0  0  0
   38.7700   24.6790   33.4830 C   0  0  0  0  0  0  0  0  0  0  0  0
   37.8840   24.2780   38.0440 C   0  0  0  0  0  0  0  0  0  0  0  0
   38.0860   24.9410   36.8240 C   0  0  0  0  0  0  0  0  0  0  0  0
   39.0920   24.5240   35.9670 C   0  0  0  0  0  0  0  0  0  0  0  0
   39.8370   23.4870   36.3590 N   0  0  0  0  0  0  0  0  0  0  0  0
   39.6540   22.8380   37.5350 C   0  0  0  0  0  0  0  0  0  0  0  0
   38.6730   23.2350   38.3790 N   0  0  0  0  0  0  0  0  0  0  0  0
   36.6260   27.5100   33.3230 N   0  0  0  0  0  0  0  0  0  0  0  0
   36.0560   28.8290   33.2500 C   0  0  0  0  0  0  0  0  0  0  0  0
   35.1950   29.1800   34.3720 N   0  0  0  0  0  0  0  0  0  0  0  0
   33.8960   29.4850   33.7140 C   0  0  0  0  0  0  0  0  0  0  0  0
   32.8670   29.5400   34.7940 C   0  0  0  0  0  0  0  0  0  0  0  0
   33.3340   30.4210   35.7690 O   0  0  0  0  0  0  0  0  0  0  0  0
   34.3440   31.2450   35.2670 C   0  0  0  0  0  0  0  0  0  0  0  0
   35.6040   30.4780   34.9250 C   0  0  0  0  0  0  0  0  0  0  0  0
   37.1782   23.9593   31.4216 H   0  0  0  0  0  0  0  0  0  0  0  0
   36.6079   24.4997   32.9797 H   0  0  0  0  0  0  0  0  0  0  0  0
   35.4484   25.0087   30.2393 H   0  0  0  0  0  0  0  0  0  0  0  0
   34.6179   25.1672   31.7790 H   0  0  0  0  0  0  0  0  0  0  0  0
   35.9895   27.2487   30.1768 H   0  0  0  0  0  0  0  0  0  0  0  0
   34.9648   27.4995   31.5895 H   0  0  0  0  0  0  0  0  0  0  0  0
   37.7926   27.8934   31.8011 H   0  0  0  0  0  0  0  0  0  0  0  0
   40.2713   26.9826   35.2852 H   0  0  0  0  0  0  0  0  0  0  0  0
   41.1864   26.1086   34.1214 H   0  0  0  0  0  0  0  0  0  0  0  0
   38.3315   27.3657   33.7766 H   0  0  0  0  0  0  0  0  0  0  0  0
   39.7103   27.7363   32.7689 H   0  0  0  0  0  0  0  0  0  0  0  0
   39.7004   25.7195   31.7751 H   0  0  0  0  0  0  0  0  0  0  0  0
   37.7082   24.4208   33.6096 H   0  0  0  0  0  0  0  0  0  0  0  0
   39.2833   23.7770   33.1185 H   0  0  0  0  0  0  0  0  0  0  0  0
   37.0854   24.6070   38.7252 H   0  0  0  0  0  0  0  0  0  0  0  0
   37.4458   25.7918   36.5478 H   0  0  0  0  0  0  0  0  0  0  0  0
   40.3016   21.9902   37.8029 H   0  0  0  0  0  0  0  0  0  0  0  0
   35.9157   26.8479   33.6666 H   0  0  0  0  0  0  0  0  0  0  0  0
   36.8796   29.5570   33.2085 H   0  0  0  0  0  0  0  0  0  0  0  0
   35.4207   28.8451   32.3522 H   0  0  0  0  0  0  0  0  0  0  0  0
   33.9525   30.4534   33.1954 H   0  0  0  0  0  0  0  0  0  0  0  0
   33.6429   28.7185   32.9668 H   0  0  0  0  0  0  0  0  0  0  0  0
   31.9121   29.9026   34.3857 H   0  0  0  0  0  0  0  0  0  0  0  0
   32.6982   28.5407   35.2216 H   0  0  0  0  0  0  0  0  0  0  0  0
   33.9749   31.7403   34.3568 H   0  0  0  0  0  0  0  0  0  0  0  0
   34.5996   31.9741   36.0500 H   0  0  0  0  0  0  0  0  0  0  0  0
   36.2088   30.3263   35.8312 H   0  0  0  0  0  0  0  0  0  0  0  0
   36.2109   31.0354   34.1963 H   0  0  0  0  0  0  0  0  0  0  0  0
  1  2  1  0
  1  5  1  0
  1  9  1  0
  3  2  1  0
  4  3  1  0
  4  5  1  0
  5 17  1  0
  6 13  1  0
  7  6  1  0
  8  7  1  0
  9  8  1  0
  9 10  1  0
 10  6  1  0
 11 16  2  0
 12 11  1  0
 13 14  1  0
 13 12  2  0
 14 15  2  0
 15 16  1  0
 18 17  1  0
 18 19  1  0
 19 24  1  0
 20 19  1  0
 20 21  1  0
 21 22  1  0
 23 22  1  0
 24 23  1  0
  2 25  1  0
  2 26  1  0
  3 27  1  0
  3 28  1  0
  4 29  1  0
  4 30  1  0
  5 31  1  6
  7 32  1  0
  7 33  1  0
  8 34  1  0
  8 35  1  0
  9 36  1  6
 10 37  1  0
 10 38  1  0
 11 39  1  0
 12 40  1  0
 15 41  1  0
 17 42  1  0
 18 43  1  0
 18 44  1  0
 20 45  1  0
 20 46  1  0
 21 47  1  0
 21 48  1  0
 23 49  1  0
 23 50  1  0
 24 51  1  0
 24 52  1  0
M  ISO  8  25  13  26  13  27  13  28  13  29  13  30  13  31  13  32  13
M  ISO  8  33  13  34  13  35  13  36  13  37  13  38  13  39  14  40  14
M  ISO  8  41  14  42   5  43   8  44   8  45  13  46  13  47  13  48  13
M  ISO  4  49  13  50  13  51  13  52  13
M  END
>  <minimizedAffinity>  (1) 
-5.23543835

>  <minimizedRMSD>  (1) 
2.72308946

$$$$
