
     RDKit          3D

 47 50  0  0  1  0  0  0  0  0999 V2000
   37.9000   25.2110   32.3710 N   0  0  0  0  0  0  0  0  0  0  0  0
   38.2650   24.9300   31.1290 C   0  0  0  0  0  0  0  0  0  0  0  0
   37.2450   23.8200   30.7610 C   0  0  0  0  0  0  0  0  0  0  0  0
   36.6690   23.3790   32.0960 C   0  0  0  0  0  0  0  0  0  0  0  0
   37.4990   24.1250   33.1220 C   0  0  1  0  0  0  0  0  0  0  0  0
   40.6570   25.6160   34.3260 N   0  0  0  0  0  0  0  0  0  0  0  0
   39.8030   26.4840   35.1500 C   0  0  0  0  0  0  0  0  0  0  0  0
   38.4430   26.0880   34.5420 C   0  0  0  0  0  0  0  0  0  0  0  0
   38.7000   26.1120   33.1530 C   0  0  1  0  0  0  0  0  0  0  0  0
   40.0780   25.6040   33.0020 C   0  0  0  0  0  0  0  0  0  0  0  0
   43.1780   22.9230   34.7020 C   0  0  0  0  0  0  0  0  0  0  0  0
   42.0010   23.5910   34.3360 C   0  0  0  0  0  0  0  0  0  0  0  0
   41.8070   24.9160   34.6750 C   0  0  0  0  0  0  0  0  0  0  0  0
   42.7840   25.5240   35.3600 N   0  0  0  0  0  0  0  0  0  0  0  0
   43.9350   24.8760   35.7200 C   0  0  0  0  0  0  0  0  0  0  0  0
   44.1210   23.5900   35.3910 N   0  0  0  0  0  0  0  0  0  0  0  0
   38.4590   23.1930   33.5720 N   0  0  0  0  0  0  0  0  0  0  0  0
   37.8680   22.3590   34.5860 C   0  0  0  0  0  0  0  0  0  0  0  0
   38.3330   22.6740   35.9570 C   0  0  0  0  0  0  0  0  0  0  0  0
   37.5180   23.3160   36.8980 C   0  0  0  0  0  0  0  0  0  0  0  0
   37.9530   23.6100   38.1740 C   0  0  0  0  0  0  0  0  0  0  0  0
   39.2010   23.2740   38.5380 N   0  0  0  0  0  0  0  0  0  0  0  0
   40.0040   22.6550   37.6520 C   0  0  0  0  0  0  0  0  0  0  0  0
   39.5590   22.3850   36.4320 N   0  0  0  0  0  0  0  0  0  0  0  0
   38.1635   25.8055   30.4708 H   0  0  0  0  0  0  0  0  0  0  0  0
   39.3179   24.6294   31.0242 H   0  0  0  0  0  0  0  0  0  0  0  0
   36.4543   24.2187   30.1085 H   0  0  0  0  0  0  0  0  0  0  0  0
   37.7098   22.9893   30.2097 H   0  0  0  0  0  0  0  0  0  0  0  0
   35.6079   23.6581   32.1747 H   0  0  0  0  0  0  0  0  0  0  0  0
   36.7090   22.2883   32.2332 H   0  0  0  0  0  0  0  0  0  0  0  0
   37.0605   24.5036   34.0571 H   0  0  0  0  0  0  0  0  0  0  0  0
   39.8683   26.2379   36.2201 H   0  0  0  0  0  0  0  0  0  0  0  0
   40.0455   27.5568   35.1320 H   0  0  0  0  0  0  0  0  0  0  0  0
   38.1397   25.0832   34.8712 H   0  0  0  0  0  0  0  0  0  0  0  0
   37.6215   26.7544   34.8436 H   0  0  0  0  0  0  0  0  0  0  0  0
   38.4985   27.1357   32.8045 H   0  0  0  0  0  0  0  0  0  0  0  0
   40.0655   24.5801   32.6001 H   0  0  0  0  0  0  0  0  0  0  0  0
   40.6601   26.2228   32.3033 H   0  0  0  0  0  0  0  0  0  0  0  0
   43.3282   21.8679   34.4294 H   0  0  0  0  0  0  0  0  0  0  0  0
   41.2235   23.0541   33.7727 H   0  0  0  0  0  0  0  0  0  0  0  0
   44.7120   25.4141   36.2828 H   0  0  0  0  0  0  0  0  0  0  0  0
   38.7688   22.6086   32.7824 H   0  0  0  0  0  0  0  0  0  0  0  0
   36.7763   22.4888   34.5505 H   0  0  0  0  0  0  0  0  0  0  0  0
   38.1730   21.3242   34.3713 H   0  0  0  0  0  0  0  0  0  0  0  0
   36.4941   23.5959   36.6093 H   0  0  0  0  0  0  0  0  0  0  0  0
   37.2838   24.1148   38.8862 H   0  0  0  0  0  0  0  0  0  0  0  0
   41.0278   22.3736   37.9396 H   0  0  0  0  0  0  0  0  0  0  0  0
  1  2  1  0
  1  5  1  0
  1  9  1  0
  3  2  1  0
  3  4  1  0
  4  5  1  0
  5 17  1  0
  6 13  1  0
  6  7  1  0
  8  7  1  0
  9  8  1  0
 10  9  1  0
 10  6  1  0
 11 16  2  0
 12 13  2  0
 12 11  1  0
 13 14  1  0
 14 15  2  0
 16 15  1  0
 17 18  1  0
 18 19  1  0
 19 24  1  0
 19 20  2  0
 20 21  1  0
 21 22  2  0
 23 22  1  0
 24 23  2  0
  2 25  1  0
  2 26  1  0
  3 27  1  0
  3 28  1  0
  4 29  1  0
  4 30  1  0
  5 31  1  1
  7 32  1  0
  7 33  1  0
  8 34  1  0
  8 35  1  0
  9 36  1  6
 10 37  1  0
 10 38  1  0
 11 39  1  0
 12 40  1  0
 15 41  1  0
 17 42  1  0
 18 43  1  0
 18 44  1  0
 20 45  1  0
 21 46  1  0
 23 47  1  0
M  ISO  8  25  13  26  13  27  13  28  13  29  13  30  13  31  13  32  13
M  ISO  8  33  13  34  13  35  13  36  13  37  13  38  13  39  14  40  14
M  ISO  7  41  14  42   5  43   8  44   8  45  14  46  14  47  14
M  END
>  <minimizedAffinity>  (1) 
-4.59645033

>  <minimizedRMSD>  (1) 
3.20204997

$$$$
