
     RDKit          3D

 46 49  0  0  1  0  0  0  0  0999 V2000
   38.1720   27.2630   33.3990 N   0  0  0  0  0  0  0  0  0  0  0  0
   37.1150   27.2570   34.2040 C   0  0  0  0  0  0  0  0  0  0  0  0
   37.7790   27.4830   35.5770 C   0  0  0  0  0  0  0  0  0  0  0  0
   39.2310   27.1650   35.3490 C   0  0  0  0  0  0  0  0  0  0  0  0
   39.3060   26.6420   33.9060 C   0  0  1  0  0  0  0  0  0  0  0  0
   37.5910   24.8420   31.0750 N   0  0  0  0  0  0  0  0  0  0  0  0
   38.5990   25.5500   30.2610 C   0  0  0  0  0  0  0  0  0  0  0  0
   39.1660   26.4520   31.3730 C   0  0  0  0  0  0  0  0  0  0  0  0
   38.0090   26.9420   32.0200 C   0  0  1  0  0  0  0  0  0  0  0  0
   37.0550   25.8210   31.9990 C   0  0  0  0  0  0  0  0  0  0  0  0
   35.5050   21.7840   31.2070 C   0  0  0  0  0  0  0  0  0  0  0  0
   35.8760   23.1360   31.2700 C   0  0  0  0  0  0  0  0  0  0  0  0
   37.1770   23.5190   31.0280 C   0  0  0  0  0  0  0  0  0  0  0  0
   38.0520   22.5460   30.7350 N   0  0  0  0  0  0  0  0  0  0  0  0
   37.6960   21.2390   30.6710 C   0  0  0  0  0  0  0  0  0  0  0  0
   36.4380   20.8610   30.9050 N   0  0  0  0  0  0  0  0  0  0  0  0
   39.3210   25.2310   34.0480 N   0  0  0  0  0  0  0  0  0  0  0  0
   40.6730   24.8290   34.3270 C   0  0  0  0  0  0  0  0  0  0  0  0
   40.7300   23.8890   35.4850 C   0  0  0  0  0  0  0  0  0  0  0  0
   41.8890   23.2450   35.9310 C   0  0  0  0  0  0  0  0  0  0  0  0
   41.7630   22.3880   36.9880 C   0  0  0  0  0  0  0  0  0  0  0  0
   40.4650   22.2180   37.5540 C   0  0  0  0  0  0  0  0  0  0  0  0
   39.4080   23.2910   36.5700 S   0  0  0  0  0  0  0  0  0  0  0  0
   36.4157   28.0692   33.9564 H   0  0  0  0  0  0  0  0  0  0  0  0
   36.5075   26.3420   34.1427 H   0  0  0  0  0  0  0  0  0  0  0  0
   37.6557   28.5268   35.9016 H   0  0  0  0  0  0  0  0  0  0  0  0
   37.3327   26.8593   36.3656 H   0  0  0  0  0  0  0  0  0  0  0  0
   39.8468   28.0691   35.4643 H   0  0  0  0  0  0  0  0  0  0  0  0
   39.6099   26.4292   36.0736 H   0  0  0  0  0  0  0  0  0  0  0  0
   40.1545   26.8479   33.2369 H   0  0  0  0  0  0  0  0  0  0  0  0
   39.3573   24.8680   29.8489 H   0  0  0  0  0  0  0  0  0  0  0  0
   38.2245   26.0634   29.3631 H   0  0  0  0  0  0  0  0  0  0  0  0
   39.7907   25.8730   32.0691 H   0  0  0  0  0  0  0  0  0  0  0  0
   39.8138   27.2530   30.9873 H   0  0  0  0  0  0  0  0  0  0  0  0
   37.7110   27.8654   31.5018 H   0  0  0  0  0  0  0  0  0  0  0  0
   36.0690   26.1675   31.6559 H   0  0  0  0  0  0  0  0  0  0  0  0
   36.9245   25.3908   33.0029 H   0  0  0  0  0  0  0  0  0  0  0  0
   34.4654   21.4820   31.4018 H   0  0  0  0  0  0  0  0  0  0  0  0
   35.1207   23.8972   31.5150 H   0  0  0  0  0  0  0  0  0  0  0  0
   38.4537   20.4811   30.4231 H   0  0  0  0  0  0  0  0  0  0  0  0
   38.7053   24.9509   34.8248 H   0  0  0  0  0  0  0  0  0  0  0  0
   41.0891   24.3301   33.4394 H   0  0  0  0  0  0  0  0  0  0  0  0
   41.2577   25.7262   34.5783 H   0  0  0  0  0  0  0  0  0  0  0  0
   42.8626   23.4213   35.4503 H   0  0  0  0  0  0  0  0  0  0  0  0
   42.6333   21.8476   37.3887 H   0  0  0  0  0  0  0  0  0  0  0  0
   40.1759   21.5768   38.3997 H   0  0  0  0  0  0  0  0  0  0  0  0
  1  5  1  0
  1  2  1  0
  2  3  1  0
  4  3  1  0
  5 17  1  0
  5  4  1  0
  6 10  1  0
  7  6  1  0
  7  8  1  0
  8  9  1  0
  9  1  1  0
 10  9  1  0
 11 12  2  0
 13  6  1  0
 13 12  1  0
 14 13  2  0
 15 14  1  0
 15 16  2  0
 16 11  1  0
 17 18  1  0
 18 19  1  0
 19 20  2  0
 19 23  1  0
 20 21  1  0
 21 22  2  0
 23 22  1  0
  2 24  1  0
  2 25  1  0
  3 26  1  0
  3 27  1  0
  4 28  1  0
  4 29  1  0
  5 30  1  6
  7 31  1  0
  7 32  1  0
  8 33  1  0
  8 34  1  0
  9 35  1  6
 10 36  1  0
 10 37  1  0
 11 38  1  0
 12 39  1  0
 15 40  1  0
 17 41  1  0
 18 42  1  0
 18 43  1  0
 20 44  1  0
 21 45  1  0
 22 46  1  0
M  ISO  8  24  13  25  13  26  13  27  13  28  13  29  13  30  13  31  13
M  ISO  8  32  13  33  13  34  13  35  13  36  13  37  13  38  14  39  14
M  ISO  7  40  14  41   5  42   8  43   8  44  14  45  14  46  14
M  END
>  <minimizedAffinity>  (1) 
-4.94698524

>  <minimizedRMSD>  (1) 
5.00871277

$$$$
