
     RDKit          3D

 46 49  0  0  1  0  0  0  0  0999 V2000
   40.0600   23.4350   35.1190 N   0  0  0  0  0  0  0  0  0  0  0  0
   39.5030   22.1100   35.3420 C   0  0  0  0  0  0  0  0  0  0  0  0
   38.6610   22.0060   34.0560 C   0  0  0  0  0  0  0  0  0  0  0  0
   38.0160   23.2570   34.0110 C   0  0  1  0  0  0  0  0  0  0  0  0
   39.0090   24.2210   34.5190 C   0  0  0  0  0  0  0  0  0  0  0  0
   37.6870   23.7210   32.6930 N   0  0  0  0  0  0  0  0  0  0  0  0
   38.6410   23.7770   31.7590 C   0  0  0  0  0  0  0  0  0  0  0  0
   37.8200   24.1360   30.4980 C   0  0  0  0  0  0  0  0  0  0  0  0
   36.3840   23.8390   30.9020 C   0  0  0  0  0  0  0  0  0  0  0  0
   36.4940   23.1660   32.2770 C   0  0  1  0  0  0  0  0  0  0  0  0
   36.4280   21.7850   31.9690 N   0  0  0  0  0  0  0  0  0  0  0  0
   35.2210   21.2670   32.6090 C   0  0  0  0  0  0  0  0  0  0  0  0
   34.8950   19.9040   32.0190 C   0  0  0  0  0  0  0  0  0  0  0  0
   35.3060   18.6980   32.8930 C   0  0  0  0  0  0  0  0  0  0  0  0
   35.9400   18.9790   31.5550 C   0  0  0  0  0  0  0  0  0  0  0  0
   43.1180   25.5280   35.1820 C   0  0  0  0  0  0  0  0  0  0  0  0
   41.8340   25.0880   34.8300 C   0  0  0  0  0  0  0  0  0  0  0  0
   41.3420   23.9340   35.4050 C   0  0  0  0  0  0  0  0  0  0  0  0
   42.1250   23.2840   36.2850 N   0  0  0  0  0  0  0  0  0  0  0  0
   43.3600   23.7100   36.6240 C   0  0  0  0  0  0  0  0  0  0  0  0
   43.8590   24.8410   36.0660 N   0  0  0  0  0  0  0  0  0  0  0  0
   40.2818   21.3348   35.3929 H   0  0  0  0  0  0  0  0  0  0  0  0
   38.9569   21.9709   36.2867 H   0  0  0  0  0  0  0  0  0  0  0  0
   39.3003   21.8566   33.1734 H   0  0  0  0  0  0  0  0  0  0  0  0
   37.9652   21.1540   34.0556 H   0  0  0  0  0  0  0  0  0  0  0  0
   37.0762   23.1646   34.5751 H   0  0  0  0  0  0  0  0  0  0  0  0
   39.4097   24.8271   33.6931 H   0  0  0  0  0  0  0  0  0  0  0  0
   38.5606   24.9139   35.2462 H   0  0  0  0  0  0  0  0  0  0  0  0
   39.3835   24.5551   31.9896 H   0  0  0  0  0  0  0  0  0  0  0  0
   39.2282   22.8518   31.6626 H   0  0  0  0  0  0  0  0  0  0  0  0
   38.1230   23.5138   29.6430 H   0  0  0  0  0  0  0  0  0  0  0  0
   37.9648   25.1788   30.1793 H   0  0  0  0  0  0  0  0  0  0  0  0
   35.8009   24.7691   30.9715 H   0  0  0  0  0  0  0  0  0  0  0  0
   35.8698   23.2013   30.1678 H   0  0  0  0  0  0  0  0  0  0  0  0
   35.7551   23.2990   33.0809 H   0  0  0  0  0  0  0  0  0  0  0  0
   36.3738   21.6513   30.9491 H   0  0  0  0  0  0  0  0  0  0  0  0
   35.3902   21.1696   33.6915 H   0  0  0  0  0  0  0  0  0  0  0  0
   34.3825   21.9576   32.4358 H   0  0  0  0  0  0  0  0  0  0  0  0
   33.9886   20.2945   31.5333 H   0  0  0  0  0  0  0  0  0  0  0  0
   35.8749   18.8520   33.8218 H   0  0  0  0  0  0  0  0  0  0  0  0
   34.7895   17.8471   33.3612 H   0  0  0  0  0  0  0  0  0  0  0  0
   35.7352   18.3103   30.7060 H   0  0  0  0  0  0  0  0  0  0  0  0
   36.9780   19.1094   31.2150 H   0  0  0  0  0  0  0  0  0  0  0  0
   43.5223   26.4454   34.7293 H   0  0  0  0  0  0  0  0  0  0  0  0
   41.2283   25.6539   34.1068 H   0  0  0  0  0  0  0  0  0  0  0  0
   43.9597   23.1419   37.3503 H   0  0  0  0  0  0  0  0  0  0  0  0
  1  2  1  0
  1 18  1  0
  3  2  1  0
  4  3  1  0
  4  5  1  0
  5  1  1  0
  6  7  1  0
  6  4  1  0
  8  9  1  0
  8  7  1  0
  9 10  1  0
 10  6  1  0
 11 10  1  0
 11 12  1  0
 13 12  1  0
 13 14  1  0
 15 13  1  0
 15 14  1  0
 16 21  2  0
 17 16  1  0
 17 18  2  0
 18 19  1  0
 19 20  2  0
 21 20  1  0
  2 22  1  0
  2 23  1  0
  3 24  1  0
  3 25  1  0
  4 26  1  1
  5 27  1  0
  5 28  1  0
  7 29  1  0
  7 30  1  0
  8 31  1  0
  8 32  1  0
  9 33  1  0
  9 34  1  0
 10 35  1  1
 11 36  1  0
 12 37  1  0
 12 38  1  0
 13 39  1  0
 14 40  1  0
 14 41  1  0
 15 42  1  0
 15 43  1  0
 16 44  1  0
 17 45  1  0
 20 46  1  0
M  ISO  8  22  13  23  13  24  13  25  13  26  13  27  13  28  13  29  13
M  ISO  8  30  13  31  13  32  13  33  13  34  13  35  13  36   5  37   8
M  ISO  8  38   8  39  13  40  13  41  13  42  13  43  13  44  14  45  14
M  ISO  1  46  14
M  END
>  <minimizedAffinity>  (1) 
-4.27828598

>  <minimizedRMSD>  (1) 
5.21267843

$$$$
