
     RDKit          3D

 41 43  0  0  1  0  0  0  0  0999 V2000
   41.4190   24.7100   34.6490 N   0  0  0  0  0  0  0  0  0  0  0  0
   42.2470   25.9300   34.6180 C   0  0  0  0  0  0  0  0  0  0  0  0
   41.1600   26.9070   34.1260 C   0  0  0  0  0  0  0  0  0  0  0  0
   40.5440   26.1960   33.0720 C   0  0  1  0  0  0  0  0  0  0  0  0
   40.5280   24.7860   33.5060 C   0  0  0  0  0  0  0  0  0  0  0  0
   39.1690   26.5110   32.8480 N   0  0  0  0  0  0  0  0  0  0  0  0
   38.4270   25.7200   32.0840 C   0  0  0  0  0  0  0  0  0  0  0  0
   37.0230   26.3270   32.2720 C   0  0  0  0  0  0  0  0  0  0  0  0
   37.1660   27.2340   33.4920 C   0  0  0  0  0  0  0  0  0  0  0  0
   38.5730   26.9310   34.0240 C   0  0  1  0  0  0  0  0  0  0  0  0
   38.3630   26.0030   35.0610 N   0  0  0  0  0  0  0  0  0  0  0  0
   38.3000   26.7200   36.3130 C   0  0  0  0  0  0  0  0  0  0  0  0
   38.0650   25.6940   37.3470 N   0  0  0  0  0  0  0  0  0  0  0  0
   40.3780   22.1770   37.1370 C   0  0  0  0  0  0  0  0  0  0  0  0
   40.3040   23.2540   36.2410 C   0  0  0  0  0  0  0  0  0  0  0  0
   41.4320   23.6540   35.5550 C   0  0  0  0  0  0  0  0  0  0  0  0
   42.5750   22.9810   35.7790 N   0  0  0  0  0  0  0  0  0  0  0  0
   42.6350   21.9320   36.6570 C   0  0  0  0  0  0  0  0  0  0  0  0
   41.5390   21.5350   37.3290 N   0  0  0  0  0  0  0  0  0  0  0  0
   42.6313   26.1993   35.6129 H   0  0  0  0  0  0  0  0  0  0  0  0
   43.1635   25.8789   34.0119 H   0  0  0  0  0  0  0  0  0  0  0  0
   40.4388   27.1308   34.9259 H   0  0  0  0  0  0  0  0  0  0  0  0
   41.5637   27.8811   33.8127 H   0  0  0  0  0  0  0  0  0  0  0  0
   41.1019   26.4367   32.1551 H   0  0  0  0  0  0  0  0  0  0  0  0
   39.5097   24.4862   33.7944 H   0  0  0  0  0  0  0  0  0  0  0  0
   40.8496   24.1119   32.6985 H   0  0  0  0  0  0  0  0  0  0  0  0
   38.7455   25.7655   31.0321 H   0  0  0  0  0  0  0  0  0  0  0  0
   38.4912   24.6548   32.3508 H   0  0  0  0  0  0  0  0  0  0  0  0
   36.7278   26.9086   31.3862 H   0  0  0  0  0  0  0  0  0  0  0  0
   36.2471   25.5590   32.4071 H   0  0  0  0  0  0  0  0  0  0  0  0
   37.0773   28.2919   33.2041 H   0  0  0  0  0  0  0  0  0  0  0  0
   36.3837   27.0546   34.2442 H   0  0  0  0  0  0  0  0  0  0  0  0
   39.2108   27.6993   34.4855 H   0  0  0  0  0  0  0  0  0  0  0  0
   37.4777   25.5007   34.9035 H   0  0  0  0  0  0  0  0  0  0  0  0
   39.2474   27.2459   36.5023 H   0  0  0  0  0  0  0  0  0  0  0  0
   37.5054   27.4806   36.3067 H   0  0  0  0  0  0  0  0  0  0  0  0
   38.1623   26.1186   38.2804 H   0  0  0  0  0  0  0  0  0  0  0  0
   37.1146   25.3113   37.2412 H   0  0  0  0  0  0  0  0  0  0  0  0
   39.4790   21.8578   37.6846 H   0  0  0  0  0  0  0  0  0  0  0  0
   39.3493   23.7780   36.0859 H   0  0  0  0  0  0  0  0  0  0  0  0
   43.5894   21.4083   36.8146 H   0  0  0  0  0  0  0  0  0  0  0  0
  1 16  1  0
  2  1  1  0
  3  2  1  0
  4  5  1  0
  4  3  1  0
  5  1  1  0
  6  7  1  0
  6  4  1  0
  6 10  1  0
  7  8  1  0
  8  9  1  0
  9 10  1  0
 10 11  1  0
 11 12  1  0
 12 13  1  0
 14 19  2  0
 15 14  1  0
 16 17  1  0
 16 15  2  0
 17 18  2  0
 18 19  1  0
  2 20  1  0
  2 21  1  0
  3 22  1  0
  3 23  1  0
  4 24  1  6
  5 25  1  0
  5 26  1  0
  7 27  1  0
  7 28  1  0
  8 29  1  0
  8 30  1  0
  9 31  1  0
  9 32  1  0
 10 33  1  1
 11 34  1  0
 12 35  1  0
 12 36  1  0
 13 37  1  0
 13 38  1  0
 14 39  1  0
 15 40  1  0
 18 41  1  0
M  ISO  8  20  13  21  13  22  13  23  13  24  13  25  13  26  13  27  13
M  ISO  8  28  13  29  13  30  13  31  13  32  13  33  13  34   5  35   8
M  ISO  6  36   8  37   5  38   5  39  14  40  14  41  14
M  END
>  <minimizedAffinity>  (1) 
-3.55900908

>  <minimizedRMSD>  (1) 
0.225246295

$$$$
