
     RDKit          3D

 23 24  0  0  0  0  0  0  0  0999 V2000
   41.8890   22.7910   35.3800 C   0  0  0  0  0  0  0  0  0  0  0  0
   42.8680   23.8740   35.5460 C   0  0  0  0  0  0  0  0  0  0  0  0
   43.6800   23.9100   36.6860 C   0  0  0  0  0  0  0  0  0  0  0  0
   44.6020   24.9680   36.8000 C   0  0  0  0  0  0  0  0  0  0  0  0
   44.6480   25.8830   35.8050 N   0  0  0  0  0  0  0  0  0  0  0  0
   43.8390   25.8070   34.7160 C   0  0  0  0  0  0  0  0  0  0  0  0
   42.9500   24.7990   34.5940 N   0  0  0  0  0  0  0  0  0  0  0  0
   40.7750   22.9460   36.2950 N   0  0  0  0  0  0  0  0  0  0  0  0
   39.8340   23.8590   35.9390 C   0  0  0  0  0  0  0  0  0  0  0  0
   38.7020   24.1430   36.6870 C   0  0  0  0  0  0  0  0  0  0  0  0
   38.5450   23.4310   37.8710 C   0  0  0  0  0  0  0  0  0  0  0  0
   37.5270   23.6580   38.5840 O   0  0  0  0  0  0  0  0  0  0  0  0
   39.4860   22.5320   38.2050 N   0  0  0  0  0  0  0  0  0  0  0  0
   40.5740   22.2860   37.4490 C   0  0  0  0  0  0  0  0  0  0  0  0
   41.4600   21.4460   37.7550 O   0  0  0  0  0  0  0  0  0  0  0  0
   41.5099   22.8053   34.3475 H   0  0  0  0  0  0  0  0  0  0  0  0
   42.3875   21.8348   35.5971 H   0  0  0  0  0  0  0  0  0  0  0  0
   43.6004   23.1383   37.4658 H   0  0  0  0  0  0  0  0  0  0  0  0
   45.2660   25.0481   37.6734 H   0  0  0  0  0  0  0  0  0  0  0  0
   43.9091   26.5720   33.9287 H   0  0  0  0  0  0  0  0  0  0  0  0
   39.9797   24.4080   34.9970 H   0  0  0  0  0  0  0  0  0  0  0  0
   37.9661   24.8927   36.3608 H   0  0  0  0  0  0  0  0  0  0  0  0
   39.3700   22.0048   39.0822 H   0  0  0  0  0  0  0  0  0  0  0  0
  1  2  1  0
  1  8  1  0
  2  3  2  0
  3  4  1  0
  5  4  2  0
  6  5  1  0
  7  6  2  0
  7  2  1  0
  8 14  1  0
  9  8  1  0
  9 10  2  0
 10 11  1  0
 11 13  1  0
 11 12  2  0
 14 15  2  0
 14 13  1  0
  1 16  1  0
  1 17  1  0
  3 18  1  0
  4 19  1  0
  6 20  1  0
  9 21  1  0
 10 22  1  0
 13 23  1  0
M  ISO  8  16   8  17   8  18  14  19  14  20  14  21  14  22  14  23   9
M  END
>  <minimizedAffinity>  (1) 
-4.40751791

>  <minimizedRMSD>  (1) 
5.31383228

$$$$
