
     RDKit          3D

 26 27  0  0  0  0  0  0  0  0999 V2000
   43.5200   22.7590   35.9510 C   0  0  0  0  0  0  0  0  0  0  0  0
   44.3410   23.9760   36.0600 C   0  0  0  0  0  0  0  0  0  0  0  0
   44.4350   24.6530   37.2860 C   0  0  0  0  0  0  0  0  0  0  0  0
   45.2310   25.8160   37.3570 C   0  0  0  0  0  0  0  0  0  0  0  0
   45.8590   26.1940   36.2000 N   0  0  0  0  0  0  0  0  0  0  0  0
   45.7350   25.5070   35.0500 C   0  0  0  0  0  0  0  0  0  0  0  0
   44.9880   24.4080   34.9670 N   0  0  0  0  0  0  0  0  0  0  0  0
   39.4220   23.3710   36.8630 C   0  0  0  0  0  0  0  0  0  0  0  0
   40.0140   24.0170   35.7740 C   0  0  0  0  0  0  0  0  0  0  0  0
   41.3560   23.7710   35.5340 C   0  0  0  0  0  0  0  0  0  0  0  0
   42.1080   22.9250   36.3240 C   0  0  0  0  0  0  0  0  0  0  0  0
   41.5270   22.2840   37.4020 C   0  0  0  0  0  0  0  0  0  0  0  0
   40.1740   22.5190   37.6590 C   0  0  0  0  0  0  0  0  0  0  0  0
   37.7350   23.7080   37.1270 S   0  0  0  0  0  0  0  0  0  0  0  0
   37.5560   24.1480   38.5500 O   0  0  0  0  0  0  0  0  0  0  0  0
   36.9060   22.4680   36.9090 O   0  0  0  0  0  0  0  0  0  0  0  0
   43.5586   22.4140   34.9072 H   0  0  0  0  0  0  0  0  0  0  0  0
   43.9434   22.0383   36.6660 H   0  0  0  0  0  0  0  0  0  0  0  0
   43.8992   24.2845   38.1732 H   0  0  0  0  0  0  0  0  0  0  0  0
   45.3411   26.3876   38.2903 H   0  0  0  0  0  0  0  0  0  0  0  0
   46.2650   25.8628   34.1542 H   0  0  0  0  0  0  0  0  0  0  0  0
   39.4352   24.6962   35.1308 H   0  0  0  0  0  0  0  0  0  0  0  0
   41.8408   24.2689   34.6813 H   0  0  0  0  0  0  0  0  0  0  0  0
   42.1140   21.6072   38.0403 H   0  0  0  0  0  0  0  0  0  0  0  0
   39.6939   22.0170   38.5120 H   0  0  0  0  0  0  0  0  0  0  0  0
   37.3316   24.6801   36.2500 H   0  0  0  0  0  0  0  0  0  0  0  0
  1  2  1  0
  1 11  1  0
  2  3  2  0
  3  4  1  0
  5  4  2  0
  6  5  1  0
  7  6  2  0
  7  2  1  0
  8 14  1  0
  8 13  2  0
  9  8  1  0
 10  9  2  0
 10 11  1  0
 11 12  2  0
 12 13  1  0
 14 15  2  0
 16 14  2  0
  1 17  1  0
  1 18  1  0
  3 19  1  0
  4 20  1  0
  6 21  1  0
  9 22  1  0
 10 23  1  0
 12 24  1  0
 13 25  1  0
 14 26  1  0
M  ISO  8  17   8  18   8  19  14  20  14  21  14  22  14  23  14  24  14
M  ISO  2  25  14  26  11
M  END
>  <minimizedAffinity>  (1) 
-4.18068743

>  <minimizedRMSD>  (1) 
6.52810431

$$$$
