
     RDKit          3D

 29 31  0  0  0  0  0  0  0  0999 V2000
   38.9130   24.2960   34.1910 C   0  0  0  0  0  0  0  0  0  0  0  0
   37.8480   23.6870   33.3680 C   0  0  0  0  0  0  0  0  0  0  0  0
   37.5230   22.3420   33.2830 C   0  0  0  0  0  0  0  0  0  0  0  0
   36.4980   21.9160   32.4680 C   0  0  0  0  0  0  0  0  0  0  0  0
   35.7780   22.8290   31.7220 C   0  0  0  0  0  0  0  0  0  0  0  0
   36.0830   24.1720   31.7900 C   0  0  0  0  0  0  0  0  0  0  0  0
   35.3360   25.0480   31.0260 C   0  0  0  0  0  0  0  0  0  0  0  0
   35.6270   26.4000   31.0790 C   0  0  0  0  0  0  0  0  0  0  0  0
   36.6520   26.8700   31.8880 C   0  0  0  0  0  0  0  0  0  0  0  0
   37.3540   25.9370   32.6230 C   0  0  0  0  0  0  0  0  0  0  0  0
   37.1130   24.5780   32.6130 C   0  0  0  0  0  0  0  0  0  0  0  0
   38.8510   23.9440   35.6180 C   0  0  0  0  0  0  0  0  0  0  0  0
   39.8400   23.1190   36.1860 C   0  0  0  0  0  0  0  0  0  0  0  0
   39.7420   22.8090   37.5480 C   0  0  0  0  0  0  0  0  0  0  0  0
   38.6960   23.3270   38.2320 N   0  0  0  0  0  0  0  0  0  0  0  0
   37.7740   24.1120   37.6460 C   0  0  0  0  0  0  0  0  0  0  0  0
   37.8470   24.4210   36.3460 N   0  0  0  0  0  0  0  0  0  0  0  0
   38.8342   25.3896   34.1022 H   0  0  0  0  0  0  0  0  0  0  0  0
   39.8679   23.9040   33.8110 H   0  0  0  0  0  0  0  0  0  0  0  0
   38.0901   21.6070   33.8731 H   0  0  0  0  0  0  0  0  0  0  0  0
   36.2518   20.8454   32.4108 H   0  0  0  0  0  0  0  0  0  0  0  0
   34.9599   22.4840   31.0726 H   0  0  0  0  0  0  0  0  0  0  0  0
   34.5225   24.6765   30.3855 H   0  0  0  0  0  0  0  0  0  0  0  0
   35.0409   27.1081   30.4748 H   0  0  0  0  0  0  0  0  0  0  0  0
   36.8946   27.9416   31.9410 H   0  0  0  0  0  0  0  0  0  0  0  0
   38.1676   26.3041   33.2658 H   0  0  0  0  0  0  0  0  0  0  0  0
   40.6679   22.7282   35.5761 H   0  0  0  0  0  0  0  0  0  0  0  0
   40.4871   22.1687   38.0429 H   0  0  0  0  0  0  0  0  0  0  0  0
   36.9428   24.5081   38.2479 H   0  0  0  0  0  0  0  0  0  0  0  0
  1 12  1  0
  2  1  1  0
  3  2  2  0
  4  3  1  0
  5  6  1  0
  5  4  2  0
  6 11  2  0
  7  8  2  0
  7  6  1  0
  8  9  1  0
  9 10  2  0
 11 10  1  0
 11  2  1  0
 12 13  2  0
 12 17  1  0
 13 14  1  0
 14 15  2  0
 16 15  1  0
 17 16  2  0
  1 18  1  0
  1 19  1  0
  3 20  1  0
  4 21  1  0
  5 22  1  0
  7 23  1  0
  8 24  1  0
  9 25  1  0
 10 26  1  0
 13 27  1  0
 14 28  1  0
 16 29  1  0
M  ISO  8  18   8  19   8  20  14  21  14  22  14  23  14  24  14  25  14
M  ISO  4  26  14  27  14  28  14  29  14
M  END
>  <minimizedAffinity>  (1) 
-4.85379076

>  <minimizedRMSD>  (1) 
5.64531708

$$$$
