
     RDKit          3D

 20 21  0  0  0  0  0  0  0  0999 V2000
   39.9000   22.4860   36.9490 C   0  0  0  0  0  0  0  0  0  0  0  0
   39.4390   23.1530   38.1010 C   0  0  0  0  0  0  0  0  0  0  0  0
   38.0780   23.4630   38.1950 C   0  0  0  0  0  0  0  0  0  0  0  0
   37.2780   23.0930   37.1520 N   0  0  0  0  0  0  0  0  0  0  0  0
   37.7610   22.4570   36.0710 C   0  0  0  0  0  0  0  0  0  0  0  0
   39.0570   22.1480   35.9540 N   0  0  0  0  0  0  0  0  0  0  0  0
   41.3310   22.1440   36.8180 C   0  0  0  0  0  0  0  0  0  0  0  0
   42.0920   23.3170   36.2740 C   0  0  0  0  0  0  0  0  0  0  0  0
   43.3990   23.6210   36.6400 C   0  0  0  0  0  0  0  0  0  0  0  0
   43.7100   24.7600   35.9160 C   0  0  0  0  0  0  0  0  0  0  0  0
   42.6010   25.0860   35.1620 C   0  0  0  0  0  0  0  0  0  0  0  0
   41.6610   24.1850   35.4180 O   0  0  0  0  0  0  0  0  0  0  0  0
   40.1342   23.4242   38.9092 H   0  0  0  0  0  0  0  0  0  0  0  0
   37.6689   23.9836   39.0734 H   0  0  0  0  0  0  0  0  0  0  0  0
   37.0709   22.1828   35.2595 H   0  0  0  0  0  0  0  0  0  0  0  0
   41.7332   21.8756   37.8060 H   0  0  0  0  0  0  0  0  0  0  0  0
   41.4370   21.2938   36.1281 H   0  0  0  0  0  0  0  0  0  0  0  0
   44.0427   23.0775   37.3473 H   0  0  0  0  0  0  0  0  0  0  0  0
   44.6654   25.3047   35.9379 H   0  0  0  0  0  0  0  0  0  0  0  0
   42.5123   25.9389   34.4730 H   0  0  0  0  0  0  0  0  0  0  0  0
  1  2  2  0
  2  3  1  0
  4  3  2  0
  5  4  1  0
  6  5  2  0
  6  1  1  0
  7  1  1  0
  8  9  2  0
  8  7  1  0
 10  9  1  0
 11 12  1  0
 11 10  2  0
 12  8  1  0
  2 13  1  0
  3 14  1  0
  5 15  1  0
  7 16  1  0
  7 17  1  0
  9 18  1  0
 10 19  1  0
 11 20  1  0
M  ISO  8  13  14  14  14  15  14  16   8  17   8  18  14  19  14  20  14
M  END
>  <minimizedAffinity>  (1) 
-3.66520596

>  <minimizedRMSD>  (1) 
0.62049216

$$$$
