
     RDKit          3D

 20 21  0  0  0  0  0  0  0  0999 V2000
   39.8970   22.5280   37.1140 C   0  0  0  0  0  0  0  0  0  0  0  0
   39.3530   23.1620   38.2400 C   0  0  0  0  0  0  0  0  0  0  0  0
   37.9770   23.4810   38.2590 C   0  0  0  0  0  0  0  0  0  0  0  0
   37.2600   23.1340   37.1440 N   0  0  0  0  0  0  0  0  0  0  0  0
   37.8290   22.5240   36.0840 C   0  0  0  0  0  0  0  0  0  0  0  0
   39.1330   22.2190   36.0580 N   0  0  0  0  0  0  0  0  0  0  0  0
   41.3280   22.1890   37.0780 C   0  0  0  0  0  0  0  0  0  0  0  0
   42.0890   23.2550   36.3980 C   0  0  0  0  0  0  0  0  0  0  0  0
   43.4050   23.6280   36.5730 C   0  0  0  0  0  0  0  0  0  0  0  0
   43.7090   24.6600   35.7440 N   0  0  0  0  0  0  0  0  0  0  0  0
   42.5820   24.9300   35.0540 C   0  0  0  0  0  0  0  0  0  0  0  0
   41.6000   24.0830   35.4470 N   0  0  0  0  0  0  0  0  0  0  0  0
   39.9919   23.4088   39.1008 H   0  0  0  0  0  0  0  0  0  0  0  0
   37.5078   23.9796   39.1199 H   0  0  0  0  0  0  0  0  0  0  0  0
   37.2038   22.2696   35.2155 H   0  0  0  0  0  0  0  0  0  0  0  0
   41.7005   22.0768   38.1069 H   0  0  0  0  0  0  0  0  0  0  0  0
   41.4592   21.2470   36.5254 H   0  0  0  0  0  0  0  0  0  0  0  0
   44.1053   23.1589   37.2798 H   0  0  0  0  0  0  0  0  0  0  0  0
   42.4765   25.7154   34.2911 H   0  0  0  0  0  0  0  0  0  0  0  0
   40.6373   24.0716   35.0809 H   0  0  0  0  0  0  0  0  0  0  0  0
  1  2  2  0
  2  3  1  0
  4  3  2  0
  5  4  1  0
  6  5  2  0
  6  1  1  0
  7  1  1  0
  8  9  2  0
  8  7  1  0
 10  9  1  0
 11 12  1  0
 11 10  2  0
 12  8  1  0
  2 13  1  0
  3 14  1  0
  5 15  1  0
  7 16  1  0
  7 17  1  0
  9 18  1  0
 11 19  1  0
 12 20  1  0
M  ISO  8  13  14  14  14  15  14  16   8  17   8  18  14  19  14  20   9
M  END
>  <minimizedAffinity>  (1) 
-3.50669312

>  <minimizedRMSD>  (1) 
0.721197128

$$$$
