
     RDKit          3D

 19 20  0  0  0  0  0  0  0  0999 V2000
   42.2190   23.2610   36.0260 C   0  0  0  0  0  0  0  0  0  0  0  0
   43.4950   23.1860   36.6290 C   0  0  0  0  0  0  0  0  0  0  0  0
   44.3740   24.2570   36.4280 C   0  0  0  0  0  0  0  0  0  0  0  0
   43.9400   25.2960   35.6700 N   0  0  0  0  0  0  0  0  0  0  0  0
   42.7150   25.3250   35.1160 C   0  0  0  0  0  0  0  0  0  0  0  0
   41.8570   24.3110   35.2930 N   0  0  0  0  0  0  0  0  0  0  0  0
   41.2680   22.1530   36.2150 C   0  0  0  0  0  0  0  0  0  0  0  0
   39.9860   22.5800   36.8330 C   0  0  0  0  0  0  0  0  0  0  0  0
   38.8410   22.5120   36.0140 C   0  0  0  0  0  0  0  0  0  0  0  0
   37.4360   23.1220   37.1330 S   0  0  0  0  0  0  0  0  0  0  0  0
   38.7220   23.3490   38.5100 C   0  0  0  0  0  0  0  0  0  0  0  0
   39.6780   23.0250   38.0260 N   0  0  0  0  0  0  0  0  0  0  0  0
   43.7874   22.3161   37.2354 H   0  0  0  0  0  0  0  0  0  0  0  0
   45.3817   24.2565   36.8692 H   0  0  0  0  0  0  0  0  0  0  0  0
   42.4135   26.1920   34.5099 H   0  0  0  0  0  0  0  0  0  0  0  0
   41.0512   21.7072   35.2330 H   0  0  0  0  0  0  0  0  0  0  0  0
   41.7376   21.4331   36.9014 H   0  0  0  0  0  0  0  0  0  0  0  0
   38.7769   22.1813   34.9669 H   0  0  0  0  0  0  0  0  0  0  0  0
   38.5656   23.7117   39.5367 H   0  0  0  0  0  0  0  0  0  0  0  0
  1  7  1  0
  1  2  2  0
  3  2  1  0
  4  3  2  0
  5  6  2  0
  5  4  1  0
  6  1  1  0
  7  8  1  0
  8 12  1  0
  9  8  2  0
  9 10  1  0
 10 11  1  0
 12 11  2  0
  2 13  1  0
  3 14  1  0
  5 15  1  0
  7 16  1  0
  7 17  1  0
  9 18  1  0
 11 19  1  0
M  ISO  7  13  14  14  14  15  14  16   8  17   8  18  14  19  14
M  END
>  <minimizedAffinity>  (1) 
-3.25805736

>  <minimizedRMSD>  (1) 
4.88372993

$$$$
