
     RDKit          3D

 14 14  0  0  0  0  0  0  0  0999 V2000
   39.8270   22.5140   37.2300 C   0  0  0  0  0  0  0  0  0  0  0  0
   39.3120   23.2160   38.3240 C   0  0  0  0  0  0  0  0  0  0  0  0
   37.9840   23.6710   38.2560 C   0  0  0  0  0  0  0  0  0  0  0  0
   37.2940   23.3940   37.1260 N   0  0  0  0  0  0  0  0  0  0  0  0
   37.8310   22.7110   36.0940 C   0  0  0  0  0  0  0  0  0  0  0  0
   39.0910   22.2720   36.1420 N   0  0  0  0  0  0  0  0  0  0  0  0
   41.2230   22.0250   37.2810 C   0  0  0  0  0  0  0  0  0  0  0  0
   42.1500   22.9580   36.8140 O   0  0  0  0  0  0  0  0  0  0  0  0
   39.9296   23.4070   39.2140 H   0  0  0  0  0  0  0  0  0  0  0  0
   37.5254   24.2284   39.0860 H   0  0  0  0  0  0  0  0  0  0  0  0
   37.2218   22.5128   35.1998 H   0  0  0  0  0  0  0  0  0  0  0  0
   41.4695   21.7795   38.3245 H   0  0  0  0  0  0  0  0  0  0  0  0
   41.2853   21.1452   36.6236 H   0  0  0  0  0  0  0  0  0  0  0  0
   42.5893   23.4002   37.5832 H   0  0  0  0  0  0  0  0  0  0  0  0
  1  7  1  0
  1  2  2  0
  3  2  1  0
  4  3  2  0
  5  6  2  0
  5  4  1  0
  6  1  1  0
  8  7  1  0
  2  9  1  0
  3 10  1  0
  5 11  1  0
  7 12  1  0
  7 13  1  0
  8 14  1  0
M  ISO  6   9  14  10  14  11  14  12   8  13   8  14   3
M  END
>  <minimizedAffinity>  (1) 
-2.81899571

>  <minimizedRMSD>  (1) 
0.0611782037

$$$$
