
     RDKit          3D

 21 22  0  0  0  0  0  0  0  0999 V2000
   41.2920   21.9990   36.5840 C   0  0  0  0  0  0  0  0  0  0  0  0
   39.8940   22.3980   36.8220 C   0  0  0  0  0  0  0  0  0  0  0  0
   39.5550   23.0580   38.0050 C   0  0  0  0  0  0  0  0  0  0  0  0
   38.2170   23.4250   38.2060 C   0  0  0  0  0  0  0  0  0  0  0  0
   37.3190   23.1190   37.2330 N   0  0  0  0  0  0  0  0  0  0  0  0
   37.7070   22.4760   36.1030 C   0  0  0  0  0  0  0  0  0  0  0  0
   38.9740   22.1130   35.8860 N   0  0  0  0  0  0  0  0  0  0  0  0
   42.0510   23.2190   36.1770 C   0  0  0  0  0  0  0  0  0  0  0  0
   43.3020   23.4810   36.7020 C   0  0  0  0  0  0  0  0  0  0  0  0
   43.9990   24.6280   36.3080 C   0  0  0  0  0  0  0  0  0  0  0  0
   43.4390   25.4680   35.4190 N   0  0  0  0  0  0  0  0  0  0  0  0
   42.2090   25.2110   34.9030 C   0  0  0  0  0  0  0  0  0  0  0  0
   41.5570   24.1030   35.2940 N   0  0  0  0  0  0  0  0  0  0  0  0
   41.7235   21.5795   37.5048 H   0  0  0  0  0  0  0  0  0  0  0  0
   41.3445   21.2328   35.7965 H   0  0  0  0  0  0  0  0  0  0  0  0
   40.3203   23.2848   38.7619 H   0  0  0  0  0  0  0  0  0  0  0  0
   37.9036   23.9448   39.1234 H   0  0  0  0  0  0  0  0  0  0  0  0
   36.9509   22.2453   35.3380 H   0  0  0  0  0  0  0  0  0  0  0  0
   43.7496   22.7879   37.4295 H   0  0  0  0  0  0  0  0  0  0  0  0
   44.9959   24.8411   36.7213 H   0  0  0  0  0  0  0  0  0  0  0  0
   41.7536   25.8995   34.1760 H   0  0  0  0  0  0  0  0  0  0  0  0
  1  2  1  0
  2  3  2  0
  3  4  1  0
  5  4  2  0
  6  5  1  0
  7  6  2  0
  7  2  1  0
  8  1  1  0
  8  9  2  0
 10  9  1  0
 11 10  2  0
 12 13  2  0
 12 11  1  0
 13  8  1  0
  1 14  1  0
  1 15  1  0
  3 16  1  0
  4 17  1  0
  6 18  1  0
  9 19  1  0
 10 20  1  0
 12 21  1  0
M  ISO  8  14   8  15   8  16  14  17  14  18  14  19  14  20  14  21  14
M  END
>  <minimizedAffinity>  (1) 
-3.75550413

>  <minimizedRMSD>  (1) 
0.567532182

$$$$
