
     RDKit          3D

 45 48  0  0  1  0  0  0  0  0999 V2000
   36.1620   29.3200   32.5120 C   0  0  0  0  0  0  0  0  0  0  0  0
   36.8410   28.3420   31.8180 C   0  0  0  0  0  0  0  0  0  0  0  0
   37.2420   27.2060   32.5170 C   0  0  0  0  0  0  0  0  0  0  0  0
   36.9650   27.0730   33.8520 C   0  0  0  0  0  0  0  0  0  0  0  0
   36.2880   28.0450   34.5500 C   0  0  0  0  0  0  0  0  0  0  0  0
   35.8820   29.1780   33.8810 C   0  0  0  0  0  0  0  0  0  0  0  0
   37.4710   25.7990   34.4170 C   0  0  0  0  0  0  0  0  0  0  0  0
   38.8970   25.8550   34.8350 C   0  0  2  0  0  0  0  0  0  0  0  0
   40.8980   23.1100   36.2070 C   0  0  0  0  0  0  0  0  0  0  0  0
   40.0980   22.6180   37.2780 C   0  0  0  0  0  0  0  0  0  0  0  0
   38.8570   23.2460   37.5180 C   0  0  0  0  0  0  0  0  0  0  0  0
   38.5190   24.2900   36.6940 N   0  0  0  0  0  0  0  0  0  0  0  0
   39.3100   24.7260   35.6880 C   0  0  0  0  0  0  0  0  0  0  0  0
   40.4950   24.1450   35.4380 N   0  0  0  0  0  0  0  0  0  0  0  0
   39.1180   27.1510   35.6330 C   0  0  0  0  0  0  0  0  0  0  0  0
   35.6460   30.7620   31.6570 S   0  0  0  0  0  0  0  0  0  0  0  0
   36.1220   30.6130   30.2150 O   0  0  0  0  0  0  0  0  0  0  0  0
   36.2540   31.9820   32.2360 O   0  0  0  0  0  0  0  0  0  0  0  0
   33.9030   30.8890   31.6800 C   0  0  0  0  0  0  0  0  0  0  0  0
   32.9300   30.4270   32.4930 N   0  0  0  0  0  0  0  0  0  0  0  0
   31.7670   30.8110   32.0590 O   0  0  0  0  0  0  0  0  0  0  0  0
   31.9300   31.5320   30.9560 C   0  0  0  0  0  0  0  0  0  0  0  0
   33.2270   31.5720   30.7370 N   0  0  0  0  0  0  0  0  0  0  0  0
   30.8970   32.1610   30.1380 C   0  0  0  0  0  0  0  0  0  0  0  0
   30.8590   31.9450   28.7650 C   0  0  0  0  0  0  0  0  0  0  0  0
   29.8320   32.5970   28.1060 C   0  0  0  0  0  0  0  0  0  0  0  0
   28.9490   33.3710   28.7270 N   0  0  0  0  0  0  0  0  0  0  0  0
   29.0200   33.5530   30.0560 C   0  0  0  0  0  0  0  0  0  0  0  0
   30.0040   32.9370   30.7370 N   0  0  0  0  0  0  0  0  0  0  0  0
   37.0594   28.4550   30.7458 H   0  0  0  0  0  0  0  0  0  0  0  0
   37.7866   26.4075   31.9918 H   0  0  0  0  0  0  0  0  0  0  0  0
   36.0749   27.9200   35.6219 H   0  0  0  0  0  0  0  0  0  0  0  0
   35.3395   29.9703   34.4176 H   0  0  0  0  0  0  0  0  0  0  0  0
   36.8613   25.5425   35.2959 H   0  0  0  0  0  0  0  0  0  0  0  0
   37.3988   25.0432   33.6210 H   0  0  0  0  0  0  0  0  0  0  0  0
   39.4995   25.8110   33.9157 H   0  0  0  0  0  0  0  0  0  0  0  0
   41.8686   22.6351   36.0009 H   0  0  0  0  0  0  0  0  0  0  0  0
   40.4367   21.7752   37.8984 H   0  0  0  0  0  0  0  0  0  0  0  0
   38.1913   22.9139   38.3283 H   0  0  0  0  0  0  0  0  0  0  0  0
   39.0802   26.9295   36.7098 H   0  0  0  0  0  0  0  0  0  0  0  0
   40.1013   27.5742   35.3800 H   0  0  0  0  0  0  0  0  0  0  0  0
   38.3306   27.8762   35.3800 H   0  0  0  0  0  0  0  0  0  0  0  0
   31.5876   31.3064   28.2441 H   0  0  0  0  0  0  0  0  0  0  0  0
   29.7425   32.4685   27.0172 H   0  0  0  0  0  0  0  0  0  0  0  0
   28.2904   34.1911   30.5760 H   0  0  0  0  0  0  0  0  0  0  0  0
  1  6  1  0
  2  1  2  0
  2  3  1  0
  3  4  2  0
  4  7  1  0
  4  5  1  0
  6  5  2  0
  7  8  1  0
  8 15  1  0
  8 13  1  0
  9 10  2  0
 10 11  1  0
 12 11  2  0
 13 12  1  0
 14 13  2  0
 14  9  1  0
 16 19  1  0
 16 18  2  0
 16  1  1  0
 17 16  2  0
 19 20  2  0
 21 20  1  0
 22 21  1  0
 23 22  2  0
 23 19  1  0
 24 29  1  0
 24 22  1  0
 25 24  2  0
 26 27  2  0
 26 25  1  0
 27 28  1  0
 28 29  2  0
  2 30  1  0
  3 31  1  0
  5 32  1  0
  6 33  1  0
  7 34  1  0
  7 35  1  0
  8 36  1  6
  9 37  1  0
 10 38  1  0
 11 39  1  0
 15 40  1  0
 15 41  1  0
 15 42  1  0
 25 43  1  0
 26 44  1  0
 28 45  1  0
M  ISO  8  30  14  31  14  32  14  33  14  34   8  35   8  36   8  37  14
M  ISO  8  38  14  39  14  40   8  41   8  42   8  43  14  44  14  45  14
M  END
>  <minimizedAffinity>  (1) 
-5.43676376

>  <minimizedRMSD>  (1) 
1.04197562

$$$$
