
     RDKit          3D

 32 34  0  0  0  0  0  0  0  0999 V2000
   41.9440   23.3860   36.2050 C   0  0  0  0  0  0  0  0  0  0  0  0
   43.2430   23.7230   36.4980 C   0  0  0  0  0  0  0  0  0  0  0  0
   43.8580   24.8340   35.8900 C   0  0  0  0  0  0  0  0  0  0  0  0
   43.1410   25.5690   35.0070 N   0  0  0  0  0  0  0  0  0  0  0  0
   41.8480   25.2230   34.7230 C   0  0  0  0  0  0  0  0  0  0  0  0
   41.2980   24.1620   35.3200 N   0  0  0  0  0  0  0  0  0  0  0  0
   41.0130   25.9320   33.8100 N   0  0  0  0  0  0  0  0  0  0  0  0
   41.3210   26.4460   32.6170 C   0  0  0  0  0  0  0  0  0  0  0  0
   40.3420   27.0990   31.8960 C   0  0  0  0  0  0  0  0  0  0  0  0
   39.0630   27.2270   32.3870 C   0  0  0  0  0  0  0  0  0  0  0  0
   38.0580   27.8960   31.6520 N   0  0  0  0  0  0  0  0  0  0  0  0
   38.7880   26.7010   33.5860 N   0  0  0  0  0  0  0  0  0  0  0  0
   39.7420   26.0640   34.2870 C   0  0  0  0  0  0  0  0  0  0  0  0
   39.3360   25.6180   35.4050 O   0  0  0  0  0  0  0  0  0  0  0  0
   41.3100   22.2120   36.8550 C   0  0  0  0  0  0  0  0  0  0  0  0
   39.8600   22.5010   36.9740 C   0  0  0  0  0  0  0  0  0  0  0  0
   39.3960   23.1610   38.1200 C   0  0  0  0  0  0  0  0  0  0  0  0
   38.0230   23.4300   38.2210 C   0  0  0  0  0  0  0  0  0  0  0  0
   37.2190   23.0300   37.1900 N   0  0  0  0  0  0  0  0  0  0  0  0
   37.7300   22.4000   36.1140 C   0  0  0  0  0  0  0  0  0  0  0  0
   39.0330   22.1280   35.9890 N   0  0  0  0  0  0  0  0  0  0  0  0
   43.8111   23.1159   37.2182 H   0  0  0  0  0  0  0  0  0  0  0  0
   44.8988   25.0994   36.1272 H   0  0  0  0  0  0  0  0  0  0  0  0
   42.3403   26.3504   32.2145 H   0  0  0  0  0  0  0  0  0  0  0  0
   40.5884   27.5244   30.9120 H   0  0  0  0  0  0  0  0  0  0  0  0
   37.1070   27.9802   32.0386 H   0  0  0  0  0  0  0  0  0  0  0  0
   38.2766   28.2993   30.7298 H   0  0  0  0  0  0  0  0  0  0  0  0
   41.4651   21.3127   36.2408 H   0  0  0  0  0  0  0  0  0  0  0  0
   41.7526   22.0300   37.8454 H   0  0  0  0  0  0  0  0  0  0  0  0
   40.0902   23.4602   38.9192 H   0  0  0  0  0  0  0  0  0  0  0  0
   37.6074   23.9451   39.0996 H   0  0  0  0  0  0  0  0  0  0  0  0
   37.0477   22.0974   35.3060 H   0  0  0  0  0  0  0  0  0  0  0  0
  1  2  2  0
  1 15  1  0
  3  2  1  0
  4  3  2  0
  5  4  1  0
  5  6  2  0
  6  1  1  0
  7 13  1  0
  7  5  1  0
  8  7  1  0
  9 10  1  0
  9  8  2  0
 10 12  2  0
 11 10  1  0
 12 13  1  0
 13 14  2  0
 15 16  1  0
 16 17  2  0
 17 18  1  0
 19 18  2  0
 20 19  1  0
 21 20  2  0
 21 16  1  0
  2 22  1  0
  3 23  1  0
  8 24  1  0
  9 25  1  0
 11 26  1  0
 11 27  1  0
 15 28  1  0
 15 29  1  0
 17 30  1  0
 18 31  1  0
 20 32  1  0
M  ISO  8  22  14  23  14  24  14  25  14  28   8  29   8  30  14  31  14
M  ISO  1  32  14
M  END
>  <minimizedAffinity>  (1) 
-5.14904404

>  <minimizedRMSD>  (1) 
0.501879096

$$$$
