
     RDKit          3D

 28 30  0  0  0  0  0  0  0  0999 V2000
   42.1820   23.0150   36.2500 C   0  0  0  0  0  0  0  0  0  0  0  0
   43.4540   23.0640   36.7660 C   0  0  0  0  0  0  0  0  0  0  0  0
   44.2640   24.1610   36.4800 C   0  0  0  0  0  0  0  0  0  0  0  0
   43.8020   25.1500   35.7100 N   0  0  0  0  0  0  0  0  0  0  0  0
   42.5560   25.1090   35.2000 C   0  0  0  0  0  0  0  0  0  0  0  0
   41.7900   24.0450   35.4870 N   0  0  0  0  0  0  0  0  0  0  0  0
   41.9090   26.0660   34.3690 N   0  0  0  0  0  0  0  0  0  0  0  0
   42.3580   27.0640   33.6070 N   0  0  0  0  0  0  0  0  0  0  0  0
   41.3180   27.6790   33.0180 C   0  0  0  0  0  0  0  0  0  0  0  0
   40.1370   27.0650   33.4050 C   0  0  0  0  0  0  0  0  0  0  0  0
   40.5530   26.0480   34.2610 C   0  0  0  0  0  0  0  0  0  0  0  0
   41.2820   21.8520   36.5360 C   0  0  0  0  0  0  0  0  0  0  0  0
   39.9400   22.3750   36.8390 C   0  0  0  0  0  0  0  0  0  0  0  0
   39.7200   22.9990   38.0780 C   0  0  0  0  0  0  0  0  0  0  0  0
   38.4450   23.4940   38.3610 C   0  0  0  0  0  0  0  0  0  0  0  0
   37.4810   23.3350   37.3990 N   0  0  0  0  0  0  0  0  0  0  0  0
   37.7490   22.7280   36.2260 C   0  0  0  0  0  0  0  0  0  0  0  0
   38.9650   22.2410   35.9220 N   0  0  0  0  0  0  0  0  0  0  0  0
   43.8292   22.2458   37.3983 H   0  0  0  0  0  0  0  0  0  0  0  0
   45.2841   24.2127   36.8883 H   0  0  0  0  0  0  0  0  0  0  0  0
   41.3926   28.5374   32.3342 H   0  0  0  0  0  0  0  0  0  0  0  0
   39.1100   27.3213   33.1057 H   0  0  0  0  0  0  0  0  0  0  0  0
   39.8862   25.3380   34.7722 H   0  0  0  0  0  0  0  0  0  0  0  0
   41.2352   21.1920   35.6572 H   0  0  0  0  0  0  0  0  0  0  0  0
   41.6667   21.2736   37.3889 H   0  0  0  0  0  0  0  0  0  0  0  0
   40.5351   23.0958   38.8103 H   0  0  0  0  0  0  0  0  0  0  0  0
   38.2232   23.9912   39.3168 H   0  0  0  0  0  0  0  0  0  0  0  0
   36.9402   22.6268   35.4873 H   0  0  0  0  0  0  0  0  0  0  0  0
  1 12  1  0
  1  2  2  0
  3  2  1  0
  4  3  2  0
  5  6  2  0
  5  4  1  0
  6  1  1  0
  7  5  1  0
  8  7  1  0
  9 10  1  0
  9  8  2  0
 10 11  2  0
 11  7  1  0
 12 13  1  0
 13 14  2  0
 14 15  1  0
 16 15  2  0
 17 16  1  0
 18 17  2  0
 18 13  1  0
  2 19  1  0
  3 20  1  0
  9 21  1  0
 10 22  1  0
 11 23  1  0
 12 24  1  0
 12 25  1  0
 14 26  1  0
 15 27  1  0
 17 28  1  0
M  ISO  8  19  14  20  14  21  14  22  14  23  14  24   8  25   8  26  14
M  ISO  2  27  14  28  14
M  END
>  <minimizedAffinity>  (1) 
-4.64000988

>  <minimizedRMSD>  (1) 
0.490896761

$$$$
