
     RDKit          3D

 34 36  0  0  0  0  0  0  0  0999 V2000
   42.1300   23.1030   36.1670 C   0  0  0  0  0  0  0  0  0  0  0  0
   43.4600   23.1550   36.5630 C   0  0  0  0  0  0  0  0  0  0  0  0
   44.2340   24.2850   36.2600 C   0  0  0  0  0  0  0  0  0  0  0  0
   43.6680   25.3120   35.5850 N   0  0  0  0  0  0  0  0  0  0  0  0
   42.3750   25.2460   35.2090 C   0  0  0  0  0  0  0  0  0  0  0  0
   41.6420   24.1690   35.4980 N   0  0  0  0  0  0  0  0  0  0  0  0
   41.7800   26.3260   34.4990 N   0  0  0  0  0  0  0  0  0  0  0  0
   40.3670   26.6310   34.6170 C   0  0  0  0  0  0  0  0  0  0  0  0
   39.8820   27.1040   33.2620 C   0  0  0  0  0  0  0  0  0  0  0  0
   40.6760   26.5700   32.2570 O   0  0  0  0  0  0  0  0  0  0  0  0
   41.9620   27.0570   32.2210 C   0  0  0  0  0  0  0  0  0  0  0  0
   42.5560   27.1630   33.6320 C   0  0  0  0  0  0  0  0  0  0  0  0
   41.2900   21.9100   36.4790 C   0  0  0  0  0  0  0  0  0  0  0  0
   39.9410   22.3870   36.8150 C   0  0  0  0  0  0  0  0  0  0  0  0
   39.7200   22.9970   38.0520 C   0  0  0  0  0  0  0  0  0  0  0  0
   38.4280   23.4490   38.3630 C   0  0  0  0  0  0  0  0  0  0  0  0
   37.4550   23.2660   37.4350 N   0  0  0  0  0  0  0  0  0  0  0  0
   37.7250   22.6630   36.2390 C   0  0  0  0  0  0  0  0  0  0  0  0
   38.9520   22.2280   35.9300 N   0  0  0  0  0  0  0  0  0  0  0  0
   43.9053   22.3126   37.1126 H   0  0  0  0  0  0  0  0  0  0  0  0
   45.2889   24.3356   36.5676 H   0  0  0  0  0  0  0  0  0  0  0  0
   39.8134   25.7298   34.9192 H   0  0  0  0  0  0  0  0  0  0  0  0
   40.2035   27.4089   35.3773 H   0  0  0  0  0  0  0  0  0  0  0  0
   38.8414   26.7792   33.1145 H   0  0  0  0  0  0  0  0  0  0  0  0
   39.9413   28.2017   33.2220 H   0  0  0  0  0  0  0  0  0  0  0  0
   42.5854   26.3792   31.6194 H   0  0  0  0  0  0  0  0  0  0  0  0
   41.9408   28.0627   31.7760 H   0  0  0  0  0  0  0  0  0  0  0  0
   43.6026   26.8245   33.6236 H   0  0  0  0  0  0  0  0  0  0  0  0
   42.5311   28.2057   33.9817 H   0  0  0  0  0  0  0  0  0  0  0  0
   41.2448   21.2448   35.6041 H   0  0  0  0  0  0  0  0  0  0  0  0
   41.7195   21.3466   37.3205 H   0  0  0  0  0  0  0  0  0  0  0  0
   40.5441   23.1210   38.7699 H   0  0  0  0  0  0  0  0  0  0  0  0
   38.2117   23.9349   39.3259 H   0  0  0  0  0  0  0  0  0  0  0  0
   36.9115   22.5316   35.5104 H   0  0  0  0  0  0  0  0  0  0  0  0
  1 13  1  0
  1  2  2  0
  3  2  1  0
  4  3  2  0
  5  6  2  0
  5  4  1  0
  6  1  1  0
  7  8  1  0
  7  5  1  0
  9  8  1  0
 10  9  1  0
 11 10  1  0
 11 12  1  0
 12  7  1  0
 13 14  1  0
 14 15  2  0
 15 16  1  0
 17 16  2  0
 18 17  1  0
 19 18  2  0
 19 14  1  0
  2 20  1  0
  3 21  1  0
  8 22  1  0
  8 23  1  0
  9 24  1  0
  9 25  1  0
 11 26  1  0
 11 27  1  0
 12 28  1  0
 12 29  1  0
 13 30  1  0
 13 31  1  0
 15 32  1  0
 16 33  1  0
 18 34  1  0
M  ISO  8  20  14  21  14  22  13  23  13  24  13  25  13  26  13  27  13
M  ISO  7  28  13  29  13  30   8  31   8  32  14  33  14  34  14
M  END
>  <minimizedAffinity>  (1) 
-4.77445841

>  <minimizedRMSD>  (1) 
0.514166176

$$$$
