
     RDKit          3D

 33 34  0  0  0  0  0  0  0  0999 V2000
   41.2870   22.0520   36.6610 C   0  0  0  0  0  0  0  0  0  0  0  0
   39.8660   22.4180   36.8450 C   0  0  0  0  0  0  0  0  0  0  0  0
   39.4900   23.0860   38.0230 C   0  0  0  0  0  0  0  0  0  0  0  0
   38.1480   23.4320   38.1970 C   0  0  0  0  0  0  0  0  0  0  0  0
   37.2780   23.1040   37.2180 N   0  0  0  0  0  0  0  0  0  0  0  0
   37.6950   22.4550   36.0930 C   0  0  0  0  0  0  0  0  0  0  0  0
   38.9750   22.1080   35.8930 N   0  0  0  0  0  0  0  0  0  0  0  0
   42.0060   23.2640   36.1950 C   0  0  0  0  0  0  0  0  0  0  0  0
   43.3230   23.4790   36.5460 C   0  0  0  0  0  0  0  0  0  0  0  0
   44.0010   24.6280   36.1020 C   0  0  0  0  0  0  0  0  0  0  0  0
   43.3490   25.5190   35.3290 N   0  0  0  0  0  0  0  0  0  0  0  0
   42.0560   25.2980   34.9890 C   0  0  0  0  0  0  0  0  0  0  0  0
   41.4280   24.2000   35.4200 N   0  0  0  0  0  0  0  0  0  0  0  0
   41.1930   26.1710   34.1500 C   0  0  0  0  0  0  0  0  0  0  0  0
   40.5890   25.3820   32.9820 C   0  0  0  0  0  0  0  0  0  0  0  0
   41.9660   27.3150   33.5290 C   0  0  0  0  0  0  0  0  0  0  0  0
   40.0420   26.7510   34.9430 C   0  0  0  0  0  0  0  0  0  0  0  0
   41.7121   21.7073   37.6152 H   0  0  0  0  0  0  0  0  0  0  0  0
   41.3845   21.2388   35.9267 H   0  0  0  0  0  0  0  0  0  0  0  0
   40.2372   23.3313   38.7921 H   0  0  0  0  0  0  0  0  0  0  0  0
   37.8104   23.9555   39.1036 H   0  0  0  0  0  0  0  0  0  0  0  0
   36.9528   22.2067   35.3200 H   0  0  0  0  0  0  0  0  0  0  0  0
   43.8463   22.7462   37.1778 H   0  0  0  0  0  0  0  0  0  0  0  0
   45.0511   24.7977   36.3822 H   0  0  0  0  0  0  0  0  0  0  0  0
   39.9644   24.5661   33.3747 H   0  0  0  0  0  0  0  0  0  0  0  0
   39.9715   26.0529   32.3667 H   0  0  0  0  0  0  0  0  0  0  0  0
   41.3978   24.9610   32.3667 H   0  0  0  0  0  0  0  0  0  0  0  0
   42.3914   27.9446   34.3244 H   0  0  0  0  0  0  0  0  0  0  0  0
   42.7783   26.9130   32.9057 H   0  0  0  0  0  0  0  0  0  0  0  0
   41.2899   27.9187   32.9057 H   0  0  0  0  0  0  0  0  0  0  0  0
   40.2484   26.6470   36.0184 H   0  0  0  0  0  0  0  0  0  0  0  0
   39.9246   27.8159   34.6935 H   0  0  0  0  0  0  0  0  0  0  0  0
   39.1163   26.2117   34.6935 H   0  0  0  0  0  0  0  0  0  0  0  0
  1  2  1  0
  2  3  2  0
  3  4  1  0
  5  4  2  0
  6  5  1  0
  7  6  2  0
  7  2  1  0
  8  9  2  0
  8  1  1  0
 10  9  1  0
 11 10  2  0
 12 11  1  0
 12 13  2  0
 13  8  1  0
 14 17  1  0
 14 12  1  0
 15 14  1  0
 16 14  1  0
  1 18  1  0
  1 19  1  0
  3 20  1  0
  4 21  1  0
  6 22  1  0
  9 23  1  0
 10 24  1  0
 15 25  1  0
 15 26  1  0
 15 27  1  0
 16 28  1  0
 16 29  1  0
 16 30  1  0
 17 31  1  0
 17 32  1  0
 17 33  1  0
M  ISO  8  18   8  19   8  20  14  21  14  22  14  23  14  24  14  25   8
M  ISO  8  26   8  27   8  28   8  29   8  30   8  31   8  32   8  33   8
M  END
>  <minimizedAffinity>  (1) 
-4.63966751

>  <minimizedRMSD>  (1) 
0.597508013

$$$$
