
     RDKit          3D

 29 31  0  0  0  0  0  0  0  0999 V2000
   42.0290   23.3030   36.3190 C   0  0  0  0  0  0  0  0  0  0  0  0
   43.3180   23.6310   36.7100 C   0  0  0  0  0  0  0  0  0  0  0  0
   43.9530   24.7290   36.1240 C   0  0  0  0  0  0  0  0  0  0  0  0
   43.3270   25.4570   35.1980 N   0  0  0  0  0  0  0  0  0  0  0  0
   42.0580   25.1370   34.8110 C   0  0  0  0  0  0  0  0  0  0  0  0
   41.4640   24.0740   35.3890 N   0  0  0  0  0  0  0  0  0  0  0  0
   41.3340   25.9060   33.8010 C   0  0  0  0  0  0  0  0  0  0  0  0
   40.0890   26.4300   34.1720 C   0  0  0  0  0  0  0  0  0  0  0  0
   39.4370   27.1530   33.1790 C   0  0  0  0  0  0  0  0  0  0  0  0
   39.9490   27.3490   31.9430 N   0  0  0  0  0  0  0  0  0  0  0  0
   41.1520   26.8230   31.6360 C   0  0  0  0  0  0  0  0  0  0  0  0
   41.8320   26.1150   32.5480 N   0  0  0  0  0  0  0  0  0  0  0  0
   41.3270   22.1380   36.9260 C   0  0  0  0  0  0  0  0  0  0  0  0
   39.9020   22.4660   37.0160 C   0  0  0  0  0  0  0  0  0  0  0  0
   39.4230   23.1450   38.1390 C   0  0  0  0  0  0  0  0  0  0  0  0
   38.0520   23.4470   38.1980 C   0  0  0  0  0  0  0  0  0  0  0  0
   37.2650   23.0660   37.1680 N   0  0  0  0  0  0  0  0  0  0  0  0
   37.7860   22.4040   36.0940 C   0  0  0  0  0  0  0  0  0  0  0  0
   39.0780   22.1100   36.0190 N   0  0  0  0  0  0  0  0  0  0  0  0
   43.8358   23.0327   37.4741 H   0  0  0  0  0  0  0  0  0  0  0  0
   44.9761   24.9949   36.4283 H   0  0  0  0  0  0  0  0  0  0  0  0
   39.6594   26.2808   35.1736 H   0  0  0  0  0  0  0  0  0  0  0  0
   38.4537   27.5880   33.4111 H   0  0  0  0  0  0  0  0  0  0  0  0
   41.5768   26.9757   30.6329 H   0  0  0  0  0  0  0  0  0  0  0  0
   41.4662   21.2478   36.2950 H   0  0  0  0  0  0  0  0  0  0  0  0
   41.7342   21.9242   37.9252 H   0  0  0  0  0  0  0  0  0  0  0  0
   40.1009   23.4354   38.9551 H   0  0  0  0  0  0  0  0  0  0  0  0
   37.6296   23.9808   39.0621 H   0  0  0  0  0  0  0  0  0  0  0  0
   37.1191   22.1071   35.2711 H   0  0  0  0  0  0  0  0  0  0  0  0
  1  2  2  0
  1 13  1  0
  3  2  1  0
  4  3  2  0
  5  4  1  0
  5  6  2  0
  6  1  1  0
  7  8  2  0
  7  5  1  0
  9  8  1  0
 10  9  2  0
 11 10  1  0
 11 12  2  0
 12  7  1  0
 13 14  1  0
 14 15  2  0
 15 16  1  0
 17 16  2  0
 18 17  1  0
 19 18  2  0
 19 14  1  0
  2 20  1  0
  3 21  1  0
  8 22  1  0
  9 23  1  0
 11 24  1  0
 13 25  1  0
 13 26  1  0
 15 27  1  0
 16 28  1  0
 18 29  1  0
M  ISO  8  20  14  21  14  22  14  23  14  24  14  25   8  26   8  27  14
M  ISO  2  28  14  29  14
M  END
>  <minimizedAffinity>  (1) 
-4.49405384

>  <minimizedRMSD>  (1) 
0.525054812

$$$$
