
     RDKit          3D

 24 25  0  0  0  0  0  0  0  0999 V2000
   41.2910   22.0260   36.4640 C   0  0  0  0  0  0  0  0  0  0  0  0
   39.9230   22.4500   36.8210 C   0  0  0  0  0  0  0  0  0  0  0  0
   39.6920   23.0360   38.0730 C   0  0  0  0  0  0  0  0  0  0  0  0
   38.3860   23.4260   38.3810 C   0  0  0  0  0  0  0  0  0  0  0  0
   37.4050   23.2200   37.4620 N   0  0  0  0  0  0  0  0  0  0  0  0
   37.6970   22.6460   36.2690 C   0  0  0  0  0  0  0  0  0  0  0  0
   38.9310   22.2550   35.9230 N   0  0  0  0  0  0  0  0  0  0  0  0
   42.0600   23.2510   36.1220 C   0  0  0  0  0  0  0  0  0  0  0  0
   43.3820   23.3920   36.5080 C   0  0  0  0  0  0  0  0  0  0  0  0
   44.1040   24.5390   36.1880 C   0  0  0  0  0  0  0  0  0  0  0  0
   43.4980   25.5080   35.4980 N   0  0  0  0  0  0  0  0  0  0  0  0
   42.1970   25.3950   35.1060 C   0  0  0  0  0  0  0  0  0  0  0  0
   41.5340   24.2660   35.4360 N   0  0  0  0  0  0  0  0  0  0  0  0
   41.4840   26.4310   34.3460 C   0  0  0  0  0  0  0  0  0  0  0  0
   40.8510   25.8810   33.2330 F   0  0  0  0  0  0  0  0  0  0  0  0
   42.2920   27.4880   33.9620 F   0  0  0  0  0  0  0  0  0  0  0  0
   40.4900   26.9850   35.1410 F   0  0  0  0  0  0  0  0  0  0  0  0
   41.7603   21.5130   37.3164 H   0  0  0  0  0  0  0  0  0  0  0  0
   41.2724   21.3286   35.6136 H   0  0  0  0  0  0  0  0  0  0  0  0
   40.5126   23.1842   38.7903 H   0  0  0  0  0  0  0  0  0  0  0  0
   38.1553   23.8918   39.3505 H   0  0  0  0  0  0  0  0  0  0  0  0
   36.8797   22.4936   35.5488 H   0  0  0  0  0  0  0  0  0  0  0  0
   43.8694   22.5859   37.0760 H   0  0  0  0  0  0  0  0  0  0  0  0
   45.1541   24.6446   36.4980 H   0  0  0  0  0  0  0  0  0  0  0  0
  1  2  1  0
  2  3  2  0
  3  4  1  0
  5  4  2  0
  6  5  1  0
  7  6  2  0
  7  2  1  0
  8  1  1  0
  8  9  2  0
 10  9  1  0
 11 10  2  0
 12 13  2  0
 12 11  1  0
 13  8  1  0
 14 12  1  0
 14 17  1  0
 15 14  1  0
 16 14  1  0
  1 18  1  0
  1 19  1  0
  3 20  1  0
  4 21  1  0
  6 22  1  0
  9 23  1  0
 10 24  1  0
M  ISO  7  18   8  19   8  20  14  21  14  22  14  23  14  24  14
M  END
>  <minimizedAffinity>  (1) 
-4.49247456

>  <minimizedRMSD>  (1) 
0.50455147

$$$$
