
     RDKit          3D

 26 28  0  0  0  0  0  0  0  0999 V2000
   42.1600   23.0050   36.2560 C   0  0  0  0  0  0  0  0  0  0  0  0
   43.4520   23.0740   36.7420 C   0  0  0  0  0  0  0  0  0  0  0  0
   44.2410   24.1750   36.4150 C   0  0  0  0  0  0  0  0  0  0  0  0
   43.7590   25.1520   35.6410 N   0  0  0  0  0  0  0  0  0  0  0  0
   42.4790   25.0740   35.1650 C   0  0  0  0  0  0  0  0  0  0  0  0
   41.7340   24.0130   35.4860 N   0  0  0  0  0  0  0  0  0  0  0  0
   41.9530   26.1430   34.3190 C   0  0  0  0  0  0  0  0  0  0  0  0
   42.5190   27.1810   33.6780 N   0  0  0  0  0  0  0  0  0  0  0  0
   41.6260   27.8490   33.0550 O   0  0  0  0  0  0  0  0  0  0  0  0
   40.4520   27.3080   33.2410 C   0  0  0  0  0  0  0  0  0  0  0  0
   40.6210   26.2210   34.0400 N   0  0  0  0  0  0  0  0  0  0  0  0
   41.2930   21.8310   36.5950 C   0  0  0  0  0  0  0  0  0  0  0  0
   39.9300   22.3410   36.8660 C   0  0  0  0  0  0  0  0  0  0  0  0
   39.6910   22.9890   38.0840 C   0  0  0  0  0  0  0  0  0  0  0  0
   38.3990   23.4680   38.3310 C   0  0  0  0  0  0  0  0  0  0  0  0
   37.4620   23.2740   37.3770 N   0  0  0  0  0  0  0  0  0  0  0  0
   37.7490   22.6400   36.2140 C   0  0  0  0  0  0  0  0  0  0  0  0
   38.9760   22.1710   35.9510 N   0  0  0  0  0  0  0  0  0  0  0  0
   43.8520   22.2707   37.3782 H   0  0  0  0  0  0  0  0  0  0  0  0
   45.2703   24.2406   36.7975 H   0  0  0  0  0  0  0  0  0  0  0  0
   39.4986   27.6670   32.8261 H   0  0  0  0  0  0  0  0  0  0  0  0
   41.2684   21.1271   35.7501 H   0  0  0  0  0  0  0  0  0  0  0  0
   41.6881   21.3017   37.4746 H   0  0  0  0  0  0  0  0  0  0  0  0
   40.4942   23.1178   38.8244 H   0  0  0  0  0  0  0  0  0  0  0  0
   38.1547   23.9852   39.2706 H   0  0  0  0  0  0  0  0  0  0  0  0
   36.9533   22.5070   35.4662 H   0  0  0  0  0  0  0  0  0  0  0  0
  1 12  1  0
  1  2  2  0
  3  2  1  0
  4  3  2  0
  5  6  2  0
  5  4  1  0
  6  1  1  0
  7  5  1  0
  8  7  2  0
  9 10  1  0
  9  8  1  0
 10 11  2  0
 11  7  1  0
 12 13  1  0
 13 14  2  0
 14 15  1  0
 16 15  2  0
 17 16  1  0
 18 17  2  0
 18 13  1  0
  2 19  1  0
  3 20  1  0
 10 21  1  0
 12 22  1  0
 12 23  1  0
 14 24  1  0
 15 25  1  0
 17 26  1  0
M  ISO  8  19  14  20  14  21  14  22   8  23   8  24  14  25  14  26  14
M  END
>  <minimizedAffinity>  (1) 
-4.38724184

>  <minimizedRMSD>  (1) 
0.583108306

$$$$
