
     RDKit          3D

 27 28  0  0  0  0  0  0  0  0999 V2000
   41.2920   22.0440   36.4940 C   0  0  0  0  0  0  0  0  0  0  0  0
   39.9230   22.4530   36.8350 C   0  0  0  0  0  0  0  0  0  0  0  0
   39.6650   23.0460   38.0660 C   0  0  0  0  0  0  0  0  0  0  0  0
   38.3540   23.4320   38.3800 C   0  0  0  0  0  0  0  0  0  0  0  0
   37.3980   23.1980   37.4440 N   0  0  0  0  0  0  0  0  0  0  0  0
   37.6910   22.6210   36.2620 C   0  0  0  0  0  0  0  0  0  0  0  0
   38.9390   22.2510   35.9580 N   0  0  0  0  0  0  0  0  0  0  0  0
   42.0590   23.2690   36.1250 C   0  0  0  0  0  0  0  0  0  0  0  0
   43.3810   23.4210   36.5050 C   0  0  0  0  0  0  0  0  0  0  0  0
   44.0740   24.5710   36.1490 C   0  0  0  0  0  0  0  0  0  0  0  0
   43.4620   25.5370   35.4360 N   0  0  0  0  0  0  0  0  0  0  0  0
   42.1620   25.3780   35.0680 C   0  0  0  0  0  0  0  0  0  0  0  0
   41.5000   24.2700   35.4120 N   0  0  0  0  0  0  0  0  0  0  0  0
   41.4980   26.4450   34.2850 C   0  0  0  0  0  0  0  0  0  0  0  0
   40.1440   26.7670   34.8640 C   0  0  0  0  0  0  0  0  0  0  0  0
   41.7625   21.5553   37.3599 H   0  0  0  0  0  0  0  0  0  0  0  0
   41.2812   21.3321   35.6555 H   0  0  0  0  0  0  0  0  0  0  0  0
   40.4805   23.2105   38.7857 H   0  0  0  0  0  0  0  0  0  0  0  0
   38.1103   23.9041   39.3432 H   0  0  0  0  0  0  0  0  0  0  0  0
   36.8861   22.4509   35.5318 H   0  0  0  0  0  0  0  0  0  0  0  0
   43.8816   22.6334   37.0873 H   0  0  0  0  0  0  0  0  0  0  0  0
   45.1250   24.6935   36.4498 H   0  0  0  0  0  0  0  0  0  0  0  0
   41.3750   26.1067   33.2456 H   0  0  0  0  0  0  0  0  0  0  0  0
   42.1221   27.3501   34.3206 H   0  0  0  0  0  0  0  0  0  0  0  0
   40.2022   26.7532   35.9624 H   0  0  0  0  0  0  0  0  0  0  0  0
   39.8287   27.7652   34.5261 H   0  0  0  0  0  0  0  0  0  0  0  0
   39.4131   26.0176   34.5261 H   0  0  0  0  0  0  0  0  0  0  0  0
  1  2  1  0
  2  3  2  0
  3  4  1  0
  5  4  2  0
  6  5  1  0
  7  6  2  0
  7  2  1  0
  8  1  1  0
  8  9  2  0
 10  9  1  0
 11 10  2  0
 12 13  2  0
 12 11  1  0
 13  8  1  0
 14 15  1  0
 14 12  1  0
  1 16  1  0
  1 17  1  0
  3 18  1  0
  4 19  1  0
  6 20  1  0
  9 21  1  0
 10 22  1  0
 14 23  1  0
 14 24  1  0
 15 25  1  0
 15 26  1  0
 15 27  1  0
M  ISO  8  16   8  17   8  18  14  19  14  20  14  21  14  22  14  23   8
M  ISO  4  24   8  25   8  26   8  27   8
M  END
>  <minimizedAffinity>  (1) 
-4.23546457

>  <minimizedRMSD>  (1) 
0.335254043

$$$$
