
     RDKit          3D

 24 25  0  0  0  0  0  0  0  0999 V2000
   41.2360   21.9500   36.1710 C   0  0  0  0  0  0  0  0  0  0  0  0
   39.9490   22.4160   36.7070 C   0  0  0  0  0  0  0  0  0  0  0  0
   39.8750   22.9260   37.9950 C   0  0  0  0  0  0  0  0  0  0  0  0
   38.6420   23.3600   38.4770 C   0  0  0  0  0  0  0  0  0  0  0  0
   37.5550   23.2660   37.6570 N   0  0  0  0  0  0  0  0  0  0  0  0
   37.6890   22.7570   36.4040 C   0  0  0  0  0  0  0  0  0  0  0  0
   38.8600   22.3350   35.9230 N   0  0  0  0  0  0  0  0  0  0  0  0
   42.1160   23.1430   36.0030 C   0  0  0  0  0  0  0  0  0  0  0  0
   43.3650   23.1970   36.6090 C   0  0  0  0  0  0  0  0  0  0  0  0
   44.1820   24.3220   36.4440 C   0  0  0  0  0  0  0  0  0  0  0  0
   43.7260   25.3410   35.6880 N   0  0  0  0  0  0  0  0  0  0  0  0
   42.5140   25.2960   35.0960 C   0  0  0  0  0  0  0  0  0  0  0  0
   41.7490   24.2110   35.2670 N   0  0  0  0  0  0  0  0  0  0  0  0
   42.0390   26.4000   34.2870 C   0  0  0  0  0  0  0  0  0  0  0  0
   40.9400   26.3780   33.7020 O   0  0  0  0  0  0  0  0  0  0  0  0
   42.7900   27.5340   34.1290 O   0  0  0  0  0  0  0  0  0  0  0  0
   41.6983   21.2391   36.8716 H   0  0  0  0  0  0  0  0  0  0  0  0
   41.0901   21.4401   35.2073 H   0  0  0  0  0  0  0  0  0  0  0  0
   40.7746   22.9867   38.6251 H   0  0  0  0  0  0  0  0  0  0  0  0
   38.5468   23.7686   39.4939 H   0  0  0  0  0  0  0  0  0  0  0  0
   36.7983   22.6904   35.7619 H   0  0  0  0  0  0  0  0  0  0  0  0
   43.7136   22.3522   37.2212 H   0  0  0  0  0  0  0  0  0  0  0  0
   45.1724   24.3733   36.9199 H   0  0  0  0  0  0  0  0  0  0  0  0
   42.4504   28.2791   33.5726 H   0  0  0  0  0  0  0  0  0  0  0  0
  1  2  1  0
  2  3  2  0
  3  4  1  0
  5  4  2  0
  6  5  1  0
  7  6  2  0
  7  2  1  0
  8  1  1  0
  8  9  2  0
 10  9  1  0
 11 10  2  0
 12 13  2  0
 12 11  1  0
 13  8  1  0
 14 12  1  0
 15 14  2  0
 16 14  1  0
  1 17  1  0
  1 18  1  0
  3 19  1  0
  4 20  1  0
  6 21  1  0
  9 22  1  0
 10 23  1  0
 16 24  1  0
M  ISO  8  17   8  18   8  19  14  20  14  21  14  22  14  23  14  24   3
M  END
>  <minimizedAffinity>  (1) 
-4.35659838

>  <minimizedRMSD>  (1) 
0.73720634

$$$$
