
     RDKit          3D

 46 49  0  0  1  0  0  0  0  0999 V2000
   42.0060   23.2600   36.2750 C   0  0  0  0  0  0  0  0  0  0  0  0
   43.3230   23.5400   36.6280 C   0  0  0  0  0  0  0  0  0  0  0  0
   43.9790   24.6430   36.1040 C   0  0  0  0  0  0  0  0  0  0  0  0
   43.3160   25.4450   35.2410 N   0  0  0  0  0  0  0  0  0  0  0  0
   42.0260   25.1810   34.8870 C   0  0  0  0  0  0  0  0  0  0  0  0
   41.3990   24.1030   35.4070 N   0  0  0  0  0  0  0  0  0  0  0  0
   41.2860   22.0730   36.8480 C   0  0  0  0  0  0  0  0  0  0  0  0
   39.8640   22.4500   36.9910 C   0  0  0  0  0  0  0  0  0  0  0  0
   39.3980   23.1200   38.0980 C   0  0  0  0  0  0  0  0  0  0  0  0
   38.0510   23.4640   38.1980 C   0  0  0  0  0  0  0  0  0  0  0  0
   37.2410   23.1100   37.1680 N   0  0  0  0  0  0  0  0  0  0  0  0
   37.7370   22.4540   36.1000 C   0  0  0  0  0  0  0  0  0  0  0  0
   39.0140   22.1320   36.0120 N   0  0  0  0  0  0  0  0  0  0  0  0
   41.2320   26.0200   33.9640 C   0  0  2  0  0  0  0  0  0  0  0  0
   41.7970   27.3800   33.7480 C   0  0  0  0  0  0  0  0  0  0  0  0
   39.7710   26.0640   34.4790 C   0  0  0  0  0  0  0  0  0  0  0  0
   38.9190   26.3740   33.3600 C   0  0  0  0  0  0  0  0  0  0  0  0
   39.2160   25.7830   32.1240 C   0  0  0  0  0  0  0  0  0  0  0  0
   38.4310   25.9920   31.0030 C   0  0  0  0  0  0  0  0  0  0  0  0
   37.3110   26.7960   31.0410 C   0  0  0  0  0  0  0  0  0  0  0  0
   36.9770   27.4050   32.2430 C   0  0  0  0  0  0  0  0  0  0  0  0
   35.8800   28.2240   32.3330 C   0  0  0  0  0  0  0  0  0  0  0  0
   35.5560   28.8430   33.5350 C   0  0  0  0  0  0  0  0  0  0  0  0
   36.3610   28.6190   34.6440 C   0  0  0  0  0  0  0  0  0  0  0  0
   37.4530   27.7870   34.5070 C   0  0  0  0  0  0  0  0  0  0  0  0
   37.7920   27.1630   33.3260 C   0  0  0  0  0  0  0  0  0  0  0  0
   43.8495   22.8780   37.3312 H   0  0  0  0  0  0  0  0  0  0  0  0
   45.0197   24.8616   36.3852 H   0  0  0  0  0  0  0  0  0  0  0  0
   41.3810   21.2117   36.1704 H   0  0  0  0  0  0  0  0  0  0  0  0
   41.7140   21.7896   37.8209 H   0  0  0  0  0  0  0  0  0  0  0  0
   40.0921   23.3858   38.9089 H   0  0  0  0  0  0  0  0  0  0  0  0
   37.6605   24.0003   39.0755 H   0  0  0  0  0  0  0  0  0  0  0  0
   37.0586   22.1793   35.2788 H   0  0  0  0  0  0  0  0  0  0  0  0
   41.2642   25.5591   32.9657 H   0  0  0  0  0  0  0  0  0  0  0  0
   41.9939   27.8540   34.7209 H   0  0  0  0  0  0  0  0  0  0  0  0
   42.7367   27.3010   33.1817 H   0  0  0  0  0  0  0  0  0  0  0  0
   41.0779   27.9901   33.1817 H   0  0  0  0  0  0  0  0  0  0  0  0
   39.4935   25.0869   34.9012 H   0  0  0  0  0  0  0  0  0  0  0  0
   39.6637   26.8250   35.2660 H   0  0  0  0  0  0  0  0  0  0  0  0
   40.0999   25.1333   32.0424 H   0  0  0  0  0  0  0  0  0  0  0  0
   38.7079   25.5039   30.0569 H   0  0  0  0  0  0  0  0  0  0  0  0
   36.6976   26.9508   30.1412 H   0  0  0  0  0  0  0  0  0  0  0  0
   35.2512   28.3924   31.4463 H   0  0  0  0  0  0  0  0  0  0  0  0
   34.6763   29.4995   33.6063 H   0  0  0  0  0  0  0  0  0  0  0  0
   36.1333   29.0940   35.6097 H   0  0  0  0  0  0  0  0  0  0  0  0
   38.0875   27.6122   35.3884 H   0  0  0  0  0  0  0  0  0  0  0  0
  1  2  2  0
  1  7  1  0
  3  2  1  0
  4  3  2  0
  5  4  1  0
  5  6  2  0
  6  1  1  0
  7  8  1  0
  8  9  2  0
  9 10  1  0
 11 10  2  0
 12 11  1  0
 13 12  2  0
 13  8  1  0
 14 16  1  0
 14  5  1  0
 15 14  1  0
 17 16  1  0
 18 17  2  0
 19 20  2  0
 19 18  1  0
 20 21  1  0
 21 22  1  0
 21 26  2  0
 22 23  2  0
 23 24  1  0
 25 24  2  0
 26 17  1  0
 26 25  1  0
  2 27  1  0
  3 28  1  0
  7 29  1  0
  7 30  1  0
  9 31  1  0
 10 32  1  0
 12 33  1  0
 14 34  1  6
 15 35  1  0
 15 36  1  0
 15 37  1  0
 16 38  1  0
 16 39  1  0
 18 40  1  0
 19 41  1  0
 20 42  1  0
 22 43  1  0
 23 44  1  0
 24 45  1  0
 25 46  1  0
M  ISO  8  27  14  28  14  29   8  30   8  31  14  32  14  33  14  34   8
M  ISO  8  35   8  36   8  37   8  38   8  39   8  40  14  41  14  42  14
M  ISO  4  43  14  44  14  45  14  46  14
M  END
>  <minimizedAffinity>  (1) 
-6.02961111

>  <minimizedRMSD>  (1) 
1.29447532

$$$$
