
     RDKit          3D

 44 47  0  0  1  0  0  0  0  0999 V2000
   41.2140   26.0050   33.9920 C   0  0  2  0  0  0  0  0  0  0  0  0
   42.0110   23.2540   36.3150 C   0  0  0  0  0  0  0  0  0  0  0  0
   43.3320   23.5280   36.6190 C   0  0  0  0  0  0  0  0  0  0  0  0
   43.9850   24.6280   36.0560 C   0  0  0  0  0  0  0  0  0  0  0  0
   43.2920   25.4230   35.2020 N   0  0  0  0  0  0  0  0  0  0  0  0
   41.9940   25.1470   34.9070 C   0  0  0  0  0  0  0  0  0  0  0  0
   41.3880   24.0940   35.4540 N   0  0  0  0  0  0  0  0  0  0  0  0
   41.3030   22.0830   36.9240 C   0  0  0  0  0  0  0  0  0  0  0  0
   39.8740   22.4440   37.0360 C   0  0  0  0  0  0  0  0  0  0  0  0
   39.3790   23.1140   38.1330 C   0  0  0  0  0  0  0  0  0  0  0  0
   38.0320   23.4520   38.2200 C   0  0  0  0  0  0  0  0  0  0  0  0
   37.2430   23.0910   37.1800 N   0  0  0  0  0  0  0  0  0  0  0  0
   37.7540   22.4370   36.1200 C   0  0  0  0  0  0  0  0  0  0  0  0
   39.0460   22.1120   36.0350 N   0  0  0  0  0  0  0  0  0  0  0  0
   41.7650   27.3400   33.7140 C   0  0  0  0  0  0  0  0  0  0  0  0
   39.7400   25.9730   34.4080 C   0  0  0  0  0  0  0  0  0  0  0  0
   38.8360   26.1930   33.2930 C   0  0  0  0  0  0  0  0  0  0  0  0
   39.0880   25.5570   32.1140 N   0  0  0  0  0  0  0  0  0  0  0  0
   38.2800   25.8220   31.0750 C   0  0  0  0  0  0  0  0  0  0  0  0
   37.2320   26.6660   31.0880 N   0  0  0  0  0  0  0  0  0  0  0  0
   36.9230   27.3340   32.2390 C   0  0  0  0  0  0  0  0  0  0  0  0
   35.8570   28.1810   32.2960 C   0  0  0  0  0  0  0  0  0  0  0  0
   35.5540   28.8290   33.4910 C   0  0  0  0  0  0  0  0  0  0  0  0
   36.3700   28.5790   34.6000 C   0  0  0  0  0  0  0  0  0  0  0  0
   37.4190   27.7240   34.4780 C   0  0  0  0  0  0  0  0  0  0  0  0
   37.7560   27.0590   33.3040 C   0  0  0  0  0  0  0  0  0  0  0  0
   41.2992   25.5669   32.9866 H   0  0  0  0  0  0  0  0  0  0  0  0
   43.8763   22.8711   37.3135 H   0  0  0  0  0  0  0  0  0  0  0  0
   45.0357   24.8442   36.2994 H   0  0  0  0  0  0  0  0  0  0  0  0
   41.4185   21.1975   36.2817 H   0  0  0  0  0  0  0  0  0  0  0  0
   41.7233   21.8442   37.9121 H   0  0  0  0  0  0  0  0  0  0  0  0
   40.0594   23.3862   38.9534 H   0  0  0  0  0  0  0  0  0  0  0  0
   37.6273   23.9869   39.0918 H   0  0  0  0  0  0  0  0  0  0  0  0
   37.0825   22.1604   35.2939 H   0  0  0  0  0  0  0  0  0  0  0  0
   41.9772   27.8540   34.6631 H   0  0  0  0  0  0  0  0  0  0  0  0
   42.6952   27.2396   33.1355 H   0  0  0  0  0  0  0  0  0  0  0  0
   41.0348   27.9249   33.1355 H   0  0  0  0  0  0  0  0  0  0  0  0
   39.5207   24.9897   34.8496 H   0  0  0  0  0  0  0  0  0  0  0  0
   39.5814   26.7885   35.1290 H   0  0  0  0  0  0  0  0  0  0  0  0
   38.4937   25.3030   30.1290 H   0  0  0  0  0  0  0  0  0  0  0  0
   35.2388   28.3521   31.4024 H   0  0  0  0  0  0  0  0  0  0  0  0
   34.6985   29.5170   33.5610 H   0  0  0  0  0  0  0  0  0  0  0  0
   36.1640   29.0705   35.5623 H   0  0  0  0  0  0  0  0  0  0  0  0
   38.0428   27.5461   35.3664 H   0  0  0  0  0  0  0  0  0  0  0  0
  1 16  1  0
  1  6  1  0
  2  3  2  0
  2  8  1  0
  4  3  1  0
  5  4  2  0
  6  5  1  0
  6  7  2  0
  7  2  1  0
  8  9  1  0
  9 10  2  0
 10 11  1  0
 12 11  2  0
 13 12  1  0
 14 13  2  0
 14  9  1  0
 15  1  1  0
 17 26  1  0
 17 16  1  0
 18 17  2  0
 19 20  2  0
 19 18  1  0
 20 21  1  0
 21 22  1  0
 21 26  2  0
 22 23  2  0
 23 24  1  0
 25 24  2  0
 26 25  1  0
  1 27  1  6
  3 28  1  0
  4 29  1  0
  8 30  1  0
  8 31  1  0
 10 32  1  0
 11 33  1  0
 13 34  1  0
 15 35  1  0
 15 36  1  0
 15 37  1  0
 16 38  1  0
 16 39  1  0
 19 40  1  0
 22 41  1  0
 23 42  1  0
 24 43  1  0
 25 44  1  0
M  ISO  8  27   8  28  14  29  14  30   8  31   8  32  14  33  14  34  14
M  ISO  8  35   8  36   8  37   8  38   8  39   8  40  14  41  14  42  14
M  ISO  2  43  14  44  14
M  END
>  <minimizedAffinity>  (1) 
-5.95107937

>  <minimizedRMSD>  (1) 
1.72692525

$$$$
