
     RDKit          3D

 39 41  0  0  1  0  0  0  0  0999 V2000
   42.0380   23.1760   36.2300 C   0  0  0  0  0  0  0  0  0  0  0  0
   43.3720   23.3730   36.5750 C   0  0  0  0  0  0  0  0  0  0  0  0
   44.0650   24.5000   36.1500 C   0  0  0  0  0  0  0  0  0  0  0  0
   43.4180   25.4000   35.3950 N   0  0  0  0  0  0  0  0  0  0  0  0
   42.1210   25.2310   35.0440 C   0  0  0  0  0  0  0  0  0  0  0  0
   41.4490   24.1300   35.4620 N   0  0  0  0  0  0  0  0  0  0  0  0
   41.2840   21.9680   36.6910 C   0  0  0  0  0  0  0  0  0  0  0  0
   39.8790   22.3830   36.8880 C   0  0  0  0  0  0  0  0  0  0  0  0
   39.4750   23.0540   38.0150 C   0  0  0  0  0  0  0  0  0  0  0  0
   38.1490   23.4420   38.1880 C   0  0  0  0  0  0  0  0  0  0  0  0
   37.2880   23.1300   37.2020 N   0  0  0  0  0  0  0  0  0  0  0  0
   37.7140   22.4650   36.0940 C   0  0  0  0  0  0  0  0  0  0  0  0
   38.9750   22.1030   35.9450 N   0  0  0  0  0  0  0  0  0  0  0  0
   41.3300   26.1860   34.2110 C   0  0  2  0  0  0  0  0  0  0  0  0
   42.1740   27.2790   33.6390 C   0  0  0  0  0  0  0  0  0  0  0  0
   40.1770   26.7270   35.0640 C   0  0  0  0  0  0  0  0  0  0  0  0
   38.9960   27.0970   34.2690 C   0  0  0  0  0  0  0  0  0  0  0  0
   38.6810   27.1060   32.9310 C   0  0  0  0  0  0  0  0  0  0  0  0
   37.4700   27.4950   32.4210 C   0  0  0  0  0  0  0  0  0  0  0  0
   36.5090   27.9040   33.3230 C   0  0  0  0  0  0  0  0  0  0  0  0
   36.8320   27.8920   34.6580 C   0  0  0  0  0  0  0  0  0  0  0  0
   38.0300   27.5050   35.1380 N   0  0  0  0  0  0  0  0  0  0  0  0
   43.8865   22.6238   37.1947 H   0  0  0  0  0  0  0  0  0  0  0  0
   45.1191   24.6504   36.4262 H   0  0  0  0  0  0  0  0  0  0  0  0
   41.3404   21.1749   35.9308 H   0  0  0  0  0  0  0  0  0  0  0  0
   41.7105   21.5724   37.6246 H   0  0  0  0  0  0  0  0  0  0  0  0
   40.2126   23.2897   38.7963 H   0  0  0  0  0  0  0  0  0  0  0  0
   37.8202   23.9792   39.0898 H   0  0  0  0  0  0  0  0  0  0  0  0
   36.9896   22.2229   35.3024 H   0  0  0  0  0  0  0  0  0  0  0  0
   40.9219   25.6551   33.3383 H   0  0  0  0  0  0  0  0  0  0  0  0
   42.6236   27.8612   34.4568 H   0  0  0  0  0  0  0  0  0  0  0  0
   42.9706   26.8411   33.0196 H   0  0  0  0  0  0  0  0  0  0  0  0
   41.5489   27.9390   33.0196 H   0  0  0  0  0  0  0  0  0  0  0  0
   39.8833   25.9523   35.7876 H   0  0  0  0  0  0  0  0  0  0  0  0
   40.5369   27.6397   35.5614 H   0  0  0  0  0  0  0  0  0  0  0  0
   39.4543   26.7783   32.2207 H   0  0  0  0  0  0  0  0  0  0  0  0
   37.2724   27.4818   31.3390 H   0  0  0  0  0  0  0  0  0  0  0  0
   35.5148   28.2297   32.9833 H   0  0  0  0  0  0  0  0  0  0  0  0
   36.0670   28.2178   35.3782 H   0  0  0  0  0  0  0  0  0  0  0  0
  1  2  2  0
  1  7  1  0
  3  2  1  0
  4  3  2  0
  5  4  1  0
  5  6  2  0
  6  1  1  0
  7  8  1  0
  8  9  2  0
  9 10  1  0
 11 10  2  0
 12 11  1  0
 13 12  2  0
 13  8  1  0
 14  5  1  0
 14 16  1  0
 15 14  1  0
 17 16  1  0
 17 22  1  0
 18 17  2  0
 19 18  1  0
 19 20  2  0
 20 21  1  0
 21 22  2  0
  2 23  1  0
  3 24  1  0
  7 25  1  0
  7 26  1  0
  9 27  1  0
 10 28  1  0
 12 29  1  0
 14 30  1  6
 15 31  1  0
 15 32  1  0
 15 33  1  0
 16 34  1  0
 16 35  1  0
 18 36  1  0
 19 37  1  0
 20 38  1  0
 21 39  1  0
M  ISO  8  23  14  24  14  25   8  26   8  27  14  28  14  29  14  30   8
M  ISO  8  31   8  32   8  33   8  34   8  35   8  36  14  37  14  38  14
M  ISO  1  39  14
M  END
>  <minimizedAffinity>  (1) 
-5.54237032

>  <minimizedRMSD>  (1) 
0.608201325

$$$$
