
     RDKit          3D

 43 45  0  0  1  0  0  0  0  0999 V2000
   42.0340   23.2240   36.1880 C   0  0  0  0  0  0  0  0  0  0  0  0
   43.3530   23.4310   36.5480 C   0  0  0  0  0  0  0  0  0  0  0  0
   44.0370   24.5780   36.1300 C   0  0  0  0  0  0  0  0  0  0  0  0
   43.3780   25.4820   35.3650 N   0  0  0  0  0  0  0  0  0  0  0  0
   42.0760   25.2700   35.0140 C   0  0  0  0  0  0  0  0  0  0  0  0
   41.4330   24.1710   35.4180 N   0  0  0  0  0  0  0  0  0  0  0  0
   41.2910   22.0020   36.6400 C   0  0  0  0  0  0  0  0  0  0  0  0
   39.8830   22.4050   36.8720 C   0  0  0  0  0  0  0  0  0  0  0  0
   39.4940   23.0620   38.0140 C   0  0  0  0  0  0  0  0  0  0  0  0
   38.1600   23.4280   38.1960 C   0  0  0  0  0  0  0  0  0  0  0  0
   37.2880   23.1110   37.2090 N   0  0  0  0  0  0  0  0  0  0  0  0
   37.7070   22.4660   36.0990 C   0  0  0  0  0  0  0  0  0  0  0  0
   38.9710   22.1240   35.9390 N   0  0  0  0  0  0  0  0  0  0  0  0
   41.3120   26.2430   34.1950 C   0  0  2  0  0  0  0  0  0  0  0  0
   42.1150   27.3090   33.5690 C   0  0  0  0  0  0  0  0  0  0  0  0
   40.1280   26.7540   35.0300 C   0  0  0  0  0  0  0  0  0  0  0  0
   39.0160   27.1360   34.2220 N   0  0  0  0  0  0  0  0  0  0  0  0
   37.8890   27.3680   35.1100 C   0  0  0  0  0  0  0  0  0  0  0  0
   36.6900   27.9280   34.4040 C   0  0  0  0  0  0  0  0  0  0  0  0
   36.4860   27.3010   33.1910 O   0  0  0  0  0  0  0  0  0  0  0  0
   37.1110   26.0620   33.1120 C   0  0  0  0  0  0  0  0  0  0  0  0
   38.6050   26.1600   33.2650 C   0  0  0  0  0  0  0  0  0  0  0  0
   43.8704   22.6857   37.1699 H   0  0  0  0  0  0  0  0  0  0  0  0
   45.0864   24.7423   36.4160 H   0  0  0  0  0  0  0  0  0  0  0  0
   41.3372   21.2242   35.8635 H   0  0  0  0  0  0  0  0  0  0  0  0
   41.7361   21.5923   37.5587 H   0  0  0  0  0  0  0  0  0  0  0  0
   40.2377   23.3006   38.7886 H   0  0  0  0  0  0  0  0  0  0  0  0
   37.8296   23.9529   39.1045 H   0  0  0  0  0  0  0  0  0  0  0  0
   36.9790   22.2206   35.3117 H   0  0  0  0  0  0  0  0  0  0  0  0
   40.9303   25.7147   33.3089 H   0  0  0  0  0  0  0  0  0  0  0  0
   42.5797   27.9259   34.3522 H   0  0  0  0  0  0  0  0  0  0  0  0
   42.8996   26.8579   32.9438 H   0  0  0  0  0  0  0  0  0  0  0  0
   41.4649   27.9387   32.9438 H   0  0  0  0  0  0  0  0  0  0  0  0
   39.8085   25.9552   35.7154 H   0  0  0  0  0  0  0  0  0  0  0  0
   40.4653   27.6457   35.5787 H   0  0  0  0  0  0  0  0  0  0  0  0
   37.6068   26.4118   35.5748 H   0  0  0  0  0  0  0  0  0  0  0  0
   38.2068   28.1106   35.8567 H   0  0  0  0  0  0  0  0  0  0  0  0
   35.8016   27.7836   35.0363 H   0  0  0  0  0  0  0  0  0  0  0  0
   36.8641   28.9980   34.2177 H   0  0  0  0  0  0  0  0  0  0  0  0
   36.7162   25.4161   33.9101 H   0  0  0  0  0  0  0  0  0  0  0  0
   36.9034   25.6456   32.1152 H   0  0  0  0  0  0  0  0  0  0  0  0
   38.9878   25.1787   33.5820 H   0  0  0  0  0  0  0  0  0  0  0  0
   39.0106   26.4708   32.2909 H   0  0  0  0  0  0  0  0  0  0  0  0
  1  2  2  0
  1  7  1  0
  3  2  1  0
  4  3  2  0
  5  4  1  0
  5  6  2  0
  6  1  1  0
  7  8  1  0
  8  9  2  0
  9 10  1  0
 11 10  2  0
 12 11  1  0
 13 12  2  0
 13  8  1  0
 14  5  1  0
 14 16  1  0
 15 14  1  0
 17 16  1  0
 17 18  1  0
 19 18  1  0
 20 19  1  0
 21 20  1  0
 21 22  1  0
 22 17  1  0
  2 23  1  0
  3 24  1  0
  7 25  1  0
  7 26  1  0
  9 27  1  0
 10 28  1  0
 12 29  1  0
 14 30  1  6
 15 31  1  0
 15 32  1  0
 15 33  1  0
 16 34  1  0
 16 35  1  0
 18 36  1  0
 18 37  1  0
 19 38  1  0
 19 39  1  0
 21 40  1  0
 21 41  1  0
 22 42  1  0
 22 43  1  0
M  ISO  8  23  14  24  14  25   8  26   8  27  14  28  14  29  14  30   8
M  ISO  8  31   8  32   8  33   8  34   8  35   8  36  13  37  13  38  13
M  ISO  5  39  13  40  13  41  13  42  13  43  13
M  END
>  <minimizedAffinity>  (1) 
-5.22558498

>  <minimizedRMSD>  (1) 
0.669909775

$$$$
