
     RDKit          3D

 36 38  0  0  1  0  0  0  0  0999 V2000
   42.0110   23.3260   36.1880 C   0  0  0  0  0  0  0  0  0  0  0  0
   43.3440   23.5800   36.4860 C   0  0  0  0  0  0  0  0  0  0  0  0
   43.9810   24.7160   35.9960 C   0  0  0  0  0  0  0  0  0  0  0  0
   43.2610   25.5590   35.2260 N   0  0  0  0  0  0  0  0  0  0  0  0
   41.9640   25.3210   34.9290 C   0  0  0  0  0  0  0  0  0  0  0  0
   41.3570   24.2250   35.4030 N   0  0  0  0  0  0  0  0  0  0  0  0
   41.3190   22.1080   36.7190 C   0  0  0  0  0  0  0  0  0  0  0  0
   39.9000   22.4580   36.9070 C   0  0  0  0  0  0  0  0  0  0  0  0
   39.4540   23.0930   38.0400 C   0  0  0  0  0  0  0  0  0  0  0  0
   38.1080   23.4200   38.2010 C   0  0  0  0  0  0  0  0  0  0  0  0
   37.2690   23.0840   37.1930 N   0  0  0  0  0  0  0  0  0  0  0  0
   37.7370   22.4590   36.0890 C   0  0  0  0  0  0  0  0  0  0  0  0
   39.0150   22.1570   35.9530 N   0  0  0  0  0  0  0  0  0  0  0  0
   41.1560   26.2350   34.1010 C   0  0  2  0  0  0  0  0  0  0  0  0
   41.8910   27.3500   33.4700 C   0  0  0  0  0  0  0  0  0  0  0  0
   39.9650   26.7480   34.9460 C   0  0  0  0  0  0  0  0  0  0  0  0
   38.7660   26.4910   34.1740 N   0  0  0  0  0  0  0  0  0  0  0  0
   37.7700   27.3090   33.7990 C   0  0  0  0  0  0  0  0  0  0  0  0
   36.9090   26.5340   33.0900 N   0  0  0  0  0  0  0  0  0  0  0  0
   37.3630   25.2700   33.0280 C   0  0  0  0  0  0  0  0  0  0  0  0
   38.5240   25.2570   33.7090 N   0  0  0  0  0  0  0  0  0  0  0  0
   43.9031   22.8739   37.1175 H   0  0  0  0  0  0  0  0  0  0  0  0
   45.0366   24.9203   36.2285 H   0  0  0  0  0  0  0  0  0  0  0  0
   41.4106   21.2798   36.0009 H   0  0  0  0  0  0  0  0  0  0  0  0
   41.7703   21.7865   37.6693 H   0  0  0  0  0  0  0  0  0  0  0  0
   40.1709   23.3481   38.8343 H   0  0  0  0  0  0  0  0  0  0  0  0
   37.7443   23.9281   39.1063 H   0  0  0  0  0  0  0  0  0  0  0  0
   37.0352   22.1956   35.2840 H   0  0  0  0  0  0  0  0  0  0  0  0
   40.8068   25.6452   33.2407 H   0  0  0  0  0  0  0  0  0  0  0  0
   42.3173   27.9967   34.2510 H   0  0  0  0  0  0  0  0  0  0  0  0
   42.7014   26.9475   32.8445 H   0  0  0  0  0  0  0  0  0  0  0  0
   41.2017   27.9362   32.8445 H   0  0  0  0  0  0  0  0  0  0  0  0
   39.9211   26.2107   35.9048 H   0  0  0  0  0  0  0  0  0  0  0  0
   40.0703   27.8201   35.1686 H   0  0  0  0  0  0  0  0  0  0  0  0
   37.6717   28.3821   34.0197 H   0  0  0  0  0  0  0  0  0  0  0  0
   36.8829   24.4188   32.5230 H   0  0  0  0  0  0  0  0  0  0  0  0
  1  2  2  0
  1  7  1  0
  3  2  1  0
  4  3  2  0
  5  4  1  0
  5  6  2  0
  6  1  1  0
  7  8  1  0
  8  9  2  0
  9 10  1  0
 11 10  2  0
 12 11  1  0
 13 12  2  0
 13  8  1  0
 14  5  1  0
 14 16  1  0
 15 14  1  0
 17 16  1  0
 18 17  1  0
 19 18  2  0
 20 19  1  0
 20 21  2  0
 21 17  1  0
  2 22  1  0
  3 23  1  0
  7 24  1  0
  7 25  1  0
  9 26  1  0
 10 27  1  0
 12 28  1  0
 14 29  1  6
 15 30  1  0
 15 31  1  0
 15 32  1  0
 16 33  1  0
 16 34  1  0
 18 35  1  0
 20 36  1  0
M  ISO  8  22  14  23  14  24   8  25   8  26  14  27  14  28  14  29   8
M  ISO  7  30   8  31   8  32   8  33   8  34   8  35  14  36  14
M  END
>  <minimizedAffinity>  (1) 
-4.89571905

>  <minimizedRMSD>  (1) 
1.2624557

$$$$
