
     RDKit          3D

 42 44  0  0  1  0  0  0  0  0999 V2000
   41.9810   23.2840   36.1490 C   0  0  0  0  0  0  0  0  0  0  0  0
   43.3350   23.5000   36.3940 C   0  0  0  0  0  0  0  0  0  0  0  0
   43.9810   24.6340   35.9190 C   0  0  0  0  0  0  0  0  0  0  0  0
   43.2670   25.5310   35.2100 N   0  0  0  0  0  0  0  0  0  0  0  0
   41.9410   25.3320   34.9640 C   0  0  0  0  0  0  0  0  0  0  0  0
   41.3530   24.2250   35.4380 N   0  0  0  0  0  0  0  0  0  0  0  0
   41.2890   22.0660   36.6680 C   0  0  0  0  0  0  0  0  0  0  0  0
   39.8750   22.4290   36.8750 C   0  0  0  0  0  0  0  0  0  0  0  0
   39.4620   23.0850   38.0330 C   0  0  0  0  0  0  0  0  0  0  0  0
   38.1210   23.4140   38.2030 C   0  0  0  0  0  0  0  0  0  0  0  0
   37.2640   23.0780   37.2220 N   0  0  0  0  0  0  0  0  0  0  0  0
   37.7130   22.4370   36.1040 C   0  0  0  0  0  0  0  0  0  0  0  0
   38.9840   22.1190   35.9330 N   0  0  0  0  0  0  0  0  0  0  0  0
   41.1010   26.3060   34.2070 C   0  0  2  0  0  0  0  0  0  0  0  0
   41.8700   27.3580   33.5190 C   0  0  0  0  0  0  0  0  0  0  0  0
   39.9820   26.7830   35.1180 C   0  0  0  0  0  0  0  0  0  0  0  0
   38.7990   27.1560   34.5130 N   0  0  0  0  0  0  0  0  0  0  0  0
   37.6710   27.6250   35.1780 C   0  0  0  0  0  0  0  0  0  0  0  0
   36.6460   27.8750   34.0500 C   0  0  0  0  0  0  0  0  0  0  0  0
   37.4040   27.5170   32.7710 C   0  0  0  0  0  0  0  0  0  0  0  0
   38.3290   26.4400   33.3680 C   0  0  0  0  0  0  0  0  0  0  0  0
   43.9034   22.7585   36.9746 H   0  0  0  0  0  0  0  0  0  0  0  0
   45.0508   24.7965   36.1168 H   0  0  0  0  0  0  0  0  0  0  0  0
   41.3658   21.2475   35.9371 H   0  0  0  0  0  0  0  0  0  0  0  0
   41.7481   21.7239   37.6073 H   0  0  0  0  0  0  0  0  0  0  0  0
   40.1952   23.3423   38.8116 H   0  0  0  0  0  0  0  0  0  0  0  0
   37.7731   23.9315   39.1092 H   0  0  0  0  0  0  0  0  0  0  0  0
   36.9906   22.1756   35.3167 H   0  0  0  0  0  0  0  0  0  0  0  0
   40.6333   25.8024   33.3481 H   0  0  0  0  0  0  0  0  0  0  0  0
   42.3471   28.0107   34.2649 H   0  0  0  0  0  0  0  0  0  0  0  0
   42.6436   26.8943   32.8892 H   0  0  0  0  0  0  0  0  0  0  0  0
   41.1934   27.9543   32.8892 H   0  0  0  0  0  0  0  0  0  0  0  0
   39.7535   25.9665   35.8188 H   0  0  0  0  0  0  0  0  0  0  0  0
   40.3660   27.7013   35.5862 H   0  0  0  0  0  0  0  0  0  0  0  0
   37.2952   26.8732   35.8876 H   0  0  0  0  0  0  0  0  0  0  0  0
   37.8755   28.5288   35.7708 H   0  0  0  0  0  0  0  0  0  0  0  0
   35.7635   27.2302   34.1743 H   0  0  0  0  0  0  0  0  0  0  0  0
   36.2702   28.9088   34.0426 H   0  0  0  0  0  0  0  0  0  0  0  0
   37.9659   28.3716   32.3660 H   0  0  0  0  0  0  0  0  0  0  0  0
   36.7880   27.2051   31.9147 H   0  0  0  0  0  0  0  0  0  0  0  0
   37.7762   25.5313   33.6484 H   0  0  0  0  0  0  0  0  0  0  0  0
   39.1113   26.0623   32.6932 H   0  0  0  0  0  0  0  0  0  0  0  0
  1  2  2  0
  1  7  1  0
  3  2  1  0
  4  3  2  0
  5  4  1  0
  5  6  2  0
  6  1  1  0
  7  8  1  0
  8  9  2  0
  9 10  1  0
 11 10  2  0
 12 11  1  0
 13 12  2  0
 13  8  1  0
 14  5  1  0
 14 16  1  0
 15 14  1  0
 17 16  1  0
 17 18  1  0
 19 18  1  0
 20 21  1  0
 20 19  1  0
 21 17  1  0
  2 22  1  0
  3 23  1  0
  7 24  1  0
  7 25  1  0
  9 26  1  0
 10 27  1  0
 12 28  1  0
 14 29  1  6
 15 30  1  0
 15 31  1  0
 15 32  1  0
 16 33  1  0
 16 34  1  0
 18 35  1  0
 18 36  1  0
 19 37  1  0
 19 38  1  0
 20 39  1  0
 20 40  1  0
 21 41  1  0
 21 42  1  0
M  ISO  8  22  14  23  14  24   8  25   8  26  14  27  14  28  14  29   8
M  ISO  8  30   8  31   8  32   8  33   8  34   8  35  13  36  13  37  13
M  ISO  5  38  13  39  13  40  13  41  13  42  13
M  END
>  <minimizedAffinity>  (1) 
-5.15896177

>  <minimizedRMSD>  (1) 
0.655457437

$$$$
