
     RDKit          3D

 47 50  0  0  1  0  0  0  0  0999 V2000
   41.1200   26.3390   34.1220 C   0  0  2  0  0  0  0  0  0  0  0  0
   41.9420   23.2980   36.0700 C   0  0  0  0  0  0  0  0  0  0  0  0
   43.2730   23.5530   36.4310 C   0  0  0  0  0  0  0  0  0  0  0  0
   43.9230   24.7200   36.0370 C   0  0  0  0  0  0  0  0  0  0  0  0
   43.2260   25.6050   35.2920 N   0  0  0  0  0  0  0  0  0  0  0  0
   41.9410   25.3730   34.9350 C   0  0  0  0  0  0  0  0  0  0  0  0
   41.3270   24.2350   35.3260 N   0  0  0  0  0  0  0  0  0  0  0  0
   41.2540   22.0480   36.5080 C   0  0  0  0  0  0  0  0  0  0  0  0
   39.8490   22.4300   36.8180 C   0  0  0  0  0  0  0  0  0  0  0  0
   39.4750   23.0930   37.9480 C   0  0  0  0  0  0  0  0  0  0  0  0
   38.1440   23.4250   38.1770 C   0  0  0  0  0  0  0  0  0  0  0  0
   37.2550   23.0680   37.2450 N   0  0  0  0  0  0  0  0  0  0  0  0
   37.6490   22.4120   36.1330 C   0  0  0  0  0  0  0  0  0  0  0  0
   38.9090   22.1110   35.9410 N   0  0  0  0  0  0  0  0  0  0  0  0
   41.9230   27.2780   33.3380 C   0  0  0  0  0  0  0  0  0  0  0  0
   40.0680   26.9560   35.0410 C   0  0  0  0  0  0  0  0  0  0  0  0
   38.6970   26.7230   34.4870 C   0  0  2  0  0  0  0  0  0  0  0  0
   37.6700   26.0780   35.4020 C   0  0  0  0  0  0  0  0  0  0  0  0
   38.1070   25.4580   34.1050 C   0  0  1  0  0  0  0  0  0  0  0  0
   37.1540   25.4790   32.9580 C   0  0  0  0  0  0  0  0  0  0  0  0
   36.7220   24.3900   32.2330 C   0  0  0  0  0  0  0  0  0  0  0  0
   35.8550   24.4480   31.1660 C   0  0  0  0  0  0  0  0  0  0  0  0
   35.3650   25.6510   30.7630 C   0  0  0  0  0  0  0  0  0  0  0  0
   35.7430   26.7960   31.4290 C   0  0  0  0  0  0  0  0  0  0  0  0
   36.6140   26.6580   32.4890 C   0  0  0  0  0  0  0  0  0  0  0  0
   40.5854   25.8053   33.3224 H   0  0  0  0  0  0  0  0  0  0  0  0
   43.8159   22.8145   37.0392 H   0  0  0  0  0  0  0  0  0  0  0  0
   44.9674   24.9141   36.3226 H   0  0  0  0  0  0  0  0  0  0  0  0
   41.2761   21.2991   35.7026 H   0  0  0  0  0  0  0  0  0  0  0  0
   41.7501   21.6050   37.3842 H   0  0  0  0  0  0  0  0  0  0  0  0
   40.2376   23.3700   38.6907 H   0  0  0  0  0  0  0  0  0  0  0  0
   37.8356   23.9594   39.0877 H   0  0  0  0  0  0  0  0  0  0  0  0
   36.9017   22.1264   35.3780 H   0  0  0  0  0  0  0  0  0  0  0  0
   42.4853   27.9356   34.0172 H   0  0  0  0  0  0  0  0  0  0  0  0
   42.6262   26.7184   32.7037 H   0  0  0  0  0  0  0  0  0  0  0  0
   41.2611   27.8859   32.7037 H   0  0  0  0  0  0  0  0  0  0  0  0
   40.1405   26.4952   36.0372 H   0  0  0  0  0  0  0  0  0  0  0  0
   40.2462   28.0390   35.1143 H   0  0  0  0  0  0  0  0  0  0  0  0
   38.8332   27.6508   33.9120 H   0  0  0  0  0  0  0  0  0  0  0  0
   37.9772   25.6375   36.3620 H   0  0  0  0  0  0  0  0  0  0  0  0
   36.7138   26.3761   35.8568 H   0  0  0  0  0  0  0  0  0  0  0  0
   38.5040   24.4689   33.8327 H   0  0  0  0  0  0  0  0  0  0  0  0
   37.0984   23.3998   32.5294 H   0  0  0  0  0  0  0  0  0  0  0  0
   35.5600   23.5269   30.6421 H   0  0  0  0  0  0  0  0  0  0  0  0
   34.6716   25.7092   29.9111 H   0  0  0  0  0  0  0  0  0  0  0  0
   35.3642   27.7834   31.1266 H   0  0  0  0  0  0  0  0  0  0  0  0
   36.9072   27.5799   33.0125 H   0  0  0  0  0  0  0  0  0  0  0  0
  1  6  1  0
  1 16  1  0
  2  3  2  0
  2  8  1  0
  4  3  1  0
  5  4  2  0
  6  5  1  0
  6  7  2  0
  7  2  1  0
  8  9  1  0
  9 10  2  0
 10 11  1  0
 12 11  2  0
 13 12  1  0
 14 13  2  0
 14  9  1  0
 15  1  1  0
 17 16  1  0
 17 18  1  0
 19 17  1  0
 19 18  1  0
 20 19  1  0
 21 20  2  0
 22 21  1  0
 23 22  2  0
 23 24  1  0
 24 25  2  0
 25 20  1  0
  1 26  1  6
  3 27  1  0
  4 28  1  0
  8 29  1  0
  8 30  1  0
 10 31  1  0
 11 32  1  0
 13 33  1  0
 15 34  1  0
 15 35  1  0
 15 36  1  0
 16 37  1  0
 16 38  1  0
 17 39  1  6
 18 40  1  0
 18 41  1  0
 19 42  1  1
 21 43  1  0
 22 44  1  0
 23 45  1  0
 24 46  1  0
 25 47  1  0
M  ISO  8  26   8  27  14  28  14  29   8  30   8  31  14  32  14  33  14
M  ISO  8  34   8  35   8  36   8  37   8  38   8  39  13  40  13  41  13
M  ISO  6  42  13  43  14  44  14  45  14  46  14  47  14
M  END
>  <minimizedAffinity>  (1) 
-5.98428679

>  <minimizedRMSD>  (1) 
1.02180851

$$$$
