
     RDKit          3D

 50 53  0  0  1  0  0  0  0  0999 V2000
   41.4060   26.2310   34.0920 C   0  0  2  0  0  0  0  0  0  0  0  0
   42.0400   23.2090   36.1420 C   0  0  0  0  0  0  0  0  0  0  0  0
   43.3630   23.4290   36.5470 C   0  0  0  0  0  0  0  0  0  0  0  0
   44.0690   24.5620   36.1540 C   0  0  0  0  0  0  0  0  0  0  0  0
   43.4360   25.4530   35.3610 N   0  0  0  0  0  0  0  0  0  0  0  0
   42.1570   25.2570   34.9590 C   0  0  0  0  0  0  0  0  0  0  0  0
   41.4890   24.1540   35.3500 N   0  0  0  0  0  0  0  0  0  0  0  0
   41.2900   21.9960   36.5780 C   0  0  0  0  0  0  0  0  0  0  0  0
   39.8980   22.4390   36.8500 C   0  0  0  0  0  0  0  0  0  0  0  0
   39.5160   23.0790   37.9920 C   0  0  0  0  0  0  0  0  0  0  0  0
   38.1980   23.4760   38.1910 C   0  0  0  0  0  0  0  0  0  0  0  0
   37.3220   23.2060   37.2180 N   0  0  0  0  0  0  0  0  0  0  0  0
   37.7190   22.5700   36.0920 C   0  0  0  0  0  0  0  0  0  0  0  0
   38.9680   22.2090   35.9350 N   0  0  0  0  0  0  0  0  0  0  0  0
   42.2720   27.1210   33.3190 C   0  0  0  0  0  0  0  0  0  0  0  0
   40.3580   26.9250   34.9570 C   0  0  0  0  0  0  0  0  0  0  0  0
   39.0490   26.9890   34.2860 C   0  0  2  0  0  0  0  0  0  0  0  0
   37.8230   27.3870   35.0530 C   0  0  0  0  0  0  0  0  0  0  0  0
   37.9430   26.0440   34.4070 C   0  0  1  0  0  0  0  0  0  0  0  0
   37.0620   25.7940   33.2650 N   0  0  0  0  0  0  0  0  0  0  0  0
   36.8890   24.5400   32.7780 C   0  0  0  0  0  0  0  0  0  0  0  0
   36.0430   24.3490   31.6930 C   0  0  0  0  0  0  0  0  0  0  0  0
   35.8720   22.9640   31.1790 C   0  0  0  0  0  0  0  0  0  0  0  0
   35.3810   25.4080   31.1060 C   0  0  0  0  0  0  0  0  0  0  0  0
   34.6130   25.1960   30.1130 O   0  0  0  0  0  0  0  0  0  0  0  0
   35.5870   26.6210   31.6270 N   0  0  0  0  0  0  0  0  0  0  0  0
   36.4040   26.8380   32.6820 C   0  0  0  0  0  0  0  0  0  0  0  0
   36.5850   27.9810   33.1550 O   0  0  0  0  0  0  0  0  0  0  0  0
   40.8798   25.6895   33.2920 H   0  0  0  0  0  0  0  0  0  0  0  0
   43.8564   22.6871   37.1922 H   0  0  0  0  0  0  0  0  0  0  0  0
   45.1072   24.7262   36.4783 H   0  0  0  0  0  0  0  0  0  0  0  0
   41.2990   21.2366   35.7822 H   0  0  0  0  0  0  0  0  0  0  0  0
   41.7465   21.5443   37.4711 H   0  0  0  0  0  0  0  0  0  0  0  0
   40.2648   23.2853   38.7709 H   0  0  0  0  0  0  0  0  0  0  0  0
   37.8888   23.9915   39.1122 H   0  0  0  0  0  0  0  0  0  0  0  0
   36.9859   22.3541   35.3009 H   0  0  0  0  0  0  0  0  0  0  0  0
   42.8713   27.7369   34.0057 H   0  0  0  0  0  0  0  0  0  0  0  0
   42.9417   26.5214   32.6850 H   0  0  0  0  0  0  0  0  0  0  0  0
   41.6543   27.7740   32.6850 H   0  0  0  0  0  0  0  0  0  0  0  0
   40.2482   26.3676   35.8989 H   0  0  0  0  0  0  0  0  0  0  0  0
   40.6968   27.9548   35.1436 H   0  0  0  0  0  0  0  0  0  0  0  0
   39.6187   27.3424   33.4139 H   0  0  0  0  0  0  0  0  0  0  0  0
   37.8603   27.4808   36.1484 H   0  0  0  0  0  0  0  0  0  0  0  0
   37.1044   28.2189   35.0126 H   0  0  0  0  0  0  0  0  0  0  0  0
   37.8854   24.9958   34.7356 H   0  0  0  0  0  0  0  0  0  0  0  0
   37.4110   23.6867   33.2356 H   0  0  0  0  0  0  0  0  0  0  0  0
   35.7859   22.2668   32.0255 H   0  0  0  0  0  0  0  0  0  0  0  0
   34.9604   22.9104   30.5657 H   0  0  0  0  0  0  0  0  0  0  0  0
   36.7432   22.6903   30.5657 H   0  0  0  0  0  0  0  0  0  0  0  0
   35.1019   27.4263   31.2062 H   0  0  0  0  0  0  0  0  0  0  0  0
  1 16  1  0
  1  6  1  0
  2  3  2  0
  2  8  1  0
  4  3  1  0
  5  4  2  0
  6  7  2  0
  6  5  1  0
  7  2  1  0
  8  9  1  0
  9 10  2  0
 10 11  1  0
 12 11  2  0
 13 12  1  0
 14 13  2  0
 14  9  1  0
 15  1  1  0
 17 19  1  0
 17 16  1  0
 17 18  1  0
 19 18  1  0
 20 19  1  0
 21 20  1  0
 22 21  2  0
 23 22  1  0
 24 26  1  0
 24 22  1  0
 25 24  2  0
 26 27  1  0
 27 28  2  0
 27 20  1  0
  1 29  1  6
  3 30  1  0
  4 31  1  0
  8 32  1  0
  8 33  1  0
 10 34  1  0
 11 35  1  0
 13 36  1  0
 15 37  1  0
 15 38  1  0
 15 39  1  0
 16 40  1  0
 16 41  1  0
 17 42  1  6
 18 43  1  0
 18 44  1  0
 19 45  1  1
 21 46  1  0
 23 47  1  0
 23 48  1  0
 23 49  1  0
 26 50  1  0
M  ISO  8  29   8  30  14  31  14  32   8  33   8  34  14  35  14  36  14
M  ISO  8  37   8  38   8  39   8  40   8  41   8  42  13  43  13  44  13
M  ISO  6  45  13  46  14  47   8  48   8  49   8  50   9
M  END
>  <minimizedAffinity>  (1) 
-6.42825747

>  <minimizedRMSD>  (1) 
1.18611753

$$$$
