
     RDKit          3D

 45 48  0  0  1  0  0  0  0  0999 V2000
   41.2150   26.3000   34.1890 C   0  0  2  0  0  0  0  0  0  0  0  0
   41.9970   23.2560   36.1420 C   0  0  0  0  0  0  0  0  0  0  0  0
   43.3440   23.4620   36.4530 C   0  0  0  0  0  0  0  0  0  0  0  0
   44.0270   24.6080   36.0200 C   0  0  0  0  0  0  0  0  0  0  0  0
   43.3270   25.5010   35.2920 N   0  0  0  0  0  0  0  0  0  0  0  0
   42.0290   25.3170   34.9840 C   0  0  0  0  0  0  0  0  0  0  0  0
   41.3910   24.2050   35.4120 N   0  0  0  0  0  0  0  0  0  0  0  0
   41.2870   22.0360   36.6200 C   0  0  0  0  0  0  0  0  0  0  0  0
   39.8780   22.4440   36.8730 C   0  0  0  0  0  0  0  0  0  0  0  0
   39.4660   23.0950   37.9970 C   0  0  0  0  0  0  0  0  0  0  0  0
   38.1320   23.4510   38.1670 C   0  0  0  0  0  0  0  0  0  0  0  0
   37.2780   23.1290   37.1860 N   0  0  0  0  0  0  0  0  0  0  0  0
   37.7130   22.4850   36.0870 C   0  0  0  0  0  0  0  0  0  0  0  0
   38.9740   22.1590   35.9470 N   0  0  0  0  0  0  0  0  0  0  0  0
   42.0170   27.2620   33.4380 C   0  0  0  0  0  0  0  0  0  0  0  0
   40.1390   26.8750   35.1080 C   0  0  0  0  0  0  0  0  0  0  0  0
   38.8450   26.9590   34.3920 C   0  0  2  0  0  0  0  0  0  0  0  0
   37.5980   27.3090   35.1900 C   0  0  0  0  0  0  0  0  0  0  0  0
   37.7250   25.9960   34.4810 C   0  0  1  0  0  0  0  0  0  0  0  0
   37.0370   25.8490   33.1420 C   0  0  0  0  0  0  0  0  0  0  0  0
   36.8260   24.7700   32.3110 C   0  0  0  0  0  0  0  0  0  0  0  0
   36.1360   24.9630   31.1430 C   0  0  0  0  0  0  0  0  0  0  0  0
   35.6620   26.1710   30.7890 N   0  0  0  0  0  0  0  0  0  0  0  0
   35.8670   27.2260   31.5970 C   0  0  0  0  0  0  0  0  0  0  0  0
   36.5410   27.0620   32.7480 N   0  0  0  0  0  0  0  0  0  0  0  0
   40.6978   25.7890   33.3636 H   0  0  0  0  0  0  0  0  0  0  0  0
   43.8798   22.7094   37.0500 H   0  0  0  0  0  0  0  0  0  0  0  0
   45.0872   24.7710   36.2637 H   0  0  0  0  0  0  0  0  0  0  0  0
   41.3235   21.2489   35.8524 H   0  0  0  0  0  0  0  0  0  0  0  0
   41.7553   21.6317   37.5295 H   0  0  0  0  0  0  0  0  0  0  0  0
   40.1978   23.3422   38.7801 H   0  0  0  0  0  0  0  0  0  0  0  0
   37.7915   23.9763   39.0715 H   0  0  0  0  0  0  0  0  0  0  0  0
   36.9970   22.2279   35.2925 H   0  0  0  0  0  0  0  0  0  0  0  0
   42.5599   27.9132   34.1389 H   0  0  0  0  0  0  0  0  0  0  0  0
   42.7375   26.7236   32.8047 H   0  0  0  0  0  0  0  0  0  0  0  0
   41.3578   27.8738   32.8047 H   0  0  0  0  0  0  0  0  0  0  0  0
   40.0261   26.2235   35.9871 H   0  0  0  0  0  0  0  0  0  0  0  0
   40.4399   27.8846   35.4245 H   0  0  0  0  0  0  0  0  0  0  0  0
   39.4116   27.3438   33.5312 H   0  0  0  0  0  0  0  0  0  0  0  0
   37.6374   27.3510   36.2885 H   0  0  0  0  0  0  0  0  0  0  0  0
   36.8713   28.1348   35.1895 H   0  0  0  0  0  0  0  0  0  0  0  0
   37.5680   24.9621   34.8222 H   0  0  0  0  0  0  0  0  0  0  0  0
   37.2043   23.7728   32.5802 H   0  0  0  0  0  0  0  0  0  0  0  0
   35.9648   24.1054   30.4757 H   0  0  0  0  0  0  0  0  0  0  0  0
   35.4848   28.2188   31.3172 H   0  0  0  0  0  0  0  0  0  0  0  0
  1  6  1  0
  1 16  1  0
  2  3  2  0
  2  8  1  0
  4  3  1  0
  5  4  2  0
  6  5  1  0
  6  7  2  0
  7  2  1  0
  8  9  1  0
  9 10  2  0
 10 11  1  0
 12 11  2  0
 13 12  1  0
 14 13  2  0
 14  9  1  0
 15  1  1  0
 17 19  1  0
 17 16  1  0
 17 18  1  0
 19 18  1  0
 20 19  1  0
 21 20  2  0
 22 21  1  0
 23 22  2  0
 23 24  1  0
 24 25  2  0
 25 20  1  0
  1 26  1  6
  3 27  1  0
  4 28  1  0
  8 29  1  0
  8 30  1  0
 10 31  1  0
 11 32  1  0
 13 33  1  0
 15 34  1  0
 15 35  1  0
 15 36  1  0
 16 37  1  0
 16 38  1  0
 17 39  1  6
 18 40  1  0
 18 41  1  0
 19 42  1  1
 21 43  1  0
 22 44  1  0
 24 45  1  0
M  ISO  8  26   8  27  14  28  14  29   8  30   8  31  14  32  14  33  14
M  ISO  8  34   8  35   8  36   8  37   8  38   8  39  13  40  13  41  13
M  ISO  4  42  13  43  14  44  14  45  14
M  END
>  <minimizedAffinity>  (1) 
-5.97142649

>  <minimizedRMSD>  (1) 
0.844315112

$$$$
