
     RDKit          3D

 42 45  0  0  1  0  0  0  0  0999 V2000
   41.1930   26.2980   34.1940 C   0  0  2  0  0  0  0  0  0  0  0  0
   41.9990   23.2630   36.1560 C   0  0  0  0  0  0  0  0  0  0  0  0
   43.3460   23.4760   36.4610 C   0  0  0  0  0  0  0  0  0  0  0  0
   44.0180   24.6230   36.0220 C   0  0  0  0  0  0  0  0  0  0  0  0
   43.3130   25.5130   35.2940 N   0  0  0  0  0  0  0  0  0  0  0  0
   42.0120   25.3200   34.9900 C   0  0  0  0  0  0  0  0  0  0  0  0
   41.3850   24.2100   35.4230 N   0  0  0  0  0  0  0  0  0  0  0  0
   41.2940   22.0380   36.6400 C   0  0  0  0  0  0  0  0  0  0  0  0
   39.8840   22.4380   36.8870 C   0  0  0  0  0  0  0  0  0  0  0  0
   39.4610   23.0860   38.0090 C   0  0  0  0  0  0  0  0  0  0  0  0
   38.1280   23.4370   38.1800 C   0  0  0  0  0  0  0  0  0  0  0  0
   37.2780   23.1120   37.1980 N   0  0  0  0  0  0  0  0  0  0  0  0
   37.7150   22.4710   36.0950 C   0  0  0  0  0  0  0  0  0  0  0  0
   38.9800   22.1520   35.9600 N   0  0  0  0  0  0  0  0  0  0  0  0
   41.9880   27.3060   33.4940 C   0  0  0  0  0  0  0  0  0  0  0  0
   40.0710   26.8120   35.0900 C   0  0  0  0  0  0  0  0  0  0  0  0
   38.8250   27.0170   34.3280 C   0  0  2  0  0  0  0  0  0  0  0  0
   37.5590   27.4140   35.0260 C   0  0  0  0  0  0  0  0  0  0  0  0
   37.6660   26.1370   34.2510 C   0  0  1  0  0  0  0  0  0  0  0  0
   36.8780   26.1350   32.9880 C   0  0  0  0  0  0  0  0  0  0  0  0
   36.4040   27.2870   32.4240 N   0  0  0  0  0  0  0  0  0  0  0  0
   35.7520   27.0120   31.3340 O   0  0  0  0  0  0  0  0  0  0  0  0
   35.7870   25.7110   31.1670 C   0  0  0  0  0  0  0  0  0  0  0  0
   36.4790   25.1610   32.1820 N   0  0  0  0  0  0  0  0  0  0  0  0
   40.7201   25.7939   33.3383 H   0  0  0  0  0  0  0  0  0  0  0  0
   43.8888   22.7280   37.0575 H   0  0  0  0  0  0  0  0  0  0  0  0
   45.0784   24.7916   36.2612 H   0  0  0  0  0  0  0  0  0  0  0  0
   41.3374   21.2471   35.8768 H   0  0  0  0  0  0  0  0  0  0  0  0
   41.7627   21.6414   37.5527 H   0  0  0  0  0  0  0  0  0  0  0  0
   40.1895   23.3359   38.7944 H   0  0  0  0  0  0  0  0  0  0  0  0
   37.7850   23.9603   39.0847 H   0  0  0  0  0  0  0  0  0  0  0  0
   37.0017   22.2125   35.2986 H   0  0  0  0  0  0  0  0  0  0  0  0
   42.4948   27.9486   34.2290 H   0  0  0  0  0  0  0  0  0  0  0  0
   42.7388   26.8077   32.8632 H   0  0  0  0  0  0  0  0  0  0  0  0
   41.3284   27.9200   32.8632 H   0  0  0  0  0  0  0  0  0  0  0  0
   39.8857   26.0781   35.8882 H   0  0  0  0  0  0  0  0  0  0  0  0
   40.3812   27.7789   35.5130 H   0  0  0  0  0  0  0  0  0  0  0  0
   39.4909   27.4175   33.5494 H   0  0  0  0  0  0  0  0  0  0  0  0
   37.5009   27.3934   36.1243 H   0  0  0  0  0  0  0  0  0  0  0  0
   36.8937   28.2899   35.0142 H   0  0  0  0  0  0  0  0  0  0  0  0
   37.5228   25.0657   34.4557 H   0  0  0  0  0  0  0  0  0  0  0  0
   35.3262   25.1600   30.3339 H   0  0  0  0  0  0  0  0  0  0  0  0
  1  6  1  0
  1 16  1  0
  2  3  2  0
  2  8  1  0
  4  3  1  0
  5  4  2  0
  6  5  1  0
  6  7  2  0
  7  2  1  0
  8  9  1  0
  9 10  2  0
 10 11  1  0
 12 11  2  0
 13 12  1  0
 14 13  2  0
 14  9  1  0
 15  1  1  0
 17 18  1  0
 17 16  1  0
 19 17  1  0
 19 18  1  0
 20 19  1  0
 21 20  2  0
 22 21  1  0
 23 22  1  0
 23 24  2  0
 24 20  1  0
  1 25  1  6
  3 26  1  0
  4 27  1  0
  8 28  1  0
  8 29  1  0
 10 30  1  0
 11 31  1  0
 13 32  1  0
 15 33  1  0
 15 34  1  0
 15 35  1  0
 16 36  1  0
 16 37  1  0
 17 38  1  6
 18 39  1  0
 18 40  1  0
 19 41  1  1
 23 42  1  0
M  ISO  8  25   8  26  14  27  14  28   8  29   8  30  14  31  14  32  14
M  ISO  8  33   8  34   8  35   8  36   8  37   8  38  13  39  13  40  13
M  ISO  2  41  13  42  14
M  END
>  <minimizedAffinity>  (1) 
-5.81180143

>  <minimizedRMSD>  (1) 
0.966416955

$$$$
