
     RDKit          3D

 35 37  0  0  1  0  0  0  0  0999 V2000
   41.8250   22.2080   36.3060 C   0  0  0  0  0  0  0  0  0  0  0  0
   42.5910   23.4030   36.4230 N   0  0  0  0  0  0  0  0  0  0  0  0
   42.5120   24.3030   35.3140 C   0  0  0  0  0  0  0  0  0  0  0  0
   43.5900   25.3200   35.6330 C   0  0  0  0  0  0  0  0  0  0  0  0
   44.5250   24.6410   36.6140 C   0  0  0  0  0  0  0  0  0  0  0  0
   44.0000   23.2010   36.5520 C   0  0  2  0  0  0  0  0  0  0  0  0
   44.6350   22.4480   35.4250 C   0  0  0  0  0  0  0  0  0  0  0  0
   45.3740   21.1700   35.8550 C   0  0  0  0  0  0  0  0  0  0  0  0
   46.0980   22.3380   35.2360 C   0  0  0  0  0  0  0  0  0  0  0  0
   40.9890   21.8850   37.5160 C   0  0  0  0  0  0  0  0  0  0  0  0
   37.9450   23.5860   36.1130 C   0  0  0  0  0  0  0  0  0  0  0  0
   39.1150   22.8440   36.2520 C   0  0  0  0  0  0  0  0  0  0  0  0
   39.7560   22.6760   37.4500 C   0  0  0  0  0  0  0  0  0  0  0  0
   39.1880   23.2760   38.5170 N   0  0  0  0  0  0  0  0  0  0  0  0
   38.0580   23.9960   38.4000 C   0  0  0  0  0  0  0  0  0  0  0  0
   37.4390   24.1600   37.2430 N   0  0  0  0  0  0  0  0  0  0  0  0
   41.1530   22.3132   35.4415 H   0  0  0  0  0  0  0  0  0  0  0  0
   42.5442   21.3836   36.1917 H   0  0  0  0  0  0  0  0  0  0  0  0
   41.5217   24.7787   35.2589 H   0  0  0  0  0  0  0  0  0  0  0  0
   42.6513   23.8098   34.3407 H   0  0  0  0  0  0  0  0  0  0  0  0
   44.1332   25.6012   34.7188 H   0  0  0  0  0  0  0  0  0  0  0  0
   43.1631   26.2421   36.0543 H   0  0  0  0  0  0  0  0  0  0  0  0
   45.5732   24.7053   36.2866 H   0  0  0  0  0  0  0  0  0  0  0  0
   44.5313   25.0830   37.6213 H   0  0  0  0  0  0  0  0  0  0  0  0
   44.2383   22.5742   37.4240 H   0  0  0  0  0  0  0  0  0  0  0  0
   43.8364   22.7554   34.7338 H   0  0  0  0  0  0  0  0  0  0  0  0
   45.5059   20.9374   36.9220 H   0  0  0  0  0  0  0  0  0  0  0  0
   45.2818   20.0953   35.6395 H   0  0  0  0  0  0  0  0  0  0  0  0
   46.5104   22.2467   34.2203 H   0  0  0  0  0  0  0  0  0  0  0  0
   46.9579   22.9537   35.5384 H   0  0  0  0  0  0  0  0  0  0  0  0
   40.7429   20.8129   37.5223 H   0  0  0  0  0  0  0  0  0  0  0  0
   41.5442   22.1256   38.4347 H   0  0  0  0  0  0  0  0  0  0  0  0
   37.4512   23.7041   35.1372 H   0  0  0  0  0  0  0  0  0  0  0  0
   39.5446   22.3704   35.3569 H   0  0  0  0  0  0  0  0  0  0  0  0
   37.6333   24.4655   39.2995 H   0  0  0  0  0  0  0  0  0  0  0  0
  1  2  1  0
  1 10  1  0
  2  6  1  0
  3  4  1  0
  3  2  1  0
  4  5  1  0
  6  5  1  0
  7  8  1  0
  7  6  1  0
  9  7  1  0
  9  8  1  0
 11 12  2  0
 11 16  1  0
 12 13  1  0
 13 10  1  0
 13 14  2  0
 15 14  1  0
 16 15  2  0
  1 17  1  0
  1 18  1  0
  3 19  1  0
  3 20  1  0
  4 21  1  0
  4 22  1  0
  5 23  1  0
  5 24  1  0
  6 25  1  1
  7 26  1  0
  8 27  1  0
  8 28  1  0
  9 29  1  0
  9 30  1  0
 10 31  1  0
 10 32  1  0
 11 33  1  0
 12 34  1  0
 15 35  1  0
M  ISO  8  17   8  18   8  19  13  20  13  21  13  22  13  23  13  24  13
M  ISO  8  25  13  26  13  27  13  28  13  29  13  30  13  31   8  32   8
M  ISO  3  33  14  34  14  35  14
M  END
>  <minimizedAffinity>  (1) 
-3.86474347

>  <minimizedRMSD>  (1) 
0.845887065

$$$$
