
     RDKit          3D

 50 53  0  0  1  0  0  0  0  0999 V2000
   41.8280   26.2440   33.8020 C   0  0  2  0  0  0  0  0  0  0  0  0
   42.0050   23.2370   35.9540 C   0  0  0  0  0  0  0  0  0  0  0  0
   43.1930   23.4710   36.6620 C   0  0  0  0  0  0  0  0  0  0  0  0
   43.9570   24.6150   36.4390 C   0  0  0  0  0  0  0  0  0  0  0  0
   43.5130   25.4950   35.5160 N   0  0  0  0  0  0  0  0  0  0  0  0
   42.3680   25.2820   34.8250 C   0  0  0  0  0  0  0  0  0  0  0  0
   41.6430   24.1690   35.0550 N   0  0  0  0  0  0  0  0  0  0  0  0
   41.1890   22.0120   36.2100 C   0  0  0  0  0  0  0  0  0  0  0  0
   39.9100   22.4740   36.8100 C   0  0  0  0  0  0  0  0  0  0  0  0
   39.8110   23.0100   38.0590 C   0  0  0  0  0  0  0  0  0  0  0  0
   38.5880   23.4340   38.5680 C   0  0  0  0  0  0  0  0  0  0  0  0
   37.5160   23.2900   37.7760 N   0  0  0  0  0  0  0  0  0  0  0  0
   37.6430   22.7560   36.5430 C   0  0  0  0  0  0  0  0  0  0  0  0
   38.8060   22.3650   36.0860 N   0  0  0  0  0  0  0  0  0  0  0  0
   42.7430   27.3380   33.4790 C   0  0  0  0  0  0  0  0  0  0  0  0
   40.4180   26.6460   34.2310 C   0  0  0  0  0  0  0  0  0  0  0  0
   39.4180   26.1990   33.2350 C   0  0  2  0  0  0  0  0  0  0  0  0
   38.6930   27.2670   32.4300 C   0  0  0  0  0  0  0  0  0  0  0  0
   37.9520   26.3320   33.3410 C   0  0  1  0  0  0  0  0  0  0  0  0
   36.2010   22.7480   31.7650 C   0  0  0  0  0  0  0  0  0  0  0  0
   35.6480   23.9470   31.4070 C   0  0  0  0  0  0  0  0  0  0  0  0
   36.1190   25.1560   31.8500 C   0  0  0  0  0  0  0  0  0  0  0  0
   37.2030   25.1900   32.6980 C   0  0  0  0  0  0  0  0  0  0  0  0
   37.7750   23.9650   33.0710 C   0  0  0  0  0  0  0  0  0  0  0  0
   37.2840   22.7610   32.6130 C   0  0  0  0  0  0  0  0  0  0  0  0
   35.4710   21.2960   31.1050 S   0  0  0  0  0  0  0  0  0  0  0  0
   34.6190   20.6730   32.1780 O   0  0  0  0  0  0  0  0  0  0  0  0
   36.4680   20.3450   30.5530 O   0  0  0  0  0  0  0  0  0  0  0  0
   41.7463   25.7514   32.8219 H   0  0  0  0  0  0  0  0  0  0  0  0
   43.5286   22.7363   37.4087 H   0  0  0  0  0  0  0  0  0  0  0  0
   44.8888   24.7948   36.9952 H   0  0  0  0  0  0  0  0  0  0  0  0
   40.9959   21.4802   35.2667 H   0  0  0  0  0  0  0  0  0  0  0  0
   41.7149   21.3171   36.8812 H   0  0  0  0  0  0  0  0  0  0  0  0
   40.7158   23.1093   38.6766 H   0  0  0  0  0  0  0  0  0  0  0  0
   38.5042   23.8680   39.5753 H   0  0  0  0  0  0  0  0  0  0  0  0
   36.7509   22.6470   35.9088 H   0  0  0  0  0  0  0  0  0  0  0  0
   43.1194   27.7880   34.4095 H   0  0  0  0  0  0  0  0  0  0  0  0
   43.5879   26.9482   32.8923 H   0  0  0  0  0  0  0  0  0  0  0  0
   42.2100   28.1007   32.8923 H   0  0  0  0  0  0  0  0  0  0  0  0
   40.1910   26.1832   35.2027 H   0  0  0  0  0  0  0  0  0  0  0  0
   40.3723   27.7423   34.3091 H   0  0  0  0  0  0  0  0  0  0  0  0
   40.0563   25.3200   33.0619 H   0  0  0  0  0  0  0  0  0  0  0  0
   38.8009   28.3292   32.6947 H   0  0  0  0  0  0  0  0  0  0  0  0
   38.6305   27.5443   31.3674 H   0  0  0  0  0  0  0  0  0  0  0  0
   37.2258   26.4960   34.1507 H   0  0  0  0  0  0  0  0  0  0  0  0
   34.7815   23.9408   30.7294 H   0  0  0  0  0  0  0  0  0  0  0  0
   35.6350   26.0907   31.5306 H   0  0  0  0  0  0  0  0  0  0  0  0
   38.6411   23.9649   33.7491 H   0  0  0  0  0  0  0  0  0  0  0  0
   37.7552   21.8168   32.9237 H   0  0  0  0  0  0  0  0  0  0  0  0
   34.6902   21.6355   30.0317 H   0  0  0  0  0  0  0  0  0  0  0  0
  1 16  1  0
  1  6  1  0
  2  8  1  0
  2  3  2  0
  4  3  1  0
  5  4  2  0
  6  7  2  0
  6  5  1  0
  7  2  1  0
  8  9  1  0
  9 10  2  0
 10 11  1  0
 12 11  2  0
 13 12  1  0
 14 13  2  0
 14  9  1  0
 15  1  1  0
 17 19  1  0
 17 16  1  0
 18 17  1  0
 18 19  1  0
 20 25  2  0
 21 20  1  0
 21 22  2  0
 22 23  1  0
 23 24  2  0
 23 19  1  0
 25 24  1  0
 26 20  1  0
 26 27  2  0
 28 26  2  0
  1 29  1  6
  3 30  1  0
  4 31  1  0
  8 32  1  0
  8 33  1  0
 10 34  1  0
 11 35  1  0
 13 36  1  0
 15 37  1  0
 15 38  1  0
 15 39  1  0
 16 40  1  0
 16 41  1  0
 17 42  1  6
 18 43  1  0
 18 44  1  0
 19 45  1  1
 21 46  1  0
 22 47  1  0
 24 48  1  0
 25 49  1  0
 26 50  1  0
M  ISO  8  29   8  30  14  31  14  32   8  33   8  34  14  35  14  36  14
M  ISO  8  37   8  38   8  39   8  40   8  41   8  42  13  43  13  44  13
M  ISO  6  45  13  46  14  47  14  48  14  49  14  50  11
M  END
>  <minimizedAffinity>  (1) 
-5.866014

>  <minimizedRMSD>  (1) 
1.46695495

$$$$
