
     RDKit          3D

 44 47  0  0  1  0  0  0  0  0999 V2000
   41.1300   26.3080   34.1640 C   0  0  2  0  0  0  0  0  0  0  0  0
   41.9920   23.2950   36.1420 C   0  0  0  0  0  0  0  0  0  0  0  0
   43.3360   23.5290   36.4330 C   0  0  0  0  0  0  0  0  0  0  0  0
   43.9890   24.6780   35.9800 C   0  0  0  0  0  0  0  0  0  0  0  0
   43.2760   25.5600   35.2480 N   0  0  0  0  0  0  0  0  0  0  0  0
   41.9710   25.3440   34.9590 C   0  0  0  0  0  0  0  0  0  0  0  0
   41.3520   24.2290   35.4030 N   0  0  0  0  0  0  0  0  0  0  0  0
   41.2980   22.0690   36.6390 C   0  0  0  0  0  0  0  0  0  0  0  0
   39.8840   22.4510   36.8830 C   0  0  0  0  0  0  0  0  0  0  0  0
   39.4600   23.0910   38.0100 C   0  0  0  0  0  0  0  0  0  0  0  0
   38.1230   23.4300   38.1880 C   0  0  0  0  0  0  0  0  0  0  0  0
   37.2720   23.1030   37.2100 N   0  0  0  0  0  0  0  0  0  0  0  0
   37.7110   22.4690   36.1000 C   0  0  0  0  0  0  0  0  0  0  0  0
   38.9770   22.1630   35.9630 N   0  0  0  0  0  0  0  0  0  0  0  0
   41.9030   27.3390   33.4730 C   0  0  0  0  0  0  0  0  0  0  0  0
   39.9960   26.7970   35.0620 C   0  0  0  0  0  0  0  0  0  0  0  0
   38.7560   27.0270   34.3040 C   0  0  2  0  0  0  0  0  0  0  0  0
   37.5010   27.4270   35.0210 C   0  0  0  0  0  0  0  0  0  0  0  0
   37.5790   26.1580   34.2480 C   0  0  1  0  0  0  0  0  0  0  0  0
   36.9060   26.0550   32.9640 N   0  0  0  0  0  0  0  0  0  0  0  0
   36.4910   27.2160   32.3780 C   0  0  0  0  0  0  0  0  0  0  0  0
   35.8940   26.8250   31.1910 C   0  0  0  0  0  0  0  0  0  0  0  0
   35.9440   25.4860   31.0620 N   0  0  0  0  0  0  0  0  0  0  0  0
   36.5690   25.0280   32.1610 C   0  0  0  0  0  0  0  0  0  0  0  0
   40.6710   25.7943   33.3064 H   0  0  0  0  0  0  0  0  0  0  0  0
   43.8933   22.7935   37.0317 H   0  0  0  0  0  0  0  0  0  0  0  0
   45.0491   24.8580   36.2121 H   0  0  0  0  0  0  0  0  0  0  0  0
   41.3506   21.2708   35.8840 H   0  0  0  0  0  0  0  0  0  0  0  0
   41.7707   21.6905   37.5573 H   0  0  0  0  0  0  0  0  0  0  0  0
   40.1895   23.3440   38.7934 H   0  0  0  0  0  0  0  0  0  0  0  0
   37.7796   23.9462   39.0966 H   0  0  0  0  0  0  0  0  0  0  0  0
   36.9981   22.2075   35.3041 H   0  0  0  0  0  0  0  0  0  0  0  0
   42.3908   27.9897   34.2137 H   0  0  0  0  0  0  0  0  0  0  0  0
   42.6684   26.8627   32.8427 H   0  0  0  0  0  0  0  0  0  0  0  0
   41.2312   27.9403   32.8427 H   0  0  0  0  0  0  0  0  0  0  0  0
   39.8041   26.0399   35.8366 H   0  0  0  0  0  0  0  0  0  0  0  0
   40.3041   27.7533   35.5099 H   0  0  0  0  0  0  0  0  0  0  0  0
   39.4135   27.4251   33.5171 H   0  0  0  0  0  0  0  0  0  0  0  0
   37.4600   27.4042   36.1200 H   0  0  0  0  0  0  0  0  0  0  0  0
   36.8426   28.3082   35.0199 H   0  0  0  0  0  0  0  0  0  0  0  0
   37.3591   25.1092   34.4964 H   0  0  0  0  0  0  0  0  0  0  0  0
   36.6058   28.2395   32.7645 H   0  0  0  0  0  0  0  0  0  0  0  0
   35.4434   27.5107   30.4583 H   0  0  0  0  0  0  0  0  0  0  0  0
   36.7750   23.9685   32.3732 H   0  0  0  0  0  0  0  0  0  0  0  0
  1  6  1  0
  1 16  1  0
  2  3  2  0
  2  8  1  0
  4  3  1  0
  5  4  2  0
  6  5  1  0
  6  7  2  0
  7  2  1  0
  8  9  1  0
  9 10  2  0
 10 11  1  0
 12 11  2  0
 13 12  1  0
 14 13  2  0
 14  9  1  0
 15  1  1  0
 17 18  1  0
 17 16  1  0
 19 17  1  0
 19 18  1  0
 20 19  1  0
 21 20  1  0
 22 21  2  0
 23 22  1  0
 23 24  2  0
 24 20  1  0
  1 25  1  6
  3 26  1  0
  4 27  1  0
  8 28  1  0
  8 29  1  0
 10 30  1  0
 11 31  1  0
 13 32  1  0
 15 33  1  0
 15 34  1  0
 15 35  1  0
 16 36  1  0
 16 37  1  0
 17 38  1  6
 18 39  1  0
 18 40  1  0
 19 41  1  1
 21 42  1  0
 22 43  1  0
 24 44  1  0
M  ISO  8  25   8  26  14  27  14  28   8  29   8  30  14  31  14  32  14
M  ISO  8  33   8  34   8  35   8  36   8  37   8  38  13  39  13  40  13
M  ISO  4  41  13  42  14  43  14  44  14
M  END
>  <minimizedAffinity>  (1) 
-5.81218863

>  <minimizedRMSD>  (1) 
1.03293729

$$$$
