
     RDKit          3D

 43 46  0  0  1  0  0  0  0  0999 V2000
   41.0470   26.3230   34.1520 C   0  0  2  0  0  0  0  0  0  0  0  0
   41.9650   23.3240   36.1230 C   0  0  0  0  0  0  0  0  0  0  0  0
   43.3180   23.5590   36.3750 C   0  0  0  0  0  0  0  0  0  0  0  0
   43.9570   24.7060   35.8960 C   0  0  0  0  0  0  0  0  0  0  0  0
   43.2230   25.5820   35.1790 N   0  0  0  0  0  0  0  0  0  0  0  0
   41.9100   25.3640   34.9280 C   0  0  0  0  0  0  0  0  0  0  0  0
   41.3050   24.2530   35.3970 N   0  0  0  0  0  0  0  0  0  0  0  0
   41.2880   22.0990   36.6480 C   0  0  0  0  0  0  0  0  0  0  0  0
   39.8700   22.4700   36.8840 C   0  0  0  0  0  0  0  0  0  0  0  0
   39.4350   23.1170   38.0030 C   0  0  0  0  0  0  0  0  0  0  0  0
   38.0950   23.4470   38.1740 C   0  0  0  0  0  0  0  0  0  0  0  0
   37.2510   23.1010   37.1940 N   0  0  0  0  0  0  0  0  0  0  0  0
   37.6990   22.4610   36.0930 C   0  0  0  0  0  0  0  0  0  0  0  0
   38.9680   22.1650   35.9630 N   0  0  0  0  0  0  0  0  0  0  0  0
   41.8020   27.3590   33.4470 C   0  0  0  0  0  0  0  0  0  0  0  0
   39.9510   26.8340   35.0860 C   0  0  0  0  0  0  0  0  0  0  0  0
   38.6260   26.7960   34.4470 C   0  0  2  0  0  0  0  0  0  0  0  0
   37.4630   26.1880   35.1730 C   0  0  0  0  0  0  0  0  0  0  0  0
   37.9550   25.6250   33.8840 C   0  0  1  0  0  0  0  0  0  0  0  0
   37.0160   25.7570   32.8000 N   0  0  0  0  0  0  0  0  0  0  0  0
   36.4520   26.8080   32.2080 C   0  0  0  0  0  0  0  0  0  0  0  0
   35.6160   26.4210   31.2130 N   0  0  0  0  0  0  0  0  0  0  0  0
   35.6790   25.0720   31.2070 C   0  0  0  0  0  0  0  0  0  0  0  0
   36.5310   24.6740   32.1730 N   0  0  0  0  0  0  0  0  0  0  0  0
   40.5643   25.7967   33.3153 H   0  0  0  0  0  0  0  0  0  0  0  0
   43.8923   22.8271   36.9620 H   0  0  0  0  0  0  0  0  0  0  0  0
   45.0230   24.8885   36.0969 H   0  0  0  0  0  0  0  0  0  0  0  0
   41.3503   21.2849   35.9109 H   0  0  0  0  0  0  0  0  0  0  0  0
   41.7663   21.7457   37.5734 H   0  0  0  0  0  0  0  0  0  0  0  0
   40.1594   23.3834   38.7868 H   0  0  0  0  0  0  0  0  0  0  0  0
   37.7436   23.9699   39.0757 H   0  0  0  0  0  0  0  0  0  0  0  0
   36.9912   22.1855   35.2973 H   0  0  0  0  0  0  0  0  0  0  0  0
   42.2856   28.0225   34.1790 H   0  0  0  0  0  0  0  0  0  0  0  0
   42.5699   26.8877   32.8159 H   0  0  0  0  0  0  0  0  0  0  0  0
   41.1182   27.9457   32.8159 H   0  0  0  0  0  0  0  0  0  0  0  0
   39.9295   26.2042   35.9876 H   0  0  0  0  0  0  0  0  0  0  0  0
   40.1783   27.8800   35.3393 H   0  0  0  0  0  0  0  0  0  0  0  0
   38.9006   27.7667   34.0084 H   0  0  0  0  0  0  0  0  0  0  0  0
   37.6222   25.6401   36.1135 H   0  0  0  0  0  0  0  0  0  0  0  0
   36.4974   26.5514   35.5546 H   0  0  0  0  0  0  0  0  0  0  0  0
   38.3490   24.6687   33.5096 H   0  0  0  0  0  0  0  0  0  0  0  0
   36.6399   27.8546   32.4896 H   0  0  0  0  0  0  0  0  0  0  0  0
   35.1264   24.4077   30.5263 H   0  0  0  0  0  0  0  0  0  0  0  0
  1  6  1  0
  1 16  1  0
  2  3  2  0
  2  8  1  0
  4  3  1  0
  5  4  2  0
  6  5  1  0
  6  7  2  0
  7  2  1  0
  8  9  1  0
  9 10  2  0
 10 11  1  0
 12 11  2  0
 13 12  1  0
 14 13  2  0
 14  9  1  0
 15  1  1  0
 17 16  1  0
 17 18  1  0
 19 17  1  0
 19 18  1  0
 20 19  1  0
 21 20  1  0
 22 21  2  0
 23 22  1  0
 23 24  2  0
 24 20  1  0
  1 25  1  6
  3 26  1  0
  4 27  1  0
  8 28  1  0
  8 29  1  0
 10 30  1  0
 11 31  1  0
 13 32  1  0
 15 33  1  0
 15 34  1  0
 15 35  1  0
 16 36  1  0
 16 37  1  0
 17 38  1  6
 18 39  1  0
 18 40  1  0
 19 41  1  1
 21 42  1  0
 23 43  1  0
M  ISO  8  25   8  26  14  27  14  28   8  29   8  30  14  31  14  32  14
M  ISO  8  33   8  34   8  35   8  36   8  37   8  38  13  39  13  40  13
M  ISO  3  41  13  42  14  43  14
M  END
>  <minimizedAffinity>  (1) 
-5.75295115

>  <minimizedRMSD>  (1) 
1.11115909

$$$$
