
     RDKit          3D

 35 36  0  0  1  0  0  0  0  0999 V2000
   42.4940   23.4760   36.3680 N   0  0  0  0  0  0  0  0  0  0  0  0
   42.3590   24.2160   35.1240 C   0  0  0  0  0  0  0  0  0  0  0  0
   43.2260   25.4160   35.3580 C   0  0  0  0  0  0  0  0  0  0  0  0
   44.1860   25.0310   36.4750 C   0  0  0  0  0  0  0  0  0  0  0  0
   43.9190   23.5160   36.5670 C   0  0  2  0  0  0  0  0  0  0  0  0
   44.6500   22.9930   35.3960 N   0  0  0  0  0  0  0  0  0  0  0  0
   45.7430   22.0680   35.4970 C   0  0  0  0  0  0  0  0  0  0  0  0
   46.6590   22.4680   36.3430 N   0  0  0  0  0  0  0  0  0  0  0  0
   45.7090   20.8660   34.6950 N   0  0  0  0  0  0  0  0  0  0  0  0
   47.5180   21.9640   36.5670 H   0  0  0  0  0  0  0  0  0  0  0  0
   41.9280   22.1680   36.3080 C   0  0  0  0  0  0  0  0  0  0  0  0
   41.1090   21.8260   37.5220 C   0  0  0  0  0  0  0  0  0  0  0  0
   37.9160   23.1650   36.0750 C   0  0  0  0  0  0  0  0  0  0  0  0
   39.1390   22.5100   36.2490 C   0  0  0  0  0  0  0  0  0  0  0  0
   39.8270   22.5410   37.4350 C   0  0  0  0  0  0  0  0  0  0  0  0
   39.2550   23.2430   38.4340 N   0  0  0  0  0  0  0  0  0  0  0  0
   38.0860   23.8690   38.2750 C   0  0  0  0  0  0  0  0  0  0  0  0
   37.4150   23.8490   37.1420 N   0  0  0  0  0  0  0  0  0  0  0  0
   41.3136   24.5101   34.9490 H   0  0  0  0  0  0  0  0  0  0  0  0
   42.6494   23.6343   34.2367 H   0  0  0  0  0  0  0  0  0  0  0  0
   43.7844   25.6677   34.4443 H   0  0  0  0  0  0  0  0  0  0  0  0
   42.6272   26.2982   35.6286 H   0  0  0  0  0  0  0  0  0  0  0  0
   45.2306   25.2433   36.2035 H   0  0  0  0  0  0  0  0  0  0  0  0
   44.0370   25.5802   37.4164 H   0  0  0  0  0  0  0  0  0  0  0  0
   44.2130   22.9664   37.4734 H   0  0  0  0  0  0  0  0  0  0  0  0
   44.3611   23.3078   34.4588 H   0  0  0  0  0  0  0  0  0  0  0  0
   46.4821   20.1876   34.7508 H   0  0  0  0  0  0  0  0  0  0  0  0
   44.9117   20.6878   34.0677 H   0  0  0  0  0  0  0  0  0  0  0  0
   41.2815   22.1062   35.4202 H   0  0  0  0  0  0  0  0  0  0  0  0
   42.7608   21.4509   36.2602 H   0  0  0  0  0  0  0  0  0  0  0  0
   40.9278   20.7415   37.5542 H   0  0  0  0  0  0  0  0  0  0  0  0
   41.6456   22.1230   38.4352 H   0  0  0  0  0  0  0  0  0  0  0  0
   37.3797   23.1296   35.1153 H   0  0  0  0  0  0  0  0  0  0  0  0
   39.5649   21.9494   35.4038 H   0  0  0  0  0  0  0  0  0  0  0  0
   37.6659   24.4247   39.1263 H   0  0  0  0  0  0  0  0  0  0  0  0
  1  5  1  0
  2  3  1  0
  2  1  1  0
  3  4  1  0
  4  5  1  0
  6  7  1  0
  6  5  1  0
  7  8  2  0
  8 10  1  0
  9  7  1  0
 11  1  1  0
 11 12  1  0
 13 14  2  0
 13 18  1  0
 14 15  1  0
 15 12  1  0
 15 16  2  0
 17 16  1  0
 18 17  2  0
  2 19  1  0
  2 20  1  0
  3 21  1  0
  3 22  1  0
  4 23  1  0
  4 24  1  0
  5 25  1  1
  6 26  1  0
  9 27  1  0
  9 28  1  0
 11 29  1  0
 11 30  1  0
 12 31  1  0
 12 32  1  0
 13 33  1  0
 14 34  1  0
 17 35  1  0
M  ISO  8  19  13  20  13  21  13  22  13  23  13  24  13  25  13  29   8
M  ISO  6  30   8  31   8  32   8  33  14  34  14  35  14
M  END
>  <minimizedAffinity>  (1) 
-3.84055185

>  <minimizedRMSD>  (1) 
0.421130717

$$$$
