
     RDKit          3D

 40 42  0  0  1  0  0  0  0  0999 V2000
   41.9950   23.2810   36.1660 C   0  0  0  0  0  0  0  0  0  0  0  0
   43.3380   23.5030   36.4620 C   0  0  0  0  0  0  0  0  0  0  0  0
   44.0040   24.6430   36.0070 C   0  0  0  0  0  0  0  0  0  0  0  0
   43.2980   25.5250   35.2660 N   0  0  0  0  0  0  0  0  0  0  0  0
   41.9920   25.3220   34.9690 C   0  0  0  0  0  0  0  0  0  0  0  0
   41.3730   24.2150   35.4200 N   0  0  0  0  0  0  0  0  0  0  0  0
   41.2960   22.0620   36.6710 C   0  0  0  0  0  0  0  0  0  0  0  0
   39.8850   22.4370   36.8870 C   0  0  0  0  0  0  0  0  0  0  0  0
   39.4550   23.0820   38.0070 C   0  0  0  0  0  0  0  0  0  0  0  0
   38.1200   23.4310   38.1870 C   0  0  0  0  0  0  0  0  0  0  0  0
   37.2730   23.1030   37.2020 N   0  0  0  0  0  0  0  0  0  0  0  0
   37.7160   22.4640   36.0990 C   0  0  0  0  0  0  0  0  0  0  0  0
   38.9810   22.1510   35.9660 N   0  0  0  0  0  0  0  0  0  0  0  0
   41.1680   26.2870   34.1650 C   0  0  2  0  0  0  0  0  0  0  0  0
   41.9580   27.3270   33.5040 C   0  0  0  0  0  0  0  0  0  0  0  0
   40.0450   26.8060   35.0600 C   0  0  0  0  0  0  0  0  0  0  0  0
   38.8040   27.0440   34.3070 C   0  0  2  0  0  0  0  0  0  0  0  0
   37.5340   27.3880   35.0270 C   0  0  0  0  0  0  0  0  0  0  0  0
   37.6500   26.1490   34.2060 C   0  0  1  0  0  0  0  0  0  0  0  0
   36.9410   26.0160   32.8850 C   0  0  0  0  0  0  0  0  0  0  0  0
   43.8853   22.7649   37.0667 H   0  0  0  0  0  0  0  0  0  0  0  0
   45.0642   24.8165   36.2432 H   0  0  0  0  0  0  0  0  0  0  0  0
   41.3632   21.2525   35.9292 H   0  0  0  0  0  0  0  0  0  0  0  0
   41.7554   21.7019   37.6033 H   0  0  0  0  0  0  0  0  0  0  0  0
   40.1837   23.3342   38.7915 H   0  0  0  0  0  0  0  0  0  0  0  0
   37.7768   23.9508   39.0937 H   0  0  0  0  0  0  0  0  0  0  0  0
   37.0054   22.2025   35.3011 H   0  0  0  0  0  0  0  0  0  0  0  0
   40.7168   25.7651   33.3083 H   0  0  0  0  0  0  0  0  0  0  0  0
   42.4392   27.9604   34.2638 H   0  0  0  0  0  0  0  0  0  0  0  0
   42.7295   26.8578   32.8758 H   0  0  0  0  0  0  0  0  0  0  0  0
   41.2990   27.9443   32.8758 H   0  0  0  0  0  0  0  0  0  0  0  0
   39.8460   26.0632   35.8465 H   0  0  0  0  0  0  0  0  0  0  0  0
   40.3698   27.7648   35.4903 H   0  0  0  0  0  0  0  0  0  0  0  0
   39.4576   27.4932   33.5447 H   0  0  0  0  0  0  0  0  0  0  0  0
   37.4842   27.3229   36.1239 H   0  0  0  0  0  0  0  0  0  0  0  0
   36.8548   28.2529   35.0529 H   0  0  0  0  0  0  0  0  0  0  0  0
   37.4617   25.0844   34.4088 H   0  0  0  0  0  0  0  0  0  0  0  0
   35.8737   25.8158   33.0602 H   0  0  0  0  0  0  0  0  0  0  0  0
   37.0500   26.9503   32.3147 H   0  0  0  0  0  0  0  0  0  0  0  0
   37.3812   25.1848   32.3147 H   0  0  0  0  0  0  0  0  0  0  0  0
  1  2  2  0
  1  7  1  0
  3  2  1  0
  4  3  2  0
  5  4  1  0
  5  6  2  0
  6  1  1  0
  7  8  1  0
  8  9  2  0
  9 10  1  0
 11 10  2  0
 12 11  1  0
 13 12  2  0
 13  8  1  0
 14  5  1  0
 14 16  1  0
 15 14  1  0
 17 18  1  0
 17 16  1  0
 19 17  1  0
 19 18  1  0
 20 19  1  0
  2 21  1  0
  3 22  1  0
  7 23  1  0
  7 24  1  0
  9 25  1  0
 10 26  1  0
 12 27  1  0
 14 28  1  6
 15 29  1  0
 15 30  1  0
 15 31  1  0
 16 32  1  0
 16 33  1  0
 17 34  1  6
 18 35  1  0
 18 36  1  0
 19 37  1  1
 20 38  1  0
 20 39  1  0
 20 40  1  0
M  ISO  8  21  14  22  14  23   8  24   8  25  14  26  14  27  14  28   8
M  ISO  8  29   8  30   8  31   8  32   8  33   8  34  13  35  13  36  13
M  ISO  4  37  13  38   8  39   8  40   8
M  END
>  <minimizedAffinity>  (1) 
-5.18967199

>  <minimizedRMSD>  (1) 
0.465802878

$$$$
