
     RDKit          3D

 31 34  0  0  0  0  0  0  0  0999 V2000
   38.0470   24.5800   34.8450 C   0  0  0  0  0  0  0  0  0  0  0  0
   38.2240   23.7660   33.7490 C   0  0  0  0  0  0  0  0  0  0  0  0
   37.9250   24.1800   32.4970 C   0  0  0  0  0  0  0  0  0  0  0  0
   37.4380   25.4340   32.3300 N   0  0  0  0  0  0  0  0  0  0  0  0
   37.2600   26.2430   33.3960 C   0  0  0  0  0  0  0  0  0  0  0  0
   37.5630   25.8190   34.6490 N   0  0  0  0  0  0  0  0  0  0  0  0
   36.7410   27.5650   33.1840 N   0  0  0  0  0  0  0  0  0  0  0  0
   36.1410   28.4640   33.9870 C   0  0  0  0  0  0  0  0  0  0  0  0
   35.8510   29.5670   33.2730 N   0  0  0  0  0  0  0  0  0  0  0  0
   36.2750   29.3450   32.0320 C   0  0  0  0  0  0  0  0  0  0  0  0
   36.1920   30.2000   30.9410 C   0  0  0  0  0  0  0  0  0  0  0  0
   36.6820   29.7820   29.7680 N   0  0  0  0  0  0  0  0  0  0  0  0
   37.2360   28.5370   29.7120 C   0  0  0  0  0  0  0  0  0  0  0  0
   37.3240   27.7080   30.7420 N   0  0  0  0  0  0  0  0  0  0  0  0
   36.8380   28.0980   31.9440 C   0  0  0  0  0  0  0  0  0  0  0  0
   38.3680   24.1350   36.1860 C   0  0  0  0  0  0  0  0  0  0  0  0
   39.3590   23.1590   36.2910 C   0  0  0  0  0  0  0  0  0  0  0  0
   39.6790   22.7190   37.5840 C   0  0  0  0  0  0  0  0  0  0  0  0
   39.0100   23.2670   38.6390 N   0  0  0  0  0  0  0  0  0  0  0  0
   38.0500   24.2160   38.5010 C   0  0  0  0  0  0  0  0  0  0  0  0
   37.7460   24.6330   37.2710 N   0  0  0  0  0  0  0  0  0  0  0  0
   40.6520   21.7420   37.8960 N   0  0  0  0  0  0  0  0  0  0  0  0
   38.6198   22.7502   33.8959 H   0  0  0  0  0  0  0  0  0  0  0  0
   38.0735   23.5145   31.6338 H   0  0  0  0  0  0  0  0  0  0  0  0
   35.9229   28.3198   35.0555 H   0  0  0  0  0  0  0  0  0  0  0  0
   35.7350   31.1958   31.0385 H   0  0  0  0  0  0  0  0  0  0  0  0
   37.6373   28.1978   28.7456 H   0  0  0  0  0  0  0  0  0  0  0  0
   39.8653   22.7538   35.4025 H   0  0  0  0  0  0  0  0  0  0  0  0
   37.5358   24.6306   39.3806 H   0  0  0  0  0  0  0  0  0  0  0  0
   40.8217   21.4792   38.8773 H   0  0  0  0  0  0  0  0  0  0  0  0
   41.1912   21.2930   37.1420 H   0  0  0  0  0  0  0  0  0  0  0  0
  1 16  1  0
  2  1  2  0
  3  2  1  0
  4  3  2  0
  4  5  1  0
  5  6  2  0
  6  1  1  0
  7  5  1  0
  7  8  1  0
  9  8  2  0
 10  9  1  0
 11 10  2  0
 12 11  1  0
 13 12  2  0
 13 14  1  0
 14 15  2  0
 15 10  1  0
 15  7  1  0
 16 17  2  0
 16 21  1  0
 17 18  1  0
 18 22  1  0
 18 19  2  0
 20 19  1  0
 21 20  2  0
  2 23  1  0
  3 24  1  0
  8 25  1  0
 11 26  1  0
 13 27  1  0
 17 28  1  0
 20 29  1  0
 22 30  1  0
 22 31  1  0
M  ISO  7  23  14  24  14  25  14  26  14  27  14  28  14  29  14
M  END
>  <minimizedAffinity>  (1) 
-6.37758017

>  <minimizedRMSD>  (1) 
0.821537673

$$$$
