
     RDKit          3D

 34 37  0  0  0  0  0  0  0  0999 V2000
   38.0680   24.6580   34.8590 C   0  0  0  0  0  0  0  0  0  0  0  0
   38.2860   23.8780   33.7480 C   0  0  0  0  0  0  0  0  0  0  0  0
   37.9990   24.3230   32.5030 C   0  0  0  0  0  0  0  0  0  0  0  0
   37.4890   25.5600   32.3570 N   0  0  0  0  0  0  0  0  0  0  0  0
   37.2670   26.3430   33.4410 C   0  0  0  0  0  0  0  0  0  0  0  0
   37.5570   25.8910   34.6860 N   0  0  0  0  0  0  0  0  0  0  0  0
   38.3680   24.2000   36.2000 C   0  0  0  0  0  0  0  0  0  0  0  0
   39.3450   23.2210   36.3060 C   0  0  0  0  0  0  0  0  0  0  0  0
   39.6690   22.7460   37.5800 C   0  0  0  0  0  0  0  0  0  0  0  0
   39.0000   23.2820   38.6340 N   0  0  0  0  0  0  0  0  0  0  0  0
   38.0550   24.2320   38.5090 C   0  0  0  0  0  0  0  0  0  0  0  0
   37.7510   24.6800   37.2870 N   0  0  0  0  0  0  0  0  0  0  0  0
   40.6360   21.7520   37.8790 N   0  0  0  0  0  0  0  0  0  0  0  0
   36.7140   27.6940   33.3360 C   0  0  0  0  0  0  0  0  0  0  0  0
   36.0890   28.4470   34.3110 C   0  0  0  0  0  0  0  0  0  0  0  0
   35.7290   29.6280   33.8170 N   0  0  0  0  0  0  0  0  0  0  0  0
   36.1020   29.6770   32.5270 C   0  0  0  0  0  0  0  0  0  0  0  0
   35.9660   30.6720   31.5610 C   0  0  0  0  0  0  0  0  0  0  0  0
   36.4480   30.4600   30.2840 C   0  0  0  0  0  0  0  0  0  0  0  0
   37.0770   29.2660   29.9180 C   0  0  0  0  0  0  0  0  0  0  0  0
   37.1990   28.2980   30.8920 C   0  0  0  0  0  0  0  0  0  0  0  0
   36.7260   28.4800   32.1790 C   0  0  0  0  0  0  0  0  0  0  0  0
   38.7036   22.8682   33.8743 H   0  0  0  0  0  0  0  0  0  0  0  0
   38.1793   23.6849   31.6253 H   0  0  0  0  0  0  0  0  0  0  0  0
   39.8512   22.8290   35.4115 H   0  0  0  0  0  0  0  0  0  0  0  0
   37.5423   24.6323   39.3961 H   0  0  0  0  0  0  0  0  0  0  0  0
   40.8005   21.4709   38.8562 H   0  0  0  0  0  0  0  0  0  0  0  0
   41.1736   21.3114   37.1189 H   0  0  0  0  0  0  0  0  0  0  0  0
   35.9144   28.1175   35.3459 H   0  0  0  0  0  0  0  0  0  0  0  0
   35.2469   30.3768   34.3345 H   0  0  0  0  0  0  0  0  0  0  0  0
   35.4761   31.6237   31.8147 H   0  0  0  0  0  0  0  0  0  0  0  0
   36.3335   31.2547   29.5321 H   0  0  0  0  0  0  0  0  0  0  0  0
   37.4575   29.1062   28.8984 H   0  0  0  0  0  0  0  0  0  0  0  0
   37.6899   27.3473   30.6366 H   0  0  0  0  0  0  0  0  0  0  0  0
  1  7  1  0
  2  1  2  0
  3  2  1  0
  4  3  2  0
  4  5  1  0
  5  6  2  0
  6  1  1  0
  7  8  2  0
  7 12  1  0
  8  9  1  0
  9 13  1  0
  9 10  2  0
 11 10  1  0
 12 11  2  0
 14  5  1  0
 14 15  2  0
 16 15  1  0
 17 16  1  0
 18 17  2  0
 19 18  1  0
 20 19  2  0
 20 21  1  0
 21 22  2  0
 22 17  1  0
 22 14  1  0
  2 23  1  0
  3 24  1  0
  8 25  1  0
 11 26  1  0
 13 27  1  0
 13 28  1  0
 15 29  1  0
 16 30  1  0
 18 31  1  0
 19 32  1  0
 20 33  1  0
 21 34  1  0
M  ISO  8  23  14  24  14  25  14  26  14  29  14  30   9  31  14  32  14
M  ISO  2  33  14  34  14
M  END
>  <minimizedAffinity>  (1) 
-6.33529806

>  <minimizedRMSD>  (1) 
0.79569

$$$$
