
     RDKit          3D

 20 21  0  0  0  0  0  0  0  0999 V2000
   38.3450   24.4120   36.4090 C   0  0  0  0  0  0  0  0  0  0  0  0
   39.2990   23.3920   36.3850 C   0  0  0  0  0  0  0  0  0  0  0  0
   39.6290   22.8080   37.6120 C   0  0  0  0  0  0  0  0  0  0  0  0
   39.0090   23.2620   38.7300 N   0  0  0  0  0  0  0  0  0  0  0  0
   38.0870   24.2570   38.7180 C   0  0  0  0  0  0  0  0  0  0  0  0
   37.7710   24.8170   37.5480 N   0  0  0  0  0  0  0  0  0  0  0  0
   40.5660   21.7640   37.8090 N   0  0  0  0  0  0  0  0  0  0  0  0
   38.0140   25.0110   35.1200 C   0  0  0  0  0  0  0  0  0  0  0  0
   38.2740   24.3480   33.9300 C   0  0  0  0  0  0  0  0  0  0  0  0
   37.9560   24.9260   32.7380 C   0  0  0  0  0  0  0  0  0  0  0  0
   37.3830   26.1530   32.7270 N   0  0  0  0  0  0  0  0  0  0  0  0
   37.1340   26.7890   33.8880 C   0  0  0  0  0  0  0  0  0  0  0  0
   37.4480   26.2200   35.0730 N   0  0  0  0  0  0  0  0  0  0  0  0
   39.7683   23.0638   35.4458 H   0  0  0  0  0  0  0  0  0  0  0  0
   37.6109   24.5945   39.6504 H   0  0  0  0  0  0  0  0  0  0  0  0
   40.7398   21.4001   38.7567 H   0  0  0  0  0  0  0  0  0  0  0  0
   41.0735   21.3689   37.0045 H   0  0  0  0  0  0  0  0  0  0  0  0
   38.7389   23.3513   33.9486 H   0  0  0  0  0  0  0  0  0  0  0  0
   38.1627   24.4011   31.7937 H   0  0  0  0  0  0  0  0  0  0  0  0
   36.6685   27.7855   33.8714 H   0  0  0  0  0  0  0  0  0  0  0  0
  1  6  1  0
  2  1  2  0
  2  3  1  0
  3  7  1  0
  3  4  2  0
  5  4  1  0
  6  5  2  0
  8  1  1  0
  9  8  2  0
 10  9  1  0
 11 10  2  0
 11 12  1  0
 12 13  2  0
 13  8  1  0
  2 14  1  0
  5 15  1  0
  7 16  1  0
  7 17  1  0
  9 18  1  0
 10 19  1  0
 12 20  1  0
M  ISO  5  14  14  15  14  18  14  19  14  20  14
M  END
>  <minimizedAffinity>  (1) 
-4.30160856

>  <minimizedRMSD>  (1) 
5.64425421

$$$$
