
     RDKit          3D

 33 36  0  0  0  0  0  0  0  0999 V2000
   38.0430   24.4890   34.7260 C   0  0  0  0  0  0  0  0  0  0  0  0
   38.2190   23.6340   33.6580 C   0  0  0  0  0  0  0  0  0  0  0  0
   37.9320   24.0150   32.3920 C   0  0  0  0  0  0  0  0  0  0  0  0
   37.4630   25.2590   32.1850 N   0  0  0  0  0  0  0  0  0  0  0  0
   37.2840   26.1100   33.2220 C   0  0  0  0  0  0  0  0  0  0  0  0
   37.5720   25.7290   34.4920 N   0  0  0  0  0  0  0  0  0  0  0  0
   36.7850   27.4350   33.0090 N   0  0  0  0  0  0  0  0  0  0  0  0
   36.1640   28.3060   33.8000 C   0  0  0  0  0  0  0  0  0  0  0  0
   35.8940   29.4390   33.1230 N   0  0  0  0  0  0  0  0  0  0  0  0
   36.3580   29.2970   31.8480 C   0  0  0  0  0  0  0  0  0  0  0  0
   36.3140   30.1760   30.7960 C   0  0  0  0  0  0  0  0  0  0  0  0
   36.8790   29.6970   29.6590 N   0  0  0  0  0  0  0  0  0  0  0  0
   37.4240   28.4850   29.5680 C   0  0  0  0  0  0  0  0  0  0  0  0
   37.4470   27.6620   30.6090 N   0  0  0  0  0  0  0  0  0  0  0  0
   36.9100   28.0420   31.7980 C   0  0  0  0  0  0  0  0  0  0  0  0
   38.3500   24.0900   36.0860 C   0  0  0  0  0  0  0  0  0  0  0  0
   39.3380   23.1240   36.2460 C   0  0  0  0  0  0  0  0  0  0  0  0
   39.6440   22.7310   37.5530 C   0  0  0  0  0  0  0  0  0  0  0  0
   38.9640   23.3130   38.5730 N   0  0  0  0  0  0  0  0  0  0  0  0
   38.0110   24.2470   38.3890 C   0  0  0  0  0  0  0  0  0  0  0  0
   37.7190   24.6210   37.1450 N   0  0  0  0  0  0  0  0  0  0  0  0
   40.6190   21.7660   37.8650 N   0  0  0  0  0  0  0  0  0  0  0  0
   35.7420   31.4610   30.8720 N   0  0  0  0  0  0  0  0  0  0  0  0
   38.6016   22.6188   33.8399 H   0  0  0  0  0  0  0  0  0  0  0  0
   38.0789   23.3226   31.5500 H   0  0  0  0  0  0  0  0  0  0  0  0
   35.9079   28.1269   34.8547 H   0  0  0  0  0  0  0  0  0  0  0  0
   37.8629   28.1604   28.6130 H   0  0  0  0  0  0  0  0  0  0  0  0
   39.8573   22.6871   35.3803 H   0  0  0  0  0  0  0  0  0  0  0  0
   37.4857   24.6909   39.2475 H   0  0  0  0  0  0  0  0  0  0  0  0
   40.8011   21.5169   38.8477 H   0  0  0  0  0  0  0  0  0  0  0  0
   41.1508   21.3086   37.1107 H   0  0  0  0  0  0  0  0  0  0  0  0
   35.7409   32.0740   30.0443 H   0  0  0  0  0  0  0  0  0  0  0  0
   35.3248   31.7876   31.7553 H   0  0  0  0  0  0  0  0  0  0  0  0
  1 16  1  0
  2  1  2  0
  3  2  1  0
  4  3  2  0
  4  5  1  0
  5  6  2  0
  6  1  1  0
  7  5  1  0
  7  8  1  0
  9  8  2  0
 10  9  1  0
 11 23  1  0
 11 10  2  0
 12 11  1  0
 13 12  2  0
 13 14  1  0
 14 15  2  0
 15 10  1  0
 15  7  1  0
 16 17  2  0
 16 21  1  0
 17 18  1  0
 18 22  1  0
 18 19  2  0
 20 19  1  0
 21 20  2  0
  2 24  1  0
  3 25  1  0
  8 26  1  0
 13 27  1  0
 17 28  1  0
 20 29  1  0
 22 30  1  0
 22 31  1  0
 23 32  1  0
 23 33  1  0
M  ISO  6  24  14  25  14  26  14  27  14  28  14  29  14
M  END
>  <minimizedAffinity>  (1) 
-6.47461653

>  <minimizedRMSD>  (1) 
1.11651742

$$$$
