
     RDKit          3D

 27 29  0  0  0  0  0  0  0  0999 V2000
   38.0820   24.6930   34.9040 C   0  0  0  0  0  0  0  0  0  0  0  0
   38.3280   23.9340   33.7830 C   0  0  0  0  0  0  0  0  0  0  0  0
   38.0150   24.4310   32.5450 C   0  0  0  0  0  0  0  0  0  0  0  0
   37.4630   25.6720   32.4410 N   0  0  0  0  0  0  0  0  0  0  0  0
   37.2300   26.3990   33.5480 C   0  0  0  0  0  0  0  0  0  0  0  0
   37.5360   25.9110   34.7600 N   0  0  0  0  0  0  0  0  0  0  0  0
   36.6510   27.6830   33.3350 N   0  0  0  0  0  0  0  0  0  0  0  0
   36.1390   28.2950   34.4020 N   0  0  0  0  0  0  0  0  0  0  0  0
   35.6290   29.4800   34.0860 C   0  0  0  0  0  0  0  0  0  0  0  0
   35.8380   29.6150   32.7240 C   0  0  0  0  0  0  0  0  0  0  0  0
   36.4830   28.4840   32.2480 C   0  0  0  0  0  0  0  0  0  0  0  0
   38.3980   24.2000   36.2360 C   0  0  0  0  0  0  0  0  0  0  0  0
   39.3780   23.2180   36.3160 C   0  0  0  0  0  0  0  0  0  0  0  0
   39.6860   22.7410   37.5990 C   0  0  0  0  0  0  0  0  0  0  0  0
   39.0200   23.2560   38.6660 N   0  0  0  0  0  0  0  0  0  0  0  0
   38.0710   24.2140   38.5500 C   0  0  0  0  0  0  0  0  0  0  0  0
   37.7730   24.6730   37.3340 N   0  0  0  0  0  0  0  0  0  0  0  0
   40.6570   21.7420   37.8740 N   0  0  0  0  0  0  0  0  0  0  0  0
   38.7738   22.9331   33.8802 H   0  0  0  0  0  0  0  0  0  0  0  0
   38.2079   23.8326   31.6424 H   0  0  0  0  0  0  0  0  0  0  0  0
   35.1443   30.2000   34.7618 H   0  0  0  0  0  0  0  0  0  0  0  0
   35.5397   30.4819   32.1162 H   0  0  0  0  0  0  0  0  0  0  0  0
   36.7928   28.2781   31.2128 H   0  0  0  0  0  0  0  0  0  0  0  0
   39.8863   22.8342   35.4192 H   0  0  0  0  0  0  0  0  0  0  0  0
   37.5565   24.6056   39.4399 H   0  0  0  0  0  0  0  0  0  0  0  0
   40.8276   21.4430   38.8448 H   0  0  0  0  0  0  0  0  0  0  0  0
   41.1907   21.3164   37.1027 H   0  0  0  0  0  0  0  0  0  0  0  0
  1 12  1  0
  2  1  2  0
  3  2  1  0
  4  3  2  0
  4  5  1  0
  5  6  2  0
  6  1  1  0
  7  5  1  0
  7  8  1  0
  9  8  2  0
 10  9  1  0
 11 10  2  0
 11  7  1  0
 12 13  2  0
 12 17  1  0
 13 14  1  0
 14 18  1  0
 14 15  2  0
 16 15  1  0
 17 16  2  0
  2 19  1  0
  3 20  1  0
  9 21  1  0
 10 22  1  0
 11 23  1  0
 13 24  1  0
 16 25  1  0
 18 26  1  0
 18 27  1  0
M  ISO  7  19  14  20  14  21  14  22  14  23  14  24  14  25  14
M  END
>  <minimizedAffinity>  (1) 
-5.63571501

>  <minimizedRMSD>  (1) 
0.473899007

$$$$
