
     RDKit          3D

 30 31  0  0  1  0  0  0  0  0999 V2000
   41.9050   22.1860   36.3080 C   0  0  0  0  0  0  0  0  0  0  0  0
   42.5500   23.4770   36.4220 N   0  0  0  0  0  0  0  0  0  0  0  0
   42.4540   24.2260   35.1820 C   0  0  0  0  0  0  0  0  0  0  0  0
   43.4140   25.3640   35.4570 C   0  0  0  0  0  0  0  0  0  0  0  0
   44.3860   24.8290   36.5240 C   0  0  0  0  0  0  0  0  0  0  0  0
   43.9780   23.3790   36.5820 C   0  0  2  0  0  0  0  0  0  0  0  0
   44.4770   22.7740   35.3460 N   0  0  0  0  0  0  0  0  0  0  0  0
   41.0920   21.8160   37.5030 C   0  0  0  0  0  0  0  0  0  0  0  0
   37.8990   23.2120   36.0970 C   0  0  0  0  0  0  0  0  0  0  0  0
   39.1210   22.5470   36.2600 C   0  0  0  0  0  0  0  0  0  0  0  0
   39.8130   22.5490   37.4450 C   0  0  0  0  0  0  0  0  0  0  0  0
   39.2350   23.2410   38.4620 N   0  0  0  0  0  0  0  0  0  0  0  0
   38.0690   23.8770   38.3120 C   0  0  0  0  0  0  0  0  0  0  0  0
   37.4010   23.8780   37.1750 N   0  0  0  0  0  0  0  0  0  0  0  0
   41.2432   22.2044   35.4295 H   0  0  0  0  0  0  0  0  0  0  0  0
   42.7027   21.4343   36.2157 H   0  0  0  0  0  0  0  0  0  0  0  0
   41.4314   24.5928   35.0097 H   0  0  0  0  0  0  0  0  0  0  0  0
   42.6894   23.6420   34.2800 H   0  0  0  0  0  0  0  0  0  0  0  0
   43.9595   25.6372   34.5417 H   0  0  0  0  0  0  0  0  0  0  0  0
   42.8894   26.2688   35.7979 H   0  0  0  0  0  0  0  0  0  0  0  0
   45.4339   24.9417   36.2090 H   0  0  0  0  0  0  0  0  0  0  0  0
   44.3342   25.3540   37.4892 H   0  0  0  0  0  0  0  0  0  0  0  0
   44.3178   22.8275   37.4710 H   0  0  0  0  0  0  0  0  0  0  0  0
   45.1158   21.9995   35.5764 H   0  0  0  0  0  0  0  0  0  0  0  0
   43.6844   22.4133   34.7960 H   0  0  0  0  0  0  0  0  0  0  0  0
   40.8993   20.7330   37.4997 H   0  0  0  0  0  0  0  0  0  0  0  0
   41.6346   22.0776   38.4234 H   0  0  0  0  0  0  0  0  0  0  0  0
   37.3632   23.1967   35.1365 H   0  0  0  0  0  0  0  0  0  0  0  0
   39.5430   22.0010   35.4034 H   0  0  0  0  0  0  0  0  0  0  0  0
   37.6499   24.4212   39.1712 H   0  0  0  0  0  0  0  0  0  0  0  0
  1  2  1  0
  1  8  1  0
  2  6  1  0
  3  4  1  0
  3  2  1  0
  4  5  1  0
  5  6  1  0
  7  6  1  0
  9 10  2  0
  9 14  1  0
 10 11  1  0
 11  8  1  0
 11 12  2  0
 13 12  1  0
 14 13  2  0
  1 15  1  0
  1 16  1  0
  3 17  1  0
  3 18  1  0
  4 19  1  0
  4 20  1  0
  5 21  1  0
  5 22  1  0
  6 23  1  1
  7 24  1  0
  7 25  1  0
  8 26  1  0
  8 27  1  0
  9 28  1  0
 10 29  1  0
 13 30  1  0
M  ISO  8  15   8  16   8  17  13  18  13  19  13  20  13  21  13  22  13
M  ISO  8  23  13  24   5  25   5  26   8  27   8  28  14  29  14  30  14
M  END
>  <minimizedAffinity>  (1) 
-3.75615859

>  <minimizedRMSD>  (1) 
0.0360844284

$$$$
