
     RDKit          3D

 33 35  0  0  0  0  0  0  0  0999 V2000
   38.0800   24.7100   34.8740 C   0  0  0  0  0  0  0  0  0  0  0  0
   38.3110   23.9330   33.7550 C   0  0  0  0  0  0  0  0  0  0  0  0
   38.0170   24.4210   32.5090 C   0  0  0  0  0  0  0  0  0  0  0  0
   37.5010   25.6640   32.3880 N   0  0  0  0  0  0  0  0  0  0  0  0
   37.2750   26.4220   33.4890 C   0  0  0  0  0  0  0  0  0  0  0  0
   37.5650   25.9410   34.7160 N   0  0  0  0  0  0  0  0  0  0  0  0
   38.3810   24.2220   36.2040 C   0  0  0  0  0  0  0  0  0  0  0  0
   39.3570   23.2410   36.3060 C   0  0  0  0  0  0  0  0  0  0  0  0
   39.6670   22.7510   37.5690 C   0  0  0  0  0  0  0  0  0  0  0  0
   39.0060   23.2530   38.6310 N   0  0  0  0  0  0  0  0  0  0  0  0
   38.0480   24.2180   38.5140 C   0  0  0  0  0  0  0  0  0  0  0  0
   37.7500   24.6890   37.2990 N   0  0  0  0  0  0  0  0  0  0  0  0
   40.6340   21.7540   37.8620 N   0  0  0  0  0  0  0  0  0  0  0  0
   35.6210   30.3420   33.1880 C   0  0  0  0  0  0  0  0  0  0  0  0
   35.6760   29.6800   34.3780 C   0  0  0  0  0  0  0  0  0  0  0  0
   36.2140   28.4120   34.4560 C   0  0  0  0  0  0  0  0  0  0  0  0
   36.7240   27.7460   33.3510 C   0  0  0  0  0  0  0  0  0  0  0  0
   36.6580   28.4360   32.1630 C   0  0  0  0  0  0  0  0  0  0  0  0
   36.1220   29.7040   32.0650 C   0  0  0  0  0  0  0  0  0  0  0  0
   34.9140   31.9430   33.2310 S   0  0  0  0  0  0  0  0  0  0  0  0
   33.5620   31.8850   33.8760 O   0  0  0  0  0  0  0  0  0  0  0  0
   35.8130   32.9050   33.9730 O   0  0  0  0  0  0  0  0  0  0  0  0
   38.7311   22.9223   33.8646 H   0  0  0  0  0  0  0  0  0  0  0  0
   38.1994   23.8064   31.6151 H   0  0  0  0  0  0  0  0  0  0  0  0
   39.8716   22.8613   35.4110 H   0  0  0  0  0  0  0  0  0  0  0  0
   37.5296   24.6019   39.4050 H   0  0  0  0  0  0  0  0  0  0  0  0
   40.7898   21.4582   38.8362 H   0  0  0  0  0  0  0  0  0  0  0  0
   41.1798   21.3263   37.1004 H   0  0  0  0  0  0  0  0  0  0  0  0
   35.2869   30.1623   35.2869 H   0  0  0  0  0  0  0  0  0  0  0  0
   36.2396   27.9088   35.4338 H   0  0  0  0  0  0  0  0  0  0  0  0
   37.0487   27.9572   31.2530 H   0  0  0  0  0  0  0  0  0  0  0  0
   36.0924   30.2111   31.0893 H   0  0  0  0  0  0  0  0  0  0  0  0
   34.7753   32.3969   31.9458 H   0  0  0  0  0  0  0  0  0  0  0  0
  1  7  1  0
  2  1  2  0
  3  2  1  0
  4  3  2  0
  4  5  1  0
  5  6  2  0
  6  1  1  0
  7  8  2  0
  7 12  1  0
  8  9  1  0
  9 13  1  0
  9 10  2  0
 11 10  1  0
 12 11  2  0
 14 20  1  0
 14 15  2  0
 15 16  1  0
 17  5  1  0
 17 16  2  0
 18 17  1  0
 19 18  2  0
 19 14  1  0
 20 21  2  0
 20 22  2  0
  2 23  1  0
  3 24  1  0
  8 25  1  0
 11 26  1  0
 13 27  1  0
 13 28  1  0
 15 29  1  0
 16 30  1  0
 18 31  1  0
 19 32  1  0
 20 33  1  0
M  ISO  8  23  14  24  14  25  14  26  14  29  14  30  14  31  14  32  14
M  ISO  1  33  11
M  END
>  <minimizedAffinity>  (1) 
-5.95544052

>  <minimizedRMSD>  (1) 
0.883702517

$$$$
