
     RDKit          3D

 29 31  0  0  0  0  0  0  0  0999 V2000
   38.0850   24.6630   34.8460 C   0  0  0  0  0  0  0  0  0  0  0  0
   38.3270   23.8820   33.7370 C   0  0  0  0  0  0  0  0  0  0  0  0
   38.0280   24.3600   32.4920 C   0  0  0  0  0  0  0  0  0  0  0  0
   37.4970   25.5980   32.3680 N   0  0  0  0  0  0  0  0  0  0  0  0
   37.2630   26.3540   33.4470 C   0  0  0  0  0  0  0  0  0  0  0  0
   37.5560   25.8880   34.6730 N   0  0  0  0  0  0  0  0  0  0  0  0
   38.3910   24.1870   36.1890 C   0  0  0  0  0  0  0  0  0  0  0  0
   39.3650   23.2130   36.3040 C   0  0  0  0  0  0  0  0  0  0  0  0
   39.6700   22.7440   37.5750 C   0  0  0  0  0  0  0  0  0  0  0  0
   38.9950   23.2700   38.6230 N   0  0  0  0  0  0  0  0  0  0  0  0
   38.0460   24.2220   38.4860 C   0  0  0  0  0  0  0  0  0  0  0  0
   37.7520   24.6720   37.2740 N   0  0  0  0  0  0  0  0  0  0  0  0
   40.6370   21.7510   37.8770 N   0  0  0  0  0  0  0  0  0  0  0  0
   36.6910   27.6890   33.3200 C   0  0  0  0  0  0  0  0  0  0  0  0
   36.2610   28.3710   34.4450 C   0  0  0  0  0  0  0  0  0  0  0  0
   35.7120   29.6420   34.3660 C   0  0  0  0  0  0  0  0  0  0  0  0
   35.6200   30.1870   33.0950 C   0  0  0  0  0  0  0  0  0  0  0  0
   36.0470   29.5160   31.9510 C   0  0  0  0  0  0  0  0  0  0  0  0
   36.5690   28.2870   32.1030 N   0  0  0  0  0  0  0  0  0  0  0  0
   38.7594   22.8772   33.8533 H   0  0  0  0  0  0  0  0  0  0  0  0
   38.2171   23.7445   31.6002 H   0  0  0  0  0  0  0  0  0  0  0  0
   39.8827   22.8214   35.4159 H   0  0  0  0  0  0  0  0  0  0  0  0
   37.5238   24.6188   39.3691 H   0  0  0  0  0  0  0  0  0  0  0  0
   40.7947   21.4661   38.8542 H   0  0  0  0  0  0  0  0  0  0  0  0
   41.1814   21.3149   37.1191 H   0  0  0  0  0  0  0  0  0  0  0  0
   36.3575   27.8911   35.4301 H   0  0  0  0  0  0  0  0  0  0  0  0
   35.3698   30.1854   35.2591 H   0  0  0  0  0  0  0  0  0  0  0  0
   35.1909   31.1938   32.9845 H   0  0  0  0  0  0  0  0  0  0  0  0
   35.9597   29.9771   30.9561 H   0  0  0  0  0  0  0  0  0  0  0  0
  1  7  1  0
  2  1  2  0
  3  2  1  0
  4  3  2  0
  4  5  1  0
  5  6  2  0
  6  1  1  0
  7  8  2  0
  7 12  1  0
  8  9  1  0
  9 13  1  0
  9 10  2  0
 11 10  1  0
 12 11  2  0
 14  5  1  0
 14 15  2  0
 16 15  1  0
 17 16  2  0
 18 19  2  0
 18 17  1  0
 19 14  1  0
  2 20  1  0
  3 21  1  0
  8 22  1  0
 11 23  1  0
 13 24  1  0
 13 25  1  0
 15 26  1  0
 16 27  1  0
 17 28  1  0
 18 29  1  0
M  ISO  8  20  14  21  14  22  14  23  14  26  14  27  14  28  14  29  14
M  END
>  <minimizedAffinity>  (1) 
-5.73909807

>  <minimizedRMSD>  (1) 
0.848446488

$$$$
