
     RDKit          3D

 36 38  0  0  0  0  0  0  0  0999 V2000
   38.1320   24.6780   34.9120 C   0  0  0  0  0  0  0  0  0  0  0  0
   38.1220   23.8430   33.8170 C   0  0  0  0  0  0  0  0  0  0  0  0
   37.8300   24.3540   32.5800 C   0  0  0  0  0  0  0  0  0  0  0  0
   37.5560   25.6730   32.4510 N   0  0  0  0  0  0  0  0  0  0  0  0
   37.5690   26.4780   33.5200 C   0  0  0  0  0  0  0  0  0  0  0  0
   37.8550   25.9850   34.7410 N   0  0  0  0  0  0  0  0  0  0  0  0
   38.4370   24.1750   36.2420 C   0  0  0  0  0  0  0  0  0  0  0  0
   39.4170   23.2010   36.3290 C   0  0  0  0  0  0  0  0  0  0  0  0
   39.7110   22.7140   37.6120 C   0  0  0  0  0  0  0  0  0  0  0  0
   39.0360   23.2130   38.6680 N   0  0  0  0  0  0  0  0  0  0  0  0
   38.0820   24.1640   38.5540 C   0  0  0  0  0  0  0  0  0  0  0  0
   37.8020   24.6270   37.3370 N   0  0  0  0  0  0  0  0  0  0  0  0
   40.6860   21.7140   37.8930 N   0  0  0  0  0  0  0  0  0  0  0  0
   37.2590   27.9140   33.3040 C   0  0  0  0  0  0  0  0  0  0  0  0
   36.3250   28.3750   34.3930 C   0  0  0  0  0  0  0  0  0  0  0  0
   35.4800   29.5510   33.9750 C   0  0  0  0  0  0  0  0  0  0  0  0
   34.7480   29.3050   32.6800 C   0  0  0  0  0  0  0  0  0  0  0  0
   35.2160   28.0310   31.9800 C   0  0  0  0  0  0  0  0  0  0  0  0
   36.7280   28.1110   31.9210 C   0  0  0  0  0  0  0  0  0  0  0  0
   38.3470   22.7727   33.9349 H   0  0  0  0  0  0  0  0  0  0  0  0
   37.8183   23.6969   31.6979 H   0  0  0  0  0  0  0  0  0  0  0  0
   39.9397   22.8271   35.4362 H   0  0  0  0  0  0  0  0  0  0  0  0
   37.5527   24.5442   39.4401 H   0  0  0  0  0  0  0  0  0  0  0  0
   40.8449   21.4079   38.8636 H   0  0  0  0  0  0  0  0  0  0  0  0
   41.2321   21.2971   37.1256 H   0  0  0  0  0  0  0  0  0  0  0  0
   38.1624   28.5380   33.3715 H   0  0  0  0  0  0  0  0  0  0  0  0
   35.6596   27.5415   34.6622 H   0  0  0  0  0  0  0  0  0  0  0  0
   36.9414   28.6951   35.2460 H   0  0  0  0  0  0  0  0  0  0  0  0
   34.7415   29.7531   34.7647 H   0  0  0  0  0  0  0  0  0  0  0  0
   36.1525   30.4078   33.8212 H   0  0  0  0  0  0  0  0  0  0  0  0
   33.6726   29.2162   32.8934 H   0  0  0  0  0  0  0  0  0  0  0  0
   34.9573   30.1521   32.0102 H   0  0  0  0  0  0  0  0  0  0  0  0
   34.9032   27.1450   32.5519 H   0  0  0  0  0  0  0  0  0  0  0  0
   34.7800   27.9436   30.9739 H   0  0  0  0  0  0  0  0  0  0  0  0
   37.1171   27.3250   31.2570 H   0  0  0  0  0  0  0  0  0  0  0  0
   37.0423   29.0894   31.5285 H   0  0  0  0  0  0  0  0  0  0  0  0
  1  7  1  0
  2  1  2  0
  3  2  1  0
  4  3  2  0
  4  5  1  0
  5  6  2  0
  6  1  1  0
  7  8  2  0
  7 12  1  0
  8  9  1  0
  9 13  1  0
  9 10  2  0
 11 10  1  0
 12 11  2  0
 14  5  1  0
 14 15  1  0
 16 15  1  0
 17 16  1  0
 18 17  1  0
 19 18  1  0
 19 14  1  0
  2 20  1  0
  3 21  1  0
  8 22  1  0
 11 23  1  0
 13 24  1  0
 13 25  1  0
 14 26  1  0
 15 27  1  0
 15 28  1  0
 16 29  1  0
 16 30  1  0
 17 31  1  0
 17 32  1  0
 18 33  1  0
 18 34  1  0
 19 35  1  0
 19 36  1  0
M  ISO  8  20  14  21  14  22  14  23  14  26  13  27  13  28  13  29  13
M  ISO  7  30  13  31  13  32  13  33  13  34  13  35  13  36  13
M  END
>  <minimizedAffinity>  (1) 
-5.64481497

>  <minimizedRMSD>  (1) 
0.747809649

$$$$
