
     RDKit          3D

 33 35  0  0  0  0  0  0  0  0999 V2000
   38.0630   24.6610   34.8070 C   0  0  0  0  0  0  0  0  0  0  0  0
   38.2460   23.8380   33.7180 C   0  0  0  0  0  0  0  0  0  0  0  0
   37.9680   24.2950   32.4610 C   0  0  0  0  0  0  0  0  0  0  0  0
   37.5120   25.5610   32.2970 N   0  0  0  0  0  0  0  0  0  0  0  0
   37.3340   26.3610   33.3660 C   0  0  0  0  0  0  0  0  0  0  0  0
   37.6100   25.9070   34.6030 N   0  0  0  0  0  0  0  0  0  0  0  0
   36.8590   27.6990   33.2630 N   0  0  0  0  0  0  0  0  0  0  0  0
   36.8210   28.4280   32.0100 C   0  0  0  0  0  0  0  0  0  0  0  0
   35.7720   29.5200   32.0860 C   0  0  0  0  0  0  0  0  0  0  0  0
   34.6760   28.9910   32.7590 O   0  0  0  0  0  0  0  0  0  0  0  0
   34.9990   29.0440   34.1240 C   0  0  0  0  0  0  0  0  0  0  0  0
   36.3700   28.4590   34.3890 C   0  0  0  0  0  0  0  0  0  0  0  0
   38.3470   24.2120   36.1580 C   0  0  0  0  0  0  0  0  0  0  0  0
   39.3170   23.2340   36.3070 C   0  0  0  0  0  0  0  0  0  0  0  0
   39.6200   22.7740   37.5850 C   0  0  0  0  0  0  0  0  0  0  0  0
   38.9350   23.3240   38.6210 N   0  0  0  0  0  0  0  0  0  0  0  0
   37.9960   24.2760   38.4540 C   0  0  0  0  0  0  0  0  0  0  0  0
   37.7150   24.7060   37.2300 N   0  0  0  0  0  0  0  0  0  0  0  0
   40.5840   21.7830   37.8810 N   0  0  0  0  0  0  0  0  0  0  0  0
   38.6162   22.8120   33.8605 H   0  0  0  0  0  0  0  0  0  0  0  0
   38.1130   23.6408   31.5887 H   0  0  0  0  0  0  0  0  0  0  0  0
   36.5704   27.7365   31.1921 H   0  0  0  0  0  0  0  0  0  0  0  0
   37.8056   28.8810   31.8220 H   0  0  0  0  0  0  0  0  0  0  0  0
   36.1691   30.3866   32.6350 H   0  0  0  0  0  0  0  0  0  0  0  0
   35.4862   29.8577   31.0789 H   0  0  0  0  0  0  0  0  0  0  0  0
   34.9874   30.0932   34.4543 H   0  0  0  0  0  0  0  0  0  0  0  0
   34.2563   28.4524   34.6793 H   0  0  0  0  0  0  0  0  0  0  0  0
   36.3107   27.7972   35.2656 H   0  0  0  0  0  0  0  0  0  0  0  0
   37.0669   29.2914   34.5663 H   0  0  0  0  0  0  0  0  0  0  0  0
   39.8396   22.8274   35.4286 H   0  0  0  0  0  0  0  0  0  0  0  0
   37.4673   24.6929   39.3239 H   0  0  0  0  0  0  0  0  0  0  0  0
   40.7474   21.4989   38.8575 H   0  0  0  0  0  0  0  0  0  0  0  0
   41.1228   21.3452   37.1202 H   0  0  0  0  0  0  0  0  0  0  0  0
  1 13  1  0
  2  1  2  0
  3  2  1  0
  4  3  2  0
  4  5  1  0
  5  6  2  0
  6  1  1  0
  7  5  1  0
  7 12  1  0
  8  9  1  0
  8  7  1  0
  9 10  1  0
 10 11  1  0
 11 12  1  0
 13 14  2  0
 13 18  1  0
 14 15  1  0
 15 19  1  0
 15 16  2  0
 17 16  1  0
 18 17  2  0
  2 20  1  0
  3 21  1  0
  8 22  1  0
  8 23  1  0
  9 24  1  0
  9 25  1  0
 11 26  1  0
 11 27  1  0
 12 28  1  0
 12 29  1  0
 14 30  1  0
 17 31  1  0
 19 32  1  0
 19 33  1  0
M  ISO  8  20  14  21  14  22  13  23  13  24  13  25  13  26  13  27  13
M  ISO  4  28  13  29  13  30  14  31  14
M  END
>  <minimizedAffinity>  (1) 
-5.68731117

>  <minimizedRMSD>  (1) 
0.663244486

$$$$
