
     RDKit          3D

 27 29  0  0  0  0  0  0  0  0999 V2000
   38.1260   24.6990   34.7980 C   0  0  0  0  0  0  0  0  0  0  0  0
   38.4170   23.9460   33.6830 C   0  0  0  0  0  0  0  0  0  0  0  0
   38.1470   24.4110   32.4320 C   0  0  0  0  0  0  0  0  0  0  0  0
   37.5810   25.6390   32.2960 N   0  0  0  0  0  0  0  0  0  0  0  0
   37.2950   26.3770   33.3910 C   0  0  0  0  0  0  0  0  0  0  0  0
   37.5660   25.9070   34.6190 N   0  0  0  0  0  0  0  0  0  0  0  0
   38.4100   24.2100   36.1350 C   0  0  0  0  0  0  0  0  0  0  0  0
   39.3790   23.2350   36.2500 C   0  0  0  0  0  0  0  0  0  0  0  0
   39.6670   22.7520   37.5190 C   0  0  0  0  0  0  0  0  0  0  0  0
   38.9740   23.2700   38.5690 N   0  0  0  0  0  0  0  0  0  0  0  0
   38.0180   24.2340   38.4330 C   0  0  0  0  0  0  0  0  0  0  0  0
   37.7490   24.6930   37.2090 N   0  0  0  0  0  0  0  0  0  0  0  0
   40.6110   21.7640   37.8600 N   0  0  0  0  0  0  0  0  0  0  0  0
   36.6870   27.6950   33.2350 C   0  0  0  0  0  0  0  0  0  0  0  0
   36.2710   28.3370   34.3970 C   0  0  0  0  0  0  0  0  0  0  0  0
   35.7320   29.5580   33.9950 C   0  0  0  0  0  0  0  0  0  0  0  0
   35.8570   29.5790   32.6020 C   0  0  0  0  0  0  0  0  0  0  0  0
   36.4250   28.4570   32.2120 O   0  0  0  0  0  0  0  0  0  0  0  0
   38.8748   22.9532   33.8045 H   0  0  0  0  0  0  0  0  0  0  0  0
   38.3831   23.8029   31.5463 H   0  0  0  0  0  0  0  0  0  0  0  0
   39.9068   22.8524   35.3640 H   0  0  0  0  0  0  0  0  0  0  0  0
   37.4819   24.6235   39.3110 H   0  0  0  0  0  0  0  0  0  0  0  0
   40.7348   21.4880   38.8446 H   0  0  0  0  0  0  0  0  0  0  0  0
   41.1776   21.3175   37.1248 H   0  0  0  0  0  0  0  0  0  0  0  0
   36.3513   27.9573   35.4263 H   0  0  0  0  0  0  0  0  0  0  0  0
   35.2999   30.3395   34.6372 H   0  0  0  0  0  0  0  0  0  0  0  0
   35.5342   30.3974   31.9417 H   0  0  0  0  0  0  0  0  0  0  0  0
  1  7  1  0
  2  1  2  0
  3  2  1  0
  4  3  2  0
  4  5  1  0
  5  6  2  0
  6  1  1  0
  7  8  2  0
  7 12  1  0
  8  9  1  0
  9 13  1  0
  9 10  2  0
 11 10  1  0
 12 11  2  0
 14  5  1  0
 14 15  2  0
 16 15  1  0
 17 16  2  0
 18 17  1  0
 18 14  1  0
  2 19  1  0
  3 20  1  0
  8 21  1  0
 11 22  1  0
 13 23  1  0
 13 24  1  0
 15 25  1  0
 16 26  1  0
 17 27  1  0
M  ISO  7  19  14  20  14  21  14  22  14  25  14  26  14  27  14
M  END
>  <minimizedAffinity>  (1) 
-5.41542768

>  <minimizedRMSD>  (1) 
0.606067777

$$$$
