
     RDKit          3D

 27 29  0  0  0  0  0  0  0  0999 V2000
   38.0900   24.8500   34.9720 C   0  0  0  0  0  0  0  0  0  0  0  0
   38.3680   24.1690   33.8120 C   0  0  0  0  0  0  0  0  0  0  0  0
   38.0840   24.6930   32.5820 C   0  0  0  0  0  0  0  0  0  0  0  0
   37.5140   25.9160   32.5210 N   0  0  0  0  0  0  0  0  0  0  0  0
   37.2410   26.5840   33.6460 C   0  0  0  0  0  0  0  0  0  0  0  0
   37.5220   26.0640   34.8720 N   0  0  0  0  0  0  0  0  0  0  0  0
   38.3890   24.2990   36.2780 C   0  0  0  0  0  0  0  0  0  0  0  0
   39.3690   23.3070   36.3200 C   0  0  0  0  0  0  0  0  0  0  0  0
   39.6610   22.7720   37.5810 C   0  0  0  0  0  0  0  0  0  0  0  0
   38.9850   23.2430   38.6610 N   0  0  0  0  0  0  0  0  0  0  0  0
   38.0320   24.2130   38.5860 C   0  0  0  0  0  0  0  0  0  0  0  0
   37.7570   24.7190   37.3900 N   0  0  0  0  0  0  0  0  0  0  0  0
   40.6160   21.7670   37.8260 N   0  0  0  0  0  0  0  0  0  0  0  0
   36.6180   27.9190   33.5780 C   0  0  0  0  0  0  0  0  0  0  0  0
   36.0950   28.7280   34.5010 C   0  0  0  0  0  0  0  0  0  0  0  0
   35.5730   29.9330   34.1640 C   0  0  0  0  0  0  0  0  0  0  0  0
   35.6270   30.2550   32.7840 C   0  0  0  0  0  0  0  0  0  0  0  0
   36.4630   28.7260   32.0580 S   0  0  0  0  0  0  0  0  0  0  0  0
   38.8323   23.1738   33.8747 H   0  0  0  0  0  0  0  0  0  0  0  0
   38.3141   24.1323   31.6640 H   0  0  0  0  0  0  0  0  0  0  0  0
   39.8848   22.9634   35.4113 H   0  0  0  0  0  0  0  0  0  0  0  0
   37.5076   24.5654   39.4865 H   0  0  0  0  0  0  0  0  0  0  0  0
   40.7712   21.4270   38.7858 H   0  0  0  0  0  0  0  0  0  0  0  0
   41.1595   21.3717   37.0454 H   0  0  0  0  0  0  0  0  0  0  0  0
   36.0872   28.4116   35.5545 H   0  0  0  0  0  0  0  0  0  0  0  0
   35.1375   30.6142   34.9099 H   0  0  0  0  0  0  0  0  0  0  0  0
   35.2734   31.1609   32.2699 H   0  0  0  0  0  0  0  0  0  0  0  0
  1  7  1  0
  2  1  2  0
  3  2  1  0
  4  3  2  0
  4  5  1  0
  5  6  2  0
  6  1  1  0
  7  8  2  0
  7 12  1  0
  8  9  1  0
  9 13  1  0
  9 10  2  0
 11 10  1  0
 12 11  2  0
 14  5  1  0
 14 15  2  0
 16 15  1  0
 17 16  2  0
 18 17  1  0
 18 14  1  0
  2 19  1  0
  3 20  1  0
  8 21  1  0
 11 22  1  0
 13 23  1  0
 13 24  1  0
 15 25  1  0
 16 26  1  0
 17 27  1  0
M  ISO  7  19  14  20  14  21  14  22  14  25  14  26  14  27  14
M  END
>  <minimizedAffinity>  (1) 
-5.42975044

>  <minimizedRMSD>  (1) 
0.329254001

$$$$
