
     RDKit          3D

 28 30  0  0  0  0  0  0  0  0999 V2000
   38.0750   24.6630   34.8800 C   0  0  0  0  0  0  0  0  0  0  0  0
   38.3070   23.8860   33.7680 C   0  0  0  0  0  0  0  0  0  0  0  0
   38.0030   24.3640   32.5260 C   0  0  0  0  0  0  0  0  0  0  0  0
   37.4710   25.6060   32.4040 N   0  0  0  0  0  0  0  0  0  0  0  0
   37.2460   26.3580   33.4880 C   0  0  0  0  0  0  0  0  0  0  0  0
   37.5480   25.8870   34.7100 N   0  0  0  0  0  0  0  0  0  0  0  0
   38.3870   24.1860   36.2150 C   0  0  0  0  0  0  0  0  0  0  0  0
   39.3590   23.2130   36.3290 C   0  0  0  0  0  0  0  0  0  0  0  0
   39.6740   22.7400   37.5960 C   0  0  0  0  0  0  0  0  0  0  0  0
   39.0010   23.2670   38.6580 N   0  0  0  0  0  0  0  0  0  0  0  0
   38.0540   24.2180   38.5200 C   0  0  0  0  0  0  0  0  0  0  0  0
   37.7580   24.6660   37.3080 N   0  0  0  0  0  0  0  0  0  0  0  0
   40.6470   21.7440   37.8790 N   0  0  0  0  0  0  0  0  0  0  0  0
   36.6790   27.6830   33.3430 C   0  0  0  0  0  0  0  0  0  0  0  0
   36.5910   28.2840   32.1030 C   0  0  0  0  0  0  0  0  0  0  0  0
   36.0480   29.5340   32.0160 C   0  0  0  0  0  0  0  0  0  0  0  0
   35.5990   30.1830   33.1160 N   0  0  0  0  0  0  0  0  0  0  0  0
   35.6900   29.5850   34.3200 C   0  0  0  0  0  0  0  0  0  0  0  0
   36.2220   28.3570   34.4210 N   0  0  0  0  0  0  0  0  0  0  0  0
   38.7374   22.8799   33.8800 H   0  0  0  0  0  0  0  0  0  0  0  0
   38.1875   23.7484   31.6332 H   0  0  0  0  0  0  0  0  0  0  0  0
   39.8717   22.8217   35.4379 H   0  0  0  0  0  0  0  0  0  0  0  0
   37.5335   24.6170   39.4031 H   0  0  0  0  0  0  0  0  0  0  0  0
   40.8169   21.4518   38.8519 H   0  0  0  0  0  0  0  0  0  0  0  0
   41.1824   21.3142   37.1112 H   0  0  0  0  0  0  0  0  0  0  0  0
   36.9515   27.7657   31.2022 H   0  0  0  0  0  0  0  0  0  0  0  0
   35.9740   30.0229   31.0334 H   0  0  0  0  0  0  0  0  0  0  0  0
   35.3282   30.1033   35.2202 H   0  0  0  0  0  0  0  0  0  0  0  0
  1  7  1  0
  2  1  2  0
  3  2  1  0
  4  3  2  0
  4  5  1  0
  5  6  2  0
  6  1  1  0
  7  8  2  0
  7 12  1  0
  8  9  1  0
  9 13  1  0
  9 10  2  0
 11 10  1  0
 12 11  2  0
 14  5  1  0
 14 19  1  0
 15 14  2  0
 16 15  1  0
 16 17  2  0
 17 18  1  0
 18 19  2  0
  2 20  1  0
  3 21  1  0
  8 22  1  0
 11 23  1  0
 13 24  1  0
 13 25  1  0
 15 26  1  0
 16 27  1  0
 18 28  1  0
M  ISO  7  20  14  21  14  22  14  23  14  26  14  27  14  28  14
M  END
>  <minimizedAffinity>  (1) 
-5.54560041

>  <minimizedRMSD>  (1) 
0.607326388

$$$$
