
     RDKit          3D

 32 34  0  0  0  0  0  0  0  0999 V2000
   37.9870   24.2750   34.6500 C   0  0  0  0  0  0  0  0  0  0  0  0
   37.9430   23.3050   33.6590 C   0  0  0  0  0  0  0  0  0  0  0  0
   37.6130   23.6630   32.3830 C   0  0  0  0  0  0  0  0  0  0  0  0
   37.3330   24.9520   32.0950 N   0  0  0  0  0  0  0  0  0  0  0  0
   37.3810   25.8760   33.0690 C   0  0  0  0  0  0  0  0  0  0  0  0
   37.7030   25.5540   34.3360 N   0  0  0  0  0  0  0  0  0  0  0  0
   37.1020   27.2560   32.8610 N   0  0  0  0  0  0  0  0  0  0  0  0
   37.5230   28.1730   31.8190 C   0  0  0  0  0  0  0  0  0  0  0  0
   36.2810   28.8960   31.3410 C   0  0  0  0  0  0  0  0  0  0  0  0
   35.3520   28.7060   32.5210 C   0  0  0  0  0  0  0  0  0  0  0  0
   36.3180   28.2340   33.5880 C   0  0  0  0  0  0  0  0  0  0  0  0
   38.3350   23.9330   36.0190 C   0  0  0  0  0  0  0  0  0  0  0  0
   39.3430   23.0010   36.1900 C   0  0  0  0  0  0  0  0  0  0  0  0
   39.6820   22.6690   37.5120 C   0  0  0  0  0  0  0  0  0  0  0  0
   39.0050   23.2800   38.5140 N   0  0  0  0  0  0  0  0  0  0  0  0
   38.0280   24.1860   38.3210 C   0  0  0  0  0  0  0  0  0  0  0  0
   37.7130   24.4940   37.0740 N   0  0  0  0  0  0  0  0  0  0  0  0
   40.6780   21.7420   37.8950 N   0  0  0  0  0  0  0  0  0  0  0  0
   38.1720   22.2562   33.8990 H   0  0  0  0  0  0  0  0  0  0  0  0
   37.5753   22.9014   31.5902 H   0  0  0  0  0  0  0  0  0  0  0  0
   38.2496   28.8945   32.2209 H   0  0  0  0  0  0  0  0  0  0  0  0
   38.0074   27.6334   30.9918 H   0  0  0  0  0  0  0  0  0  0  0  0
   36.4822   29.9613   31.1548 H   0  0  0  0  0  0  0  0  0  0  0  0
   35.8804   28.5198   30.3881 H   0  0  0  0  0  0  0  0  0  0  0  0
   34.8664   29.6506   32.8071 H   0  0  0  0  0  0  0  0  0  0  0  0
   34.5185   28.0138   32.3306 H   0  0  0  0  0  0  0  0  0  0  0  0
   35.7872   27.7737   34.4344 H   0  0  0  0  0  0  0  0  0  0  0  0
   36.9154   29.0404   34.0384 H   0  0  0  0  0  0  0  0  0  0  0  0
   39.8547   22.5417   35.3314 H   0  0  0  0  0  0  0  0  0  0  0  0
   37.5097   24.6538   39.1710 H   0  0  0  0  0  0  0  0  0  0  0  0
   40.8576   21.5620   38.8931 H   0  0  0  0  0  0  0  0  0  0  0  0
   41.2242   21.2465   37.1760 H   0  0  0  0  0  0  0  0  0  0  0  0
  1 12  1  0
  2  1  2  0
  3  2  1  0
  4  3  2  0
  4  5  1  0
  5  6  2  0
  6  1  1  0
  7  5  1  0
  7 11  1  0
  8  7  1  0
  9  8  1  0
  9 10  1  0
 10 11  1  0
 12 13  2  0
 12 17  1  0
 13 14  1  0
 14 18  1  0
 14 15  2  0
 16 15  1  0
 17 16  2  0
  2 19  1  0
  3 20  1  0
  8 21  1  0
  8 22  1  0
  9 23  1  0
  9 24  1  0
 10 25  1  0
 10 26  1  0
 11 27  1  0
 11 28  1  0
 13 29  1  0
 16 30  1  0
 18 31  1  0
 18 32  1  0
M  ISO  8  19  14  20  14  21  13  22  13  23  13  24  13  25  13  26  13
M  ISO  4  27  13  28  13  29  14  30  14
M  END
>  <minimizedAffinity>  (1) 
-5.55813694

>  <minimizedRMSD>  (1) 
1.16833508

$$$$
