
     RDKit          3D

 26 28  0  0  0  0  0  0  0  0999 V2000
   38.0890   24.7220   34.9200 C   0  0  0  0  0  0  0  0  0  0  0  0
   38.3700   23.9840   33.7940 C   0  0  0  0  0  0  0  0  0  0  0  0
   38.0730   24.4820   32.5560 C   0  0  0  0  0  0  0  0  0  0  0  0
   37.4970   25.7150   32.4530 N   0  0  0  0  0  0  0  0  0  0  0  0
   37.2270   26.4280   33.5610 C   0  0  0  0  0  0  0  0  0  0  0  0
   37.5200   25.9360   34.7860 N   0  0  0  0  0  0  0  0  0  0  0  0
   36.6270   27.7140   33.4810 N   0  0  0  0  0  0  0  0  0  0  0  0
   36.4460   28.4220   32.3390 C   0  0  0  0  0  0  0  0  0  0  0  0
   35.8540   29.5920   32.6060 N   0  0  0  0  0  0  0  0  0  0  0  0
   35.6550   29.6290   33.9400 C   0  0  0  0  0  0  0  0  0  0  0  0
   36.1390   28.4670   34.4370 N   0  0  0  0  0  0  0  0  0  0  0  0
   38.3900   24.2270   36.2500 C   0  0  0  0  0  0  0  0  0  0  0  0
   39.3640   23.2460   36.3370 C   0  0  0  0  0  0  0  0  0  0  0  0
   39.6790   22.7460   37.6000 C   0  0  0  0  0  0  0  0  0  0  0  0
   39.0130   23.2460   38.6730 N   0  0  0  0  0  0  0  0  0  0  0  0
   38.0600   24.2100   38.5620 C   0  0  0  0  0  0  0  0  0  0  0  0
   37.7630   24.6830   37.3520 N   0  0  0  0  0  0  0  0  0  0  0  0
   40.6470   21.7470   37.8680 N   0  0  0  0  0  0  0  0  0  0  0  0
   38.8345   22.9915   33.8897 H   0  0  0  0  0  0  0  0  0  0  0  0
   38.2959   23.8953   31.6526 H   0  0  0  0  0  0  0  0  0  0  0  0
   36.7435   28.0829   31.3357 H   0  0  0  0  0  0  0  0  0  0  0  0
   35.1898   30.4451   34.5124 H   0  0  0  0  0  0  0  0  0  0  0  0
   39.8738   22.8725   35.4366 H   0  0  0  0  0  0  0  0  0  0  0  0
   37.5437   24.5924   39.4549 H   0  0  0  0  0  0  0  0  0  0  0  0
   40.8136   21.4379   38.8363 H   0  0  0  0  0  0  0  0  0  0  0  0
   41.1842   21.3298   37.0946 H   0  0  0  0  0  0  0  0  0  0  0  0
  1 12  1  0
  2  1  2  0
  3  2  1  0
  4  3  2  0
  4  5  1  0
  5  6  2  0
  6  1  1  0
  7  5  1  0
  7 11  1  0
  8  9  2  0
  8  7  1  0
  9 10  1  0
 10 11  2  0
 12 13  2  0
 12 17  1  0
 13 14  1  0
 14 18  1  0
 14 15  2  0
 16 15  1  0
 17 16  2  0
  2 19  1  0
  3 20  1  0
  8 21  1  0
 10 22  1  0
 13 23  1  0
 16 24  1  0
 18 25  1  0
 18 26  1  0
M  ISO  6  19  14  20  14  21  14  22  14  23  14  24  14
M  END
>  <minimizedAffinity>  (1) 
-5.5066371

>  <minimizedRMSD>  (1) 
0.444755167

$$$$
