
     RDKit          3D

 26 28  0  0  0  0  0  0  0  0999 V2000
   38.1450   24.8870   35.0020 C   0  0  0  0  0  0  0  0  0  0  0  0
   38.4880   24.2590   33.8280 C   0  0  0  0  0  0  0  0  0  0  0  0
   38.2170   24.7990   32.6160 C   0  0  0  0  0  0  0  0  0  0  0  0
   37.5840   26.0020   32.5600 N   0  0  0  0  0  0  0  0  0  0  0  0
   37.2490   26.6160   33.7010 C   0  0  0  0  0  0  0  0  0  0  0  0
   37.5200   26.0760   34.9080 N   0  0  0  0  0  0  0  0  0  0  0  0
   38.4300   24.3160   36.3010 C   0  0  0  0  0  0  0  0  0  0  0  0
   39.3990   23.3270   36.3350 C   0  0  0  0  0  0  0  0  0  0  0  0
   39.6720   22.7750   37.5940 C   0  0  0  0  0  0  0  0  0  0  0  0
   38.9920   23.2310   38.6710 N   0  0  0  0  0  0  0  0  0  0  0  0
   38.0540   24.1960   38.6010 C   0  0  0  0  0  0  0  0  0  0  0  0
   37.7900   24.7240   37.4060 N   0  0  0  0  0  0  0  0  0  0  0  0
   40.6310   21.7510   37.8360 N   0  0  0  0  0  0  0  0  0  0  0  0
   36.5680   27.8990   33.7680 C   0  0  0  0  0  0  0  0  0  0  0  0
   36.4080   28.2370   32.3740 C   0  0  0  0  0  0  0  0  0  0  0  0
   35.5080   29.9340   32.3770 S   0  0  0  0  0  0  0  0  0  0  0  0
   35.5420   29.8220   34.2950 C   0  0  0  0  0  0  0  0  0  0  0  0
   36.0550   28.8490   34.4960 N   0  0  0  0  0  0  0  0  0  0  0  0
   38.9993   23.2861   33.8747 H   0  0  0  0  0  0  0  0  0  0  0  0
   38.5037   24.2741   31.6928 H   0  0  0  0  0  0  0  0  0  0  0  0
   39.9235   22.9943   35.4272 H   0  0  0  0  0  0  0  0  0  0  0  0
   37.5229   24.5372   39.5018 H   0  0  0  0  0  0  0  0  0  0  0  0
   40.7751   21.3959   38.7920 H   0  0  0  0  0  0  0  0  0  0  0  0
   41.1808   21.3653   37.0550 H   0  0  0  0  0  0  0  0  0  0  0  0
   36.7308   27.6510   31.5008 H   0  0  0  0  0  0  0  0  0  0  0  0
   35.1489   30.5456   35.0243 H   0  0  0  0  0  0  0  0  0  0  0  0
  1  7  1  0
  2  1  2  0
  3  2  1  0
  4  3  2  0
  4  5  1  0
  5 14  1  0
  5  6  2  0
  6  1  1  0
  7  8  2  0
  7 12  1  0
  8  9  1  0
  9 13  1  0
  9 10  2  0
 11 10  1  0
 12 11  2  0
 14 18  1  0
 15 16  1  0
 15 14  2  0
 16 17  1  0
 17 18  2  0
  2 19  1  0
  3 20  1  0
  8 21  1  0
 11 22  1  0
 13 23  1  0
 13 24  1  0
 15 25  1  0
 17 26  1  0
M  ISO  6  19  14  20  14  21  14  22  14  25  14  26  14
M  END
>  <minimizedAffinity>  (1) 
-5.28495502

>  <minimizedRMSD>  (1) 
0.75961858

$$$$
