
     RDKit          3D

 27 29  0  0  0  0  0  0  0  0999 V2000
   38.0920   24.7280   34.9250 C   0  0  0  0  0  0  0  0  0  0  0  0
   38.3670   23.9930   33.7930 C   0  0  0  0  0  0  0  0  0  0  0  0
   38.0620   24.5060   32.5630 C   0  0  0  0  0  0  0  0  0  0  0  0
   37.4960   25.7280   32.4620 N   0  0  0  0  0  0  0  0  0  0  0  0
   37.2320   26.4350   33.5670 C   0  0  0  0  0  0  0  0  0  0  0  0
   37.5270   25.9420   34.7830 N   0  0  0  0  0  0  0  0  0  0  0  0
   38.3960   24.2250   36.2510 C   0  0  0  0  0  0  0  0  0  0  0  0
   39.3710   23.2450   36.3410 C   0  0  0  0  0  0  0  0  0  0  0  0
   39.6790   22.7480   37.6020 C   0  0  0  0  0  0  0  0  0  0  0  0
   39.0170   23.2460   38.6620 N   0  0  0  0  0  0  0  0  0  0  0  0
   38.0640   24.2080   38.5610 C   0  0  0  0  0  0  0  0  0  0  0  0
   37.7690   24.6820   37.3530 N   0  0  0  0  0  0  0  0  0  0  0  0
   40.6510   21.7420   37.8690 N   0  0  0  0  0  0  0  0  0  0  0  0
   36.6200   27.7520   33.4410 C   0  0  0  0  0  0  0  0  0  0  0  0
   36.4660   28.4900   32.2800 C   0  0  0  0  0  0  0  0  0  0  0  0
   35.8540   29.6450   32.6050 N   0  0  0  0  0  0  0  0  0  0  0  0
   35.6160   29.6680   33.9210 C   0  0  0  0  0  0  0  0  0  0  0  0
   36.0930   28.5070   34.3980 N   0  0  0  0  0  0  0  0  0  0  0  0
   38.8295   22.9986   33.8782 H   0  0  0  0  0  0  0  0  0  0  0  0
   38.2777   23.9232   31.6553 H   0  0  0  0  0  0  0  0  0  0  0  0
   39.8852   22.8720   35.4430 H   0  0  0  0  0  0  0  0  0  0  0  0
   37.5483   24.5863   39.4560 H   0  0  0  0  0  0  0  0  0  0  0  0
   40.8172   21.4303   38.8365 H   0  0  0  0  0  0  0  0  0  0  0  0
   41.1878   21.3261   37.0946 H   0  0  0  0  0  0  0  0  0  0  0  0
   36.7862   28.1873   31.2721 H   0  0  0  0  0  0  0  0  0  0  0  0
   35.1301   30.4716   34.4939 H   0  0  0  0  0  0  0  0  0  0  0  0
   36.0546   28.2339   35.3904 H   0  0  0  0  0  0  0  0  0  0  0  0
  1  7  1  0
  2  1  2  0
  3  2  1  0
  4  3  2  0
  4  5  1  0
  5  6  2  0
  6  1  1  0
  7  8  2  0
  7 12  1  0
  8  9  1  0
  9 13  1  0
  9 10  2  0
 11 10  1  0
 12 11  2  0
 14  5  1  0
 14 18  1  0
 15 16  1  0
 15 14  2  0
 16 17  2  0
 17 18  1  0
  2 19  1  0
  3 20  1  0
  8 21  1  0
 11 22  1  0
 13 23  1  0
 13 24  1  0
 15 25  1  0
 17 26  1  0
 18 27  1  0
M  ISO  7  19  14  20  14  21  14  22  14  25  14  26  14  27   9
M  END
>  <minimizedAffinity>  (1) 
-5.23228741

>  <minimizedRMSD>  (1) 
0.557712197

$$$$
