
     RDKit          3D

 37 40  0  0  0  0  0  0  0  0999 V2000
   40.0690   23.2570   34.7240 C   0  0  0  0  0  0  0  0  0  0  0  0
   41.1710   22.4270   34.8460 C   0  0  0  0  0  0  0  0  0  0  0  0
   41.8720   21.9890   33.7640 C   0  0  0  0  0  0  0  0  0  0  0  0
   41.4580   22.3900   32.5440 N   0  0  0  0  0  0  0  0  0  0  0  0
   40.3940   23.1910   32.4090 C   0  0  0  0  0  0  0  0  0  0  0  0
   39.6930   23.6320   33.4750 N   0  0  0  0  0  0  0  0  0  0  0  0
   39.3380   23.7130   35.8750 C   0  0  0  0  0  0  0  0  0  0  0  0
   39.2450   22.8600   36.9510 C   0  0  0  0  0  0  0  0  0  0  0  0
   38.5310   23.3250   38.0580 C   0  0  0  0  0  0  0  0  0  0  0  0
   37.9790   24.5750   38.0060 N   0  0  0  0  0  0  0  0  0  0  0  0
   38.0860   25.3890   36.9390 C   0  0  0  0  0  0  0  0  0  0  0  0
   38.7640   24.9430   35.8930 N   0  0  0  0  0  0  0  0  0  0  0  0
   38.3440   22.5760   39.2390 N   0  0  0  0  0  0  0  0  0  0  0  0
   39.9090   23.6730   30.7690 S   0  0  0  0  0  0  0  0  0  0  0  0
   39.0920   25.2590   30.8960 C   0  0  0  0  0  0  0  0  0  0  0  0
   39.7130   26.4900   30.9430 C   0  0  0  0  0  0  0  0  0  0  0  0
   38.9840   27.6540   31.0420 C   0  0  0  0  0  0  0  0  0  0  0  0
   37.5870   27.6170   31.0970 C   0  0  0  0  0  0  0  0  0  0  0  0
   36.9970   26.3730   31.0480 C   0  0  0  0  0  0  0  0  0  0  0  0
   35.6130   26.3300   31.1030 C   0  0  0  0  0  0  0  0  0  0  0  0
   34.9320   25.1160   31.0590 C   0  0  0  0  0  0  0  0  0  0  0  0
   35.6320   23.9240   30.9600 C   0  0  0  0  0  0  0  0  0  0  0  0
   37.0040   24.0140   30.9080 C   0  0  0  0  0  0  0  0  0  0  0  0
   37.7090   25.1930   30.9500 C   0  0  0  0  0  0  0  0  0  0  0  0
   41.4905   22.1112   35.8501 H   0  0  0  0  0  0  0  0  0  0  0  0
   42.7457   21.3309   33.8805 H   0  0  0  0  0  0  0  0  0  0  0  0
   39.7093   21.8628   36.9399 H   0  0  0  0  0  0  0  0  0  0  0  0
   37.6267   26.3885   36.9364 H   0  0  0  0  0  0  0  0  0  0  0  0
   37.8067   22.9747   40.0221 H   0  0  0  0  0  0  0  0  0  0  0  0
   38.7448   21.6305   39.3181 H   0  0  0  0  0  0  0  0  0  0  0  0
   40.8109   26.5427   30.9006 H   0  0  0  0  0  0  0  0  0  0  0  0
   39.5053   28.6220   31.0782 H   0  0  0  0  0  0  0  0  0  0  0  0
   36.9884   28.5365   31.1756 H   0  0  0  0  0  0  0  0  0  0  0  0
   35.0442   27.2681   31.1825 H   0  0  0  0  0  0  0  0  0  0  0  0
   33.8330   25.1032   31.1030 H   0  0  0  0  0  0  0  0  0  0  0  0
   35.1159   22.9532   30.9247 H   0  0  0  0  0  0  0  0  0  0  0  0
   37.5760   23.0779   30.8273 H   0  0  0  0  0  0  0  0  0  0  0  0
  1  2  2  0
  1  7  1  0
  3  2  1  0
  4  3  2  0
  5  4  1  0
  5  6  2  0
  6  1  1  0
  7 12  1  0
  7  8  2  0
  8  9  1  0
  9 13  1  0
 10  9  2  0
 11 10  1  0
 12 11  2  0
 14 15  1  0
 14  5  1  0
 15 16  2  0
 15 24  1  0
 16 17  1  0
 17 18  2  0
 19 18  1  0
 19 20  2  0
 21 20  1  0
 22 21  2  0
 23 24  2  0
 23 22  1  0
 24 19  1  0
  2 25  1  0
  3 26  1  0
  8 27  1  0
 11 28  1  0
 13 29  1  0
 13 30  1  0
 16 31  1  0
 17 32  1  0
 18 33  1  0
 20 34  1  0
 21 35  1  0
 22 36  1  0
 23 37  1  0
M  ISO  8  25  14  26  14  27  14  28  14  31  14  32  14  33  14  34  14
M  ISO  3  35  14  36  14  37  14
M  END
>  <minimizedAffinity>  (1) 
-5.46645737

>  <minimizedRMSD>  (1) 
4.34968996

$$$$
