
     RDKit          3D

 30 31  0  0  0  0  0  0  0  0999 V2000
   38.0050   24.8690   35.0870 C   0  0  0  0  0  0  0  0  0  0  0  0
   38.2010   24.1530   33.9070 C   0  0  0  0  0  0  0  0  0  0  0  0
   37.8470   24.7110   32.7130 C   0  0  0  0  0  0  0  0  0  0  0  0
   37.3080   25.9600   32.6920 N   0  0  0  0  0  0  0  0  0  0  0  0
   37.1280   26.6310   33.8370 C   0  0  0  0  0  0  0  0  0  0  0  0
   37.4640   26.1140   35.0300 N   0  0  0  0  0  0  0  0  0  0  0  0
   38.3710   24.2950   36.3600 C   0  0  0  0  0  0  0  0  0  0  0  0
   39.3260   23.3110   36.3810 C   0  0  0  0  0  0  0  0  0  0  0  0
   39.6790   22.7540   37.6030 C   0  0  0  0  0  0  0  0  0  0  0  0
   39.0490   23.2220   38.7110 N   0  0  0  0  0  0  0  0  0  0  0  0
   38.1100   24.1900   38.6880 C   0  0  0  0  0  0  0  0  0  0  0  0
   37.7900   24.7060   37.5080 N   0  0  0  0  0  0  0  0  0  0  0  0
   40.6450   21.7320   37.7920 N   0  0  0  0  0  0  0  0  0  0  0  0
   36.4180   28.2670   33.7630 S   0  0  0  0  0  0  0  0  0  0  0  0
   35.3380   28.4790   32.3480 C   0  0  0  0  0  0  0  0  0  0  0  0
   36.1440   29.2570   31.2990 C   0  0  0  0  0  0  0  0  0  0  0  0
   34.0680   29.2230   32.6460 C   0  0  0  0  0  0  0  0  0  0  0  0
   38.6384   23.1442   33.9382 H   0  0  0  0  0  0  0  0  0  0  0  0
   37.9962   24.1555   31.7753 H   0  0  0  0  0  0  0  0  0  0  0  0
   39.8022   22.9703   35.4498 H   0  0  0  0  0  0  0  0  0  0  0  0
   37.6274   24.5387   39.6129 H   0  0  0  0  0  0  0  0  0  0  0  0
   40.8423   21.3786   38.7392 H   0  0  0  0  0  0  0  0  0  0  0  0
   41.1489   21.3435   36.9820 H   0  0  0  0  0  0  0  0  0  0  0  0
   35.0204   27.4832   32.0053 H   0  0  0  0  0  0  0  0  0  0  0  0
   36.8466   29.9352   31.8054 H   0  0  0  0  0  0  0  0  0  0  0  0
   36.7053   28.5505   30.6699 H   0  0  0  0  0  0  0  0  0  0  0  0
   35.4578   29.8429   30.6699 H   0  0  0  0  0  0  0  0  0  0  0  0
   33.9355   29.3006   33.7352 H   0  0  0  0  0  0  0  0  0  0  0  0
   34.1231   30.2316   32.2105 H   0  0  0  0  0  0  0  0  0  0  0  0
   33.2151   28.6817   32.2105 H   0  0  0  0  0  0  0  0  0  0  0  0
  1  7  1  0
  2  1  2  0
  3  2  1  0
  4  3  2  0
  4  5  1  0
  5  6  2  0
  6  1  1  0
  7  8  2  0
  7 12  1  0
  8  9  1  0
  9 13  1  0
  9 10  2  0
 11 10  1  0
 12 11  2  0
 14  5  1  0
 15 17  1  0
 15 14  1  0
 16 15  1  0
  2 18  1  0
  3 19  1  0
  8 20  1  0
 11 21  1  0
 13 22  1  0
 13 23  1  0
 15 24  1  0
 16 25  1  0
 16 26  1  0
 16 27  1  0
 17 28  1  0
 17 29  1  0
 17 30  1  0
M  ISO  8  18  14  19  14  20  14  21  14  24   8  25   8  26   8  27   8
M  ISO  3  28   8  29   8  30   8
M  END
>  <minimizedAffinity>  (1) 
-4.83191967

>  <minimizedRMSD>  (1) 
0.58112371

$$$$
