
     RDKit          3D

 33 35  0  0  1  0  0  0  0  0999 V2000
   38.1980   24.4560   34.5650 C   0  0  0  0  0  0  0  0  0  0  0  0
   38.5990   23.6590   33.5040 C   0  0  0  0  0  0  0  0  0  0  0  0
   38.3640   24.0310   32.2160 C   0  0  0  0  0  0  0  0  0  0  0  0
   37.7260   25.2040   31.9850 N   0  0  0  0  0  0  0  0  0  0  0  0
   37.3350   25.9800   33.0160 C   0  0  0  0  0  0  0  0  0  0  0  0
   37.5720   25.6040   34.2840 N   0  0  0  0  0  0  0  0  0  0  0  0
   38.4460   24.0630   35.9260 C   0  0  0  0  0  0  0  0  0  0  0  0
   39.4200   23.1000   36.1440 C   0  0  0  0  0  0  0  0  0  0  0  0
   39.6450   22.7300   37.4770 C   0  0  0  0  0  0  0  0  0  0  0  0
   38.9090   23.3300   38.4580 N   0  0  0  0  0  0  0  0  0  0  0  0
   37.9700   24.2650   38.2110 C   0  0  0  0  0  0  0  0  0  0  0  0
   37.7530   24.6160   36.9530 N   0  0  0  0  0  0  0  0  0  0  0  0
   40.5950   21.7690   37.8770 N   0  0  0  0  0  0  0  0  0  0  0  0
   36.4940   27.5180   32.6620 S   0  0  0  0  0  0  0  0  0  0  0  0
   37.4160   27.6760   30.1230 N   0  0  0  0  0  0  0  0  0  0  0  0
   37.3780   28.6140   29.0400 C   0  0  0  0  0  0  0  0  0  0  0  0
   37.4730   29.9980   29.6680 C   0  0  0  0  0  0  0  0  0  0  0  0
   36.8380   29.7170   31.0310 C   0  0  0  0  0  0  0  0  0  0  0  0
   37.4030   28.3810   31.3620 C   0  0  1  0  0  0  0  0  0  0  0  0
   39.1161   22.7095   33.7065 H   0  0  0  0  0  0  0  0  0  0  0  0
   38.6853   23.3926   31.3798 H   0  0  0  0  0  0  0  0  0  0  0  0
   39.9859   22.6505   35.3147 H   0  0  0  0  0  0  0  0  0  0  0  0
   37.3997   24.7238   39.0321 H   0  0  0  0  0  0  0  0  0  0  0  0
   40.7102   21.5432   38.8753 H   0  0  0  0  0  0  0  0  0  0  0  0
   41.1741   21.2924   37.1710 H   0  0  0  0  0  0  0  0  0  0  0  0
   38.2749   27.1112   30.0582 H   0  0  0  0  0  0  0  0  0  0  0  0
   36.4355   28.5131   28.4819 H   0  0  0  0  0  0  0  0  0  0  0  0
   38.2013   28.4396   28.3317 H   0  0  0  0  0  0  0  0  0  0  0  0
   38.5168   30.3312   29.7651 H   0  0  0  0  0  0  0  0  0  0  0  0
   36.9930   30.8020   29.0908 H   0  0  0  0  0  0  0  0  0  0  0  0
   37.1343   30.4721   31.7739 H   0  0  0  0  0  0  0  0  0  0  0  0
   35.7384   29.7457   31.0239 H   0  0  0  0  0  0  0  0  0  0  0  0
   38.4122   28.4670   31.7912 H   0  0  0  0  0  0  0  0  0  0  0  0
  1  7  1  0
  2  1  2  0
  3  2  1  0
  4  3  2  0
  4  5  1  0
  5  6  2  0
  6  1  1  0
  7  8  2  0
  7 12  1  0
  8  9  1  0
  9 13  1  0
  9 10  2  0
 11 10  1  0
 12 11  2  0
 14  5  1  0
 15 19  1  0
 16 17  1  0
 16 15  1  0
 17 18  1  0
 18 19  1  0
 19 14  1  0
  2 20  1  0
  3 21  1  0
  8 22  1  0
 11 23  1  0
 13 24  1  0
 13 25  1  0
 15 26  1  0
 16 27  1  0
 16 28  1  0
 17 29  1  0
 17 30  1  0
 18 31  1  0
 18 32  1  0
 19 33  1  1
M  ISO  8  20  14  21  14  22  14  23  14  26   5  27  13  28  13  29  13
M  ISO  4  30  13  31  13  32  13  33  13
M  END
>  <minimizedAffinity>  (1) 
-5.19474792

>  <minimizedRMSD>  (1) 
1.39517832

$$$$
