
     RDKit          3D

 28 30  0  0  0  0  0  0  0  0999 V2000
   38.0750   24.6280   34.7620 C   0  0  0  0  0  0  0  0  0  0  0  0
   38.2780   23.8110   33.6630 C   0  0  0  0  0  0  0  0  0  0  0  0
   37.9980   24.2580   32.4110 C   0  0  0  0  0  0  0  0  0  0  0  0
   37.5170   25.5100   32.2420 N   0  0  0  0  0  0  0  0  0  0  0  0
   37.3190   26.3090   33.3120 C   0  0  0  0  0  0  0  0  0  0  0  0
   37.5920   25.8780   34.5590 N   0  0  0  0  0  0  0  0  0  0  0  0
   38.3610   24.1890   36.1020 C   0  0  0  0  0  0  0  0  0  0  0  0
   39.3210   23.2210   36.2550 C   0  0  0  0  0  0  0  0  0  0  0  0
   39.6040   22.7890   37.5470 C   0  0  0  0  0  0  0  0  0  0  0  0
   38.9230   23.3450   38.5700 N   0  0  0  0  0  0  0  0  0  0  0  0
   37.9860   24.2890   38.4170 C   0  0  0  0  0  0  0  0  0  0  0  0
   37.7270   24.6900   37.1780 N   0  0  0  0  0  0  0  0  0  0  0  0
   40.5700   21.7930   37.8760 N   0  0  0  0  0  0  0  0  0  0  0  0
   36.6930   27.9400   33.0400 S   0  0  0  0  0  0  0  0  0  0  0  0
   35.8940   28.6970   34.4390 C   0  0  0  0  0  0  0  0  0  0  0  0
   34.5660   29.4080   34.1010 C   0  0  0  0  0  0  0  0  0  0  0  0
   35.7640   30.1300   34.6710 C   0  0  0  0  0  0  0  0  0  0  0  0
   38.6688   22.7926   33.8045 H   0  0  0  0  0  0  0  0  0  0  0  0
   38.1616   23.6055   31.5406 H   0  0  0  0  0  0  0  0  0  0  0  0
   39.8488   22.8008   35.3862 H   0  0  0  0  0  0  0  0  0  0  0  0
   37.4536   24.7141   39.2806 H   0  0  0  0  0  0  0  0  0  0  0  0
   40.7215   21.5275   38.8596 H   0  0  0  0  0  0  0  0  0  0  0  0
   41.1163   21.3391   37.1300 H   0  0  0  0  0  0  0  0  0  0  0  0
   36.2830   27.9054   35.0963 H   0  0  0  0  0  0  0  0  0  0  0  0
   34.2668   29.5634   33.0539 H   0  0  0  0  0  0  0  0  0  0  0  0
   33.5073   29.2864   34.3735 H   0  0  0  0  0  0  0  0  0  0  0  0
   35.7275   30.5115   35.7021 H   0  0  0  0  0  0  0  0  0  0  0  0
   36.3453   31.0088   34.3550 H   0  0  0  0  0  0  0  0  0  0  0  0
  1  7  1  0
  2  1  2  0
  3  2  1  0
  4  3  2  0
  4  5  1  0
  5  6  2  0
  6  1  1  0
  7  8  2  0
  7 12  1  0
  8  9  1  0
  9 13  1  0
  9 10  2  0
 11 10  1  0
 12 11  2  0
 14  5  1  0
 14 15  1  0
 15 17  1  0
 16 15  1  0
 16 17  1  0
  2 18  1  0
  3 19  1  0
  8 20  1  0
 11 21  1  0
 13 22  1  0
 13 23  1  0
 15 24  1  0
 16 25  1  0
 16 26  1  0
 17 27  1  0
 17 28  1  0
M  ISO  8  18  14  19  14  20  14  21  14  24  13  25  13  26  13  27  13
M  ISO  1  28  13
M  END
>  <minimizedAffinity>  (1) 
-4.88603449

>  <minimizedRMSD>  (1) 
0.768782496

$$$$
