
     RDKit          3D

 36 39  0  0  0  0  0  0  0  0999 V2000
   38.3890   26.1150   33.9950 C   0  0  0  0  0  0  0  0  0  0  0  0
   39.4110   26.3390   33.1050 C   0  0  0  0  0  0  0  0  0  0  0  0
   39.2300   27.2030   32.0620 C   0  0  0  0  0  0  0  0  0  0  0  0
   38.0400   27.8370   31.9100 N   0  0  0  0  0  0  0  0  0  0  0  0
   37.0360   27.6150   32.7860 C   0  0  0  0  0  0  0  0  0  0  0  0
   37.2450   26.7660   33.7930 N   0  0  0  0  0  0  0  0  0  0  0  0
   38.5380   25.2210   35.1020 C   0  0  0  0  0  0  0  0  0  0  0  0
   39.6370   24.4000   35.1450 C   0  0  0  0  0  0  0  0  0  0  0  0
   39.7800   23.5360   36.2240 C   0  0  0  0  0  0  0  0  0  0  0  0
   38.8110   23.5540   37.1890 N   0  0  0  0  0  0  0  0  0  0  0  0
   37.7390   24.3580   37.1420 C   0  0  0  0  0  0  0  0  0  0  0  0
   37.6180   25.1740   36.1070 N   0  0  0  0  0  0  0  0  0  0  0  0
   40.8510   22.6460   36.3970 N   0  0  0  0  0  0  0  0  0  0  0  0
   35.5130   28.4760   32.5280 S   0  0  0  0  0  0  0  0  0  0  0  0
   35.0020   29.4990   33.8520 C   0  0  0  0  0  0  0  0  0  0  0  0
   35.6870   30.4510   34.5970 C   0  0  0  0  0  0  0  0  0  0  0  0
   35.0260   31.1330   35.5990 C   0  0  0  0  0  0  0  0  0  0  0  0
   33.7540   30.9070   35.8730 N   0  0  0  0  0  0  0  0  0  0  0  0
   33.0770   29.9730   35.1460 C   0  0  0  0  0  0  0  0  0  0  0  0
   33.6840   29.2800   34.1520 N   0  0  0  0  0  0  0  0  0  0  0  0
   31.7140   29.8100   35.5250 N   0  0  0  0  0  0  0  0  0  0  0  0
   30.9440   28.8890   34.9290 N   0  0  0  0  0  0  0  0  0  0  0  0
   29.7190   28.9090   35.4330 C   0  0  0  0  0  0  0  0  0  0  0  0
   29.7510   29.9140   36.4010 C   0  0  0  0  0  0  0  0  0  0  0  0
   31.0280   30.4790   36.4490 C   0  0  0  0  0  0  0  0  0  0  0  0
   40.3743   25.8233   33.2318 H   0  0  0  0  0  0  0  0  0  0  0  0
   40.0466   27.3841   31.3476 H   0  0  0  0  0  0  0  0  0  0  0  0
   40.3887   24.4254   34.3423 H   0  0  0  0  0  0  0  0  0  0  0  0
   36.9823   24.3399   37.9402 H   0  0  0  0  0  0  0  0  0  0  0  0
   40.8851   22.0362   37.2264 H   0  0  0  0  0  0  0  0  0  0  0  0
   41.6031   22.6025   35.6946 H   0  0  0  0  0  0  0  0  0  0  0  0
   36.7471   30.6595   34.3902 H   0  0  0  0  0  0  0  0  0  0  0  0
   35.5739   31.8854   36.1853 H   0  0  0  0  0  0  0  0  0  0  0  0
   28.8659   28.2744   35.1511 H   0  0  0  0  0  0  0  0  0  0  0  0
   28.9005   30.2153   37.0302 H   0  0  0  0  0  0  0  0  0  0  0  0
   31.3846   31.2903   37.1007 H   0  0  0  0  0  0  0  0  0  0  0  0
  1  7  1  0
  2  1  2  0
  3  2  1  0
  4  3  2  0
  4  5  1  0
  5  6  2  0
  6  1  1  0
  7  8  2  0
  7 12  1  0
  8  9  1  0
  9 13  1  0
  9 10  2  0
 11 10  1  0
 12 11  2  0
 14  5  1  0
 14 15  1  0
 15 20  1  0
 15 16  2  0
 16 17  1  0
 17 18  2  0
 19 21  1  0
 19 18  1  0
 20 19  2  0
 21 25  1  0
 22 23  2  0
 22 21  1  0
 23 24  1  0
 24 25  2  0
  2 26  1  0
  3 27  1  0
  8 28  1  0
 11 29  1  0
 13 30  1  0
 13 31  1  0
 16 32  1  0
 17 33  1  0
 23 34  1  0
 24 35  1  0
 25 36  1  0
M  ISO  8  26  14  27  14  28  14  29  14  32  14  33  14  34  14  35  14
M  ISO  1  36  14
M  END
>  <minimizedAffinity>  (1) 
-5.36543608

>  <minimizedRMSD>  (1) 
1.40200269

$$$$
