
     RDKit          3D

 36 39  0  0  0  0  0  0  0  0999 V2000
   38.3670   26.1200   34.0310 C   0  0  0  0  0  0  0  0  0  0  0  0
   39.3760   26.3240   33.1220 C   0  0  0  0  0  0  0  0  0  0  0  0
   39.1740   27.1970   32.0820 C   0  0  0  0  0  0  0  0  0  0  0  0
   37.9860   27.8480   31.9590 N   0  0  0  0  0  0  0  0  0  0  0  0
   37.0050   27.6370   32.8600 C   0  0  0  0  0  0  0  0  0  0  0  0
   37.2200   26.7840   33.8650 N   0  0  0  0  0  0  0  0  0  0  0  0
   38.5260   25.2210   35.1330 C   0  0  0  0  0  0  0  0  0  0  0  0
   39.6280   24.4040   35.1640 C   0  0  0  0  0  0  0  0  0  0  0  0
   39.7850   23.5290   36.2310 C   0  0  0  0  0  0  0  0  0  0  0  0
   38.8360   23.5240   37.1950 N   0  0  0  0  0  0  0  0  0  0  0  0
   37.7430   24.3310   37.1690 C   0  0  0  0  0  0  0  0  0  0  0  0
   37.6130   25.1590   36.1390 N   0  0  0  0  0  0  0  0  0  0  0  0
   40.8560   22.6470   36.4000 N   0  0  0  0  0  0  0  0  0  0  0  0
   35.4860   28.5200   32.6410 S   0  0  0  0  0  0  0  0  0  0  0  0
   35.0330   29.5650   33.9640 C   0  0  0  0  0  0  0  0  0  0  0  0
   35.7390   30.4950   34.6800 C   0  0  0  0  0  0  0  0  0  0  0  0
   35.1660   31.2330   35.6870 C   0  0  0  0  0  0  0  0  0  0  0  0
   33.8920   31.0590   35.9960 N   0  0  0  0  0  0  0  0  0  0  0  0
   33.1800   30.1460   35.3010 C   0  0  0  0  0  0  0  0  0  0  0  0
   33.7230   29.3970   34.2940 N   0  0  0  0  0  0  0  0  0  0  0  0
   31.7260   29.9740   35.6790 C   0  0  0  0  0  0  0  0  0  0  0  0
   30.8700   30.6240   36.4250 C   0  0  0  0  0  0  0  0  0  0  0  0
   29.5960   30.1460   36.5280 C   0  0  0  0  0  0  0  0  0  0  0  0
   29.2910   28.9870   35.8250 C   0  0  0  0  0  0  0  0  0  0  0  0
   30.9560   28.6090   34.9920 S   0  0  0  0  0  0  0  0  0  0  0  0
   40.3344   25.7943   33.2260 H   0  0  0  0  0  0  0  0  0  0  0  0
   39.9739   27.3703   31.3471 H   0  0  0  0  0  0  0  0  0  0  0  0
   40.3747   24.4415   34.3571 H   0  0  0  0  0  0  0  0  0  0  0  0
   36.9926   24.2995   37.9726 H   0  0  0  0  0  0  0  0  0  0  0  0
   40.8911   22.0316   37.2252 H   0  0  0  0  0  0  0  0  0  0  0  0
   41.6102   22.6124   35.6993 H   0  0  0  0  0  0  0  0  0  0  0  0
   36.8004   30.6563   34.4406 H   0  0  0  0  0  0  0  0  0  0  0  0
   35.7684   31.9705   36.2377 H   0  0  0  0  0  0  0  0  0  0  0  0
   31.1713   31.5376   36.9585 H   0  0  0  0  0  0  0  0  0  0  0  0
   28.8409   30.6577   37.1428 H   0  0  0  0  0  0  0  0  0  0  0  0
   28.3406   28.4362   35.7665 H   0  0  0  0  0  0  0  0  0  0  0  0
  1  7  1  0
  2  1  2  0
  3  2  1  0
  4  3  2  0
  4  5  1  0
  5  6  2  0
  6  1  1  0
  7  8  2  0
  7 12  1  0
  8  9  1  0
  9 13  1  0
  9 10  2  0
 11 10  1  0
 12 11  2  0
 14  5  1  0
 14 15  1  0
 15 20  1  0
 15 16  2  0
 16 17  1  0
 17 18  2  0
 19 21  1  0
 19 18  1  0
 20 19  2  0
 21 22  2  0
 22 23  1  0
 24 23  2  0
 25 21  1  0
 25 24  1  0
  2 26  1  0
  3 27  1  0
  8 28  1  0
 11 29  1  0
 13 30  1  0
 13 31  1  0
 16 32  1  0
 17 33  1  0
 22 34  1  0
 23 35  1  0
 24 36  1  0
M  ISO  8  26  14  27  14  28  14  29  14  32  14  33  14  34  14  35  14
M  ISO  1  36  14
M  END
>  <minimizedAffinity>  (1) 
-5.17128658

>  <minimizedRMSD>  (1) 
1.27229953

$$$$
