
     RDKit          3D

 29 29  0  0  0  0  0  0  0  0999 V2000
   38.3590   23.5400   36.0720 C   0  0  0  0  0  0  0  0  0  0  0  0
   39.7530   23.0990   36.3410 C   0  0  0  0  0  0  0  0  0  0  0  0
   40.7300   23.8730   35.7010 C   0  0  0  0  0  0  0  0  0  0  0  0
   42.0770   23.5420   35.8880 C   0  0  0  0  0  0  0  0  0  0  0  0
   42.3610   22.4720   36.6930 N   0  0  0  0  0  0  0  0  0  0  0  0
   41.3870   21.7470   37.2940 C   0  0  0  0  0  0  0  0  0  0  0  0
   40.1090   22.0730   37.1090 N   0  0  0  0  0  0  0  0  0  0  0  0
   38.2960   24.6050   35.0160 C   0  0  0  0  0  0  0  0  0  0  0  0
   37.7410   24.1660   37.3310 C   0  0  0  0  0  0  0  0  0  0  0  0
   37.5230   22.3840   35.6720 C   0  0  0  0  0  0  0  0  0  0  0  0
   36.8200   21.7170   36.7230 N   0  0  0  0  0  0  0  0  0  0  0  0
   35.6230   20.9710   36.4160 C   0  0  0  0  0  0  0  0  0  0  0  0
   35.5190   20.5820   35.1950 N   0  0  0  0  0  0  0  0  0  0  0  0
   34.6650   20.7130   37.4130 N   0  0  0  0  0  0  0  0  0  0  0  0
   34.7400   20.0460   34.8040 H   0  0  0  0  0  0  0  0  0  0  0  0
   40.4442   24.7234   35.0646 H   0  0  0  0  0  0  0  0  0  0  0  0
   42.8784   24.1208   35.4055 H   0  0  0  0  0  0  0  0  0  0  0  0
   41.6510   20.8914   37.9330 H   0  0  0  0  0  0  0  0  0  0  0  0
   38.2375   25.5934   35.4951 H   0  0  0  0  0  0  0  0  0  0  0  0
   39.1987   24.5540   34.3895 H   0  0  0  0  0  0  0  0  0  0  0  0
   37.4056   24.4480   34.3895 H   0  0  0  0  0  0  0  0  0  0  0  0
   38.1907   23.7105   38.2256 H   0  0  0  0  0  0  0  0  0  0  0  0
   37.9340   25.2489   37.3346 H   0  0  0  0  0  0  0  0  0  0  0  0
   36.6557   23.9870   37.3346 H   0  0  0  0  0  0  0  0  0  0  0  0
   36.7785   22.7438   34.9465 H   0  0  0  0  0  0  0  0  0  0  0  0
   38.2255   21.6390   35.2702 H   0  0  0  0  0  0  0  0  0  0  0  0
   37.1651   21.7684   37.6921 H   0  0  0  0  0  0  0  0  0  0  0  0
   33.8141   20.1797   37.1839 H   0  0  0  0  0  0  0  0  0  0  0  0
   34.8144   21.0573   38.3722 H   0  0  0  0  0  0  0  0  0  0  0  0
  1  2  1  0
  1  9  1  0
  2  7  2  0
  3  4  2  0
  3  2  1  0
  4  5  1  0
  5  6  2  0
  7  6  1  0
  8  1  1  0
 10  1  1  0
 10 11  1  0
 12 11  1  0
 12 14  1  0
 13 12  2  0
 15 13  1  0
  3 16  1  0
  4 17  1  0
  6 18  1  0
  8 19  1  0
  8 20  1  0
  8 21  1  0
  9 22  1  0
  9 23  1  0
  9 24  1  0
 10 25  1  0
 10 26  1  0
 11 27  1  0
 14 28  1  0
 14 29  1  0
M  ISO  8  16  14  17  14  18  14  19   8  20   8  21   8  22   8  23   8
M  ISO  3  24   8  25   8  26   8
M  END
>  <minimizedAffinity>  (1) 
-4.91027212

>  <minimizedRMSD>  (1) 
1.50321126

$$$$
