
     RDKit          3D

 38 39  0  0  0  0  0  0  0  0999 V2000
   44.1980   24.2890   36.3220 C   0  0  0  0  0  0  0  0  0  0  0  0
   43.8080   25.3690   35.3290 C   0  0  0  0  0  0  0  0  0  0  0  0
   42.4200   25.3840   35.0160 C   0  0  0  0  0  0  0  0  0  0  0  0
   41.9460   26.3370   34.1100 C   0  0  0  0  0  0  0  0  0  0  0  0
   42.8510   27.2030   33.5810 N   0  0  0  0  0  0  0  0  0  0  0  0
   44.1730   27.1600   33.9040 C   0  0  0  0  0  0  0  0  0  0  0  0
   44.6360   26.2510   34.7690 N   0  0  0  0  0  0  0  0  0  0  0  0
   42.9820   23.5130   36.7620 C   0  0  0  0  0  0  0  0  0  0  0  0
   44.7450   24.9590   37.5700 C   0  0  0  0  0  0  0  0  0  0  0  0
   45.1870   23.4180   35.6800 C   0  0  0  0  0  0  0  0  0  0  0  0
   44.9820   21.9690   35.5520 C   0  0  0  0  0  0  0  0  0  0  0  0
   44.7560   21.7330   34.0370 C   0  0  0  0  0  0  0  0  0  0  0  0
   44.5970   20.2870   33.7310 C   0  0  0  0  0  0  0  0  0  0  0  0
   45.7850   19.4540   34.1660 C   0  0  0  0  0  0  0  0  0  0  0  0
   45.9080   19.6510   35.6480 C   0  0  0  0  0  0  0  0  0  0  0  0
   46.1170   21.1190   36.0000 C   0  0  0  0  0  0  0  0  0  0  0  0
   41.7333   24.6596   35.4781 H   0  0  0  0  0  0  0  0  0  0  0  0
   40.8819   26.3846   33.8355 H   0  0  0  0  0  0  0  0  0  0  0  0
   44.8679   27.8808   33.4485 H   0  0  0  0  0  0  0  0  0  0  0  0
   42.9414   23.4871   37.8609 H   0  0  0  0  0  0  0  0  0  0  0  0
   42.0757   24.0001   36.3730 H   0  0  0  0  0  0  0  0  0  0  0  0
   43.0420   22.4858   36.3730 H   0  0  0  0  0  0  0  0  0  0  0  0
   44.3380   24.4605   38.4621 H   0  0  0  0  0  0  0  0  0  0  0  0
   45.8424   24.8829   37.5760 H   0  0  0  0  0  0  0  0  0  0  0  0
   44.4509   26.0189   37.5760 H   0  0  0  0  0  0  0  0  0  0  0  0
   45.3177   23.8019   34.6575 H   0  0  0  0  0  0  0  0  0  0  0  0
   46.0315   23.4704   36.3828 H   0  0  0  0  0  0  0  0  0  0  0  0
   44.1447   21.6786   36.2036 H   0  0  0  0  0  0  0  0  0  0  0  0
   43.8471   22.2672   33.7233 H   0  0  0  0  0  0  0  0  0  0  0  0
   45.6360   22.1071   33.4933 H   0  0  0  0  0  0  0  0  0  0  0  0
   43.7005   19.9159   34.2493 H   0  0  0  0  0  0  0  0  0  0  0  0
   44.5106   20.1902   32.6387 H   0  0  0  0  0  0  0  0  0  0  0  0
   45.6127   18.3925   33.9346 H   0  0  0  0  0  0  0  0  0  0  0  0
   46.7032   19.7573   33.6418 H   0  0  0  0  0  0  0  0  0  0  0  0
   44.9878   19.2943   36.1337 H   0  0  0  0  0  0  0  0  0  0  0  0
   46.7817   19.0834   36.0006 H   0  0  0  0  0  0  0  0  0  0  0  0
   47.0383   21.4726   35.5140 H   0  0  0  0  0  0  0  0  0  0  0  0
   46.1876   21.1980   37.0949 H   0  0  0  0  0  0  0  0  0  0  0  0
  1  8  1  0
  1  9  1  0
  2  1  1  0
  3  2  2  0
  4  3  1  0
  5  6  1  0
  5  4  2  0
  6  7  2  0
  7  2  1  0
 10  1  1  0
 11 10  1  0
 11 16  1  0
 12 11  1  0
 13 12  1  0
 13 14  1  0
 14 15  1  0
 15 16  1  0
  3 17  1  0
  4 18  1  0
  6 19  1  0
  8 20  1  0
  8 21  1  0
  8 22  1  0
  9 23  1  0
  9 24  1  0
  9 25  1  0
 10 26  1  0
 10 27  1  0
 11 28  1  0
 12 29  1  0
 12 30  1  0
 13 31  1  0
 13 32  1  0
 14 33  1  0
 14 34  1  0
 15 35  1  0
 15 36  1  0
 16 37  1  0
 16 38  1  0
M  ISO  8  17  14  18  14  19  14  20   8  21   8  22   8  23   8  24   8
M  ISO  8  25   8  26   8  27   8  28  13  29  13  30  13  31  13  32  13
M  ISO  6  33  13  34  13  35  13  36  13  37  13  38  13
M  END
>  <minimizedAffinity>  (1) 
-2.78714108

>  <minimizedRMSD>  (1) 
8.4126749

$$$$
