
     RDKit          3D

 48 50  0  0  0  0  0  0  0  0999 V2000
   38.6670   22.4770   35.0040 C   0  0  0  0  0  0  0  0  0  0  0  0
   37.5000   21.7240   34.7070 C   0  0  0  0  0  0  0  0  0  0  0  0
   36.5590   21.2100   35.6630 C   0  0  0  0  0  0  0  0  0  0  0  0
   35.4890   20.6150   35.0800 N   0  0  0  0  0  0  0  0  0  0  0  0
   35.6710   20.7040   33.7510 C   0  0  0  0  0  0  0  0  0  0  0  0
   34.9090   20.3240   32.6590 C   0  0  0  0  0  0  0  0  0  0  0  0
   35.3470   20.5770   31.3530 C   0  0  0  0  0  0  0  0  0  0  0  0
   36.5480   21.1970   31.2210 C   0  0  0  0  0  0  0  0  0  0  0  0
   37.2710   21.5610   32.2650 C   0  0  0  0  0  0  0  0  0  0  0  0
   36.8630   21.3480   33.5480 C   0  0  0  0  0  0  0  0  0  0  0  0
   38.5280   22.2220   31.7090 C   0  0  0  0  0  0  0  0  0  0  0  0
   39.3220   23.1030   32.5550 C   0  0  0  0  0  0  0  0  0  0  0  0
   39.6370   21.0300   31.9260 C   0  0  0  0  0  0  0  0  0  0  0  0
   38.5860   22.0800   30.2480 C   0  0  0  0  0  0  0  0  0  0  0  0
   38.6250   23.3150   36.2800 C   0  0  0  0  0  0  0  0  0  0  0  0
   38.9780   24.7220   35.8990 C   0  0  0  0  0  0  0  0  0  0  0  0
   38.0780   25.7000   36.2760 C   0  0  0  0  0  0  0  0  0  0  0  0
   38.3250   27.0320   35.9290 C   0  0  0  0  0  0  0  0  0  0  0  0
   39.4650   27.2950   35.2230 N   0  0  0  0  0  0  0  0  0  0  0  0
   40.3250   26.3210   34.8730 C   0  0  0  0  0  0  0  0  0  0  0  0
   40.0430   25.0930   35.2250 N   0  0  0  0  0  0  0  0  0  0  0  0
   37.3800   23.2570   37.0260 C   0  0  0  0  0  0  0  0  0  0  0  0
   39.7210   22.7870   37.2320 C   0  0  0  0  0  0  0  0  0  0  0  0
   38.8491   23.1594   34.1607 H   0  0  0  0  0  0  0  0  0  0  0  0
   39.4618   21.7342   35.1670 H   0  0  0  0  0  0  0  0  0  0  0  0
   36.6922   21.2905   36.7519 H   0  0  0  0  0  0  0  0  0  0  0  0
   34.6904   20.1788   35.5626 H   0  0  0  0  0  0  0  0  0  0  0  0
   33.9464   19.8164   32.8195 H   0  0  0  0  0  0  0  0  0  0  0  0
   34.7476   20.2877   30.4772 H   0  0  0  0  0  0  0  0  0  0  0  0
   36.9317   21.4030   30.2109 H   0  0  0  0  0  0  0  0  0  0  0  0
   39.1186   22.8774   33.6122 H   0  0  0  0  0  0  0  0  0  0  0  0
   40.3906   22.9471   32.3458 H   0  0  0  0  0  0  0  0  0  0  0  0
   39.0563   24.1497   32.3458 H   0  0  0  0  0  0  0  0  0  0  0  0
   39.7912   20.8642   33.0024 H   0  0  0  0  0  0  0  0  0  0  0  0
   39.2737   20.1020   31.4604 H   0  0  0  0  0  0  0  0  0  0  0  0
   40.5888   21.3255   31.4604 H   0  0  0  0  0  0  0  0  0  0  0  0
   38.9905   21.0897   29.9916 H   0  0  0  0  0  0  0  0  0  0  0  0
   37.5740   22.1824   29.8292 H   0  0  0  0  0  0  0  0  0  0  0  0
   39.2369   22.8616   29.8292 H   0  0  0  0  0  0  0  0  0  0  0  0
   37.1748   25.4332   36.8443 H   0  0  0  0  0  0  0  0  0  0  0  0
   37.6296   27.8356   36.2129 H   0  0  0  0  0  0  0  0  0  0  0  0
   41.2396   26.5509   34.3067 H   0  0  0  0  0  0  0  0  0  0  0  0
   37.5978   23.2671   38.1042 H   0  0  0  0  0  0  0  0  0  0  0  0
   36.7579   24.1271   36.7694 H   0  0  0  0  0  0  0  0  0  0  0  0
   36.8415   22.3328   36.7694 H   0  0  0  0  0  0  0  0  0  0  0  0
   39.4053   22.9391   38.2747 H   0  0  0  0  0  0  0  0  0  0  0  0
   39.8792   21.7138   37.0496 H   0  0  0  0  0  0  0  0  0  0  0  0
   40.6589   23.3321   37.0496 H   0  0  0  0  0  0  0  0  0  0  0  0
  1 15  1  0
  2  1  1  0
  2  3  2  0
  4  3  1  0
  5  4  1  0
  6  5  2  0
  7  6  1  0
  8  7  2  0
  8  9  1  0
  9 10  2  0
 10  5  1  0
 10  2  1  0
 11 13  1  0
 11  9  1  0
 11 12  1  0
 14 11  1  0
 15 22  1  0
 15 23  1  0
 16 17  2  0
 16 15  1  0
 18 17  1  0
 19 18  2  0
 20 19  1  0
 20 21  2  0
 21 16  1  0
  1 24  1  0
  1 25  1  0
  3 26  1  0
  4 27  1  0
  6 28  1  0
  7 29  1  0
  8 30  1  0
 12 31  1  0
 12 32  1  0
 12 33  1  0
 13 34  1  0
 13 35  1  0
 13 36  1  0
 14 37  1  0
 14 38  1  0
 14 39  1  0
 17 40  1  0
 18 41  1  0
 20 42  1  0
 22 43  1  0
 22 44  1  0
 22 45  1  0
 23 46  1  0
 23 47  1  0
 23 48  1  0
M  ISO  8  24   8  25   8  26  14  27   9  28  14  29  14  30  14  31   8
M  ISO  8  32   8  33   8  34   8  35   8  36   8  37   8  38   8  39   8
M  ISO  8  40  14  41  14  42  14  43   8  44   8  45   8  46   8  47   8
M  ISO  1  48   8
M  END
>  <minimizedAffinity>  (1) 
-5.56684256

>  <minimizedRMSD>  (1) 
0.892167866

$$$$
