
     RDKit          3D

 47 50  0  0  0  0  0  0  0  0999 V2000
   37.5110   21.7270   34.9390 C   0  0  0  0  0  0  0  0  0  0  0  0
   36.5930   21.0040   35.7400 C   0  0  0  0  0  0  0  0  0  0  0  0
   35.5270   20.5750   35.0300 N   0  0  0  0  0  0  0  0  0  0  0  0
   35.6840   20.9830   33.7490 C   0  0  0  0  0  0  0  0  0  0  0  0
   34.9460   20.8450   32.6100 C   0  0  0  0  0  0  0  0  0  0  0  0
   35.3400   21.3640   31.3790 C   0  0  0  0  0  0  0  0  0  0  0  0
   36.5440   22.0310   31.3950 C   0  0  0  0  0  0  0  0  0  0  0  0
   37.3020   22.1780   32.5400 C   0  0  0  0  0  0  0  0  0  0  0  0
   36.8890   21.6690   33.7280 C   0  0  0  0  0  0  0  0  0  0  0  0
   38.4900   22.7830   32.0940 N   0  0  0  0  0  0  0  0  0  0  0  0
   39.5530   22.2190   31.4830 C   0  0  0  0  0  0  0  0  0  0  0  0
   40.6530   22.7970   30.9380 C   0  0  0  0  0  0  0  0  0  0  0  0
   40.6710   24.1710   31.0330 C   0  0  0  0  0  0  0  0  0  0  0  0
   41.7720   24.8960   30.4970 N   0  0  0  0  0  0  0  0  0  0  0  0
   39.6750   24.8540   31.6190 N   0  0  0  0  0  0  0  0  0  0  0  0
   38.6240   24.1500   32.1290 C   0  0  0  0  0  0  0  0  0  0  0  0
   37.7340   24.8830   32.6640 O   0  0  0  0  0  0  0  0  0  0  0  0
   38.7170   22.3470   35.4560 C   0  0  0  0  0  0  0  0  0  0  0  0
   38.5400   23.3930   36.5170 C   0  0  0  0  0  0  0  0  0  0  0  0
   39.0190   24.7060   35.9630 C   0  0  0  0  0  0  0  0  0  0  0  0
   38.1890   25.7880   36.2170 C   0  0  0  0  0  0  0  0  0  0  0  0
   38.5340   27.0520   35.7390 C   0  0  0  0  0  0  0  0  0  0  0  0
   39.6960   27.1520   35.0340 N   0  0  0  0  0  0  0  0  0  0  0  0
   40.4790   26.0850   34.8070 C   0  0  0  0  0  0  0  0  0  0  0  0
   40.1430   24.8850   35.2640 N   0  0  0  0  0  0  0  0  0  0  0  0
   37.1790   23.4910   37.0610 C   0  0  0  0  0  0  0  0  0  0  0  0
   39.4400   22.9980   37.7160 C   0  0  0  0  0  0  0  0  0  0  0  0
   36.7321   20.8142   36.8145 H   0  0  0  0  0  0  0  0  0  0  0  0
   34.7332   20.0322   35.3990 H   0  0  0  0  0  0  0  0  0  0  0  0
   33.9937   20.2974   32.6665 H   0  0  0  0  0  0  0  0  0  0  0  0
   34.7368   21.2499   30.4663 H   0  0  0  0  0  0  0  0  0  0  0  0
   36.9182   22.4653   30.4562 H   0  0  0  0  0  0  0  0  0  0  0  0
   39.5230   21.1214   31.4166 H   0  0  0  0  0  0  0  0  0  0  0  0
   41.4592   22.2193   30.4623 H   0  0  0  0  0  0  0  0  0  0  0  0
   41.7935   25.9236   30.5637 H   0  0  0  0  0  0  0  0  0  0  0  0
   42.5474   24.3931   30.0423 H   0  0  0  0  0  0  0  0  0  0  0  0
   39.3466   21.5494   35.8771 H   0  0  0  0  0  0  0  0  0  0  0  0
   39.1567   22.8785   34.5992 H   0  0  0  0  0  0  0  0  0  0  0  0
   37.2623   25.6496   36.7932 H   0  0  0  0  0  0  0  0  0  0  0  0
   37.8964   27.9293   35.9229 H   0  0  0  0  0  0  0  0  0  0  0  0
   41.4107   26.2070   34.2351 H   0  0  0  0  0  0  0  0  0  0  0  0
   37.2224   23.4879   38.1601 H   0  0  0  0  0  0  0  0  0  0  0  0
   36.7122   24.4251   36.7151 H   0  0  0  0  0  0  0  0  0  0  0  0
   36.5832   22.6334   36.7151 H   0  0  0  0  0  0  0  0  0  0  0  0
   38.9184   23.2269   38.6570 H   0  0  0  0  0  0  0  0  0  0  0  0
   39.6591   21.9210   37.6708 H   0  0  0  0  0  0  0  0  0  0  0  0
   40.3810   23.5658   37.6708 H   0  0  0  0  0  0  0  0  0  0  0  0
  1 18  1  0
  1  2  2  0
  3  2  1  0
  4  3  1  0
  5  4  2  0
  6  7  2  0
  6  5  1  0
  7  8  1  0
  8  9  2  0
  9  4  1  0
  9  1  1  0
 10 16  1  0
 10  8  1  0
 11 10  1  0
 12 13  1  0
 12 11  2  0
 13 15  2  0
 14 13  1  0
 15 16  1  0
 16 17  2  0
 18 19  1  0
 19 26  1  0
 19 27  1  0
 20 21  2  0
 20 19  1  0
 22 21  1  0
 23 22  2  0
 24 23  1  0
 24 25  2  0
 25 20  1  0
  2 28  1  0
  3 29  1  0
  5 30  1  0
  6 31  1  0
  7 32  1  0
 11 33  1  0
 12 34  1  0
 14 35  1  0
 14 36  1  0
 18 37  1  0
 18 38  1  0
 21 39  1  0
 22 40  1  0
 24 41  1  0
 26 42  1  0
 26 43  1  0
 26 44  1  0
 27 45  1  0
 27 46  1  0
 27 47  1  0
M  ISO  8  28  14  29   9  30  14  31  14  32  14  33  14  34  14  37   8
M  ISO  8  38   8  39  14  40  14  41  14  42   8  43   8  44   8  45   8
M  ISO  2  46   8  47   8
M  END
>  <minimizedAffinity>  (1) 
-5.67820358

>  <minimizedRMSD>  (1) 
0.55689925

$$$$
