
     RDKit          3D

 51 54  0  0  0  0  0  0  0  0999 V2000
   38.7300   22.3090   35.4970 C   0  0  0  0  0  0  0  0  0  0  0  0
   37.5150   21.7160   34.9680 C   0  0  0  0  0  0  0  0  0  0  0  0
   36.5610   21.0370   35.7620 C   0  0  0  0  0  0  0  0  0  0  0  0
   35.5120   20.6240   35.0390 N   0  0  0  0  0  0  0  0  0  0  0  0
   35.7020   20.9920   33.7550 C   0  0  0  0  0  0  0  0  0  0  0  0
   35.0000   20.8480   32.5970 C   0  0  0  0  0  0  0  0  0  0  0  0
   35.4260   21.3180   31.3620 C   0  0  0  0  0  0  0  0  0  0  0  0
   36.6650   21.9660   31.3930 C   0  0  0  0  0  0  0  0  0  0  0  0
   37.3830   22.1180   32.5590 C   0  0  0  0  0  0  0  0  0  0  0  0
   36.9080   21.6400   33.7430 C   0  0  0  0  0  0  0  0  0  0  0  0
   38.5680   22.7240   32.0900 N   0  0  0  0  0  0  0  0  0  0  0  0
   38.6910   24.1740   32.0220 C   0  0  0  0  0  0  0  0  0  0  0  0
   39.9700   24.5430   31.3520 C   0  0  0  0  0  0  0  0  0  0  0  0
   41.0990   23.7450   31.9030 C   0  0  0  0  0  0  0  0  0  0  0  0
   40.9840   22.2630   31.8020 C   0  0  0  0  0  0  0  0  0  0  0  0
   39.6120   21.7100   31.8200 C   0  0  0  0  0  0  0  0  0  0  0  0
   38.5640   23.3610   36.5590 C   0  0  0  0  0  0  0  0  0  0  0  0
   39.0180   24.6770   35.9870 C   0  0  0  0  0  0  0  0  0  0  0  0
   38.1950   25.7520   36.2670 C   0  0  0  0  0  0  0  0  0  0  0  0
   38.5540   27.0030   35.7660 C   0  0  0  0  0  0  0  0  0  0  0  0
   39.6950   27.1040   35.0300 N   0  0  0  0  0  0  0  0  0  0  0  0
   40.4700   26.0340   34.7800 C   0  0  0  0  0  0  0  0  0  0  0  0
   40.1200   24.8570   35.2570 N   0  0  0  0  0  0  0  0  0  0  0  0
   37.2130   23.4530   37.1210 C   0  0  0  0  0  0  0  0  0  0  0  0
   39.4890   22.9750   37.7400 C   0  0  0  0  0  0  0  0  0  0  0  0
   39.2702   22.7677   34.6557 H   0  0  0  0  0  0  0  0  0  0  0  0
   39.2624   21.4827   35.9908 H   0  0  0  0  0  0  0  0  0  0  0  0
   36.6680   20.8684   36.8437 H   0  0  0  0  0  0  0  0  0  0  0  0
   34.6962   20.1110   35.4026 H   0  0  0  0  0  0  0  0  0  0  0  0
   34.0331   20.3256   32.6431 H   0  0  0  0  0  0  0  0  0  0  0  0
   34.8401   21.1917   30.4396 H   0  0  0  0  0  0  0  0  0  0  0  0
   37.0795   22.3672   30.4564 H   0  0  0  0  0  0  0  0  0  0  0  0
   37.8470   24.5853   31.4489 H   0  0  0  0  0  0  0  0  0  0  0  0
   38.6838   24.5866   33.0417 H   0  0  0  0  0  0  0  0  0  0  0  0
   40.1689   25.6123   31.5165 H   0  0  0  0  0  0  0  0  0  0  0  0
   39.8799   24.3339   30.2758 H   0  0  0  0  0  0  0  0  0  0  0  0
   42.0118   24.0456   31.3678 H   0  0  0  0  0  0  0  0  0  0  0  0
   41.1059   23.9612   32.9815 H   0  0  0  0  0  0  0  0  0  0  0  0
   41.5329   21.8256   32.6490 H   0  0  0  0  0  0  0  0  0  0  0  0
   41.3922   22.0035   30.8141 H   0  0  0  0  0  0  0  0  0  0  0  0
   39.4082   21.2534   30.8402 H   0  0  0  0  0  0  0  0  0  0  0  0
   39.5701   20.9776   32.6397 H   0  0  0  0  0  0  0  0  0  0  0  0
   37.2826   25.6242   36.8681 H   0  0  0  0  0  0  0  0  0  0  0  0
   37.9299   27.8876   35.9609 H   0  0  0  0  0  0  0  0  0  0  0  0
   41.3876   26.1405   34.1828 H   0  0  0  0  0  0  0  0  0  0  0  0
   37.2718   23.4490   38.2194 H   0  0  0  0  0  0  0  0  0  0  0  0
   36.7378   24.3856   36.7826 H   0  0  0  0  0  0  0  0  0  0  0  0
   36.6158   22.5934   36.7826 H   0  0  0  0  0  0  0  0  0  0  0  0
   38.9782   23.1881   38.6906 H   0  0  0  0  0  0  0  0  0  0  0  0
   39.7269   21.9025   37.6840 H   0  0  0  0  0  0  0  0  0  0  0  0
   40.4187   23.5602   37.6840 H   0  0  0  0  0  0  0  0  0  0  0  0
  1 17  1  0
  2  1  1  0
  2  3  2  0
  4  3  1  0
  5  4  1  0
  6  5  2  0
  7  8  2  0
  7  6  1  0
  8  9  1  0
  9 10  2  0
 10  5  1  0
 10  2  1  0
 11  9  1  0
 12 11  1  0
 13 14  1  0
 13 12  1  0
 15 16  1  0
 15 14  1  0
 16 11  1  0
 17 24  1  0
 17 25  1  0
 18 19  2  0
 18 17  1  0
 20 19  1  0
 21 20  2  0
 22 21  1  0
 22 23  2  0
 23 18  1  0
  1 26  1  0
  1 27  1  0
  3 28  1  0
  4 29  1  0
  6 30  1  0
  7 31  1  0
  8 32  1  0
 12 33  1  0
 12 34  1  0
 13 35  1  0
 13 36  1  0
 14 37  1  0
 14 38  1  0
 15 39  1  0
 15 40  1  0
 16 41  1  0
 16 42  1  0
 19 43  1  0
 20 44  1  0
 22 45  1  0
 24 46  1  0
 24 47  1  0
 24 48  1  0
 25 49  1  0
 25 50  1  0
 25 51  1  0
M  ISO  8  26   8  27   8  28  14  29   9  30  14  31  14  32  14  33  13
M  ISO  8  34  13  35  13  36  13  37  13  38  13  39  13  40  13  41  13
M  ISO  8  42  13  43  14  44  14  45  14  46   8  47   8  48   8  49   8
M  ISO  2  50   8  51   8
M  END
>  <minimizedAffinity>  (1) 
-5.529212

>  <minimizedRMSD>  (1) 
0.585846663

$$$$
