
     RDKit          3D

 41 44  0  0  0  0  0  0  0  0999 V2000
   38.7430   22.3010   35.4670 C   0  0  0  0  0  0  0  0  0  0  0  0
   37.5390   21.7040   34.9300 C   0  0  0  0  0  0  0  0  0  0  0  0
   36.5670   21.0560   35.7390 C   0  0  0  0  0  0  0  0  0  0  0  0
   35.5060   20.6360   35.0270 N   0  0  0  0  0  0  0  0  0  0  0  0
   35.7070   20.9690   33.7460 C   0  0  0  0  0  0  0  0  0  0  0  0
   34.9730   20.8270   32.5910 C   0  0  0  0  0  0  0  0  0  0  0  0
   35.3830   21.2840   31.3460 C   0  0  0  0  0  0  0  0  0  0  0  0
   36.6270   21.9070   31.3590 C   0  0  0  0  0  0  0  0  0  0  0  0
   37.3910   22.0630   32.5060 C   0  0  0  0  0  0  0  0  0  0  0  0
   36.9420   21.6080   33.7080 C   0  0  0  0  0  0  0  0  0  0  0  0
   38.6860   22.6260   32.1270 C   0  0  0  0  0  0  0  0  0  0  0  0
   39.8260   21.9280   32.0260 N   0  0  0  0  0  0  0  0  0  0  0  0
   40.7850   22.7690   31.8300 O   0  0  0  0  0  0  0  0  0  0  0  0
   40.3480   23.9770   31.7960 C   0  0  0  0  0  0  0  0  0  0  0  0
   39.0450   23.9020   31.9780 N   0  0  0  0  0  0  0  0  0  0  0  0
   38.5760   23.3440   36.5370 C   0  0  0  0  0  0  0  0  0  0  0  0
   39.0020   24.6680   35.9910 C   0  0  0  0  0  0  0  0  0  0  0  0
   38.1660   25.7250   36.3030 C   0  0  0  0  0  0  0  0  0  0  0  0
   38.4820   27.0000   35.8250 C   0  0  0  0  0  0  0  0  0  0  0  0
   39.6030   27.1420   35.0700 N   0  0  0  0  0  0  0  0  0  0  0  0
   40.4010   26.0980   34.7810 C   0  0  0  0  0  0  0  0  0  0  0  0
   40.0660   24.9190   35.2510 N   0  0  0  0  0  0  0  0  0  0  0  0
   37.2330   23.3880   37.1260 C   0  0  0  0  0  0  0  0  0  0  0  0
   39.5290   22.9630   37.7030 C   0  0  0  0  0  0  0  0  0  0  0  0
   39.2816   22.7693   34.6300 H   0  0  0  0  0  0  0  0  0  0  0  0
   39.2741   21.4730   35.9594 H   0  0  0  0  0  0  0  0  0  0  0  0
   36.6706   20.9139   36.8249 H   0  0  0  0  0  0  0  0  0  0  0  0
   34.6825   20.1440   35.4019 H   0  0  0  0  0  0  0  0  0  0  0  0
   33.9996   20.3192   32.6584 H   0  0  0  0  0  0  0  0  0  0  0  0
   34.7802   21.1646   30.4336 H   0  0  0  0  0  0  0  0  0  0  0  0
   37.0253   22.2960   30.4103 H   0  0  0  0  0  0  0  0  0  0  0  0
   40.9423   24.8903   31.6452 H   0  0  0  0  0  0  0  0  0  0  0  0
   37.2675   25.5649   36.9170 H   0  0  0  0  0  0  0  0  0  0  0  0
   37.8411   27.8643   36.0536 H   0  0  0  0  0  0  0  0  0  0  0  0
   41.3062   26.2284   34.1697 H   0  0  0  0  0  0  0  0  0  0  0  0
   37.3135   23.3854   38.2230 H   0  0  0  0  0  0  0  0  0  0  0  0
   36.7187   24.3035   36.7983 H   0  0  0  0  0  0  0  0  0  0  0  0
   36.6599   22.5081   36.7983 H   0  0  0  0  0  0  0  0  0  0  0  0
   39.0311   23.1621   38.6635 H   0  0  0  0  0  0  0  0  0  0  0  0
   39.7820   21.8946   37.6356 H   0  0  0  0  0  0  0  0  0  0  0  0
   40.4488   23.5625   37.6356 H   0  0  0  0  0  0  0  0  0  0  0  0
  1 16  1  0
  2  1  1  0
  2  3  2  0
  4  3  1  0
  5  4  1  0
  6  5  2  0
  7  8  2  0
  7  6  1  0
  8  9  1  0
  9 10  2  0
 10  5  1  0
 10  2  1  0
 11  9  1  0
 12 11  2  0
 13 12  1  0
 14 13  1  0
 14 15  2  0
 15 11  1  0
 16 23  1  0
 16 24  1  0
 17 18  2  0
 17 16  1  0
 19 18  1  0
 20 19  2  0
 21 20  1  0
 21 22  2  0
 22 17  1  0
  1 25  1  0
  1 26  1  0
  3 27  1  0
  4 28  1  0
  6 29  1  0
  7 30  1  0
  8 31  1  0
 14 32  1  0
 18 33  1  0
 19 34  1  0
 21 35  1  0
 23 36  1  0
 23 37  1  0
 23 38  1  0
 24 39  1  0
 24 40  1  0
 24 41  1  0
M  ISO  8  25   8  26   8  27  14  28   9  29  14  30  14  31  14  32  14
M  ISO  8  33  14  34  14  35  14  36   8  37   8  38   8  39   8  40   8
M  ISO  1  41   8
M  END
>  <minimizedAffinity>  (1) 
-5.4590373

>  <minimizedRMSD>  (1) 
0.472002327

$$$$
