
     RDKit          3D

 43 46  0  0  0  0  0  0  0  0999 V2000
   38.7260   22.3110   35.5100 C   0  0  0  0  0  0  0  0  0  0  0  0
   37.5190   21.7090   34.9750 C   0  0  0  0  0  0  0  0  0  0  0  0
   36.5690   21.0060   35.7550 C   0  0  0  0  0  0  0  0  0  0  0  0
   35.5090   20.5970   35.0220 N   0  0  0  0  0  0  0  0  0  0  0  0
   35.6960   20.9960   33.7420 C   0  0  0  0  0  0  0  0  0  0  0  0
   34.9810   20.8800   32.5900 C   0  0  0  0  0  0  0  0  0  0  0  0
   35.3930   21.3910   31.3600 C   0  0  0  0  0  0  0  0  0  0  0  0
   36.6380   22.0480   31.4120 C   0  0  0  0  0  0  0  0  0  0  0  0
   37.3530   22.1610   32.5670 C   0  0  0  0  0  0  0  0  0  0  0  0
   36.9180   21.6590   33.7500 C   0  0  0  0  0  0  0  0  0  0  0  0
   38.5720   22.7080   32.1450 N   0  0  0  0  0  0  0  0  0  0  0  0
   39.8410   22.4560   31.9800 N   0  0  0  0  0  0  0  0  0  0  0  0
   40.5140   23.5870   31.6010 C   0  0  0  0  0  0  0  0  0  0  0  0
   39.6210   24.6320   31.5160 C   0  0  0  0  0  0  0  0  0  0  0  0
   38.4030   24.0440   31.8650 C   0  0  0  0  0  0  0  0  0  0  0  0
   38.5470   23.3730   36.5560 C   0  0  0  0  0  0  0  0  0  0  0  0
   39.0170   24.6810   35.9760 C   0  0  0  0  0  0  0  0  0  0  0  0
   38.2170   25.7750   36.2740 C   0  0  0  0  0  0  0  0  0  0  0  0
   38.5600   27.0340   35.7730 C   0  0  0  0  0  0  0  0  0  0  0  0
   39.6830   27.1140   35.0070 N   0  0  0  0  0  0  0  0  0  0  0  0
   40.4340   26.0350   34.7400 C   0  0  0  0  0  0  0  0  0  0  0  0
   40.1000   24.8430   35.2200 N   0  0  0  0  0  0  0  0  0  0  0  0
   37.1820   23.4780   37.0950 C   0  0  0  0  0  0  0  0  0  0  0  0
   39.4490   23.0080   37.7600 C   0  0  0  0  0  0  0  0  0  0  0  0
   39.2741   22.7612   34.6692 H   0  0  0  0  0  0  0  0  0  0  0  0
   39.2546   21.4918   36.0194 H   0  0  0  0  0  0  0  0  0  0  0  0
   36.6805   20.8148   36.8325 H   0  0  0  0  0  0  0  0  0  0  0  0
   34.6975   20.0714   35.3770 H   0  0  0  0  0  0  0  0  0  0  0  0
   34.0180   20.3500   32.6318 H   0  0  0  0  0  0  0  0  0  0  0  0
   34.8025   21.2907   30.4374 H   0  0  0  0  0  0  0  0  0  0  0  0
   37.0471   22.4847   30.4890 H   0  0  0  0  0  0  0  0  0  0  0  0
   41.5931   23.6505   31.3974 H   0  0  0  0  0  0  0  0  0  0  0  0
   39.8193   25.6781   31.2397 H   0  0  0  0  0  0  0  0  0  0  0  0
   37.4413   24.5760   31.9097 H   0  0  0  0  0  0  0  0  0  0  0  0
   37.3204   25.6524   36.8993 H   0  0  0  0  0  0  0  0  0  0  0  0
   37.9486   27.9227   35.9884 H   0  0  0  0  0  0  0  0  0  0  0  0
   41.3350   26.1388   34.1175 H   0  0  0  0  0  0  0  0  0  0  0  0
   37.2206   23.4750   38.1943 H   0  0  0  0  0  0  0  0  0  0  0  0
   36.7213   24.4142   36.7468 H   0  0  0  0  0  0  0  0  0  0  0  0
   36.5835   22.6232   36.7468 H   0  0  0  0  0  0  0  0  0  0  0  0
   38.9149   23.2241   38.6971 H   0  0  0  0  0  0  0  0  0  0  0  0
   39.6996   21.9377   37.7192 H   0  0  0  0  0  0  0  0  0  0  0  0
   40.3734   23.6028   37.7192 H   0  0  0  0  0  0  0  0  0  0  0  0
  1 16  1  0
  2  1  1  0
  2  3  2  0
  4  3  1  0
  5 10  2  0
  5  4  1  0
  6  5  1  0
  7  8  1  0
  7  6  2  0
  8  9  2  0
  9 10  1  0
 10  2  1  0
 11  9  1  0
 12 11  1  0
 13 12  2  0
 14 13  1  0
 14 15  2  0
 15 11  1  0
 16 23  1  0
 16 24  1  0
 17 18  2  0
 17 16  1  0
 19 18  1  0
 20 19  2  0
 21 20  1  0
 21 22  2  0
 22 17  1  0
  1 25  1  0
  1 26  1  0
  3 27  1  0
  4 28  1  0
  6 29  1  0
  7 30  1  0
  8 31  1  0
 13 32  1  0
 14 33  1  0
 15 34  1  0
 18 35  1  0
 19 36  1  0
 21 37  1  0
 23 38  1  0
 23 39  1  0
 23 40  1  0
 24 41  1  0
 24 42  1  0
 24 43  1  0
M  ISO  8  25   8  26   8  27  14  28   9  29  14  30  14  31  14  32  14
M  ISO  8  33  14  34  14  35  14  36  14  37  14  38   8  39   8  40   8
M  ISO  3  41   8  42   8  43   8
M  END
>  <minimizedAffinity>  (1) 
-5.45339012

>  <minimizedRMSD>  (1) 
0.685017467

$$$$
