
     RDKit          3D

 43 46  0  0  0  0  0  0  0  0999 V2000
   38.7020   22.2970   35.5230 C   0  0  0  0  0  0  0  0  0  0  0  0
   37.4990   21.6960   34.9890 C   0  0  0  0  0  0  0  0  0  0  0  0
   36.5520   21.0020   35.7750 C   0  0  0  0  0  0  0  0  0  0  0  0
   35.5010   20.5840   35.0480 N   0  0  0  0  0  0  0  0  0  0  0  0
   35.6880   20.9650   33.7780 C   0  0  0  0  0  0  0  0  0  0  0  0
   34.9770   20.8560   32.6070 C   0  0  0  0  0  0  0  0  0  0  0  0
   35.3990   21.3720   31.3890 C   0  0  0  0  0  0  0  0  0  0  0  0
   36.6050   22.0180   31.4140 C   0  0  0  0  0  0  0  0  0  0  0  0
   37.3300   22.1400   32.5670 C   0  0  0  0  0  0  0  0  0  0  0  0
   36.8950   21.6290   33.7600 C   0  0  0  0  0  0  0  0  0  0  0  0
   38.6400   22.7980   32.2750 C   0  0  0  0  0  0  0  0  0  0  0  0
   38.5890   24.3740   32.2130 C   0  0  0  0  0  0  0  0  0  0  0  0
   38.8020   23.5830   31.0290 C   0  0  0  0  0  0  0  0  0  0  0  0
   38.5290   23.4170   36.5120 C   0  0  0  0  0  0  0  0  0  0  0  0
   39.1340   24.6570   35.9290 C   0  0  0  0  0  0  0  0  0  0  0  0
   38.3700   25.8070   36.0760 C   0  0  0  0  0  0  0  0  0  0  0  0
   38.8510   27.0110   35.5460 C   0  0  0  0  0  0  0  0  0  0  0  0
   40.0630   26.9840   34.9060 N   0  0  0  0  0  0  0  0  0  0  0  0
   40.7820   25.8500   34.7800 C   0  0  0  0  0  0  0  0  0  0  0  0
   40.2890   24.7460   35.2930 N   0  0  0  0  0  0  0  0  0  0  0  0
   37.1410   23.6340   36.9390 C   0  0  0  0  0  0  0  0  0  0  0  0
   39.3090   23.0450   37.7920 C   0  0  0  0  0  0  0  0  0  0  0  0
   39.2801   22.6911   34.6742 H   0  0  0  0  0  0  0  0  0  0  0  0
   39.1946   21.4923   36.0885 H   0  0  0  0  0  0  0  0  0  0  0  0
   36.6617   20.8245   36.8550 H   0  0  0  0  0  0  0  0  0  0  0  0
   34.6901   20.0600   35.4069 H   0  0  0  0  0  0  0  0  0  0  0  0
   34.0131   20.3268   32.6365 H   0  0  0  0  0  0  0  0  0  0  0  0
   34.8055   21.2687   30.4686 H   0  0  0  0  0  0  0  0  0  0  0  0
   37.0012   22.4500   30.4832 H   0  0  0  0  0  0  0  0  0  0  0  0
   39.2207   22.0073   32.7726 H   0  0  0  0  0  0  0  0  0  0  0  0
   37.6364   24.9036   32.3613 H   0  0  0  0  0  0  0  0  0  0  0  0
   39.1187   25.1979   32.7137 H   0  0  0  0  0  0  0  0  0  0  0  0
   38.0121   23.5415   30.2646 H   0  0  0  0  0  0  0  0  0  0  0  0
   39.5825   23.5975   30.2540 H   0  0  0  0  0  0  0  0  0  0  0  0
   37.4033   25.7731   36.5998 H   0  0  0  0  0  0  0  0  0  0  0  0
   38.2769   27.9446   35.6399 H   0  0  0  0  0  0  0  0  0  0  0  0
   41.7528   25.8497   34.2628 H   0  0  0  0  0  0  0  0  0  0  0  0
   37.0924   23.6416   38.0379 H   0  0  0  0  0  0  0  0  0  0  0  0
   36.7841   24.5988   36.5495 H   0  0  0  0  0  0  0  0  0  0  0  0
   36.5067   22.8241   36.5495 H   0  0  0  0  0  0  0  0  0  0  0  0
   38.7184   23.3267   38.6762 H   0  0  0  0  0  0  0  0  0  0  0  0
   39.4955   21.9610   37.8057 H   0  0  0  0  0  0  0  0  0  0  0  0
   40.2687   23.5823   37.8057 H   0  0  0  0  0  0  0  0  0  0  0  0
  1 14  1  0
  2  1  1  0
  2  3  2  0
  4  3  1  0
  5  4  1  0
  6  5  2  0
  7  8  2  0
  7  6  1  0
  8  9  1  0
  9 10  2  0
 10  5  1  0
 10  2  1  0
 11  9  1  0
 12 11  1  0
 13 12  1  0
 13 11  1  0
 14 21  1  0
 14 22  1  0
 15 16  2  0
 15 14  1  0
 17 16  1  0
 18 17  2  0
 19 18  1  0
 19 20  2  0
 20 15  1  0
  1 23  1  0
  1 24  1  0
  3 25  1  0
  4 26  1  0
  6 27  1  0
  7 28  1  0
  8 29  1  0
 11 30  1  0
 12 31  1  0
 12 32  1  0
 13 33  1  0
 13 34  1  0
 16 35  1  0
 17 36  1  0
 19 37  1  0
 21 38  1  0
 21 39  1  0
 21 40  1  0
 22 41  1  0
 22 42  1  0
 22 43  1  0
M  ISO  8  23   8  24   8  25  14  26   9  27  14  28  14  29  14  30  13
M  ISO  8  31  13  32  13  33  13  34  13  35  14  36  14  37  14  38   8
M  ISO  5  39   8  40   8  41   8  42   8  43   8
M  END
>  <minimizedAffinity>  (1) 
-5.25435543

>  <minimizedRMSD>  (1) 
0.8727386

$$$$
