
     RDKit          3D

 50 54  0  0  1  0  0  0  0  0999 V2000
   38.0720   21.7290   33.2090 C   0  0  1  0  0  0  0  0  0  0  0  0
   37.9290   22.8250   32.2070 C   0  0  0  0  0  0  0  0  0  0  0  0
   36.6510   23.3230   32.0630 C   0  0  0  0  0  0  0  0  0  0  0  0
   36.4110   24.3530   31.1400 C   0  0  0  0  0  0  0  0  0  0  0  0
   37.5030   24.8020   30.4230 N   0  0  0  0  0  0  0  0  0  0  0  0
   38.7330   24.2970   30.5860 C   0  0  0  0  0  0  0  0  0  0  0  0
   38.8730   23.3460   31.4610 N   0  0  0  0  0  0  0  0  0  0  0  0
   36.8470   21.4730   33.9630 C   0  0  0  0  0  0  0  0  0  0  0  0
   38.6370   20.5030   32.5070 C   0  0  0  0  0  0  0  0  0  0  0  0
   37.7780   19.8900   31.5100 C   0  0  0  0  0  0  0  0  0  0  0  0
   36.5080   19.3510   31.8190 C   0  0  0  0  0  0  0  0  0  0  0  0
   35.8970   18.8670   30.7330 N   0  0  0  0  0  0  0  0  0  0  0  0
   36.6990   19.0510   29.6780 C   0  0  0  0  0  0  0  0  0  0  0  0
   36.5930   18.7650   28.3450 C   0  0  0  0  0  0  0  0  0  0  0  0
   37.5890   19.0660   27.4190 C   0  0  0  0  0  0  0  0  0  0  0  0
   38.7010   19.6800   27.9560 C   0  0  0  0  0  0  0  0  0  0  0  0
   38.8090   19.9620   29.2640 C   0  0  0  0  0  0  0  0  0  0  0  0
   37.8440   19.6720   30.1550 C   0  0  0  0  0  0  0  0  0  0  0  0
   40.1100   20.5700   29.5910 C   0  0  0  0  0  0  0  0  0  0  0  0
   39.1300   22.1640   34.2570 C   0  0  0  0  0  0  0  0  0  0  0  0
   38.6900   23.2540   35.0630 N   0  0  0  0  0  0  0  0  0  0  0  0
   37.8800   23.0110   36.1310 C   0  0  0  0  0  0  0  0  0  0  0  0
   37.6030   24.1820   36.7380 N   0  0  0  0  0  0  0  0  0  0  0  0
   38.2070   25.2030   36.1030 C   0  0  0  0  0  0  0  0  0  0  0  0
   38.2830   26.5650   36.2550 C   0  0  0  0  0  0  0  0  0  0  0  0
   39.0250   27.2420   35.3590 N   0  0  0  0  0  0  0  0  0  0  0  0
   39.6820   26.6460   34.3400 C   0  0  0  0  0  0  0  0  0  0  0  0
   39.5950   25.3090   34.2060 N   0  0  0  0  0  0  0  0  0  0  0  0
   38.8750   24.5860   35.0640 C   0  0  0  0  0  0  0  0  0  0  0  0
   35.8263   22.9163   32.6667 H   0  0  0  0  0  0  0  0  0  0  0  0
   35.4074   24.7796   30.9955 H   0  0  0  0  0  0  0  0  0  0  0  0
   39.5882   24.6712   30.0041 H   0  0  0  0  0  0  0  0  0  0  0  0
   37.0635   21.5182   35.0405 H   0  0  0  0  0  0  0  0  0  0  0  0
   36.0939   22.2332   33.7081 H   0  0  0  0  0  0  0  0  0  0  0  0
   36.4614   20.4749   33.7081 H   0  0  0  0  0  0  0  0  0  0  0  0
   39.5716   20.8007   32.0092 H   0  0  0  0  0  0  0  0  0  0  0  0
   38.7684   19.7446   33.2929 H   0  0  0  0  0  0  0  0  0  0  0  0
   36.0753   19.3322   32.8301 H   0  0  0  0  0  0  0  0  0  0  0  0
   34.9661   18.4268   30.7120 H   0  0  0  0  0  0  0  0  0  0  0  0
   35.6766   18.2733   27.9866 H   0  0  0  0  0  0  0  0  0  0  0  0
   37.4963   18.8332   26.3479 H   0  0  0  0  0  0  0  0  0  0  0  0
   39.5315   19.9490   27.2867 H   0  0  0  0  0  0  0  0  0  0  0  0
   40.2253   20.6239   30.6836 H   0  0  0  0  0  0  0  0  0  0  0  0
   40.9185   19.9564   29.1668 H   0  0  0  0  0  0  0  0  0  0  0  0
   40.1579   21.5838   29.1668 H   0  0  0  0  0  0  0  0  0  0  0  0
   39.3491   21.3079   34.9121 H   0  0  0  0  0  0  0  0  0  0  0  0
   40.0239   22.4959   33.7086 H   0  0  0  0  0  0  0  0  0  0  0  0
   37.5129   22.0230   36.4457 H   0  0  0  0  0  0  0  0  0  0  0  0
   37.7601   27.0810   37.0737 H   0  0  0  0  0  0  0  0  0  0  0  0
   40.2772   27.2421   33.6326 H   0  0  0  0  0  0  0  0  0  0  0  0
  1  9  1  6
  1  8  1  0
  1 20  1  0
  2  1  1  0
  3  2  2  0
  4  3  1  0
  5  6  1  0
  5  4  2  0
  6  7  2  0
  7  2  1  0
 10 11  2  0
 10  9  1  0
 12 11  1  0
 13 18  2  0
 13 12  1  0
 14 13  1  0
 15 16  1  0
 15 14  2  0
 16 17  2  0
 17 19  1  0
 17 18  1  0
 18 10  1  0
 20 21  1  0
 21 29  1  0
 21 22  1  0
 22 23  2  0
 24 25  2  0
 24 23  1  0
 26 25  1  0
 27 26  2  0
 28 27  1  0
 28 29  2  0
 29 24  1  0
  3 30  1  0
  4 31  1  0
  6 32  1  0
  8 33  1  0
  8 34  1  0
  8 35  1  0
  9 36  1  0
  9 37  1  0
 11 38  1  0
 12 39  1  0
 14 40  1  0
 15 41  1  0
 16 42  1  0
 19 43  1  0
 19 44  1  0
 19 45  1  0
 20 46  1  0
 20 47  1  0
 22 48  1  0
 25 49  1  0
 27 50  1  0
M  ISO  8  30  14  31  14  32  14  33   8  34   8  35   8  36   8  37   8
M  ISO  8  38  14  39   9  40  14  41  14  42  14  43   8  44   8  45   8
M  ISO  5  46   8  47   8  48  14  49  14  50  14
M  END
>  <minimizedAffinity>  (1) 
-5.25746441

>  <minimizedRMSD>  (1) 
4.41099834

$$$$
