
     RDKit          3D

 30 33  0  0  0  0  0  0  0  0999 V2000
   37.7930   22.1810   35.2070 C   0  0  0  0  0  0  0  0  0  0  0  0
   39.1470   22.5010   35.0980 C   0  0  0  0  0  0  0  0  0  0  0  0
   39.7830   23.0980   36.1740 C   0  0  0  0  0  0  0  0  0  0  0  0
   39.0490   23.3510   37.3060 N   0  0  0  0  0  0  0  0  0  0  0  0
   37.7420   23.0330   37.3900 C   0  0  0  0  0  0  0  0  0  0  0  0
   37.1200   22.4540   36.3500 N   0  0  0  0  0  0  0  0  0  0  0  0
   41.1580   23.4410   36.1070 N   0  0  0  0  0  0  0  0  0  0  0  0
   42.2070   22.8450   36.6730 C   0  0  0  0  0  0  0  0  0  0  0  0
   43.3470   23.4970   36.3530 N   0  0  0  0  0  0  0  0  0  0  0  0
   42.9730   24.5140   35.5740 C   0  0  0  0  0  0  0  0  0  0  0  0
   43.7040   25.5100   34.9530 C   0  0  0  0  0  0  0  0  0  0  0  0
   43.0620   26.4400   34.2010 N   0  0  0  0  0  0  0  0  0  0  0  0
   41.7270   26.4210   34.0400 C   0  0  0  0  0  0  0  0  0  0  0  0
   41.0050   25.4500   34.6430 N   0  0  0  0  0  0  0  0  0  0  0  0
   41.5970   24.4980   35.4050 C   0  0  0  0  0  0  0  0  0  0  0  0
   37.0200   21.5550   34.1550 C   0  0  0  0  0  0  0  0  0  0  0  0
   35.9020   20.7670   34.4300 C   0  0  0  0  0  0  0  0  0  0  0  0
   35.3760   20.3120   33.2410 C   0  0  0  0  0  0  0  0  0  0  0  0
   36.1890   20.8370   32.2960 C   0  0  0  0  0  0  0  0  0  0  0  0
   37.1370   21.5570   32.8770 O   0  0  0  0  0  0  0  0  0  0  0  0
   45.1200   25.6220   35.0570 N   0  0  0  0  0  0  0  0  0  0  0  0
   39.7002   22.2827   34.1726 H   0  0  0  0  0  0  0  0  0  0  0  0
   37.1833   23.2482   38.3128 H   0  0  0  0  0  0  0  0  0  0  0  0
   42.1529   21.9498   37.3100 H   0  0  0  0  0  0  0  0  0  0  0  0
   41.2290   27.1856   33.4257 H   0  0  0  0  0  0  0  0  0  0  0  0
   35.5056   20.5454   35.4319 H   0  0  0  0  0  0  0  0  0  0  0  0
   34.4959   19.6687   33.0937 H   0  0  0  0  0  0  0  0  0  0  0  0
   36.0797   20.6888   31.2115 H   0  0  0  0  0  0  0  0  0  0  0  0
   45.6132   26.3854   34.5723 H   0  0  0  0  0  0  0  0  0  0  0  0
   45.6508   24.9396   35.6169 H   0  0  0  0  0  0  0  0  0  0  0  0
  1  6  1  0
  2  1  2  0
  2  3  1  0
  3  4  2  0
  4  5  1  0
  6  5  2  0
  7  3  1  0
  7  8  1  0
  9  8  2  0
 10  9  1  0
 11 21  1  0
 11 10  2  0
 12 11  1  0
 13 12  2  0
 13 14  1  0
 14 15  2  0
 15 10  1  0
 15  7  1  0
 16 17  2  0
 16  1  1  0
 18 17  1  0
 19 20  1  0
 19 18  2  0
 20 16  1  0
  2 22  1  0
  5 23  1  0
  8 24  1  0
 13 25  1  0
 17 26  1  0
 18 27  1  0
 19 28  1  0
 21 29  1  0
 21 30  1  0
M  ISO  7  22  14  23  14  24  14  25  14  26  14  27  14  28  14
M  END
>  <minimizedAffinity>  (1) 
-4.98434019

>  <minimizedRMSD>  (1) 
1.805076

$$$$
