
     RDKit          3D

 31 34  0  0  0  0  0  0  0  0999 V2000
   37.9010   22.1710   35.5420 C   0  0  0  0  0  0  0  0  0  0  0  0
   39.2930   22.1120   35.5140 C   0  0  0  0  0  0  0  0  0  0  0  0
   40.0140   22.6170   36.5820 C   0  0  0  0  0  0  0  0  0  0  0  0
   39.3380   23.1600   37.6330 N   0  0  0  0  0  0  0  0  0  0  0  0
   37.9860   23.2080   37.6390 C   0  0  0  0  0  0  0  0  0  0  0  0
   37.2730   22.7190   36.6060 N   0  0  0  0  0  0  0  0  0  0  0  0
   41.4320   22.5310   36.5010 N   0  0  0  0  0  0  0  0  0  0  0  0
   42.3170   21.5830   36.8610 C   0  0  0  0  0  0  0  0  0  0  0  0
   43.5370   22.0450   36.5450 N   0  0  0  0  0  0  0  0  0  0  0  0
   43.4520   23.2660   35.9930 C   0  0  0  0  0  0  0  0  0  0  0  0
   44.3870   24.1400   35.5120 C   0  0  0  0  0  0  0  0  0  0  0  0
   45.6290   23.8870   35.5220 O   0  0  0  0  0  0  0  0  0  0  0  0
   44.0480   25.3370   34.9930 N   0  0  0  0  0  0  0  0  0  0  0  0
   42.7330   25.6260   34.9720 C   0  0  0  0  0  0  0  0  0  0  0  0
   42.1200   26.8310   34.4720 N   0  0  0  0  0  0  0  0  0  0  0  0
   41.7850   24.7910   35.4350 N   0  0  0  0  0  0  0  0  0  0  0  0
   42.0930   23.5830   35.9630 C   0  0  0  0  0  0  0  0  0  0  0  0
   37.0420   21.6750   34.4850 C   0  0  0  0  0  0  0  0  0  0  0  0
   36.0000   20.7780   34.7570 C   0  0  0  0  0  0  0  0  0  0  0  0
   35.3600   20.4850   33.5680 C   0  0  0  0  0  0  0  0  0  0  0  0
   36.0430   21.2190   32.6290 C   0  0  0  0  0  0  0  0  0  0  0  0
   37.0170   21.9000   33.2090 O   0  0  0  0  0  0  0  0  0  0  0  0
   39.8133   21.6687   34.6521 H   0  0  0  0  0  0  0  0  0  0  0  0
   37.4622   23.6520   38.4984 H   0  0  0  0  0  0  0  0  0  0  0  0
   42.0846   20.6136   37.3260 H   0  0  0  0  0  0  0  0  0  0  0  0
   44.7551   25.9936   34.6328 H   0  0  0  0  0  0  0  0  0  0  0  0
   41.0966   26.9414   34.5081 H   0  0  0  0  0  0  0  0  0  0  0  0
   42.7054   27.5816   34.0786 H   0  0  0  0  0  0  0  0  0  0  0  0
   35.7370   20.3764   35.7467 H   0  0  0  0  0  0  0  0  0  0  0  0
   34.5005   19.8170   33.4096 H   0  0  0  0  0  0  0  0  0  0  0  0
   35.8136   21.2376   31.5533 H   0  0  0  0  0  0  0  0  0  0  0  0
  1  6  1  0
  2  1  2  0
  2  3  1  0
  3  4  2  0
  4  5  1  0
  6  5  2  0
  7  3  1  0
  7  8  1  0
  9  8  2  0
 10  9  1  0
 11 12  2  0
 11 10  1  0
 13 11  1  0
 14 13  1  0
 14 16  2  0
 15 14  1  0
 16 17  1  0
 17 10  2  0
 17  7  1  0
 18 19  2  0
 18  1  1  0
 20 19  1  0
 21 22  1  0
 21 20  2  0
 22 18  1  0
  2 23  1  0
  5 24  1  0
  8 25  1  0
 13 26  1  0
 15 27  1  0
 15 28  1  0
 19 29  1  0
 20 30  1  0
 21 31  1  0
M  ISO  7  23  14  24  14  25  14  26   9  29  14  30  14  31  14
M  END
>  <minimizedAffinity>  (1) 
-5.43608427

>  <minimizedRMSD>  (1) 
0.948247194

$$$$
