
     RDKit          3D

 30 32  0  0  0  0  0  0  0  0999 V2000
   37.8960   22.1640   35.6650 C   0  0  0  0  0  0  0  0  0  0  0  0
   39.2800   22.0150   35.6610 C   0  0  0  0  0  0  0  0  0  0  0  0
   39.9710   22.5250   36.7550 C   0  0  0  0  0  0  0  0  0  0  0  0
   39.3060   23.1350   37.7690 N   0  0  0  0  0  0  0  0  0  0  0  0
   37.9540   23.2610   37.7370 C   0  0  0  0  0  0  0  0  0  0  0  0
   37.2610   22.7780   36.6910 N   0  0  0  0  0  0  0  0  0  0  0  0
   41.3660   22.4000   36.7980 N   0  0  0  0  0  0  0  0  0  0  0  0
   42.2150   23.4320   36.2360 C   0  0  0  0  0  0  0  0  0  0  0  0
   43.6660   23.0860   36.4740 C   0  0  0  0  0  0  0  0  0  0  0  0
   44.0000   21.8090   36.1160 O   0  0  0  0  0  0  0  0  0  0  0  0
   43.1640   20.8110   36.5470 C   0  0  0  0  0  0  0  0  0  0  0  0
   42.0150   21.2530   37.3960 C   0  0  0  0  0  0  0  0  0  0  0  0
   37.0190   21.6890   34.5990 C   0  0  0  0  0  0  0  0  0  0  0  0
   35.9950   20.7710   34.8530 C   0  0  0  0  0  0  0  0  0  0  0  0
   35.3380   20.5060   33.6700 C   0  0  0  0  0  0  0  0  0  0  0  0
   35.9850   21.2680   32.7550 C   0  0  0  0  0  0  0  0  0  0  0  0
   36.9770   21.9580   33.3330 O   0  0  0  0  0  0  0  0  0  0  0  0
   39.8029   21.5170   34.8312 H   0  0  0  0  0  0  0  0  0  0  0  0
   37.4270   23.7573   38.5653 H   0  0  0  0  0  0  0  0  0  0  0  0
   41.9857   24.3950   36.7157 H   0  0  0  0  0  0  0  0  0  0  0  0
   42.0314   23.5042   35.1538 H   0  0  0  0  0  0  0  0  0  0  0  0
   44.2875   23.7821   35.8916 H   0  0  0  0  0  0  0  0  0  0  0  0
   43.8388   23.1680   37.5572 H   0  0  0  0  0  0  0  0  0  0  0  0
   42.7547   20.3056   35.6599 H   0  0  0  0  0  0  0  0  0  0  0  0
   43.7776   20.1592   37.1863 H   0  0  0  0  0  0  0  0  0  0  0  0
   42.3849   21.5246   38.3957 H   0  0  0  0  0  0  0  0  0  0  0  0
   41.2893   20.4302   37.4758 H   0  0  0  0  0  0  0  0  0  0  0  0
   35.7539   20.3334   35.8330 H   0  0  0  0  0  0  0  0  0  0  0  0
   34.4848   19.8312   33.5066 H   0  0  0  0  0  0  0  0  0  0  0  0
   35.7308   21.3136   31.6858 H   0  0  0  0  0  0  0  0  0  0  0  0
  1  6  1  0
  2  1  2  0
  2  3  1  0
  3  7  1  0
  3  4  2  0
  5  4  1  0
  6  5  2  0
  7 12  1  0
  8  9  1  0
  8  7  1  0
 10  9  1  0
 10 11  1  0
 11 12  1  0
 13 14  2  0
 13  1  1  0
 15 14  1  0
 16 17  1  0
 16 15  2  0
 17 13  1  0
  2 18  1  0
  5 19  1  0
  8 20  1  0
  8 21  1  0
  9 22  1  0
  9 23  1  0
 11 24  1  0
 11 25  1  0
 12 26  1  0
 12 27  1  0
 14 28  1  0
 15 29  1  0
 16 30  1  0
M  ISO  8  18  14  19  14  20  13  21  13  22  13  23  13  24  13  25  13
M  ISO  5  26  13  27  13  28  14  29  14  30  14
M  END
>  <minimizedAffinity>  (1) 
-4.59327459

>  <minimizedRMSD>  (1) 
0.753237188

$$$$
