
     RDKit          3D

 27 29  0  0  0  0  0  0  0  0999 V2000
   36.9720   21.6260   34.0800 C   0  0  0  0  0  0  0  0  0  0  0  0
   37.8500   22.6890   33.8850 C   0  0  0  0  0  0  0  0  0  0  0  0
   38.2930   23.4010   34.9910 C   0  0  0  0  0  0  0  0  0  0  0  0
   37.8500   23.0330   36.2280 N   0  0  0  0  0  0  0  0  0  0  0  0
   37.0050   22.0070   36.3940 C   0  0  0  0  0  0  0  0  0  0  0  0
   36.5810   21.3230   35.3290 N   0  0  0  0  0  0  0  0  0  0  0  0
   39.2060   24.5160   34.8450 C   0  0  0  0  0  0  0  0  0  0  0  0
   40.4940   24.4540   34.3570 C   0  0  0  0  0  0  0  0  0  0  0  0
   41.3070   25.5620   34.2490 C   0  0  0  0  0  0  0  0  0  0  0  0
   40.8500   26.8060   34.6330 C   0  0  0  0  0  0  0  0  0  0  0  0
   39.5700   26.9190   35.1270 C   0  0  0  0  0  0  0  0  0  0  0  0
   38.7960   25.7830   35.2170 C   0  0  0  0  0  0  0  0  0  0  0  0
   36.4400   20.8000   33.0070 C   0  0  0  0  0  0  0  0  0  0  0  0
   35.4670   19.8210   33.2830 C   0  0  0  0  0  0  0  0  0  0  0  0
   35.1660   19.2090   32.0690 C   0  0  0  0  0  0  0  0  0  0  0  0
   35.9490   19.8330   31.1560 C   0  0  0  0  0  0  0  0  0  0  0  0
   36.6760   20.7550   31.7520 O   0  0  0  0  0  0  0  0  0  0  0  0
   38.1863   22.9595   32.8732 H   0  0  0  0  0  0  0  0  0  0  0  0
   36.6625   21.7298   37.4019 H   0  0  0  0  0  0  0  0  0  0  0  0
   40.8901   23.4780   34.0401 H   0  0  0  0  0  0  0  0  0  0  0  0
   42.3278   25.4536   33.8537 H   0  0  0  0  0  0  0  0  0  0  0  0
   41.4968   27.6915   34.5460 H   0  0  0  0  0  0  0  0  0  0  0  0
   39.1738   27.8953   35.4430 H   0  0  0  0  0  0  0  0  0  0  0  0
   37.7761   25.8920   35.6143 H   0  0  0  0  0  0  0  0  0  0  0  0
   35.0302   19.5857   34.2648 H   0  0  0  0  0  0  0  0  0  0  0  0
   34.4480   18.3951   31.8899 H   0  0  0  0  0  0  0  0  0  0  0  0
   35.9736   19.6041   30.0804 H   0  0  0  0  0  0  0  0  0  0  0  0
  1  6  1  0
  2  1  2  0
  2  3  1  0
  3  4  2  0
  4  5  1  0
  6  5  2  0
  7  3  1  0
  7 12  1  0
  8  7  2  0
  9  8  1  0
  9 10  2  0
 10 11  1  0
 11 12  2  0
 13 14  2  0
 13  1  1  0
 15 14  1  0
 16 17  1  0
 16 15  2  0
 17 13  1  0
  2 18  1  0
  5 19  1  0
  8 20  1  0
  9 21  1  0
 10 22  1  0
 11 23  1  0
 12 24  1  0
 14 25  1  0
 15 26  1  0
 16 27  1  0
M  ISO  8  18  14  19  14  20  14  21  14  22  14  23  14  24  14  25  14
M  ISO  2  26  14  27  14
M  END
>  <minimizedAffinity>  (1) 
-4.37882566

>  <minimizedRMSD>  (1) 
3.75633526

$$$$
