
     RDKit          3D

 38 39  0  0  1  0  0  0  0  0999 V2000
   38.1720   24.2030   35.4130 C   0  0  0  0  0  0  0  0  0  0  0  0
   39.3790   23.8650   36.1340 N   0  0  0  0  0  0  0  0  0  0  0  0
   40.1920   22.9480   35.3070 C   0  0  0  0  0  0  0  0  0  0  0  0
   41.1940   22.4380   36.3110 C   0  0  0  0  0  0  0  0  0  0  0  0
   40.5250   22.6050   37.6750 C   0  0  0  0  0  0  0  0  0  0  0  0
   39.1150   22.9860   37.2370 C   0  0  1  0  0  0  0  0  0  0  0  0
   38.4550   23.6500   38.4110 C   0  0  0  0  0  0  0  0  0  0  0  0
   39.2430   23.7780   39.5170 F   0  0  0  0  0  0  0  0  0  0  0  0
   37.2600   23.0080   38.6580 F   0  0  0  0  0  0  0  0  0  0  0  0
   38.1140   24.9570   38.0420 F   0  0  0  0  0  0  0  0  0  0  0  0
   38.3790   25.3180   34.4630 C   0  0  0  0  0  0  0  0  0  0  0  0
   36.5310   23.3780   31.8490 C   0  0  0  0  0  0  0  0  0  0  0  0
   37.2650   23.7490   32.9820 C   0  0  0  0  0  0  0  0  0  0  0  0
   37.6100   25.0400   33.2320 C   0  0  0  0  0  0  0  0  0  0  0  0
   37.2060   25.9610   32.3190 N   0  0  0  0  0  0  0  0  0  0  0  0
   36.5090   25.6310   31.2340 C   0  0  0  0  0  0  0  0  0  0  0  0
   36.1680   24.3810   30.9810 N   0  0  0  0  0  0  0  0  0  0  0  0
   36.1250   26.6710   30.3210 N   0  0  0  0  0  0  0  0  0  0  0  0
   36.9490   27.8400   30.1770 C   0  0  0  0  0  0  0  0  0  0  0  0
   37.6400   28.1400   31.2300 N   0  0  0  0  0  0  0  0  0  0  0  0
   36.9360   28.5510   28.9230 N   0  0  0  0  0  0  0  0  0  0  0  0
   38.2610   28.9780   31.1960 H   0  0  0  0  0  0  0  0  0  0  0  0
   37.8354   23.3185   34.8523 H   0  0  0  0  0  0  0  0  0  0  0  0
   37.4192   24.5229   36.1484 H   0  0  0  0  0  0  0  0  0  0  0  0
   39.5817   22.1292   34.8982 H   0  0  0  0  0  0  0  0  0  0  0  0
   40.6460   23.4252   34.4260 H   0  0  0  0  0  0  0  0  0  0  0  0
   41.4229   21.3788   36.1220 H   0  0  0  0  0  0  0  0  0  0  0  0
   42.1458   22.9864   36.2530 H   0  0  0  0  0  0  0  0  0  0  0  0
   40.5338   21.6678   38.2509 H   0  0  0  0  0  0  0  0  0  0  0  0
   41.0129   23.3297   38.3434 H   0  0  0  0  0  0  0  0  0  0  0  0
   38.4391   22.1729   36.9336 H   0  0  0  0  0  0  0  0  0  0  0  0
   38.0289   26.2583   34.9138 H   0  0  0  0  0  0  0  0  0  0  0  0
   39.4484   25.4130   34.2236 H   0  0  0  0  0  0  0  0  0  0  0  0
   36.2565   22.3295   31.6612 H   0  0  0  0  0  0  0  0  0  0  0  0
   37.5731   22.9693   33.6942 H   0  0  0  0  0  0  0  0  0  0  0  0
   35.2598   26.5793   29.7698 H   0  0  0  0  0  0  0  0  0  0  0  0
   37.5198   29.3908   28.8010 H   0  0  0  0  0  0  0  0  0  0  0  0
   36.3429   28.2192   28.1490 H   0  0  0  0  0  0  0  0  0  0  0  0
  1  2  1  0
  2  6  1  0
  3  2  1  0
  3  4  1  0
  4  5  1  0
  6  5  1  0
  6  7  1  0
  7  9  1  0
  7  8  1  0
 10  7  1  0
 11  1  1  0
 12 13  2  0
 13 14  1  0
 14 11  1  0
 15 14  2  0
 16 15  1  0
 17 16  2  0
 17 12  1  0
 18 16  1  0
 19 18  1  0
 19 20  2  0
 21 19  1  0
 22 20  1  0
  1 23  1  0
  1 24  1  0
  3 25  1  0
  3 26  1  0
  4 27  1  0
  4 28  1  0
  5 29  1  0
  5 30  1  0
  6 31  1  6
 11 32  1  0
 11 33  1  0
 12 34  1  0
 13 35  1  0
 18 36  1  0
 21 37  1  0
 21 38  1  0
M  ISO  8  23   8  24   8  25  13  26  13  27  13  28  13  29  13  30  13
M  ISO  5  31  13  32   8  33   8  34  14  35  14
M  END
>  <minimizedAffinity>  (1) 
-5.87421227

>  <minimizedRMSD>  (1) 
0.77626425

$$$$
