
     RDKit          3D

 23 25  0  0  0  0  0  0  0  0999 V2000
   37.3560   23.3270   32.6160 C   0  0  0  0  0  0  0  0  0  0  0  0
   37.7670   23.4550   33.9500 C   0  0  0  0  0  0  0  0  0  0  0  0
   38.6420   22.5170   34.4690 C   0  0  0  0  0  0  0  0  0  0  0  0
   39.0710   21.5040   33.6620 N   0  0  0  0  0  0  0  0  0  0  0  0
   38.6650   21.4010   32.3860 C   0  0  0  0  0  0  0  0  0  0  0  0
   37.8110   22.2980   31.8460 N   0  0  0  0  0  0  0  0  0  0  0  0
   39.0630   22.6410   35.8220 N   0  0  0  0  0  0  0  0  0  0  0  0
   40.1650   22.2390   36.4730 C   0  0  0  0  0  0  0  0  0  0  0  0
   40.1140   22.5910   37.7710 N   0  0  0  0  0  0  0  0  0  0  0  0
   38.9400   23.2300   37.9220 C   0  0  0  0  0  0  0  0  0  0  0  0
   38.3220   23.2490   36.7330 N   0  0  0  0  0  0  0  0  0  0  0  0
   36.4450   24.2380   31.9490 C   0  0  0  0  0  0  0  0  0  0  0  0
   36.6690   25.6250   31.9590 C   0  0  0  0  0  0  0  0  0  0  0  0
   35.6510   26.2270   31.2520 C   0  0  0  0  0  0  0  0  0  0  0  0
   34.8630   25.1940   30.8480 C   0  0  0  0  0  0  0  0  0  0  0  0
   35.3570   24.0260   31.2750 O   0  0  0  0  0  0  0  0  0  0  0  0
   37.4011   24.2850   34.5722 H   0  0  0  0  0  0  0  0  0  0  0  0
   39.0352   20.5696   31.7681 H   0  0  0  0  0  0  0  0  0  0  0  0
   40.9995   21.6940   36.0076 H   0  0  0  0  0  0  0  0  0  0  0  0
   38.5547   23.6614   38.8576 H   0  0  0  0  0  0  0  0  0  0  0  0
   37.5100   26.1402   32.4461 H   0  0  0  0  0  0  0  0  0  0  0  0
   35.5077   27.3002   31.0580 H   0  0  0  0  0  0  0  0  0  0  0  0
   33.9452   25.3040   30.2518 H   0  0  0  0  0  0  0  0  0  0  0  0
  1  2  2  0
  2  3  1  0
  3  7  1  0
  4  3  2  0
  5  4  1  0
  6  5  2  0
  6  1  1  0
  7  8  1  0
  7 11  1  0
  8  9  2  0
  9 10  1  0
 11 10  2  0
 12 13  2  0
 12  1  1  0
 14 13  1  0
 15 14  2  0
 15 16  1  0
 16 12  1  0
  2 17  1  0
  5 18  1  0
  8 19  1  0
 10 20  1  0
 13 21  1  0
 14 22  1  0
 15 23  1  0
M  ISO  7  17  14  18  14  19  14  20  14  21  14  22  14  23  14
M  END
>  <minimizedAffinity>  (1) 
-4.29662085

>  <minimizedRMSD>  (1) 
4.48926592

$$$$
