
     RDKit          3D

 24 26  0  0  0  0  0  0  0  0999 V2000
   37.6870   22.3960   34.7610 C   0  0  0  0  0  0  0  0  0  0  0  0
   38.5680   23.4010   34.3400 C   0  0  0  0  0  0  0  0  0  0  0  0
   39.0960   24.2410   35.3070 C   0  0  0  0  0  0  0  0  0  0  0  0
   38.7540   24.0760   36.6090 N   0  0  0  0  0  0  0  0  0  0  0  0
   37.8970   23.0950   36.9920 C   0  0  0  0  0  0  0  0  0  0  0  0
   37.3690   22.2640   36.0790 N   0  0  0  0  0  0  0  0  0  0  0  0
   37.0530   21.4380   33.8730 C   0  0  0  0  0  0  0  0  0  0  0  0
   35.8750   20.7810   34.2460 C   0  0  0  0  0  0  0  0  0  0  0  0
   35.5130   19.9360   33.2030 C   0  0  0  0  0  0  0  0  0  0  0  0
   36.4730   20.1210   32.2670 C   0  0  0  0  0  0  0  0  0  0  0  0
   37.3670   21.0150   32.6960 O   0  0  0  0  0  0  0  0  0  0  0  0
   40.0090   25.2920   34.9120 C   0  0  0  0  0  0  0  0  0  0  0  0
   39.7010   26.4800   34.2810 C   0  0  0  0  0  0  0  0  0  0  0  0
   40.8760   27.2080   34.0820 C   0  0  0  0  0  0  0  0  0  0  0  0
   41.8330   26.4190   34.6060 N   0  0  0  0  0  0  0  0  0  0  0  0
   41.3360   25.2870   35.0970 N   0  0  0  0  0  0  0  0  0  0  0  0
   38.8313   23.5189   33.2785 H   0  0  0  0  0  0  0  0  0  0  0  0
   37.6343   22.9806   38.0540 H   0  0  0  0  0  0  0  0  0  0  0  0
   35.3327   20.9100   35.1943 H   0  0  0  0  0  0  0  0  0  0  0  0
   34.6415   19.2669   33.1503 H   0  0  0  0  0  0  0  0  0  0  0  0
   36.5111   19.6091   31.2941 H   0  0  0  0  0  0  0  0  0  0  0  0
   38.6923   26.8018   33.9828 H   0  0  0  0  0  0  0  0  0  0  0  0
   40.9923   28.1941   33.6085 H   0  0  0  0  0  0  0  0  0  0  0  0
   42.8334   26.6635   34.6245 H   0  0  0  0  0  0  0  0  0  0  0  0
  1  6  1  0
  2  1  2  0
  2  3  1  0
  3  4  2  0
  4  5  1  0
  6  5  2  0
  7  8  2  0
  7  1  1  0
  9  8  1  0
 10 11  1  0
 10  9  2  0
 11  7  1  0
 12 16  2  0
 12  3  1  0
 13 12  1  0
 14 13  2  0
 14 15  1  0
 15 16  1  0
  2 17  1  0
  5 18  1  0
  8 19  1  0
  9 20  1  0
 10 21  1  0
 13 22  1  0
 14 23  1  0
 15 24  1  0
M  ISO  8  17  14  18  14  19  14  20  14  21  14  22  14  23  14  24   9
M  END
>  <minimizedAffinity>  (1) 
-4.20877075

>  <minimizedRMSD>  (1) 
3.25152874

$$$$
