
     RDKit          3D

 31 33  0  0  0  0  0  0  0  0999 V2000
   36.4690   20.6720   32.1000 C   0  0  0  0  0  0  0  0  0  0  0  0
   37.4370   21.2900   32.8890 C   0  0  0  0  0  0  0  0  0  0  0  0
   37.4970   22.6720   32.9260 C   0  0  0  0  0  0  0  0  0  0  0  0
   36.6120   23.3880   32.1890 N   0  0  0  0  0  0  0  0  0  0  0  0
   35.6750   22.7700   31.4240 C   0  0  0  0  0  0  0  0  0  0  0  0
   35.6040   21.4200   31.3800 N   0  0  0  0  0  0  0  0  0  0  0  0
   38.4640   23.3480   33.7130 N   0  0  0  0  0  0  0  0  0  0  0  0
   39.7550   23.7130   33.2200 C   0  0  0  0  0  0  0  0  0  0  0  0
   40.1330   25.0110   33.9370 C   0  0  0  0  0  0  0  0  0  0  0  0
   40.3530   24.7950   35.3410 N   0  0  0  0  0  0  0  0  0  0  0  0
   39.4170   23.8530   35.9150 C   0  0  0  0  0  0  0  0  0  0  0  0
   38.1720   23.7010   35.0790 C   0  0  0  0  0  0  0  0  0  0  0  0
   36.3100   19.2370   31.9830 C   0  0  0  0  0  0  0  0  0  0  0  0
   35.3370   18.5550   32.7350 C   0  0  0  0  0  0  0  0  0  0  0  0
   35.3990   17.2170   32.4360 C   0  0  0  0  0  0  0  0  0  0  0  0
   36.4030   17.1370   31.5150 C   0  0  0  0  0  0  0  0  0  0  0  0
   36.9050   18.3450   31.2820 O   0  0  0  0  0  0  0  0  0  0  0  0
   38.1452   20.6864   33.4756 H   0  0  0  0  0  0  0  0  0  0  0  0
   34.9678   23.3727   30.8352 H   0  0  0  0  0  0  0  0  0  0  0  0
   40.4873   22.9243   33.4474 H   0  0  0  0  0  0  0  0  0  0  0  0
   39.7448   23.8459   32.1281 H   0  0  0  0  0  0  0  0  0  0  0  0
   41.0543   25.4112   33.4887 H   0  0  0  0  0  0  0  0  0  0  0  0
   39.3007   25.7213   33.8244 H   0  0  0  0  0  0  0  0  0  0  0  0
   41.3080   24.4323   35.4728 H   0  0  0  0  0  0  0  0  0  0  0  0
   39.9086   22.8725   35.9987 H   0  0  0  0  0  0  0  0  0  0  0  0
   39.1153   24.2371   36.9006 H   0  0  0  0  0  0  0  0  0  0  0  0
   37.6230   24.6542   35.0873 H   0  0  0  0  0  0  0  0  0  0  0  0
   37.5747   22.8863   35.5143 H   0  0  0  0  0  0  0  0  0  0  0  0
   34.6391   19.0189   33.4476 H   0  0  0  0  0  0  0  0  0  0  0  0
   34.7840   16.4008   32.8430 H   0  0  0  0  0  0  0  0  0  0  0  0
   36.7464   16.2084   31.0357 H   0  0  0  0  0  0  0  0  0  0  0  0
  1  2  2  0
  2  3  1  0
  3  7  1  0
  4  3  2  0
  5  4  1  0
  6  5  2  0
  6  1  1  0
  7 12  1  0
  8  7  1  0
  8  9  1  0
  9 10  1  0
 10 11  1  0
 12 11  1  0
 13  1  1  0
 13 14  2  0
 15 14  1  0
 16 15  2  0
 17 16  1  0
 17 13  1  0
  2 18  1  0
  5 19  1  0
  8 20  1  0
  8 21  1  0
  9 22  1  0
  9 23  1  0
 10 24  1  0
 11 25  1  0
 11 26  1  0
 12 27  1  0
 12 28  1  0
 14 29  1  0
 15 30  1  0
 16 31  1  0
M  ISO  8  18  14  19  14  20  13  21  13  22  13  23  13  24   5  25  13
M  ISO  6  26  13  27  13  28  13  29  14  30  14  31  14
M  END
>  <minimizedAffinity>  (1) 
-3.94711804

>  <minimizedRMSD>  (1) 
5.10749197

$$$$
