
     RDKit          3D

 24 26  0  0  0  0  0  0  0  0999 V2000
   37.9350   22.1730   35.4990 C   0  0  0  0  0  0  0  0  0  0  0  0
   39.3270   22.0090   35.4470 C   0  0  0  0  0  0  0  0  0  0  0  0
   40.0660   22.4760   36.5340 C   0  0  0  0  0  0  0  0  0  0  0  0
   39.4250   23.0580   37.5800 N   0  0  0  0  0  0  0  0  0  0  0  0
   38.0810   23.1990   37.5960 C   0  0  0  0  0  0  0  0  0  0  0  0
   37.3460   22.7610   36.5660 N   0  0  0  0  0  0  0  0  0  0  0  0
   41.4820   22.3280   36.5170 N   0  0  0  0  0  0  0  0  0  0  0  0
   42.3190   23.3940   36.3820 C   0  0  0  0  0  0  0  0  0  0  0  0
   43.6010   22.8410   36.4110 C   0  0  0  0  0  0  0  0  0  0  0  0
   43.5160   21.5000   36.5580 N   0  0  0  0  0  0  0  0  0  0  0  0
   42.1900   21.1830   36.6220 C   0  0  0  0  0  0  0  0  0  0  0  0
   37.0320   21.7370   34.4430 C   0  0  0  0  0  0  0  0  0  0  0  0
   36.0310   20.7860   34.6960 C   0  0  0  0  0  0  0  0  0  0  0  0
   35.3340   20.5670   33.5260 C   0  0  0  0  0  0  0  0  0  0  0  0
   35.9440   21.3950   32.6190 C   0  0  0  0  0  0  0  0  0  0  0  0
   36.9270   22.0550   33.2040 O   0  0  0  0  0  0  0  0  0  0  0  0
   39.8157   21.5319   34.5847 H   0  0  0  0  0  0  0  0  0  0  0  0
   37.5896   23.6748   38.4574 H   0  0  0  0  0  0  0  0  0  0  0  0
   42.0460   24.4541   36.2742 H   0  0  0  0  0  0  0  0  0  0  0  0
   44.5383   23.4106   36.3269 H   0  0  0  0  0  0  0  0  0  0  0  0
   41.7716   20.1724   36.7386 H   0  0  0  0  0  0  0  0  0  0  0  0
   35.8357   20.2985   35.6625 H   0  0  0  0  0  0  0  0  0  0  0  0
   34.4860   19.8864   33.3593 H   0  0  0  0  0  0  0  0  0  0  0  0
   35.6573   21.4946   31.5617 H   0  0  0  0  0  0  0  0  0  0  0  0
  1  6  1  0
  2  1  2  0
  2  3  1  0
  3  4  2  0
  4  5  1  0
  6  5  2  0
  7  3  1  0
  7 11  1  0
  8  9  2  0
  8  7  1  0
  9 10  1  0
 10 11  2  0
 12 13  2  0
 12  1  1  0
 14 13  1  0
 15 16  1  0
 15 14  2  0
 16 12  1  0
  2 17  1  0
  5 18  1  0
  8 19  1  0
  9 20  1  0
 11 21  1  0
 13 22  1  0
 14 23  1  0
 15 24  1  0
M  ISO  8  17  14  18  14  19  14  20  14  21  14  22  14  23  14  24  14
M  END
>  <minimizedAffinity>  (1) 
-4.17967272

>  <minimizedRMSD>  (1) 
0.9521541

$$$$
