
     RDKit          3D

 36 39  0  0  0  0  0  0  0  0999 V2000
   41.3130   22.4960   37.4970 C   0  0  0  0  0  0  0  0  0  0  0  0
   37.8530   22.2670   36.0190 C   0  0  0  0  0  0  0  0  0  0  0  0
   39.2360   22.1260   36.1750 C   0  0  0  0  0  0  0  0  0  0  0  0
   39.8550   22.6270   37.2960 C   0  0  0  0  0  0  0  0  0  0  0  0
   39.0810   23.2540   38.2290 N   0  0  0  0  0  0  0  0  0  0  0  0
   37.7540   23.3840   38.0700 C   0  0  0  0  0  0  0  0  0  0  0  0
   37.1330   22.8980   36.9760 N   0  0  0  0  0  0  0  0  0  0  0  0
   37.0990   21.7820   34.8870 C   0  0  0  0  0  0  0  0  0  0  0  0
   36.0300   20.8930   35.0580 C   0  0  0  0  0  0  0  0  0  0  0  0
   35.5250   20.6260   33.7880 C   0  0  0  0  0  0  0  0  0  0  0  0
   36.3010   21.3550   32.9270 C   0  0  0  0  0  0  0  0  0  0  0  0
   37.2030   22.0110   33.6170 O   0  0  0  0  0  0  0  0  0  0  0  0
   42.0600   22.3920   36.2050 C   0  0  0  0  0  0  0  0  0  0  0  0
   42.6940   23.6050   35.8000 N   0  0  0  0  0  0  0  0  0  0  0  0
   43.9930   23.8550   36.0620 C   0  0  0  0  0  0  0  0  0  0  0  0
   44.3210   25.0790   35.5620 N   0  0  0  0  0  0  0  0  0  0  0  0
   43.2380   25.6020   34.9880 C   0  0  0  0  0  0  0  0  0  0  0  0
   42.9840   26.7930   34.3330 C   0  0  0  0  0  0  0  0  0  0  0  0
   41.7390   26.9950   33.8680 N   0  0  0  0  0  0  0  0  0  0  0  0
   40.7520   26.0920   34.0160 C   0  0  0  0  0  0  0  0  0  0  0  0
   40.9840   24.9210   34.6550 N   0  0  0  0  0  0  0  0  0  0  0  0
   42.2250   24.6790   35.1390 C   0  0  0  0  0  0  0  0  0  0  0  0
   44.0350   27.7490   34.1770 N   0  0  0  0  0  0  0  0  0  0  0  0
   41.6749   23.3790   38.0441 H   0  0  0  0  0  0  0  0  0  0  0  0
   41.4915   21.5698   38.0630 H   0  0  0  0  0  0  0  0  0  0  0  0
   39.8279   21.6147   35.4015 H   0  0  0  0  0  0  0  0  0  0  0  0
   37.1638   23.8953   38.8448 H   0  0  0  0  0  0  0  0  0  0  0  0
   35.6611   20.4850   36.0106 H   0  0  0  0  0  0  0  0  0  0  0  0
   34.6813   19.9686   33.5309 H   0  0  0  0  0  0  0  0  0  0  0  0
   36.1864   21.3855   31.8334 H   0  0  0  0  0  0  0  0  0  0  0  0
   42.8335   21.6176   36.3144 H   0  0  0  0  0  0  0  0  0  0  0  0
   41.3199   22.1461   35.4292 H   0  0  0  0  0  0  0  0  0  0  0  0
   44.6781   23.1788   36.5943 H   0  0  0  0  0  0  0  0  0  0  0  0
   39.7504   26.3067   33.6152 H   0  0  0  0  0  0  0  0  0  0  0  0
   43.8540   28.6386   33.6903 H   0  0  0  0  0  0  0  0  0  0  0  0
   44.9734   27.5484   34.5512 H   0  0  0  0  0  0  0  0  0  0  0  0
  2  3  2  0
  2  7  1  0
  3  4  1  0
  4  1  1  0
  4  5  2  0
  6  5  1  0
  7  6  2  0
  8  9  2  0
  8  2  1  0
 10  9  1  0
 11 12  1  0
 11 10  2  0
 12  8  1  0
 13  1  1  0
 14 15  1  0
 14 13  1  0
 16 15  2  0
 17 22  2  0
 17 16  1  0
 18 17  1  0
 19 20  1  0
 19 18  2  0
 20 21  2  0
 21 22  1  0
 22 14  1  0
 23 18  1  0
  1 24  1  0
  1 25  1  0
  3 26  1  0
  6 27  1  0
  9 28  1  0
 10 29  1  0
 11 30  1  0
 13 31  1  0
 13 32  1  0
 15 33  1  0
 20 34  1  0
 23 35  1  0
 23 36  1  0
M  ISO  8  24   8  25   8  26  14  27  14  28  14  29  14  30  14  31   8
M  ISO  3  32   8  33  14  34  14
M  END
>  <minimizedAffinity>  (1) 
-5.27542257

>  <minimizedRMSD>  (1) 
3.69476104

$$$$
