
     RDKit          3D

 30 31  0  0  0  0  0  0  0  0999 V2000
   40.3070   26.1450   34.8880 C   0  0  0  0  0  0  0  0  0  0  0  0
   40.1170   24.7930   35.1640 C   0  0  0  0  0  0  0  0  0  0  0  0
   39.0540   24.3540   35.9170 C   0  0  0  0  0  0  0  0  0  0  0  0
   38.1970   25.3100   36.3770 N   0  0  0  0  0  0  0  0  0  0  0  0
   38.3720   26.6140   36.1170 C   0  0  0  0  0  0  0  0  0  0  0  0
   39.4180   27.0400   35.3770 N   0  0  0  0  0  0  0  0  0  0  0  0
   41.3930   26.6890   34.1080 C   0  0  0  0  0  0  0  0  0  0  0  0
   41.1510   27.4570   32.9710 C   0  0  0  0  0  0  0  0  0  0  0  0
   42.3580   27.8410   32.4300 C   0  0  0  0  0  0  0  0  0  0  0  0
   43.2830   27.2820   33.2720 C   0  0  0  0  0  0  0  0  0  0  0  0
   42.6730   26.6230   34.2300 O   0  0  0  0  0  0  0  0  0  0  0  0
   38.8350   22.9390   36.2190 C   0  0  0  0  0  0  0  0  0  0  0  0
   37.4970   22.4390   35.7880 C   0  0  0  0  0  0  0  0  0  0  0  0
   36.7830   21.7220   36.7970 N   0  0  0  0  0  0  0  0  0  0  0  0
   35.6110   20.9890   36.4050 C   0  0  0  0  0  0  0  0  0  0  0  0
   35.5630   20.5690   35.1840 N   0  0  0  0  0  0  0  0  0  0  0  0
   34.5550   20.7420   37.3340 N   0  0  0  0  0  0  0  0  0  0  0  0
   34.7780   20.0290   34.7730 H   0  0  0  0  0  0  0  0  0  0  0  0
   40.8350   24.0588   34.7698 H   0  0  0  0  0  0  0  0  0  0  0  0
   37.6532   27.3469   36.5122 H   0  0  0  0  0  0  0  0  0  0  0  0
   40.1591   27.7143   32.5711 H   0  0  0  0  0  0  0  0  0  0  0  0
   42.5371   28.4524   31.5333 H   0  0  0  0  0  0  0  0  0  0  0  0
   44.3738   27.3718   33.1619 H   0  0  0  0  0  0  0  0  0  0  0  0
   39.6090   22.3495   35.7057 H   0  0  0  0  0  0  0  0  0  0  0  0
   38.8845   22.8299   37.3125 H   0  0  0  0  0  0  0  0  0  0  0  0
   36.8882   23.3032   35.4837 H   0  0  0  0  0  0  0  0  0  0  0  0
   37.6759   21.7305   34.9658 H   0  0  0  0  0  0  0  0  0  0  0  0
   37.0994   21.7304   37.7772 H   0  0  0  0  0  0  0  0  0  0  0  0
   33.7212   20.2149   37.0377 H   0  0  0  0  0  0  0  0  0  0  0  0
   34.6271   21.0910   38.3004 H   0  0  0  0  0  0  0  0  0  0  0  0
  1  2  2  0
  1  6  1  0
  2  3  1  0
  3 12  1  0
  3  4  2  0
  5  4  1  0
  6  5  2  0
  7 11  1  0
  7  1  1  0
  8  7  2  0
  9  8  1  0
  9 10  2  0
 10 11  1  0
 13 12  1  0
 13 14  1  0
 15 14  1  0
 15 17  1  0
 16 15  2  0
 18 16  1  0
  2 19  1  0
  5 20  1  0
  8 21  1  0
  9 22  1  0
 10 23  1  0
 12 24  1  0
 12 25  1  0
 13 26  1  0
 13 27  1  0
 14 28  1  0
 17 29  1  0
 17 30  1  0
M  ISO  8  19  14  20  14  21  14  22  14  23  14  24   8  25   8  26   8
M  ISO  1  27   8
M  END
>  <minimizedAffinity>  (1) 
-5.11534691

>  <minimizedRMSD>  (1) 
5.80729771

$$$$
