
     RDKit          3D

 30 32  0  0  0  0  0  0  0  0999 V2000
   37.9590   22.2700   36.0450 C   0  0  0  0  0  0  0  0  0  0  0  0
   39.3400   22.1660   36.1550 C   0  0  0  0  0  0  0  0  0  0  0  0
   39.9920   22.6870   37.2560 C   0  0  0  0  0  0  0  0  0  0  0  0
   39.2410   23.2900   38.2050 N   0  0  0  0  0  0  0  0  0  0  0  0
   37.8980   23.3900   38.0990 C   0  0  0  0  0  0  0  0  0  0  0  0
   37.2550   22.8860   37.0310 N   0  0  0  0  0  0  0  0  0  0  0  0
   37.1560   21.7670   34.9440 C   0  0  0  0  0  0  0  0  0  0  0  0
   36.0860   20.9140   35.1390 C   0  0  0  0  0  0  0  0  0  0  0  0
   35.5330   20.6200   33.9150 C   0  0  0  0  0  0  0  0  0  0  0  0
   36.2990   21.3140   33.0130 C   0  0  0  0  0  0  0  0  0  0  0  0
   37.2470   21.9780   33.6650 O   0  0  0  0  0  0  0  0  0  0  0  0
   41.4480   22.5860   37.3860 C   0  0  0  0  0  0  0  0  0  0  0  0
   42.1780   22.6360   36.0730 C   0  0  0  0  0  0  0  0  0  0  0  0
   42.9790   23.9120   36.0660 C   0  0  0  0  0  0  0  0  0  0  0  0
   44.1270   24.1270   36.8120 C   0  0  0  0  0  0  0  0  0  0  0  0
   44.6030   25.4160   36.5580 C   0  0  0  0  0  0  0  0  0  0  0  0
   43.7140   25.9320   35.6600 N   0  0  0  0  0  0  0  0  0  0  0  0
   42.7690   25.0500   35.3780 N   0  0  0  0  0  0  0  0  0  0  0  0
   39.9166   21.6668   35.3623 H   0  0  0  0  0  0  0  0  0  0  0  0
   37.3247   23.8887   38.8943 H   0  0  0  0  0  0  0  0  0  0  0  0
   35.7358   20.5342   36.1101 H   0  0  0  0  0  0  0  0  0  0  0  0
   34.6688   19.9725   33.7056 H   0  0  0  0  0  0  0  0  0  0  0  0
   36.1516   21.3197   31.9229 H   0  0  0  0  0  0  0  0  0  0  0  0
   41.7994   23.4206   38.0104 H   0  0  0  0  0  0  0  0  0  0  0  0
   41.6628   21.6053   37.8355 H   0  0  0  0  0  0  0  0  0  0  0  0
   42.8477   21.7684   35.9793 H   0  0  0  0  0  0  0  0  0  0  0  0
   41.4729   22.6091   35.2292 H   0  0  0  0  0  0  0  0  0  0  0  0
   44.5896   23.3992   37.4949 H   0  0  0  0  0  0  0  0  0  0  0  0
   45.4918   25.9038   36.9846 H   0  0  0  0  0  0  0  0  0  0  0  0
   43.7710   26.8782   35.2571 H   0  0  0  0  0  0  0  0  0  0  0  0
  1  2  2  0
  1  6  1  0
  2  3  1  0
  3 12  1  0
  3  4  2  0
  5  4  1  0
  6  5  2  0
  7  8  2  0
  7  1  1  0
  9  8  1  0
 10 11  1  0
 10  9  2  0
 11  7  1  0
 13 12  1  0
 14 13  1  0
 14 15  1  0
 16 15  2  0
 17 16  1  0
 18 17  1  0
 18 14  2  0
  2 19  1  0
  5 20  1  0
  8 21  1  0
  9 22  1  0
 10 23  1  0
 12 24  1  0
 12 25  1  0
 13 26  1  0
 13 27  1  0
 15 28  1  0
 16 29  1  0
 17 30  1  0
M  ISO  8  19  14  20  14  21  14  22  14  23  14  24   8  25   8  26   8
M  ISO  4  27   8  28  14  29  14  30   9
M  END
>  <minimizedAffinity>  (1) 
-4.86018419

>  <minimizedRMSD>  (1) 
2.22849679

$$$$
