
     RDKit          3D

 37 39  0  0  0  0  0  0  0  0999 V2000
   37.9130   22.2410   35.8450 C   0  0  0  0  0  0  0  0  0  0  0  0
   39.3020   22.2430   35.8820 C   0  0  0  0  0  0  0  0  0  0  0  0
   39.9750   22.7650   36.9660 C   0  0  0  0  0  0  0  0  0  0  0  0
   39.2260   23.2690   37.9730 N   0  0  0  0  0  0  0  0  0  0  0  0
   37.8810   23.2680   37.9370 C   0  0  0  0  0  0  0  0  0  0  0  0
   37.2180   22.7580   36.8780 N   0  0  0  0  0  0  0  0  0  0  0  0
   37.1160   21.7110   34.7540 C   0  0  0  0  0  0  0  0  0  0  0  0
   36.0240   20.8700   34.9980 C   0  0  0  0  0  0  0  0  0  0  0  0
   35.4640   20.5270   33.7880 C   0  0  0  0  0  0  0  0  0  0  0  0
   36.2410   21.1760   32.8620 C   0  0  0  0  0  0  0  0  0  0  0  0
   37.1840   21.8470   33.4810 O   0  0  0  0  0  0  0  0  0  0  0  0
   41.4490   22.7740   37.0130 C   0  0  0  0  0  0  0  0  0  0  0  0
   42.0870   23.1880   35.7490 C   0  0  0  0  0  0  0  0  0  0  0  0
   43.0520   24.2330   35.9990 N   0  0  0  0  0  0  0  0  0  0  0  0
   43.5050   24.9000   34.8200 C   0  0  0  0  0  0  0  0  0  0  0  0
   44.4670   25.9850   35.2470 C   0  0  0  0  0  0  0  0  0  0  0  0
   44.5490   26.1710   36.6640 N   0  0  0  0  0  0  0  0  0  0  0  0
   44.9020   24.9420   37.3610 C   0  0  0  0  0  0  0  0  0  0  0  0
   44.1770   23.7540   36.7470 C   0  0  0  0  0  0  0  0  0  0  0  0
   39.8700   21.8241   35.0383 H   0  0  0  0  0  0  0  0  0  0  0  0
   37.3148   23.6881   38.7813 H   0  0  0  0  0  0  0  0  0  0  0  0
   35.6734   20.5398   35.9870 H   0  0  0  0  0  0  0  0  0  0  0  0
   34.5929   19.8805   33.6054 H   0  0  0  0  0  0  0  0  0  0  0  0
   36.0964   21.1397   31.7722 H   0  0  0  0  0  0  0  0  0  0  0  0
   41.7656   23.4694   37.8043 H   0  0  0  0  0  0  0  0  0  0  0  0
   41.7676   21.7391   37.2063 H   0  0  0  0  0  0  0  0  0  0  0  0
   41.3169   23.5617   35.0581 H   0  0  0  0  0  0  0  0  0  0  0  0
   42.6005   22.3226   35.3046 H   0  0  0  0  0  0  0  0  0  0  0  0
   42.6503   25.3447   34.2892 H   0  0  0  0  0  0  0  0  0  0  0  0
   44.0012   24.1899   34.1421 H   0  0  0  0  0  0  0  0  0  0  0  0
   45.4687   25.7243   34.8746 H   0  0  0  0  0  0  0  0  0  0  0  0
   44.0881   26.9277   34.8255 H   0  0  0  0  0  0  0  0  0  0  0  0
   45.2656   26.8833   36.8641 H   0  0  0  0  0  0  0  0  0  0  0  0
   45.9877   24.7820   37.2853 H   0  0  0  0  0  0  0  0  0  0  0  0
   44.6047   25.0335   38.4161 H   0  0  0  0  0  0  0  0  0  0  0  0
   43.8304   23.0804   37.5446 H   0  0  0  0  0  0  0  0  0  0  0  0
   44.8594   23.2036   36.0826 H   0  0  0  0  0  0  0  0  0  0  0  0
  1  2  2  0
  1  6  1  0
  2  3  1  0
  3 12  1  0
  3  4  2  0
  5  4  1  0
  6  5  2  0
  7  8  2  0
  7  1  1  0
  9  8  1  0
 10 11  1  0
 10  9  2  0
 11  7  1  0
 13 14  1  0
 13 12  1  0
 14 19  1  0
 15 16  1  0
 15 14  1  0
 16 17  1  0
 17 18  1  0
 19 18  1  0
  2 20  1  0
  5 21  1  0
  8 22  1  0
  9 23  1  0
 10 24  1  0
 12 25  1  0
 12 26  1  0
 13 27  1  0
 13 28  1  0
 15 29  1  0
 15 30  1  0
 16 31  1  0
 16 32  1  0
 17 33  1  0
 18 34  1  0
 18 35  1  0
 19 36  1  0
 19 37  1  0
M  ISO  8  20  14  21  14  22  14  23  14  24  14  25   8  26   8  27   8
M  ISO  8  28   8  29  13  30  13  31  13  32  13  33   5  34  13  35  13
M  ISO  2  36  13  37  13
M  END
>  <minimizedAffinity>  (1) 
-4.77506924

>  <minimizedRMSD>  (1) 
2.54999042

$$$$
