
     RDKit          3D

 43 46  0  0  0  0  0  0  0  0999 V2000
   41.6580   22.5340   37.1290 C   0  0  0  0  0  0  0  0  0  0  0  0
   38.1010   22.2590   35.9670 C   0  0  0  0  0  0  0  0  0  0  0  0
   39.4840   22.1460   36.0050 C   0  0  0  0  0  0  0  0  0  0  0  0
   40.1900   22.6450   37.0740 C   0  0  0  0  0  0  0  0  0  0  0  0
   39.5140   23.2440   38.0780 N   0  0  0  0  0  0  0  0  0  0  0  0
   38.1650   23.3560   38.0430 C   0  0  0  0  0  0  0  0  0  0  0  0
   37.4430   22.8710   37.0010 N   0  0  0  0  0  0  0  0  0  0  0  0
   37.2550   21.7810   34.9120 C   0  0  0  0  0  0  0  0  0  0  0  0
   36.1580   20.9400   35.1610 C   0  0  0  0  0  0  0  0  0  0  0  0
   35.5460   20.6550   33.9480 C   0  0  0  0  0  0  0  0  0  0  0  0
   36.2800   21.3190   33.0330 C   0  0  0  0  0  0  0  0  0  0  0  0
   37.2740   21.9680   33.6270 O   0  0  0  0  0  0  0  0  0  0  0  0
   42.3640   23.2880   36.0300 C   0  0  0  0  0  0  0  0  0  0  0  0
   43.7200   23.7430   36.4470 C   0  0  0  0  0  0  0  0  0  0  0  0
   43.9350   24.7950   37.2440 C   0  0  0  0  0  0  0  0  0  0  0  0
   45.1500   25.1930   37.6240 C   0  0  0  0  0  0  0  0  0  0  0  0
   46.2540   24.4120   37.1190 C   0  0  0  0  0  0  0  0  0  0  0  0
   45.3720   23.1180   36.0950 S   0  0  0  0  0  0  0  0  0  0  0  0
   47.6660   24.3360   37.1600 C   0  0  0  0  0  0  0  0  0  0  0  0
   48.3840   25.6030   36.6800 C   0  0  0  0  0  0  0  0  0  0  0  0
   49.6970   25.5910   37.4300 C   0  0  0  0  0  0  0  0  0  0  0  0
   49.6300   24.4650   38.4330 C   0  0  0  0  0  0  0  0  0  0  0  0
   48.1420   24.2360   38.5730 C   0  0  0  0  0  0  0  0  0  0  0  0
   42.0003   22.9293   38.0968 H   0  0  0  0  0  0  0  0  0  0  0  0
   41.9053   21.4700   36.9994 H   0  0  0  0  0  0  0  0  0  0  0  0
   40.0169   21.6556   35.1770 H   0  0  0  0  0  0  0  0  0  0  0  0
   37.6436   23.8501   38.8761 H   0  0  0  0  0  0  0  0  0  0  0  0
   35.8389   20.5709   36.1469 H   0  0  0  0  0  0  0  0  0  0  0  0
   34.6598   20.0274   33.7727 H   0  0  0  0  0  0  0  0  0  0  0  0
   36.0837   21.3226   31.9507 H   0  0  0  0  0  0  0  0  0  0  0  0
   41.7618   24.1679   35.7595 H   0  0  0  0  0  0  0  0  0  0  0  0
   42.4824   22.6081   35.1734 H   0  0  0  0  0  0  0  0  0  0  0  0
   43.0642   25.3618   37.6051 H   0  0  0  0  0  0  0  0  0  0  0  0
   45.3013   26.0621   38.2811 H   0  0  0  0  0  0  0  0  0  0  0  0
   47.8908   23.4714   36.5182 H   0  0  0  0  0  0  0  0  0  0  0  0
   48.5546   25.5672   35.5939 H   0  0  0  0  0  0  0  0  0  0  0  0
   47.7995   26.5157   36.8678 H   0  0  0  0  0  0  0  0  0  0  0  0
   50.5289   25.4229   36.7302 H   0  0  0  0  0  0  0  0  0  0  0  0
   49.8660   26.5534   37.9352 H   0  0  0  0  0  0  0  0  0  0  0  0
   50.1363   23.5650   38.0540 H   0  0  0  0  0  0  0  0  0  0  0  0
   50.1284   24.6975   39.3857 H   0  0  0  0  0  0  0  0  0  0  0  0
   47.6784   25.0083   39.2044 H   0  0  0  0  0  0  0  0  0  0  0  0
   47.8885   23.2802   39.0549 H   0  0  0  0  0  0  0  0  0  0  0  0
  2  3  2  0
  2  7  1  0
  3  4  1  0
  4  1  1  0
  4  5  2  0
  6  5  1  0
  7  6  2  0
  8  9  2  0
  8  2  1  0
 10  9  1  0
 11 12  1  0
 11 10  2  0
 12  8  1  0
 13 14  1  0
 13  1  1  0
 14 15  2  0
 15 16  1  0
 17 19  1  0
 17 16  2  0
 18 14  1  0
 18 17  1  0
 19 23  1  0
 20 19  1  0
 20 21  1  0
 21 22  1  0
 22 23  1  0
  1 24  1  0
  1 25  1  0
  3 26  1  0
  6 27  1  0
  9 28  1  0
 10 29  1  0
 11 30  1  0
 13 31  1  0
 13 32  1  0
 15 33  1  0
 16 34  1  0
 19 35  1  0
 20 36  1  0
 20 37  1  0
 21 38  1  0
 21 39  1  0
 22 40  1  0
 22 41  1  0
 23 42  1  0
 23 43  1  0
M  ISO  8  24   8  25   8  26  14  27  14  28  14  29  14  30  14  31   8
M  ISO  8  32   8  33  14  34  14  35  13  36  13  37  13  38  13  39  13
M  ISO  4  40  13  41  13  42  13  43  13
M  END
>  <minimizedAffinity>  (1) 
-5.48150635

>  <minimizedRMSD>  (1) 
0.859615266

$$$$
