
     RDKit          3D

 33 34  0  0  1  0  0  0  0  0999 V2000
   38.4130   24.2250   35.3000 C   0  0  0  0  0  0  0  0  0  0  0  0
   39.5520   23.8440   36.1110 N   0  0  0  0  0  0  0  0  0  0  0  0
   40.4090   22.9190   35.3410 C   0  0  0  0  0  0  0  0  0  0  0  0
   41.3150   22.3730   36.4150 C   0  0  0  0  0  0  0  0  0  0  0  0
   40.5340   22.5380   37.7310 C   0  0  0  0  0  0  0  0  0  0  0  0
   39.1790   22.9570   37.1780 C   0  0  1  0  0  0  0  0  0  0  0  0
   38.4500   23.6310   38.3040 C   0  0  0  0  0  0  0  0  0  0  0  0
   39.1590   23.7850   39.4460 F   0  0  0  0  0  0  0  0  0  0  0  0
   37.2520   22.9640   38.5020 F   0  0  0  0  0  0  0  0  0  0  0  0
   38.0940   24.9190   37.8940 F   0  0  0  0  0  0  0  0  0  0  0  0
   38.7700   24.3890   33.8750 C   0  0  0  0  0  0  0  0  0  0  0  0
   36.3280   22.0510   32.2690 C   0  0  0  0  0  0  0  0  0  0  0  0
   37.3780   22.5940   33.0120 C   0  0  0  0  0  0  0  0  0  0  0  0
   37.6390   23.9270   33.0460 C   0  0  0  0  0  0  0  0  0  0  0  0
   36.8270   24.7370   32.3140 N   0  0  0  0  0  0  0  0  0  0  0  0
   35.8120   24.2300   31.5910 C   0  0  0  0  0  0  0  0  0  0  0  0
   35.5550   22.9390   31.5570 N   0  0  0  0  0  0  0  0  0  0  0  0
   35.0220   25.2140   30.8550 C   0  0  0  0  0  0  0  0  0  0  0  0
   35.4300   26.4020   30.7560 O   0  0  0  0  0  0  0  0  0  0  0  0
   37.6419   23.4451   35.3842 H   0  0  0  0  0  0  0  0  0  0  0  0
   38.0456   25.1940   35.6690 H   0  0  0  0  0  0  0  0  0  0  0  0
   39.8160   22.1197   34.8725 H   0  0  0  0  0  0  0  0  0  0  0  0
   40.9439   23.3968   34.5070 H   0  0  0  0  0  0  0  0  0  0  0  0
   41.5361   21.3116   36.2291 H   0  0  0  0  0  0  0  0  0  0  0  0
   42.2801   22.9000   36.4431 H   0  0  0  0  0  0  0  0  0  0  0  0
   40.4727   21.5934   38.2914 H   0  0  0  0  0  0  0  0  0  0  0  0
   40.9795   23.2399   38.4513 H   0  0  0  0  0  0  0  0  0  0  0  0
   38.5133   22.1640   36.8064 H   0  0  0  0  0  0  0  0  0  0  0  0
   38.9741   25.4492   33.6645 H   0  0  0  0  0  0  0  0  0  0  0  0
   39.6689   23.7985   33.6441 H   0  0  0  0  0  0  0  0  0  0  0  0
   36.1291   20.9692   32.2537 H   0  0  0  0  0  0  0  0  0  0  0  0
   38.0197   21.9154   33.5932 H   0  0  0  0  0  0  0  0  0  0  0  0
   34.0714   24.9179   30.3874 H   0  0  0  0  0  0  0  0  0  0  0  0
  1  2  1  0
  2  6  1  0
  3  2  1  0
  3  4  1  0
  4  5  1  0
  6  5  1  0
  6  7  1  0
  7  9  1  0
  7  8  1  0
 10  7  1  0
 11  1  1  0
 12 13  2  0
 13 14  1  0
 14 11  1  0
 15 14  2  0
 16 15  1  0
 17 16  2  0
 17 12  1  0
 18 16  1  0
 19 18  2  0
  1 20  1  0
  1 21  1  0
  3 22  1  0
  3 23  1  0
  4 24  1  0
  4 25  1  0
  5 26  1  0
  5 27  1  0
  6 28  1  6
 11 29  1  0
 11 30  1  0
 12 31  1  0
 13 32  1  0
 18 33  1  0
M  ISO  8  20   8  21   8  22  13  23  13  24  13  25  13  26  13  27  13
M  ISO  6  28  13  29   8  30   8  31  14  32  14  33   6
M  END
>  <minimizedAffinity>  (1) 
-5.05262566

>  <minimizedRMSD>  (1) 
0.681428194

$$$$
