
     RDKit          3D

 37 40  0  0  0  0  0  0  0  0999 V2000
   41.7120   22.3670   37.1290 C   0  0  0  0  0  0  0  0  0  0  0  0
   38.1490   22.2540   35.9390 C   0  0  0  0  0  0  0  0  0  0  0  0
   39.5350   22.0660   35.9820 C   0  0  0  0  0  0  0  0  0  0  0  0
   40.2570   22.5470   37.0500 C   0  0  0  0  0  0  0  0  0  0  0  0
   39.5910   23.1940   38.0360 N   0  0  0  0  0  0  0  0  0  0  0  0
   38.2520   23.3700   37.9850 C   0  0  0  0  0  0  0  0  0  0  0  0
   37.5200   22.9130   36.9560 N   0  0  0  0  0  0  0  0  0  0  0  0
   37.2920   21.7970   34.8750 C   0  0  0  0  0  0  0  0  0  0  0  0
   36.1900   20.9540   35.1330 C   0  0  0  0  0  0  0  0  0  0  0  0
   35.5620   20.6870   33.9230 C   0  0  0  0  0  0  0  0  0  0  0  0
   36.2900   21.3620   33.0170 C   0  0  0  0  0  0  0  0  0  0  0  0
   37.2970   22.0030   33.6010 O   0  0  0  0  0  0  0  0  0  0  0  0
   42.4680   22.9760   36.0000 C   0  0  0  0  0  0  0  0  0  0  0  0
   43.6920   23.7020   36.4370 C   0  0  0  0  0  0  0  0  0  0  0  0
   43.6870   24.8200   37.1760 C   0  0  0  0  0  0  0  0  0  0  0  0
   44.8310   25.4470   37.5490 C   0  0  0  0  0  0  0  0  0  0  0  0
   46.0610   24.8210   37.0930 C   0  0  0  0  0  0  0  0  0  0  0  0
   45.4110   23.3440   36.1410 S   0  0  0  0  0  0  0  0  0  0  0  0
   47.3810   25.1360   37.2550 N   0  0  0  0  0  0  0  0  0  0  0  0
   47.9730   26.2270   36.7940 N   0  0  0  0  0  0  0  0  0  0  0  0
   49.2750   26.2190   37.1330 C   0  0  0  0  0  0  0  0  0  0  0  0
   49.5110   25.0440   37.8550 C   0  0  0  0  0  0  0  0  0  0  0  0
   48.2920   24.3680   37.9220 C   0  0  0  0  0  0  0  0  0  0  0  0
   42.0650   22.8233   38.0656 H   0  0  0  0  0  0  0  0  0  0  0  0
   41.8978   21.2837   37.0839 H   0  0  0  0  0  0  0  0  0  0  0  0
   40.0456   21.5355   35.1648 H   0  0  0  0  0  0  0  0  0  0  0  0
   37.7492   23.9008   38.8068 H   0  0  0  0  0  0  0  0  0  0  0  0
   35.8824   20.5750   36.1188 H   0  0  0  0  0  0  0  0  0  0  0  0
   34.6720   20.0651   33.7466 H   0  0  0  0  0  0  0  0  0  0  0  0
   36.0805   21.3813   31.9373 H   0  0  0  0  0  0  0  0  0  0  0  0
   41.8078   23.6856   35.4797 H   0  0  0  0  0  0  0  0  0  0  0  0
   42.7921   22.1551   35.3434 H   0  0  0  0  0  0  0  0  0  0  0  0
   42.7221   25.2440   37.4910 H   0  0  0  0  0  0  0  0  0  0  0  0
   44.8278   26.3654   38.1545 H   0  0  0  0  0  0  0  0  0  0  0  0
   50.0169   26.9932   36.8878 H   0  0  0  0  0  0  0  0  0  0  0  0
   50.4692   24.7173   38.2853 H   0  0  0  0  0  0  0  0  0  0  0  0
   48.1019   23.4038   38.4161 H   0  0  0  0  0  0  0  0  0  0  0  0
  2  3  2  0
  2  7  1  0
  3  4  1  0
  4  1  1  0
  4  5  2  0
  6  5  1  0
  7  6  2  0
  8  9  2  0
  8  2  1  0
 10  9  1  0
 11 12  1  0
 11 10  2  0
 12  8  1  0
 13 14  1  0
 13  1  1  0
 14 15  2  0
 15 16  1  0
 17 19  1  0
 17 16  2  0
 18 14  1  0
 18 17  1  0
 19 23  1  0
 20 21  2  0
 20 19  1  0
 21 22  1  0
 22 23  2  0
  1 24  1  0
  1 25  1  0
  3 26  1  0
  6 27  1  0
  9 28  1  0
 10 29  1  0
 11 30  1  0
 13 31  1  0
 13 32  1  0
 15 33  1  0
 16 34  1  0
 21 35  1  0
 22 36  1  0
 23 37  1  0
M  ISO  8  24   8  25   8  26  14  27  14  28  14  29  14  30  14  31   8
M  ISO  6  32   8  33  14  34  14  35  14  36  14  37  14
M  END
>  <minimizedAffinity>  (1) 
-5.10032988

>  <minimizedRMSD>  (1) 
1.01168191

$$$$
