
     RDKit          3D

 46 49  0  0  1  0  0  0  0  0999 V2000
   43.8880   24.0640   36.5820 C   0  0  0  0  0  0  0  0  0  0  0  0
   43.8800   25.0540   37.4740 C   0  0  0  0  0  0  0  0  0  0  0  0
   45.0240   25.5580   37.9580 C   0  0  0  0  0  0  0  0  0  0  0  0
   46.2420   24.9880   37.4770 C   0  0  0  0  0  0  0  0  0  0  0  0
   45.6220   23.6810   36.2850 S   0  0  0  0  0  0  0  0  0  0  0  0
   42.6850   23.3980   35.9520 C   0  0  0  0  0  0  0  0  0  0  0  0
   42.0070   22.4910   36.9580 C   0  0  0  0  0  0  0  0  0  0  0  0
   38.3740   22.2680   36.0480 C   0  0  0  0  0  0  0  0  0  0  0  0
   39.7560   22.1350   35.9930 C   0  0  0  0  0  0  0  0  0  0  0  0
   40.5480   22.6190   36.9950 C   0  0  0  0  0  0  0  0  0  0  0  0
   39.9440   23.2260   38.0320 N   0  0  0  0  0  0  0  0  0  0  0  0
   38.6010   23.3600   38.0950 C   0  0  0  0  0  0  0  0  0  0  0  0
   37.8000   22.8890   37.1160 N   0  0  0  0  0  0  0  0  0  0  0  0
   37.4460   21.7970   35.0510 C   0  0  0  0  0  0  0  0  0  0  0  0
   36.3200   21.0240   35.4190 C   0  0  0  0  0  0  0  0  0  0  0  0
   35.6250   20.7260   34.2420 C   0  0  0  0  0  0  0  0  0  0  0  0
   36.3550   21.3230   33.2570 C   0  0  0  0  0  0  0  0  0  0  0  0
   37.4210   21.9470   33.7620 O   0  0  0  0  0  0  0  0  0  0  0  0
   47.6480   25.2330   37.7460 C   0  0  1  0  0  0  0  0  0  0  0  0
   48.2250   24.2240   38.6960 C   0  0  0  0  0  0  0  0  0  0  0  0
   48.4950   25.3160   36.4540 C   0  0  0  0  0  0  0  0  0  0  0  0
   48.5570   26.6700   35.9880 N   0  0  0  0  0  0  0  0  0  0  0  0
   47.9330   27.2540   34.9770 N   0  0  0  0  0  0  0  0  0  0  0  0
   48.3210   28.5580   34.9360 C   0  0  0  0  0  0  0  0  0  0  0  0
   49.2260   28.7690   35.9790 C   0  0  0  0  0  0  0  0  0  0  0  0
   49.3470   27.5410   36.6220 C   0  0  0  0  0  0  0  0  0  0  0  0
   42.9193   25.4642   37.8187 H   0  0  0  0  0  0  0  0  0  0  0  0
   45.0246   26.3755   38.6940 H   0  0  0  0  0  0  0  0  0  0  0  0
   41.9742   24.1692   35.6202 H   0  0  0  0  0  0  0  0  0  0  0  0
   43.0148   22.7982   35.0909 H   0  0  0  0  0  0  0  0  0  0  0  0
   42.2556   21.4495   36.7058 H   0  0  0  0  0  0  0  0  0  0  0  0
   42.3755   22.7890   37.9507 H   0  0  0  0  0  0  0  0  0  0  0  0
   40.2187   21.6329   35.1305 H   0  0  0  0  0  0  0  0  0  0  0  0
   38.1506   23.8639   38.9629 H   0  0  0  0  0  0  0  0  0  0  0  0
   36.0432   20.7155   36.4379 H   0  0  0  0  0  0  0  0  0  0  0  0
   34.6989   20.1421   34.1352 H   0  0  0  0  0  0  0  0  0  0  0  0
   36.0990   21.2940   32.1876 H   0  0  0  0  0  0  0  0  0  0  0  0
   47.6934   26.2191   38.2314 H   0  0  0  0  0  0  0  0  0  0  0  0
   48.0401   24.5473   39.7310 H   0  0  0  0  0  0  0  0  0  0  0  0
   47.7492   23.2468   38.5265 H   0  0  0  0  0  0  0  0  0  0  0  0
   49.3085   24.1385   38.5265 H   0  0  0  0  0  0  0  0  0  0  0  0
   49.5134   24.9571   36.6637 H   0  0  0  0  0  0  0  0  0  0  0  0
   48.0283   24.6909   35.6785 H   0  0  0  0  0  0  0  0  0  0  0  0
   47.9820   29.3120   34.2103 H   0  0  0  0  0  0  0  0  0  0  0  0
   49.7359   29.7087   36.2377 H   0  0  0  0  0  0  0  0  0  0  0  0
   49.9797   27.3259   37.4957 H   0  0  0  0  0  0  0  0  0  0  0  0
  1  2  2  0
  2  3  1  0
  4 19  1  0
  4  3  2  0
  5  1  1  0
  5  4  1  0
  6  1  1  0
  6  7  1  0
  7 10  1  0
  8 13  1  0
  9  8  2  0
  9 10  1  0
 10 11  2  0
 11 12  1  0
 13 12  2  0
 14 15  2  0
 14  8  1  0
 16 15  1  0
 17 18  1  0
 17 16  2  0
 18 14  1  0
 19 20  1  0
 21 19  1  0
 22 21  1  0
 22 26  1  0
 23 22  1  0
 24 23  2  0
 24 25  1  0
 25 26  2  0
  2 27  1  0
  3 28  1  0
  6 29  1  0
  6 30  1  0
  7 31  1  0
  7 32  1  0
  9 33  1  0
 12 34  1  0
 15 35  1  0
 16 36  1  0
 17 37  1  0
 19 38  1  1
 20 39  1  0
 20 40  1  0
 20 41  1  0
 21 42  1  0
 21 43  1  0
 24 44  1  0
 25 45  1  0
 26 46  1  0
M  ISO  8  27  14  28  14  29   8  30   8  31   8  32   8  33  14  34  14
M  ISO  8  35  14  36  14  37  14  38   8  39   8  40   8  41   8  42   8
M  ISO  4  43   8  44  14  45  14  46  14
M  END
>  <minimizedAffinity>  (1) 
-5.10080814

>  <minimizedRMSD>  (1) 
2.75536919

$$$$
