
     RDKit          3D

 49 52  0  0  1  0  0  0  0  0999 V2000
   43.7290   23.6970   36.4600 C   0  0  0  0  0  0  0  0  0  0  0  0
   43.7780   24.8120   37.1860 C   0  0  0  0  0  0  0  0  0  0  0  0
   44.9480   25.3470   37.5910 C   0  0  0  0  0  0  0  0  0  0  0  0
   46.1410   24.6260   37.1840 C   0  0  0  0  0  0  0  0  0  0  0  0
   45.4340   23.1880   36.2150 S   0  0  0  0  0  0  0  0  0  0  0  0
   42.4850   23.0170   35.9550 C   0  0  0  0  0  0  0  0  0  0  0  0
   41.7220   22.3830   37.0830 C   0  0  0  0  0  0  0  0  0  0  0  0
   38.1570   22.2640   35.9220 C   0  0  0  0  0  0  0  0  0  0  0  0
   39.5360   22.0850   35.9490 C   0  0  0  0  0  0  0  0  0  0  0  0
   40.2710   22.5500   37.0130 C   0  0  0  0  0  0  0  0  0  0  0  0
   39.6110   23.1710   38.0070 N   0  0  0  0  0  0  0  0  0  0  0  0
   38.2740   23.3400   37.9740 C   0  0  0  0  0  0  0  0  0  0  0  0
   37.5310   22.8940   36.9390 N   0  0  0  0  0  0  0  0  0  0  0  0
   37.2970   21.8120   34.8480 C   0  0  0  0  0  0  0  0  0  0  0  0
   36.2060   20.9550   35.1210 C   0  0  0  0  0  0  0  0  0  0  0  0
   35.5570   20.6790   33.9320 C   0  0  0  0  0  0  0  0  0  0  0  0
   36.2840   21.3790   33.0070 C   0  0  0  0  0  0  0  0  0  0  0  0
   37.2940   22.0280   33.5880 O   0  0  0  0  0  0  0  0  0  0  0  0
   47.5530   24.8400   37.4130 C   0  0  1  0  0  0  0  0  0  0  0  0
   47.9510   26.2700   37.1830 C   0  0  0  0  0  0  0  0  0  0  0  0
   47.9970   24.3950   38.8300 C   0  0  0  0  0  0  0  0  0  0  0  0
   49.0790   23.4400   38.6600 N   0  0  0  0  0  0  0  0  0  0  0  0
   49.4720   22.8610   37.5110 C   0  0  0  0  0  0  0  0  0  0  0  0
   50.5320   21.9710   37.5530 C   0  0  0  0  0  0  0  0  0  0  0  0
   51.2060   21.6480   38.7180 C   0  0  0  0  0  0  0  0  0  0  0  0
   52.1610   20.8290   38.6770 O   0  0  0  0  0  0  0  0  0  0  0  0
   50.7710   22.2590   39.8510 N   0  0  0  0  0  0  0  0  0  0  0  0
   49.7470   23.1170   39.7970 C   0  0  0  0  0  0  0  0  0  0  0  0
   49.4300   23.6240   40.9150 O   0  0  0  0  0  0  0  0  0  0  0  0
   42.8377   25.3110   37.4633 H   0  0  0  0  0  0  0  0  0  0  0  0
   44.9954   26.2684   38.1899 H   0  0  0  0  0  0  0  0  0  0  0  0
   41.8436   23.7615   35.4606 H   0  0  0  0  0  0  0  0  0  0  0  0
   42.7796   22.2299   35.2453 H   0  0  0  0  0  0  0  0  0  0  0  0
   41.9427   21.3054   37.0821 H   0  0  0  0  0  0  0  0  0  0  0  0
   42.0480   22.8925   38.0018 H   0  0  0  0  0  0  0  0  0  0  0  0
   40.0392   21.5703   35.1172 H   0  0  0  0  0  0  0  0  0  0  0  0
   37.7768   23.8534   38.8102 H   0  0  0  0  0  0  0  0  0  0  0  0
   35.9216   20.5724   36.1123 H   0  0  0  0  0  0  0  0  0  0  0  0
   34.6703   20.0489   33.7686 H   0  0  0  0  0  0  0  0  0  0  0  0
   36.0646   21.4030   31.9294 H   0  0  0  0  0  0  0  0  0  0  0  0
   48.0720   24.2085   36.6769 H   0  0  0  0  0  0  0  0  0  0  0  0
   48.0907   26.7721   38.1517 H   0  0  0  0  0  0  0  0  0  0  0  0
   48.8921   26.3018   36.6144 H   0  0  0  0  0  0  0  0  0  0  0  0
   47.1616   26.7834   36.6144 H   0  0  0  0  0  0  0  0  0  0  0  0
   48.3482   25.2642   39.4054 H   0  0  0  0  0  0  0  0  0  0  0  0
   47.1580   23.9417   39.3782 H   0  0  0  0  0  0  0  0  0  0  0  0
   48.9642   23.0888   36.5622 H   0  0  0  0  0  0  0  0  0  0  0  0
   50.8544   21.4972   36.6140 H   0  0  0  0  0  0  0  0  0  0  0  0
   51.2301   22.0612   40.7515 H   0  0  0  0  0  0  0  0  0  0  0  0
  1  2  2  0
  2  3  1  0
  4 19  1  0
  4  3  2  0
  5  1  1  0
  5  4  1  0
  6  1  1  0
  6  7  1  0
  8  9  2  0
  8 13  1  0
  9 10  1  0
 10  7  1  0
 10 11  2  0
 12 11  1  0
 13 12  2  0
 14 15  2  0
 14  8  1  0
 16 15  1  0
 17 18  1  0
 17 16  2  0
 18 14  1  0
 19 21  1  0
 20 19  1  0
 22 21  1  0
 22 28  1  0
 23 24  2  0
 23 22  1  0
 24 25  1  0
 25 27  1  0
 26 25  2  0
 28 27  1  0
 28 29  2  0
  2 30  1  0
  3 31  1  0
  6 32  1  0
  6 33  1  0
  7 34  1  0
  7 35  1  0
  9 36  1  0
 12 37  1  0
 15 38  1  0
 16 39  1  0
 17 40  1  0
 19 41  1  6
 20 42  1  0
 20 43  1  0
 20 44  1  0
 21 45  1  0
 21 46  1  0
 23 47  1  0
 24 48  1  0
 27 49  1  0
M  ISO  8  30  14  31  14  32   8  33   8  34   8  35   8  36  14  37  14
M  ISO  8  38  14  39  14  40  14  41   8  42   8  43   8  44   8  45   8
M  ISO  4  46   8  47  14  48  14  49   9
M  END
>  <minimizedAffinity>  (1) 
-5.19252872

>  <minimizedRMSD>  (1) 
1.63926613

$$$$
