
     RDKit          3D

 46 49  0  0  1  0  0  0  0  0999 V2000
   42.1100   23.5250   35.5900 C   0  0  0  0  0  0  0  0  0  0  0  0
   43.4380   24.1470   35.9330 C   0  0  0  0  0  0  0  0  0  0  0  0
   43.9240   24.3250   37.1720 C   0  0  0  0  0  0  0  0  0  0  0  0
   45.1250   24.8820   37.3590 C   0  0  0  0  0  0  0  0  0  0  0  0
   45.8580   25.2760   36.1980 C   0  0  0  0  0  0  0  0  0  0  0  0
   44.6970   24.7870   34.8120 S   0  0  0  0  0  0  0  0  0  0  0  0
   47.1570   25.8870   35.9810 C   0  0  1  0  0  0  0  0  0  0  0  0
   47.0750   27.0600   35.0480 C   0  0  0  0  0  0  0  0  0  0  0  0
   47.8480   26.3130   37.2940 C   0  0  0  0  0  0  0  0  0  0  0  0
   48.8320   25.3050   37.7450 C   0  0  0  0  0  0  0  0  0  0  0  0
   50.1660   25.0720   37.4880 C   0  0  0  0  0  0  0  0  0  0  0  0
   50.5970   23.9990   38.1670 N   0  0  0  0  0  0  0  0  0  0  0  0
   49.5430   23.5160   38.8810 C   0  0  0  0  0  0  0  0  0  0  0  0
   48.4920   24.3110   38.6150 N   0  0  0  0  0  0  0  0  0  0  0  0
   41.4970   22.8860   36.8270 C   0  0  0  0  0  0  0  0  0  0  0  0
   37.9600   22.2470   35.7530 C   0  0  0  0  0  0  0  0  0  0  0  0
   39.3480   22.2890   35.7450 C   0  0  0  0  0  0  0  0  0  0  0  0
   40.0360   22.8240   36.8000 C   0  0  0  0  0  0  0  0  0  0  0  0
   39.3190   23.3060   37.8430 N   0  0  0  0  0  0  0  0  0  0  0  0
   37.9720   23.2650   37.8520 C   0  0  0  0  0  0  0  0  0  0  0  0
   37.2700   22.7440   36.8260 N   0  0  0  0  0  0  0  0  0  0  0  0
   37.1440   21.7070   34.6950 C   0  0  0  0  0  0  0  0  0  0  0  0
   36.0430   20.8670   35.0000 C   0  0  0  0  0  0  0  0  0  0  0  0
   35.4530   20.5060   33.7920 C   0  0  0  0  0  0  0  0  0  0  0  0
   36.2060   21.1260   32.8550 C   0  0  0  0  0  0  0  0  0  0  0  0
   37.1920   21.8250   33.4230 O   0  0  0  0  0  0  0  0  0  0  0  0
   41.4319   24.3024   35.2081 H   0  0  0  0  0  0  0  0  0  0  0  0
   42.2621   22.7514   34.8230 H   0  0  0  0  0  0  0  0  0  0  0  0
   43.3284   24.0096   38.0414 H   0  0  0  0  0  0  0  0  0  0  0  0
   45.5335   25.0313   38.3694 H   0  0  0  0  0  0  0  0  0  0  0  0
   47.7740   25.1042   35.5156 H   0  0  0  0  0  0  0  0  0  0  0  0
   47.0100   27.9896   35.6325 H   0  0  0  0  0  0  0  0  0  0  0  0
   47.9734   27.0876   34.4139 H   0  0  0  0  0  0  0  0  0  0  0  0
   46.1815   26.9624   34.4139 H   0  0  0  0  0  0  0  0  0  0  0  0
   48.3664   27.2692   37.1303 H   0  0  0  0  0  0  0  0  0  0  0  0
   47.0764   26.4117   38.0718 H   0  0  0  0  0  0  0  0  0  0  0  0
   50.7905   25.6818   36.8186 H   0  0  0  0  0  0  0  0  0  0  0  0
   49.5501   22.6417   39.5485 H   0  0  0  0  0  0  0  0  0  0  0  0
   47.5517   24.1857   39.0163 H   0  0  0  0  0  0  0  0  0  0  0  0
   41.8855   21.8607   36.9158 H   0  0  0  0  0  0  0  0  0  0  0  0
   41.7739   23.5183   37.6834 H   0  0  0  0  0  0  0  0  0  0  0  0
   39.8999   21.8882   34.8820 H   0  0  0  0  0  0  0  0  0  0  0  0
   37.4305   23.6678   38.7206 H   0  0  0  0  0  0  0  0  0  0  0  0
   35.7161   20.5583   36.0039 H   0  0  0  0  0  0  0  0  0  0  0  0
   34.5744   19.8629   33.6352 H   0  0  0  0  0  0  0  0  0  0  0  0
   36.0299   21.0630   31.7710 H   0  0  0  0  0  0  0  0  0  0  0  0
  1  2  1  0
  1 15  1  0
  2  3  2  0
  3  4  1  0
  5  4  2  0
  6  2  1  0
  6  5  1  0
  7  5  1  0
  7  9  1  0
  8  7  1  0
  9 10  1  0
 10 14  1  0
 11 10  2  0
 11 12  1  0
 12 13  2  0
 14 13  1  0
 16 21  1  0
 17 16  2  0
 17 18  1  0
 18 15  1  0
 18 19  2  0
 19 20  1  0
 21 20  2  0
 22 23  2  0
 22 16  1  0
 24 23  1  0
 25 26  1  0
 25 24  2  0
 26 22  1  0
  1 27  1  0
  1 28  1  0
  3 29  1  0
  4 30  1  0
  7 31  1  6
  8 32  1  0
  8 33  1  0
  8 34  1  0
  9 35  1  0
  9 36  1  0
 11 37  1  0
 13 38  1  0
 14 39  1  0
 15 40  1  0
 15 41  1  0
 17 42  1  0
 20 43  1  0
 23 44  1  0
 24 45  1  0
 25 46  1  0
M  ISO  8  27   8  28   8  29  14  30  14  31   8  32   8  33   8  34   8
M  ISO  8  35   8  36   8  37  14  38  14  39   9  40   8  41   8  42  14
M  ISO  4  43  14  44  14  45  14  46  14
M  END
>  <minimizedAffinity>  (1) 
-4.96138382

>  <minimizedRMSD>  (1) 
2.09992623

$$$$
