
     RDKit          3D

 29 31  0  0  1  0  0  0  0  0999 V2000
   38.0630   23.1890   34.7120 C   0  0  0  0  0  0  0  0  0  0  0  0
   37.5200   22.1230   34.0290 C   0  0  0  0  0  0  0  0  0  0  0  0
   37.4010   22.5080   32.7370 N   0  0  0  0  0  0  0  0  0  0  0  0
   37.8550   23.7840   32.6050 C   0  0  0  0  0  0  0  0  0  0  0  0
   38.2520   24.1740   33.8210 N   0  0  0  0  0  0  0  0  0  0  0  0
   37.7980   23.6790   38.3510 C   0  0  0  0  0  0  0  0  0  0  0  0
   39.0520   23.2450   38.7960 C   0  0  0  0  0  0  0  0  0  0  0  0
   39.9600   22.7940   37.8530 C   0  0  0  0  0  0  0  0  0  0  0  0
   39.6070   22.7890   36.5320 N   0  0  0  0  0  0  0  0  0  0  0  0
   38.3720   23.2230   36.1460 C   0  0  0  0  0  0  0  0  0  0  0  0
   37.4930   23.6570   37.0410 N   0  0  0  0  0  0  0  0  0  0  0  0
   40.1910   25.3660   34.6070 N   0  0  0  0  0  0  0  0  0  0  0  0
   40.7030   26.7080   34.5060 C   0  0  0  0  0  0  0  0  0  0  0  0
   40.1790   27.1690   33.1620 C   0  0  0  0  0  0  0  0  0  0  0  0
   38.8270   26.4720   33.1050 C   0  0  0  0  0  0  0  0  0  0  0  0
   38.8120   25.4550   34.1970 C   0  0  1  0  0  0  0  0  0  0  0  0
   37.2377   21.1476   34.4519 H   0  0  0  0  0  0  0  0  0  0  0  0
   37.8888   24.3780   31.6798 H   0  0  0  0  0  0  0  0  0  0  0  0
   37.0561   24.0409   39.0781 H   0  0  0  0  0  0  0  0  0  0  0  0
   39.3091   23.2617   39.8654 H   0  0  0  0  0  0  0  0  0  0  0  0
   40.9553   22.4433   38.1634 H   0  0  0  0  0  0  0  0  0  0  0  0
   40.7127   24.7327   33.9843 H   0  0  0  0  0  0  0  0  0  0  0  0
   40.3180   27.3408   35.3192 H   0  0  0  0  0  0  0  0  0  0  0  0
   41.7986   26.7625   34.5873 H   0  0  0  0  0  0  0  0  0  0  0  0
   40.0684   28.2629   33.1281 H   0  0  0  0  0  0  0  0  0  0  0  0
   40.8418   26.9296   32.3173 H   0  0  0  0  0  0  0  0  0  0  0  0
   38.0190   27.2025   33.2584 H   0  0  0  0  0  0  0  0  0  0  0  0
   38.6721   25.9970   32.1250 H   0  0  0  0  0  0  0  0  0  0  0  0
   38.1420   25.7613   35.0139 H   0  0  0  0  0  0  0  0  0  0  0  0
  1 10  1  0
  2  1  2  0
  3  2  1  0
  4  3  2  0
  4  5  1  0
  5 16  1  0
  5  1  1  0
  6  7  2  0
  8  7  1  0
  9  8  2  0
 10  9  1  0
 10 11  2  0
 11  6  1  0
 13 12  1  0
 14 13  1  0
 15 14  1  0
 16 15  1  0
 16 12  1  0
  2 17  1  0
  4 18  1  0
  6 19  1  0
  7 20  1  0
  8 21  1  0
 12 22  1  0
 13 23  1  0
 13 24  1  0
 14 25  1  0
 14 26  1  0
 15 27  1  0
 15 28  1  0
 16 29  1  1
M  ISO  8  17  14  18  14  19  14  20  14  21  14  22   5  23  13  24  13
M  ISO  5  25  13  26  13  27  13  28  13  29  13
M  END
>  <minimizedAffinity>  (1) 
-4.14728069

>  <minimizedRMSD>  (1) 
4.26516199

$$$$
