
     RDKit          3D

 37 41  0  0  0  0  0  0  0  0999 V2000
   40.6010   23.9390   35.4290 C   0  0  0  0  0  0  0  0  0  0  0  0
   40.7500   23.0420   34.4090 C   0  0  0  0  0  0  0  0  0  0  0  0
   42.3250   23.6250   33.6710 S   0  0  0  0  0  0  0  0  0  0  0  0
   42.4800   25.0200   34.9350 C   0  0  0  0  0  0  0  0  0  0  0  0
   41.5540   24.8150   35.5050 N   0  0  0  0  0  0  0  0  0  0  0  0
   43.7280   25.8760   34.7440 C   0  0  0  0  0  0  0  0  0  0  0  0
   43.8620   26.7610   33.7680 N   0  0  0  0  0  0  0  0  0  0  0  0
   44.9610   27.5160   33.5990 C   0  0  0  0  0  0  0  0  0  0  0  0
   45.9630   27.3520   34.4680 N   0  0  0  0  0  0  0  0  0  0  0  0
   45.9210   26.4700   35.5000 C   0  0  0  0  0  0  0  0  0  0  0  0
   46.9430   26.3000   36.3910 C   0  0  0  0  0  0  0  0  0  0  0  0
   46.8550   25.3780   37.4400 C   0  0  0  0  0  0  0  0  0  0  0  0
   45.6620   24.6520   37.5140 C   0  0  0  0  0  0  0  0  0  0  0  0
   44.6350   24.8280   36.6120 C   0  0  0  0  0  0  0  0  0  0  0  0
   44.7590   25.7330   35.6060 C   0  0  0  0  0  0  0  0  0  0  0  0
   38.2730   24.4520   36.1970 C   0  0  0  0  0  0  0  0  0  0  0  0
   37.5390   23.9920   37.2500 C   0  0  0  0  0  0  0  0  0  0  0  0
   38.2790   23.1100   37.9470 N   0  0  0  0  0  0  0  0  0  0  0  0
   39.4840   23.0010   37.3460 C   0  0  0  0  0  0  0  0  0  0  0  0
   39.4530   23.8310   36.2810 N   0  0  0  0  0  0  0  0  0  0  0  0
   37.3490   25.9210   32.9550 C   0  0  0  0  0  0  0  0  0  0  0  0
   37.1270   27.2510   33.2940 C   0  0  0  0  0  0  0  0  0  0  0  0
   37.2920   27.6460   34.6280 C   0  0  0  0  0  0  0  0  0  0  0  0
   37.6680   26.6990   35.5470 N   0  0  0  0  0  0  0  0  0  0  0  0
   37.8780   25.4110   35.1890 C   0  0  0  0  0  0  0  0  0  0  0  0
   37.7190   25.0250   33.9000 N   0  0  0  0  0  0  0  0  0  0  0  0
   40.1041   22.2024   34.1124 H   0  0  0  0  0  0  0  0  0  0  0  0
   45.0331   28.2421   32.7758 H   0  0  0  0  0  0  0  0  0  0  0  0
   47.8568   26.9024   36.2810 H   0  0  0  0  0  0  0  0  0  0  0  0
   47.6729   25.2334   38.1612 H   0  0  0  0  0  0  0  0  0  0  0  0
   45.5390   23.9144   38.3207 H   0  0  0  0  0  0  0  0  0  0  0  0
   43.7134   24.2349   36.7066 H   0  0  0  0  0  0  0  0  0  0  0  0
   36.5088   24.2931   37.4908 H   0  0  0  0  0  0  0  0  0  0  0  0
   40.3231   22.3634   37.6612 H   0  0  0  0  0  0  0  0  0  0  0  0
   37.2232   25.5946   31.9121 H   0  0  0  0  0  0  0  0  0  0  0  0
   36.8269   27.9808   32.5277 H   0  0  0  0  0  0  0  0  0  0  0  0
   37.1242   28.6900   34.9313 H   0  0  0  0  0  0  0  0  0  0  0  0
  1  5  1  0
  1 20  1  0
  2  1  2  0
  3  2  1  0
  3  4  1  0
  4  5  2  0
  6  4  1  0
  6 15  1  0
  7  6  2  0
  8  7  1  0
  8  9  2  0
  9 10  1  0
 10 15  2  0
 10 11  1  0
 11 12  2  0
 12 13  1  0
 14 13  2  0
 15 14  1  0
 16 20  1  0
 16 17  2  0
 17 18  1  0
 19 18  2  0
 20 19  1  0
 21 22  2  0
 21 26  1  0
 22 23  1  0
 23 24  2  0
 25 24  1  0
 25 16  1  0
 26 25  2  0
  2 27  1  0
  8 28  1  0
 11 29  1  0
 12 30  1  0
 13 31  1  0
 14 32  1  0
 17 33  1  0
 19 34  1  0
 21 35  1  0
 22 36  1  0
 23 37  1  0
M  ISO  8  27  14  28  14  29  14  30  14  31  14  32  14  33  14  34  14
M  ISO  3  35  14  36  14  37  14
M  END
>  <minimizedAffinity>  (1) 
-5.52673578

>  <minimizedRMSD>  (1) 
1.63684309

$$$$
