
     RDKit          3D

 35 38  0  0  0  0  0  0  0  0999 V2000
   38.5220   24.4750   36.8070 C   0  0  0  0  0  0  0  0  0  0  0  0
   37.9190   24.1850   37.9980 C   0  0  0  0  0  0  0  0  0  0  0  0
   38.5980   23.1930   38.5980 N   0  0  0  0  0  0  0  0  0  0  0  0
   39.6390   22.8400   37.7980 C   0  0  0  0  0  0  0  0  0  0  0  0
   39.5650   23.6310   36.7270 N   0  0  0  0  0  0  0  0  0  0  0  0
   40.5310   23.5150   35.6730 C   0  0  0  0  0  0  0  0  0  0  0  0
   40.6040   22.3270   34.9890 C   0  0  0  0  0  0  0  0  0  0  0  0
   41.9510   22.6880   33.7890 S   0  0  0  0  0  0  0  0  0  0  0  0
   42.1550   24.4480   34.4810 C   0  0  0  0  0  0  0  0  0  0  0  0
   41.3730   24.4260   35.2750 N   0  0  0  0  0  0  0  0  0  0  0  0
   43.1120   25.3630   33.9660 N   0  0  0  0  0  0  0  0  0  0  0  0
   44.3640   24.9440   33.3850 C   0  0  0  0  0  0  0  0  0  0  0  0
   45.2080   26.1930   33.2500 C   0  0  0  0  0  0  0  0  0  0  0  0
   44.5130   27.1490   34.1870 C   0  0  0  0  0  0  0  0  0  0  0  0
   43.0610   26.8120   33.9070 C   0  0  0  0  0  0  0  0  0  0  0  0
   37.3440   26.0400   33.7010 C   0  0  0  0  0  0  0  0  0  0  0  0
   37.3870   27.3950   34.0340 C   0  0  0  0  0  0  0  0  0  0  0  0
   37.8110   27.7590   35.3000 C   0  0  0  0  0  0  0  0  0  0  0  0
   38.1740   26.7720   36.1750 N   0  0  0  0  0  0  0  0  0  0  0  0
   38.1270   25.4720   35.8390 C   0  0  0  0  0  0  0  0  0  0  0  0
   37.7130   25.1000   34.6030 N   0  0  0  0  0  0  0  0  0  0  0  0
   37.0240   24.6823   38.4000 H   0  0  0  0  0  0  0  0  0  0  0  0
   40.3897   22.0603   37.9943 H   0  0  0  0  0  0  0  0  0  0  0  0
   40.0157   21.4072   35.1224 H   0  0  0  0  0  0  0  0  0  0  0  0
   44.8635   24.2157   34.0408 H   0  0  0  0  0  0  0  0  0  0  0  0
   44.2099   24.4580   32.4103 H   0  0  0  0  0  0  0  0  0  0  0  0
   46.2458   26.0092   33.5650 H   0  0  0  0  0  0  0  0  0  0  0  0
   45.2857   26.5643   32.2175 H   0  0  0  0  0  0  0  0  0  0  0  0
   44.7793   26.9536   35.2362 H   0  0  0  0  0  0  0  0  0  0  0  0
   44.7734   28.2069   34.0355 H   0  0  0  0  0  0  0  0  0  0  0  0
   42.7452   27.1676   32.9151 H   0  0  0  0  0  0  0  0  0  0  0  0
   42.3407   27.2747   34.5977 H   0  0  0  0  0  0  0  0  0  0  0  0
   37.0081   25.7339   32.6992 H   0  0  0  0  0  0  0  0  0  0  0  0
   37.0889   28.1604   33.3024 H   0  0  0  0  0  0  0  0  0  0  0  0
   37.8551   28.8175   35.5959 H   0  0  0  0  0  0  0  0  0  0  0  0
  1  2  2  0
  2  3  1  0
  4  3  2  0
  5  1  1  0
  5  4  1  0
  6  5  1  0
  7  6  2  0
  8  9  1  0
  8  7  1  0
  9 10  2  0
 10  6  1  0
 11  9  1  0
 12 11  1  0
 13 12  1  0
 13 14  1  0
 15 11  1  0
 15 14  1  0
 16 17  2  0
 16 21  1  0
 17 18  1  0
 18 19  2  0
 20 19  1  0
 20  1  1  0
 21 20  2  0
  2 22  1  0
  4 23  1  0
  7 24  1  0
 12 25  1  0
 12 26  1  0
 13 27  1  0
 13 28  1  0
 14 29  1  0
 14 30  1  0
 15 31  1  0
 15 32  1  0
 16 33  1  0
 17 34  1  0
 18 35  1  0
M  ISO  8  22  14  23  14  24  14  25  13  26  13  27  13  28  13  29  13
M  ISO  6  30  13  31  13  32  13  33  14  34  14  35  14
M  END
>  <minimizedAffinity>  (1) 
-4.67102861

>  <minimizedRMSD>  (1) 
1.72890735

$$$$
