
     RDKit          3D

 36 39  0  0  0  0  0  0  0  0999 V2000
   38.5030   24.3580   36.7680 C   0  0  0  0  0  0  0  0  0  0  0  0
   37.7750   23.9670   37.8600 C   0  0  0  0  0  0  0  0  0  0  0  0
   38.4460   22.9880   38.4920 N   0  0  0  0  0  0  0  0  0  0  0  0
   39.5960   22.7480   37.8190 C   0  0  0  0  0  0  0  0  0  0  0  0
   39.6060   23.5950   36.7750 N   0  0  0  0  0  0  0  0  0  0  0  0
   37.4070   26.0170   33.6790 C   0  0  0  0  0  0  0  0  0  0  0  0
   37.5600   27.3650   34.0030 C   0  0  0  0  0  0  0  0  0  0  0  0
   38.0330   27.6910   35.2630 C   0  0  0  0  0  0  0  0  0  0  0  0
   38.3270   26.6870   36.1300 N   0  0  0  0  0  0  0  0  0  0  0  0
   38.1690   25.3860   35.7930 C   0  0  0  0  0  0  0  0  0  0  0  0
   37.7140   25.0510   34.5800 N   0  0  0  0  0  0  0  0  0  0  0  0
   40.7000   23.5910   35.8600 C   0  0  0  0  0  0  0  0  0  0  0  0
   40.4920   23.1320   34.5730 C   0  0  0  0  0  0  0  0  0  0  0  0
   42.1460   23.3270   33.8270 S   0  0  0  0  0  0  0  0  0  0  0  0
   42.8480   24.0230   35.4580 C   0  0  0  0  0  0  0  0  0  0  0  0
   41.9190   23.9840   36.1030 N   0  0  0  0  0  0  0  0  0  0  0  0
   44.2680   24.4710   35.7080 C   0  0  0  0  0  0  0  0  0  0  0  0
   45.1790   23.2630   35.7370 C   0  0  0  0  0  0  0  0  0  0  0  0
   46.3280   23.7400   36.5810 C   0  0  0  0  0  0  0  0  0  0  0  0
   45.8070   24.8510   37.4500 C   0  0  0  0  0  0  0  0  0  0  0  0
   44.4290   25.2120   36.9930 C   0  0  0  0  0  0  0  0  0  0  0  0
   36.8047   24.3836   38.1682 H   0  0  0  0  0  0  0  0  0  0  0  0
   40.3681   22.0077   38.0753 H   0  0  0  0  0  0  0  0  0  0  0  0
   37.0339   25.7348   32.6834 H   0  0  0  0  0  0  0  0  0  0  0  0
   37.3108   28.1508   33.2747 H   0  0  0  0  0  0  0  0  0  0  0  0
   38.1681   28.7425   35.5563 H   0  0  0  0  0  0  0  0  0  0  0  0
   39.5679   22.7482   34.1162 H   0  0  0  0  0  0  0  0  0  0  0  0
   44.5321   25.1564   34.8892 H   0  0  0  0  0  0  0  0  0  0  0  0
   44.6786   22.3991   36.1989 H   0  0  0  0  0  0  0  0  0  0  0  0
   45.4831   22.9198   34.7371 H   0  0  0  0  0  0  0  0  0  0  0  0
   46.7042   22.9168   37.2061 H   0  0  0  0  0  0  0  0  0  0  0  0
   47.1573   24.0925   35.9501 H   0  0  0  0  0  0  0  0  0  0  0  0
   45.7738   24.5170   38.4975 H   0  0  0  0  0  0  0  0  0  0  0  0
   46.4681   25.7269   37.3747 H   0  0  0  0  0  0  0  0  0  0  0  0
   44.3422   26.2967   36.8322 H   0  0  0  0  0  0  0  0  0  0  0  0
   43.6566   24.9510   37.7314 H   0  0  0  0  0  0  0  0  0  0  0  0
  1  5  1  0
  1  2  2  0
  2  3  1  0
  4  3  2  0
  5  4  1  0
  6  7  2  0
  6 11  1  0
  7  8  1  0
  8  9  2  0
 10  9  1  0
 10  1  1  0
 11 10  2  0
 12 16  1  0
 12  5  1  0
 13 12  2  0
 14 13  1  0
 14 15  1  0
 15 17  1  0
 15 16  2  0
 17 18  1  0
 17 21  1  0
 18 19  1  0
 19 20  1  0
 21 20  1  0
  2 22  1  0
  4 23  1  0
  6 24  1  0
  7 25  1  0
  8 26  1  0
 13 27  1  0
 17 28  1  0
 18 29  1  0
 18 30  1  0
 19 31  1  0
 19 32  1  0
 20 33  1  0
 20 34  1  0
 21 35  1  0
 21 36  1  0
M  ISO  8  22  14  23  14  24  14  25  14  26  14  27  14  28  13  29  13
M  ISO  7  30  13  31  13  32  13  33  13  34  13  35  13  36  13
M  END
>  <minimizedAffinity>  (1) 
-4.8425498

>  <minimizedRMSD>  (1) 
2.79017138

$$$$
