
     RDKit          3D

 30 33  0  0  0  0  0  0  0  0999 V2000
   38.2330   24.4950   36.0600 C   0  0  0  0  0  0  0  0  0  0  0  0
   37.5220   23.9790   37.1030 C   0  0  0  0  0  0  0  0  0  0  0  0
   38.2920   23.0910   37.7560 N   0  0  0  0  0  0  0  0  0  0  0  0
   39.4950   23.0310   37.1410 C   0  0  0  0  0  0  0  0  0  0  0  0
   39.4390   23.8930   36.1130 N   0  0  0  0  0  0  0  0  0  0  0  0
   37.2260   26.0530   32.8950 C   0  0  0  0  0  0  0  0  0  0  0  0
   36.9900   27.3730   33.2930 C   0  0  0  0  0  0  0  0  0  0  0  0
   37.1760   27.7170   34.6330 C   0  0  0  0  0  0  0  0  0  0  0  0
   37.5800   26.7470   35.4930 N   0  0  0  0  0  0  0  0  0  0  0  0
   37.8050   25.4780   35.0950 C   0  0  0  0  0  0  0  0  0  0  0  0
   37.6280   25.1350   33.8030 N   0  0  0  0  0  0  0  0  0  0  0  0
   40.5630   24.0680   35.2530 C   0  0  0  0  0  0  0  0  0  0  0  0
   40.7320   23.1600   34.2200 C   0  0  0  0  0  0  0  0  0  0  0  0
   42.2630   23.8070   33.4440 S   0  0  0  0  0  0  0  0  0  0  0  0
   42.3790   25.2190   34.7020 C   0  0  0  0  0  0  0  0  0  0  0  0
   41.4740   24.9990   35.3190 N   0  0  0  0  0  0  0  0  0  0  0  0
   43.5240   26.1360   34.5400 C   0  0  0  0  0  0  0  0  0  0  0  0
   44.7720   26.1170   35.1240 C   0  0  0  0  0  0  0  0  0  0  0  0
   45.3750   27.2280   34.5690 C   0  0  0  0  0  0  0  0  0  0  0  0
   44.5250   27.8610   33.7080 N   0  0  0  0  0  0  0  0  0  0  0  0
   43.3800   27.1570   33.7100 N   0  0  0  0  0  0  0  0  0  0  0  0
   36.4879   24.2456   37.3669 H   0  0  0  0  0  0  0  0  0  0  0  0
   40.3501   22.4007   37.4265 H   0  0  0  0  0  0  0  0  0  0  0  0
   37.0846   25.7617   31.8437 H   0  0  0  0  0  0  0  0  0  0  0  0
   36.6633   28.1274   32.5622 H   0  0  0  0  0  0  0  0  0  0  0  0
   37.0002   28.7451   34.9825 H   0  0  0  0  0  0  0  0  0  0  0  0
   40.1176   22.2910   33.9420 H   0  0  0  0  0  0  0  0  0  0  0  0
   45.1834   25.3988   35.8486 H   0  0  0  0  0  0  0  0  0  0  0  0
   46.4006   27.5583   34.7903 H   0  0  0  0  0  0  0  0  0  0  0  0
   44.7228   28.7123   33.1630 H   0  0  0  0  0  0  0  0  0  0  0  0
  1  5  1  0
  1  2  2  0
  2  3  1  0
  4  3  2  0
  5  4  1  0
  6  7  2  0
  6 11  1  0
  7  8  1  0
  8  9  2  0
 10  9  1  0
 10  1  1  0
 11 10  2  0
 12 16  1  0
 12  5  1  0
 13 12  2  0
 14 13  1  0
 14 15  1  0
 15 16  2  0
 17 15  1  0
 17 18  1  0
 19 18  2  0
 20 21  1  0
 20 19  1  0
 21 17  2  0
  2 22  1  0
  4 23  1  0
  6 24  1  0
  7 25  1  0
  8 26  1  0
 13 27  1  0
 18 28  1  0
 19 29  1  0
 20 30  1  0
M  ISO  8  22  14  23  14  24  14  25  14  26  14  27  14  28  14  29  14
M  ISO  1  30   9
M  END
>  <minimizedAffinity>  (1) 
-4.52568769

>  <minimizedRMSD>  (1) 
1.04528093

$$$$
