
     RDKit          3D

 30 33  0  0  0  0  0  0  0  0999 V2000
   38.4780   24.3710   36.8410 C   0  0  0  0  0  0  0  0  0  0  0  0
   37.7770   24.0860   37.9850 C   0  0  0  0  0  0  0  0  0  0  0  0
   38.4010   23.0770   38.6300 N   0  0  0  0  0  0  0  0  0  0  0  0
   39.4890   22.7190   37.9120 C   0  0  0  0  0  0  0  0  0  0  0  0
   39.5110   23.5130   36.8410 N   0  0  0  0  0  0  0  0  0  0  0  0
   37.4570   25.9610   33.7020 C   0  0  0  0  0  0  0  0  0  0  0  0
   37.6090   27.3140   33.9970 C   0  0  0  0  0  0  0  0  0  0  0  0
   38.0600   27.6710   35.2690 C   0  0  0  0  0  0  0  0  0  0  0  0
   38.3340   26.6840   36.1730 N   0  0  0  0  0  0  0  0  0  0  0  0
   38.1730   25.3780   35.8480 C   0  0  0  0  0  0  0  0  0  0  0  0
   37.7420   25.0200   34.6330 N   0  0  0  0  0  0  0  0  0  0  0  0
   40.5550   23.3870   35.8660 C   0  0  0  0  0  0  0  0  0  0  0  0
   40.2930   22.6440   34.7300 C   0  0  0  0  0  0  0  0  0  0  0  0
   41.8880   22.7850   33.8330 S   0  0  0  0  0  0  0  0  0  0  0  0
   42.6300   23.8640   35.2200 C   0  0  0  0  0  0  0  0  0  0  0  0
   41.7500   23.9040   35.9270 N   0  0  0  0  0  0  0  0  0  0  0  0
   44.0370   24.5080   35.3560 C   0  0  0  0  0  0  0  0  0  0  0  0
   44.3230   25.2300   36.6140 C   0  0  0  0  0  0  0  0  0  0  0  0
   44.8810   23.8370   36.3720 C   0  0  0  0  0  0  0  0  0  0  0  0
   36.8608   24.5939   38.3205 H   0  0  0  0  0  0  0  0  0  0  0  0
   40.2127   21.9292   38.1618 H   0  0  0  0  0  0  0  0  0  0  0  0
   37.1032   25.6552   32.7064 H   0  0  0  0  0  0  0  0  0  0  0  0
   37.3790   28.0832   33.2451 H   0  0  0  0  0  0  0  0  0  0  0  0
   38.1925   28.7291   35.5389 H   0  0  0  0  0  0  0  0  0  0  0  0
   39.3750   22.1113   34.4412 H   0  0  0  0  0  0  0  0  0  0  0  0
   44.1413   24.7852   34.2966 H   0  0  0  0  0  0  0  0  0  0  0  0
   44.9937   26.1019   36.6101 H   0  0  0  0  0  0  0  0  0  0  0  0
   43.7161   25.7043   37.3993 H   0  0  0  0  0  0  0  0  0  0  0  0
   44.4887   22.9786   36.9370 H   0  0  0  0  0  0  0  0  0  0  0  0
   45.8821   23.3812   36.3820 H   0  0  0  0  0  0  0  0  0  0  0  0
  1  2  2  0
  2  3  1  0
  4  3  2  0
  5  1  1  0
  5  4  1  0
  6  7  2  0
  6 11  1  0
  7  8  1  0
  8  9  2  0
 10  9  1  0
 10  1  1  0
 11 10  2  0
 12 16  1  0
 12  5  1  0
 13 12  2  0
 14 13  1  0
 14 15  1  0
 15 17  1  0
 15 16  2  0
 17 19  1  0
 17 18  1  0
 19 18  1  0
  2 20  1  0
  4 21  1  0
  6 22  1  0
  7 23  1  0
  8 24  1  0
 13 25  1  0
 17 26  1  0
 18 27  1  0
 18 28  1  0
 19 29  1  0
 19 30  1  0
M  ISO  8  20  14  21  14  22  14  23  14  24  14  25  14  26  13  27  13
M  ISO  3  28  13  29  13  30  13
M  END
>  <minimizedAffinity>  (1) 
-4.41223001

>  <minimizedRMSD>  (1) 
2.18578291

$$$$
