
     RDKit          3D

 26 28  0  0  0  0  0  0  0  0999 V2000
   38.6320   24.3420   36.4250 C   0  0  0  0  0  0  0  0  0  0  0  0
   37.6400   24.3220   37.3530 C   0  0  0  0  0  0  0  0  0  0  0  0
   37.9650   23.4150   38.3020 N   0  0  0  0  0  0  0  0  0  0  0  0
   39.1590   22.8590   37.9810 C   0  0  0  0  0  0  0  0  0  0  0  0
   39.5360   23.4430   36.8370 N   0  0  0  0  0  0  0  0  0  0  0  0
   38.0920   25.5800   33.0090 C   0  0  0  0  0  0  0  0  0  0  0  0
   38.8660   26.7440   32.9900 C   0  0  0  0  0  0  0  0  0  0  0  0
   39.5600   27.0850   34.1430 C   0  0  0  0  0  0  0  0  0  0  0  0
   39.4510   26.2730   35.2300 N   0  0  0  0  0  0  0  0  0  0  0  0
   38.7040   25.1600   35.2370 C   0  0  0  0  0  0  0  0  0  0  0  0
   38.0260   24.8190   34.1230 N   0  0  0  0  0  0  0  0  0  0  0  0
   40.7760   23.0780   36.2180 C   0  0  0  0  0  0  0  0  0  0  0  0
   40.7370   22.1530   35.1900 C   0  0  0  0  0  0  0  0  0  0  0  0
   42.5050   22.0220   34.7400 S   0  0  0  0  0  0  0  0  0  0  0  0
   42.9880   23.2960   36.0810 C   0  0  0  0  0  0  0  0  0  0  0  0
   41.9670   23.5190   36.5060 N   0  0  0  0  0  0  0  0  0  0  0  0
   44.3990   23.7090   36.3020 C   0  0  0  0  0  0  0  0  0  0  0  0
   44.4520   24.3940   37.4960 F   0  0  0  0  0  0  0  0  0  0  0  0
   44.7460   24.6250   35.3080 F   0  0  0  0  0  0  0  0  0  0  0  0
   45.2490   22.6240   36.3010 F   0  0  0  0  0  0  0  0  0  0  0  0
   36.7288   24.9379   37.3355 H   0  0  0  0  0  0  0  0  0  0  0  0
   39.7050   22.0877   38.5440 H   0  0  0  0  0  0  0  0  0  0  0  0
   37.5326   25.2816   32.1101 H   0  0  0  0  0  0  0  0  0  0  0  0
   38.9234   27.3712   32.0881 H   0  0  0  0  0  0  0  0  0  0  0  0
   40.1836   27.9905   34.1774 H   0  0  0  0  0  0  0  0  0  0  0  0
   39.8700   21.6327   34.7568 H   0  0  0  0  0  0  0  0  0  0  0  0
  1  5  1  0
  1  2  2  0
  2  3  1  0
  4  3  2  0
  5  4  1  0
  6 11  2  0
  7  6  1  0
  7  8  2  0
  8  9  1  0
  9 10  2  0
 10  1  1  0
 11 10  1  0
 12 16  1  0
 12  5  1  0
 13 12  2  0
 14 13  1  0
 14 15  1  0
 15 17  1  0
 15 16  2  0
 17 18  1  0
 19 17  1  0
 20 17  1  0
  2 21  1  0
  4 22  1  0
  6 23  1  0
  7 24  1  0
  8 25  1  0
 13 26  1  0
M  ISO  6  21  14  22  14  23  14  24  14  25  14  26  14
M  END
>  <minimizedAffinity>  (1) 
-4.3138833

>  <minimizedRMSD>  (1) 
2.90018964

$$$$
