
     RDKit          3D

 30 33  0  0  0  0  0  0  0  0999 V2000
   38.4500   24.1910   36.2960 C   0  0  0  0  0  0  0  0  0  0  0  0
   37.5680   24.0090   37.3280 C   0  0  0  0  0  0  0  0  0  0  0  0
   38.1570   23.2470   38.2700 N   0  0  0  0  0  0  0  0  0  0  0  0
   39.4140   22.9390   37.8450 C   0  0  0  0  0  0  0  0  0  0  0  0
   39.5580   23.5240   36.6520 N   0  0  0  0  0  0  0  0  0  0  0  0
   40.7770   23.3950   35.9270 C   0  0  0  0  0  0  0  0  0  0  0  0
   40.9440   22.2750   35.1240 C   0  0  0  0  0  0  0  0  0  0  0  0
   42.6190   22.5690   34.4290 S   0  0  0  0  0  0  0  0  0  0  0  0
   42.7740   24.1900   35.3810 C   0  0  0  0  0  0  0  0  0  0  0  0
   41.7880   24.2150   35.9160 N   0  0  0  0  0  0  0  0  0  0  0  0
   43.9130   25.1040   35.3630 N   0  0  0  0  0  0  0  0  0  0  0  0
   44.7560   25.3440   36.3850 C   0  0  0  0  0  0  0  0  0  0  0  0
   45.6380   26.2670   35.8610 C   0  0  0  0  0  0  0  0  0  0  0  0
   45.2800   26.5250   34.5730 N   0  0  0  0  0  0  0  0  0  0  0  0
   44.1960   25.7890   34.2710 C   0  0  0  0  0  0  0  0  0  0  0  0
   37.7300   24.9830   32.7880 C   0  0  0  0  0  0  0  0  0  0  0  0
   37.8210   26.3900   32.7920 C   0  0  0  0  0  0  0  0  0  0  0  0
   38.1240   27.0410   33.9800 C   0  0  0  0  0  0  0  0  0  0  0  0
   38.3210   26.2830   35.1000 N   0  0  0  0  0  0  0  0  0  0  0  0
   38.2310   24.9440   35.0800 C   0  0  0  0  0  0  0  0  0  0  0  0
   37.9360   24.2910   33.9300 N   0  0  0  0  0  0  0  0  0  0  0  0
   36.5479   24.4173   37.3792 H   0  0  0  0  0  0  0  0  0  0  0  0
   40.1606   22.3309   38.3769 H   0  0  0  0  0  0  0  0  0  0  0  0
   40.2560   21.4345   34.9500 H   0  0  0  0  0  0  0  0  0  0  0  0
   44.7445   24.9088   37.3952 H   0  0  0  0  0  0  0  0  0  0  0  0
   46.4876   26.7184   36.3943 H   0  0  0  0  0  0  0  0  0  0  0  0
   43.6569   25.7632   33.3125 H   0  0  0  0  0  0  0  0  0  0  0  0
   37.4916   24.4493   31.8562 H   0  0  0  0  0  0  0  0  0  0  0  0
   37.6545   26.9630   31.8679 H   0  0  0  0  0  0  0  0  0  0  0  0
   38.2034   28.1374   34.0189 H   0  0  0  0  0  0  0  0  0  0  0  0
  1  5  1  0
  1  2  2  0
  2  3  1  0
  4  3  2  0
  5  4  1  0
  6  5  1  0
  7  6  2  0
  8  7  1  0
  8  9  1  0
  9 10  2  0
 10  6  1  0
 11  9  1  0
 11 12  1  0
 13 12  2  0
 14 13  1  0
 15 14  2  0
 15 11  1  0
 16 17  2  0
 16 21  1  0
 17 18  1  0
 18 19  2  0
 20 19  1  0
 20  1  1  0
 21 20  2  0
  2 22  1  0
  4 23  1  0
  7 24  1  0
 12 25  1  0
 13 26  1  0
 15 27  1  0
 16 28  1  0
 17 29  1  0
 18 30  1  0
M  ISO  8  22  14  23  14  24  14  25  14  26  14  27  14  28  14  29  14
M  ISO  1  30  14
M  END
>  <minimizedAffinity>  (1) 
-4.40809441

>  <minimizedRMSD>  (1) 
2.11458087

$$$$
