
     RDKit          3D

 44 47  0  0  1  0  0  0  0  0999 V2000
   36.1590   29.5310   32.4430 C   0  0  0  0  0  0  0  0  0  0  0  0
   36.9140   28.5800   31.7920 C   0  0  0  0  0  0  0  0  0  0  0  0
   37.2810   27.4360   32.5000 C   0  0  0  0  0  0  0  0  0  0  0  0
   36.8870   27.2820   33.8160 C   0  0  0  0  0  0  0  0  0  0  0  0
   36.1390   28.2250   34.4630 C   0  0  0  0  0  0  0  0  0  0  0  0
   35.7690   29.3580   33.7760 C   0  0  0  0  0  0  0  0  0  0  0  0
   37.3790   26.0020   34.3890 C   0  0  0  0  0  0  0  0  0  0  0  0
   38.7690   26.0720   34.9150 C   0  0  2  0  0  0  0  0  0  0  0  0
   40.7350   23.2110   36.0790 C   0  0  0  0  0  0  0  0  0  0  0  0
   39.9360   22.6610   37.1230 C   0  0  0  0  0  0  0  0  0  0  0  0
   38.7080   23.2930   37.4180 C   0  0  0  0  0  0  0  0  0  0  0  0
   38.3850   24.3930   36.6680 N   0  0  0  0  0  0  0  0  0  0  0  0
   39.1690   24.8820   35.6870 C   0  0  0  0  0  0  0  0  0  0  0  0
   40.3420   24.3020   35.3850 N   0  0  0  0  0  0  0  0  0  0  0  0
   38.8680   27.2930   35.8460 C   0  0  0  0  0  0  0  0  0  0  0  0
   35.6900   30.9730   31.5670 S   0  0  0  0  0  0  0  0  0  0  0  0
   36.2460   30.8420   30.1550 O   0  0  0  0  0  0  0  0  0  0  0  0
   36.2400   32.1940   32.1880 O   0  0  0  0  0  0  0  0  0  0  0  0
   33.9510   31.0940   31.4800 C   0  0  0  0  0  0  0  0  0  0  0  0
   32.9340   30.6450   32.2450 N   0  0  0  0  0  0  0  0  0  0  0  0
   31.7930   31.0120   31.7370 O   0  0  0  0  0  0  0  0  0  0  0  0
   32.0060   31.7020   30.6420 C   0  0  0  0  0  0  0  0  0  0  0  0
   33.3110   31.7490   30.4920 N   0  0  0  0  0  0  0  0  0  0  0  0
   30.9820   32.2880   29.7840 C   0  0  0  0  0  0  0  0  0  0  0  0
   30.6340   31.9070   28.5040 C   0  0  0  0  0  0  0  0  0  0  0  0
   29.6150   32.7280   28.0550 C   0  0  0  0  0  0  0  0  0  0  0  0
   29.3940   33.5830   29.1170 C   0  0  0  0  0  0  0  0  0  0  0  0
   30.2060   33.3020   30.1110 O   0  0  0  0  0  0  0  0  0  0  0  0
   37.2185   28.7191   30.7442 H   0  0  0  0  0  0  0  0  0  0  0  0
   37.8839   26.6564   32.0114 H   0  0  0  0  0  0  0  0  0  0  0  0
   35.8389   28.0811   35.5115 H   0  0  0  0  0  0  0  0  0  0  0  0
   35.1651   30.1299   34.2756 H   0  0  0  0  0  0  0  0  0  0  0  0
   36.7109   25.7120   35.2133 H   0  0  0  0  0  0  0  0  0  0  0  0
   37.3838   25.2667   33.5708 H   0  0  0  0  0  0  0  0  0  0  0  0
   39.4398   26.1403   34.0459 H   0  0  0  0  0  0  0  0  0  0  0  0
   41.6957   22.7356   35.8318 H   0  0  0  0  0  0  0  0  0  0  0  0
   40.2653   21.7723   37.6814 H   0  0  0  0  0  0  0  0  0  0  0  0
   38.0433   22.9202   38.2112 H   0  0  0  0  0  0  0  0  0  0  0  0
   38.8409   26.9585   36.8936 H   0  0  0  0  0  0  0  0  0  0  0  0
   39.8122   27.8241   35.6550 H   0  0  0  0  0  0  0  0  0  0  0  0
   38.0217   27.9693   35.6550 H   0  0  0  0  0  0  0  0  0  0  0  0
   31.0919   31.0851   27.9341 H   0  0  0  0  0  0  0  0  0  0  0  0
   29.1021   32.7052   27.0822 H   0  0  0  0  0  0  0  0  0  0  0  0
   28.6432   34.3868   29.1289 H   0  0  0  0  0  0  0  0  0  0  0  0
  1  6  1  0
  2  1  2  0
  2  3  1  0
  3  4  2  0
  4  7  1  0
  4  5  1  0
  6  5  2  0
  7  8  1  0
  8 13  1  0
  8 15  1  0
  9 10  2  0
 10 11  1  0
 12 11  2  0
 13 12  1  0
 14 13  2  0
 14  9  1  0
 16 18  2  0
 16  1  1  0
 17 16  2  0
 19 16  1  0
 19 20  2  0
 21 20  1  0
 22 21  1  0
 23 22  2  0
 23 19  1  0
 24 28  1  0
 24 22  1  0
 25 24  2  0
 26 25  1  0
 26 27  2  0
 27 28  1  0
  2 29  1  0
  3 30  1  0
  5 31  1  0
  6 32  1  0
  7 33  1  0
  7 34  1  0
  8 35  1  6
  9 36  1  0
 10 37  1  0
 11 38  1  0
 15 39  1  0
 15 40  1  0
 15 41  1  0
 25 42  1  0
 26 43  1  0
 27 44  1  0
M  ISO  8  29  14  30  14  31  14  32  14  33   8  34   8  35   8  36  14
M  ISO  8  37  14  38  14  39   8  40   8  41   8  42  14  43  14  44  14
M  END
>  <minimizedAffinity>  (1) 
-5.38399363

>  <minimizedRMSD>  (1) 
0.865324438

$$$$
