
     RDKit          3D

 38 41  0  0  0  0  0  0  0  0999 V2000
   39.4620   20.7950   31.8550 C   0  0  0  0  0  0  0  0  0  0  0  0
   40.0240   19.9690   30.9290 C   0  0  0  0  0  0  0  0  0  0  0  0
   41.3270   19.8070   31.2310 N   0  0  0  0  0  0  0  0  0  0  0  0
   41.6050   20.5240   32.3430 C   0  0  0  0  0  0  0  0  0  0  0  0
   40.4480   21.1120   32.6950 N   0  0  0  0  0  0  0  0  0  0  0  0
   40.4050   21.9560   33.8550 C   0  0  0  0  0  0  0  0  0  0  0  0
   41.0340   21.5520   34.9980 C   0  0  0  0  0  0  0  0  0  0  0  0
   40.6940   22.9340   36.1430 S   0  0  0  0  0  0  0  0  0  0  0  0
   39.7030   23.8660   34.7940 C   0  0  0  0  0  0  0  0  0  0  0  0
   39.7990   23.1270   33.9430 N   0  0  0  0  0  0  0  0  0  0  0  0
   39.0580   25.1330   34.9180 N   0  0  0  0  0  0  0  0  0  0  0  0
   39.7580   26.3820   34.9290 C   0  0  0  0  0  0  0  0  0  0  0  0
   39.0240   27.4690   35.6620 C   0  0  0  0  0  0  0  0  0  0  0  0
   37.5620   27.5680   35.2890 C   0  0  0  0  0  0  0  0  0  0  0  0
   37.1840   26.4530   34.3420 C   0  0  0  0  0  0  0  0  0  0  0  0
   37.6190   25.1580   35.0400 C   0  0  0  0  0  0  0  0  0  0  0  0
   36.3830   22.7080   31.2310 C   0  0  0  0  0  0  0  0  0  0  0  0
   35.4680   22.0730   32.0720 C   0  0  0  0  0  0  0  0  0  0  0  0
   35.9160   21.0110   32.8320 C   0  0  0  0  0  0  0  0  0  0  0  0
   37.2220   20.6140   32.7440 N   0  0  0  0  0  0  0  0  0  0  0  0
   38.0860   21.2430   31.9240 C   0  0  0  0  0  0  0  0  0  0  0  0
   37.6680   22.2880   31.1700 N   0  0  0  0  0  0  0  0  0  0  0  0
   39.5011   19.5106   30.0767 H   0  0  0  0  0  0  0  0  0  0  0  0
   42.5756   20.6087   32.8536 H   0  0  0  0  0  0  0  0  0  0  0  0
   41.6017   20.6281   35.1824 H   0  0  0  0  0  0  0  0  0  0  0  0
   40.7336   26.2311   35.4143 H   0  0  0  0  0  0  0  0  0  0  0  0
   39.8608   26.7068   33.8831 H   0  0  0  0  0  0  0  0  0  0  0  0
   39.0951   27.2701   36.7415 H   0  0  0  0  0  0  0  0  0  0  0  0
   39.4945   28.4228   35.3813 H   0  0  0  0  0  0  0  0  0  0  0  0
   36.9496   27.4934   36.1997 H   0  0  0  0  0  0  0  0  0  0  0  0
   37.3847   28.5335   34.7927 H   0  0  0  0  0  0  0  0  0  0  0  0
   37.7101   26.5682   33.3828 H   0  0  0  0  0  0  0  0  0  0  0  0
   36.1069   26.4545   34.1187 H   0  0  0  0  0  0  0  0  0  0  0  0
   37.1736   24.2830   34.5440 H   0  0  0  0  0  0  0  0  0  0  0  0
   37.2926   25.1247   36.0899 H   0  0  0  0  0  0  0  0  0  0  0  0
   36.0569   23.5571   30.6124 H   0  0  0  0  0  0  0  0  0  0  0  0
   34.4219   22.4084   32.1276 H   0  0  0  0  0  0  0  0  0  0  0  0
   35.2243   20.4854   33.5067 H   0  0  0  0  0  0  0  0  0  0  0  0
  1 21  1  0
  1  5  1  0
  2  3  1  0
  2  1  2  0
  3  4  2  0
  4  5  1  0
  5  6  1  0
  6 10  1  0
  6  7  2  0
  7  8  1  0
  9 11  1  0
  9  8  1  0
 10  9  2  0
 11 12  1  0
 11 16  1  0
 12 13  1  0
 14 13  1  0
 15 16  1  0
 15 14  1  0
 17 18  2  0
 18 19  1  0
 20 19  2  0
 21 20  1  0
 22 17  1  0
 22 21  2  0
  2 23  1  0
  4 24  1  0
  7 25  1  0
 12 26  1  0
 12 27  1  0
 13 28  1  0
 13 29  1  0
 14 30  1  0
 14 31  1  0
 15 32  1  0
 15 33  1  0
 16 34  1  0
 16 35  1  0
 17 36  1  0
 18 37  1  0
 19 38  1  0
M  ISO  8  23  14  24  14  25  14  26  13  27  13  28  13  29  13  30  13
M  ISO  8  31  13  32  13  33  13  34  13  35  13  36  14  37  14  38  14
M  END
>  <minimizedAffinity>  (1) 
-3.90837145

>  <minimizedRMSD>  (1) 
5.49468327

$$$$
