
     RDKit          3D

 30 33  0  0  0  0  0  0  0  0999 V2000
   38.4130   23.7580   36.1360 C   0  0  0  0  0  0  0  0  0  0  0  0
   37.5250   23.6900   37.1780 C   0  0  0  0  0  0  0  0  0  0  0  0
   38.1740   23.2290   38.2660 N   0  0  0  0  0  0  0  0  0  0  0  0
   39.4660   23.0000   37.9350 C   0  0  0  0  0  0  0  0  0  0  0  0
   39.5690   23.3320   36.6400 N   0  0  0  0  0  0  0  0  0  0  0  0
   40.8370   23.2050   35.9630 C   0  0  0  0  0  0  0  0  0  0  0  0
   41.0500   22.0880   35.1900 C   0  0  0  0  0  0  0  0  0  0  0  0
   42.7560   22.4030   34.5710 S   0  0  0  0  0  0  0  0  0  0  0  0
   42.8440   24.0380   35.5140 C   0  0  0  0  0  0  0  0  0  0  0  0
   41.8360   24.0320   35.9870 N   0  0  0  0  0  0  0  0  0  0  0  0
   43.9540   24.9890   35.5620 N   0  0  0  0  0  0  0  0  0  0  0  0
   44.7130   25.5370   36.5180 C   0  0  0  0  0  0  0  0  0  0  0  0
   45.5860   26.3580   35.9080 N   0  0  0  0  0  0  0  0  0  0  0  0
   45.3750   26.3250   34.5940 C   0  0  0  0  0  0  0  0  0  0  0  0
   44.3600   25.4720   34.3950 N   0  0  0  0  0  0  0  0  0  0  0  0
   37.6090   23.6840   32.5630 C   0  0  0  0  0  0  0  0  0  0  0  0
   37.6240   25.0390   32.2280 C   0  0  0  0  0  0  0  0  0  0  0  0
   37.9080   25.9510   33.2270 C   0  0  0  0  0  0  0  0  0  0  0  0
   38.1620   25.5020   34.4980 N   0  0  0  0  0  0  0  0  0  0  0  0
   38.1400   24.1990   34.7840 C   0  0  0  0  0  0  0  0  0  0  0  0
   37.8640   23.2790   33.8220 N   0  0  0  0  0  0  0  0  0  0  0  0
   37.9720   27.3440   33.1050 O   0  0  0  0  0  0  0  0  0  0  0  0
   36.4610   23.9655   37.1338 H   0  0  0  0  0  0  0  0  0  0  0  0
   40.2640   22.6211   38.5905 H   0  0  0  0  0  0  0  0  0  0  0  0
   40.3820   21.2363   34.9941 H   0  0  0  0  0  0  0  0  0  0  0  0
   44.6371   25.3509   37.5995 H   0  0  0  0  0  0  0  0  0  0  0  0
   45.9246   26.8864   33.8241 H   0  0  0  0  0  0  0  0  0  0  0  0
   37.3857   22.9363   31.7877 H   0  0  0  0  0  0  0  0  0  0  0  0
   37.4161   25.3709   31.2001 H   0  0  0  0  0  0  0  0  0  0  0  0
   38.1858   27.9008   33.8952 H   0  0  0  0  0  0  0  0  0  0  0  0
  1  5  1  0
  1  2  2  0
  2  3  1  0
  4  3  2  0
  5  4  1  0
  6 10  1  0
  6  5  1  0
  7  6  2  0
  8  7  1  0
  8  9  1  0
  9 11  1  0
  9 10  2  0
 11 12  1  0
 13 12  2  0
 14 13  1  0
 15 14  2  0
 15 11  1  0
 16 21  2  0
 17 16  1  0
 17 18  2  0
 18 19  1  0
 19 20  2  0
 20  1  1  0
 21 20  1  0
 22 18  1  0
  2 23  1  0
  4 24  1  0
  7 25  1  0
 12 26  1  0
 14 27  1  0
 16 28  1  0
 17 29  1  0
 22 30  1  0
M  ISO  8  23  14  24  14  25  14  26  14  27  14  28  14  29  14  30   3
M  END
>  <minimizedAffinity>  (1) 
-4.56890488

>  <minimizedRMSD>  (1) 
0.749804854

$$$$
