
     RDKit          3D

 31 34  0  0  0  0  0  0  0  0999 V2000
   38.4770   23.8080   36.3780 C   0  0  0  0  0  0  0  0  0  0  0  0
   37.7090   23.6700   37.5220 C   0  0  0  0  0  0  0  0  0  0  0  0
   38.4730   23.1530   38.4900 N   0  0  0  0  0  0  0  0  0  0  0  0
   39.7210   22.9540   38.0000 C   0  0  0  0  0  0  0  0  0  0  0  0
   39.6890   23.3590   36.7250 N   0  0  0  0  0  0  0  0  0  0  0  0
   40.8610   23.2830   35.9070 C   0  0  0  0  0  0  0  0  0  0  0  0
   41.0100   22.1920   35.0850 C   0  0  0  0  0  0  0  0  0  0  0  0
   42.6230   22.5680   34.2790 S   0  0  0  0  0  0  0  0  0  0  0  0
   42.7830   24.1890   35.2500 C   0  0  0  0  0  0  0  0  0  0  0  0
   41.8310   24.1380   35.8390 N   0  0  0  0  0  0  0  0  0  0  0  0
   43.8590   25.1580   35.1870 N   0  0  0  0  0  0  0  0  0  0  0  0
   44.7310   25.7000   36.0750 C   0  0  0  0  0  0  0  0  0  0  0  0
   45.4990   26.5580   35.3860 N   0  0  0  0  0  0  0  0  0  0  0  0
   45.1320   26.5660   34.1000 C   0  0  0  0  0  0  0  0  0  0  0  0
   44.1140   25.6910   33.9990 N   0  0  0  0  0  0  0  0  0  0  0  0
   37.5500   23.9710   32.8380 C   0  0  0  0  0  0  0  0  0  0  0  0
   37.2470   25.3290   32.6780 C   0  0  0  0  0  0  0  0  0  0  0  0
   37.3680   26.1470   33.7800 C   0  0  0  0  0  0  0  0  0  0  0  0
   37.7680   25.6360   34.9720 N   0  0  0  0  0  0  0  0  0  0  0  0
   38.0540   24.3240   35.1040 C   0  0  0  0  0  0  0  0  0  0  0  0
   37.9500   23.4770   34.0430 N   0  0  0  0  0  0  0  0  0  0  0  0
   37.0640   27.5670   33.6680 C   0  0  0  0  0  0  0  0  0  0  0  0
   36.3900   28.1440   34.5580 O   0  0  0  0  0  0  0  0  0  0  0  0
   36.6472   23.9406   37.6184 H   0  0  0  0  0  0  0  0  0  0  0  0
   40.5857   22.5426   38.5413 H   0  0  0  0  0  0  0  0  0  0  0  0
   40.3450   21.3269   34.9458 H   0  0  0  0  0  0  0  0  0  0  0  0
   44.7955   25.4788   37.1506 H   0  0  0  0  0  0  0  0  0  0  0  0
   45.5724   27.1656   33.2897 H   0  0  0  0  0  0  0  0  0  0  0  0
   37.4636   23.2922   31.9767 H   0  0  0  0  0  0  0  0  0  0  0  0
   36.9235   25.7288   31.7057 H   0  0  0  0  0  0  0  0  0  0  0  0
   37.4262   28.1373   32.7999 H   0  0  0  0  0  0  0  0  0  0  0  0
  1  5  1  0
  1  2  2  0
  2  3  1  0
  4  3  2  0
  5  4  1  0
  6  5  1  0
  7  6  2  0
  8  7  1  0
  8  9  1  0
  9 10  2  0
 10  6  1  0
 11  9  1  0
 11 12  1  0
 13 12  2  0
 14 13  1  0
 15 14  2  0
 15 11  1  0
 16 21  2  0
 17 16  1  0
 17 18  2  0
 18 19  1  0
 19 20  2  0
 20  1  1  0
 21 20  1  0
 22 18  1  0
 22 23  2  0
  2 24  1  0
  4 25  1  0
  7 26  1  0
 12 27  1  0
 14 28  1  0
 16 29  1  0
 17 30  1  0
 22 31  1  0
M  ISO  8  24  14  25  14  26  14  27  14  28  14  29  14  30  14  31   6
M  END
>  <minimizedAffinity>  (1) 
-4.76307297

>  <minimizedRMSD>  (1) 
0.972811341

$$$$
