
     RDKit          3D

 41 45  0  0  0  0  0  0  0  0999 V2000
   38.5660   23.6580   36.3430 C   0  0  0  0  0  0  0  0  0  0  0  0
   37.8230   23.5100   37.5110 C   0  0  0  0  0  0  0  0  0  0  0  0
   38.6380   23.0590   38.4720 N   0  0  0  0  0  0  0  0  0  0  0  0
   39.8810   22.9120   37.9650 C   0  0  0  0  0  0  0  0  0  0  0  0
   39.8070   23.2820   36.6720 N   0  0  0  0  0  0  0  0  0  0  0  0
   40.9550   23.2470   35.8420 C   0  0  0  0  0  0  0  0  0  0  0  0
   41.1410   22.1550   35.0350 C   0  0  0  0  0  0  0  0  0  0  0  0
   42.7280   22.5990   34.1980 S   0  0  0  0  0  0  0  0  0  0  0  0
   42.8300   24.2390   35.1400 C   0  0  0  0  0  0  0  0  0  0  0  0
   41.8890   24.1490   35.7450 N   0  0  0  0  0  0  0  0  0  0  0  0
   43.8540   25.2400   35.0460 N   0  0  0  0  0  0  0  0  0  0  0  0
   44.7190   25.8270   35.9240 C   0  0  0  0  0  0  0  0  0  0  0  0
   45.4460   26.7120   35.2190 N   0  0  0  0  0  0  0  0  0  0  0  0
   45.0550   26.6880   33.9390 C   0  0  0  0  0  0  0  0  0  0  0  0
   44.0740   25.7770   33.8410 N   0  0  0  0  0  0  0  0  0  0  0  0
   37.4930   23.6720   32.8510 C   0  0  0  0  0  0  0  0  0  0  0  0
   37.1870   25.0210   32.6500 C   0  0  0  0  0  0  0  0  0  0  0  0
   37.3480   25.9010   33.6910 C   0  0  0  0  0  0  0  0  0  0  0  0
   37.8030   25.4250   34.8920 N   0  0  0  0  0  0  0  0  0  0  0  0
   38.0920   24.1220   35.0650 C   0  0  0  0  0  0  0  0  0  0  0  0
   37.9410   23.2310   34.0480 N   0  0  0  0  0  0  0  0  0  0  0  0
   37.0590   27.3150   33.5280 C   0  0  0  0  0  0  0  0  0  0  0  0
   36.8740   28.0080   34.5790 O   0  0  0  0  0  0  0  0  0  0  0  0
   36.9240   28.1930   32.3710 C   0  0  0  0  0  0  0  0  0  0  0  0
   35.9260   29.0910   32.0540 C   0  0  0  0  0  0  0  0  0  0  0  0
   35.8270   29.8650   30.9280 C   0  0  0  0  0  0  0  0  0  0  0  0
   36.8320   29.7410   29.9970 C   0  0  0  0  0  0  0  0  0  0  0  0
   37.8850   28.8820   30.1840 C   0  0  0  0  0  0  0  0  0  0  0  0
   37.8840   28.1560   31.3490 C   0  0  0  0  0  0  0  0  0  0  0  0
   36.7505   23.7265   37.6245 H   0  0  0  0  0  0  0  0  0  0  0  0
   40.7751   22.5604   38.5008 H   0  0  0  0  0  0  0  0  0  0  0  0
   40.5156   21.2578   34.9173 H   0  0  0  0  0  0  0  0  0  0  0  0
   44.8048   25.6167   37.0003 H   0  0  0  0  0  0  0  0  0  0  0  0
   45.4615   27.3003   33.1206 H   0  0  0  0  0  0  0  0  0  0  0  0
   37.3675   22.9587   32.0231 H   0  0  0  0  0  0  0  0  0  0  0  0
   36.8229   25.3718   31.6731 H   0  0  0  0  0  0  0  0  0  0  0  0
   35.1160   29.1980   32.7905 H   0  0  0  0  0  0  0  0  0  0  0  0
   34.9830   30.5537   30.7754 H   0  0  0  0  0  0  0  0  0  0  0  0
   36.7902   30.3460   29.0793 H   0  0  0  0  0  0  0  0  0  0  0  0
   38.6882   28.7803   29.4393 H   0  0  0  0  0  0  0  0  0  0  0  0
   38.7300   27.4689   31.4976 H   0  0  0  0  0  0  0  0  0  0  0  0
  1  5  1  0
  1  2  2  0
  2  3  1  0
  4  3  2  0
  5  4  1  0
  6  5  1  0
  7  6  2  0
  8  7  1  0
  8  9  1  0
  9 10  2  0
 10  6  1  0
 11  9  1  0
 11 12  1  0
 13 12  2  0
 14 13  1  0
 15 14  2  0
 15 11  1  0
 16 21  2  0
 17 16  1  0
 17 18  2  0
 18 19  1  0
 19 20  2  0
 20  1  1  0
 21 20  1  0
 22 18  1  0
 22 23  2  0
 24 22  1  0
 25 24  2  0
 26 25  1  0
 27 28  1  0
 27 26  2  0
 28 29  2  0
 29 24  1  0
  2 30  1  0
  4 31  1  0
  7 32  1  0
 12 33  1  0
 14 34  1  0
 16 35  1  0
 17 36  1  0
 25 37  1  0
 26 38  1  0
 27 39  1  0
 28 40  1  0
 29 41  1  0
M  ISO  8  30  14  31  14  32  14  33  14  34  14  35  14  36  14  37  14
M  ISO  4  38  14  39  14  40  14  41  14
M  END
>  <minimizedAffinity>  (1) 
-5.93461514

>  <minimizedRMSD>  (1) 
0.638182044

$$$$
