
     RDKit          3D

 43 47  0  0  0  0  0  0  0  0999 V2000
   38.4960   23.7860   36.3570 C   0  0  0  0  0  0  0  0  0  0  0  0
   37.7460   23.6630   37.5140 C   0  0  0  0  0  0  0  0  0  0  0  0
   38.5250   23.1790   38.4850 N   0  0  0  0  0  0  0  0  0  0  0  0
   39.7640   22.9850   37.9900 C   0  0  0  0  0  0  0  0  0  0  0  0
   39.7150   23.3600   36.7070 N   0  0  0  0  0  0  0  0  0  0  0  0
   40.8780   23.2800   35.8770 C   0  0  0  0  0  0  0  0  0  0  0  0
   41.0520   22.1490   35.0990 C   0  0  0  0  0  0  0  0  0  0  0  0
   42.6450   22.5430   34.2570 S   0  0  0  0  0  0  0  0  0  0  0  0
   42.7690   24.2100   35.1490 C   0  0  0  0  0  0  0  0  0  0  0  0
   41.8260   24.1620   35.7560 N   0  0  0  0  0  0  0  0  0  0  0  0
   43.8110   25.2000   35.0270 N   0  0  0  0  0  0  0  0  0  0  0  0
   44.6790   25.8060   35.8830 C   0  0  0  0  0  0  0  0  0  0  0  0
   45.4150   26.6550   35.1390 N   0  0  0  0  0  0  0  0  0  0  0  0
   45.0330   26.5930   33.8640 C   0  0  0  0  0  0  0  0  0  0  0  0
   44.0360   25.6850   33.8150 N   0  0  0  0  0  0  0  0  0  0  0  0
   37.6080   23.8870   32.8070 C   0  0  0  0  0  0  0  0  0  0  0  0
   37.2050   25.2270   32.6440 C   0  0  0  0  0  0  0  0  0  0  0  0
   37.2490   26.0430   33.7410 C   0  0  0  0  0  0  0  0  0  0  0  0
   37.6710   25.5560   34.9340 N   0  0  0  0  0  0  0  0  0  0  0  0
   38.0540   24.2670   35.0700 C   0  0  0  0  0  0  0  0  0  0  0  0
   38.0250   23.4240   34.0110 N   0  0  0  0  0  0  0  0  0  0  0  0
   36.8490   27.4300   33.6410 C   0  0  0  0  0  0  0  0  0  0  0  0
   36.2430   28.0050   34.5670 O   0  0  0  0  0  0  0  0  0  0  0  0
   37.1190   28.2190   32.4890 N   0  0  0  0  0  0  0  0  0  0  0  0
   38.0650   27.8540   31.4500 C   0  0  0  0  0  0  0  0  0  0  0  0
   37.1920   27.9450   30.2150 C   0  0  0  0  0  0  0  0  0  0  0  0
   36.3820   29.2040   30.5090 C   0  0  0  0  0  0  0  0  0  0  0  0
   36.6260   29.4910   31.9960 C   0  0  0  0  0  0  0  0  0  0  0  0
   36.6818   23.9217   37.6169 H   0  0  0  0  0  0  0  0  0  0  0  0
   40.6388   22.5966   38.5320 H   0  0  0  0  0  0  0  0  0  0  0  0
   40.4140   21.2576   35.0076 H   0  0  0  0  0  0  0  0  0  0  0  0
   44.7629   25.6364   36.9666 H   0  0  0  0  0  0  0  0  0  0  0  0
   45.4469   27.1663   33.0214 H   0  0  0  0  0  0  0  0  0  0  0  0
   37.5839   23.2056   31.9438 H   0  0  0  0  0  0  0  0  0  0  0  0
   36.8665   25.6043   31.6678 H   0  0  0  0  0  0  0  0  0  0  0  0
   38.9056   28.5619   31.4029 H   0  0  0  0  0  0  0  0  0  0  0  0
   38.5411   26.8732   31.5961 H   0  0  0  0  0  0  0  0  0  0  0  0
   36.5423   27.0629   30.1160 H   0  0  0  0  0  0  0  0  0  0  0  0
   37.7536   27.9828   29.2699 H   0  0  0  0  0  0  0  0  0  0  0  0
   36.7325   30.0432   29.8901 H   0  0  0  0  0  0  0  0  0  0  0  0
   35.3138   29.0719   30.2823 H   0  0  0  0  0  0  0  0  0  0  0  0
   37.3752   30.2854   32.1290 H   0  0  0  0  0  0  0  0  0  0  0  0
   35.7295   29.8466   32.5250 H   0  0  0  0  0  0  0  0  0  0  0  0
  1  5  1  0
  1  2  2  0
  2  3  1  0
  4  3  2  0
  5  4  1  0
  6  5  1  0
  7  6  2  0
  8  7  1  0
  8  9  1  0
  9 10  2  0
 10  6  1  0
 11  9  1  0
 11 12  1  0
 13 12  2  0
 14 13  1  0
 15 14  2  0
 15 11  1  0
 16 21  2  0
 17 16  1  0
 17 18  2  0
 18 19  1  0
 19 20  2  0
 20  1  1  0
 21 20  1  0
 22 18  1  0
 22 23  2  0
 24 22  1  0
 25 24  1  0
 26 27  1  0
 26 25  1  0
 27 28  1  0
 28 24  1  0
  2 29  1  0
  4 30  1  0
  7 31  1  0
 12 32  1  0
 14 33  1  0
 16 34  1  0
 17 35  1  0
 25 36  1  0
 25 37  1  0
 26 38  1  0
 26 39  1  0
 27 40  1  0
 27 41  1  0
 28 42  1  0
 28 43  1  0
M  ISO  8  29  14  30  14  31  14  32  14  33  14  34  14  35  14  36  13
M  ISO  7  37  13  38  13  39  13  40  13  41  13  42  13  43  13
M  END
>  <minimizedAffinity>  (1) 
-5.69961929

>  <minimizedRMSD>  (1) 
0.285005957

$$$$
