
     RDKit          3D

 33 36  0  0  0  0  0  0  0  0999 V2000
   38.4770   23.8110   36.4120 C   0  0  0  0  0  0  0  0  0  0  0  0
   37.7000   23.7130   37.5600 C   0  0  0  0  0  0  0  0  0  0  0  0
   38.4550   23.2020   38.5400 N   0  0  0  0  0  0  0  0  0  0  0  0
   39.6970   22.9680   38.0550 C   0  0  0  0  0  0  0  0  0  0  0  0
   39.6800   23.3440   36.7740 N   0  0  0  0  0  0  0  0  0  0  0  0
   40.8550   23.2250   35.9600 C   0  0  0  0  0  0  0  0  0  0  0  0
   41.0270   22.0740   35.2370 C   0  0  0  0  0  0  0  0  0  0  0  0
   42.6290   22.4200   34.3950 S   0  0  0  0  0  0  0  0  0  0  0  0
   42.7510   24.1230   35.2250 C   0  0  0  0  0  0  0  0  0  0  0  0
   41.7970   24.0930   35.8190 N   0  0  0  0  0  0  0  0  0  0  0  0
   43.7980   25.1050   35.0790 N   0  0  0  0  0  0  0  0  0  0  0  0
   44.6580   25.7530   35.9050 C   0  0  0  0  0  0  0  0  0  0  0  0
   45.3960   26.5550   35.1460 N   0  0  0  0  0  0  0  0  0  0  0  0
   45.0380   26.4420   33.8690 C   0  0  0  0  0  0  0  0  0  0  0  0
   44.0430   25.5350   33.8470 N   0  0  0  0  0  0  0  0  0  0  0  0
   37.6200   23.9270   32.8530 C   0  0  0  0  0  0  0  0  0  0  0  0
   37.2920   25.2740   32.6770 C   0  0  0  0  0  0  0  0  0  0  0  0
   37.3730   26.0980   33.7750 C   0  0  0  0  0  0  0  0  0  0  0  0
   37.7570   25.6120   34.9770 N   0  0  0  0  0  0  0  0  0  0  0  0
   38.0690   24.3070   35.1210 C   0  0  0  0  0  0  0  0  0  0  0  0
   38.0070   23.4530   34.0730 N   0  0  0  0  0  0  0  0  0  0  0  0
   37.0420   27.5140   33.6530 C   0  0  0  0  0  0  0  0  0  0  0  0
   36.6890   28.1860   34.6440 O   0  0  0  0  0  0  0  0  0  0  0  0
   37.1270   28.1340   32.3730 N   0  0  0  0  0  0  0  0  0  0  0  0
   36.6434   24.0058   37.6483 H   0  0  0  0  0  0  0  0  0  0  0  0
   40.5517   22.5504   38.6074 H   0  0  0  0  0  0  0  0  0  0  0  0
   40.3831   21.1843   35.1758 H   0  0  0  0  0  0  0  0  0  0  0  0
   44.7302   25.6361   36.9964 H   0  0  0  0  0  0  0  0  0  0  0  0
   45.4663   26.9785   33.0095 H   0  0  0  0  0  0  0  0  0  0  0  0
   37.5655   23.2392   31.9963 H   0  0  0  0  0  0  0  0  0  0  0  0
   36.9803   25.6611   31.6957 H   0  0  0  0  0  0  0  0  0  0  0  0
   36.8971   29.1325   32.2681 H   0  0  0  0  0  0  0  0  0  0  0  0
   37.4183   27.5837   31.5525 H   0  0  0  0  0  0  0  0  0  0  0  0
  1  5  1  0
  1  2  2  0
  2  3  1  0
  4  3  2  0
  5  4  1  0
  6  5  1  0
  7  6  2  0
  8  9  1  0
  8  7  1  0
  9 10  2  0
 10  6  1  0
 11  9  1  0
 11 12  1  0
 13 12  2  0
 14 13  1  0
 15 14  2  0
 15 11  1  0
 16 21  2  0
 17 16  1  0
 17 18  2  0
 18 19  1  0
 19 20  2  0
 20  1  1  0
 21 20  1  0
 22 18  1  0
 22 23  2  0
 24 22  1  0
  2 25  1  0
  4 26  1  0
  7 27  1  0
 12 28  1  0
 14 29  1  0
 16 30  1  0
 17 31  1  0
 24 32  1  0
 24 33  1  0
M  ISO  7  25  14  26  14  27  14  28  14  29  14  30  14  31  14
M  END
>  <minimizedAffinity>  (1) 
-4.96521521

>  <minimizedRMSD>  (1) 
0.170168549

$$$$
