
     RDKit          3D

 27 29  0  0  0  0  0  0  0  0999 V2000
   39.9660   22.4400   37.0340 C   0  0  0  0  0  0  0  0  0  0  0  0
   39.2230   23.1470   37.9700 C   0  0  0  0  0  0  0  0  0  0  0  0
   38.0980   23.8120   37.4940 C   0  0  0  0  0  0  0  0  0  0  0  0
   37.8010   23.7320   36.1800 N   0  0  0  0  0  0  0  0  0  0  0  0
   38.5410   23.0350   35.2830 C   0  0  0  0  0  0  0  0  0  0  0  0
   39.5910   22.4270   35.7830 N   0  0  0  0  0  0  0  0  0  0  0  0
   37.9760   23.1330   33.9470 C   0  0  0  0  0  0  0  0  0  0  0  0
   38.3160   24.0700   33.0450 N   0  0  0  0  0  0  0  0  0  0  0  0
   37.8040   24.1720   31.8150 C   0  0  0  0  0  0  0  0  0  0  0  0
   36.8820   23.3270   31.3570 N   0  0  0  0  0  0  0  0  0  0  0  0
   36.4740   22.3520   32.1840 C   0  0  0  0  0  0  0  0  0  0  0  0
   35.5210   21.4800   31.7100 C   0  0  0  0  0  0  0  0  0  0  0  0
   35.0600   20.4570   32.5060 C   0  0  0  0  0  0  0  0  0  0  0  0
   35.5910   20.3490   33.7880 C   0  0  0  0  0  0  0  0  0  0  0  0
   36.5340   21.2450   34.2040 C   0  0  0  0  0  0  0  0  0  0  0  0
   37.0230   22.2780   33.4440 C   0  0  0  0  0  0  0  0  0  0  0  0
   41.2010   21.6700   37.3610 C   0  0  0  0  0  0  0  0  0  0  0  0
   39.5090   23.1794   39.0317 H   0  0  0  0  0  0  0  0  0  0  0  0
   37.4611   24.3933   38.1770 H   0  0  0  0  0  0  0  0  0  0  0  0
   38.1559   24.9813   31.1584 H   0  0  0  0  0  0  0  0  0  0  0  0
   35.1261   21.6013   30.6905 H   0  0  0  0  0  0  0  0  0  0  0  0
   34.2995   19.7502   32.1425 H   0  0  0  0  0  0  0  0  0  0  0  0
   35.2534   19.5475   34.4615 H   0  0  0  0  0  0  0  0  0  0  0  0
   36.9309   21.1303   35.2235 H   0  0  0  0  0  0  0  0  0  0  0  0
   41.3116   21.6010   38.4532 H   0  0  0  0  0  0  0  0  0  0  0  0
   41.1259   20.6584   36.9354 H   0  0  0  0  0  0  0  0  0  0  0  0
   42.0762   22.1827   36.9354 H   0  0  0  0  0  0  0  0  0  0  0  0
  1 17  1  0
  1  2  2  0
  3  2  1  0
  4  3  2  0
  5  6  2  0
  5  4  1  0
  6  1  1  0
  7  5  1  0
  8  7  2  0
  9  8  1  0
 10  9  2  0
 10 11  1  0
 11 16  2  0
 12 11  1  0
 12 13  2  0
 13 14  1  0
 14 15  2  0
 16  7  1  0
 16 15  1  0
  2 18  1  0
  3 19  1  0
  9 20  1  0
 12 21  1  0
 13 22  1  0
 14 23  1  0
 15 24  1  0
 17 25  1  0
 17 26  1  0
 17 27  1  0
M  ISO  8  18  14  19  14  20  14  21  14  22  14  23  14  24  14  25   8
M  ISO  2  26   8  27   8
M  END
>  <minimizedAffinity>  (1) 
-5.11994648

>  <minimizedRMSD>  (1) 
2.81797028

$$$$
