
     RDKit          3D

 26 27  0  0  0  0  0  0  0  0999 V2000
   39.7250   22.9880   37.3640 C   0  0  0  0  0  0  0  0  0  0  0  0
   38.9540   23.1890   38.5280 C   0  0  0  0  0  0  0  0  0  0  0  0
   37.9810   24.1920   38.5150 C   0  0  0  0  0  0  0  0  0  0  0  0
   37.8380   24.9130   37.3810 N   0  0  0  0  0  0  0  0  0  0  0  0
   38.5880   24.6980   36.2860 C   0  0  0  0  0  0  0  0  0  0  0  0
   39.5300   23.7430   36.2640 N   0  0  0  0  0  0  0  0  0  0  0  0
   38.3790   25.5030   35.1210 N   0  0  0  0  0  0  0  0  0  0  0  0
   37.9160   26.8630   35.1610 C   0  0  0  0  0  0  0  0  0  0  0  0
   37.0080   27.2380   34.0310 C   0  0  0  0  0  0  0  0  0  0  0  0
   37.3010   26.5970   32.8400 O   0  0  0  0  0  0  0  0  0  0  0  0
   37.3830   25.2130   32.9870 C   0  0  0  0  0  0  0  0  0  0  0  0
   38.6350   24.9560   33.8020 C   0  0  0  0  0  0  0  0  0  0  0  0
   40.7640   21.9400   37.3300 C   0  0  0  0  0  0  0  0  0  0  0  0
   39.1147   22.5714   39.4240 H   0  0  0  0  0  0  0  0  0  0  0  0
   37.3535   24.3878   39.3970 H   0  0  0  0  0  0  0  0  0  0  0  0
   37.3718   27.0141   36.1050 H   0  0  0  0  0  0  0  0  0  0  0  0
   38.8072   27.5020   35.0745 H   0  0  0  0  0  0  0  0  0  0  0  0
   35.9765   26.9839   34.3165 H   0  0  0  0  0  0  0  0  0  0  0  0
   37.1443   28.3154   33.8558 H   0  0  0  0  0  0  0  0  0  0  0  0
   36.4971   24.8311   33.5156 H   0  0  0  0  0  0  0  0  0  0  0  0
   37.4238   24.7047   32.0123 H   0  0  0  0  0  0  0  0  0  0  0  0
   38.8314   23.8757   33.8688 H   0  0  0  0  0  0  0  0  0  0  0  0
   39.5172   25.4223   33.3391 H   0  0  0  0  0  0  0  0  0  0  0  0
   41.0389   21.6627   38.3584 H   0  0  0  0  0  0  0  0  0  0  0  0
   40.3759   21.0558   36.8031 H   0  0  0  0  0  0  0  0  0  0  0  0
   41.6515   22.3205   36.8031 H   0  0  0  0  0  0  0  0  0  0  0  0
  1  2  2  0
  3  2  1  0
  4  3  2  0
  5  4  1  0
  6  5  2  0
  6  1  1  0
  7  8  1  0
  7  5  1  0
  9  8  1  0
 10 11  1  0
 10  9  1  0
 11 12  1  0
 12  7  1  0
 13  1  1  0
  2 14  1  0
  3 15  1  0
  8 16  1  0
  8 17  1  0
  9 18  1  0
  9 19  1  0
 11 20  1  0
 11 21  1  0
 12 22  1  0
 12 23  1  0
 13 24  1  0
 13 25  1  0
 13 26  1  0
M  ISO  8  14  14  15  14  16  13  17  13  18  13  19  13  20  13  21  13
M  ISO  5  22  13  23  13  24   8  25   8  26   8
M  END
>  <minimizedAffinity>  (1) 
-4.21106148

>  <minimizedRMSD>  (1) 
3.192312

$$$$
