
     RDKit          3D

 29 30  0  0  0  0  0  0  0  0999 V2000
   39.7950   22.8660   37.4050 C   0  0  0  0  0  0  0  0  0  0  0  0
   39.0830   23.2160   38.5580 C   0  0  0  0  0  0  0  0  0  0  0  0
   38.0060   24.1080   38.4290 C   0  0  0  0  0  0  0  0  0  0  0  0
   37.7230   24.5720   37.1890 N   0  0  0  0  0  0  0  0  0  0  0  0
   38.4450   24.2010   36.0950 C   0  0  0  0  0  0  0  0  0  0  0  0
   39.4820   23.3480   36.2030 N   0  0  0  0  0  0  0  0  0  0  0  0
   38.1360   24.7080   34.7450 C   0  0  0  0  0  0  0  0  0  0  0  0
   39.3260   24.8310   33.8500 C   0  0  0  0  0  0  0  0  0  0  0  0
   39.9400   26.2160   33.8810 C   0  0  0  0  0  0  0  0  0  0  0  0
   38.9470   27.2630   33.4220 C   0  0  0  0  0  0  0  0  0  0  0  0
   37.5140   26.7650   33.6060 C   0  0  0  0  0  0  0  0  0  0  0  0
   37.4890   26.0810   34.9550 C   0  0  0  0  0  0  0  0  0  0  0  0
   40.9410   21.9230   37.5100 C   0  0  0  0  0  0  0  0  0  0  0  0
   39.3597   22.8033   39.5394 H   0  0  0  0  0  0  0  0  0  0  0  0
   37.4144   24.4182   39.3029 H   0  0  0  0  0  0  0  0  0  0  0  0
   37.4769   23.9914   34.2331 H   0  0  0  0  0  0  0  0  0  0  0  0
   39.0156   24.6066   32.8188 H   0  0  0  0  0  0  0  0  0  0  0  0
   40.0866   24.1221   34.2090 H   0  0  0  0  0  0  0  0  0  0  0  0
   40.2553   26.4463   34.9094 H   0  0  0  0  0  0  0  0  0  0  0  0
   40.8033   26.2308   33.1995 H   0  0  0  0  0  0  0  0  0  0  0  0
   39.1193   27.4823   32.3580 H   0  0  0  0  0  0  0  0  0  0  0  0
   39.0862   28.1717   34.0261 H   0  0  0  0  0  0  0  0  0  0  0  0
   36.8094   27.6096   33.5910 H   0  0  0  0  0  0  0  0  0  0  0  0
   37.2148   26.0810   32.7981 H   0  0  0  0  0  0  0  0  0  0  0  0
   36.4528   25.9655   35.3057 H   0  0  0  0  0  0  0  0  0  0  0  0
   38.0270   26.6678   35.7141 H   0  0  0  0  0  0  0  0  0  0  0  0
   41.1669   21.7371   38.5704 H   0  0  0  0  0  0  0  0  0  0  0  0
   40.6810   20.9738   37.0186 H   0  0  0  0  0  0  0  0  0  0  0  0
   41.8224   22.3609   37.0186 H   0  0  0  0  0  0  0  0  0  0  0  0
  1 13  1  0
  1  2  2  0
  3  2  1  0
  4  3  2  0
  5  6  2  0
  5  4  1  0
  6  1  1  0
  7 12  1  0
  7  5  1  0
  8  9  1  0
  8  7  1  0
 10 11  1  0
 10  9  1  0
 11 12  1  0
  2 14  1  0
  3 15  1  0
  7 16  1  0
  8 17  1  0
  8 18  1  0
  9 19  1  0
  9 20  1  0
 10 21  1  0
 10 22  1  0
 11 23  1  0
 11 24  1  0
 12 25  1  0
 12 26  1  0
 13 27  1  0
 13 28  1  0
 13 29  1  0
M  ISO  8  14  14  15  14  16  13  17  13  18  13  19  13  20  13  21  13
M  ISO  8  22  13  23  13  24  13  25  13  26  13  27   8  28   8  29   8
M  END
>  <minimizedAffinity>  (1) 
-4.17379093

>  <minimizedRMSD>  (1) 
2.31834078

$$$$
