
     RDKit          3D

 26 27  0  0  0  0  0  0  0  0999 V2000
   39.7940   22.9730   37.3630 C   0  0  0  0  0  0  0  0  0  0  0  0
   38.9580   23.1600   38.4810 C   0  0  0  0  0  0  0  0  0  0  0  0
   37.9780   24.1630   38.4110 C   0  0  0  0  0  0  0  0  0  0  0  0
   37.9000   24.8880   37.2740 N   0  0  0  0  0  0  0  0  0  0  0  0
   38.7220   24.6750   36.2260 C   0  0  0  0  0  0  0  0  0  0  0  0
   39.6700   23.7180   36.2690 N   0  0  0  0  0  0  0  0  0  0  0  0
   38.5920   25.5090   34.9880 C   0  0  0  0  0  0  0  0  0  0  0  0
   39.0520   24.7190   33.7670 C   0  0  0  0  0  0  0  0  0  0  0  0
   39.0290   25.8440   32.7260 C   0  0  0  0  0  0  0  0  0  0  0  0
   39.5140   27.0660   33.4870 C   0  0  0  0  0  0  0  0  0  0  0  0
   39.5060   26.6870   34.9540 C   0  0  0  0  0  0  0  0  0  0  0  0
   40.8350   21.9300   37.3960 C   0  0  0  0  0  0  0  0  0  0  0  0
   39.0695   22.5389   39.3820 H   0  0  0  0  0  0  0  0  0  0  0  0
   37.2967   24.3520   39.2537 H   0  0  0  0  0  0  0  0  0  0  0  0
   37.5339   25.8098   34.9849 H   0  0  0  0  0  0  0  0  0  0  0  0
   40.0614   24.3032   33.9018 H   0  0  0  0  0  0  0  0  0  0  0  0
   38.4445   23.8358   33.5204 H   0  0  0  0  0  0  0  0  0  0  0  0
   38.0095   26.0014   32.3442 H   0  0  0  0  0  0  0  0  0  0  0  0
   39.6532   25.6189   31.8486 H   0  0  0  0  0  0  0  0  0  0  0  0
   40.5325   27.3331   33.1686 H   0  0  0  0  0  0  0  0  0  0  0  0
   38.8691   27.9365   33.2964 H   0  0  0  0  0  0  0  0  0  0  0  0
   40.5148   26.4154   35.2982 H   0  0  0  0  0  0  0  0  0  0  0  0
   39.1835   27.5066   35.6130 H   0  0  0  0  0  0  0  0  0  0  0  0
   41.0776   21.6870   38.4410 H   0  0  0  0  0  0  0  0  0  0  0  0
   40.4665   21.0279   36.8858 H   0  0  0  0  0  0  0  0  0  0  0  0
   41.7379   22.2968   36.8858 H   0  0  0  0  0  0  0  0  0  0  0  0
  1 12  1  0
  1  2  2  0
  3  2  1  0
  4  3  2  0
  5  6  2  0
  5  4  1  0
  6  1  1  0
  7  5  1  0
  8  7  1  0
  9 10  1  0
  9  8  1  0
 10 11  1  0
 11  7  1  0
  2 13  1  0
  3 14  1  0
  7 15  1  0
  8 16  1  0
  8 17  1  0
  9 18  1  0
  9 19  1  0
 10 20  1  0
 10 21  1  0
 11 22  1  0
 11 23  1  0
 12 24  1  0
 12 25  1  0
 12 26  1  0
M  ISO  8  13  14  14  14  15  13  16  13  17  13  18  13  19  13  20  13
M  ISO  6  21  13  22  13  23  13  24   8  25   8  26   8
M  END
>  <minimizedAffinity>  (1) 
-3.94624209

>  <minimizedRMSD>  (1) 
3.09777284

$$$$
