
     RDKit          3D

 18 19  0  0  0  0  0  0  0  0999 V2000
   39.8760   22.6430   37.2150 C   0  0  0  0  0  0  0  0  0  0  0  0
   39.2030   23.3030   38.2530 C   0  0  0  0  0  0  0  0  0  0  0  0
   37.8100   23.4290   38.1620 C   0  0  0  0  0  0  0  0  0  0  0  0
   37.1940   22.8990   37.0630 N   0  0  0  0  0  0  0  0  0  0  0  0
   37.8890   22.2720   36.0860 C   0  0  0  0  0  0  0  0  0  0  0  0
   39.2170   22.1450   36.1620 N   0  0  0  0  0  0  0  0  0  0  0  0
   37.1520   21.7370   34.9480 C   0  0  0  0  0  0  0  0  0  0  0  0
   37.3140   21.8220   33.5960 N   0  0  0  0  0  0  0  0  0  0  0  0
   36.3650   21.1490   33.0100 O   0  0  0  0  0  0  0  0  0  0  0  0
   35.5660   20.6110   33.9200 C   0  0  0  0  0  0  0  0  0  0  0  0
   36.0560   20.9770   35.1400 N   0  0  0  0  0  0  0  0  0  0  0  0
   41.3450   22.4870   37.2690 C   0  0  0  0  0  0  0  0  0  0  0  0
   39.7527   23.7104   39.1144 H   0  0  0  0  0  0  0  0  0  0  0  0
   37.2323   23.9371   38.9482 H   0  0  0  0  0  0  0  0  0  0  0  0
   34.6789   19.9893   33.7289 H   0  0  0  0  0  0  0  0  0  0  0  0
   41.6717   22.4523   38.3188 H   0  0  0  0  0  0  0  0  0  0  0  0
   41.6334   21.5532   36.7642 H   0  0  0  0  0  0  0  0  0  0  0  0
   41.8231   23.3394   36.7642 H   0  0  0  0  0  0  0  0  0  0  0  0
  1 12  1  0
  1  2  2  0
  3  2  1  0
  4  3  2  0
  5  6  2  0
  5  4  1  0
  6  1  1  0
  7 11  1  0
  7  5  1  0
  8  7  2  0
  9  8  1  0
  9 10  1  0
 10 11  2  0
  2 13  1  0
  3 14  1  0
 10 15  1  0
 12 16  1  0
 12 17  1  0
 12 18  1  0
M  ISO  6  13  14  14  14  15  14  16   8  17   8  18   8
M  END
>  <minimizedAffinity>  (1) 
-3.85693359

>  <minimizedRMSD>  (1) 
0.805140972

$$$$
