
     RDKit          3D

 56 59  0  0  1  0  0  0  0  0999 V2000
   36.6130   27.0240   32.6240 C   0  0  0  0  0  0  0  0  0  0  0  0
   37.5130   26.5140   33.5500 C   0  0  0  0  0  0  0  0  0  0  0  0
   37.7050   27.1130   34.7440 C   0  0  0  0  0  0  0  0  0  0  0  0
   36.9920   28.2430   35.0220 N   0  0  0  0  0  0  0  0  0  0  0  0
   36.1150   28.7440   34.1230 C   0  0  0  0  0  0  0  0  0  0  0  0
   35.9310   28.1570   32.9680 N   0  0  0  0  0  0  0  0  0  0  0  0
   38.6510   26.4470   35.6710 C   0  0  0  0  0  0  0  0  0  0  0  0
   38.2790   25.0370   35.8420 C   0  0  0  0  0  0  0  0  0  0  0  0
   39.3480   24.2500   36.4040 N   0  0  0  0  0  0  0  0  0  0  0  0
   39.9840   23.4410   35.3310 C   0  0  0  0  0  0  0  0  0  0  0  0
   40.8640   22.5190   36.1440 C   0  0  0  0  0  0  0  0  0  0  0  0
   40.1430   22.3680   37.4790 C   0  0  0  0  0  0  0  0  0  0  0  0
   38.8910   23.1880   37.2230 C   0  0  1  0  0  0  0  0  0  0  0  0
   38.3730   23.6270   38.5560 C   0  0  0  0  0  0  0  0  0  0  0  0
   39.3170   23.7620   39.5280 F   0  0  0  0  0  0  0  0  0  0  0  0
   37.3350   22.7990   38.9230 F   0  0  0  0  0  0  0  0  0  0  0  0
   37.8220   24.9190   38.4160 F   0  0  0  0  0  0  0  0  0  0  0  0
   35.3930   30.0040   34.4590 C   0  0  2  0  0  0  0  0  0  0  0  0
   35.3710   30.9110   33.1880 C   0  0  0  0  0  0  0  0  0  0  0  0
   36.0610   30.8010   35.5090 C   0  0  0  0  0  0  0  0  0  0  0  0
   35.2530   31.8650   36.1050 C   0  0  0  0  0  0  0  0  0  0  0  0
   34.0360   31.5940   36.7440 C   0  0  0  0  0  0  0  0  0  0  0  0
   33.2550   32.5900   37.3350 C   0  0  0  0  0  0  0  0  0  0  0  0
   33.6920   33.8990   37.2920 C   0  0  0  0  0  0  0  0  0  0  0  0
   34.8840   34.1940   36.6700 C   0  0  0  0  0  0  0  0  0  0  0  0
   35.2910   35.5140   36.6390 C   0  0  0  0  0  0  0  0  0  0  0  0
   36.4920   35.8720   36.0150 C   0  0  0  0  0  0  0  0  0  0  0  0
   37.2580   34.8850   35.4340 C   0  0  0  0  0  0  0  0  0  0  0  0
   36.8010   33.5870   35.4960 C   0  0  0  0  0  0  0  0  0  0  0  0
   35.6290   33.1850   36.0980 C   0  0  0  0  0  0  0  0  0  0  0  0
   36.4551   26.5351   31.6514 H   0  0  0  0  0  0  0  0  0  0  0  0
   38.0806   25.6040   33.3057 H   0  0  0  0  0  0  0  0  0  0  0  0
   39.6688   26.5076   35.2582 H   0  0  0  0  0  0  0  0  0  0  0  0
   38.6137   26.9510   36.6481 H   0  0  0  0  0  0  0  0  0  0  0  0
   37.4087   24.9802   36.5123 H   0  0  0  0  0  0  0  0  0  0  0  0
   38.0493   24.6281   34.8470 H   0  0  0  0  0  0  0  0  0  0  0  0
   40.5776   24.0690   34.6503 H   0  0  0  0  0  0  0  0  0  0  0  0
   39.2713   22.9222   34.6730 H   0  0  0  0  0  0  0  0  0  0  0  0
   40.9666   21.5432   35.6466 H   0  0  0  0  0  0  0  0  0  0  0  0
   41.8822   22.9173   36.2651 H   0  0  0  0  0  0  0  0  0  0  0  0
   39.9012   21.3161   37.6914 H   0  0  0  0  0  0  0  0  0  0  0  0
   40.7289   22.6931   38.3514 H   0  0  0  0  0  0  0  0  0  0  0  0
   38.0609   22.6667   36.7238 H   0  0  0  0  0  0  0  0  0  0  0  0
   34.3954   29.7068   34.8147 H   0  0  0  0  0  0  0  0  0  0  0  0
   35.3454   31.9678   33.4921 H   0  0  0  0  0  0  0  0  0  0  0  0
   36.2739   30.7238   32.5883 H   0  0  0  0  0  0  0  0  0  0  0  0
   34.4782   30.6803   32.5883 H   0  0  0  0  0  0  0  0  0  0  0  0
   36.3636   30.1148   36.3137 H   0  0  0  0  0  0  0  0  0  0  0  0
   36.9041   31.3049   35.0137 H   0  0  0  0  0  0  0  0  0  0  0  0
   33.6807   30.5536   36.7819 H   0  0  0  0  0  0  0  0  0  0  0  0
   32.3052   32.3350   37.8277 H   0  0  0  0  0  0  0  0  0  0  0  0
   33.0928   34.6992   37.7508 H   0  0  0  0  0  0  0  0  0  0  0  0
   34.6670   36.2891   37.1079 H   0  0  0  0  0  0  0  0  0  0  0  0
   36.8182   36.9222   35.9890 H   0  0  0  0  0  0  0  0  0  0  0  0
   38.2078   35.1268   34.9347 H   0  0  0  0  0  0  0  0  0  0  0  0
   37.4217   32.8092   35.0272 H   0  0  0  0  0  0  0  0  0  0  0  0
  1  6  2  0
  1  2  1  0
  2  3  2  0
  3  4  1  0
  3  7  1  0
  5 18  1  0
  5  4  2  0
  6  5  1  0
  7  8  1  0
  8  9  1  0
  9 13  1  0
 10 11  1  0
 10  9  1  0
 11 12  1  0
 13 12  1  0
 13 14  1  0
 14 16  1  0
 14 15  1  0
 17 14  1  0
 18 20  1  0
 19 18  1  0
 20 21  1  0
 21 22  2  0
 22 23  1  0
 24 23  2  0
 25 24  1  0
 26 25  2  0
 27 26  1  0
 28 29  1  0
 28 27  2  0
 29 30  2  0
 30 21  1  0
 30 25  1  0
  1 31  1  0
  2 32  1  0
  7 33  1  0
  7 34  1  0
  8 35  1  0
  8 36  1  0
 10 37  1  0
 10 38  1  0
 11 39  1  0
 11 40  1  0
 12 41  1  0
 12 42  1  0
 13 43  1  6
 18 44  1  1
 19 45  1  0
 19 46  1  0
 19 47  1  0
 20 48  1  0
 20 49  1  0
 22 50  1  0
 23 51  1  0
 24 52  1  0
 26 53  1  0
 27 54  1  0
 28 55  1  0
 29 56  1  0
M  ISO  8  31  14  32  14  33   8  34   8  35   8  36   8  37  13  38  13
M  ISO  8  39  13  40  13  41  13  42  13  43  13  44   8  45   8  46   8
M  ISO  8  47   8  48   8  49   8  50  14  51  14  52  14  53  14  54  14
M  ISO  2  55  14  56  14
M  END
>  <minimizedAffinity>  (1) 
-7.19221306

>  <minimizedRMSD>  (1) 
2.29209661

$$$$
