
     RDKit          3D

 24 25  0  0  0  0  0  0  0  0999 V2000
   41.7330   23.0260   36.4790 C   0  0  0  0  0  0  0  0  0  0  0  0
   43.0540   23.4860   36.6610 C   0  0  0  0  0  0  0  0  0  0  0  0
   43.4890   24.5890   35.9210 C   0  0  0  0  0  0  0  0  0  0  0  0
   42.6200   25.1570   35.0710 N   0  0  0  0  0  0  0  0  0  0  0  0
   41.3540   24.6910   34.9170 C   0  0  0  0  0  0  0  0  0  0  0  0
   40.9010   23.6370   35.6100 N   0  0  0  0  0  0  0  0  0  0  0  0
   41.2370   21.8670   37.2390 C   0  0  0  0  0  0  0  0  0  0  0  0
   40.5380   25.3480   34.0170 O   0  0  0  0  0  0  0  0  0  0  0  0
   39.4510   26.1030   34.3620 C   0  0  0  0  0  0  0  0  0  0  0  0
   39.3030   26.9140   35.4720 C   0  0  0  0  0  0  0  0  0  0  0  0
   38.1450   27.6130   35.6820 C   0  0  0  0  0  0  0  0  0  0  0  0
   37.0780   27.5530   34.8160 C   0  0  0  0  0  0  0  0  0  0  0  0
   37.2170   26.7370   33.6950 C   0  0  0  0  0  0  0  0  0  0  0  0
   38.3820   26.0240   33.4670 C   0  0  0  0  0  0  0  0  0  0  0  0
   43.7288   22.9863   37.3716 H   0  0  0  0  0  0  0  0  0  0  0  0
   44.5115   24.9791   36.0319 H   0  0  0  0  0  0  0  0  0  0  0  0
   41.3241   22.0706   38.3165 H   0  0  0  0  0  0  0  0  0  0  0  0
   40.1824   21.6855   36.9842 H   0  0  0  0  0  0  0  0  0  0  0  0
   41.8338   20.9788   36.9842 H   0  0  0  0  0  0  0  0  0  0  0  0
   40.1268   26.9986   36.1960 H   0  0  0  0  0  0  0  0  0  0  0  0
   38.0646   28.2469   36.5774 H   0  0  0  0  0  0  0  0  0  0  0  0
   36.1559   28.1238   35.0002 H   0  0  0  0  0  0  0  0  0  0  0  0
   36.3863   26.6578   32.9783 H   0  0  0  0  0  0  0  0  0  0  0  0
   38.4661   25.3894   32.5724 H   0  0  0  0  0  0  0  0  0  0  0  0
  1  2  2  0
  1  7  1  0
  3  2  1  0
  4  3  2  0
  5  4  1  0
  5  6  2  0
  6  1  1  0
  8  9  1  0
  8  5  1  0
  9 10  2  0
 10 11  1  0
 12 11  2  0
 13 12  1  0
 14 13  2  0
 14  9  1  0
  2 15  1  0
  3 16  1  0
  7 17  1  0
  7 18  1  0
  7 19  1  0
 10 20  1  0
 11 21  1  0
 12 22  1  0
 13 23  1  0
 14 24  1  0
M  ISO  8  15  14  16  14  17   8  18   8  19   8  20  14  21  14  22  14
M  ISO  2  23  14  24  14
M  END
>  <minimizedAffinity>  (1) 
-3.97626996

>  <minimizedRMSD>  (1) 
4.98740101

$$$$
