
     RDKit          3D

 21 22  0  0  0  0  0  0  0  0999 V2000
   40.0210   22.3920   37.2600 C   0  0  0  0  0  0  0  0  0  0  0  0
   39.4000   23.1740   38.2450 C   0  0  0  0  0  0  0  0  0  0  0  0
   38.1980   23.8090   37.9270 C   0  0  0  0  0  0  0  0  0  0  0  0
   37.7040   23.6340   36.6880 N   0  0  0  0  0  0  0  0  0  0  0  0
   38.3290   22.8720   35.7560 C   0  0  0  0  0  0  0  0  0  0  0  0
   39.4850   22.2490   36.0330 N   0  0  0  0  0  0  0  0  0  0  0  0
   41.2900   21.7040   37.5510 C   0  0  0  0  0  0  0  0  0  0  0  0
   37.7430   22.7530   34.5090 O   0  0  0  0  0  0  0  0  0  0  0  0
   35.4150   20.1000   34.6090 N   0  0  0  0  0  0  0  0  0  0  0  0
   36.1850   21.0240   35.1950 N   0  0  0  0  0  0  0  0  0  0  0  0
   36.8520   21.7160   34.2570 C   0  0  0  0  0  0  0  0  0  0  0  0
   36.4980   21.2200   33.0210 C   0  0  0  0  0  0  0  0  0  0  0  0
   35.6010   20.2130   33.2640 C   0  0  0  0  0  0  0  0  0  0  0  0
   39.8489   23.2842   39.2432 H   0  0  0  0  0  0  0  0  0  0  0  0
   37.6721   24.4320   38.6654 H   0  0  0  0  0  0  0  0  0  0  0  0
   41.4258   21.6304   38.6401 H   0  0  0  0  0  0  0  0  0  0  0  0
   41.2680   20.6943   37.1151 H   0  0  0  0  0  0  0  0  0  0  0  0
   42.1241   22.2734   37.1151 H   0  0  0  0  0  0  0  0  0  0  0  0
   34.7967   19.4283   35.0859 H   0  0  0  0  0  0  0  0  0  0  0  0
   36.8610   21.5622   32.0406 H   0  0  0  0  0  0  0  0  0  0  0  0
   35.1104   19.5956   32.4971 H   0  0  0  0  0  0  0  0  0  0  0  0
  1  7  1  0
  1  2  2  0
  3  2  1  0
  4  3  2  0
  5  6  2  0
  5  4  1  0
  6  1  1  0
  8  5  1  0
  9 10  1  0
 11  8  1  0
 11 10  2  0
 12 13  2  0
 12 11  1  0
 13  9  1  0
  2 14  1  0
  3 15  1  0
  7 16  1  0
  7 17  1  0
  7 18  1  0
  9 19  1  0
 12 20  1  0
 13 21  1  0
M  ISO  8  14  14  15  14  16   8  17   8  18   8  19   9  20  14  21  14
M  END
>  <minimizedAffinity>  (1) 
-4.00037575

>  <minimizedRMSD>  (1) 
1.44375718

$$$$
