
     RDKit          3D

 29 30  0  0  0  0  0  0  0  0999 V2000
   39.9090   22.5780   36.9520 C   0  0  0  0  0  0  0  0  0  0  0  0
   38.9760   23.2040   37.7900 C   0  0  0  0  0  0  0  0  0  0  0  0
   37.6410   23.2300   37.3980 C   0  0  0  0  0  0  0  0  0  0  0  0
   37.3230   22.6500   36.2320 N   0  0  0  0  0  0  0  0  0  0  0  0
   38.2380   22.0530   35.4370 C   0  0  0  0  0  0  0  0  0  0  0  0
   39.5500   22.0100   35.7930 N   0  0  0  0  0  0  0  0  0  0  0  0
   41.3340   22.5210   37.3170 C   0  0  0  0  0  0  0  0  0  0  0  0
   37.7990   21.4870   34.2560 O   0  0  0  0  0  0  0  0  0  0  0  0
   36.7150   19.8940   31.9480 N   0  0  0  0  0  0  0  0  0  0  0  0
   36.3900   21.1760   31.3840 C   0  0  0  0  0  0  0  0  0  0  0  0
   36.4950   22.2880   32.3990 C   0  0  0  0  0  0  0  0  0  0  0  0
   36.4840   21.7830   33.8270 C   0  0  0  0  0  0  0  0  0  0  0  0
   35.6260   20.5790   34.0370 C   0  0  0  0  0  0  0  0  0  0  0  0
   35.7130   19.5560   32.9480 C   0  0  0  0  0  0  0  0  0  0  0  0
   39.2923   23.6649   38.7374 H   0  0  0  0  0  0  0  0  0  0  0  0
   36.8735   23.7097   38.0231 H   0  0  0  0  0  0  0  0  0  0  0  0
   41.4320   22.5171   38.4126 H   0  0  0  0  0  0  0  0  0  0  0  0
   41.7815   21.6042   36.9056 H   0  0  0  0  0  0  0  0  0  0  0  0
   41.8533   23.3991   36.9056 H   0  0  0  0  0  0  0  0  0  0  0  0
   37.6448   19.9352   32.3893 H   0  0  0  0  0  0  0  0  0  0  0  0
   37.0837   21.3851   30.5563 H   0  0  0  0  0  0  0  0  0  0  0  0
   35.3483   21.1364   31.0327 H   0  0  0  0  0  0  0  0  0  0  0  0
   37.4344   22.8336   32.2265 H   0  0  0  0  0  0  0  0  0  0  0  0
   35.6163   22.9372   32.2708 H   0  0  0  0  0  0  0  0  0  0  0  0
   36.0505   22.5991   34.4238 H   0  0  0  0  0  0  0  0  0  0  0  0
   35.9285   20.1022   34.9810 H   0  0  0  0  0  0  0  0  0  0  0  0
   34.5853   20.9352   34.0485 H   0  0  0  0  0  0  0  0  0  0  0  0
   34.7327   19.4811   32.4546 H   0  0  0  0  0  0  0  0  0  0  0  0
   36.0069   18.6009   33.4078 H   0  0  0  0  0  0  0  0  0  0  0  0
  1  7  1  0
  1  2  2  0
  3  2  1  0
  4  3  2  0
  5  6  2  0
  5  4  1  0
  6  1  1  0
  8  5  1  0
  9 14  1  0
 10  9  1  0
 10 11  1  0
 11 12  1  0
 12 13  1  0
 12  8  1  0
 14 13  1  0
  2 15  1  0
  3 16  1  0
  7 17  1  0
  7 18  1  0
  7 19  1  0
  9 20  1  0
 10 21  1  0
 10 22  1  0
 11 23  1  0
 11 24  1  0
 12 25  1  0
 13 26  1  0
 13 27  1  0
 14 28  1  0
 14 29  1  0
M  ISO  8  15  14  16  14  17   8  18   8  19   8  20   5  21  13  22  13
M  ISO  7  23  13  24  13  25  13  26  13  27  13  28  13  29  13
M  END
>  <minimizedAffinity>  (1) 
-3.77839661

>  <minimizedRMSD>  (1) 
1.29796481

$$$$
