
     RDKit          3D

 23 24  0  0  0  0  0  0  0  0999 V2000
   38.5720   23.0770   37.1350 C   0  0  0  0  0  0  0  0  0  0  0  0
   39.9720   23.0290   37.1430 C   0  0  0  0  0  0  0  0  0  0  0  0
   40.6330   22.5110   36.0070 C   0  0  0  0  0  0  0  0  0  0  0  0
   39.8700   22.0910   34.9790 N   0  0  0  0  0  0  0  0  0  0  0  0
   38.5090   22.1550   35.0150 C   0  0  0  0  0  0  0  0  0  0  0  0
   37.8570   22.6440   36.0830 N   0  0  0  0  0  0  0  0  0  0  0  0
   37.8800   23.6180   38.3210 C   0  0  0  0  0  0  0  0  0  0  0  0
   37.8210   21.6970   33.9040 O   0  0  0  0  0  0  0  0  0  0  0  0
   37.2270   22.6370   33.0560 C   0  0  0  0  0  0  0  0  0  0  0  0
   36.2300   22.1290   32.2650 C   0  0  0  0  0  0  0  0  0  0  0  0
   35.5800   22.9900   31.3870 C   0  0  0  0  0  0  0  0  0  0  0  0
   35.9010   24.3450   31.2790 C   0  0  0  0  0  0  0  0  0  0  0  0
   36.9190   24.7570   32.1180 C   0  0  0  0  0  0  0  0  0  0  0  0
   37.5790   23.9480   32.9900 N   0  0  0  0  0  0  0  0  0  0  0  0
   40.5429   23.3860   38.0128 H   0  0  0  0  0  0  0  0  0  0  0  0
   41.7306   22.4527   35.9633 H   0  0  0  0  0  0  0  0  0  0  0  0
   38.3647   23.2391   39.2329 H   0  0  0  0  0  0  0  0  0  0  0  0
   37.9330   24.7166   38.3070 H   0  0  0  0  0  0  0  0  0  0  0  0
   36.8266   23.3015   38.3070 H   0  0  0  0  0  0  0  0  0  0  0  0
   35.9506   21.0666   32.3230 H   0  0  0  0  0  0  0  0  0  0  0  0
   34.7788   22.5864   30.7504 H   0  0  0  0  0  0  0  0  0  0  0  0
   35.3871   25.0264   30.5850 H   0  0  0  0  0  0  0  0  0  0  0  0
   37.2170   25.8151   32.0778 H   0  0  0  0  0  0  0  0  0  0  0  0
  1  2  2  0
  1  7  1  0
  3  2  1  0
  4  5  1  0
  4  3  2  0
  5  6  2  0
  6  1  1  0
  8  5  1  0
  9  8  1  0
 10  9  2  0
 11 10  1  0
 12 11  2  0
 12 13  1  0
 13 14  2  0
 14  9  1  0
  2 15  1  0
  3 16  1  0
  7 17  1  0
  7 18  1  0
  7 19  1  0
 10 20  1  0
 11 21  1  0
 12 22  1  0
 13 23  1  0
M  ISO  8  15  14  16  14  17   8  18   8  19   8  20  14  21  14  22  14
M  ISO  1  23  14
M  END
>  <minimizedAffinity>  (1) 
-3.9519949

>  <minimizedRMSD>  (1) 
2.9979341

$$$$
