
     RDKit          3D

 23 23  0  0  0  0  0  0  0  0999 V2000
   39.8420   22.9310   37.3460 C   0  0  0  0  0  0  0  0  0  0  0  0
   38.9970   23.1970   38.4410 C   0  0  0  0  0  0  0  0  0  0  0  0
   37.9790   24.1550   38.2860 C   0  0  0  0  0  0  0  0  0  0  0  0
   37.8650   24.7710   37.0890 N   0  0  0  0  0  0  0  0  0  0  0  0
   38.7050   24.4820   36.0570 C   0  0  0  0  0  0  0  0  0  0  0  0
   39.6830   23.5720   36.1830 N   0  0  0  0  0  0  0  0  0  0  0  0
   40.9170   21.9350   37.4730 C   0  0  0  0  0  0  0  0  0  0  0  0
   38.4860   25.1830   34.8780 O   0  0  0  0  0  0  0  0  0  0  0  0
   39.1000   26.4690   34.7430 C   0  0  0  0  0  0  0  0  0  0  0  0
   40.5960   26.2980   34.8430 C   0  0  0  0  0  0  0  0  0  0  0  0
   38.5200   27.3370   35.8180 C   0  0  0  0  0  0  0  0  0  0  0  0
   39.1302   22.6674   39.3959 H   0  0  0  0  0  0  0  0  0  0  0  0
   37.2963   24.3954   39.1143 H   0  0  0  0  0  0  0  0  0  0  0  0
   41.1193   21.7476   38.5379 H   0  0  0  0  0  0  0  0  0  0  0  0
   40.6074   20.9975   36.9880 H   0  0  0  0  0  0  0  0  0  0  0  0
   41.8282   22.3151   36.9880 H   0  0  0  0  0  0  0  0  0  0  0  0
   38.9060   26.9474   33.7717 H   0  0  0  0  0  0  0  0  0  0  0  0
   40.8912   26.2643   35.9021 H   0  0  0  0  0  0  0  0  0  0  0  0
   40.8916   25.3602   34.3499 H   0  0  0  0  0  0  0  0  0  0  0  0
   41.0956   27.1449   34.3499 H   0  0  0  0  0  0  0  0  0  0  0  0
   38.7914   26.9308   36.8036 H   0  0  0  0  0  0  0  0  0  0  0  0
   38.9182   28.3577   35.7198 H   0  0  0  0  0  0  0  0  0  0  0  0
   37.4246   27.3597   35.7198 H   0  0  0  0  0  0  0  0  0  0  0  0
  1  7  1  0
  1  2  2  0
  3  2  1  0
  4  3  2  0
  5  6  2  0
  5  4  1  0
  6  1  1  0
  8  5  1  0
  9 10  1  0
  9  8  1  0
  9 11  1  0
  2 12  1  0
  3 13  1  0
  7 14  1  0
  7 15  1  0
  7 16  1  0
  9 17  1  0
 10 18  1  0
 10 19  1  0
 10 20  1  0
 11 21  1  0
 11 22  1  0
 11 23  1  0
M  ISO  8  12  14  13  14  14   8  15   8  16   8  17   8  18   8  19   8
M  ISO  4  20   8  21   8  22   8  23   8
M  END
>  <minimizedAffinity>  (1) 
-3.89501619

>  <minimizedRMSD>  (1) 
3.5250144

$$$$
