
     RDKit          3D

 20 20  0  0  0  0  0  0  0  0999 V2000
   39.8550   22.6200   37.1450 C   0  0  0  0  0  0  0  0  0  0  0  0
   39.1780   23.2690   38.2120 C   0  0  0  0  0  0  0  0  0  0  0  0
   37.7890   23.3930   38.1310 C   0  0  0  0  0  0  0  0  0  0  0  0
   37.1800   22.8890   37.0470 N   0  0  0  0  0  0  0  0  0  0  0  0
   37.8460   22.2720   36.0350 C   0  0  0  0  0  0  0  0  0  0  0  0
   39.1820   22.1410   36.0920 N   0  0  0  0  0  0  0  0  0  0  0  0
   41.3210   22.4660   37.1860 C   0  0  0  0  0  0  0  0  0  0  0  0
   37.1120   21.7920   34.9670 O   0  0  0  0  0  0  0  0  0  0  0  0
   36.0080   20.9550   35.2280 C   0  0  0  0  0  0  0  0  0  0  0  0
   35.5410   20.4300   33.8660 C   0  0  0  0  0  0  0  0  0  0  0  0
   39.7317   23.6626   39.0772 H   0  0  0  0  0  0  0  0  0  0  0  0
   37.2144   23.8868   38.9285 H   0  0  0  0  0  0  0  0  0  0  0  0
   41.6568   22.4307   38.2329 H   0  0  0  0  0  0  0  0  0  0  0  0
   41.6060   21.5330   36.6778 H   0  0  0  0  0  0  0  0  0  0  0  0
   41.7937   23.3194   36.6778 H   0  0  0  0  0  0  0  0  0  0  0  0
   36.3078   20.1190   35.8770 H   0  0  0  0  0  0  0  0  0  0  0  0
   35.2045   21.4995   35.7457 H   0  0  0  0  0  0  0  0  0  0  0  0
   34.8167   19.6157   34.0156 H   0  0  0  0  0  0  0  0  0  0  0  0
   35.0645   21.2456   33.3024 H   0  0  0  0  0  0  0  0  0  0  0  0
   36.4066   20.0518   33.3024 H   0  0  0  0  0  0  0  0  0  0  0  0
  1  7  1  0
  1  2  2  0
  3  2  1  0
  4  3  2  0
  5  6  2  0
  5  4  1  0
  6  1  1  0
  8  9  1  0
  8  5  1  0
 10  9  1  0
  2 11  1  0
  3 12  1  0
  7 13  1  0
  7 14  1  0
  7 15  1  0
  9 16  1  0
  9 17  1  0
 10 18  1  0
 10 19  1  0
 10 20  1  0
M  ISO  8  11  14  12  14  13   8  14   8  15   8  16   8  17   8  18   8
M  ISO  2  19   8  20   8
M  END
>  <minimizedAffinity>  (1) 
-3.41847157

>  <minimizedRMSD>  (1) 
0.496809721

$$$$
