
     RDKit          3D

 18 18  0  0  0  0  0  0  0  0999 V2000
   39.9810   22.4360   37.2570 C   0  0  0  0  0  0  0  0  0  0  0  0
   39.3250   23.1330   38.2830 C   0  0  0  0  0  0  0  0  0  0  0  0
   38.1120   23.7710   38.0270 C   0  0  0  0  0  0  0  0  0  0  0  0
   37.6310   23.6760   36.7680 N   0  0  0  0  0  0  0  0  0  0  0  0
   38.2820   23.0000   35.7960 C   0  0  0  0  0  0  0  0  0  0  0  0
   39.4530   22.3820   36.0390 N   0  0  0  0  0  0  0  0  0  0  0  0
   41.2600   21.7610   37.5200 C   0  0  0  0  0  0  0  0  0  0  0  0
   37.6860   22.9750   34.5470 O   0  0  0  0  0  0  0  0  0  0  0  0
   37.4120   21.7950   33.8730 C   0  0  0  0  0  0  0  0  0  0  0  0
   38.5230   21.2750   33.1300 N   0  0  0  0  0  0  0  0  0  0  0  0
   36.3390   21.1370   33.8310 O   0  0  0  0  0  0  0  0  0  0  0  0
   39.7676   23.1761   39.2891 H   0  0  0  0  0  0  0  0  0  0  0  0
   37.5736   24.3240   38.8108 H   0  0  0  0  0  0  0  0  0  0  0  0
   41.4149   21.6792   38.6060 H   0  0  0  0  0  0  0  0  0  0  0  0
   41.2419   20.7550   37.0754 H   0  0  0  0  0  0  0  0  0  0  0  0
   42.0803   22.3436   37.0754 H   0  0  0  0  0  0  0  0  0  0  0  0
   38.4206   20.4011   32.5945 H   0  0  0  0  0  0  0  0  0  0  0  0
   39.4233   21.7754   33.1319 H   0  0  0  0  0  0  0  0  0  0  0  0
  1  7  1  0
  1  2  2  0
  3  2  1  0
  4  3  2  0
  5  6  2  0
  5  4  1  0
  6  1  1  0
  8  5  1  0
  9  8  1  0
 10  9  1  0
 11  9  2  0
  2 12  1  0
  3 13  1  0
  7 14  1  0
  7 15  1  0
  7 16  1  0
 10 17  1  0
 10 18  1  0
M  ISO  5  12  14  13  14  14   8  15   8  16   8
M  END
>  <minimizedAffinity>  (1) 
-3.32523322

>  <minimizedRMSD>  (1) 
1.43415654

$$$$
