
     RDKit          3D

 21 22  0  0  0  0  0  0  0  0999 V2000
   39.8830   22.5360   36.7920 C   0  0  0  0  0  0  0  0  0  0  0  0
   38.9960   23.2960   37.5670 C   0  0  0  0  0  0  0  0  0  0  0  0
   37.9480   23.9790   36.9180 C   0  0  0  0  0  0  0  0  0  0  0  0
   37.8710   23.8510   35.5710 N   0  0  0  0  0  0  0  0  0  0  0  0
   38.7430   23.1100   34.8540 C   0  0  0  0  0  0  0  0  0  0  0  0
   39.7550   22.4480   35.4630 N   0  0  0  0  0  0  0  0  0  0  0  0
   40.9800   21.8190   37.4640 C   0  0  0  0  0  0  0  0  0  0  0  0
   38.5740   23.0460   33.4840 O   0  0  0  0  0  0  0  0  0  0  0  0
   37.3580   22.5880   33.0020 C   0  0  0  0  0  0  0  0  0  0  0  0
   36.9890   21.3270   33.4400 C   0  0  0  0  0  0  0  0  0  0  0  0
   35.7500   21.0310   32.8610 C   0  0  0  0  0  0  0  0  0  0  0  0
   35.4630   22.1690   32.0990 C   0  0  0  0  0  0  0  0  0  0  0  0
   36.4250   23.0530   32.2090 O   0  0  0  0  0  0  0  0  0  0  0  0
   39.1155   23.3580   38.6587 H   0  0  0  0  0  0  0  0  0  0  0  0
   37.2249   24.5887   37.4796 H   0  0  0  0  0  0  0  0  0  0  0  0
   40.8570   21.8994   38.5541 H   0  0  0  0  0  0  0  0  0  0  0  0
   40.9598   20.7592   37.1699 H   0  0  0  0  0  0  0  0  0  0  0  0
   41.9425   22.2629   37.1699 H   0  0  0  0  0  0  0  0  0  0  0  0
   37.5635   20.6783   34.1176 H   0  0  0  0  0  0  0  0  0  0  0  0
   35.1450   20.1197   32.9773 H   0  0  0  0  0  0  0  0  0  0  0  0
   34.5557   22.3033   31.4917 H   0  0  0  0  0  0  0  0  0  0  0  0
  1  7  1  0
  1  2  2  0
  3  2  1  0
  4  3  2  0
  5  6  2  0
  5  4  1  0
  6  1  1  0
  8  5  1  0
  9 10  2  0
  9  8  1  0
 11 10  1  0
 12 13  1  0
 12 11  2  0
 13  9  1  0
  2 14  1  0
  3 15  1  0
  7 16  1  0
  7 17  1  0
  7 18  1  0
 10 19  1  0
 11 20  1  0
 12 21  1  0
M  ISO  8  14  14  15  14  16   8  17   8  18   8  19  14  20  14  21  14
M  END
>  <minimizedAffinity>  (1) 
-3.54042649

>  <minimizedRMSD>  (1) 
2.00491643

$$$$
