
     RDKit          3D

 53 56  0  0  1  0  0  0  0  0999 V2000
   36.8070   25.3400   31.9040 C   0  0  0  0  0  0  0  0  0  0  0  0
   37.4390   25.2590   33.1430 C   0  0  0  0  0  0  0  0  0  0  0  0
   37.4580   26.3000   33.9990 C   0  0  0  0  0  0  0  0  0  0  0  0
   36.8360   27.4590   33.6170 N   0  0  0  0  0  0  0  0  0  0  0  0
   36.2210   27.5440   32.4090 C   0  0  0  0  0  0  0  0  0  0  0  0
   36.2070   26.5240   31.5890 N   0  0  0  0  0  0  0  0  0  0  0  0
   38.1180   26.0770   35.2970 C   0  0  0  0  0  0  0  0  0  0  0  0
   38.0330   24.6590   35.6720 C   0  0  0  0  0  0  0  0  0  0  0  0
   39.2430   24.1880   36.3060 N   0  0  0  0  0  0  0  0  0  0  0  0
   40.0390   23.4020   35.3330 C   0  0  0  0  0  0  0  0  0  0  0  0
   41.0530   22.7330   36.2190 C   0  0  0  0  0  0  0  0  0  0  0  0
   40.3940   22.6580   37.5970 C   0  0  0  0  0  0  0  0  0  0  0  0
   38.9940   23.1740   37.2670 C   0  0  1  0  0  0  0  0  0  0  0  0
   38.4040   23.6780   38.5470 C   0  0  0  0  0  0  0  0  0  0  0  0
   39.2690   23.7400   39.5940 F   0  0  0  0  0  0  0  0  0  0  0  0
   37.2720   22.9530   38.8220 F   0  0  0  0  0  0  0  0  0  0  0  0
   37.9970   25.0120   38.3440 F   0  0  0  0  0  0  0  0  0  0  0  0
   35.5980   28.8400   32.0200 C   0  0  2  0  0  0  0  0  0  0  0  0
   36.3520   29.3990   30.7770 C   0  0  0  0  0  0  0  0  0  0  0  0
   35.7170   29.8850   33.0620 C   0  0  0  0  0  0  0  0  0  0  0  0
   34.5800   30.0210   33.9130 N   0  0  0  0  0  0  0  0  0  0  0  0
   33.3780   29.4320   33.6480 C   0  0  0  0  0  0  0  0  0  0  0  0
   32.4700   29.7140   34.6040 N   0  0  0  0  0  0  0  0  0  0  0  0
   33.0680   30.5040   35.5280 C   0  0  0  0  0  0  0  0  0  0  0  0
   32.6390   31.0930   36.7030 C   0  0  0  0  0  0  0  0  0  0  0  0
   33.5310   31.8280   37.3760 N   0  0  0  0  0  0  0  0  0  0  0  0
   34.7970   31.9940   36.9330 C   0  0  0  0  0  0  0  0  0  0  0  0
   35.2260   31.4220   35.7800 N   0  0  0  0  0  0  0  0  0  0  0  0
   34.3610   30.6720   35.0710 C   0  0  0  0  0  0  0  0  0  0  0  0
   31.2910   30.8530   37.0750 N   0  0  0  0  0  0  0  0  0  0  0  0
   36.7924   24.4866   31.2101 H   0  0  0  0  0  0  0  0  0  0  0  0
   37.9357   24.3205   33.4303 H   0  0  0  0  0  0  0  0  0  0  0  0
   39.1755   26.3704   35.2221 H   0  0  0  0  0  0  0  0  0  0  0  0
   37.6140   26.6823   36.0648 H   0  0  0  0  0  0  0  0  0  0  0  0
   37.1930   24.5270   36.3699 H   0  0  0  0  0  0  0  0  0  0  0  0
   37.8849   24.0749   34.7517 H   0  0  0  0  0  0  0  0  0  0  0  0
   40.5248   24.0563   34.5942 H   0  0  0  0  0  0  0  0  0  0  0  0
   39.4389   22.6974   34.7384 H   0  0  0  0  0  0  0  0  0  0  0  0
   41.2846   21.7241   35.8468 H   0  0  0  0  0  0  0  0  0  0  0  0
   42.0032   23.2865   36.2472 H   0  0  0  0  0  0  0  0  0  0  0  0
   40.3669   21.6265   37.9782 H   0  0  0  0  0  0  0  0  0  0  0  0
   40.9154   23.2214   38.3848 H   0  0  0  0  0  0  0  0  0  0  0  0
   38.2788   22.4423   36.8631 H   0  0  0  0  0  0  0  0  0  0  0  0
   34.5337   28.6291   31.8392 H   0  0  0  0  0  0  0  0  0  0  0  0
   37.1943   30.0235   31.1094 H   0  0  0  0  0  0  0  0  0  0  0  0
   36.7320   28.5627   30.1719 H   0  0  0  0  0  0  0  0  0  0  0  0
   35.6622   30.0056   30.1719 H   0  0  0  0  0  0  0  0  0  0  0  0
   36.5865   29.6425   33.6906 H   0  0  0  0  0  0  0  0  0  0  0  0
   35.8170   30.8414   32.5278 H   0  0  0  0  0  0  0  0  0  0  0  0
   33.1755   28.8064   32.7662 H   0  0  0  0  0  0  0  0  0  0  0  0
   35.4958   32.6071   37.5210 H   0  0  0  0  0  0  0  0  0  0  0  0
   30.9143   31.2654   37.9404 H   0  0  0  0  0  0  0  0  0  0  0  0
   30.6891   30.2663   36.4797 H   0  0  0  0  0  0  0  0  0  0  0  0
  1  2  2  0
  2  3  1  0
  3  7  1  0
  4  3  2  0
  5  4  1  0
  6  1  1  0
  6  5  2  0
  7  8  1  0
  8  9  1  0
  9 13  1  0
 10 11  1  0
 10  9  1  0
 11 12  1  0
 13 12  1  0
 13 14  1  0
 14 16  1  0
 14 15  1  0
 17 14  1  0
 18  5  1  0
 18 20  1  0
 19 18  1  0
 20 21  1  0
 21 29  1  0
 22 21  1  0
 22 23  2  0
 23 24  1  0
 24 25  2  0
 25 30  1  0
 25 26  1  0
 27 26  2  0
 28 27  1  0
 29 24  1  0
 29 28  2  0
  1 31  1  0
  2 32  1  0
  7 33  1  0
  7 34  1  0
  8 35  1  0
  8 36  1  0
 10 37  1  0
 10 38  1  0
 11 39  1  0
 11 40  1  0
 12 41  1  0
 12 42  1  0
 13 43  1  6
 18 44  1  6
 19 45  1  0
 19 46  1  0
 19 47  1  0
 20 48  1  0
 20 49  1  0
 22 50  1  0
 27 51  1  0
 30 52  1  0
 30 53  1  0
M  ISO  8  31  14  32  14  33   8  34   8  35   8  36   8  37  13  38  13
M  ISO  8  39  13  40  13  41  13  42  13  43  13  44   8  45   8  46   8
M  ISO  5  47   8  48   8  49   8  50  14  51  14
M  END
>  <minimizedAffinity>  (1) 
-6.80776787

>  <minimizedRMSD>  (1) 
2.23345041

$$$$
