
     RDKit          3D

 43 46  0  0  1  0  0  0  0  0999 V2000
   39.1470   26.7750   34.6320 C   0  0  0  0  0  0  0  0  0  0  0  0
   40.5390   26.7280   34.5770 C   0  0  0  0  0  0  0  0  0  0  0  0
   40.8860   27.0330   33.3130 N   0  0  0  0  0  0  0  0  0  0  0  0
   39.7870   27.2720   32.5700 C   0  0  0  0  0  0  0  0  0  0  0  0
   38.7590   27.1090   33.3890 N   0  0  0  0  0  0  0  0  0  0  0  0
   36.5830   27.7430   34.0990 N   0  0  0  0  0  0  0  0  0  0  0  0
   35.8060   28.8300   33.6390 C   0  0  0  0  0  0  0  0  0  0  0  0
   35.7770   28.7080   32.1220 C   0  0  0  0  0  0  0  0  0  0  0  0
   37.2170   28.2580   31.8750 C   0  0  0  0  0  0  0  0  0  0  0  0
   37.3730   27.2670   33.0010 C   0  0  1  0  0  0  0  0  0  0  0  0
   36.9120   25.9530   32.4920 C   0  0  0  0  0  0  0  0  0  0  0  0
   35.9040   26.1760   31.5430 C   0  0  0  0  0  0  0  0  0  0  0  0
   35.2700   25.1170   30.8840 C   0  0  0  0  0  0  0  0  0  0  0  0
   35.6500   23.8250   31.1810 C   0  0  0  0  0  0  0  0  0  0  0  0
   36.6420   23.6110   32.1130 C   0  0  0  0  0  0  0  0  0  0  0  0
   37.2670   24.6510   32.7630 C   0  0  0  0  0  0  0  0  0  0  0  0
   38.4300   26.5140   35.7860 O   0  0  0  0  0  0  0  0  0  0  0  0
   39.2970   23.1770   36.8230 C   0  0  0  0  0  0  0  0  0  0  0  0
   38.6910   23.1070   38.0960 C   0  0  0  0  0  0  0  0  0  0  0  0
   38.0030   24.2230   38.5490 C   0  0  0  0  0  0  0  0  0  0  0  0
   37.9430   25.3120   37.7640 N   0  0  0  0  0  0  0  0  0  0  0  0
   38.5400   25.3500   36.5340 C   0  0  0  0  0  0  0  0  0  0  0  0
   39.2090   24.2700   36.0890 N   0  0  0  0  0  0  0  0  0  0  0  0
   40.0290   22.0140   36.3210 C   0  0  0  0  0  0  0  0  0  0  0  0
   41.2214   26.4882   35.4058 H   0  0  0  0  0  0  0  0  0  0  0  0
   39.7514   27.5455   31.5051 H   0  0  0  0  0  0  0  0  0  0  0  0
   37.1988   28.0527   34.8643 H   0  0  0  0  0  0  0  0  0  0  0  0
   34.7863   28.7716   34.0473 H   0  0  0  0  0  0  0  0  0  0  0  0
   36.2291   29.7936   33.9592 H   0  0  0  0  0  0  0  0  0  0  0  0
   35.0488   27.9555   31.7851 H   0  0  0  0  0  0  0  0  0  0  0  0
   35.4737   29.6192   31.5856 H   0  0  0  0  0  0  0  0  0  0  0  0
   37.3333   27.7806   30.8908 H   0  0  0  0  0  0  0  0  0  0  0  0
   37.9616   29.0676   31.8613 H   0  0  0  0  0  0  0  0  0  0  0  0
   35.6044   27.2087   31.3110 H   0  0  0  0  0  0  0  0  0  0  0  0
   34.4819   25.3117   30.1417 H   0  0  0  0  0  0  0  0  0  0  0  0
   35.1662   22.9741   30.6791 H   0  0  0  0  0  0  0  0  0  0  0  0
   36.9434   22.5787   32.3444 H   0  0  0  0  0  0  0  0  0  0  0  0
   38.0538   24.4406   33.5024 H   0  0  0  0  0  0  0  0  0  0  0  0
   38.7621   22.1965   38.7092 H   0  0  0  0  0  0  0  0  0  0  0  0
   37.5146   24.2167   39.5346 H   0  0  0  0  0  0  0  0  0  0  0  0
   40.4020   21.4214   37.1693 H   0  0  0  0  0  0  0  0  0  0  0  0
   39.3576   21.3947   35.7081 H   0  0  0  0  0  0  0  0  0  0  0  0
   40.8778   22.3515   35.7081 H   0  0  0  0  0  0  0  0  0  0  0  0
  1 17  1  0
  2  1  2  0
  3  2  1  0
  4  3  2  0
  4  5  1  0
  5  1  1  0
  7  6  1  0
  8  7  1  0
  9  8  1  0
  9 10  1  0
 10 11  1  0
 10  5  1  1
 10  6  1  0
 11 16  1  0
 12 11  2  0
 13 14  2  0
 13 12  1  0
 14 15  1  0
 15 16  2  0
 17 22  1  0
 18 19  2  0
 19 20  1  0
 21 20  2  0
 22 21  1  0
 23 22  2  0
 23 18  1  0
 24 18  1  0
  2 25  1  0
  4 26  1  0
  6 27  1  0
  7 28  1  0
  7 29  1  0
  8 30  1  0
  8 31  1  0
  9 32  1  0
  9 33  1  0
 12 34  1  0
 13 35  1  0
 14 36  1  0
 15 37  1  0
 16 38  1  0
 19 39  1  0
 20 40  1  0
 24 41  1  0
 24 42  1  0
 24 43  1  0
M  ISO  8  25  14  26  14  27   5  28  13  29  13  30  13  31  13  32  13
M  ISO  8  33  13  34  14  35  14  36  14  37  14  38  14  39  14  40  14
M  ISO  3  41   8  42   8  43   8
M  END
>  <minimizedAffinity>  (1) 
-5.7266016

>  <minimizedRMSD>  (1) 
1.27627146

$$$$
