
     RDKit          3D

 44 48  0  0  1  0  0  0  0  0999 V2000
   36.9430   27.3840   34.1080 N   0  0  0  0  0  0  0  0  0  0  0  0
   36.1450   28.5030   34.4740 C   0  0  0  0  0  0  0  0  0  0  0  0
   35.4540   28.9660   33.2250 C   0  0  0  0  0  0  0  0  0  0  0  0
   36.5700   28.7570   32.1940 C   0  0  0  0  0  0  0  0  0  0  0  0
   37.1520   27.4730   32.6660 C   0  0  2  0  0  0  0  0  0  0  0  0
   36.4680   26.3500   32.0020 N   0  0  0  0  0  0  0  0  0  0  0  0
   35.5370   26.4770   31.0470 C   0  0  0  0  0  0  0  0  0  0  0  0
   35.1170   25.2640   30.6550 N   0  0  0  0  0  0  0  0  0  0  0  0
   35.7820   24.3470   31.3650 C   0  0  0  0  0  0  0  0  0  0  0  0
   35.7470   22.9660   31.3710 C   0  0  0  0  0  0  0  0  0  0  0  0
   36.5490   22.2680   32.2130 N   0  0  0  0  0  0  0  0  0  0  0  0
   37.3570   23.0010   33.0150 C   0  0  0  0  0  0  0  0  0  0  0  0
   37.4340   24.3590   33.0530 N   0  0  0  0  0  0  0  0  0  0  0  0
   36.6270   25.0230   32.2060 C   0  0  0  0  0  0  0  0  0  0  0  0
   39.5130   27.1070   33.2360 C   0  0  0  0  0  0  0  0  0  0  0  0
   40.6790   27.0020   32.4900 C   0  0  0  0  0  0  0  0  0  0  0  0
   40.3320   27.1460   31.2060 N   0  0  0  0  0  0  0  0  0  0  0  0
   39.0020   27.3370   31.0930 C   0  0  0  0  0  0  0  0  0  0  0  0
   38.5370   27.3090   32.3330 N   0  0  0  0  0  0  0  0  0  0  0  0
   39.4870   27.0080   34.6190 O   0  0  0  0  0  0  0  0  0  0  0  0
   40.0150   23.6980   35.9040 C   0  0  0  0  0  0  0  0  0  0  0  0
   38.9220   23.5610   36.7840 C   0  0  0  0  0  0  0  0  0  0  0  0
   38.0390   24.6300   36.8950 C   0  0  0  0  0  0  0  0  0  0  0  0
   38.2700   25.7370   36.1640 N   0  0  0  0  0  0  0  0  0  0  0  0
   39.3340   25.8370   35.3250 C   0  0  0  0  0  0  0  0  0  0  0  0
   40.1980   24.8060   35.2070 N   0  0  0  0  0  0  0  0  0  0  0  0
   40.9500   22.5810   35.7780 C   0  0  0  0  0  0  0  0  0  0  0  0
   37.8470   27.4161   34.6006 H   0  0  0  0  0  0  0  0  0  0  0  0
   35.4031   28.2084   35.2308 H   0  0  0  0  0  0  0  0  0  0  0  0
   36.7619   29.3049   34.9057 H   0  0  0  0  0  0  0  0  0  0  0  0
   34.5708   28.3509   32.9977 H   0  0  0  0  0  0  0  0  0  0  0  0
   35.0603   29.9920   33.2726 H   0  0  0  0  0  0  0  0  0  0  0  0
   37.3083   29.5718   32.2265 H   0  0  0  0  0  0  0  0  0  0  0  0
   36.2266   28.7434   31.1491 H   0  0  0  0  0  0  0  0  0  0  0  0
   35.1713   27.4330   30.6442 H   0  0  0  0  0  0  0  0  0  0  0  0
   35.0672   22.4313   30.6914 H   0  0  0  0  0  0  0  0  0  0  0  0
   38.0136   22.4459   33.7011 H   0  0  0  0  0  0  0  0  0  0  0  0
   41.6936   26.8328   32.8798 H   0  0  0  0  0  0  0  0  0  0  0  0
   38.4257   27.4847   30.1678 H   0  0  0  0  0  0  0  0  0  0  0  0
   38.7724   22.6385   37.3641 H   0  0  0  0  0  0  0  0  0  0  0  0
   37.1696   24.5722   37.5664 H   0  0  0  0  0  0  0  0  0  0  0  0
   41.2418   22.2324   36.7796 H   0  0  0  0  0  0  0  0  0  0  0  0
   40.4671   21.7587   35.2298 H   0  0  0  0  0  0  0  0  0  0  0  0
   41.8445   22.9116   35.2298 H   0  0  0  0  0  0  0  0  0  0  0  0
  1  2  1  0
  3  2  1  0
  4  5  1  0
  4  3  1  0
  5  6  1  6
  5  1  1  0
  6 14  1  0
  7  6  1  0
  8  7  2  0
  8  9  1  0
  9 10  2  0
  9 14  1  0
 10 11  1  0
 11 12  2  0
 12 13  1  0
 14 13  2  0
 15 20  1  0
 16 15  2  0
 17 16  1  0
 18 17  2  0
 18 19  1  0
 19  5  1  0
 19 15  1  0
 20 25  1  0
 21 22  2  0
 22 23  1  0
 24 23  2  0
 25 24  1  0
 26 25  2  0
 26 21  1  0
 27 21  1  0
  1 28  1  0
  2 29  1  0
  2 30  1  0
  3 31  1  0
  3 32  1  0
  4 33  1  0
  4 34  1  0
  7 35  1  0
 10 36  1  0
 12 37  1  0
 16 38  1  0
 18 39  1  0
 22 40  1  0
 23 41  1  0
 27 42  1  0
 27 43  1  0
 27 44  1  0
M  ISO  8  28   5  29  13  30  13  31  13  32  13  33  13  34  13  35  14
M  ISO  8  36  14  37  14  38  14  39  14  40  14  41  14  42   8  43   8
M  ISO  1  44   8
M  END
>  <minimizedAffinity>  (1) 
-5.91347694

>  <minimizedRMSD>  (1) 
1.42219126

$$$$
