
     RDKit          3D

 40 43  0  0  1  0  0  0  0  0999 V2000
   38.9210   24.9020   33.7470 C   0  0  0  0  0  0  0  0  0  0  0  0
   40.2490   24.5490   33.5310 C   0  0  0  0  0  0  0  0  0  0  0  0
   40.7170   25.3590   32.5710 N   0  0  0  0  0  0  0  0  0  0  0  0
   39.7580   26.2110   32.1620 C   0  0  0  0  0  0  0  0  0  0  0  0
   38.6740   25.9170   32.8910 N   0  0  0  0  0  0  0  0  0  0  0  0
   36.8210   26.8010   34.0880 N   0  0  0  0  0  0  0  0  0  0  0  0
   36.4220   28.1680   34.1700 C   0  0  0  0  0  0  0  0  0  0  0  0
   36.3490   28.6660   32.7300 C   0  0  0  0  0  0  0  0  0  0  0  0
   37.5660   27.9640   32.1630 C   0  0  0  0  0  0  0  0  0  0  0  0
   37.4090   26.5910   32.7820 C   0  0  1  0  0  0  0  0  0  0  0  0
   36.4110   25.8270   31.9870 C   0  0  0  0  0  0  0  0  0  0  0  0
   36.3550   24.4420   31.8030 C   0  0  0  0  0  0  0  0  0  0  0  0
   35.2790   24.1330   31.0000 C   0  0  0  0  0  0  0  0  0  0  0  0
   34.7060   25.3590   30.7180 C   0  0  0  0  0  0  0  0  0  0  0  0
   35.3950   26.2820   31.3080 O   0  0  0  0  0  0  0  0  0  0  0  0
   38.1130   24.2760   34.6760 O   0  0  0  0  0  0  0  0  0  0  0  0
   39.8750   22.7640   37.4240 C   0  0  0  0  0  0  0  0  0  0  0  0
   39.1740   23.2690   38.5180 C   0  0  0  0  0  0  0  0  0  0  0  0
   38.1000   24.1270   38.2740 C   0  0  0  0  0  0  0  0  0  0  0  0
   37.7960   24.4250   36.9970 N   0  0  0  0  0  0  0  0  0  0  0  0
   38.4960   23.9170   35.9480 C   0  0  0  0  0  0  0  0  0  0  0  0
   39.5400   23.0840   36.1770 N   0  0  0  0  0  0  0  0  0  0  0  0
   41.0040   21.8640   37.6630 C   0  0  0  0  0  0  0  0  0  0  0  0
   40.8085   23.7563   34.0492 H   0  0  0  0  0  0  0  0  0  0  0  0
   39.8467   26.9882   31.3886 H   0  0  0  0  0  0  0  0  0  0  0  0
   37.5133   26.5931   34.8218 H   0  0  0  0  0  0  0  0  0  0  0  0
   35.4381   28.2516   34.6547 H   0  0  0  0  0  0  0  0  0  0  0  0
   37.1290   28.7612   34.7685 H   0  0  0  0  0  0  0  0  0  0  0  0
   35.4216   28.3472   32.2317 H   0  0  0  0  0  0  0  0  0  0  0  0
   36.3408   29.7596   32.6118 H   0  0  0  0  0  0  0  0  0  0  0  0
   37.5337   27.9198   31.0644 H   0  0  0  0  0  0  0  0  0  0  0  0
   38.5235   28.4585   32.3836 H   0  0  0  0  0  0  0  0  0  0  0  0
   37.0592   23.7138   32.2319 H   0  0  0  0  0  0  0  0  0  0  0  0
   34.9512   23.1392   30.6611 H   0  0  0  0  0  0  0  0  0  0  0  0
   33.8136   25.5227   30.0961 H   0  0  0  0  0  0  0  0  0  0  0  0
   39.4593   22.9989   39.5454 H   0  0  0  0  0  0  0  0  0  0  0  0
   37.5163   24.5493   39.1052 H   0  0  0  0  0  0  0  0  0  0  0  0
   41.1544   21.7441   38.7460 H   0  0  0  0  0  0  0  0  0  0  0  0
   40.7932   20.8834   37.2113 H   0  0  0  0  0  0  0  0  0  0  0  0
   41.9129   22.2880   37.2113 H   0  0  0  0  0  0  0  0  0  0  0  0
  1 16  1  0
  2  1  2  0
  3  2  1  0
  4  3  2  0
  4  5  1  0
  5  1  1  0
  6  7  1  0
  8  7  1  0
  9  8  1  0
  9 10  1  0
 10 11  1  0
 10  5  1  1
 10  6  1  0
 12 11  2  0
 13 12  1  0
 14 13  2  0
 14 15  1  0
 15 11  1  0
 16 21  1  0
 17 23  1  0
 17 18  2  0
 19 18  1  0
 20 19  2  0
 21 22  2  0
 21 20  1  0
 22 17  1  0
  2 24  1  0
  4 25  1  0
  6 26  1  0
  7 27  1  0
  7 28  1  0
  8 29  1  0
  8 30  1  0
  9 31  1  0
  9 32  1  0
 12 33  1  0
 13 34  1  0
 14 35  1  0
 18 36  1  0
 19 37  1  0
 23 38  1  0
 23 39  1  0
 23 40  1  0
M  ISO  8  24  14  25  14  26   5  27  13  28  13  29  13  30  13  31  13
M  ISO  8  32  13  33  14  34  14  35  14  36  14  37  14  38   8  39   8
M  ISO  1  40   8
M  END
>  <minimizedAffinity>  (1) 
-5.66788054

>  <minimizedRMSD>  (1) 
0.82830888

$$$$
