
     RDKit          3D

 41 44  0  0  1  0  0  0  0  0999 V2000
   39.0690   25.7620   34.1320 C   0  0  0  0  0  0  0  0  0  0  0  0
   40.4400   25.6620   34.2590 C   0  0  0  0  0  0  0  0  0  0  0  0
   40.9740   26.4780   33.3450 N   0  0  0  0  0  0  0  0  0  0  0  0
   40.0130   27.0990   32.6360 C   0  0  0  0  0  0  0  0  0  0  0  0
   38.8570   26.6410   33.1390 N   0  0  0  0  0  0  0  0  0  0  0  0
   36.7110   27.4440   33.7750 N   0  0  0  0  0  0  0  0  0  0  0  0
   36.1130   28.6840   33.4250 C   0  0  0  0  0  0  0  0  0  0  0  0
   36.2460   28.8120   31.9180 C   0  0  0  0  0  0  0  0  0  0  0  0
   37.6460   28.2300   31.7370 C   0  0  0  0  0  0  0  0  0  0  0  0
   37.5690   27.0530   32.6630 C   0  0  1  0  0  0  0  0  0  0  0  0
   36.8460   25.9560   31.9600 C   0  0  0  0  0  0  0  0  0  0  0  0
   35.5420   26.1420   31.5860 C   0  0  0  0  0  0  0  0  0  0  0  0
   34.8240   25.1570   30.9330 C   0  0  0  0  0  0  0  0  0  0  0  0
   35.4160   23.9640   30.6450 N   0  0  0  0  0  0  0  0  0  0  0  0
   36.7020   23.8000   31.0220 C   0  0  0  0  0  0  0  0  0  0  0  0
   37.3940   24.7510   31.6530 N   0  0  0  0  0  0  0  0  0  0  0  0
   38.1830   25.0530   34.9190 O   0  0  0  0  0  0  0  0  0  0  0  0
   39.7420   22.9210   37.3570 C   0  0  0  0  0  0  0  0  0  0  0  0
   39.0120   23.2460   38.5160 C   0  0  0  0  0  0  0  0  0  0  0  0
   37.9990   24.1980   38.4050 C   0  0  0  0  0  0  0  0  0  0  0  0
   37.7600   24.7650   37.2120 N   0  0  0  0  0  0  0  0  0  0  0  0
   38.4860   24.4290   36.1080 C   0  0  0  0  0  0  0  0  0  0  0  0
   39.4650   23.5070   36.2130 N   0  0  0  0  0  0  0  0  0  0  0  0
   40.8150   21.9240   37.4320 C   0  0  0  0  0  0  0  0  0  0  0  0
   40.9878   25.0317   34.9750 H   0  0  0  0  0  0  0  0  0  0  0  0
   40.1468   27.8250   31.8205 H   0  0  0  0  0  0  0  0  0  0  0  0
   37.2711   27.5515   34.6327 H   0  0  0  0  0  0  0  0  0  0  0  0
   35.0521   28.6905   33.7155 H   0  0  0  0  0  0  0  0  0  0  0  0
   36.6017   29.5231   33.9418 H   0  0  0  0  0  0  0  0  0  0  0  0
   35.4846   28.2215   31.3874 H   0  0  0  0  0  0  0  0  0  0  0  0
   36.1070   29.8283   31.5208 H   0  0  0  0  0  0  0  0  0  0  0  0
   37.8260   27.9188   30.6974 H   0  0  0  0  0  0  0  0  0  0  0  0
   38.4668   28.9305   31.9503 H   0  0  0  0  0  0  0  0  0  0  0  0
   35.0523   27.1009   31.8111 H   0  0  0  0  0  0  0  0  0  0  0  0
   33.7771   25.3362   30.6467 H   0  0  0  0  0  0  0  0  0  0  0  0
   37.1994   22.8443   30.8002 H   0  0  0  0  0  0  0  0  0  0  0  0
   39.2338   22.7639   39.4795 H   0  0  0  0  0  0  0  0  0  0  0  0
   37.4027   24.4810   39.2849 H   0  0  0  0  0  0  0  0  0  0  0  0
   41.0444   21.7108   38.4865 H   0  0  0  0  0  0  0  0  0  0  0  0
   40.4913   20.9987   36.9329 H   0  0  0  0  0  0  0  0  0  0  0  0
   41.7140   22.3146   36.9329 H   0  0  0  0  0  0  0  0  0  0  0  0
  1  2  2  0
  1 17  1  0
  3  2  1  0
  4  5  1  0
  4  3  2  0
  5  1  1  0
  7  6  1  0
  8  7  1  0
  9  8  1  0
  9 10  1  0
 10 11  1  0
 10  5  1  1
 10  6  1  0
 12 11  2  0
 13 12  1  0
 14 13  2  0
 14 15  1  0
 15 16  2  0
 16 11  1  0
 17 22  1  0
 18 24  1  0
 18 19  2  0
 20 19  1  0
 21 20  2  0
 22 23  2  0
 22 21  1  0
 23 18  1  0
  2 25  1  0
  4 26  1  0
  6 27  1  0
  7 28  1  0
  7 29  1  0
  8 30  1  0
  8 31  1  0
  9 32  1  0
  9 33  1  0
 12 34  1  0
 13 35  1  0
 15 36  1  0
 19 37  1  0
 20 38  1  0
 24 39  1  0
 24 40  1  0
 24 41  1  0
M  ISO  8  25  14  26  14  27   5  28  13  29  13  30  13  31  13  32  13
M  ISO  8  33  13  34  14  35  14  36  14  37  14  38  14  39   8  40   8
M  ISO  1  41   8
M  END
>  <minimizedAffinity>  (1) 
-5.56021404

>  <minimizedRMSD>  (1) 
1.03794694

$$$$
