
     RDKit          3D

 49 52  0  0  1  0  0  0  0  0999 V2000
   38.9380   25.6490   34.4110 C   0  0  0  0  0  0  0  0  0  0  0  0
   40.3370   25.5980   34.3980 C   0  0  0  0  0  0  0  0  0  0  0  0
   40.7650   26.5030   33.5200 N   0  0  0  0  0  0  0  0  0  0  0  0
   39.7210   27.1400   32.9610 C   0  0  0  0  0  0  0  0  0  0  0  0
   38.6080   26.6050   33.5180 N   0  0  0  0  0  0  0  0  0  0  0  0
   36.6310   27.5910   34.3840 N   0  0  0  0  0  0  0  0  0  0  0  0
   36.0910   28.8700   34.0260 C   0  0  0  0  0  0  0  0  0  0  0  0
   36.0090   28.8850   32.5250 C   0  0  0  0  0  0  0  0  0  0  0  0
   37.3120   28.1740   32.2140 C   0  0  0  0  0  0  0  0  0  0  0  0
   37.2760   27.0170   33.1990 C   0  0  1  0  0  0  0  0  0  0  0  0
   36.3910   25.9640   32.5700 C   0  0  0  0  0  0  0  0  0  0  0  0
   35.5460   26.5080   31.4570 C   0  0  0  0  0  0  0  0  0  0  0  0
   34.8390   25.4920   30.6430 C   0  0  0  0  0  0  0  0  0  0  0  0
   35.3150   24.0850   30.7530 C   0  0  0  0  0  0  0  0  0  0  0  0
   36.8460   24.1550   30.9030 C   0  0  0  0  0  0  0  0  0  0  0  0
   37.0050   24.6270   32.3570 C   0  0  0  0  0  0  0  0  0  0  0  0
   38.1860   24.8480   35.2000 O   0  0  0  0  0  0  0  0  0  0  0  0
   39.9510   22.6780   37.4420 C   0  0  0  0  0  0  0  0  0  0  0  0
   39.3310   22.9820   38.6630 C   0  0  0  0  0  0  0  0  0  0  0  0
   38.3120   23.9370   38.6660 C   0  0  0  0  0  0  0  0  0  0  0  0
   37.9720   24.5190   37.5080 N   0  0  0  0  0  0  0  0  0  0  0  0
   38.5960   24.2010   36.3400 C   0  0  0  0  0  0  0  0  0  0  0  0
   39.5800   23.2780   36.3380 N   0  0  0  0  0  0  0  0  0  0  0  0
   41.0250   21.6820   37.4040 C   0  0  0  0  0  0  0  0  0  0  0  0
   40.9684   24.9311   35.0035 H   0  0  0  0  0  0  0  0  0  0  0  0
   39.7624   27.9362   32.2031 H   0  0  0  0  0  0  0  0  0  0  0  0
   37.3239   27.7038   35.1377 H   0  0  0  0  0  0  0  0  0  0  0  0
   35.0900   28.9975   34.4639 H   0  0  0  0  0  0  0  0  0  0  0  0
   36.7204   29.6903   34.4014 H   0  0  0  0  0  0  0  0  0  0  0  0
   35.1358   28.3288   32.1533 H   0  0  0  0  0  0  0  0  0  0  0  0
   35.8881   29.8773   32.0659 H   0  0  0  0  0  0  0  0  0  0  0  0
   37.3344   27.8148   31.1745 H   0  0  0  0  0  0  0  0  0  0  0  0
   38.2024   28.8129   32.3088 H   0  0  0  0  0  0  0  0  0  0  0  0
   35.6660   25.6978   33.3533 H   0  0  0  0  0  0  0  0  0  0  0  0
   34.7909   27.1749   31.8986 H   0  0  0  0  0  0  0  0  0  0  0  0
   36.2385   27.0183   30.7714 H   0  0  0  0  0  0  0  0  0  0  0  0
   34.9289   25.7910   29.5882 H   0  0  0  0  0  0  0  0  0  0  0  0
   33.8115   25.4769   31.0354 H   0  0  0  0  0  0  0  0  0  0  0  0
   34.8682   23.5999   31.6333 H   0  0  0  0  0  0  0  0  0  0  0  0
   35.0272   23.4962   29.8696 H   0  0  0  0  0  0  0  0  0  0  0  0
   37.3078   23.1683   30.7506 H   0  0  0  0  0  0  0  0  0  0  0  0
   37.3334   24.8125   30.1681 H   0  0  0  0  0  0  0  0  0  0  0  0
   36.5173   23.9002   33.0233 H   0  0  0  0  0  0  0  0  0  0  0  0
   38.0799   24.7036   32.5776 H   0  0  0  0  0  0  0  0  0  0  0  0
   39.6391   22.4817   39.5930 H   0  0  0  0  0  0  0  0  0  0  0  0
   37.7985   24.2062   39.6008 H   0  0  0  0  0  0  0  0  0  0  0  0
   41.3135   21.4145   38.4312 H   0  0  0  0  0  0  0  0  0  0  0  0
   40.6732   20.7834   36.8761 H   0  0  0  0  0  0  0  0  0  0  0  0
   41.8946   22.1004   36.8761 H   0  0  0  0  0  0  0  0  0  0  0  0
  1 17  1  0
  2  1  2  0
  3  2  1  0
  4  5  1  0
  4  3  2  0
  5  1  1  0
  7  6  1  0
  8  7  1  0
  9  8  1  0
  9 10  1  0
 10 11  1  0
 10  5  1  1
 10  6  1  0
 12 11  1  0
 13 14  1  0
 13 12  1  0
 14 15  1  0
 15 16  1  0
 16 11  1  0
 17 22  1  0
 18 19  2  0
 19 20  1  0
 21 20  2  0
 22 21  1  0
 23 22  2  0
 23 18  1  0
 24 18  1  0
  2 25  1  0
  4 26  1  0
  6 27  1  0
  7 28  1  0
  7 29  1  0
  8 30  1  0
  8 31  1  0
  9 32  1  0
  9 33  1  0
 11 34  1  0
 12 35  1  0
 12 36  1  0
 13 37  1  0
 13 38  1  0
 14 39  1  0
 14 40  1  0
 15 41  1  0
 15 42  1  0
 16 43  1  0
 16 44  1  0
 19 45  1  0
 20 46  1  0
 24 47  1  0
 24 48  1  0
 24 49  1  0
M  ISO  8  25  14  26  14  27   5  28  13  29  13  30  13  31  13  32  13
M  ISO  8  33  13  34  13  35  13  36  13  37  13  38  13  39  13  40  13
M  ISO  8  41  13  42  13  43  13  44  13  45  14  46  14  47   8  48   8
M  ISO  1  49   8
M  END
>  <minimizedAffinity>  (1) 
-5.54357338

>  <minimizedRMSD>  (1) 
0.875340819

$$$$
