
     RDKit          3D

 48 51  0  0  1  0  0  0  0  0999 V2000
   39.1940   24.9690   33.5580 C   0  0  0  0  0  0  0  0  0  0  0  0
   40.5380   24.8310   33.2480 C   0  0  0  0  0  0  0  0  0  0  0  0
   40.8710   25.8820   32.4780 N   0  0  0  0  0  0  0  0  0  0  0  0
   39.8040   26.6720   32.2900 C   0  0  0  0  0  0  0  0  0  0  0  0
   38.8050   26.1080   32.9470 N   0  0  0  0  0  0  0  0  0  0  0  0
   36.9600   26.6040   34.3710 N   0  0  0  0  0  0  0  0  0  0  0  0
   36.4630   27.9050   34.6940 C   0  0  0  0  0  0  0  0  0  0  0  0
   36.2430   28.6110   33.3900 C   0  0  0  0  0  0  0  0  0  0  0  0
   37.3880   28.0560   32.5600 C   0  0  0  0  0  0  0  0  0  0  0  0
   37.4600   26.6310   33.0060 C   0  0  1  0  0  0  0  0  0  0  0  0
   36.6750   25.7100   32.2310 N   0  0  0  0  0  0  0  0  0  0  0  0
   35.9760   26.2550   31.1100 C   0  0  0  0  0  0  0  0  0  0  0  0
   34.7550   25.3430   30.8940 C   0  0  0  0  0  0  0  0  0  0  0  0
   35.1550   23.8910   31.0440 C   0  0  0  0  0  0  0  0  0  0  0  0
   36.6660   23.7440   30.8160 C   0  0  0  0  0  0  0  0  0  0  0  0
   37.3460   24.4740   31.9370 C   0  0  0  0  0  0  0  0  0  0  0  0
   38.4940   24.0630   34.3430 O   0  0  0  0  0  0  0  0  0  0  0  0
   40.0200   22.6800   37.2820 C   0  0  0  0  0  0  0  0  0  0  0  0
   39.2450   23.2660   38.2990 C   0  0  0  0  0  0  0  0  0  0  0  0
   38.2160   24.1260   37.9240 C   0  0  0  0  0  0  0  0  0  0  0  0
   38.0080   24.3560   36.6160 N   0  0  0  0  0  0  0  0  0  0  0  0
   38.7800   23.7690   35.6580 C   0  0  0  0  0  0  0  0  0  0  0  0
   39.7780   22.9350   36.0190 N   0  0  0  0  0  0  0  0  0  0  0  0
   41.1130   21.7690   37.6530 C   0  0  0  0  0  0  0  0  0  0  0  0
   41.2046   24.0175   33.5702 H   0  0  0  0  0  0  0  0  0  0  0  0
   39.7672   27.6033   31.7058 H   0  0  0  0  0  0  0  0  0  0  0  0
   37.7226   26.3526   35.0161 H   0  0  0  0  0  0  0  0  0  0  0  0
   35.5156   27.8236   35.2469 H   0  0  0  0  0  0  0  0  0  0  0  0
   37.1716   28.4554   35.3304 H   0  0  0  0  0  0  0  0  0  0  0  0
   35.2666   28.3555   32.9525 H   0  0  0  0  0  0  0  0  0  0  0  0
   36.2298   29.7083   33.4662 H   0  0  0  0  0  0  0  0  0  0  0  0
   38.3272   28.5866   32.7756 H   0  0  0  0  0  0  0  0  0  0  0  0
   37.2336   28.1659   31.4764 H   0  0  0  0  0  0  0  0  0  0  0  0
   35.6523   27.2843   31.3238 H   0  0  0  0  0  0  0  0  0  0  0  0
   36.6145   26.2957   30.2152 H   0  0  0  0  0  0  0  0  0  0  0  0
   34.3533   25.5068   29.8832 H   0  0  0  0  0  0  0  0  0  0  0  0
   33.9890   25.5841   31.6458 H   0  0  0  0  0  0  0  0  0  0  0  0
   34.9028   23.5451   32.0573 H   0  0  0  0  0  0  0  0  0  0  0  0
   34.6141   23.2857   30.3016 H   0  0  0  0  0  0  0  0  0  0  0  0
   36.9494   22.6812   30.8291 H   0  0  0  0  0  0  0  0  0  0  0  0
   36.9602   24.1570   29.8399 H   0  0  0  0  0  0  0  0  0  0  0  0
   37.3397   23.8392   32.8353 H   0  0  0  0  0  0  0  0  0  0  0  0
   38.3781   24.7006   31.6313 H   0  0  0  0  0  0  0  0  0  0  0  0
   39.4458   23.0513   39.3590 H   0  0  0  0  0  0  0  0  0  0  0  0
   37.5846   24.6086   38.6846 H   0  0  0  0  0  0  0  0  0  0  0  0
   41.1845   21.7094   38.7490 H   0  0  0  0  0  0  0  0  0  0  0  0
   40.9110   20.7681   37.2437 H   0  0  0  0  0  0  0  0  0  0  0  0
   42.0611   22.1480   37.2437 H   0  0  0  0  0  0  0  0  0  0  0  0
  1 17  1  0
  2  1  2  0
  3  2  1  0
  4  3  2  0
  4  5  1  0
 10  5  1  1
  5  1  1  0
  6  7  1  0
  8  7  1  0
  9 10  1  0
  9  8  1  0
 10 11  1  0
 10  6  1  0
 12 11  1  0
 13 14  1  0
 13 12  1  0
 15 14  1  0
 15 16  1  0
 16 11  1  0
 17 22  1  0
 18 24  1  0
 18 19  2  0
 20 19  1  0
 21 20  2  0
 22 23  2  0
 22 21  1  0
 23 18  1  0
  2 25  1  0
  4 26  1  0
  6 27  1  0
  7 28  1  0
  7 29  1  0
  8 30  1  0
  8 31  1  0
  9 32  1  0
  9 33  1  0
 12 34  1  0
 12 35  1  0
 13 36  1  0
 13 37  1  0
 14 38  1  0
 14 39  1  0
 15 40  1  0
 15 41  1  0
 16 42  1  0
 16 43  1  0
 19 44  1  0
 20 45  1  0
 24 46  1  0
 24 47  1  0
 24 48  1  0
M  ISO  8  25  14  26  14  27   5  28  13  29  13  30  13  31  13  32  13
M  ISO  8  33  13  34  13  35  13  36  13  37  13  38  13  39  13  40  13
M  ISO  8  41  13  42  13  43  13  44  14  45  14  46   8  47   8  48   8
M  END
>  <minimizedAffinity>  (1) 
-5.59847784

>  <minimizedRMSD>  (1) 
1.02104533

$$$$
