
     RDKit          3D

 46 49  0  0  1  0  0  0  0  0999 V2000
   39.1710   26.4310   34.4850 C   0  0  0  0  0  0  0  0  0  0  0  0
   40.4860   26.6930   34.8770 C   0  0  0  0  0  0  0  0  0  0  0  0
   41.1190   27.2090   33.8130 N   0  0  0  0  0  0  0  0  0  0  0  0
   40.2770   27.2880   32.7650 C   0  0  0  0  0  0  0  0  0  0  0  0
   39.0960   26.8090   33.1980 N   0  0  0  0  0  0  0  0  0  0  0  0
   36.7750   27.2450   33.0760 N   0  0  0  0  0  0  0  0  0  0  0  0
   36.1260   28.2020   32.2180 C   0  0  0  0  0  0  0  0  0  0  0  0
   36.6350   27.9620   30.8430 C   0  0  0  0  0  0  0  0  0  0  0  0
   38.0430   27.4780   31.0930 C   0  0  0  0  0  0  0  0  0  0  0  0
   37.9260   26.7160   32.3710 C   0  0  1  0  0  0  0  0  0  0  0  0
   37.7350   25.2260   32.1260 C   0  0  0  0  0  0  0  0  0  0  0  0
   38.3460   24.7820   30.8160 C   0  0  0  0  0  0  0  0  0  0  0  0
   37.5520   23.5410   30.4220 C   0  0  0  0  0  0  0  0  0  0  0  0
   36.5450   23.3300   31.5650 C   0  0  0  0  0  0  0  0  0  0  0  0
   36.3000   24.8200   31.8900 C   0  0  0  0  0  0  0  0  0  0  0  0
   38.2220   25.8950   35.3250 O   0  0  0  0  0  0  0  0  0  0  0  0
   39.5500   23.0540   37.0530 C   0  0  0  0  0  0  0  0  0  0  0  0
   38.9090   23.1610   38.3090 C   0  0  0  0  0  0  0  0  0  0  0  0
   38.0320   24.2260   38.5090 C   0  0  0  0  0  0  0  0  0  0  0  0
   37.8340   25.0970   37.5130 N   0  0  0  0  0  0  0  0  0  0  0  0
   38.4710   24.9610   36.3120 C   0  0  0  0  0  0  0  0  0  0  0  0
   39.3240   23.9320   36.1060 N   0  0  0  0  0  0  0  0  0  0  0  0
   40.4650   21.9360   36.8410 C   0  0  0  0  0  0  0  0  0  0  0  0
   40.9205   26.5105   35.8710 H   0  0  0  0  0  0  0  0  0  0  0  0
   40.5077   27.6673   31.7586 H   0  0  0  0  0  0  0  0  0  0  0  0
   37.0795   27.7057   33.9454 H   0  0  0  0  0  0  0  0  0  0  0  0
   35.0357   28.0592   32.2483 H   0  0  0  0  0  0  0  0  0  0  0  0
   36.3389   29.2310   32.5432 H   0  0  0  0  0  0  0  0  0  0  0  0
   36.6330   28.8893   30.2513 H   0  0  0  0  0  0  0  0  0  0  0  0
   36.0235   27.2510   30.2680 H   0  0  0  0  0  0  0  0  0  0  0  0
   38.3858   26.8259   30.2761 H   0  0  0  0  0  0  0  0  0  0  0  0
   38.7750   28.2972   31.1474 H   0  0  0  0  0  0  0  0  0  0  0  0
   38.1778   24.7878   33.0326 H   0  0  0  0  0  0  0  0  0  0  0  0
   38.2423   25.5677   30.0531 H   0  0  0  0  0  0  0  0  0  0  0  0
   39.4229   24.5768   30.9064 H   0  0  0  0  0  0  0  0  0  0  0  0
   37.0264   23.7050   29.4697 H   0  0  0  0  0  0  0  0  0  0  0  0
   38.2013   22.6649   30.2778 H   0  0  0  0  0  0  0  0  0  0  0  0
   35.6310   22.8181   31.2295 H   0  0  0  0  0  0  0  0  0  0  0  0
   36.8785   22.6959   32.3997 H   0  0  0  0  0  0  0  0  0  0  0  0
   35.8479   25.3612   31.0457 H   0  0  0  0  0  0  0  0  0  0  0  0
   35.6002   25.0243   32.7137 H   0  0  0  0  0  0  0  0  0  0  0  0
   39.0969   22.4253   39.1049 H   0  0  0  0  0  0  0  0  0  0  0  0
   37.5112   24.3482   39.4702 H   0  0  0  0  0  0  0  0  0  0  0  0
   40.7901   21.5387   37.8139 H   0  0  0  0  0  0  0  0  0  0  0  0
   39.9520   21.1447   36.2747 H   0  0  0  0  0  0  0  0  0  0  0  0
   41.3421   22.2824   36.2747 H   0  0  0  0  0  0  0  0  0  0  0  0
  1  2  2  0
  1 16  1  0
  3  2  1  0
  4  5  1  0
  4  3  2  0
  5  1  1  0
  7  6  1  0
  8  9  1  0
  8  7  1  0
  9 10  1  0
 10 11  1  0
 10  6  1  0
 10  5  1  1
 12 11  1  0
 13 12  1  0
 13 14  1  0
 14 15  1  0
 15 11  1  0
 16 21  1  0
 17 18  2  0
 18 19  1  0
 20 19  2  0
 21 20  1  0
 22 21  2  0
 22 17  1  0
 23 17  1  0
  2 24  1  0
  4 25  1  0
  6 26  1  0
  7 27  1  0
  7 28  1  0
  8 29  1  0
  8 30  1  0
  9 31  1  0
  9 32  1  0
 11 33  1  0
 12 34  1  0
 12 35  1  0
 13 36  1  0
 13 37  1  0
 14 38  1  0
 14 39  1  0
 15 40  1  0
 15 41  1  0
 18 42  1  0
 19 43  1  0
 23 44  1  0
 23 45  1  0
 23 46  1  0
M  ISO  8  24  14  25  14  26   5  27  13  28  13  29  13  30  13  31  13
M  ISO  8  32  13  33  13  34  13  35  13  36  13  37  13  38  13  39  13
M  ISO  7  40  13  41  13  42  14  43  14  44   8  45   8  46   8
M  END
>  <minimizedAffinity>  (1) 
-5.24814463

>  <minimizedRMSD>  (1) 
1.61401153

$$$$
