
     RDKit          3D

 38 41  0  0  1  0  0  0  0  0999 V2000
   38.9600   24.1840   33.2620 C   0  0  0  0  0  0  0  0  0  0  0  0
   40.1620   23.7600   32.7280 C   0  0  0  0  0  0  0  0  0  0  0  0
   40.5420   24.6880   31.8400 N   0  0  0  0  0  0  0  0  0  0  0  0
   39.6420   25.6840   31.7790 C   0  0  0  0  0  0  0  0  0  0  0  0
   38.6940   25.3610   32.6460 N   0  0  0  0  0  0  0  0  0  0  0  0
   37.0790   26.0180   34.2660 N   0  0  0  0  0  0  0  0  0  0  0  0
   36.9000   27.3460   34.7820 C   0  0  0  0  0  0  0  0  0  0  0  0
   36.6980   28.2290   33.5570 C   0  0  0  0  0  0  0  0  0  0  0  0
   37.7250   27.6040   32.6190 C   0  0  0  0  0  0  0  0  0  0  0  0
   37.5300   26.1580   32.9000 C   0  0  1  0  0  0  0  0  0  0  0  0
   36.4420   25.5890   32.0360 C   0  0  0  0  0  0  0  0  0  0  0  0
   36.1550   24.2700   31.9240 N   0  0  0  0  0  0  0  0  0  0  0  0
   35.1640   24.1060   31.1020 O   0  0  0  0  0  0  0  0  0  0  0  0
   34.8050   25.2940   30.6800 C   0  0  0  0  0  0  0  0  0  0  0  0
   35.5720   26.2310   31.2350 N   0  0  0  0  0  0  0  0  0  0  0  0
   38.2570   23.4750   34.2230 O   0  0  0  0  0  0  0  0  0  0  0  0
   40.0560   22.5060   37.1870 C   0  0  0  0  0  0  0  0  0  0  0  0
   39.3060   23.1370   38.1810 C   0  0  0  0  0  0  0  0  0  0  0  0
   38.1980   23.8800   37.7920 C   0  0  0  0  0  0  0  0  0  0  0  0
   37.8900   23.9650   36.4920 N   0  0  0  0  0  0  0  0  0  0  0  0
   38.6510   23.3310   35.5390 C   0  0  0  0  0  0  0  0  0  0  0  0
   39.7140   22.6190   35.9240 N   0  0  0  0  0  0  0  0  0  0  0  0
   41.2340   21.7120   37.5580 C   0  0  0  0  0  0  0  0  0  0  0  0
   40.7032   22.8370   32.9833 H   0  0  0  0  0  0  0  0  0  0  0  0
   39.6838   26.5800   31.1423 H   0  0  0  0  0  0  0  0  0  0  0  0
   37.7840   25.5135   34.8222 H   0  0  0  0  0  0  0  0  0  0  0  0
   36.0179   27.3890   35.4377 H   0  0  0  0  0  0  0  0  0  0  0  0
   37.7606   27.6714   35.3849 H   0  0  0  0  0  0  0  0  0  0  0  0
   35.6761   28.1484   33.1579 H   0  0  0  0  0  0  0  0  0  0  0  0
   36.8227   29.3076   33.7335 H   0  0  0  0  0  0  0  0  0  0  0  0
   38.7466   27.9285   32.8660 H   0  0  0  0  0  0  0  0  0  0  0  0
   37.5976   27.8797   31.5618 H   0  0  0  0  0  0  0  0  0  0  0  0
   33.9880   25.4891   29.9698 H   0  0  0  0  0  0  0  0  0  0  0  0
   39.5841   23.0486   39.2416 H   0  0  0  0  0  0  0  0  0  0  0  0
   37.5806   24.3928   38.5442 H   0  0  0  0  0  0  0  0  0  0  0  0
   41.3109   21.6602   38.6541 H   0  0  0  0  0  0  0  0  0  0  0  0
   41.1348   20.6957   37.1489 H   0  0  0  0  0  0  0  0  0  0  0  0
   42.1388   22.1852   37.1489 H   0  0  0  0  0  0  0  0  0  0  0  0
  1 16  1  0
  2  1  2  0
  3  2  1  0
  4  3  2  0
  4  5  1  0
 10  5  1  1
  5  1  1  0
  6  7  1  0
  8  7  1  0
  9 10  1  0
  9  8  1  0
 10 11  1  0
 10  6  1  0
 12 11  2  0
 13 12  1  0
 14 13  1  0
 14 15  2  0
 15 11  1  0
 16 21  1  0
 17 23  1  0
 17 18  2  0
 19 18  1  0
 20 19  2  0
 21 22  2  0
 21 20  1  0
 22 17  1  0
  2 24  1  0
  4 25  1  0
  6 26  1  0
  7 27  1  0
  7 28  1  0
  8 29  1  0
  8 30  1  0
  9 31  1  0
  9 32  1  0
 14 33  1  0
 18 34  1  0
 19 35  1  0
 23 36  1  0
 23 37  1  0
 23 38  1  0
M  ISO  8  24  14  25  14  26   5  27  13  28  13  29  13  30  13  31  13
M  ISO  7  32  13  33  14  34  14  35  14  36   8  37   8  38   8
M  END
>  <minimizedAffinity>  (1) 
-5.3961606

>  <minimizedRMSD>  (1) 
1.2077589

$$$$
