
     RDKit          3D

 45 48  0  0  1  0  0  0  0  0999 V2000
   39.2570   26.1530   34.4410 C   0  0  0  0  0  0  0  0  0  0  0  0
   40.5030   26.4590   34.9600 C   0  0  0  0  0  0  0  0  0  0  0  0
   41.1560   27.1520   34.0050 N   0  0  0  0  0  0  0  0  0  0  0  0
   40.3850   27.2960   32.9150 C   0  0  0  0  0  0  0  0  0  0  0  0
   39.2400   26.6810   33.2050 N   0  0  0  0  0  0  0  0  0  0  0  0
   36.8690   26.8570   33.0090 N   0  0  0  0  0  0  0  0  0  0  0  0
   36.1570   27.8070   32.2320 C   0  0  0  0  0  0  0  0  0  0  0  0
   36.7340   27.7630   30.8480 C   0  0  0  0  0  0  0  0  0  0  0  0
   38.2170   27.5350   31.1540 C   0  0  0  0  0  0  0  0  0  0  0  0
   38.1230   26.5950   32.3070 C   0  0  1  0  0  0  0  0  0  0  0  0
   38.0610   25.2430   31.8940 N   0  0  0  0  0  0  0  0  0  0  0  0
   38.9120   24.7750   30.8840 C   0  0  0  0  0  0  0  0  0  0  0  0
   38.1010   23.7680   30.1180 C   0  0  0  0  0  0  0  0  0  0  0  0
   36.9200   23.4620   31.0000 C   0  0  0  0  0  0  0  0  0  0  0  0
   36.9410   24.4700   32.1130 C   0  0  0  0  0  0  0  0  0  0  0  0
   38.3160   25.4400   35.1530 O   0  0  0  0  0  0  0  0  0  0  0  0
   39.7060   22.9790   37.3770 C   0  0  0  0  0  0  0  0  0  0  0  0
   38.9740   23.2090   38.5420 C   0  0  0  0  0  0  0  0  0  0  0  0
   38.0180   24.2170   38.5180 C   0  0  0  0  0  0  0  0  0  0  0  0
   37.8360   24.9210   37.3900 N   0  0  0  0  0  0  0  0  0  0  0  0
   38.5680   24.6700   36.2680 C   0  0  0  0  0  0  0  0  0  0  0  0
   39.4930   23.6960   36.2910 N   0  0  0  0  0  0  0  0  0  0  0  0
   40.7310   21.9230   37.3490 C   0  0  0  0  0  0  0  0  0  0  0  0
   40.8855   26.1899   35.9556 H   0  0  0  0  0  0  0  0  0  0  0  0
   40.6446   27.8131   31.9795 H   0  0  0  0  0  0  0  0  0  0  0  0
   37.0601   27.2373   33.9469 H   0  0  0  0  0  0  0  0  0  0  0  0
   35.0884   27.5475   32.2041 H   0  0  0  0  0  0  0  0  0  0  0  0
   36.2486   28.8147   32.6635 H   0  0  0  0  0  0  0  0  0  0  0  0
   36.5733   28.7109   30.3135 H   0  0  0  0  0  0  0  0  0  0  0  0
   36.2845   27.0009   30.1944 H   0  0  0  0  0  0  0  0  0  0  0  0
   38.7408   27.0785   30.3012 H   0  0  0  0  0  0  0  0  0  0  0  0
   38.7859   28.4536   31.3605 H   0  0  0  0  0  0  0  0  0  0  0  0
   39.2210   25.6012   30.2268 H   0  0  0  0  0  0  0  0  0  0  0  0
   39.8323   24.3340   31.2945 H   0  0  0  0  0  0  0  0  0  0  0  0
   37.7673   24.1903   29.1587 H   0  0  0  0  0  0  0  0  0  0  0  0
   38.6828   22.8651   29.8808 H   0  0  0  0  0  0  0  0  0  0  0  0
   35.9855   23.5498   30.4264 H   0  0  0  0  0  0  0  0  0  0  0  0
   36.9749   22.4363   31.3936 H   0  0  0  0  0  0  0  0  0  0  0  0
   37.0084   23.9642   33.0875 H   0  0  0  0  0  0  0  0  0  0  0  0
   36.0243   25.0779   32.1280 H   0  0  0  0  0  0  0  0  0  0  0  0
   39.1479   22.6122   39.4495 H   0  0  0  0  0  0  0  0  0  0  0  0
   37.4173   24.4355   39.4132 H   0  0  0  0  0  0  0  0  0  0  0  0
   41.0001   21.6458   38.3789 H   0  0  0  0  0  0  0  0  0  0  0  0
   40.3350   21.0415   36.8236 H   0  0  0  0  0  0  0  0  0  0  0  0
   41.6239   22.2926   36.8236 H   0  0  0  0  0  0  0  0  0  0  0  0
  1  2  2  0
  1 16  1  0
  3  2  1  0
  4  5  1  0
  4  3  2  0
  5  1  1  0
  7  6  1  0
  8  9  1  0
  8  7  1  0
  9 10  1  0
 10  6  1  0
 10  5  1  1
 11 12  1  0
 11 15  1  0
 11 10  1  0
 13 12  1  0
 13 14  1  0
 14 15  1  0
 16 21  1  0
 17 18  2  0
 19 18  1  0
 20 19  2  0
 21 22  2  0
 21 20  1  0
 22 17  1  0
 23 17  1  0
  2 24  1  0
  4 25  1  0
  6 26  1  0
  7 27  1  0
  7 28  1  0
  8 29  1  0
  8 30  1  0
  9 31  1  0
  9 32  1  0
 12 33  1  0
 12 34  1  0
 13 35  1  0
 13 36  1  0
 14 37  1  0
 14 38  1  0
 15 39  1  0
 15 40  1  0
 18 41  1  0
 19 42  1  0
 23 43  1  0
 23 44  1  0
 23 45  1  0
M  ISO  8  24  14  25  14  26   5  27  13  28  13  29  13  30  13  31  13
M  ISO  8  32  13  33  13  34  13  35  13  36  13  37  13  38  13  39  13
M  ISO  6  40  13  41  14  42  14  43   8  44   8  45   8
M  END
>  <minimizedAffinity>  (1) 
-5.29235125

>  <minimizedRMSD>  (1) 
1.82720625

$$$$
