
     RDKit          3D

 42 44  0  0  1  0  0  0  0  0999 V2000
   39.2300   25.8890   34.2190 C   0  0  0  0  0  0  0  0  0  0  0  0
   40.4980   26.1920   34.7020 C   0  0  0  0  0  0  0  0  0  0  0  0
   41.0560   27.0390   33.8320 N   0  0  0  0  0  0  0  0  0  0  0  0
   40.2120   27.2910   32.8190 C   0  0  0  0  0  0  0  0  0  0  0  0
   39.0890   26.5740   33.0700 N   0  0  0  0  0  0  0  0  0  0  0  0
   36.7370   26.8470   33.0180 N   0  0  0  0  0  0  0  0  0  0  0  0
   36.0040   27.8950   32.3770 C   0  0  0  0  0  0  0  0  0  0  0  0
   36.5260   27.9820   30.9770 C   0  0  0  0  0  0  0  0  0  0  0  0
   37.9990   27.7160   31.2260 C   0  0  0  0  0  0  0  0  0  0  0  0
   37.9250   26.5660   32.2360 C   0  0  1  0  0  0  0  0  0  0  0  0
   37.7010   25.3400   31.4120 C   0  0  0  0  0  0  0  0  0  0  0  0
   38.9950   24.8060   30.8080 C   0  0  0  0  0  0  0  0  0  0  0  0
   36.8040   24.2840   31.9620 C   0  0  0  0  0  0  0  0  0  0  0  0
   38.3790   25.0420   34.8730 O   0  0  0  0  0  0  0  0  0  0  0  0
   39.8030   22.8990   37.3700 C   0  0  0  0  0  0  0  0  0  0  0  0
   39.0130   23.2120   38.4900 C   0  0  0  0  0  0  0  0  0  0  0  0
   38.0050   24.1640   38.3370 C   0  0  0  0  0  0  0  0  0  0  0  0
   37.8310   24.7370   37.1410 N   0  0  0  0  0  0  0  0  0  0  0  0
   38.6190   24.4080   36.0710 C   0  0  0  0  0  0  0  0  0  0  0  0
   39.5950   23.4890   36.2100 N   0  0  0  0  0  0  0  0  0  0  0  0
   40.8720   21.9010   37.4960 C   0  0  0  0  0  0  0  0  0  0  0  0
   40.9553   25.8073   35.6255 H   0  0  0  0  0  0  0  0  0  0  0  0
   40.3952   27.9487   31.9565 H   0  0  0  0  0  0  0  0  0  0  0  0
   37.0083   27.1435   33.9664 H   0  0  0  0  0  0  0  0  0  0  0  0
   34.9300   27.6575   32.3683 H   0  0  0  0  0  0  0  0  0  0  0  0
   36.1276   28.8502   32.9083 H   0  0  0  0  0  0  0  0  0  0  0  0
   36.3594   28.9779   30.5407 H   0  0  0  0  0  0  0  0  0  0  0  0
   36.0469   27.2977   30.2613 H   0  0  0  0  0  0  0  0  0  0  0  0
   38.5153   27.4106   30.3040 H   0  0  0  0  0  0  0  0  0  0  0  0
   38.5635   28.5919   31.5784 H   0  0  0  0  0  0  0  0  0  0  0  0
   37.0767   25.7144   30.5874 H   0  0  0  0  0  0  0  0  0  0  0  0
   39.6860   24.5208   31.6150 H   0  0  0  0  0  0  0  0  0  0  0  0
   38.7737   23.9257   30.1866 H   0  0  0  0  0  0  0  0  0  0  0  0
   39.4589   25.5862   30.1866 H   0  0  0  0  0  0  0  0  0  0  0  0
   36.8311   24.3159   33.0612 H   0  0  0  0  0  0  0  0  0  0  0  0
   35.7750   24.4599   31.6153 H   0  0  0  0  0  0  0  0  0  0  0  0
   37.1440   23.2970   31.6153 H   0  0  0  0  0  0  0  0  0  0  0  0
   39.1848   22.7204   39.4589 H   0  0  0  0  0  0  0  0  0  0  0  0
   37.3631   24.4392   39.1868 H   0  0  0  0  0  0  0  0  0  0  0  0
   41.0740   21.7125   38.5607 H   0  0  0  0  0  0  0  0  0  0  0  0
   40.5587   20.9648   37.0108 H   0  0  0  0  0  0  0  0  0  0  0  0
   41.7845   22.2778   37.0108 H   0  0  0  0  0  0  0  0  0  0  0  0
  1  2  2  0
  1 14  1  0
  3  2  1  0
  4  5  1  0
  4  3  2  0
  5  1  1  0
  7  6  1  0
  8  9  1  0
  8  7  1  0
  9 10  1  0
 10 11  1  6
 10  6  1  0
 10  5  1  0
 11 13  1  0
 12 11  1  0
 14 19  1  0
 15 21  1  0
 15 16  2  0
 17 16  1  0
 18 17  2  0
 19 20  2  0
 19 18  1  0
 20 15  1  0
  2 22  1  0
  4 23  1  0
  6 24  1  0
  7 25  1  0
  7 26  1  0
  8 27  1  0
  8 28  1  0
  9 29  1  0
  9 30  1  0
 11 31  1  0
 12 32  1  0
 12 33  1  0
 12 34  1  0
 13 35  1  0
 13 36  1  0
 13 37  1  0
 16 38  1  0
 17 39  1  0
 21 40  1  0
 21 41  1  0
 21 42  1  0
M  ISO  8  22  14  23  14  24   5  25  13  26  13  27  13  28  13  29  13
M  ISO  8  30  13  31   8  32   8  33   8  34   8  35   8  36   8  37   8
M  ISO  5  38  14  39  14  40   8  41   8  42   8
M  END
>  <minimizedAffinity>  (1) 
-4.8944149

>  <minimizedRMSD>  (1) 
1.45183659

$$$$
