
     RDKit          3D

 35 37  0  0  1  0  0  0  0  0999 V2000
   39.0270   25.3510   33.6910 C   0  0  0  0  0  0  0  0  0  0  0  0
   40.3920   25.2860   33.4910 C   0  0  0  0  0  0  0  0  0  0  0  0
   40.7340   26.3730   32.7810 N   0  0  0  0  0  0  0  0  0  0  0  0
   39.6530   27.1280   32.5190 C   0  0  0  0  0  0  0  0  0  0  0  0
   38.6260   26.4880   33.0810 N   0  0  0  0  0  0  0  0  0  0  0  0
   36.7600   27.2090   34.3790 N   0  0  0  0  0  0  0  0  0  0  0  0
   36.1730   28.5170   34.3580 C   0  0  0  0  0  0  0  0  0  0  0  0
   35.8430   28.7840   32.8990 C   0  0  0  0  0  0  0  0  0  0  0  0
   37.1060   28.2080   32.2330 C   0  0  0  0  0  0  0  0  0  0  0  0
   37.2700   26.9560   33.0400 C   0  0  1  0  0  0  0  0  0  0  0  0
   36.4470   25.9200   32.4150 N   0  0  0  0  0  0  0  0  0  0  0  0
   38.3180   24.3930   34.3890 O   0  0  0  0  0  0  0  0  0  0  0  0
   39.8090   22.8130   37.2530 C   0  0  0  0  0  0  0  0  0  0  0  0
   39.0080   23.2930   38.2970 C   0  0  0  0  0  0  0  0  0  0  0  0
   37.9660   24.1590   37.9610 C   0  0  0  0  0  0  0  0  0  0  0  0
   37.7800   24.4880   36.6790 N   0  0  0  0  0  0  0  0  0  0  0  0
   38.5840   24.0000   35.6840 C   0  0  0  0  0  0  0  0  0  0  0  0
   39.5930   23.1630   35.9950 N   0  0  0  0  0  0  0  0  0  0  0  0
   40.9120   21.9020   37.5780 C   0  0  0  0  0  0  0  0  0  0  0  0
   41.0693   24.4951   33.8455 H   0  0  0  0  0  0  0  0  0  0  0  0
   39.6218   28.0743   31.9591 H   0  0  0  0  0  0  0  0  0  0  0  0
   37.5290   27.1763   35.0635 H   0  0  0  0  0  0  0  0  0  0  0  0
   35.2594   28.5393   34.9702 H   0  0  0  0  0  0  0  0  0  0  0  0
   36.8513   29.2780   34.7713 H   0  0  0  0  0  0  0  0  0  0  0  0
   34.9344   28.2516   32.5814 H   0  0  0  0  0  0  0  0  0  0  0  0
   35.6280   29.8351   32.6562 H   0  0  0  0  0  0  0  0  0  0  0  0
   36.9433   27.9896   31.1672 H   0  0  0  0  0  0  0  0  0  0  0  0
   37.9782   28.8782   32.2307 H   0  0  0  0  0  0  0  0  0  0  0  0
   35.9959   25.3522   33.1464 H   0  0  0  0  0  0  0  0  0  0  0  0
   35.7244   26.3624   31.8293 H   0  0  0  0  0  0  0  0  0  0  0  0
   39.1928   22.9991   39.3408 H   0  0  0  0  0  0  0  0  0  0  0  0
   37.3062   24.5656   38.7416 H   0  0  0  0  0  0  0  0  0  0  0  0
   41.0105   21.8206   38.6706 H   0  0  0  0  0  0  0  0  0  0  0  0
   40.7043   20.9087   37.1536 H   0  0  0  0  0  0  0  0  0  0  0  0
   41.8482   22.2936   37.1536 H   0  0  0  0  0  0  0  0  0  0  0  0
  1 12  1  0
  2  1  2  0
  3  2  1  0
  4  3  2  0
  4  5  1  0
  5  1  1  0
  7  6  1  0
  8  7  1  0
  9  8  1  0
  9 10  1  0
 10 11  1  6
 10  5  1  0
 10  6  1  0
 12 17  1  0
 13 19  1  0
 13 14  2  0
 15 14  1  0
 16 15  2  0
 17 18  2  0
 17 16  1  0
 18 13  1  0
  2 20  1  0
  4 21  1  0
  6 22  1  0
  7 23  1  0
  7 24  1  0
  8 25  1  0
  8 26  1  0
  9 27  1  0
  9 28  1  0
 11 29  1  0
 11 30  1  0
 14 31  1  0
 15 32  1  0
 19 33  1  0
 19 34  1  0
 19 35  1  0
M  ISO  8  20  14  21  14  22   5  23  13  24  13  25  13  26  13  27  13
M  ISO  8  28  13  29   5  30   5  31  14  32  14  33   8  34   8  35   8
M  END
>  <minimizedAffinity>  (1) 
-4.7633419

>  <minimizedRMSD>  (1) 
0.224211395

$$$$
