
     RDKit          3D

 47 51  0  0  1  0  0  0  0  0999 V2000
   39.2450   25.2700   33.5530 C   0  0  0  0  0  0  0  0  0  0  0  0
   40.6230   25.1380   33.5450 C   0  0  0  0  0  0  0  0  0  0  0  0
   41.1100   26.0980   32.7270 N   0  0  0  0  0  0  0  0  0  0  0  0
   40.0960   26.8180   32.2290 C   0  0  0  0  0  0  0  0  0  0  0  0
   38.9930   26.3060   32.7350 N   0  0  0  0  0  0  0  0  0  0  0  0
   36.8690   26.9040   33.6550 N   0  0  0  0  0  0  0  0  0  0  0  0
   36.2690   28.1950   33.6450 C   0  0  0  0  0  0  0  0  0  0  0  0
   36.3110   28.6580   32.2090 C   0  0  0  0  0  0  0  0  0  0  0  0
   37.6720   28.1210   31.7630 C   0  0  0  0  0  0  0  0  0  0  0  0
   37.6640   26.7940   32.4520 C   0  0  1  0  0  0  0  0  0  0  0  0
   37.0180   25.7620   31.5660 C   0  0  0  0  0  0  0  0  0  0  0  0
   36.0630   25.1110   32.0460 O   0  0  0  0  0  0  0  0  0  0  0  0
   37.4210   25.4990   30.2580 O   0  0  0  0  0  0  0  0  0  0  0  0
   38.4210   24.4430   34.2910 O   0  0  0  0  0  0  0  0  0  0  0  0
   39.7950   22.8170   37.1940 C   0  0  0  0  0  0  0  0  0  0  0  0
   38.9820   23.3420   38.2150 C   0  0  0  0  0  0  0  0  0  0  0  0
   37.9850   24.2410   37.8520 C   0  0  0  0  0  0  0  0  0  0  0  0
   37.8340   24.5770   36.5530 N   0  0  0  0  0  0  0  0  0  0  0  0
   38.6420   24.0470   35.5970 C   0  0  0  0  0  0  0  0  0  0  0  0
   39.6170   23.1690   35.9270 N   0  0  0  0  0  0  0  0  0  0  0  0
   40.8440   21.8720   37.5560 C   0  0  0  0  0  0  0  0  0  0  0  0
   42.0740   22.2370   36.8830 N   0  0  0  0  0  0  0  0  0  0  0  0
   42.6220   23.4500   36.6920 C   0  0  0  0  0  0  0  0  0  0  0  0
   43.7700   23.2800   36.0120 N   0  0  0  0  0  0  0  0  0  0  0  0
   43.9500   21.9790   35.7750 C   0  0  0  0  0  0  0  0  0  0  0  0
   44.9740   21.3290   35.1170 C   0  0  0  0  0  0  0  0  0  0  0  0
   44.8870   19.9870   35.0300 N   0  0  0  0  0  0  0  0  0  0  0  0
   43.8330   19.3080   35.5690 C   0  0  0  0  0  0  0  0  0  0  0  0
   42.8400   19.9530   36.2080 N   0  0  0  0  0  0  0  0  0  0  0  0
   42.8730   21.3070   36.3280 C   0  0  0  0  0  0  0  0  0  0  0  0
   41.2112   24.3922   34.0999 H   0  0  0  0  0  0  0  0  0  0  0  0
   40.1699   27.6683   31.5350 H   0  0  0  0  0  0  0  0  0  0  0  0
   37.4691   26.8000   34.4856 H   0  0  0  0  0  0  0  0  0  0  0  0
   35.2289   28.1365   33.9982 H   0  0  0  0  0  0  0  0  0  0  0  0
   36.7989   28.8924   34.3105 H   0  0  0  0  0  0  0  0  0  0  0  0
   35.4920   28.2195   31.6200 H   0  0  0  0  0  0  0  0  0  0  0  0
   36.1903   29.7439   32.0812 H   0  0  0  0  0  0  0  0  0  0  0  0
   37.7304   28.0134   30.6698 H   0  0  0  0  0  0  0  0  0  0  0  0
   38.5285   28.7661   32.0085 H   0  0  0  0  0  0  0  0  0  0  0  0
   36.9546   24.8064   29.7261 H   0  0  0  0  0  0  0  0  0  0  0  0
   39.1300   23.0511   39.2655 H   0  0  0  0  0  0  0  0  0  0  0  0
   37.3246   24.6750   38.6172 H   0  0  0  0  0  0  0  0  0  0  0  0
   41.0002   21.8964   38.6446 H   0  0  0  0  0  0  0  0  0  0  0  0
   40.5458   20.8579   37.2517 H   0  0  0  0  0  0  0  0  0  0  0  0
   42.2057   24.4100   37.0313 H   0  0  0  0  0  0  0  0  0  0  0  0
   45.8215   21.8804   34.6838 H   0  0  0  0  0  0  0  0  0  0  0  0
   43.7945   18.2123   35.4793 H   0  0  0  0  0  0  0  0  0  0  0  0
  1 14  1  0
  2  1  2  0
  3  2  1  0
  4  3  2  0
  4  5  1  0
  5  1  1  0
  7  6  1  0
  8  7  1  0
  9  8  1  0
  9 10  1  0
 10 11  1  0
 10  5  1  1
 10  6  1  0
 11 12  2  0
 13 11  1  0
 14 19  1  0
 15 21  1  0
 15 16  2  0
 17 16  1  0
 18 17  2  0
 19 20  2  0
 19 18  1  0
 20 15  1  0
 22 21  1  0
 23 22  1  0
 24 23  2  0
 25 24  1  0
 25 30  2  0
 26 25  1  0
 27 26  2  0
 27 28  1  0
 28 29  2  0
 29 30  1  0
 30 22  1  0
  2 31  1  0
  4 32  1  0
  6 33  1  0
  7 34  1  0
  7 35  1  0
  8 36  1  0
  8 37  1  0
  9 38  1  0
  9 39  1  0
 13 40  1  0
 16 41  1  0
 17 42  1  0
 21 43  1  0
 21 44  1  0
 23 45  1  0
 26 46  1  0
 28 47  1  0
M  ISO  8  31  14  32  14  33   5  34  13  35  13  36  13  37  13  38  13
M  ISO  8  39  13  40   3  41  14  42  14  43   8  44   8  45  14  46  14
M  ISO  1  47  14
M  END
>  <minimizedAffinity>  (1) 
-5.34971476

>  <minimizedRMSD>  (1) 
1.26550341

$$$$
