
     RDKit          3D

 52 55  0  0  1  0  0  0  0  0999 V2000
   39.0410   25.6530   33.6840 C   0  0  0  0  0  0  0  0  0  0  0  0
   40.4070   25.5460   33.7650 C   0  0  0  0  0  0  0  0  0  0  0  0
   40.9460   26.4330   32.8930 N   0  0  0  0  0  0  0  0  0  0  0  0
   39.9510   27.0910   32.2710 C   0  0  0  0  0  0  0  0  0  0  0  0
   38.8230   26.6050   32.7640 N   0  0  0  0  0  0  0  0  0  0  0  0
   36.6320   27.2120   33.5200 N   0  0  0  0  0  0  0  0  0  0  0  0
   36.0090   28.4820   33.3920 C   0  0  0  0  0  0  0  0  0  0  0  0
   36.1260   28.8670   31.9400 C   0  0  0  0  0  0  0  0  0  0  0  0
   37.5240   28.3360   31.6150 C   0  0  0  0  0  0  0  0  0  0  0  0
   37.5080   27.0390   32.3640 C   0  0  1  0  0  0  0  0  0  0  0  0
   36.9270   25.9510   31.5190 C   0  0  0  0  0  0  0  0  0  0  0  0
   35.9600   25.3010   31.9940 O   0  0  0  0  0  0  0  0  0  0  0  0
   37.4100   25.6360   30.2500 O   0  0  0  0  0  0  0  0  0  0  0  0
   38.2030   24.8780   34.4520 O   0  0  0  0  0  0  0  0  0  0  0  0
   39.6890   22.7530   36.9420 C   0  0  0  0  0  0  0  0  0  0  0  0
   39.0680   23.2270   38.1120 C   0  0  0  0  0  0  0  0  0  0  0  0
   38.1550   24.2690   37.9940 C   0  0  0  0  0  0  0  0  0  0  0  0
   37.9040   24.7760   36.7850 N   0  0  0  0  0  0  0  0  0  0  0  0
   38.5130   24.3040   35.6710 C   0  0  0  0  0  0  0  0  0  0  0  0
   39.4060   23.2890   35.7680 N   0  0  0  0  0  0  0  0  0  0  0  0
   40.6500   21.6620   37.0390 C   0  0  0  0  0  0  0  0  0  0  0  0
   42.0630   22.1980   36.9760 C   0  0  0  0  0  0  0  0  0  0  0  0
   42.8420   21.3180   36.0260 C   0  0  0  0  0  0  0  0  0  0  0  0
   44.2910   21.6520   35.9880 C   0  0  0  0  0  0  0  0  0  0  0  0
   44.4830   23.1200   36.0880 C   0  0  0  0  0  0  0  0  0  0  0  0
   43.3130   23.9770   35.7390 C   0  0  0  0  0  0  0  0  0  0  0  0
   42.0730   23.6400   36.5270 C   0  0  0  0  0  0  0  0  0  0  0  0
   40.9653   24.8619   34.4210 H   0  0  0  0  0  0  0  0  0  0  0  0
   40.0542   27.8752   31.5065 H   0  0  0  0  0  0  0  0  0  0  0  0
   37.1839   27.1762   34.3889 H   0  0  0  0  0  0  0  0  0  0  0  0
   34.9506   28.4181   33.6848 H   0  0  0  0  0  0  0  0  0  0  0  0
   36.4870   29.2288   34.0430 H   0  0  0  0  0  0  0  0  0  0  0  0
   35.3544   28.3773   31.3278 H   0  0  0  0  0  0  0  0  0  0  0  0
   35.9884   29.9400   31.7406 H   0  0  0  0  0  0  0  0  0  0  0  0
   37.6570   28.1787   30.5345 H   0  0  0  0  0  0  0  0  0  0  0  0
   38.3457   29.0131   31.8911 H   0  0  0  0  0  0  0  0  0  0  0  0
   36.9916   24.9061   29.7282 H   0  0  0  0  0  0  0  0  0  0  0  0
   39.2983   22.7856   39.0929 H   0  0  0  0  0  0  0  0  0  0  0  0
   37.6471   24.6696   38.8837 H   0  0  0  0  0  0  0  0  0  0  0  0
   40.5045   21.1344   37.9932 H   0  0  0  0  0  0  0  0  0  0  0  0
   40.4922   20.9711   36.1977 H   0  0  0  0  0  0  0  0  0  0  0  0
   42.5276   22.1776   37.9729 H   0  0  0  0  0  0  0  0  0  0  0  0
   42.7308   20.2713   36.3454 H   0  0  0  0  0  0  0  0  0  0  0  0
   42.4378   21.4816   35.0161 H   0  0  0  0  0  0  0  0  0  0  0  0
   44.7989   21.1612   36.8313 H   0  0  0  0  0  0  0  0  0  0  0  0
   44.7151   21.2993   35.0363 H   0  0  0  0  0  0  0  0  0  0  0  0
   44.7650   23.3487   37.1264 H   0  0  0  0  0  0  0  0  0  0  0  0
   45.2504   23.3615   35.3378 H   0  0  0  0  0  0  0  0  0  0  0  0
   43.5775   25.0265   35.9356 H   0  0  0  0  0  0  0  0  0  0  0  0
   43.0836   23.8001   34.6778 H   0  0  0  0  0  0  0  0  0  0  0  0
   42.0288   24.2886   37.4143 H   0  0  0  0  0  0  0  0  0  0  0  0
   41.2019   23.7989   35.8744 H   0  0  0  0  0  0  0  0  0  0  0  0
  1  2  2  0
  1 14  1  0
  3  2  1  0
  4  5  1  0
  4  3  2  0
  5  1  1  0
  7  6  1  0
  8  7  1  0
  9  8  1  0
  9 10  1  0
 10 11  1  0
 10  5  1  1
 10  6  1  0
 11 12  2  0
 13 11  1  0
 14 19  1  0
 15 21  1  0
 15 16  2  0
 17 16  1  0
 18 17  2  0
 19 20  2  0
 19 18  1  0
 20 15  1  0
 22 21  1  0
 23 22  1  0
 24 23  1  0
 24 25  1  0
 26 25  1  0
 26 27  1  0
 27 22  1  0
  2 28  1  0
  4 29  1  0
  6 30  1  0
  7 31  1  0
  7 32  1  0
  8 33  1  0
  8 34  1  0
  9 35  1  0
  9 36  1  0
 13 37  1  0
 16 38  1  0
 17 39  1  0
 21 40  1  0
 21 41  1  0
 22 42  1  0
 23 43  1  0
 23 44  1  0
 24 45  1  0
 24 46  1  0
 25 47  1  0
 25 48  1  0
 26 49  1  0
 26 50  1  0
 27 51  1  0
 27 52  1  0
M  ISO  8  28  14  29  14  30   5  31  13  32  13  33  13  34  13  35  13
M  ISO  8  36  13  37   3  38  14  39  14  40   8  41   8  42  13  43  13
M  ISO  8  44  13  45  13  46  13  47  13  48  13  49  13  50  13  51  13
M  ISO  1  52  13
M  END
>  <minimizedAffinity>  (1) 
-5.3429451

>  <minimizedRMSD>  (1) 
0.995084941

$$$$
