
     RDKit          3D

 43 46  0  0  1  0  0  0  0  0999 V2000
   39.1790   25.4970   33.8220 C   0  0  0  0  0  0  0  0  0  0  0  0
   40.5560   25.3850   33.9260 C   0  0  0  0  0  0  0  0  0  0  0  0
   41.0910   26.2820   33.0700 N   0  0  0  0  0  0  0  0  0  0  0  0
   40.1090   26.9480   32.4360 C   0  0  0  0  0  0  0  0  0  0  0  0
   38.9670   26.4570   32.9080 N   0  0  0  0  0  0  0  0  0  0  0  0
   36.7720   27.0710   33.6200 N   0  0  0  0  0  0  0  0  0  0  0  0
   36.1670   28.3490   33.4670 C   0  0  0  0  0  0  0  0  0  0  0  0
   36.3160   28.7230   32.0170 C   0  0  0  0  0  0  0  0  0  0  0  0
   37.7070   28.1750   31.7110 C   0  0  0  0  0  0  0  0  0  0  0  0
   37.6660   26.8970   32.4910 C   0  0  1  0  0  0  0  0  0  0  0  0
   37.1010   25.7870   31.6320 C   0  0  0  0  0  0  0  0  0  0  0  0
   36.1470   25.1350   32.0940 O   0  0  0  0  0  0  0  0  0  0  0  0
   37.5970   25.4670   30.3630 O   0  0  0  0  0  0  0  0  0  0  0  0
   38.3000   24.7150   34.5700 O   0  0  0  0  0  0  0  0  0  0  0  0
   39.7810   22.8800   37.2810 C   0  0  0  0  0  0  0  0  0  0  0  0
   39.0080   23.2940   38.3580 C   0  0  0  0  0  0  0  0  0  0  0  0
   37.9920   24.2030   38.1150 C   0  0  0  0  0  0  0  0  0  0  0  0
   37.7810   24.6510   36.8680 N   0  0  0  0  0  0  0  0  0  0  0  0
   38.5690   24.2140   35.8320 C   0  0  0  0  0  0  0  0  0  0  0  0
   39.5590   23.3310   36.0600 N   0  0  0  0  0  0  0  0  0  0  0  0
   40.8670   21.9150   37.5180 C   0  0  0  0  0  0  0  0  0  0  0  0
   41.9920   22.2770   36.5880 C   0  0  0  0  0  0  0  0  0  0  0  0
   42.8640   23.3470   36.6170 C   0  0  0  0  0  0  0  0  0  0  0  0
   43.6950   23.1870   35.5250 C   0  0  0  0  0  0  0  0  0  0  0  0
   43.3300   22.0560   34.8650 N   0  0  0  0  0  0  0  0  0  0  0  0
   42.3130   21.5230   35.5110 N   0  0  0  0  0  0  0  0  0  0  0  0
   41.1087   24.6960   34.5816 H   0  0  0  0  0  0  0  0  0  0  0  0
   40.2269   27.7386   31.6803 H   0  0  0  0  0  0  0  0  0  0  0  0
   37.3022   27.0322   34.5022 H   0  0  0  0  0  0  0  0  0  0  0  0
   35.1023   28.3002   33.7391 H   0  0  0  0  0  0  0  0  0  0  0  0
   36.6432   29.0947   34.1205 H   0  0  0  0  0  0  0  0  0  0  0  0
   35.5471   28.2410   31.3953 H   0  0  0  0  0  0  0  0  0  0  0  0
   36.1994   29.7977   31.8137 H   0  0  0  0  0  0  0  0  0  0  0  0
   37.8450   27.9915   30.6352 H   0  0  0  0  0  0  0  0  0  0  0  0
   38.5362   28.8488   31.9726 H   0  0  0  0  0  0  0  0  0  0  0  0
   37.1888   24.7297   29.8434 H   0  0  0  0  0  0  0  0  0  0  0  0
   39.1969   22.9119   39.3721 H   0  0  0  0  0  0  0  0  0  0  0  0
   37.3594   24.5570   38.9424 H   0  0  0  0  0  0  0  0  0  0  0  0
   41.2061   21.9778   38.5625 H   0  0  0  0  0  0  0  0  0  0  0  0
   40.5233   20.8863   37.3344 H   0  0  0  0  0  0  0  0  0  0  0  0
   42.8915   24.1600   37.3575 H   0  0  0  0  0  0  0  0  0  0  0  0
   44.5148   23.8618   35.2377 H   0  0  0  0  0  0  0  0  0  0  0  0
   43.7701   21.6824   34.0120 H   0  0  0  0  0  0  0  0  0  0  0  0
  1  2  2  0
  1 14  1  0
  3  2  1  0
  4  5  1  0
  4  3  2  0
  5  1  1  0
  7  6  1  0
  8  7  1  0
  9  8  1  0
  9 10  1  0
 10 11  1  0
 10  5  1  1
 10  6  1  0
 11 12  2  0
 13 11  1  0
 14 19  1  0
 15 21  1  0
 15 16  2  0
 17 16  1  0
 18 17  2  0
 19 20  2  0
 19 18  1  0
 20 15  1  0
 22 23  1  0
 22 21  1  0
 24 23  2  0
 25 26  1  0
 25 24  1  0
 26 22  2  0
  2 27  1  0
  4 28  1  0
  6 29  1  0
  7 30  1  0
  7 31  1  0
  8 32  1  0
  8 33  1  0
  9 34  1  0
  9 35  1  0
 13 36  1  0
 16 37  1  0
 17 38  1  0
 21 39  1  0
 21 40  1  0
 23 41  1  0
 24 42  1  0
 25 43  1  0
M  ISO  8  27  14  28  14  29   5  30  13  31  13  32  13  33  13  34  13
M  ISO  8  35  13  36   3  37  14  38  14  39   8  40   8  41  14  42  14
M  ISO  1  43   9
M  END
>  <minimizedAffinity>  (1) 
-5.26932812

>  <minimizedRMSD>  (1) 
1.1181407

$$$$
