
     RDKit          3D

 44 47  0  0  1  0  0  0  0  0999 V2000
   39.1750   25.3510   33.6310 C   0  0  0  0  0  0  0  0  0  0  0  0
   40.5530   25.2150   33.6680 C   0  0  0  0  0  0  0  0  0  0  0  0
   41.0700   26.1490   32.8390 N   0  0  0  0  0  0  0  0  0  0  0  0
   40.0680   26.8600   32.2870 C   0  0  0  0  0  0  0  0  0  0  0  0
   38.9440   26.3620   32.7790 N   0  0  0  0  0  0  0  0  0  0  0  0
   36.8120   26.9890   33.6200 N   0  0  0  0  0  0  0  0  0  0  0  0
   36.2050   28.2710   33.5680 C   0  0  0  0  0  0  0  0  0  0  0  0
   36.2790   28.7080   32.1310 C   0  0  0  0  0  0  0  0  0  0  0  0
   37.6650   28.1680   31.7300 C   0  0  0  0  0  0  0  0  0  0  0  0
   37.6400   26.8480   32.4380 C   0  0  1  0  0  0  0  0  0  0  0  0
   37.0070   25.7970   31.5710 C   0  0  0  0  0  0  0  0  0  0  0  0
   36.0450   25.1400   32.0430 O   0  0  0  0  0  0  0  0  0  0  0  0
   37.4310   25.5160   30.2740 O   0  0  0  0  0  0  0  0  0  0  0  0
   38.3220   24.5420   34.3730 O   0  0  0  0  0  0  0  0  0  0  0  0
   39.7140   22.8430   37.2190 C   0  0  0  0  0  0  0  0  0  0  0  0
   38.9290   23.3570   38.2670 C   0  0  0  0  0  0  0  0  0  0  0  0
   37.9460   24.2750   37.9370 C   0  0  0  0  0  0  0  0  0  0  0  0
   37.7790   24.6350   36.6580 N   0  0  0  0  0  0  0  0  0  0  0  0
   38.5570   24.1180   35.6690 C   0  0  0  0  0  0  0  0  0  0  0  0
   39.5100   23.2310   35.9740 N   0  0  0  0  0  0  0  0  0  0  0  0
   40.7610   21.8720   37.5360 C   0  0  0  0  0  0  0  0  0  0  0  0
   42.0470   22.2430   36.8680 C   0  0  0  0  0  0  0  0  0  0  0  0
   42.8450   21.2720   36.2640 C   0  0  0  0  0  0  0  0  0  0  0  0
   44.0030   21.7530   35.6840 C   0  0  0  0  0  0  0  0  0  0  0  0
   44.3300   23.0530   35.7050 N   0  0  0  0  0  0  0  0  0  0  0  0
   43.5400   23.9640   36.2960 C   0  0  0  0  0  0  0  0  0  0  0  0
   42.4090   23.5380   36.8680 N   0  0  0  0  0  0  0  0  0  0  0  0
   41.1207   24.4832   34.2615 H   0  0  0  0  0  0  0  0  0  0  0  0
   40.1642   27.6890   31.5704 H   0  0  0  0  0  0  0  0  0  0  0  0
   37.3925   26.9093   34.4671 H   0  0  0  0  0  0  0  0  0  0  0  0
   35.1566   28.2108   33.8955 H   0  0  0  0  0  0  0  0  0  0  0  0
   36.7143   28.9846   34.2324 H   0  0  0  0  0  0  0  0  0  0  0  0
   35.4787   28.2532   31.5288 H   0  0  0  0  0  0  0  0  0  0  0  0
   36.1529   29.7902   31.9793 H   0  0  0  0  0  0  0  0  0  0  0  0
   37.7569   28.0461   30.6406 H   0  0  0  0  0  0  0  0  0  0  0  0
   38.5115   28.8199   31.9916 H   0  0  0  0  0  0  0  0  0  0  0  0
   36.9772   24.8118   29.7465 H   0  0  0  0  0  0  0  0  0  0  0  0
   39.0897   23.0419   39.3086 H   0  0  0  0  0  0  0  0  0  0  0  0
   37.3060   24.7060   38.7210 H   0  0  0  0  0  0  0  0  0  0  0  0
   40.9137   21.8484   38.6251 H   0  0  0  0  0  0  0  0  0  0  0  0
   40.4468   20.8824   37.1728 H   0  0  0  0  0  0  0  0  0  0  0  0
   42.5736   20.2061   36.2504 H   0  0  0  0  0  0  0  0  0  0  0  0
   44.6812   21.0437   35.1870 H   0  0  0  0  0  0  0  0  0  0  0  0
   43.8151   25.0290   36.3091 H   0  0  0  0  0  0  0  0  0  0  0  0
  1  2  2  0
  1 14  1  0
  3  2  1  0
  4  5  1  0
  4  3  2  0
  5  1  1  0
  7  6  1  0
  8  7  1  0
  9  8  1  0
  9 10  1  0
 10 11  1  0
 10  5  1  1
 10  6  1  0
 11 12  2  0
 13 11  1  0
 14 19  1  0
 15 21  1  0
 15 16  2  0
 17 16  1  0
 18 17  2  0
 19 20  2  0
 19 18  1  0
 20 15  1  0
 22 21  1  0
 23 22  2  0
 24 25  2  0
 24 23  1  0
 25 26  1  0
 26 27  2  0
 27 22  1  0
  2 28  1  0
  4 29  1  0
  6 30  1  0
  7 31  1  0
  7 32  1  0
  8 33  1  0
  8 34  1  0
  9 35  1  0
  9 36  1  0
 13 37  1  0
 16 38  1  0
 17 39  1  0
 21 40  1  0
 21 41  1  0
 23 42  1  0
 24 43  1  0
 26 44  1  0
M  ISO  8  28  14  29  14  30   5  31  13  32  13  33  13  34  13  35  13
M  ISO  8  36  13  37   3  38  14  39  14  40   8  41   8  42  14  43  14
M  ISO  1  44  14
M  END
>  <minimizedAffinity>  (1) 
-5.30196285

>  <minimizedRMSD>  (1) 
1.03467655

$$$$
