
     RDKit          3D

 33 36  0  0  0  0  0  0  0  0999 V2000
   38.6820   25.3330   35.5580 C   0  0  0  0  0  0  0  0  0  0  0  0
   38.4550   26.5630   36.2120 C   0  0  0  0  0  0  0  0  0  0  0  0
   37.8870   27.5850   35.5340 C   0  0  0  0  0  0  0  0  0  0  0  0
   37.5400   27.3720   34.1780 C   0  0  0  0  0  0  0  0  0  0  0  0
   38.0760   25.6130   33.9200 S   0  0  0  0  0  0  0  0  0  0  0  0
   37.0200   28.0640   33.0780 C   0  0  0  0  0  0  0  0  0  0  0  0
   37.6190   27.8830   31.8210 C   0  0  0  0  0  0  0  0  0  0  0  0
   37.2000   28.4890   30.6670 C   0  0  0  0  0  0  0  0  0  0  0  0
   36.1200   29.3340   30.7250 C   0  0  0  0  0  0  0  0  0  0  0  0
   35.4650   29.5750   31.8990 C   0  0  0  0  0  0  0  0  0  0  0  0
   34.3660   30.4030   31.9160 C   0  0  0  0  0  0  0  0  0  0  0  0
   33.6750   30.6240   33.0840 C   0  0  0  0  0  0  0  0  0  0  0  0
   34.1610   29.9640   34.2180 C   0  0  0  0  0  0  0  0  0  0  0  0
   35.2640   29.1480   34.1520 C   0  0  0  0  0  0  0  0  0  0  0  0
   35.9600   28.9230   32.9970 C   0  0  0  0  0  0  0  0  0  0  0  0
   38.9370   23.6030   37.3390 C   0  0  0  0  0  0  0  0  0  0  0  0
   39.2700   24.1750   36.1130 C   0  0  0  0  0  0  0  0  0  0  0  0
   40.2750   23.5940   35.3290 C   0  0  0  0  0  0  0  0  0  0  0  0
   40.8830   22.4790   35.8210 N   0  0  0  0  0  0  0  0  0  0  0  0
   40.5520   21.9290   37.0130 C   0  0  0  0  0  0  0  0  0  0  0  0
   39.5770   22.5090   37.7560 N   0  0  0  0  0  0  0  0  0  0  0  0
   38.7387   26.6891   37.2673 H   0  0  0  0  0  0  0  0  0  0  0  0
   37.6999   28.5533   36.0212 H   0  0  0  0  0  0  0  0  0  0  0  0
   38.4849   27.2075   31.7591 H   0  0  0  0  0  0  0  0  0  0  0  0
   37.7175   28.3028   29.7144 H   0  0  0  0  0  0  0  0  0  0  0  0
   35.7742   29.8283   29.8052 H   0  0  0  0  0  0  0  0  0  0  0  0
   34.0375   30.8923   30.9872 H   0  0  0  0  0  0  0  0  0  0  0  0
   32.7931   31.2802   33.1245 H   0  0  0  0  0  0  0  0  0  0  0  0
   33.6494   30.1014   35.1820 H   0  0  0  0  0  0  0  0  0  0  0  0
   35.6037   28.6516   35.0730 H   0  0  0  0  0  0  0  0  0  0  0  0
   38.1488   24.0519   37.9613 H   0  0  0  0  0  0  0  0  0  0  0  0
   40.5613   24.0206   34.3563 H   0  0  0  0  0  0  0  0  0  0  0  0
   41.0660   21.0256   37.3732 H   0  0  0  0  0  0  0  0  0  0  0  0
  1 17  1  0
  1  2  2  0
  3  2  1  0
  4  3  2  0
  5  4  1  0
  5  1  1  0
  6  4  1  0
  7  6  2  0
  8  9  2  0
  8  7  1  0
  9 10  1  0
 10 11  1  0
 10 15  2  0
 11 12  2  0
 12 13  1  0
 14 13  2  0
 15  6  1  0
 15 14  1  0
 16 21  2  0
 17 16  1  0
 18 19  1  0
 18 17  2  0
 19 20  2  0
 20 21  1  0
  2 22  1  0
  3 23  1  0
  7 24  1  0
  8 25  1  0
  9 26  1  0
 11 27  1  0
 12 28  1  0
 13 29  1  0
 14 30  1  0
 16 31  1  0
 18 32  1  0
 20 33  1  0
M  ISO  8  22  14  23  14  24  14  25  14  26  14  27  14  28  14  29  14
M  ISO  4  30  14  31  14  32  14  33  14
M  END
>  <minimizedAffinity>  (1) 
-5.60424232

>  <minimizedRMSD>  (1) 
1.6741519

$$$$
