
     RDKit          3D

 30 32  0  0  0  0  0  0  0  0999 V2000
   38.2090   25.5400   35.3920 C   0  0  0  0  0  0  0  0  0  0  0  0
   37.9210   26.8710   35.7560 C   0  0  0  0  0  0  0  0  0  0  0  0
   37.3640   27.6930   34.8390 C   0  0  0  0  0  0  0  0  0  0  0  0
   37.1050   27.1400   33.5430 C   0  0  0  0  0  0  0  0  0  0  0  0
   37.6910   25.3800   33.6800 S   0  0  0  0  0  0  0  0  0  0  0  0
   38.2950   24.1610   37.4890 C   0  0  0  0  0  0  0  0  0  0  0  0
   38.7950   24.5380   36.2240 C   0  0  0  0  0  0  0  0  0  0  0  0
   39.9280   23.9190   35.7240 C   0  0  0  0  0  0  0  0  0  0  0  0
   40.4890   22.9650   36.5180 N   0  0  0  0  0  0  0  0  0  0  0  0
   40.0160   22.6090   37.7150 C   0  0  0  0  0  0  0  0  0  0  0  0
   38.9230   23.2140   38.1840 N   0  0  0  0  0  0  0  0  0  0  0  0
   36.5480   27.6140   32.3030 C   0  0  0  0  0  0  0  0  0  0  0  0
   37.6150   28.1880   31.3920 C   0  0  0  0  0  0  0  0  0  0  0  0
   36.7990   29.0180   30.4000 C   0  0  0  0  0  0  0  0  0  0  0  0
   35.7600   29.6660   31.2920 C   0  0  0  0  0  0  0  0  0  0  0  0
   35.5470   28.7170   32.4660 C   0  0  0  0  0  0  0  0  0  0  0  0
   38.1458   27.2346   36.7695 H   0  0  0  0  0  0  0  0  0  0  0  0
   37.1206   28.7390   35.0770 H   0  0  0  0  0  0  0  0  0  0  0  0
   37.3952   24.6447   37.8970 H   0  0  0  0  0  0  0  0  0  0  0  0
   40.3504   24.1822   34.7430 H   0  0  0  0  0  0  0  0  0  0  0  0
   40.5195   21.8292   38.3052 H   0  0  0  0  0  0  0  0  0  0  0  0
   36.0663   26.7190   31.8824 H   0  0  0  0  0  0  0  0  0  0  0  0
   38.3183   28.8202   31.9540 H   0  0  0  0  0  0  0  0  0  0  0  0
   38.2372   27.4195   30.9101 H   0  0  0  0  0  0  0  0  0  0  0  0
   36.3270   28.3781   29.6399 H   0  0  0  0  0  0  0  0  0  0  0  0
   37.4027   29.7416   29.8325 H   0  0  0  0  0  0  0  0  0  0  0  0
   36.1220   30.6405   31.6516 H   0  0  0  0  0  0  0  0  0  0  0  0
   34.8210   29.8423   30.7468 H   0  0  0  0  0  0  0  0  0  0  0  0
   34.5253   28.3100   32.4460 H   0  0  0  0  0  0  0  0  0  0  0  0
   35.6768   29.2354   33.4274 H   0  0  0  0  0  0  0  0  0  0  0  0
  1  2  2  0
  1  7  1  0
  3  2  1  0
  4  5  1  0
  4  3  2  0
  5  1  1  0
  6 11  2  0
  7  6  1  0
  8  7  2  0
  8  9  1  0
  9 10  2  0
 10 11  1  0
 12 16  1  0
 12  4  1  0
 13 12  1  0
 14 15  1  0
 14 13  1  0
 15 16  1  0
  2 17  1  0
  3 18  1  0
  6 19  1  0
  8 20  1  0
 10 21  1  0
 12 22  1  0
 13 23  1  0
 13 24  1  0
 14 25  1  0
 14 26  1  0
 15 27  1  0
 15 28  1  0
 16 29  1  0
 16 30  1  0
M  ISO  8  17  14  18  14  19  14  20  14  21  14  22  13  23  13  24  13
M  ISO  6  25  13  26  13  27  13  28  13  29  13  30  13
M  END
>  <minimizedAffinity>  (1) 
-4.73995113

>  <minimizedRMSD>  (1) 
0.623433411

$$$$
