
     RDKit          3D

 28 31  0  0  0  0  0  0  0  0999 V2000
   38.3950   25.6390   35.5690 C   0  0  0  0  0  0  0  0  0  0  0  0
   38.3330   26.9520   36.0850 C   0  0  0  0  0  0  0  0  0  0  0  0
   37.7290   27.9180   35.3470 C   0  0  0  0  0  0  0  0  0  0  0  0
   37.1900   27.5250   34.0780 C   0  0  0  0  0  0  0  0  0  0  0  0
   37.5890   25.7060   33.9890 S   0  0  0  0  0  0  0  0  0  0  0  0
   36.5340   28.2770   33.1310 N   0  0  0  0  0  0  0  0  0  0  0  0
   36.9440   28.3180   31.8460 C   0  0  0  0  0  0  0  0  0  0  0  0
   36.1340   29.1260   31.1170 N   0  0  0  0  0  0  0  0  0  0  0  0
   35.1930   29.6060   31.9630 C   0  0  0  0  0  0  0  0  0  0  0  0
   34.1240   30.4550   31.8000 C   0  0  0  0  0  0  0  0  0  0  0  0
   33.3430   30.7610   32.8420 N   0  0  0  0  0  0  0  0  0  0  0  0
   33.6060   30.2290   34.0710 C   0  0  0  0  0  0  0  0  0  0  0  0
   34.6600   29.3840   34.2540 N   0  0  0  0  0  0  0  0  0  0  0  0
   35.4520   29.0710   33.2090 C   0  0  0  0  0  0  0  0  0  0  0  0
   38.5550   23.9340   37.3980 C   0  0  0  0  0  0  0  0  0  0  0  0
   38.9920   24.5090   36.2070 C   0  0  0  0  0  0  0  0  0  0  0  0
   40.0900   23.9610   35.5710 C   0  0  0  0  0  0  0  0  0  0  0  0
   40.6890   22.8830   36.1470 N   0  0  0  0  0  0  0  0  0  0  0  0
   40.2580   22.3440   37.2890 C   0  0  0  0  0  0  0  0  0  0  0  0
   39.1810   22.8820   37.9120 N   0  0  0  0  0  0  0  0  0  0  0  0
   38.7667   27.1879   37.0680 H   0  0  0  0  0  0  0  0  0  0  0  0
   37.6564   28.9551   35.7063 H   0  0  0  0  0  0  0  0  0  0  0  0
   37.8121   27.7734   31.4462 H   0  0  0  0  0  0  0  0  0  0  0  0
   33.9103   30.8839   30.8099 H   0  0  0  0  0  0  0  0  0  0  0  0
   32.9600   30.4850   34.9238 H   0  0  0  0  0  0  0  0  0  0  0  0
   37.6823   24.3558   37.9181 H   0  0  0  0  0  0  0  0  0  0  0  0
   40.4682   24.3831   34.6282 H   0  0  0  0  0  0  0  0  0  0  0  0
   40.7714   21.4721   37.7205 H   0  0  0  0  0  0  0  0  0  0  0  0
  1  2  2  0
  1 16  1  0
  3  2  1  0
  4  3  2  0
  5  4  1  0
  5  1  1  0
  6 14  1  0
  6  4  1  0
  7  6  1  0
  8  7  2  0
  8  9  1  0
  9 14  2  0
 10  9  1  0
 10 11  2  0
 11 12  1  0
 12 13  2  0
 14 13  1  0
 15 20  2  0
 16 15  1  0
 17 18  1  0
 17 16  2  0
 18 19  2  0
 19 20  1  0
  2 21  1  0
  3 22  1  0
  7 23  1  0
 10 24  1  0
 12 25  1  0
 15 26  1  0
 17 27  1  0
 19 28  1  0
M  ISO  8  21  14  22  14  23  14  24  14  25  14  26  14  27  14  28  14
M  END
>  <minimizedAffinity>  (1) 
-5.09495735

>  <minimizedRMSD>  (1) 
1.12264717

$$$$
