
     RDKit          3D

 54 56  0  0  1  0  0  0  0  0999 V2000
   36.7170   25.5170   32.0000 C   0  0  0  0  0  0  0  0  0  0  0  0
   37.3700   25.4320   33.2290 C   0  0  0  0  0  0  0  0  0  0  0  0
   37.4060   26.4730   34.0840 C   0  0  0  0  0  0  0  0  0  0  0  0
   36.7830   27.6370   33.7190 N   0  0  0  0  0  0  0  0  0  0  0  0
   36.1470   27.7250   32.5230 C   0  0  0  0  0  0  0  0  0  0  0  0
   36.1140   26.7060   31.6980 N   0  0  0  0  0  0  0  0  0  0  0  0
   38.0940   26.2430   35.3710 C   0  0  0  0  0  0  0  0  0  0  0  0
   37.9520   24.8370   35.7770 C   0  0  0  0  0  0  0  0  0  0  0  0
   39.1690   24.3070   36.3420 N   0  0  0  0  0  0  0  0  0  0  0  0
   39.9060   23.5460   35.3000 C   0  0  0  0  0  0  0  0  0  0  0  0
   40.9450   22.8270   36.1200 C   0  0  0  0  0  0  0  0  0  0  0  0
   40.3390   22.6910   37.5050 C   0  0  0  0  0  0  0  0  0  0  0  0
   38.9350   23.2440   37.2530 C   0  0  1  0  0  0  0  0  0  0  0  0
   38.4000   23.6920   38.5800 C   0  0  0  0  0  0  0  0  0  0  0  0
   39.3010   23.7160   39.5910 F   0  0  0  0  0  0  0  0  0  0  0  0
   37.2840   22.9500   38.8790 F   0  0  0  0  0  0  0  0  0  0  0  0
   37.9710   25.0320   38.4540 F   0  0  0  0  0  0  0  0  0  0  0  0
   35.5120   29.0180   32.1470 C   0  0  2  0  0  0  0  0  0  0  0  0
   36.5750   29.9150   31.4410 C   0  0  0  0  0  0  0  0  0  0  0  0
   35.0490   29.8020   33.3140 C   0  0  0  0  0  0  0  0  0  0  0  0
   33.7700   29.4300   33.8290 N   0  0  0  0  0  0  0  0  0  0  0  0
   33.4250   30.0890   35.0630 C   0  0  0  0  0  0  0  0  0  0  0  0
   32.2070   29.3830   35.6210 C   0  0  0  0  0  0  0  0  0  0  0  0
   31.1310   29.4800   34.6610 N   0  0  0  0  0  0  0  0  0  0  0  0
   31.5180   28.7810   33.4500 C   0  0  0  0  0  0  0  0  0  0  0  0
   32.6990   29.5280   32.8640 C   0  0  0  0  0  0  0  0  0  0  0  0
   36.6884   24.6653   31.3045 H   0  0  0  0  0  0  0  0  0  0  0  0
   37.8682   24.4917   33.5076 H   0  0  0  0  0  0  0  0  0  0  0  0
   39.1617   26.4835   35.2606 H   0  0  0  0  0  0  0  0  0  0  0  0
   37.6423   26.8867   36.1402 H   0  0  0  0  0  0  0  0  0  0  0  0
   37.1518   24.7644   36.5282 H   0  0  0  0  0  0  0  0  0  0  0  0
   37.7127   24.2488   34.8788 H   0  0  0  0  0  0  0  0  0  0  0  0
   40.3714   24.2201   34.5658 H   0  0  0  0  0  0  0  0  0  0  0  0
   39.2688   22.8771   34.7028 H   0  0  0  0  0  0  0  0  0  0  0  0
   41.1549   21.8355   35.6923 H   0  0  0  0  0  0  0  0  0  0  0  0
   41.8997   23.3729   36.1421 H   0  0  0  0  0  0  0  0  0  0  0  0
   40.3088   21.6416   37.8334 H   0  0  0  0  0  0  0  0  0  0  0  0
   40.8972   23.2053   38.3012 H   0  0  0  0  0  0  0  0  0  0  0  0
   38.1951   22.5443   36.8371 H   0  0  0  0  0  0  0  0  0  0  0  0
   34.6519   28.7625   31.5106 H   0  0  0  0  0  0  0  0  0  0  0  0
   37.1836   30.4286   32.1998 H   0  0  0  0  0  0  0  0  0  0  0  0
   37.2247   29.2881   30.8126 H   0  0  0  0  0  0  0  0  0  0  0  0
   36.0663   30.6609   30.8126 H   0  0  0  0  0  0  0  0  0  0  0  0
   35.7882   29.6814   34.1196 H   0  0  0  0  0  0  0  0  0  0  0  0
   34.9462   30.8394   32.9628 H   0  0  0  0  0  0  0  0  0  0  0  0
   34.2608   30.0184   35.7747 H   0  0  0  0  0  0  0  0  0  0  0  0
   33.2146   31.1550   34.8914 H   0  0  0  0  0  0  0  0  0  0  0  0
   32.4448   28.3247   35.8040 H   0  0  0  0  0  0  0  0  0  0  0  0
   31.9051   29.8522   36.5690 H   0  0  0  0  0  0  0  0  0  0  0  0
   30.2798   29.0508   35.0510 H   0  0  0  0  0  0  0  0  0  0  0  0
   31.8058   27.7461   33.6870 H   0  0  0  0  0  0  0  0  0  0  0  0
   30.6832   28.7444   32.7347 H   0  0  0  0  0  0  0  0  0  0  0  0
   33.0033   29.0695   31.9115 H   0  0  0  0  0  0  0  0  0  0  0  0
   32.4428   30.5784   32.6613 H   0  0  0  0  0  0  0  0  0  0  0  0
  1  2  2  0
  2  3  1  0
  3  7  1  0
  4  3  2  0
  5  4  1  0
  6  1  1  0
  6  5  2  0
  7  8  1  0
  8  9  1  0
  9 13  1  0
 10 11  1  0
 10  9  1  0
 11 12  1  0
 13 12  1  0
 13 14  1  0
 14 16  1  0
 14 15  1  0
 17 14  1  0
 18  5  1  0
 18 20  1  0
 19 18  1  0
 20 21  1  0
 21 22  1  0
 22 23  1  0
 24 23  1  0
 25 24  1  0
 26 25  1  0
 26 21  1  0
  1 27  1  0
  2 28  1  0
  7 29  1  0
  7 30  1  0
  8 31  1  0
  8 32  1  0
 10 33  1  0
 10 34  1  0
 11 35  1  0
 11 36  1  0
 12 37  1  0
 12 38  1  0
 13 39  1  6
 18 40  1  6
 19 41  1  0
 19 42  1  0
 19 43  1  0
 20 44  1  0
 20 45  1  0
 22 46  1  0
 22 47  1  0
 23 48  1  0
 23 49  1  0
 24 50  1  0
 25 51  1  0
 25 52  1  0
 26 53  1  0
 26 54  1  0
M  ISO  8  27  14  28  14  29   8  30   8  31   8  32   8  33  13  34  13
M  ISO  8  35  13  36  13  37  13  38  13  39  13  40   8  41   8  42   8
M  ISO  8  43   8  44   8  45   8  46  13  47  13  48  13  49  13  50   5
M  ISO  4  51  13  52  13  53  13  54  13
M  END
>  <minimizedAffinity>  (1) 
-5.84074926

>  <minimizedRMSD>  (1) 
1.19362557

$$$$
