
     RDKit          3D

 24 26  0  0  0  0  0  0  0  0999 V2000
   38.4200   25.6250   35.5580 C   0  0  0  0  0  0  0  0  0  0  0  0
   38.2820   26.9270   36.0840 C   0  0  0  0  0  0  0  0  0  0  0  0
   37.7100   27.8990   35.3380 C   0  0  0  0  0  0  0  0  0  0  0  0
   37.2780   27.5140   34.0300 C   0  0  0  0  0  0  0  0  0  0  0  0
   37.7270   25.7130   33.9300 S   0  0  0  0  0  0  0  0  0  0  0  0
   38.5280   23.9530   37.4310 C   0  0  0  0  0  0  0  0  0  0  0  0
   39.0000   24.4990   36.2180 C   0  0  0  0  0  0  0  0  0  0  0  0
   40.0970   23.9320   35.5980 C   0  0  0  0  0  0  0  0  0  0  0  0
   40.6660   22.8580   36.2140 N   0  0  0  0  0  0  0  0  0  0  0  0
   40.2210   22.3400   37.3610 C   0  0  0  0  0  0  0  0  0  0  0  0
   39.1600   22.8940   37.9510 N   0  0  0  0  0  0  0  0  0  0  0  0
   36.6490   28.2930   33.0150 C   0  0  0  0  0  0  0  0  0  0  0  0
   36.9380   28.2870   31.7000 C   0  0  0  0  0  0  0  0  0  0  0  0
   36.1880   29.1290   30.9220 C   0  0  0  0  0  0  0  0  0  0  0  0
   35.2120   29.9140   31.4980 C   0  0  0  0  0  0  0  0  0  0  0  0
   35.4200   29.3630   33.3110 S   0  0  0  0  0  0  0  0  0  0  0  0
   38.6394   27.1511   37.0999 H   0  0  0  0  0  0  0  0  0  0  0  0
   37.5844   28.9248   35.7147 H   0  0  0  0  0  0  0  0  0  0  0  0
   37.6562   24.3901   37.9399 H   0  0  0  0  0  0  0  0  0  0  0  0
   40.4925   24.3291   34.6514 H   0  0  0  0  0  0  0  0  0  0  0  0
   40.7209   21.4704   37.8126 H   0  0  0  0  0  0  0  0  0  0  0  0
   37.7262   27.6467   31.2772 H   0  0  0  0  0  0  0  0  0  0  0  0
   36.3646   29.1787   29.8374 H   0  0  0  0  0  0  0  0  0  0  0  0
   34.5204   30.6406   31.0466 H   0  0  0  0  0  0  0  0  0  0  0  0
  1  2  2  0
  1  7  1  0
  3  2  1  0
  4  3  2  0
  5  4  1  0
  5  1  1  0
  6 11  2  0
  7  6  1  0
  8  9  1  0
  8  7  2  0
  9 10  2  0
 10 11  1  0
 12 16  1  0
 12  4  1  0
 13 12  2  0
 14 15  2  0
 14 13  1  0
 15 16  1  0
  2 17  1  0
  3 18  1  0
  6 19  1  0
  8 20  1  0
 10 21  1  0
 13 22  1  0
 14 23  1  0
 15 24  1  0
M  ISO  8  17  14  18  14  19  14  20  14  21  14  22  14  23  14  24  14
M  END
>  <minimizedAffinity>  (1) 
-4.47715139

>  <minimizedRMSD>  (1) 
0.691678524

$$$$
