
     RDKit          3D

 24 26  0  0  0  0  0  0  0  0999 V2000
   38.2330   25.6860   35.4130 C   0  0  0  0  0  0  0  0  0  0  0  0
   37.8500   26.9950   35.7750 C   0  0  0  0  0  0  0  0  0  0  0  0
   37.4190   27.8590   34.8230 C   0  0  0  0  0  0  0  0  0  0  0  0
   37.3860   27.3530   33.4830 C   0  0  0  0  0  0  0  0  0  0  0  0
   37.9960   25.5990   33.6360 S   0  0  0  0  0  0  0  0  0  0  0  0
   38.1140   24.3630   37.5290 C   0  0  0  0  0  0  0  0  0  0  0  0
   38.7010   24.6640   36.2800 C   0  0  0  0  0  0  0  0  0  0  0  0
   39.7940   23.9420   35.8480 C   0  0  0  0  0  0  0  0  0  0  0  0
   40.2480   22.9550   36.6790 N   0  0  0  0  0  0  0  0  0  0  0  0
   39.6970   22.6660   37.8600 C   0  0  0  0  0  0  0  0  0  0  0  0
   38.6400   23.3740   38.2660 N   0  0  0  0  0  0  0  0  0  0  0  0
   37.0150   27.9120   32.2630 C   0  0  0  0  0  0  0  0  0  0  0  0
   36.3210   29.0940   32.1700 C   0  0  0  0  0  0  0  0  0  0  0  0
   36.1170   29.3610   30.8110 C   0  0  0  0  0  0  0  0  0  0  0  0
   36.7220   28.2860   30.1650 C   0  0  0  0  0  0  0  0  0  0  0  0
   37.2340   27.4640   31.0510 O   0  0  0  0  0  0  0  0  0  0  0  0
   37.9009   27.3136   36.8266 H   0  0  0  0  0  0  0  0  0  0  0  0
   37.1128   28.8874   35.0651 H   0  0  0  0  0  0  0  0  0  0  0  0
   37.2425   24.9288   37.8900 H   0  0  0  0  0  0  0  0  0  0  0  0
   40.2772   24.1499   34.8819 H   0  0  0  0  0  0  0  0  0  0  0  0
   40.1059   21.8599   38.4869 H   0  0  0  0  0  0  0  0  0  0  0  0
   35.9860   29.7181   33.0116 H   0  0  0  0  0  0  0  0  0  0  0  0
   35.5994   30.2199   30.3588 H   0  0  0  0  0  0  0  0  0  0  0  0
   36.7645   28.1465   29.0747 H   0  0  0  0  0  0  0  0  0  0  0  0
  1  2  2  0
  1  7  1  0
  3  2  1  0
  4  5  1  0
  4  3  2  0
  5  1  1  0
  6 11  2  0
  7  6  1  0
  8  7  2  0
  8  9  1  0
  9 10  2  0
 10 11  1  0
 12  4  1  0
 13 12  2  0
 14 13  1  0
 15 14  2  0
 15 16  1  0
 16 12  1  0
  2 17  1  0
  3 18  1  0
  6 19  1  0
  8 20  1  0
 10 21  1  0
 13 22  1  0
 14 23  1  0
 15 24  1  0
M  ISO  8  17  14  18  14  19  14  20  14  21  14  22  14  23  14  24  14
M  END
>  <minimizedAffinity>  (1) 
-4.45616388

>  <minimizedRMSD>  (1) 
0.573347092

$$$$
