
     RDKit          3D

 29 31  0  0  0  0  0  0  0  0999 V2000
   38.1540   25.4010   35.3060 C   0  0  0  0  0  0  0  0  0  0  0  0
   37.8330   26.7420   35.6080 C   0  0  0  0  0  0  0  0  0  0  0  0
   37.2350   27.5210   34.6800 C   0  0  0  0  0  0  0  0  0  0  0  0
   36.9670   26.8970   33.4120 C   0  0  0  0  0  0  0  0  0  0  0  0
   37.6120   25.1610   33.6360 S   0  0  0  0  0  0  0  0  0  0  0  0
   38.2910   24.1180   37.4460 C   0  0  0  0  0  0  0  0  0  0  0  0
   38.7790   24.4670   36.1790 C   0  0  0  0  0  0  0  0  0  0  0  0
   39.9400   23.8800   35.7310 C   0  0  0  0  0  0  0  0  0  0  0  0
   40.5550   22.9870   36.5500 N   0  0  0  0  0  0  0  0  0  0  0  0
   40.0920   22.6520   37.7580 C   0  0  0  0  0  0  0  0  0  0  0  0
   38.9520   23.2300   38.1930 N   0  0  0  0  0  0  0  0  0  0  0  0
   36.3480   27.5080   32.2930 N   0  0  0  0  0  0  0  0  0  0  0  0
   35.4830   28.7020   32.2820 C   0  0  0  0  0  0  0  0  0  0  0  0
   36.3280   29.5930   31.3670 C   0  0  0  0  0  0  0  0  0  0  0  0
   36.8190   28.5910   30.3080 C   0  0  0  0  0  0  0  0  0  0  0  0
   36.3150   27.2540   30.8490 C   0  0  0  0  0  0  0  0  0  0  0  0
   38.0700   27.1534   36.6003 H   0  0  0  0  0  0  0  0  0  0  0  0
   36.9692   28.5691   34.8820 H   0  0  0  0  0  0  0  0  0  0  0  0
   37.3648   24.5750   37.8244 H   0  0  0  0  0  0  0  0  0  0  0  0
   40.3564   24.1254   34.7429 H   0  0  0  0  0  0  0  0  0  0  0  0
   40.6272   21.9223   38.3834 H   0  0  0  0  0  0  0  0  0  0  0  0
   34.4921   28.4909   31.8535 H   0  0  0  0  0  0  0  0  0  0  0  0
   35.2436   29.1250   33.2688 H   0  0  0  0  0  0  0  0  0  0  0  0
   35.7202   30.3891   30.9123 H   0  0  0  0  0  0  0  0  0  0  0  0
   37.1404   30.1201   31.8888 H   0  0  0  0  0  0  0  0  0  0  0  0
   37.9164   28.5998   30.2327 H   0  0  0  0  0  0  0  0  0  0  0  0
   36.4562   28.8156   29.2941 H   0  0  0  0  0  0  0  0  0  0  0  0
   35.2949   27.0354   30.5002 H   0  0  0  0  0  0  0  0  0  0  0  0
   36.9046   26.3828   30.5276 H   0  0  0  0  0  0  0  0  0  0  0  0
  1  2  2  0
  1  7  1  0
  3  2  1  0
  4  5  1  0
  4  3  2  0
  5  1  1  0
  6 11  2  0
  7  6  1  0
  8  7  2  0
  8  9  1  0
  9 10  2  0
 10 11  1  0
 12  4  1  0
 13 12  1  0
 14 13  1  0
 15 16  1  0
 15 14  1  0
 16 12  1  0
  2 17  1  0
  3 18  1  0
  6 19  1  0
  8 20  1  0
 10 21  1  0
 13 22  1  0
 13 23  1  0
 14 24  1  0
 14 25  1  0
 15 26  1  0
 15 27  1  0
 16 28  1  0
 16 29  1  0
M  ISO  8  17  14  18  14  19  14  20  14  21  14  22  13  23  13  24  13
M  ISO  5  25  13  26  13  27  13  28  13  29  13
M  END
>  <minimizedAffinity>  (1) 
-4.57777834

>  <minimizedRMSD>  (1) 
1.06706345

$$$$
