
     RDKit          3D

 30 32  0  0  0  0  0  0  0  0999 V2000
   38.2870   25.6210   35.4880 C   0  0  0  0  0  0  0  0  0  0  0  0
   38.1230   26.9490   35.9390 C   0  0  0  0  0  0  0  0  0  0  0  0
   37.5220   27.8620   35.1430 C   0  0  0  0  0  0  0  0  0  0  0  0
   37.0840   27.3920   33.8580 C   0  0  0  0  0  0  0  0  0  0  0  0
   37.5770   25.5990   33.8630 S   0  0  0  0  0  0  0  0  0  0  0  0
   38.4370   24.0430   37.4340 C   0  0  0  0  0  0  0  0  0  0  0  0
   38.8990   24.5570   36.2140 C   0  0  0  0  0  0  0  0  0  0  0  0
   40.0340   24.0170   35.6420 C   0  0  0  0  0  0  0  0  0  0  0  0
   40.6390   22.9980   36.3220 N   0  0  0  0  0  0  0  0  0  0  0  0
   40.1910   22.5160   37.4840 C   0  0  0  0  0  0  0  0  0  0  0  0
   39.0740   23.0540   38.0360 N   0  0  0  0  0  0  0  0  0  0  0  0
   36.4460   27.9670   32.7670 N   0  0  0  0  0  0  0  0  0  0  0  0
   36.0130   29.3380   32.7800 C   0  0  0  0  0  0  0  0  0  0  0  0
   35.4310   29.6190   31.4090 C   0  0  0  0  0  0  0  0  0  0  0  0
   36.3410   29.2510   30.4470 O   0  0  0  0  0  0  0  0  0  0  0  0
   36.6410   27.9140   30.3870 C   0  0  0  0  0  0  0  0  0  0  0  0
   36.2400   27.1380   31.6350 C   0  0  0  0  0  0  0  0  0  0  0  0
   38.4837   27.2404   36.9365 H   0  0  0  0  0  0  0  0  0  0  0  0
   37.3768   28.9049   35.4611 H   0  0  0  0  0  0  0  0  0  0  0  0
   37.5335   24.4681   37.8955 H   0  0  0  0  0  0  0  0  0  0  0  0
   40.4314   24.3889   34.6861 H   0  0  0  0  0  0  0  0  0  0  0  0
   40.7205   21.6936   37.9872 H   0  0  0  0  0  0  0  0  0  0  0  0
   35.2474   29.4873   33.5556 H   0  0  0  0  0  0  0  0  0  0  0  0
   36.8491   30.0169   33.0038 H   0  0  0  0  0  0  0  0  0  0  0  0
   34.5036   29.0422   31.2779 H   0  0  0  0  0  0  0  0  0  0  0  0
   35.2081   30.6921   31.3153 H   0  0  0  0  0  0  0  0  0  0  0  0
   36.1155   27.4789   29.5241 H   0  0  0  0  0  0  0  0  0  0  0  0
   37.7345   27.8344   30.2975 H   0  0  0  0  0  0  0  0  0  0  0  0
   35.1790   26.8549   31.5708 H   0  0  0  0  0  0  0  0  0  0  0  0
   36.8470   26.2247   31.7217 H   0  0  0  0  0  0  0  0  0  0  0  0
  1  2  2  0
  1  7  1  0
  3  2  1  0
  4  5  1  0
  4  3  2  0
  5  1  1  0
  6 11  2  0
  7  6  1  0
  8  7  2  0
  8  9  1  0
  9 10  2  0
 10 11  1  0
 12 13  1  0
 12  4  1  0
 14 13  1  0
 15 14  1  0
 16 15  1  0
 16 17  1  0
 17 12  1  0
  2 18  1  0
  3 19  1  0
  6 20  1  0
  8 21  1  0
 10 22  1  0
 13 23  1  0
 13 24  1  0
 14 25  1  0
 14 26  1  0
 16 27  1  0
 16 28  1  0
 17 29  1  0
 17 30  1  0
M  ISO  8  18  14  19  14  20  14  21  14  22  14  23  13  24  13  25  13
M  ISO  5  26  13  27  13  28  13  29  13  30  13
M  END
>  <minimizedAffinity>  (1) 
-4.65300894

>  <minimizedRMSD>  (1) 
0.61378938

$$$$
