
     RDKit          3D

 24 26  0  0  0  0  0  0  0  0999 V2000
   38.3600   25.6460   35.5540 C   0  0  0  0  0  0  0  0  0  0  0  0
   38.2340   26.9630   36.0380 C   0  0  0  0  0  0  0  0  0  0  0  0
   37.6690   27.8990   35.2390 C   0  0  0  0  0  0  0  0  0  0  0  0
   37.2370   27.4670   33.9400 C   0  0  0  0  0  0  0  0  0  0  0  0
   37.6740   25.6540   33.9110 S   0  0  0  0  0  0  0  0  0  0  0  0
   38.4510   24.0390   37.4980 C   0  0  0  0  0  0  0  0  0  0  0  0
   38.9320   24.5470   36.2710 C   0  0  0  0  0  0  0  0  0  0  0  0
   40.0430   23.9660   35.6860 C   0  0  0  0  0  0  0  0  0  0  0  0
   40.6170   22.9180   36.3410 N   0  0  0  0  0  0  0  0  0  0  0  0
   40.1450   22.4420   37.5190 C   0  0  0  0  0  0  0  0  0  0  0  0
   39.0720   23.0110   38.0740 N   0  0  0  0  0  0  0  0  0  0  0  0
   36.6350   28.1800   32.9200 N   0  0  0  0  0  0  0  0  0  0  0  0
   37.1080   28.0830   31.6510 C   0  0  0  0  0  0  0  0  0  0  0  0
   36.3510   28.8800   30.8190 C   0  0  0  0  0  0  0  0  0  0  0  0
   35.3950   29.4760   31.5900 N   0  0  0  0  0  0  0  0  0  0  0  0
   35.5910   29.0350   32.8520 C   0  0  0  0  0  0  0  0  0  0  0  0
   38.5878   27.2260   37.0458 H   0  0  0  0  0  0  0  0  0  0  0  0
   37.5469   28.9410   35.5697 H   0  0  0  0  0  0  0  0  0  0  0  0
   37.5684   24.4898   37.9753 H   0  0  0  0  0  0  0  0  0  0  0  0
   40.4464   24.3349   34.7314 H   0  0  0  0  0  0  0  0  0  0  0  0
   40.6416   21.5942   38.0136 H   0  0  0  0  0  0  0  0  0  0  0  0
   37.9618   27.4651   31.3360 H   0  0  0  0  0  0  0  0  0  0  0  0
   36.4912   29.0112   29.7359 H   0  0  0  0  0  0  0  0  0  0  0  0
   34.9781   29.3342   33.7150 H   0  0  0  0  0  0  0  0  0  0  0  0
  1  2  2  0
  1  7  1  0
  3  2  1  0
  4  3  2  0
  5  4  1  0
  5  1  1  0
  6 11  2  0
  7  6  1  0
  8  7  2  0
  8  9  1  0
  9 10  2  0
 10 11  1  0
 12  4  1  0
 13 12  1  0
 14 15  1  0
 14 13  2  0
 15 16  2  0
 16 12  1  0
  2 17  1  0
  3 18  1  0
  6 19  1  0
  8 20  1  0
 10 21  1  0
 13 22  1  0
 14 23  1  0
 16 24  1  0
M  ISO  8  17  14  18  14  19  14  20  14  21  14  22  14  23  14  24  14
M  END
>  <minimizedAffinity>  (1) 
-4.41407633

>  <minimizedRMSD>  (1) 
0.562157094

$$$$
