
     RDKit          3D

 42 46  0  0  1  0  0  0  0  0999 V2000
   36.3720   27.4250   32.4450 N   0  0  0  0  0  0  0  0  0  0  0  0
   35.3910   28.5210   32.5130 C   0  0  0  0  0  0  0  0  0  0  0  0
   36.1820   29.6930   31.9460 C   0  0  0  0  0  0  0  0  0  0  0  0
   36.6980   29.4540   30.6670 N   0  0  0  0  0  0  0  0  0  0  0  0
   36.8240   28.1650   30.1580 C   0  0  0  0  0  0  0  0  0  0  0  0
   36.5140   27.0080   31.0690 C   0  0  1  0  0  0  0  0  0  0  0  0
   37.4230   25.9010   30.8770 N   0  0  0  0  0  0  0  0  0  0  0  0
   38.7430   25.8820   30.6230 C   0  0  0  0  0  0  0  0  0  0  0  0
   39.1960   24.6000   30.5040 N   0  0  0  0  0  0  0  0  0  0  0  0
   38.1700   23.7440   30.6800 C   0  0  0  0  0  0  0  0  0  0  0  0
   37.9550   22.3800   30.6870 C   0  0  0  0  0  0  0  0  0  0  0  0
   36.7300   21.8690   30.9090 N   0  0  0  0  0  0  0  0  0  0  0  0
   35.6860   22.6840   31.1290 C   0  0  0  0  0  0  0  0  0  0  0  0
   35.8720   24.0280   31.1270 N   0  0  0  0  0  0  0  0  0  0  0  0
   37.0930   24.5760   30.9060 C   0  0  0  0  0  0  0  0  0  0  0  0
   38.2580   25.4310   35.4350 C   0  0  0  0  0  0  0  0  0  0  0  0
   38.4100   26.8210   35.4720 C   0  0  0  0  0  0  0  0  0  0  0  0
   37.8130   27.5690   34.5110 C   0  0  0  0  0  0  0  0  0  0  0  0
   37.0650   26.8670   33.5210 C   0  0  0  0  0  0  0  0  0  0  0  0
   37.2510   25.0880   34.0240 S   0  0  0  0  0  0  0  0  0  0  0  0
   38.2800   24.2110   37.6330 C   0  0  0  0  0  0  0  0  0  0  0  0
   38.8190   24.4900   36.3630 C   0  0  0  0  0  0  0  0  0  0  0  0
   39.9540   23.8350   35.9740 C   0  0  0  0  0  0  0  0  0  0  0  0
   40.5020   22.9440   36.8450 N   0  0  0  0  0  0  0  0  0  0  0  0
   39.9740   22.6890   38.0560 C   0  0  0  0  0  0  0  0  0  0  0  0
   38.8560   23.3320   38.4420 N   0  0  0  0  0  0  0  0  0  0  0  0
   34.5051   28.3026   31.8985 H   0  0  0  0  0  0  0  0  0  0  0  0
   34.9975   28.7006   33.5244 H   0  0  0  0  0  0  0  0  0  0  0  0
   35.5181   30.5686   31.8952 H   0  0  0  0  0  0  0  0  0  0  0  0
   37.0399   29.8569   32.6147 H   0  0  0  0  0  0  0  0  0  0  0  0
   36.0927   29.9669   30.0101 H   0  0  0  0  0  0  0  0  0  0  0  0
   36.1495   28.0886   29.2924 H   0  0  0  0  0  0  0  0  0  0  0  0
   37.8973   28.0612   29.9406 H   0  0  0  0  0  0  0  0  0  0  0  0
   35.5266   26.6173   30.7819 H   0  0  0  0  0  0  0  0  0  0  0  0
   39.3728   26.7784   30.5244 H   0  0  0  0  0  0  0  0  0  0  0  0
   38.8001   21.6990   30.5079 H   0  0  0  0  0  0  0  0  0  0  0  0
   34.6854   22.2644   31.3099 H   0  0  0  0  0  0  0  0  0  0  0  0
   39.0029   27.2987   36.2660 H   0  0  0  0  0  0  0  0  0  0  0  0
   37.9017   28.6653   34.4962 H   0  0  0  0  0  0  0  0  0  0  0  0
   37.3668   24.7301   37.9596 H   0  0  0  0  0  0  0  0  0  0  0  0
   40.4092   24.0217   34.9902 H   0  0  0  0  0  0  0  0  0  0  0  0
   40.4527   21.9599   38.7263 H   0  0  0  0  0  0  0  0  0  0  0  0
  1  2  1  0
  1 19  1  0
  3  2  1  0
  4  3  1  0
  5  4  1  0
  5  6  1  0
  6  1  1  0
  7 15  1  0
  7  6  1  0
  8  7  1  0
  9  8  2  0
  9 10  1  0
 10 11  2  0
 10 15  1  0
 11 12  1  0
 12 13  2  0
 14 13  1  0
 15 14  2  0
 16 17  2  0
 16 22  1  0
 18 17  1  0
 19 20  1  0
 19 18  2  0
 20 16  1  0
 21 26  2  0
 22 21  1  0
 23 22  2  0
 23 24  1  0
 24 25  2  0
 25 26  1  0
  2 27  1  0
  2 28  1  0
  3 29  1  0
  3 30  1  0
  4 31  1  0
  5 32  1  0
  5 33  1  0
  6 34  1  6
  8 35  1  0
 11 36  1  0
 13 37  1  0
 17 38  1  0
 18 39  1  0
 21 40  1  0
 23 41  1  0
 25 42  1  0
M  ISO  8  27  13  28  13  29  13  30  13  31   5  32  13  33  13  34  13
M  ISO  8  35  14  36  14  37  14  38  14  39  14  40  14  41  14  42  14
M  END
>  <minimizedAffinity>  (1) 
-5.57735205

>  <minimizedRMSD>  (1) 
0.692833662

$$$$
