
     RDKit          3D

 44 48  0  0  1  0  0  0  0  0999 V2000
   36.7160   27.0540   32.7630 N   0  0  0  0  0  0  0  0  0  0  0  0
   35.9390   28.2580   33.0860 C   0  0  0  0  0  0  0  0  0  0  0  0
   36.6140   29.3090   32.1840 C   0  0  0  0  0  0  0  0  0  0  0  0
   36.6370   28.9560   30.8260 N   0  0  0  0  0  0  0  0  0  0  0  0
   36.4330   27.6330   30.4060 C   0  0  0  0  0  0  0  0  0  0  0  0
   36.3510   26.5630   31.4530 C   0  0  1  0  0  0  0  0  0  0  0  0
   37.1690   25.4520   31.0020 N   0  0  0  0  0  0  0  0  0  0  0  0
   38.3940   25.4880   30.4460 C   0  0  0  0  0  0  0  0  0  0  0  0
   38.8240   24.2230   30.1600 N   0  0  0  0  0  0  0  0  0  0  0  0
   37.8710   23.3460   30.5340 C   0  0  0  0  0  0  0  0  0  0  0  0
   37.6870   21.9810   30.5210 C   0  0  0  0  0  0  0  0  0  0  0  0
   36.5470   21.4080   31.0010 N   0  0  0  0  0  0  0  0  0  0  0  0
   35.5720   22.2170   31.5030 C   0  0  0  0  0  0  0  0  0  0  0  0
   35.7510   23.5550   31.5150 N   0  0  0  0  0  0  0  0  0  0  0  0
   36.8770   24.1320   31.0420 C   0  0  0  0  0  0  0  0  0  0  0  0
   38.7280   21.1700   29.9900 N   0  0  0  0  0  0  0  0  0  0  0  0
   39.2430   24.9640   35.1620 C   0  0  0  0  0  0  0  0  0  0  0  0
   39.6600   26.2650   34.8540 C   0  0  0  0  0  0  0  0  0  0  0  0
   38.8880   27.0400   34.0660 C   0  0  0  0  0  0  0  0  0  0  0  0
   37.6750   26.4620   33.5920 C   0  0  0  0  0  0  0  0  0  0  0  0
   37.6950   24.7480   34.3350 S   0  0  0  0  0  0  0  0  0  0  0  0
   39.3530   23.3270   37.0600 C   0  0  0  0  0  0  0  0  0  0  0  0
   39.9360   24.0100   35.9790 C   0  0  0  0  0  0  0  0  0  0  0  0
   41.2460   23.7670   35.6760 C   0  0  0  0  0  0  0  0  0  0  0  0
   41.9230   22.8690   36.4420 N   0  0  0  0  0  0  0  0  0  0  0  0
   41.3570   22.2190   37.4740 C   0  0  0  0  0  0  0  0  0  0  0  0
   40.0500   22.4580   37.7820 N   0  0  0  0  0  0  0  0  0  0  0  0
   34.8767   28.1315   32.8303 H   0  0  0  0  0  0  0  0  0  0  0  0
   35.9377   28.5181   34.1548 H   0  0  0  0  0  0  0  0  0  0  0  0
   36.0669   30.2577   32.2869 H   0  0  0  0  0  0  0  0  0  0  0  0
   37.6606   29.3901   32.5127 H   0  0  0  0  0  0  0  0  0  0  0  0
   35.9087   29.5215   30.3670 H   0  0  0  0  0  0  0  0  0  0  0  0
   35.4885   27.6114   29.8426 H   0  0  0  0  0  0  0  0  0  0  0  0
   37.3389   27.3856   29.8332 H   0  0  0  0  0  0  0  0  0  0  0  0
   35.3131   26.2199   31.5758 H   0  0  0  0  0  0  0  0  0  0  0  0
   38.9678   26.4057   30.2496 H   0  0  0  0  0  0  0  0  0  0  0  0
   34.6421   21.7812   31.8972 H   0  0  0  0  0  0  0  0  0  0  0  0
   38.6215   20.1458   29.9659 H   0  0  0  0  0  0  0  0  0  0  0  0
   39.5883   21.6069   29.6296 H   0  0  0  0  0  0  0  0  0  0  0  0
   40.6099   26.6515   35.2519 H   0  0  0  0  0  0  0  0  0  0  0  0
   39.1800   28.0672   33.8022 H   0  0  0  0  0  0  0  0  0  0  0  0
   38.2992   23.5160   37.3126 H   0  0  0  0  0  0  0  0  0  0  0  0
   41.7385   24.2819   34.8380 H   0  0  0  0  0  0  0  0  0  0  0  0
   41.9434   21.5002   38.0652 H   0  0  0  0  0  0  0  0  0  0  0  0
  1  2  1  0
  1 20  1  0
  3  2  1  0
  4  3  1  0
  5  4  1  0
  5  6  1  0
  6  1  1  0
  7 15  1  0
  7  6  1  0
  8  7  1  0
  9  8  2  0
  9 10  1  0
 10 15  2  0
 11 10  1  0
 11 12  2  0
 12 13  1  0
 13 14  2  0
 15 14  1  0
 16 11  1  0
 17 23  1  0
 18 17  2  0
 19 18  1  0
 20 19  2  0
 20 21  1  0
 21 17  1  0
 22 27  2  0
 23 22  1  0
 24 23  2  0
 24 25  1  0
 25 26  2  0
 26 27  1  0
  2 28  1  0
  2 29  1  0
  3 30  1  0
  3 31  1  0
  4 32  1  0
  5 33  1  0
  5 34  1  0
  6 35  1  1
  8 36  1  0
 13 37  1  0
 16 38  1  0
 16 39  1  0
 18 40  1  0
 19 41  1  0
 22 42  1  0
 24 43  1  0
 26 44  1  0
M  ISO  8  28  13  29  13  30  13  31  13  32   5  33  13  34  13  35  13
M  ISO  7  36  14  37  14  40  14  41  14  42  14  43  14  44  14
M  END
>  <minimizedAffinity>  (1) 
-5.32431555

>  <minimizedRMSD>  (1) 
1.42340171

$$$$
