
     RDKit          3D

 41 44  0  0  1  0  0  0  0  0999 V2000
   35.9730   28.3430   33.7060 N   0  0  0  0  0  0  0  0  0  0  0  0
   34.9720   29.2360   34.3070 C   0  0  0  0  0  0  0  0  0  0  0  0
   35.5700   30.6090   34.0360 C   0  0  0  0  0  0  0  0  0  0  0  0
   35.8510   30.8570   32.6830 N   0  0  0  0  0  0  0  0  0  0  0  0
   35.8860   29.8040   31.7520 C   0  0  0  0  0  0  0  0  0  0  0  0
   35.8760   28.4070   32.2620 C   0  0  1  0  0  0  0  0  0  0  0  0
   36.9080   27.6180   31.5910 N   0  0  0  0  0  0  0  0  0  0  0  0
   38.2060   27.9970   31.5230 C   0  0  0  0  0  0  0  0  0  0  0  0
   39.1720   27.2650   30.8990 C   0  0  0  0  0  0  0  0  0  0  0  0
   38.7960   26.0670   30.3060 C   0  0  0  0  0  0  0  0  0  0  0  0
   39.6990   25.3990   29.7330 O   0  0  0  0  0  0  0  0  0  0  0  0
   37.5000   25.6570   30.3570 N   0  0  0  0  0  0  0  0  0  0  0  0
   36.5960   26.4490   31.0010 C   0  0  0  0  0  0  0  0  0  0  0  0
   35.4240   25.9900   30.9970 O   0  0  0  0  0  0  0  0  0  0  0  0
   38.4910   25.7110   35.4960 C   0  0  0  0  0  0  0  0  0  0  0  0
   38.6520   27.0430   35.8980 C   0  0  0  0  0  0  0  0  0  0  0  0
   37.8460   27.9870   35.3450 C   0  0  0  0  0  0  0  0  0  0  0  0
   36.8900   27.5440   34.3880 C   0  0  0  0  0  0  0  0  0  0  0  0
   37.1830   25.7110   34.3030 S   0  0  0  0  0  0  0  0  0  0  0  0
   38.8370   23.7390   37.0100 C   0  0  0  0  0  0  0  0  0  0  0  0
   39.2470   24.5850   35.9640 C   0  0  0  0  0  0  0  0  0  0  0  0
   40.4370   24.3390   35.3420 C   0  0  0  0  0  0  0  0  0  0  0  0
   41.1740   23.2790   35.7680 N   0  0  0  0  0  0  0  0  0  0  0  0
   40.7860   22.4730   36.7640 C   0  0  0  0  0  0  0  0  0  0  0  0
   39.6100   22.7140   37.3820 N   0  0  0  0  0  0  0  0  0  0  0  0
   33.9922   29.1235   33.8198 H   0  0  0  0  0  0  0  0  0  0  0  0
   34.7825   29.0370   35.3721 H   0  0  0  0  0  0  0  0  0  0  0  0
   34.8577   31.3708   34.3857 H   0  0  0  0  0  0  0  0  0  0  0  0
   36.5306   30.6467   34.5706 H   0  0  0  0  0  0  0  0  0  0  0  0
   35.1359   31.5197   32.3508 H   0  0  0  0  0  0  0  0  0  0  0  0
   36.8033   29.9263   31.1573 H   0  0  0  0  0  0  0  0  0  0  0  0
   34.9375   29.8976   31.2029 H   0  0  0  0  0  0  0  0  0  0  0  0
   34.9001   27.9619   32.0180 H   0  0  0  0  0  0  0  0  0  0  0  0
   38.4966   28.9463   31.9966 H   0  0  0  0  0  0  0  0  0  0  0  0
   40.2153   27.6120   30.8663 H   0  0  0  0  0  0  0  0  0  0  0  0
   37.2089   24.7708   29.9202 H   0  0  0  0  0  0  0  0  0  0  0  0
   39.4126   27.3183   36.6434 H   0  0  0  0  0  0  0  0  0  0  0  0
   37.9288   29.0476   35.6248 H   0  0  0  0  0  0  0  0  0  0  0  0
   37.8805   23.9208   37.5218 H   0  0  0  0  0  0  0  0  0  0  0  0
   40.7893   24.9797   34.5202 H   0  0  0  0  0  0  0  0  0  0  0  0
   41.4162   21.6266   37.0744 H   0  0  0  0  0  0  0  0  0  0  0  0
  1  2  1  0
  1 18  1  0
  3  2  1  0
  4  3  1  0
  5  6  1  0
  5  4  1  0
  6  1  1  0
  7  6  1  0
  8  7  1  0
  9  8  2  0
 10 12  1  0
 10  9  1  0
 11 10  2  0
 12 13  1  0
 13  7  1  0
 14 13  2  0
 15 16  2  0
 15 21  1  0
 17 16  1  0
 18 17  2  0
 19 18  1  0
 19 15  1  0
 20 25  2  0
 21 20  1  0
 22 23  1  0
 22 21  2  0
 23 24  2  0
 24 25  1  0
  2 26  1  0
  2 27  1  0
  3 28  1  0
  3 29  1  0
  4 30  1  0
  5 31  1  0
  5 32  1  0
  6 33  1  1
  8 34  1  0
  9 35  1  0
 12 36  1  0
 16 37  1  0
 17 38  1  0
 20 39  1  0
 22 40  1  0
 24 41  1  0
M  ISO  8  26  13  27  13  28  13  29  13  30   5  31  13  32  13  33  13
M  ISO  8  34  14  35  14  36   9  37  14  38  14  39  14  40  14  41  14
M  END
>  <minimizedAffinity>  (1) 
-5.46895695

>  <minimizedRMSD>  (1) 
1.73291862

$$$$
