
     RDKit          3D

 53 55  0  0  1  0  0  0  0  0999 V2000
   36.7140   25.4820   32.0120 C   0  0  0  0  0  0  0  0  0  0  0  0
   37.3270   25.3980   33.2560 C   0  0  0  0  0  0  0  0  0  0  0  0
   37.3610   26.4550   34.0980 C   0  0  0  0  0  0  0  0  0  0  0  0
   36.7790   27.6300   33.6920 N   0  0  0  0  0  0  0  0  0  0  0  0
   36.1920   27.7130   32.4950 C   0  0  0  0  0  0  0  0  0  0  0  0
   36.1550   26.6730   31.6710 N   0  0  0  0  0  0  0  0  0  0  0  0
   37.9780   26.2380   35.4190 C   0  0  0  0  0  0  0  0  0  0  0  0
   37.8870   24.8210   35.7980 C   0  0  0  0  0  0  0  0  0  0  0  0
   39.1260   24.3230   36.3460 N   0  0  0  0  0  0  0  0  0  0  0  0
   39.8670   23.5810   35.2920 C   0  0  0  0  0  0  0  0  0  0  0  0
   40.9280   22.8780   36.0950 C   0  0  0  0  0  0  0  0  0  0  0  0
   40.3470   22.7340   37.4950 C   0  0  0  0  0  0  0  0  0  0  0  0
   38.9180   23.2530   37.2650 C   0  0  1  0  0  0  0  0  0  0  0  0
   38.4040   23.6840   38.5950 C   0  0  0  0  0  0  0  0  0  0  0  0
   39.3030   23.7060   39.5970 F   0  0  0  0  0  0  0  0  0  0  0  0
   37.2920   22.9290   38.8940 F   0  0  0  0  0  0  0  0  0  0  0  0
   37.9620   25.0180   38.4810 F   0  0  0  0  0  0  0  0  0  0  0  0
   35.5910   29.0250   32.0650 C   0  0  2  0  0  0  0  0  0  0  0  0
   36.3780   29.5430   30.8470 C   0  0  0  0  0  0  0  0  0  0  0  0
   35.5630   30.0150   33.1390 C   0  0  0  0  0  0  0  0  0  0  0  0
   34.4140   30.5820   33.6710 N   0  0  0  0  0  0  0  0  0  0  0  0
   33.4930   30.8470   32.5620 C   0  0  0  0  0  0  0  0  0  0  0  0
   32.1480   30.2070   32.7030 C   0  0  0  0  0  0  0  0  0  0  0  0
   32.3160   29.0000   33.3760 O   0  0  0  0  0  0  0  0  0  0  0  0
   32.5750   29.3080   34.7270 C   0  0  0  0  0  0  0  0  0  0  0  0
   33.7880   30.2350   34.8540 C   0  0  0  0  0  0  0  0  0  0  0  0
   36.6824   24.6192   31.3304 H   0  0  0  0  0  0  0  0  0  0  0  0
   37.7948   24.4508   33.5624 H   0  0  0  0  0  0  0  0  0  0  0  0
   39.0362   26.5355   35.3785 H   0  0  0  0  0  0  0  0  0  0  0  0
   37.4446   26.8433   36.1668 H   0  0  0  0  0  0  0  0  0  0  0  0
   37.0945   24.7061   36.5521 H   0  0  0  0  0  0  0  0  0  0  0  0
   37.6623   24.2421   34.8900 H   0  0  0  0  0  0  0  0  0  0  0  0
   40.3112   24.2678   34.5565 H   0  0  0  0  0  0  0  0  0  0  0  0
   39.2360   22.9027   34.6989 H   0  0  0  0  0  0  0  0  0  0  0  0
   41.1443   21.8891   35.6646 H   0  0  0  0  0  0  0  0  0  0  0  0
   41.8747   23.4380   36.1008 H   0  0  0  0  0  0  0  0  0  0  0  0
   40.3488   21.6859   37.8288 H   0  0  0  0  0  0  0  0  0  0  0  0
   40.9059   23.2669   38.2784 H   0  0  0  0  0  0  0  0  0  0  0  0
   38.1801   22.5432   36.8629 H   0  0  0  0  0  0  0  0  0  0  0  0
   34.5384   28.8564   31.7936 H   0  0  0  0  0  0  0  0  0  0  0  0
   37.2506   30.1173   31.1915 H   0  0  0  0  0  0  0  0  0  0  0  0
   36.7166   28.6906   30.2397 H   0  0  0  0  0  0  0  0  0  0  0  0
   35.7290   30.1911   30.2397 H   0  0  0  0  0  0  0  0  0  0  0  0
   36.0756   29.5401   33.9885 H   0  0  0  0  0  0  0  0  0  0  0  0
   35.9888   30.8846   32.6170 H   0  0  0  0  0  0  0  0  0  0  0  0
   33.9549   30.4743   31.6359 H   0  0  0  0  0  0  0  0  0  0  0  0
   33.3217   31.9335   32.5518 H   0  0  0  0  0  0  0  0  0  0  0  0
   31.4795   30.8651   33.2774 H   0  0  0  0  0  0  0  0  0  0  0  0
   31.7006   30.0343   31.7131 H   0  0  0  0  0  0  0  0  0  0  0  0
   31.6942   29.8065   35.1579 H   0  0  0  0  0  0  0  0  0  0  0  0
   32.7895   28.3731   35.2655 H   0  0  0  0  0  0  0  0  0  0  0  0
   34.5298   29.7325   35.4921 H   0  0  0  0  0  0  0  0  0  0  0  0
   33.3989   31.1761   35.2699 H   0  0  0  0  0  0  0  0  0  0  0  0
  1  2  2  0
  2  3  1  0
  3  7  1  0
  4  3  2  0
  5  4  1  0
  6  1  1  0
  6  5  2  0
  7  8  1  0
  8  9  1  0
  9 13  1  0
 10 11  1  0
 10  9  1  0
 11 12  1  0
 13 12  1  0
 13 14  1  0
 14 16  1  0
 14 15  1  0
 17 14  1  0
 18  5  1  0
 18 20  1  0
 19 18  1  0
 20 21  1  0
 21 26  1  0
 22 23  1  0
 22 21  1  0
 23 24  1  0
 24 25  1  0
 25 26  1  0
  1 27  1  0
  2 28  1  0
  7 29  1  0
  7 30  1  0
  8 31  1  0
  8 32  1  0
 10 33  1  0
 10 34  1  0
 11 35  1  0
 11 36  1  0
 12 37  1  0
 12 38  1  0
 13 39  1  6
 18 40  1  6
 19 41  1  0
 19 42  1  0
 19 43  1  0
 20 44  1  0
 20 45  1  0
 22 46  1  0
 22 47  1  0
 23 48  1  0
 23 49  1  0
 25 50  1  0
 25 51  1  0
 26 52  1  0
 26 53  1  0
M  ISO  8  27  14  28  14  29   8  30   8  31   8  32   8  33  13  34  13
M  ISO  8  35  13  36  13  37  13  38  13  39  13  40   8  41   8  42   8
M  ISO  8  43   8  44   8  45   8  46  13  47  13  48  13  49  13  50  13
M  ISO  3  51  13  52  13  53  13
M  END
>  <minimizedAffinity>  (1) 
-5.74102736

>  <minimizedRMSD>  (1) 
1.11363208

$$$$
