
     RDKit          3D

 32 34  0  0  1  0  0  0  0  0999 V2000
   38.0540   25.5210   35.2240 C   0  0  0  0  0  0  0  0  0  0  0  0
   37.7330   26.8540   35.5250 C   0  0  0  0  0  0  0  0  0  0  0  0
   37.1510   27.6240   34.5850 C   0  0  0  0  0  0  0  0  0  0  0  0
   36.8990   27.0160   33.3240 C   0  0  0  0  0  0  0  0  0  0  0  0
   37.5400   25.2680   33.5480 S   0  0  0  0  0  0  0  0  0  0  0  0
   36.3150   27.5990   32.1940 N   0  0  0  0  0  0  0  0  0  0  0  0
   35.3380   28.6870   32.2060 C   0  0  0  0  0  0  0  0  0  0  0  0
   36.1970   29.8770   31.7450 C   0  0  0  0  0  0  0  0  0  0  0  0
   36.8430   29.6620   30.5120 N   0  0  0  0  0  0  0  0  0  0  0  0
   36.9930   28.3750   29.9750 C   0  0  0  0  0  0  0  0  0  0  0  0
   36.6050   27.2020   30.8290 C   0  0  2  0  0  0  0  0  0  0  0  0
   35.6050   26.4090   30.2700 O   0  0  0  0  0  0  0  0  0  0  0  0
   38.1630   24.2340   37.3740 C   0  0  0  0  0  0  0  0  0  0  0  0
   38.6720   24.5710   36.1070 C   0  0  0  0  0  0  0  0  0  0  0  0
   39.8170   23.9790   35.6630 C   0  0  0  0  0  0  0  0  0  0  0  0
   40.4040   23.0800   36.5010 N   0  0  0  0  0  0  0  0  0  0  0  0
   39.9360   22.7530   37.6970 C   0  0  0  0  0  0  0  0  0  0  0  0
   38.8050   23.3380   38.1330 N   0  0  0  0  0  0  0  0  0  0  0  0
   37.9548   27.2666   36.5203 H   0  0  0  0  0  0  0  0  0  0  0  0
   36.8836   28.6724   34.7832 H   0  0  0  0  0  0  0  0  0  0  0  0
   34.5120   28.4928   31.5060 H   0  0  0  0  0  0  0  0  0  0  0  0
   34.8479   28.8385   33.1791 H   0  0  0  0  0  0  0  0  0  0  0  0
   35.5463   30.7585   31.6476 H   0  0  0  0  0  0  0  0  0  0  0  0
   36.9835   30.0190   32.5008 H   0  0  0  0  0  0  0  0  0  0  0  0
   36.3218   30.2093   29.8122 H   0  0  0  0  0  0  0  0  0  0  0  0
   36.3828   28.3294   29.0609 H   0  0  0  0  0  0  0  0  0  0  0  0
   38.0780   28.2628   29.8329 H   0  0  0  0  0  0  0  0  0  0  0  0
   37.4902   26.5501   30.8679 H   0  0  0  0  0  0  0  0  0  0  0  0
   35.0747   25.9885   30.9926 H   0  0  0  0  0  0  0  0  0  0  0  0
   37.2393   24.7058   37.7403 H   0  0  0  0  0  0  0  0  0  0  0  0
   40.2451   24.2155   34.6777 H   0  0  0  0  0  0  0  0  0  0  0  0
   40.4624   22.0167   38.3221 H   0  0  0  0  0  0  0  0  0  0  0  0
  1  2  2  0
  1 14  1  0
  3  2  1  0
  4  5  1  0
  4  3  2  0
  5  1  1  0
  6  7  1  0
  6  4  1  0
  8  7  1  0
  9  8  1  0
 10  9  1  0
 10 11  1  0
 11  6  1  0
 12 11  1  0
 13 18  2  0
 14 13  1  0
 15 14  2  0
 15 16  1  0
 16 17  2  0
 17 18  1  0
  2 19  1  0
  3 20  1  0
  7 21  1  0
  7 22  1  0
  8 23  1  0
  8 24  1  0
  9 25  1  0
 10 26  1  0
 10 27  1  0
 11 28  1  1
 12 29  1  0
 13 30  1  0
 15 31  1  0
 17 32  1  0
M  ISO  8  19  14  20  14  21  13  22  13  23  13  24  13  25   5  26  13
M  ISO  6  27  13  28  13  29   3  30  14  31  14  32  14
M  END
>  <minimizedAffinity>  (1) 
-5.19026184

>  <minimizedRMSD>  (1) 
0.168595046

$$$$
