
     RDKit          3D

 45 49  0  0  1  0  0  0  0  0999 V2000
   35.3400   29.2900   33.1830 N   0  0  0  0  0  0  0  0  0  0  0  0
   34.2210   28.9680   32.3250 C   0  0  0  0  0  0  0  0  0  0  0  0
   33.0290   29.2190   33.2730 C   0  0  0  0  0  0  0  0  0  0  0  0
   32.9980   30.5100   33.7850 N   0  0  0  0  0  0  0  0  0  0  0  0
   34.1340   31.3320   33.7820 C   0  0  0  0  0  0  0  0  0  0  0  0
   35.4430   30.7460   33.3900 C   0  0  2  0  0  0  0  0  0  0  0  0
   36.0560   31.3640   32.1850 C   0  0  0  0  0  0  0  0  0  0  0  0
   36.0480   30.8390   30.9390 N   0  0  0  0  0  0  0  0  0  0  0  0
   36.6080   31.3910   29.8660 C   0  0  0  0  0  0  0  0  0  0  0  0
   37.2520   32.5610   29.9350 N   0  0  0  0  0  0  0  0  0  0  0  0
   37.3210   33.1720   31.1240 C   0  0  0  0  0  0  0  0  0  0  0  0
   37.9790   34.3700   31.1830 C   0  0  0  0  0  0  0  0  0  0  0  0
   38.0790   35.0480   32.3770 C   0  0  0  0  0  0  0  0  0  0  0  0
   37.5010   34.4810   33.4880 C   0  0  0  0  0  0  0  0  0  0  0  0
   36.8450   33.2720   33.3930 C   0  0  0  0  0  0  0  0  0  0  0  0
   36.7280   32.5700   32.2140 C   0  0  0  0  0  0  0  0  0  0  0  0
   37.9170   26.4850   34.6120 C   0  0  0  0  0  0  0  0  0  0  0  0
   37.7170   27.5810   35.4560 C   0  0  0  0  0  0  0  0  0  0  0  0
   36.8680   28.5550   35.0370 C   0  0  0  0  0  0  0  0  0  0  0  0
   36.2400   28.3950   33.7750 C   0  0  0  0  0  0  0  0  0  0  0  0
   36.9110   26.7660   33.1720 S   0  0  0  0  0  0  0  0  0  0  0  0
   38.7670   24.5970   36.0230 C   0  0  0  0  0  0  0  0  0  0  0  0
   38.7690   25.3580   34.8560 C   0  0  0  0  0  0  0  0  0  0  0  0
   39.6480   25.0160   33.8630 C   0  0  0  0  0  0  0  0  0  0  0  0
   40.4660   23.9510   34.0810 N   0  0  0  0  0  0  0  0  0  0  0  0
   40.4530   23.2340   35.2010 C   0  0  0  0  0  0  0  0  0  0  0  0
   39.5790   23.5720   36.1920 N   0  0  0  0  0  0  0  0  0  0  0  0
   34.1834   29.6299   31.4472 H   0  0  0  0  0  0  0  0  0  0  0  0
   34.2547   27.9524   31.9037 H   0  0  0  0  0  0  0  0  0  0  0  0
   32.0968   29.0413   32.7168 H   0  0  0  0  0  0  0  0  0  0  0  0
   33.1397   28.5325   34.1253 H   0  0  0  0  0  0  0  0  0  0  0  0
   32.2740   31.0147   33.2540 H   0  0  0  0  0  0  0  0  0  0  0  0
   33.9307   32.1613   33.0885 H   0  0  0  0  0  0  0  0  0  0  0  0
   34.2698   31.6006   34.8400 H   0  0  0  0  0  0  0  0  0  0  0  0
   36.1073   30.9655   34.2389 H   0  0  0  0  0  0  0  0  0  0  0  0
   36.5397   30.8724   28.8983 H   0  0  0  0  0  0  0  0  0  0  0  0
   38.4298   34.7930   30.2731 H   0  0  0  0  0  0  0  0  0  0  0  0
   38.6045   36.0123   32.4400 H   0  0  0  0  0  0  0  0  0  0  0  0
   37.5622   34.9950   34.4586 H   0  0  0  0  0  0  0  0  0  0  0  0
   36.3936   32.8480   34.3021 H   0  0  0  0  0  0  0  0  0  0  0  0
   38.2297   27.6524   36.4266 H   0  0  0  0  0  0  0  0  0  0  0  0
   36.6731   29.4418   35.6580 H   0  0  0  0  0  0  0  0  0  0  0  0
   38.0658   24.8596   36.8289 H   0  0  0  0  0  0  0  0  0  0  0  0
   39.6911   25.5830   32.9214 H   0  0  0  0  0  0  0  0  0  0  0  0
   41.1367   22.3814   35.3262 H   0  0  0  0  0  0  0  0  0  0  0  0
  1  6  1  0
  1 20  1  0
  2  1  1  0
  2  3  1  0
  3  4  1  0
  5  4  1  0
  6  5  1  0
  7 16  1  0
  7  6  1  0
  8  7  2  0
  9 10  2  0
  9  8  1  0
 10 11  1  0
 11 12  1  0
 11 16  2  0
 12 13  2  0
 13 14  1  0
 15 14  2  0
 16 15  1  0
 17 23  1  0
 17 18  2  0
 19 18  1  0
 20 19  2  0
 21 20  1  0
 21 17  1  0
 22 27  2  0
 23 22  1  0
 24 25  1  0
 24 23  2  0
 25 26  2  0
 26 27  1  0
  2 28  1  0
  2 29  1  0
  3 30  1  0
  3 31  1  0
  4 32  1  0
  5 33  1  0
  5 34  1  0
  6 35  1  1
  9 36  1  0
 12 37  1  0
 13 38  1  0
 14 39  1  0
 15 40  1  0
 18 41  1  0
 19 42  1  0
 22 43  1  0
 24 44  1  0
 26 45  1  0
M  ISO  8  28  13  29  13  30  13  31  13  32   5  33  13  34  13  35  13
M  ISO  8  36  14  37  14  38  14  39  14  40  14  41  14  42  14  43  14
M  ISO  2  44  14  45  14
M  END
>  <minimizedAffinity>  (1) 
-4.86911678

>  <minimizedRMSD>  (1) 
5.32559204

$$$$
