
     RDKit          3D

 41 44  0  0  1  0  0  0  0  0999 V2000
   37.7060   26.4230   32.8320 N   0  0  0  0  0  0  0  0  0  0  0  0
   36.5170   27.0440   33.3590 C   0  0  0  0  0  0  0  0  0  0  0  0
   36.5730   28.4300   32.7220 C   0  0  0  0  0  0  0  0  0  0  0  0
   36.6360   28.4040   31.3340 N   0  0  0  0  0  0  0  0  0  0  0  0
   37.0060   27.2410   30.6360 C   0  0  0  0  0  0  0  0  0  0  0  0
   37.5110   26.0680   31.4130 C   0  0  2  0  0  0  0  0  0  0  0  0
   36.6910   24.8390   31.3070 C   0  0  0  0  0  0  0  0  0  0  0  0
   37.3830   23.6210   31.2870 C   0  0  0  0  0  0  0  0  0  0  0  0
   36.7590   22.4110   31.1780 C   0  0  0  0  0  0  0  0  0  0  0  0
   35.3820   22.3180   31.0780 C   0  0  0  0  0  0  0  0  0  0  0  0
   34.6680   23.4970   31.0950 C   0  0  0  0  0  0  0  0  0  0  0  0
   35.3310   24.6720   31.2050 C   0  0  0  0  0  0  0  0  0  0  0  0
   41.1030   25.2840   34.7770 C   0  0  0  0  0  0  0  0  0  0  0  0
   40.9600   26.6590   34.5510 C   0  0  0  0  0  0  0  0  0  0  0  0
   39.8670   27.1240   33.9130 C   0  0  0  0  0  0  0  0  0  0  0  0
   38.9070   26.1580   33.5020 C   0  0  0  0  0  0  0  0  0  0  0  0
   39.6570   24.5440   34.0800 S   0  0  0  0  0  0  0  0  0  0  0  0
   42.1290   23.3580   36.0130 C   0  0  0  0  0  0  0  0  0  0  0  0
   42.1870   24.6380   35.4380 C   0  0  0  0  0  0  0  0  0  0  0  0
   43.3620   25.3300   35.5100 C   0  0  0  0  0  0  0  0  0  0  0  0
   44.4120   24.7340   36.1360 N   0  0  0  0  0  0  0  0  0  0  0  0
   44.3510   23.5240   36.6770 C   0  0  0  0  0  0  0  0  0  0  0  0
   43.1810   22.8200   36.6130 N   0  0  0  0  0  0  0  0  0  0  0  0
   35.6120   26.4993   33.0518 H   0  0  0  0  0  0  0  0  0  0  0  0
   36.4766   27.0626   34.4581 H   0  0  0  0  0  0  0  0  0  0  0  0
   35.6709   28.9853   33.0185 H   0  0  0  0  0  0  0  0  0  0  0  0
   37.4967   28.9103   33.0771 H   0  0  0  0  0  0  0  0  0  0  0  0
   35.6971   28.6592   30.9959 H   0  0  0  0  0  0  0  0  0  0  0  0
   36.1205   26.9028   30.0778 H   0  0  0  0  0  0  0  0  0  0  0  0
   37.8710   27.5548   30.0333 H   0  0  0  0  0  0  0  0  0  0  0  0
   38.4742   25.8199   30.9433 H   0  0  0  0  0  0  0  0  0  0  0  0
   38.4802   23.6401   31.3626 H   0  0  0  0  0  0  0  0  0  0  0  0
   37.3632   21.4919   31.1695 H   0  0  0  0  0  0  0  0  0  0  0  0
   34.8783   21.3442   30.9887 H   0  0  0  0  0  0  0  0  0  0  0  0
   33.5707   23.4831   31.0199 H   0  0  0  0  0  0  0  0  0  0  0  0
   34.7189   25.5859   31.2136 H   0  0  0  0  0  0  0  0  0  0  0  0
   41.7376   27.3577   34.8932 H   0  0  0  0  0  0  0  0  0  0  0  0
   39.7246   28.1975   33.7198 H   0  0  0  0  0  0  0  0  0  0  0  0
   41.1889   22.7890   35.9642 H   0  0  0  0  0  0  0  0  0  0  0  0
   43.4562   26.3364   35.0760 H   0  0  0  0  0  0  0  0  0  0  0  0
   45.2331   23.0917   37.1720 H   0  0  0  0  0  0  0  0  0  0  0  0
  1  2  1  0
  1 16  1  0
  3  2  1  0
  4  3  1  0
  5  4  1  0
  5  6  1  0
  6  1  1  0
  7  6  1  0
  8  7  2  0
  9  8  1  0
 10 11  1  0
 10  9  2  0
 11 12  2  0
 12  7  1  0
 13 19  1  0
 14 13  2  0
 15 14  1  0
 16 15  2  0
 16 17  1  0
 17 13  1  0
 18 23  2  0
 19 20  2  0
 19 18  1  0
 20 21  1  0
 21 22  2  0
 23 22  1  0
  2 24  1  0
  2 25  1  0
  3 26  1  0
  3 27  1  0
  4 28  1  0
  5 29  1  0
  5 30  1  0
  6 31  1  6
  8 32  1  0
  9 33  1  0
 10 34  1  0
 11 35  1  0
 12 36  1  0
 14 37  1  0
 15 38  1  0
 18 39  1  0
 20 40  1  0
 22 41  1  0
M  ISO  8  24  13  25  13  26  13  27  13  28   5  29  13  30  13  31  13
M  ISO  8  32  14  33  14  34  14  35  14  36  14  37  14  38  14  39  14
M  ISO  2  40  14  41  14
M  END
>  <minimizedAffinity>  (1) 
-4.3496809

>  <minimizedRMSD>  (1) 
3.19111419

$$$$
