
     RDKit          3D

 38 41  0  0  1  0  0  0  0  0999 V2000
   36.5020   27.1030   32.4800 N   0  0  0  0  0  0  0  0  0  0  0  0
   35.4970   28.1690   32.5500 C   0  0  0  0  0  0  0  0  0  0  0  0
   36.2940   29.3750   32.0570 C   0  0  0  0  0  0  0  0  0  0  0  0
   36.8710   29.1900   30.7860 N   0  0  0  0  0  0  0  0  0  0  0  0
   37.0630   27.9110   30.2400 C   0  0  0  0  0  0  0  0  0  0  0  0
   36.7380   26.7220   31.1000 C   0  0  2  0  0  0  0  0  0  0  0  0
   38.4790   25.0660   35.3920 C   0  0  0  0  0  0  0  0  0  0  0  0
   38.0360   26.3450   35.7590 C   0  0  0  0  0  0  0  0  0  0  0  0
   37.3690   27.0930   34.8540 C   0  0  0  0  0  0  0  0  0  0  0  0
   37.1610   26.5190   33.5690 C   0  0  0  0  0  0  0  0  0  0  0  0
   37.9700   24.8460   33.7160 S   0  0  0  0  0  0  0  0  0  0  0  0
   38.7460   23.6720   37.4670 C   0  0  0  0  0  0  0  0  0  0  0  0
   39.1970   24.1420   36.2210 C   0  0  0  0  0  0  0  0  0  0  0  0
   40.4020   23.7020   35.7520 C   0  0  0  0  0  0  0  0  0  0  0  0
   41.0890   22.8250   36.5380 N   0  0  0  0  0  0  0  0  0  0  0  0
   40.6590   22.3830   37.7150 C   0  0  0  0  0  0  0  0  0  0  0  0
   39.4700   22.8180   38.1770 N   0  0  0  0  0  0  0  0  0  0  0  0
   35.5360   26.0110   30.5070 C   0  0  0  0  0  0  0  0  0  0  0  0
   34.3820   25.5750   31.2760 C   0  0  0  0  0  0  0  0  0  0  0  0
   35.3400   24.5430   30.7410 C   0  0  0  0  0  0  0  0  0  0  0  0
   34.6410   27.9575   31.8924 H   0  0  0  0  0  0  0  0  0  0  0  0
   35.0549   28.3025   33.5484 H   0  0  0  0  0  0  0  0  0  0  0  0
   35.6185   30.2418   32.0091 H   0  0  0  0  0  0  0  0  0  0  0  0
   37.1206   29.5264   32.7667 H   0  0  0  0  0  0  0  0  0  0  0  0
   36.2748   29.7022   30.1203 H   0  0  0  0  0  0  0  0  0  0  0  0
   36.4376   27.8430   29.3376 H   0  0  0  0  0  0  0  0  0  0  0  0
   38.1483   27.8425   30.0742 H   0  0  0  0  0  0  0  0  0  0  0  0
   37.6002   26.0391   31.1139 H   0  0  0  0  0  0  0  0  0  0  0  0
   38.2292   26.7334   36.7699 H   0  0  0  0  0  0  0  0  0  0  0  0
   37.0029   28.1009   35.0993 H   0  0  0  0  0  0  0  0  0  0  0  0
   37.7780   24.0180   37.8585 H   0  0  0  0  0  0  0  0  0  0  0  0
   40.8002   24.0399   34.7839 H   0  0  0  0  0  0  0  0  0  0  0  0
   41.2626   21.6748   38.3017 H   0  0  0  0  0  0  0  0  0  0  0  0
   35.6436   26.6696   29.6326 H   0  0  0  0  0  0  0  0  0  0  0  0
   34.3378   25.7729   32.3572 H   0  0  0  0  0  0  0  0  0  0  0  0
   33.2965   25.7354   31.1989 H   0  0  0  0  0  0  0  0  0  0  0  0
   35.0410   23.8832   29.9132 H   0  0  0  0  0  0  0  0  0  0  0  0
   35.9380   23.7239   31.1669 H   0  0  0  0  0  0  0  0  0  0  0  0
  1  2  1  0
  1 10  1  0
  3  2  1  0
  4  3  1  0
  5  4  1  0
  5  6  1  0
  6  1  1  0
  7  8  2  0
  7 13  1  0
  9  8  1  0
 10 11  1  0
 10  9  2  0
 11  7  1  0
 12 17  2  0
 13 12  1  0
 14 13  2  0
 14 15  1  0
 15 16  2  0
 16 17  1  0
 18 20  1  0
 18  6  1  0
 18 19  1  0
 20 19  1  0
  2 21  1  0
  2 22  1  0
  3 23  1  0
  3 24  1  0
  4 25  1  0
  5 26  1  0
  5 27  1  0
  6 28  1  1
  8 29  1  0
  9 30  1  0
 12 31  1  0
 14 32  1  0
 16 33  1  0
 18 34  1  0
 19 35  1  0
 19 36  1  0
 20 37  1  0
 20 38  1  0
M  ISO  8  21  13  22  13  23  13  24  13  25   5  26  13  27  13  28  13
M  ISO  8  29  14  30  14  31  14  32  14  33  14  34  13  35  13  36  13
M  ISO  2  37  13  38  13
M  END
>  <minimizedAffinity>  (1) 
-4.58795643

>  <minimizedRMSD>  (1) 
1.06442964

$$$$
