
     RDKit          3D

 38 41  0  0  1  0  0  0  0  0999 V2000
   38.7850   24.8500   35.0930 N   0  0  0  0  0  0  0  0  0  0  0  0
   37.7020   25.4740   35.8670 C   0  0  0  0  0  0  0  0  0  0  0  0
   38.3240   26.8180   36.2270 C   0  0  0  0  0  0  0  0  0  0  0  0
   38.7680   27.5500   35.1320 N   0  0  0  0  0  0  0  0  0  0  0  0
   38.9860   26.9540   33.8690 C   0  0  0  0  0  0  0  0  0  0  0  0
   38.9030   25.4810   33.7740 C   0  0  2  0  0  0  0  0  0  0  0  0
   41.3790   21.8550   35.9820 C   0  0  0  0  0  0  0  0  0  0  0  0
   40.3790   22.0700   36.9410 C   0  0  0  0  0  0  0  0  0  0  0  0
   39.4720   23.0560   36.7160 C   0  0  0  0  0  0  0  0  0  0  0  0
   39.6080   23.8020   35.5110 C   0  0  0  0  0  0  0  0  0  0  0  0
   41.0950   23.0400   34.6980 S   0  0  0  0  0  0  0  0  0  0  0  0
   42.8110   20.2020   37.2270 C   0  0  0  0  0  0  0  0  0  0  0  0
   42.4170   20.8660   36.0520 C   0  0  0  0  0  0  0  0  0  0  0  0
   43.0600   20.5650   34.8850 C   0  0  0  0  0  0  0  0  0  0  0  0
   44.0520   19.6350   34.9230 N   0  0  0  0  0  0  0  0  0  0  0  0
   44.4160   19.0080   36.0570 C   0  0  0  0  0  0  0  0  0  0  0  0
   43.7770   19.3050   37.2270 N   0  0  0  0  0  0  0  0  0  0  0  0
   37.7800   24.9940   32.9640 C   0  0  0  0  0  0  0  0  0  0  0  0
   36.7150   25.5050   32.3520 C   0  0  0  0  0  0  0  0  0  0  0  0
   35.8340   24.7300   31.6490 C   0  0  0  0  0  0  0  0  0  0  0  0
   36.1350   23.3510   31.6200 C   0  0  0  0  0  0  0  0  0  0  0  0
   37.7130   23.2710   32.6400 S   0  0  0  0  0  0  0  0  0  0  0  0
   36.7944   25.6009   35.2586 H   0  0  0  0  0  0  0  0  0  0  0  0
   37.3729   24.8843   36.7353 H   0  0  0  0  0  0  0  0  0  0  0  0
   37.5697   27.4161   36.7593 H   0  0  0  0  0  0  0  0  0  0  0  0
   39.2088   26.6026   36.8441 H   0  0  0  0  0  0  0  0  0  0  0  0
   38.0727   28.2951   34.9826 H   0  0  0  0  0  0  0  0  0  0  0  0
   38.2379   27.3692   33.1777 H   0  0  0  0  0  0  0  0  0  0  0  0
   40.0349   27.1863   33.6325 H   0  0  0  0  0  0  0  0  0  0  0  0
   39.8462   25.2009   33.2822 H   0  0  0  0  0  0  0  0  0  0  0  0
   40.3301   21.4559   37.8523 H   0  0  0  0  0  0  0  0  0  0  0  0
   38.6666   23.2690   37.4344 H   0  0  0  0  0  0  0  0  0  0  0  0
   42.2993   20.4374   38.1719 H   0  0  0  0  0  0  0  0  0  0  0  0
   42.7838   21.0600   33.9423 H   0  0  0  0  0  0  0  0  0  0  0  0
   45.2232   18.2609   36.0416 H   0  0  0  0  0  0  0  0  0  0  0  0
   36.5367   26.5887   32.4135 H   0  0  0  0  0  0  0  0  0  0  0  0
   34.9534   25.1514   31.1421 H   0  0  0  0  0  0  0  0  0  0  0  0
   35.5875   22.5338   31.1276 H   0  0  0  0  0  0  0  0  0  0  0  0
  1 10  1  0
  1  2  1  0
  2  3  1  0
  4  3  1  0
  5  4  1  0
  6  5  1  0
  6  1  1  0
  7 13  1  0
  7  8  2  0
  9  8  1  0
 10  9  2  0
 11 10  1  0
 11  7  1  0
 12 17  2  0
 13 12  1  0
 14 15  1  0
 14 13  2  0
 15 16  2  0
 16 17  1  0
 18  6  1  0
 19 18  2  0
 20 19  1  0
 21 20  2  0
 21 22  1  0
 22 18  1  0
  2 23  1  0
  2 24  1  0
  3 25  1  0
  3 26  1  0
  4 27  1  0
  5 28  1  0
  5 29  1  0
  6 30  1  6
  8 31  1  0
  9 32  1  0
 12 33  1  0
 14 34  1  0
 16 35  1  0
 19 36  1  0
 20 37  1  0
 21 38  1  0
M  ISO  8  23  13  24  13  25  13  26  13  27   5  28  13  29  13  30  13
M  ISO  8  31  14  32  14  33  14  34  14  35  14  36  14  37  14  38  14
M  END
>  <minimizedAffinity>  (1) 
-4.48832321

>  <minimizedRMSD>  (1) 
5.09909248

$$$$
