
     RDKit          3D

 32 34  0  0  1  0  0  0  0  0999 V2000
   38.5790   24.9540   35.3930 C   0  0  0  0  0  0  0  0  0  0  0  0
   38.1250   26.2190   35.7850 C   0  0  0  0  0  0  0  0  0  0  0  0
   37.4110   26.9580   34.8960 C   0  0  0  0  0  0  0  0  0  0  0  0
   37.1760   26.3840   33.6140 C   0  0  0  0  0  0  0  0  0  0  0  0
   38.0180   24.7240   33.7170 S   0  0  0  0  0  0  0  0  0  0  0  0
   36.4710   26.9670   32.5560 N   0  0  0  0  0  0  0  0  0  0  0  0
   35.5410   28.0980   32.6490 C   0  0  0  0  0  0  0  0  0  0  0  0
   36.3750   29.2310   32.0350 C   0  0  0  0  0  0  0  0  0  0  0  0
   36.8390   28.9510   30.7450 N   0  0  0  0  0  0  0  0  0  0  0  0
   36.8850   27.6490   30.2440 C   0  0  0  0  0  0  0  0  0  0  0  0
   36.5680   26.5180   31.1810 C   0  0  2  0  0  0  0  0  0  0  0  0
   34.9310   25.8000   30.7860 S   0  0  0  0  0  0  0  0  0  0  0  0
   38.9320   23.5340   37.4260 C   0  0  0  0  0  0  0  0  0  0  0  0
   39.3430   24.0390   36.1920 C   0  0  0  0  0  0  0  0  0  0  0  0
   40.5520   23.6520   35.6920 C   0  0  0  0  0  0  0  0  0  0  0  0
   41.3060   22.7890   36.4220 N   0  0  0  0  0  0  0  0  0  0  0  0
   40.8940   22.3120   37.6110 C   0  0  0  0  0  0  0  0  0  0  0  0
   39.6830   22.6970   38.1140 N   0  0  0  0  0  0  0  0  0  0  0  0
   38.3417   26.6065   36.7914 H   0  0  0  0  0  0  0  0  0  0  0  0
   37.0307   27.9570   35.1554 H   0  0  0  0  0  0  0  0  0  0  0  0
   34.6248   27.9136   32.0689 H   0  0  0  0  0  0  0  0  0  0  0  0
   35.1864   28.3044   33.6696 H   0  0  0  0  0  0  0  0  0  0  0  0
   35.7521   30.1366   31.9913 H   0  0  0  0  0  0  0  0  0  0  0  0
   37.2605   29.3618   32.6743 H   0  0  0  0  0  0  0  0  0  0  0  0
   36.2411   29.4875   30.1003 H   0  0  0  0  0  0  0  0  0  0  0  0
   36.1681   27.5940   29.4115 H   0  0  0  0  0  0  0  0  0  0  0  0
   37.9412   27.4956   29.9778 H   0  0  0  0  0  0  0  0  0  0  0  0
   37.3835   25.7894   31.0624 H   0  0  0  0  0  0  0  0  0  0  0  0
   34.2674   25.5089   31.9487 H   0  0  0  0  0  0  0  0  0  0  0  0
   37.9581   23.8416   37.8345 H   0  0  0  0  0  0  0  0  0  0  0  0
   40.9076   24.0293   34.7218 H   0  0  0  0  0  0  0  0  0  0  0  0
   41.5298   21.6146   38.1761 H   0  0  0  0  0  0  0  0  0  0  0  0
  1  2  2  0
  1 14  1  0
  3  2  1  0
  4  5  1  0
  4  3  2  0
  5  1  1  0
  6  7  1  0
  6  4  1  0
  8  7  1  0
  9  8  1  0
 10  9  1  0
 10 11  1  0
 11  6  1  0
 12 11  1  0
 13 18  2  0
 14 13  1  0
 15 14  2  0
 15 16  1  0
 16 17  2  0
 17 18  1  0
  2 19  1  0
  3 20  1  0
  7 21  1  0
  7 22  1  0
  8 23  1  0
  8 24  1  0
  9 25  1  0
 10 26  1  0
 10 27  1  0
 11 28  1  1
 12 29  1  0
 13 30  1  0
 15 31  1  0
 17 32  1  0
M  ISO  8  19  14  20  14  21  13  22  13  23  13  24  13  25   5  26  13
M  ISO  6  27  13  28  13  29  11  30  14  31  14  32  14
M  END
>  <minimizedAffinity>  (1) 
-4.30779839

>  <minimizedRMSD>  (1) 
0.973457336

$$$$
