
     RDKit          3D

 45 48  0  0  1  0  0  0  0  0999 V2000
   37.9240   25.4600   33.5760 C   0  0  0  0  0  0  0  0  0  0  0  0
   37.8140   24.1440   33.1470 C   0  0  0  0  0  0  0  0  0  0  0  0
   38.7300   23.2400   33.5730 C   0  0  0  0  0  0  0  0  0  0  0  0
   39.7430   23.7090   34.4360 C   0  0  0  0  0  0  0  0  0  0  0  0
   39.3500   25.5100   34.6280 S   0  0  0  0  0  0  0  0  0  0  0  0
   36.4370   26.7020   31.9790 C   0  0  0  0  0  0  0  0  0  0  0  0
   37.0510   26.5600   33.2330 C   0  0  0  0  0  0  0  0  0  0  0  0
   36.8350   27.4870   34.1950 C   0  0  0  0  0  0  0  0  0  0  0  0
   36.0150   28.5310   33.8810 N   0  0  0  0  0  0  0  0  0  0  0  0
   35.4310   28.6640   32.6870 C   0  0  0  0  0  0  0  0  0  0  0  0
   35.6500   27.7280   31.7170 N   0  0  0  0  0  0  0  0  0  0  0  0
   34.6130   29.8350   32.5810 N   0  0  0  0  0  0  0  0  0  0  0  0
   34.4890   30.6690   31.5330 C   0  0  0  0  0  0  0  0  0  0  0  0
   33.6340   31.7460   31.6510 C   0  0  0  0  0  0  0  0  0  0  0  0
   33.5180   32.6440   30.4880 C   0  0  0  0  0  0  0  0  0  0  0  0
   32.9070   31.9900   32.8080 C   0  0  0  0  0  0  0  0  0  0  0  0
   32.1460   32.9700   32.8810 O   0  0  0  0  0  0  0  0  0  0  0  0
   33.0840   31.1060   33.8210 N   0  0  0  0  0  0  0  0  0  0  0  0
   33.9230   30.0370   33.7250 C   0  0  0  0  0  0  0  0  0  0  0  0
   33.9400   29.3540   34.7580 O   0  0  0  0  0  0  0  0  0  0  0  0
   40.8000   22.9680   35.0030 N   0  0  0  0  0  0  0  0  0  0  0  0
   41.4260   21.7820   34.3900 C   0  0  0  0  0  0  0  0  0  0  0  0
   42.7720   22.3670   33.9110 C   0  0  0  0  0  0  0  0  0  0  0  0
   43.5100   22.9810   34.9350 N   0  0  0  0  0  0  0  0  0  0  0  0
   42.9200   23.3790   36.1370 C   0  0  0  0  0  0  0  0  0  0  0  0
   41.4180   23.2680   36.2660 C   0  0  2  0  0  0  0  0  0  0  0  0
   40.9770   21.8790   37.3640 S   0  0  0  0  0  0  0  0  0  0  0  0
   36.9986   23.8406   32.4739 H   0  0  0  0  0  0  0  0  0  0  0  0
   38.6855   22.1866   33.2595 H   0  0  0  0  0  0  0  0  0  0  0  0
   36.6150   25.9448   31.2012 H   0  0  0  0  0  0  0  0  0  0  0  0
   37.3008   27.4023   35.1879 H   0  0  0  0  0  0  0  0  0  0  0  0
   35.0547   30.4970   30.6054 H   0  0  0  0  0  0  0  0  0  0  0  0
   33.3843   33.6790   30.8358 H   0  0  0  0  0  0  0  0  0  0  0  0
   34.4323   32.5767   29.8801 H   0  0  0  0  0  0  0  0  0  0  0  0
   32.6508   32.3465   29.8801 H   0  0  0  0  0  0  0  0  0  0  0  0
   32.5632   31.2485   34.6981 H   0  0  0  0  0  0  0  0  0  0  0  0
   41.5749   20.9787   35.1266 H   0  0  0  0  0  0  0  0  0  0  0  0
   40.8271   21.3164   33.5934 H   0  0  0  0  0  0  0  0  0  0  0  0
   43.3758   21.5508   33.4876 H   0  0  0  0  0  0  0  0  0  0  0  0
   42.5416   23.1437   33.1669 H   0  0  0  0  0  0  0  0  0  0  0  0
   44.2589   22.3201   35.1865 H   0  0  0  0  0  0  0  0  0  0  0  0
   43.3623   22.7661   36.9362 H   0  0  0  0  0  0  0  0  0  0  0  0
   43.1196   24.4592   36.1943 H   0  0  0  0  0  0  0  0  0  0  0  0
   41.0703   24.2357   36.6568 H   0  0  0  0  0  0  0  0  0  0  0  0
   41.1018   22.2722   38.6704 H   0  0  0  0  0  0  0  0  0  0  0  0
  1  5  1  0
  2  3  1  0
  2  1  2  0
  3  4  2  0
  4  5  1  0
  4 21  1  0
  6  7  2  0
  7  1  1  0
  7  8  1  0
  9  8  2  0
 10  9  1  0
 11  6  1  0
 11 10  2  0
 12 10  1  0
 12 19  1  0
 13 14  2  0
 13 12  1  0
 14 16  1  0
 15 14  1  0
 16 17  2  0
 16 18  1  0
 19 18  1  0
 19 20  2  0
 21 26  1  0
 22 21  1  0
 23 22  1  0
 23 24  1  0
 24 25  1  0
 25 26  1  0
 26 27  1  0
  2 28  1  0
  3 29  1  0
  6 30  1  0
  8 31  1  0
 13 32  1  0
 15 33  1  0
 15 34  1  0
 15 35  1  0
 18 36  1  0
 22 37  1  0
 22 38  1  0
 23 39  1  0
 23 40  1  0
 24 41  1  0
 25 42  1  0
 25 43  1  0
 26 44  1  1
 27 45  1  0
M  ISO  8  28  14  29  14  30  14  31  14  32  14  33   8  34   8  35   8
M  ISO  8  36   9  37  13  38  13  39  13  40  13  41   5  42  13  43  13
M  ISO  2  44  13  45  11
M  END
>  <minimizedAffinity>  (1) 
-4.96353388

>  <minimizedRMSD>  (1) 
10.9555683

$$$$
