
     RDKit          3D

 45 48  0  0  1  0  0  0  0  0999 V2000
   37.9340   26.8570   32.6160 C   0  0  0  0  0  0  0  0  0  0  0  0
   37.0440   27.9110   32.4580 C   0  0  0  0  0  0  0  0  0  0  0  0
   37.1890   28.7230   31.3790 C   0  0  0  0  0  0  0  0  0  0  0  0
   38.2430   28.4330   30.4870 C   0  0  0  0  0  0  0  0  0  0  0  0
   39.0500   26.9340   31.2410 S   0  0  0  0  0  0  0  0  0  0  0  0
   38.5940   29.1220   29.3100 N   0  0  0  0  0  0  0  0  0  0  0  0
   37.6510   29.8740   28.4590 C   0  0  0  0  0  0  0  0  0  0  0  0
   38.0270   31.3290   28.8200 C   0  0  0  0  0  0  0  0  0  0  0  0
   39.3890   31.6140   28.6170 N   0  0  0  0  0  0  0  0  0  0  0  0
   40.3500   30.6120   28.5170 C   0  0  0  0  0  0  0  0  0  0  0  0
   39.9260   29.1890   28.7730 C   0  0  2  0  0  0  0  0  0  0  0  0
   39.8590   28.2590   27.1980 S   0  0  0  0  0  0  0  0  0  0  0  0
   37.7210   26.2170   35.0370 C   0  0  0  0  0  0  0  0  0  0  0  0
   37.9420   25.8950   33.6960 C   0  0  0  0  0  0  0  0  0  0  0  0
   38.1890   24.6050   33.3640 C   0  0  0  0  0  0  0  0  0  0  0  0
   38.2090   23.6730   34.3550 N   0  0  0  0  0  0  0  0  0  0  0  0
   37.9920   24.0060   35.6510 C   0  0  0  0  0  0  0  0  0  0  0  0
   37.7420   25.3150   35.9860 N   0  0  0  0  0  0  0  0  0  0  0  0
   38.0320   22.9310   36.6750 C   0  0  0  0  0  0  0  0  0  0  0  0
   39.3240   22.1800   36.7100 C   0  0  0  0  0  0  0  0  0  0  0  0
   40.1420   22.8230   37.8250 C   0  0  0  0  0  0  0  0  0  0  0  0
   39.1300   23.3840   38.7920 C   0  0  0  0  0  0  0  0  0  0  0  0
   37.8140   23.4810   38.0680 C   0  0  0  0  0  0  0  0  0  0  0  0
   36.2407   28.0842   33.1892 H   0  0  0  0  0  0  0  0  0  0  0  0
   36.5118   29.5727   31.2074 H   0  0  0  0  0  0  0  0  0  0  0  0
   36.6057   29.6503   28.7184 H   0  0  0  0  0  0  0  0  0  0  0  0
   37.7209   29.6396   27.3865 H   0  0  0  0  0  0  0  0  0  0  0  0
   37.4301   32.0099   28.1955 H   0  0  0  0  0  0  0  0  0  0  0  0
   37.8200   31.4647   29.8918 H   0  0  0  0  0  0  0  0  0  0  0  0
   39.4424   32.1518   27.7402 H   0  0  0  0  0  0  0  0  0  0  0  0
   40.7575   30.6520   27.4960 H   0  0  0  0  0  0  0  0  0  0  0  0
   41.0599   30.8342   29.3273 H   0  0  0  0  0  0  0  0  0  0  0  0
   40.6584   28.7703   29.4788 H   0  0  0  0  0  0  0  0  0  0  0  0
   39.7624   26.9184   27.4630 H   0  0  0  0  0  0  0  0  0  0  0  0
   37.5223   27.2651   35.3053 H   0  0  0  0  0  0  0  0  0  0  0  0
   38.3692   24.3178   32.3176 H   0  0  0  0  0  0  0  0  0  0  0  0
   37.2224   22.2481   36.3780 H   0  0  0  0  0  0  0  0  0  0  0  0
   39.1445   21.1172   36.9294 H   0  0  0  0  0  0  0  0  0  0  0  0
   39.8473   22.2250   35.7435 H   0  0  0  0  0  0  0  0  0  0  0  0
   40.7733   22.0714   38.3216 H   0  0  0  0  0  0  0  0  0  0  0  0
   40.8160   23.6026   37.4403 H   0  0  0  0  0  0  0  0  0  0  0  0
   39.0317   22.7169   39.6611 H   0  0  0  0  0  0  0  0  0  0  0  0
   39.4469   24.3740   39.1518 H   0  0  0  0  0  0  0  0  0  0  0  0
   37.4899   24.5307   38.0129 H   0  0  0  0  0  0  0  0  0  0  0  0
   37.0335   22.9133   38.5958 H   0  0  0  0  0  0  0  0  0  0  0  0
  1 14  1  0
  2  1  2  0
  3  2  1  0
  4  5  1  0
  4  3  2  0
  5  1  1  0
  6  4  1  0
  7  8  1  0
  7  6  1  0
  9  8  1  0
 10  9  1  0
 10 11  1  0
 11  6  1  0
 12 11  1  0
 13 18  2  0
 14 13  1  0
 15 14  2  0
 15 16  1  0
 16 17  2  0
 17 18  1  0
 17 19  1  0
 19 20  1  0
 19 23  1  0
 20 21  1  0
 21 22  1  0
 23 22  1  0
  2 24  1  0
  3 25  1  0
  7 26  1  0
  7 27  1  0
  8 28  1  0
  8 29  1  0
  9 30  1  0
 10 31  1  0
 10 32  1  0
 11 33  1  1
 12 34  1  0
 13 35  1  0
 15 36  1  0
 19 37  1  0
 20 38  1  0
 20 39  1  0
 21 40  1  0
 21 41  1  0
 22 42  1  0
 22 43  1  0
 23 44  1  0
 23 45  1  0
M  ISO  8  24  14  25  14  26  13  27  13  28  13  29  13  30   5  31  13
M  ISO  8  32  13  33  13  34  11  35  14  36  14  37  13  38  13  39  13
M  ISO  6  40  13  41  13  42  13  43  13  44  13  45  13
M  END
>  <minimizedAffinity>  (1) 
-5.01329947

>  <minimizedRMSD>  (1) 
4.34413862

$$$$
