
     RDKit          3D

 39 42  0  0  1  0  0  0  0  0999 V2000
   36.8200   24.0420   31.5870 C   0  0  0  0  0  0  0  0  0  0  0  0
   37.9450   23.5850   30.9130 C   0  0  0  0  0  0  0  0  0  0  0  0
   38.0500   22.2590   30.6410 C   0  0  0  0  0  0  0  0  0  0  0  0
   36.9910   21.4320   31.0700 C   0  0  0  0  0  0  0  0  0  0  0  0
   35.8150   22.6170   31.8890 S   0  0  0  0  0  0  0  0  0  0  0  0
   35.6860   26.2600   31.2400 C   0  0  0  0  0  0  0  0  0  0  0  0
   36.5430   25.4100   31.9610 C   0  0  0  0  0  0  0  0  0  0  0  0
   37.1620   25.8840   33.0690 C   0  0  0  0  0  0  0  0  0  0  0  0
   36.9230   27.1670   33.4330 N   0  0  0  0  0  0  0  0  0  0  0  0
   36.0930   27.9770   32.7280 C   0  0  0  0  0  0  0  0  0  0  0  0
   35.4740   27.5010   31.6180 N   0  0  0  0  0  0  0  0  0  0  0  0
   35.8910   29.3180   33.1720 N   0  0  0  0  0  0  0  0  0  0  0  0
   35.9960   30.3820   32.3670 N   0  0  0  0  0  0  0  0  0  0  0  0
   35.7530   31.5030   33.0580 C   0  0  0  0  0  0  0  0  0  0  0  0
   35.4750   31.1560   34.3750 C   0  0  0  0  0  0  0  0  0  0  0  0
   35.5740   29.7610   34.4000 C   0  0  0  0  0  0  0  0  0  0  0  0
   36.8640   20.0370   30.9120 N   0  0  0  0  0  0  0  0  0  0  0  0
   36.4970   19.3620   29.6490 C   0  0  0  0  0  0  0  0  0  0  0  0
   37.8650   18.7820   29.2260 C   0  0  0  0  0  0  0  0  0  0  0  0
   38.4450   17.9560   30.2030 N   0  0  0  0  0  0  0  0  0  0  0  0
   38.0450   18.0040   31.5450 C   0  0  0  0  0  0  0  0  0  0  0  0
   37.0730   19.0710   31.9570 C   0  0  2  0  0  0  0  0  0  0  0  0
   35.4230   18.3380   32.2660 S   0  0  0  0  0  0  0  0  0  0  0  0
   38.7363   24.2844   30.6052 H   0  0  0  0  0  0  0  0  0  0  0  0
   38.9215   21.8482   30.1101 H   0  0  0  0  0  0  0  0  0  0  0  0
   35.1819   25.8782   30.3399 H   0  0  0  0  0  0  0  0  0  0  0  0
   37.8389   25.2458   33.6560 H   0  0  0  0  0  0  0  0  0  0  0  0
   35.7704   32.5253   32.6522 H   0  0  0  0  0  0  0  0  0  0  0  0
   35.2315   31.8283   35.2109 H   0  0  0  0  0  0  0  0  0  0  0  0
   35.4171   29.1270   35.2851 H   0  0  0  0  0  0  0  0  0  0  0  0
   35.7540   18.5680   29.8149 H   0  0  0  0  0  0  0  0  0  0  0  0
   36.0280   20.0176   28.9005 H   0  0  0  0  0  0  0  0  0  0  0  0
   37.7252   18.1919   28.3083 H   0  0  0  0  0  0  0  0  0  0  0  0
   38.5458   19.6323   29.0727 H   0  0  0  0  0  0  0  0  0  0  0  0
   38.2911   16.9868   29.8902 H   0  0  0  0  0  0  0  0  0  0  0  0
   37.5847   17.0337   31.7832 H   0  0  0  0  0  0  0  0  0  0  0  0
   38.9659   18.2464   32.0957 H   0  0  0  0  0  0  0  0  0  0  0  0
   37.5019   19.5439   32.8528 H   0  0  0  0  0  0  0  0  0  0  0  0
   35.2108   18.2437   33.6162 H   0  0  0  0  0  0  0  0  0  0  0  0
  1  5  1  0
  1  7  1  0
  2  1  2  0
  3  2  1  0
  3  4  2  0
  4  5  1  0
  6 11  2  0
  6  7  1  0
  7  8  2  0
  8  9  1  0
 10 12  1  0
 10  9  2  0
 11 10  1  0
 12 16  1  0
 13 14  2  0
 13 12  1  0
 14 15  1  0
 15 16  2  0
 17  4  1  0
 17 22  1  0
 18 17  1  0
 19 18  1  0
 19 20  1  0
 20 21  1  0
 21 22  1  0
 22 23  1  0
  2 24  1  0
  3 25  1  0
  6 26  1  0
  8 27  1  0
 14 28  1  0
 15 29  1  0
 16 30  1  0
 18 31  1  0
 18 32  1  0
 19 33  1  0
 19 34  1  0
 20 35  1  0
 21 36  1  0
 21 37  1  0
 22 38  1  1
 23 39  1  0
M  ISO  8  24  14  25  14  26  14  27  14  28  14  29  14  30  14  31  13
M  ISO  8  32  13  33  13  34  13  35   5  36  13  37  13  38  13  39  11
M  END
>  <minimizedAffinity>  (1) 
-4.90929604

>  <minimizedRMSD>  (1) 
9.10196114

$$$$
