
     RDKit          3D

 38 40  0  0  1  0  0  0  0  0999 V2000
   38.0940   26.6680   33.5180 C   0  0  0  0  0  0  0  0  0  0  0  0
   38.4990   27.0460   34.7910 C   0  0  0  0  0  0  0  0  0  0  0  0
   38.6120   26.0870   35.7450 C   0  0  0  0  0  0  0  0  0  0  0  0
   38.3070   24.7620   35.3700 C   0  0  0  0  0  0  0  0  0  0  0  0
   37.8420   24.9170   33.5760 S   0  0  0  0  0  0  0  0  0  0  0  0
   38.3450   23.6050   36.1750 N   0  0  0  0  0  0  0  0  0  0  0  0
   39.3530   22.5330   36.0630 C   0  0  0  0  0  0  0  0  0  0  0  0
   40.2150   22.8120   37.3130 C   0  0  0  0  0  0  0  0  0  0  0  0
   39.4810   22.8390   38.5060 N   0  0  0  0  0  0  0  0  0  0  0  0
   38.0950   23.0000   38.5220 C   0  0  0  0  0  0  0  0  0  0  0  0
   37.4010   23.3130   37.2200 C   0  0  2  0  0  0  0  0  0  0  0  0
   36.4810   21.8390   36.6280 S   0  0  0  0  0  0  0  0  0  0  0  0
   36.8240   28.4130   32.2250 C   0  0  0  0  0  0  0  0  0  0  0  0
   37.9140   27.5430   32.3800 C   0  0  0  0  0  0  0  0  0  0  0  0
   38.8640   27.4980   31.4150 C   0  0  0  0  0  0  0  0  0  0  0  0
   38.7140   28.3060   30.3330 N   0  0  0  0  0  0  0  0  0  0  0  0
   37.6560   29.1400   30.1980 C   0  0  0  0  0  0  0  0  0  0  0  0
   36.7060   29.1830   31.1660 N   0  0  0  0  0  0  0  0  0  0  0  0
   37.5200   30.0120   29.0010 C   0  0  0  0  0  0  0  0  0  0  0  0
   37.9520   31.4200   29.4240 C   0  0  0  0  0  0  0  0  0  0  0  0
   38.7231   28.0981   35.0212 H   0  0  0  0  0  0  0  0  0  0  0  0
   38.9287   26.3333   36.7692 H   0  0  0  0  0  0  0  0  0  0  0  0
   38.8898   21.5362   36.1053 H   0  0  0  0  0  0  0  0  0  0  0  0
   39.9124   22.5320   35.1159 H   0  0  0  0  0  0  0  0  0  0  0  0
   40.9782   22.0238   37.3921 H   0  0  0  0  0  0  0  0  0  0  0  0
   40.6570   23.8110   37.1836 H   0  0  0  0  0  0  0  0  0  0  0  0
   39.6722   21.9456   38.9815 H   0  0  0  0  0  0  0  0  0  0  0  0
   37.6620   22.0647   38.9063 H   0  0  0  0  0  0  0  0  0  0  0  0
   37.9306   23.8940   39.1415 H   0  0  0  0  0  0  0  0  0  0  0  0
   36.7452   24.1736   37.4181 H   0  0  0  0  0  0  0  0  0  0  0  0
   36.0316   21.1189   37.7034 H   0  0  0  0  0  0  0  0  0  0  0  0
   36.0512   28.4516   33.0069 H   0  0  0  0  0  0  0  0  0  0  0  0
   39.7311   26.8271   31.5049 H   0  0  0  0  0  0  0  0  0  0  0  0
   36.4747   30.0240   28.6586 H   0  0  0  0  0  0  0  0  0  0  0  0
   38.1413   29.6421   28.1720 H   0  0  0  0  0  0  0  0  0  0  0  0
   37.9714   31.4832   30.5220 H   0  0  0  0  0  0  0  0  0  0  0  0
   38.9560   31.6303   29.0268 H   0  0  0  0  0  0  0  0  0  0  0  0
   37.2387   32.1572   29.0268 H   0  0  0  0  0  0  0  0  0  0  0  0
  1  5  1  0
  1  2  2  0
  2  3  1  0
  4  3  2  0
  4  6  1  0
  5  4  1  0
  6 11  1  0
  7  6  1  0
  7  8  1  0
  8  9  1  0
  9 10  1  0
 11 10  1  0
 12 11  1  0
 13 14  2  0
 14  1  1  0
 15 14  1  0
 16 15  2  0
 17 16  1  0
 17 18  2  0
 18 13  1  0
 19 20  1  0
 19 17  1  0
  2 21  1  0
  3 22  1  0
  7 23  1  0
  7 24  1  0
  8 25  1  0
  8 26  1  0
  9 27  1  0
 10 28  1  0
 10 29  1  0
 11 30  1  1
 12 31  1  0
 13 32  1  0
 15 33  1  0
 19 34  1  0
 19 35  1  0
 20 36  1  0
 20 37  1  0
 20 38  1  0
M  ISO  8  21  14  22  14  23  13  24  13  25  13  26  13  27   5  28  13
M  ISO  8  29  13  30  13  31  11  32  14  33  14  34   8  35   8  36   8
M  ISO  2  37   8  38   8
M  END
>  <minimizedAffinity>  (1) 
-4.82990074

>  <minimizedRMSD>  (1) 
8.02496052

$$$$
