
     RDKit          3D

 46 50  0  0  1  0  0  0  0  0999 V2000
   38.5760   25.8100   35.3840 C   0  0  0  0  0  0  0  0  0  0  0  0
   38.5750   27.0200   36.0660 C   0  0  0  0  0  0  0  0  0  0  0  0
   37.7700   28.0170   35.6240 C   0  0  0  0  0  0  0  0  0  0  0  0
   36.9810   27.7500   34.4850 C   0  0  0  0  0  0  0  0  0  0  0  0
   37.4260   25.9990   34.0510 S   0  0  0  0  0  0  0  0  0  0  0  0
   36.0760   28.6130   33.8360 N   0  0  0  0  0  0  0  0  0  0  0  0
   34.8820   29.2070   34.4720 C   0  0  0  0  0  0  0  0  0  0  0  0
   35.3460   30.6660   34.6660 C   0  0  0  0  0  0  0  0  0  0  0  0
   35.7740   31.2770   33.4740 N   0  0  0  0  0  0  0  0  0  0  0  0
   36.1230   30.5380   32.3460 C   0  0  0  0  0  0  0  0  0  0  0  0
   36.1860   29.0380   32.4670 C   0  0  2  0  0  0  0  0  0  0  0  0
   34.7590   28.2690   31.6150 S   0  0  0  0  0  0  0  0  0  0  0  0
   38.8420   23.5130   36.3620 C   0  0  0  0  0  0  0  0  0  0  0  0
   39.3620   24.6390   35.7010 C   0  0  0  0  0  0  0  0  0  0  0  0
   40.6660   24.6550   35.3390 C   0  0  0  0  0  0  0  0  0  0  0  0
   41.4240   23.5650   35.6350 N   0  0  0  0  0  0  0  0  0  0  0  0
   40.9120   22.4840   36.2730 C   0  0  0  0  0  0  0  0  0  0  0  0
   39.6040   22.4710   36.6350 N   0  0  0  0  0  0  0  0  0  0  0  0
   41.7810   21.3470   36.5600 C   0  0  0  0  0  0  0  0  0  0  0  0
   41.9760   20.8530   37.8340 C   0  0  0  0  0  0  0  0  0  0  0  0
   42.8300   19.8270   37.6570 N   0  0  0  0  0  0  0  0  0  0  0  0
   43.1510   19.6840   36.3730 C   0  0  0  0  0  0  0  0  0  0  0  0
   43.9820   18.7800   35.7250 C   0  0  0  0  0  0  0  0  0  0  0  0
   44.1200   18.8810   34.3560 C   0  0  0  0  0  0  0  0  0  0  0  0
   43.4540   19.8510   33.6220 C   0  0  0  0  0  0  0  0  0  0  0  0
   42.6200   20.7640   34.2540 C   0  0  0  0  0  0  0  0  0  0  0  0
   42.5010   20.6400   35.6190 C   0  0  0  0  0  0  0  0  0  0  0  0
   39.2155   27.1665   36.9483 H   0  0  0  0  0  0  0  0  0  0  0  0
   37.7334   28.9923   36.1314 H   0  0  0  0  0  0  0  0  0  0  0  0
   34.0022   29.1471   33.8145 H   0  0  0  0  0  0  0  0  0  0  0  0
   34.5649   28.7053   35.3982 H   0  0  0  0  0  0  0  0  0  0  0  0
   34.5067   31.2478   35.0747 H   0  0  0  0  0  0  0  0  0  0  0  0
   36.2079   30.6455   35.3492 H   0  0  0  0  0  0  0  0  0  0  0  0
   35.0108   31.9042   33.1822 H   0  0  0  0  0  0  0  0  0  0  0  0
   37.1182   30.8812   32.0268 H   0  0  0  0  0  0  0  0  0  0  0  0
   35.3012   30.7191   31.6376 H   0  0  0  0  0  0  0  0  0  0  0  0
   37.1497   28.7370   32.0304 H   0  0  0  0  0  0  0  0  0  0  0  0
   33.8741   27.7922   32.5459 H   0  0  0  0  0  0  0  0  0  0  0  0
   37.7823   23.5002   36.6566 H   0  0  0  0  0  0  0  0  0  0  0  0
   41.0997   25.5231   34.8211 H   0  0  0  0  0  0  0  0  0  0  0  0
   41.5359   21.2137   38.7754 H   0  0  0  0  0  0  0  0  0  0  0  0
   43.1883   19.2304   38.4164 H   0  0  0  0  0  0  0  0  0  0  0  0
   44.5173   18.0022   36.2894 H   0  0  0  0  0  0  0  0  0  0  0  0
   44.7772   18.1717   33.8316 H   0  0  0  0  0  0  0  0  0  0  0  0
   43.5873   19.8976   32.5311 H   0  0  0  0  0  0  0  0  0  0  0  0
   42.0837   21.5440   33.6937 H   0  0  0  0  0  0  0  0  0  0  0  0
  1 14  1  0
  1  2  2  0
  3  2  1  0
  4  3  2  0
  5  4  1  0
  5  1  1  0
  6  7  1  0
  6  4  1  0
  7  8  1  0
  9  8  1  0
 10 11  1  0
 10  9  1  0
 11  6  1  0
 12 11  1  0
 13 18  2  0
 14 13  1  0
 15 16  1  0
 15 14  2  0
 16 17  2  0
 17 19  1  0
 17 18  1  0
 19 20  2  0
 21 20  1  0
 22 21  1  0
 23 22  2  0
 24 23  1  0
 25 26  1  0
 25 24  2  0
 26 27  2  0
 27 22  1  0
 27 19  1  0
  2 28  1  0
  3 29  1  0
  7 30  1  0
  7 31  1  0
  8 32  1  0
  8 33  1  0
  9 34  1  0
 10 35  1  0
 10 36  1  0
 11 37  1  6
 12 38  1  0
 13 39  1  0
 15 40  1  0
 20 41  1  0
 21 42  1  0
 23 43  1  0
 24 44  1  0
 25 45  1  0
 26 46  1  0
M  ISO  8  28  14  29  14  30  13  31  13  32  13  33  13  34   5  35  13
M  ISO  8  36  13  37  13  38  11  39  14  40  14  41  14  42   9  43  14
M  ISO  3  44  14  45  14  46  14
M  END
>  <minimizedAffinity>  (1) 
-4.79840612

>  <minimizedRMSD>  (1) 
2.24887252

$$$$
