
     RDKit          3D

 44 46  0  0  1  0  0  0  0  0999 V2000
   38.7540   26.0070   33.7110 C   0  0  0  0  0  0  0  0  0  0  0  0
   39.5630   25.4320   32.7370 C   0  0  0  0  0  0  0  0  0  0  0  0
   40.4230   24.4490   33.1130 C   0  0  0  0  0  0  0  0  0  0  0  0
   40.4310   24.0800   34.4760 C   0  0  0  0  0  0  0  0  0  0  0  0
   39.1530   25.1960   35.2320 S   0  0  0  0  0  0  0  0  0  0  0  0
   41.2280   23.0980   35.0940 N   0  0  0  0  0  0  0  0  0  0  0  0
   41.6060   21.8090   34.4800 C   0  0  0  0  0  0  0  0  0  0  0  0
   43.0890   22.0700   34.1510 C   0  0  0  0  0  0  0  0  0  0  0  0
   43.8430   22.4450   35.2590 N   0  0  0  0  0  0  0  0  0  0  0  0
   43.2700   22.9570   36.4140 C   0  0  0  0  0  0  0  0  0  0  0  0
   41.7860   23.2170   36.4160 C   0  0  2  0  0  0  0  0  0  0  0  0
   40.9110   21.9350   37.4050 S   0  0  0  0  0  0  0  0  0  0  0  0
   37.5680   27.7000   32.2840 C   0  0  0  0  0  0  0  0  0  0  0  0
   37.7890   27.0620   33.4990 C   0  0  0  0  0  0  0  0  0  0  0  0
   37.0600   27.4450   34.5930 C   0  0  0  0  0  0  0  0  0  0  0  0
   36.1480   28.4420   34.4350 N   0  0  0  0  0  0  0  0  0  0  0  0
   35.9540   29.0470   33.2370 C   0  0  0  0  0  0  0  0  0  0  0  0
   36.6860   28.6590   32.1440 N   0  0  0  0  0  0  0  0  0  0  0  0
   34.9420   30.1300   33.1300 C   0  0  0  0  0  0  0  0  0  0  0  0
   35.4420   31.4130   33.7770 C   0  0  0  0  0  0  0  0  0  0  0  0
   34.7040   30.4920   31.6660 C   0  0  0  0  0  0  0  0  0  0  0  0
   33.6260   29.7820   33.7790 C   0  0  0  0  0  0  0  0  0  0  0  0
   39.5083   25.7640   31.6897 H   0  0  0  0  0  0  0  0  0  0  0  0
   41.0865   23.9602   32.3844 H   0  0  0  0  0  0  0  0  0  0  0  0
   41.4889   20.9742   35.1866 H   0  0  0  0  0  0  0  0  0  0  0  0
   40.9917   21.5190   33.6148 H   0  0  0  0  0  0  0  0  0  0  0  0
   43.5203   21.1493   33.7311 H   0  0  0  0  0  0  0  0  0  0  0  0
   43.1211   22.9069   33.4379 H   0  0  0  0  0  0  0  0  0  0  0  0
   44.3647   21.6049   35.5471 H   0  0  0  0  0  0  0  0  0  0  0  0
   43.4775   22.2437   37.2252 H   0  0  0  0  0  0  0  0  0  0  0  0
   43.7221   23.9537   36.5246 H   0  0  0  0  0  0  0  0  0  0  0  0
   41.6560   24.2307   36.8229 H   0  0  0  0  0  0  0  0  0  0  0  0
   41.0852   22.1902   38.7397 H   0  0  0  0  0  0  0  0  0  0  0  0
   38.1552   27.3884   31.4076 H   0  0  0  0  0  0  0  0  0  0  0  0
   37.2073   26.9612   35.5699 H   0  0  0  0  0  0  0  0  0  0  0  0
   35.4024   31.3113   34.8716 H   0  0  0  0  0  0  0  0  0  0  0  0
   36.4794   31.6015   33.4636 H   0  0  0  0  0  0  0  0  0  0  0  0
   34.8057   32.2538   33.4636 H   0  0  0  0  0  0  0  0  0  0  0  0
   34.1005   31.4099   31.6087 H   0  0  0  0  0  0  0  0  0  0  0  0
   35.6705   30.6569   31.1673 H   0  0  0  0  0  0  0  0  0  0  0  0
   34.1695   29.6701   31.1673 H   0  0  0  0  0  0  0  0  0  0  0  0
   33.7375   29.8115   34.8729 H   0  0  0  0  0  0  0  0  0  0  0  0
   32.8607   30.5086   33.4687 H   0  0  0  0  0  0  0  0  0  0  0  0
   33.3199   28.7720   33.4687 H   0  0  0  0  0  0  0  0  0  0  0  0
  1  5  1  0
  2  3  1  0
  2  1  2  0
  3  4  2  0
  4  6  1  0
  4  5  1  0
  6 11  1  0
  7  6  1  0
  8  7  1  0
  8  9  1  0
  9 10  1  0
 10 11  1  0
 11 12  1  0
 13 14  2  0
 14  1  1  0
 14 15  1  0
 16 15  2  0
 17 16  1  0
 18 13  1  0
 18 17  2  0
 19 17  1  0
 19 20  1  0
 19 22  1  0
 21 19  1  0
  2 23  1  0
  3 24  1  0
  7 25  1  0
  7 26  1  0
  8 27  1  0
  8 28  1  0
  9 29  1  0
 10 30  1  0
 10 31  1  0
 11 32  1  1
 12 33  1  0
 13 34  1  0
 15 35  1  0
 20 36  1  0
 20 37  1  0
 20 38  1  0
 21 39  1  0
 21 40  1  0
 21 41  1  0
 22 42  1  0
 22 43  1  0
 22 44  1  0
M  ISO  8  23  14  24  14  25  13  26  13  27  13  28  13  29   5  30  13
M  ISO  8  31  13  32  13  33  11  34  14  35  14  36   8  37   8  38   8
M  ISO  6  39   8  40   8  41   8  42   8  43   8  44   8
M  END
>  <minimizedAffinity>  (1) 
-4.20171213

>  <minimizedRMSD>  (1) 
8.71867561

$$$$
