
     RDKit          3D

 48 51  0  0  1  0  0  0  0  0999 V2000
   38.2140   26.6210   33.4940 C   0  0  0  0  0  0  0  0  0  0  0  0
   38.5460   27.0250   34.7700 C   0  0  0  0  0  0  0  0  0  0  0  0
   38.6240   26.0860   35.7420 C   0  0  0  0  0  0  0  0  0  0  0  0
   38.3610   24.7610   35.3790 C   0  0  0  0  0  0  0  0  0  0  0  0
   37.9840   24.8750   33.5590 S   0  0  0  0  0  0  0  0  0  0  0  0
   38.3740   23.5950   36.1920 N   0  0  0  0  0  0  0  0  0  0  0  0
   39.3600   22.5140   36.1140 C   0  0  0  0  0  0  0  0  0  0  0  0
   40.2060   22.8110   37.3780 C   0  0  0  0  0  0  0  0  0  0  0  0
   39.4500   22.8470   38.5470 N   0  0  0  0  0  0  0  0  0  0  0  0
   38.0580   23.0430   38.5470 C   0  0  0  0  0  0  0  0  0  0  0  0
   37.4010   23.3290   37.2120 C   0  0  2  0  0  0  0  0  0  0  0  0
   36.4800   21.8620   36.6380 S   0  0  0  0  0  0  0  0  0  0  0  0
   36.9910   28.3480   32.1100 C   0  0  0  0  0  0  0  0  0  0  0  0
   38.0800   27.4720   32.3170 C   0  0  0  0  0  0  0  0  0  0  0  0
   39.0580   27.4090   31.3970 C   0  0  0  0  0  0  0  0  0  0  0  0
   38.9600   28.1920   30.2960 N   0  0  0  0  0  0  0  0  0  0  0  0
   37.9250   29.0250   30.0980 C   0  0  0  0  0  0  0  0  0  0  0  0
   36.9470   29.0870   31.0220 N   0  0  0  0  0  0  0  0  0  0  0  0
   37.7930   29.9000   28.9040 C   0  0  0  0  0  0  0  0  0  0  0  0
   37.8800   31.3420   29.3730 C   0  0  0  0  0  0  0  0  0  0  0  0
   36.9060   32.1510   28.6000 C   0  0  0  0  0  0  0  0  0  0  0  0
   35.9440   33.0300   29.0460 C   0  0  0  0  0  0  0  0  0  0  0  0
   35.1340   33.6840   28.1500 C   0  0  0  0  0  0  0  0  0  0  0  0
   35.2510   33.4890   26.7850 C   0  0  0  0  0  0  0  0  0  0  0  0
   36.2140   32.6070   26.3090 C   0  0  0  0  0  0  0  0  0  0  0  0
   37.0200   31.9580   27.2200 C   0  0  0  0  0  0  0  0  0  0  0  0
   38.7426   28.0842   34.9925 H   0  0  0  0  0  0  0  0  0  0  0  0
   38.8840   26.3544   36.7766 H   0  0  0  0  0  0  0  0  0  0  0  0
   38.8827   21.5244   36.1682 H   0  0  0  0  0  0  0  0  0  0  0  0
   39.9333   22.4835   35.1757 H   0  0  0  0  0  0  0  0  0  0  0  0
   40.9703   22.0264   37.4797 H   0  0  0  0  0  0  0  0  0  0  0  0
   40.6527   23.8076   37.2462 H   0  0  0  0  0  0  0  0  0  0  0  0
   39.6107   21.9452   39.0180 H   0  0  0  0  0  0  0  0  0  0  0  0
   37.5952   22.1326   38.9557 H   0  0  0  0  0  0  0  0  0  0  0  0
   37.8990   23.9536   39.1432 H   0  0  0  0  0  0  0  0  0  0  0  0
   36.7465   24.1992   37.3678 H   0  0  0  0  0  0  0  0  0  0  0  0
   36.0335   21.1508   37.7204 H   0  0  0  0  0  0  0  0  0  0  0  0
   36.1839   28.4120   32.8546 H   0  0  0  0  0  0  0  0  0  0  0  0
   39.9180   26.7372   31.5350 H   0  0  0  0  0  0  0  0  0  0  0  0
   36.8232   29.7232   28.4159 H   0  0  0  0  0  0  0  0  0  0  0  0
   38.5911   29.6831   28.1787 H   0  0  0  0  0  0  0  0  0  0  0  0
   37.6401   31.3981   30.4451 H   0  0  0  0  0  0  0  0  0  0  0  0
   38.8980   31.7277   29.2149 H   0  0  0  0  0  0  0  0  0  0  0  0
   35.8238   33.2091   30.1247 H   0  0  0  0  0  0  0  0  0  0  0  0
   34.3718   34.3815   28.5276 H   0  0  0  0  0  0  0  0  0  0  0  0
   34.5912   34.0245   26.0865 H   0  0  0  0  0  0  0  0  0  0  0  0
   36.3305   32.4307   25.2295 H   0  0  0  0  0  0  0  0  0  0  0  0
   37.7836   31.2601   26.8460 H   0  0  0  0  0  0  0  0  0  0  0  0
  1  5  1  0
  1  2  2  0
  2  3  1  0
  4  3  2  0
  4  6  1  0
  5  4  1  0
  6 11  1  0
  7  6  1  0
  7  8  1  0
  8  9  1  0
 10  9  1  0
 11 10  1  0
 12 11  1  0
 13 14  2  0
 14  1  1  0
 15 14  1  0
 16 15  2  0
 17 16  1  0
 17 18  2  0
 18 13  1  0
 19 20  1  0
 19 17  1  0
 21 22  2  0
 21 20  1  0
 23 22  1  0
 24 23  2  0
 25 24  1  0
 25 26  2  0
 26 21  1  0
  2 27  1  0
  3 28  1  0
  7 29  1  0
  7 30  1  0
  8 31  1  0
  8 32  1  0
  9 33  1  0
 10 34  1  0
 10 35  1  0
 11 36  1  1
 12 37  1  0
 13 38  1  0
 15 39  1  0
 19 40  1  0
 19 41  1  0
 20 42  1  0
 20 43  1  0
 22 44  1  0
 23 45  1  0
 24 46  1  0
 25 47  1  0
 26 48  1  0
M  ISO  8  27  14  28  14  29  13  30  13  31  13  32  13  33   5  34  13
M  ISO  8  35  13  36  13  37  11  38  14  39  14  40   8  41   8  42   8
M  ISO  6  43   8  44  14  45  14  46  14  47  14  48  14
M  END
>  <minimizedAffinity>  (1) 
-5.09403896

>  <minimizedRMSD>  (1) 
2.07418132

$$$$
