
     RDKit          3D

 51 54  0  0  1  0  0  0  0  0999 V2000
   38.1950   26.6230   33.5020 C   0  0  0  0  0  0  0  0  0  0  0  0
   38.5420   27.0200   34.7760 C   0  0  0  0  0  0  0  0  0  0  0  0
   38.6250   26.0690   35.7400 C   0  0  0  0  0  0  0  0  0  0  0  0
   38.3530   24.7470   35.3730 C   0  0  0  0  0  0  0  0  0  0  0  0
   37.9600   24.8700   33.5640 S   0  0  0  0  0  0  0  0  0  0  0  0
   38.3720   23.5820   36.1880 N   0  0  0  0  0  0  0  0  0  0  0  0
   39.3640   22.5100   36.1020 C   0  0  0  0  0  0  0  0  0  0  0  0
   40.2040   22.8040   37.3770 C   0  0  0  0  0  0  0  0  0  0  0  0
   39.4500   22.8480   38.5480 N   0  0  0  0  0  0  0  0  0  0  0  0
   38.0620   23.0240   38.5410 C   0  0  0  0  0  0  0  0  0  0  0  0
   37.3890   23.3210   37.2190 C   0  0  2  0  0  0  0  0  0  0  0  0
   36.4810   21.8500   36.6430 S   0  0  0  0  0  0  0  0  0  0  0  0
   36.9510   28.3210   32.1220 C   0  0  0  0  0  0  0  0  0  0  0  0
   38.0520   27.4730   32.3280 C   0  0  0  0  0  0  0  0  0  0  0  0
   39.0330   27.4290   31.4090 C   0  0  0  0  0  0  0  0  0  0  0  0
   38.9000   28.2260   30.3110 N   0  0  0  0  0  0  0  0  0  0  0  0
   37.8350   29.0390   30.1240 C   0  0  0  0  0  0  0  0  0  0  0  0
   36.8530   29.0780   31.0490 N   0  0  0  0  0  0  0  0  0  0  0  0
   37.7580   29.8820   28.8990 C   0  0  0  0  0  0  0  0  0  0  0  0
   38.7620   31.0290   29.1040 C   0  0  0  0  0  0  0  0  0  0  0  0
   38.0690   32.3650   29.2040 C   0  0  0  0  0  0  0  0  0  0  0  0
   37.5330   32.6740   30.5600 C   0  0  0  0  0  0  0  0  0  0  0  0
   36.3890   33.6230   30.2860 C   0  0  0  0  0  0  0  0  0  0  0  0
   36.0300   33.4660   28.8320 C   0  0  0  0  0  0  0  0  0  0  0  0
   36.7840   32.2290   28.3950 C   0  0  0  0  0  0  0  0  0  0  0  0
   38.7455   28.0767   35.0041 H   0  0  0  0  0  0  0  0  0  0  0  0
   38.8967   26.3285   36.7739 H   0  0  0  0  0  0  0  0  0  0  0  0
   38.8939   21.5164   36.1447 H   0  0  0  0  0  0  0  0  0  0  0  0
   39.9407   22.4911   35.1655 H   0  0  0  0  0  0  0  0  0  0  0  0
   40.9629   22.0147   37.4823 H   0  0  0  0  0  0  0  0  0  0  0  0
   40.6499   23.8008   37.2448 H   0  0  0  0  0  0  0  0  0  0  0  0
   39.6230   21.9563   39.0336 H   0  0  0  0  0  0  0  0  0  0  0  0
   37.6135   22.1005   38.9359 H   0  0  0  0  0  0  0  0  0  0  0  0
   37.8976   23.9305   39.1420 H   0  0  0  0  0  0  0  0  0  0  0  0
   36.7310   24.1875   37.3813 H   0  0  0  0  0  0  0  0  0  0  0  0
   36.0390   21.1339   37.7241 H   0  0  0  0  0  0  0  0  0  0  0  0
   36.1507   28.3534   32.8760 H   0  0  0  0  0  0  0  0  0  0  0  0
   39.9084   26.7755   31.5383 H   0  0  0  0  0  0  0  0  0  0  0  0
   36.7411   30.2828   28.7752 H   0  0  0  0  0  0  0  0  0  0  0  0
   37.9935   29.2996   27.9960 H   0  0  0  0  0  0  0  0  0  0  0  0
   39.3247   30.8488   30.0319 H   0  0  0  0  0  0  0  0  0  0  0  0
   39.4348   31.0557   28.2342 H   0  0  0  0  0  0  0  0  0  0  0  0
   38.8032   33.1235   28.8949 H   0  0  0  0  0  0  0  0  0  0  0  0
   37.1744   31.7608   31.0574 H   0  0  0  0  0  0  0  0  0  0  0  0
   38.2919   33.1038   31.2303 H   0  0  0  0  0  0  0  0  0  0  0  0
   35.5260   33.3679   30.9185 H   0  0  0  0  0  0  0  0  0  0  0  0
   36.6755   34.6609   30.5113 H   0  0  0  0  0  0  0  0  0  0  0  0
   34.9458   33.3252   28.7109 H   0  0  0  0  0  0  0  0  0  0  0  0
   36.2922   34.3521   28.2352 H   0  0  0  0  0  0  0  0  0  0  0  0
   36.2381   31.3106   28.6567 H   0  0  0  0  0  0  0  0  0  0  0  0
   36.9399   32.1553   27.3086 H   0  0  0  0  0  0  0  0  0  0  0  0
  1  5  1  0
  1  2  2  0
  2  3  1  0
  4  3  2  0
  4  6  1  0
  5  4  1  0
  6 11  1  0
  7  6  1  0
  7  8  1  0
  8  9  1  0
 10  9  1  0
 11 10  1  0
 12 11  1  0
 13 14  2  0
 14  1  1  0
 15 14  1  0
 16 15  2  0
 17 16  1  0
 17 18  2  0
 18 13  1  0
 19 20  1  0
 19 17  1  0
 20 21  1  0
 21 22  1  0
 23 22  1  0
 24 23  1  0
 25 24  1  0
 25 21  1  0
  2 26  1  0
  3 27  1  0
  7 28  1  0
  7 29  1  0
  8 30  1  0
  8 31  1  0
  9 32  1  0
 10 33  1  0
 10 34  1  0
 11 35  1  1
 12 36  1  0
 13 37  1  0
 15 38  1  0
 19 39  1  0
 19 40  1  0
 20 41  1  0
 20 42  1  0
 21 43  1  0
 22 44  1  0
 22 45  1  0
 23 46  1  0
 23 47  1  0
 24 48  1  0
 24 49  1  0
 25 50  1  0
 25 51  1  0
M  ISO  8  26  14  27  14  28  13  29  13  30  13  31  13  32   5  33  13
M  ISO  8  34  13  35  13  36  11  37  14  38  14  39   8  40   8  41   8
M  ISO  8  42   8  43  13  44  13  45  13  46  13  47  13  48  13  49  13
M  ISO  2  50  13  51  13
M  END
>  <minimizedAffinity>  (1) 
-4.97046232

>  <minimizedRMSD>  (1) 
0.982405901

$$$$
