
     RDKit          3D

 46 49  0  0  1  0  0  0  0  0999 V2000
   38.2000   26.6020   33.4890 C   0  0  0  0  0  0  0  0  0  0  0  0
   38.5540   27.0040   34.7580 C   0  0  0  0  0  0  0  0  0  0  0  0
   38.6340   26.0610   35.7320 C   0  0  0  0  0  0  0  0  0  0  0  0
   38.3490   24.7390   35.3740 C   0  0  0  0  0  0  0  0  0  0  0  0
   37.9480   24.8510   33.5630 S   0  0  0  0  0  0  0  0  0  0  0  0
   38.3620   23.5810   36.1980 N   0  0  0  0  0  0  0  0  0  0  0  0
   39.3580   22.5060   36.1180 C   0  0  0  0  0  0  0  0  0  0  0  0
   40.2120   22.8090   37.3780 C   0  0  0  0  0  0  0  0  0  0  0  0
   39.4490   22.8550   38.5620 N   0  0  0  0  0  0  0  0  0  0  0  0
   38.0660   23.0370   38.5520 C   0  0  0  0  0  0  0  0  0  0  0  0
   37.3960   23.3230   37.2200 C   0  0  2  0  0  0  0  0  0  0  0  0
   36.4820   21.8480   36.6520 S   0  0  0  0  0  0  0  0  0  0  0  0
   36.9460   28.2960   32.1090 C   0  0  0  0  0  0  0  0  0  0  0  0
   38.0590   27.4520   32.3130 C   0  0  0  0  0  0  0  0  0  0  0  0
   39.0450   27.4100   31.4000 C   0  0  0  0  0  0  0  0  0  0  0  0
   38.9190   28.2000   30.3020 N   0  0  0  0  0  0  0  0  0  0  0  0
   37.8640   29.0080   30.1000 C   0  0  0  0  0  0  0  0  0  0  0  0
   36.8630   29.0480   31.0290 N   0  0  0  0  0  0  0  0  0  0  0  0
   37.7260   29.8710   28.9050 C   0  0  0  0  0  0  0  0  0  0  0  0
   37.9510   31.3210   29.3580 C   0  0  0  0  0  0  0  0  0  0  0  0
   36.7780   32.1580   29.0890 C   0  0  0  0  0  0  0  0  0  0  0  0
   35.8070   32.5070   30.0170 C   0  0  0  0  0  0  0  0  0  0  0  0
   34.7150   33.2980   29.7320 C   0  0  0  0  0  0  0  0  0  0  0  0
   34.5480   33.7820   28.4740 N   0  0  0  0  0  0  0  0  0  0  0  0
   35.4980   33.4400   27.5670 C   0  0  0  0  0  0  0  0  0  0  0  0
   36.5730   32.6610   27.8500 N   0  0  0  0  0  0  0  0  0  0  0  0
   38.7663   28.0609   34.9767 H   0  0  0  0  0  0  0  0  0  0  0  0
   38.9122   26.3264   36.7626 H   0  0  0  0  0  0  0  0  0  0  0  0
   38.8881   21.5131   36.1763 H   0  0  0  0  0  0  0  0  0  0  0  0
   39.9268   22.4803   35.1768 H   0  0  0  0  0  0  0  0  0  0  0  0
   40.9741   22.0227   37.4824 H   0  0  0  0  0  0  0  0  0  0  0  0
   40.6635   23.8023   37.2386 H   0  0  0  0  0  0  0  0  0  0  0  0
   39.6172   21.9617   39.0464 H   0  0  0  0  0  0  0  0  0  0  0  0
   37.6122   22.1203   38.9566 H   0  0  0  0  0  0  0  0  0  0  0  0
   37.9040   23.9501   39.1435 H   0  0  0  0  0  0  0  0  0  0  0  0
   36.7398   24.1915   37.3781 H   0  0  0  0  0  0  0  0  0  0  0  0
   36.0417   21.1375   37.7375 H   0  0  0  0  0  0  0  0  0  0  0  0
   36.1407   28.3266   32.8577 H   0  0  0  0  0  0  0  0  0  0  0  0
   39.9216   26.7598   31.5370 H   0  0  0  0  0  0  0  0  0  0  0  0
   36.7184   29.7627   28.4772 H   0  0  0  0  0  0  0  0  0  0  0  0
   38.4572   29.5868   28.1339 H   0  0  0  0  0  0  0  0  0  0  0  0
   38.1557   31.3298   30.4388 H   0  0  0  0  0  0  0  0  0  0  0  0
   38.8023   31.7298   28.7939 H   0  0  0  0  0  0  0  0  0  0  0  0
   35.9157   32.1287   31.0442 H   0  0  0  0  0  0  0  0  0  0  0  0
   33.9834   33.5358   30.5183 H   0  0  0  0  0  0  0  0  0  0  0  0
   35.3902   33.8173   26.5394 H   0  0  0  0  0  0  0  0  0  0  0  0
  1  5  1  0
  1  2  2  0
  2  3  1  0
  4  3  2  0
  4  6  1  0
  5  4  1  0
  6 11  1  0
  7  6  1  0
  7  8  1  0
  8  9  1  0
 10  9  1  0
 11 10  1  0
 12 11  1  0
 13 14  2  0
 14  1  1  0
 15 14  1  0
 16 15  2  0
 17 16  1  0
 17 18  2  0
 18 13  1  0
 19 20  1  0
 19 17  1  0
 21 20  1  0
 21 22  2  0
 23 22  1  0
 24 23  2  0
 25 26  2  0
 25 24  1  0
 26 21  1  0
  2 27  1  0
  3 28  1  0
  7 29  1  0
  7 30  1  0
  8 31  1  0
  8 32  1  0
  9 33  1  0
 10 34  1  0
 10 35  1  0
 11 36  1  1
 12 37  1  0
 13 38  1  0
 15 39  1  0
 19 40  1  0
 19 41  1  0
 20 42  1  0
 20 43  1  0
 22 44  1  0
 23 45  1  0
 25 46  1  0
M  ISO  8  27  14  28  14  29  13  30  13  31  13  32  13  33   5  34  13
M  ISO  8  35  13  36  13  37  11  38  14  39  14  40   8  41   8  42   8
M  ISO  4  43   8  44  14  45  14  46  14
M  END
>  <minimizedAffinity>  (1) 
-4.96923304

>  <minimizedRMSD>  (1) 
1.57307661

$$$$
