
     RDKit          3D

 53 56  0  0  1  0  0  0  0  0999 V2000
   38.2950   26.5720   33.4990 C   0  0  0  0  0  0  0  0  0  0  0  0
   38.5950   26.9820   34.7810 C   0  0  0  0  0  0  0  0  0  0  0  0
   38.6450   26.0450   35.7570 C   0  0  0  0  0  0  0  0  0  0  0  0
   38.3890   24.7190   35.3960 C   0  0  0  0  0  0  0  0  0  0  0  0
   38.0590   24.8210   33.5660 S   0  0  0  0  0  0  0  0  0  0  0  0
   38.3800   23.5570   36.2150 N   0  0  0  0  0  0  0  0  0  0  0  0
   39.3630   22.4740   36.1530 C   0  0  0  0  0  0  0  0  0  0  0  0
   40.1840   22.7670   37.4400 C   0  0  0  0  0  0  0  0  0  0  0  0
   39.4140   22.8230   38.5980 N   0  0  0  0  0  0  0  0  0  0  0  0
   38.0320   23.0100   38.5630 C   0  0  0  0  0  0  0  0  0  0  0  0
   37.3820   23.3060   37.2250 C   0  0  2  0  0  0  0  0  0  0  0  0
   36.4730   21.8350   36.6360 S   0  0  0  0  0  0  0  0  0  0  0  0
   37.1360   28.2980   32.0790 C   0  0  0  0  0  0  0  0  0  0  0  0
   38.1930   27.4170   32.3160 C   0  0  0  0  0  0  0  0  0  0  0  0
   39.1840   27.3340   31.4080 C   0  0  0  0  0  0  0  0  0  0  0  0
   39.1120   28.1110   30.3040 N   0  0  0  0  0  0  0  0  0  0  0  0
   38.0760   28.9640   30.0890 C   0  0  0  0  0  0  0  0  0  0  0  0
   37.0860   29.0430   31.0000 N   0  0  0  0  0  0  0  0  0  0  0  0
   38.0450   29.7980   28.8570 C   0  0  0  0  0  0  0  0  0  0  0  0
   36.9670   30.8710   29.0850 C   0  0  0  0  0  0  0  0  0  0  0  0
   37.4910   32.1680   28.7330 N   0  0  0  0  0  0  0  0  0  0  0  0
   36.4010   33.0110   28.3030 C   0  0  0  0  0  0  0  0  0  0  0  0
   35.3670   33.2530   29.3550 C   0  0  0  0  0  0  0  0  0  0  0  0
   35.8880   33.4700   30.7330 C   0  0  0  0  0  0  0  0  0  0  0  0
   37.1870   32.7700   31.0260 C   0  0  0  0  0  0  0  0  0  0  0  0
   38.1210   32.8330   29.8510 C   0  0  0  0  0  0  0  0  0  0  0  0
   38.7884   28.0415   35.0046 H   0  0  0  0  0  0  0  0  0  0  0  0
   38.8787   26.3174   36.7968 H   0  0  0  0  0  0  0  0  0  0  0  0
   38.8821   21.4855   36.1937 H   0  0  0  0  0  0  0  0  0  0  0  0
   39.9556   22.4437   35.2268 H   0  0  0  0  0  0  0  0  0  0  0  0
   40.9345   21.9719   37.5609 H   0  0  0  0  0  0  0  0  0  0  0  0
   40.6390   23.7600   37.3101 H   0  0  0  0  0  0  0  0  0  0  0  0
   39.5712   21.9325   39.0911 H   0  0  0  0  0  0  0  0  0  0  0  0
   37.5688   22.0924   38.9546 H   0  0  0  0  0  0  0  0  0  0  0  0
   37.8656   23.9225   39.1544 H   0  0  0  0  0  0  0  0  0  0  0  0
   36.7258   24.1763   37.3732 H   0  0  0  0  0  0  0  0  0  0  0  0
   36.0268   21.1130   37.7114 H   0  0  0  0  0  0  0  0  0  0  0  0
   36.3232   28.3695   32.8168 H   0  0  0  0  0  0  0  0  0  0  0  0
   40.0320   26.6502   31.5609 H   0  0  0  0  0  0  0  0  0  0  0  0
   37.7870   29.1790   27.9851 H   0  0  0  0  0  0  0  0  0  0  0  0
   39.0262   30.2545   28.6601 H   0  0  0  0  0  0  0  0  0  0  0  0
   36.0908   30.6481   28.4584 H   0  0  0  0  0  0  0  0  0  0  0  0
   36.6721   30.8722   30.1447 H   0  0  0  0  0  0  0  0  0  0  0  0
   36.8156   33.9824   27.9958 H   0  0  0  0  0  0  0  0  0  0  0  0
   35.8983   32.4846   27.4782 H   0  0  0  0  0  0  0  0  0  0  0  0
   34.7930   34.1457   29.0660 H   0  0  0  0  0  0  0  0  0  0  0  0
   34.7658   32.3330   29.4026 H   0  0  0  0  0  0  0  0  0  0  0  0
   36.0395   34.5500   30.8770 H   0  0  0  0  0  0  0  0  0  0  0  0
   35.1416   33.0451   31.4203 H   0  0  0  0  0  0  0  0  0  0  0  0
   37.6664   33.2525   31.8905 H   0  0  0  0  0  0  0  0  0  0  0  0
   36.9701   31.7129   31.2394 H   0  0  0  0  0  0  0  0  0  0  0  0
   39.0659   32.3277   30.0997 H   0  0  0  0  0  0  0  0  0  0  0  0
   38.3374   33.8807   29.5952 H   0  0  0  0  0  0  0  0  0  0  0  0
  1  5  1  0
  1  2  2  0
  2  3  1  0
  4  3  2  0
  4  6  1  0
  5  4  1  0
  6 11  1  0
  7  6  1  0
  7  8  1  0
  8  9  1  0
 10  9  1  0
 11 10  1  0
 12 11  1  0
 13 14  2  0
 14  1  1  0
 15 14  1  0
 16 15  2  0
 17 16  1  0
 17 18  2  0
 18 13  1  0
 19 20  1  0
 19 17  1  0
 21 20  1  0
 21 26  1  0
 22 21  1  0
 22 23  1  0
 23 24  1  0
 24 25  1  0
 26 25  1  0
  2 27  1  0
  3 28  1  0
  7 29  1  0
  7 30  1  0
  8 31  1  0
  8 32  1  0
  9 33  1  0
 10 34  1  0
 10 35  1  0
 11 36  1  1
 12 37  1  0
 13 38  1  0
 15 39  1  0
 19 40  1  0
 19 41  1  0
 20 42  1  0
 20 43  1  0
 22 44  1  0
 22 45  1  0
 23 46  1  0
 23 47  1  0
 24 48  1  0
 24 49  1  0
 25 50  1  0
 25 51  1  0
 26 52  1  0
 26 53  1  0
M  ISO  8  27  14  28  14  29  13  30  13  31  13  32  13  33   5  34  13
M  ISO  8  35  13  36  13  37  11  38  14  39  14  40   8  41   8  42   8
M  ISO  8  43   8  44  13  45  13  46  13  47  13  48  13  49  13  50  13
M  ISO  3  51  13  52  13  53  13
M  END
>  <minimizedAffinity>  (1) 
-4.91475821

>  <minimizedRMSD>  (1) 
1.34695649

$$$$
