
     RDKit          3D

 37 41  0  0  0  0  0  0  0  0999 V2000
   37.6370   26.9690   35.0880 C   0  0  0  0  0  0  0  0  0  0  0  0
   37.9160   25.8040   34.3230 C   0  0  0  0  0  0  0  0  0  0  0  0
   37.4190   25.7250   33.0280 C   0  0  0  0  0  0  0  0  0  0  0  0
   36.6810   26.7850   32.5550 N   0  0  0  0  0  0  0  0  0  0  0  0
   36.4340   27.8670   33.2980 C   0  0  0  0  0  0  0  0  0  0  0  0
   36.9070   27.9510   34.5420 N   0  0  0  0  0  0  0  0  0  0  0  0
   35.6550   28.8770   32.6670 N   0  0  0  0  0  0  0  0  0  0  0  0
   35.9890   29.3980   31.4500 C   0  0  0  0  0  0  0  0  0  0  0  0
   35.0870   30.3310   31.0880 N   0  0  0  0  0  0  0  0  0  0  0  0
   34.1750   30.4200   32.0550 C   0  0  0  0  0  0  0  0  0  0  0  0
   33.0390   31.1610   32.2750 C   0  0  0  0  0  0  0  0  0  0  0  0
   32.6730   32.0100   31.3930 O   0  0  0  0  0  0  0  0  0  0  0  0
   32.3250   30.9810   33.4170 N   0  0  0  0  0  0  0  0  0  0  0  0
   32.6930   30.0920   34.3570 C   0  0  0  0  0  0  0  0  0  0  0  0
   31.8080   30.0650   35.4700 N   0  0  0  0  0  0  0  0  0  0  0  0
   33.8160   29.3450   34.1610 N   0  0  0  0  0  0  0  0  0  0  0  0
   34.5290   29.5150   33.0360 C   0  0  0  0  0  0  0  0  0  0  0  0
   38.6970   24.7870   34.9510 N   0  0  0  0  0  0  0  0  0  0  0  0
   39.6670   24.0650   34.3080 C   0  0  0  0  0  0  0  0  0  0  0  0
   40.2030   23.1890   35.2090 N   0  0  0  0  0  0  0  0  0  0  0  0
   39.5890   23.3610   36.3650 C   0  0  0  0  0  0  0  0  0  0  0  0
   39.6550   22.8130   37.6340 C   0  0  0  0  0  0  0  0  0  0  0  0
   38.8760   23.1890   38.6890 N   0  0  0  0  0  0  0  0  0  0  0  0
   37.9540   24.1850   38.4830 C   0  0  0  0  0  0  0  0  0  0  0  0
   37.8650   24.7360   37.2640 N   0  0  0  0  0  0  0  0  0  0  0  0
   38.6410   24.3540   36.2370 C   0  0  0  0  0  0  0  0  0  0  0  0
   40.5910   21.7780   37.9020 N   0  0  0  0  0  0  0  0  0  0  0  0
   38.0160   27.0633   36.1163 H   0  0  0  0  0  0  0  0  0  0  0  0
   37.6098   24.8420   32.4003 H   0  0  0  0  0  0  0  0  0  0  0  0
   36.8642   29.1003   30.8538 H   0  0  0  0  0  0  0  0  0  0  0  0
   31.4751   31.5431   33.5676 H   0  0  0  0  0  0  0  0  0  0  0  0
   31.9870   29.4224   36.2548 H   0  0  0  0  0  0  0  0  0  0  0  0
   30.9881   30.6881   35.4913 H   0  0  0  0  0  0  0  0  0  0  0  0
   39.9620   24.1715   33.2537 H   0  0  0  0  0  0  0  0  0  0  0  0
   37.3017   24.5240   39.3012 H   0  0  0  0  0  0  0  0  0  0  0  0
   40.6464   21.3649   38.8439 H   0  0  0  0  0  0  0  0  0  0  0  0
   41.2141   21.4409   37.1544 H   0  0  0  0  0  0  0  0  0  0  0  0
  2 18  1  0
  2  1  2  0
  3  2  1  0
  4  3  2  0
  4  5  1  0
  5  6  2  0
  6  1  1  0
  7 17  1  0
  7  5  1  0
  8  7  1  0
  9  8  2  0
  9 10  1  0
 10 11  1  0
 10 17  2  0
 11 13  1  0
 12 11  2  0
 13 14  1  0
 14 15  1  0
 16 14  2  0
 17 16  1  0
 18 26  1  0
 19 18  1  0
 19 20  2  0
 20 21  1  0
 21 22  2  0
 22 27  1  0
 22 23  1  0
 24 23  2  0
 25 24  1  0
 26 21  1  0
 26 25  2  0
  1 28  1  0
  3 29  1  0
  8 30  1  0
 13 31  1  0
 15 32  1  0
 15 33  1  0
 19 34  1  0
 24 35  1  0
 27 36  1  0
 27 37  1  0
M  ISO  6  28  14  29  14  30  14  31   9  34  14  35  14
M  END
>  <minimizedAffinity>  (1) 
-7.16314745

>  <minimizedRMSD>  (1) 
0.980828345

$$$$
