
     RDKit          3D

 33 35  0  0  0  0  0  0  0  0999 V2000
   38.4950   23.7430   36.8220 C   0  0  0  0  0  0  0  0  0  0  0  0
   37.6110   22.7310   36.2310 N   0  0  0  0  0  0  0  0  0  0  0  0
   36.7030   21.9250   36.8400 C   0  0  0  0  0  0  0  0  0  0  0  0
   36.0820   21.1230   35.9600 N   0  0  0  0  0  0  0  0  0  0  0  0
   36.6010   21.4150   34.7480 C   0  0  0  0  0  0  0  0  0  0  0  0
   36.2770   20.8490   33.5240 C   0  0  0  0  0  0  0  0  0  0  0  0
   35.4080   19.9480   33.4390 O   0  0  0  0  0  0  0  0  0  0  0  0
   36.9440   21.3250   32.4720 N   0  0  0  0  0  0  0  0  0  0  0  0
   37.8680   22.2930   32.6210 C   0  0  0  0  0  0  0  0  0  0  0  0
   38.4800   22.6780   31.3830 N   0  0  0  0  0  0  0  0  0  0  0  0
   38.1620   22.8260   33.8190 N   0  0  0  0  0  0  0  0  0  0  0  0
   37.5400   22.4070   34.9300 C   0  0  0  0  0  0  0  0  0  0  0  0
   41.6020   21.6070   37.2670 C   0  0  0  0  0  0  0  0  0  0  0  0
   40.2950   22.1120   37.4290 C   0  0  0  0  0  0  0  0  0  0  0  0
   39.8600   23.2050   36.6700 C   0  0  0  0  0  0  0  0  0  0  0  0
   40.7650   23.7330   35.7870 N   0  0  0  0  0  0  0  0  0  0  0  0
   42.0190   23.2390   35.6400 C   0  0  0  0  0  0  0  0  0  0  0  0
   42.4270   22.1850   36.3760 N   0  0  0  0  0  0  0  0  0  0  0  0
   38.1160   23.8740   38.3110 C   0  0  0  0  0  0  0  0  0  0  0  0
   38.3090   25.0830   36.1890 C   0  0  0  0  0  0  0  0  0  0  0  0
   36.5011   21.9288   37.9213 H   0  0  0  0  0  0  0  0  0  0  0  0
   36.7499   20.9474   31.5336 H   0  0  0  0  0  0  0  0  0  0  0  0
   39.2033   23.4113   31.3722 H   0  0  0  0  0  0  0  0  0  0  0  0
   38.1964   22.2213   30.5044 H   0  0  0  0  0  0  0  0  0  0  0  0
   41.9433   20.7484   37.8639 H   0  0  0  0  0  0  0  0  0  0  0  0
   39.6140   21.6446   38.1555 H   0  0  0  0  0  0  0  0  0  0  0  0
   42.7074   23.7003   34.9166 H   0  0  0  0  0  0  0  0  0  0  0  0
   38.9724   23.5780   38.9347 H   0  0  0  0  0  0  0  0  0  0  0  0
   37.8461   24.9176   38.5302 H   0  0  0  0  0  0  0  0  0  0  0  0
   37.2592   23.2199   38.5302 H   0  0  0  0  0  0  0  0  0  0  0  0
   38.2029   25.8473   36.9730 H   0  0  0  0  0  0  0  0  0  0  0  0
   39.1832   25.3178   35.5639 H   0  0  0  0  0  0  0  0  0  0  0  0
   37.4039   25.0708   35.5639 H   0  0  0  0  0  0  0  0  0  0  0  0
  1 19  1  0
  2  1  1  0
  2  3  1  0
  4  3  2  0
  5 12  2  0
  5  4  1  0
  6  5  1  0
  7  6  2  0
  8  9  1  0
  8  6  1  0
  9 11  2  0
 10  9  1  0
 11 12  1  0
 12  2  1  0
 13 14  2  0
 15  1  1  0
 15 14  1  0
 16 15  2  0
 17 16  1  0
 17 18  2  0
 18 13  1  0
 20  1  1  0
  3 21  1  0
  8 22  1  0
 10 23  1  0
 10 24  1  0
 13 25  1  0
 14 26  1  0
 17 27  1  0
 19 28  1  0
 19 29  1  0
 19 30  1  0
 20 31  1  0
 20 32  1  0
 20 33  1  0
M  ISO  8  21  14  22   9  25  14  26  14  27  14  28   8  29   8  30   8
M  ISO  3  31   8  32   8  33   8
M  END
>  <minimizedAffinity>  (1) 
-4.54340744

>  <minimizedRMSD>  (1) 
1.40420711

$$$$
