
     RDKit          3D

 34 35  0  0  0  0  0  0  0  0999 V2000
   38.5440   23.4640   36.8800 C   0  0  0  0  0  0  0  0  0  0  0  0
   40.1150   26.0970   34.6550 C   0  0  0  0  0  0  0  0  0  0  0  0
   39.8580   24.8570   35.2860 C   0  0  0  0  0  0  0  0  0  0  0  0
   38.8110   24.7500   36.2110 C   0  0  0  0  0  0  0  0  0  0  0  0
   38.0770   25.8760   36.4620 N   0  0  0  0  0  0  0  0  0  0  0  0
   38.3340   27.0440   35.8570 C   0  0  0  0  0  0  0  0  0  0  0  0
   39.3470   27.1680   34.9520 N   0  0  0  0  0  0  0  0  0  0  0  0
   37.6130   22.7570   36.0150 N   0  0  0  0  0  0  0  0  0  0  0  0
   38.2240   21.8440   35.1030 C   0  0  0  0  0  0  0  0  0  0  0  0
   37.2390   21.6830   33.9360 C   0  0  0  0  0  0  0  0  0  0  0  0
   35.9460   21.1230   34.4750 C   0  0  0  0  0  0  0  0  0  0  0  0
   35.9870   20.9310   35.9590 C   0  0  0  0  0  0  0  0  0  0  0  0
   36.5380   22.1150   36.7180 C   0  0  0  0  0  0  0  0  0  0  0  0
   39.7830   22.6050   36.9920 C   0  0  0  0  0  0  0  0  0  0  0  0
   37.9550   23.6420   38.2670 C   0  0  0  0  0  0  0  0  0  0  0  0
   40.9348   26.1884   33.9273 H   0  0  0  0  0  0  0  0  0  0  0  0
   40.4783   23.9795   35.0511 H   0  0  0  0  0  0  0  0  0  0  0  0
   37.7148   27.9214   36.0954 H   0  0  0  0  0  0  0  0  0  0  0  0
   39.1809   22.2486   34.7416 H   0  0  0  0  0  0  0  0  0  0  0  0
   38.4375   20.8782   35.5843 H   0  0  0  0  0  0  0  0  0  0  0  0
   37.6588   20.9939   33.1884 H   0  0  0  0  0  0  0  0  0  0  0  0
   37.0578   22.6572   33.4585 H   0  0  0  0  0  0  0  0  0  0  0  0
   35.1297   21.8185   34.2304 H   0  0  0  0  0  0  0  0  0  0  0  0
   35.7859   20.1382   34.0118 H   0  0  0  0  0  0  0  0  0  0  0  0
   34.9624   20.7410   36.3114 H   0  0  0  0  0  0  0  0  0  0  0  0
   36.6653   20.0867   36.1515 H   0  0  0  0  0  0  0  0  0  0  0  0
   36.9096   21.7686   37.6937 H   0  0  0  0  0  0  0  0  0  0  0  0
   35.7263   22.8479   36.8362 H   0  0  0  0  0  0  0  0  0  0  0  0
   40.0204   22.4404   38.0534 H   0  0  0  0  0  0  0  0  0  0  0  0
   39.6033   21.6367   36.5020 H   0  0  0  0  0  0  0  0  0  0  0  0
   40.6268   23.1129   36.5020 H   0  0  0  0  0  0  0  0  0  0  0  0
   38.7201   23.4108   39.0227 H   0  0  0  0  0  0  0  0  0  0  0  0
   37.6188   24.6819   38.3919 H   0  0  0  0  0  0  0  0  0  0  0  0
   37.0991   22.9624   38.3919 H   0  0  0  0  0  0  0  0  0  0  0  0
  1 14  1  0
  1 15  1  0
  2  7  2  0
  2  3  1  0
  3  4  2  0
  4  5  1  0
  4  1  1  0
  6  5  2  0
  7  6  1  0
  8 13  1  0
  8  1  1  0
  9  8  1  0
 10 11  1  0
 10  9  1  0
 11 12  1  0
 12 13  1  0
  2 16  1  0
  3 17  1  0
  6 18  1  0
  9 19  1  0
  9 20  1  0
 10 21  1  0
 10 22  1  0
 11 23  1  0
 11 24  1  0
 12 25  1  0
 12 26  1  0
 13 27  1  0
 13 28  1  0
 14 29  1  0
 14 30  1  0
 14 31  1  0
 15 32  1  0
 15 33  1  0
 15 34  1  0
M  ISO  8  16  14  17  14  18  14  19  13  20  13  21  13  22  13  23  13
M  ISO  8  24  13  25  13  26  13  27  13  28  13  29   8  30   8  31   8
M  ISO  3  32   8  33   8  34   8
M  END
>  <minimizedAffinity>  (1) 
-4.14906073

>  <minimizedRMSD>  (1) 
3.41531634

$$$$
