
     RDKit          3D

 27 28  0  0  0  0  0  0  0  0999 V2000
   38.3300   23.7880   36.8030 C   0  0  0  0  0  0  0  0  0  0  0  0
   38.1800   27.4010   35.6480 C   0  0  0  0  0  0  0  0  0  0  0  0
   38.3460   26.2860   36.4830 C   0  0  0  0  0  0  0  0  0  0  0  0
   38.1620   24.9890   35.9640 C   0  0  0  0  0  0  0  0  0  0  0  0
   37.8220   24.9160   34.6220 N   0  0  0  0  0  0  0  0  0  0  0  0
   37.6720   25.9980   33.8520 C   0  0  0  0  0  0  0  0  0  0  0  0
   37.8510   27.2300   34.3670 N   0  0  0  0  0  0  0  0  0  0  0  0
   39.7340   23.2920   36.6670 C   0  0  0  0  0  0  0  0  0  0  0  0
   40.6880   23.7100   35.7530 C   0  0  0  0  0  0  0  0  0  0  0  0
   41.9430   23.1140   35.7910 C   0  0  0  0  0  0  0  0  0  0  0  0
   42.2890   22.1510   36.6670 N   0  0  0  0  0  0  0  0  0  0  0  0
   41.3270   21.7650   37.5490 C   0  0  0  0  0  0  0  0  0  0  0  0
   40.0850   22.3260   37.5430 N   0  0  0  0  0  0  0  0  0  0  0  0
   38.1260   24.1450   38.2900 C   0  0  0  0  0  0  0  0  0  0  0  0
   37.3190   22.7160   36.4850 C   0  0  0  0  0  0  0  0  0  0  0  0
   38.3211   28.4153   36.0495 H   0  0  0  0  0  0  0  0  0  0  0  0
   38.6190   26.4238   37.5396 H   0  0  0  0  0  0  0  0  0  0  0  0
   37.4010   25.8821   32.7922 H   0  0  0  0  0  0  0  0  0  0  0  0
   40.4579   24.4936   35.0161 H   0  0  0  0  0  0  0  0  0  0  0  0
   42.6975   23.4481   35.0635 H   0  0  0  0  0  0  0  0  0  0  0  0
   41.5577   20.9807   38.2850 H   0  0  0  0  0  0  0  0  0  0  0  0
   38.5734   23.3620   38.9198 H   0  0  0  0  0  0  0  0  0  0  0  0
   38.6094   25.1094   38.5052 H   0  0  0  0  0  0  0  0  0  0  0  0
   37.0497   24.2182   38.5052 H   0  0  0  0  0  0  0  0  0  0  0  0
   36.9230   22.2961   37.4214 H   0  0  0  0  0  0  0  0  0  0  0  0
   36.4947   23.1511   35.9008 H   0  0  0  0  0  0  0  0  0  0  0  0
   37.8015   21.9186   35.9008 H   0  0  0  0  0  0  0  0  0  0  0  0
  1 14  1  0
  2  3  2  0
  4  3  1  0
  4  1  1  0
  5  4  2  0
  6  7  2  0
  6  5  1  0
  7  2  1  0
  8  1  1  0
  8 13  2  0
  9 10  2  0
  9  8  1  0
 10 11  1  0
 11 12  2  0
 13 12  1  0
 15  1  1  0
  2 16  1  0
  3 17  1  0
  6 18  1  0
  9 19  1  0
 10 20  1  0
 12 21  1  0
 14 22  1  0
 14 23  1  0
 14 24  1  0
 15 25  1  0
 15 26  1  0
 15 27  1  0
M  ISO  8  16  14  17  14  18  14  19  14  20  14  21  14  22   8  23   8
M  ISO  4  24   8  25   8  26   8  27   8
M  END
>  <minimizedAffinity>  (1) 
-4.18674564

>  <minimizedRMSD>  (1) 
4.8840313

$$$$
