
     RDKit          3D

 30 31  0  0  0  0  0  0  0  0999 V2000
   38.4960   23.7340   36.6850 C   0  0  0  0  0  0  0  0  0  0  0  0
   37.6240   22.7230   36.0900 N   0  0  0  0  0  0  0  0  0  0  0  0
   36.6910   21.9690   36.6960 C   0  0  0  0  0  0  0  0  0  0  0  0
   35.9580   21.0590   35.9710 C   0  0  0  0  0  0  0  0  0  0  0  0
   36.1210   20.8600   34.6160 C   0  0  0  0  0  0  0  0  0  0  0  0
   35.3240   19.9000   33.9350 N   0  0  0  0  0  0  0  0  0  0  0  0
   37.0630   21.6320   34.0440 N   0  0  0  0  0  0  0  0  0  0  0  0
   37.7860   22.5300   34.7580 C   0  0  0  0  0  0  0  0  0  0  0  0
   38.5980   23.1210   33.9850 O   0  0  0  0  0  0  0  0  0  0  0  0
   41.5660   21.5860   37.3000 C   0  0  0  0  0  0  0  0  0  0  0  0
   40.2510   22.0700   37.3520 C   0  0  0  0  0  0  0  0  0  0  0  0
   39.8810   23.2140   36.6400 C   0  0  0  0  0  0  0  0  0  0  0  0
   40.8680   23.8100   35.9080 N   0  0  0  0  0  0  0  0  0  0  0  0
   42.1360   23.3330   35.8660 C   0  0  0  0  0  0  0  0  0  0  0  0
   42.4810   22.2240   36.5610 N   0  0  0  0  0  0  0  0  0  0  0  0
   38.0700   24.0160   38.1160 C   0  0  0  0  0  0  0  0  0  0  0  0
   38.3370   25.0020   35.8740 C   0  0  0  0  0  0  0  0  0  0  0  0
   36.5131   22.0802   37.7758 H   0  0  0  0  0  0  0  0  0  0  0  0
   35.2025   20.4587   36.4991 H   0  0  0  0  0  0  0  0  0  0  0  0
   35.4473   19.7529   32.9230 H   0  0  0  0  0  0  0  0  0  0  0  0
   34.6232   19.3515   34.4535 H   0  0  0  0  0  0  0  0  0  0  0  0
   41.8446   20.6843   37.8652 H   0  0  0  0  0  0  0  0  0  0  0  0
   39.5016   21.5428   37.9606 H   0  0  0  0  0  0  0  0  0  0  0  0
   42.8930   23.8529   35.2604 H   0  0  0  0  0  0  0  0  0  0  0  0
   38.7816   23.5449   38.8100 H   0  0  0  0  0  0  0  0  0  0  0  0
   38.0557   25.1025   38.2870 H   0  0  0  0  0  0  0  0  0  0  0  0
   37.0642   23.6047   38.2870 H   0  0  0  0  0  0  0  0  0  0  0  0
   38.2293   25.8606   36.5532 H   0  0  0  0  0  0  0  0  0  0  0  0
   39.2242   25.1452   35.2397 H   0  0  0  0  0  0  0  0  0  0  0  0
   37.4419   24.9217   35.2397 H   0  0  0  0  0  0  0  0  0  0  0  0
  1 16  1  0
  2  1  1  0
  2  3  1  0
  4  3  2  0
  5  4  1  0
  6  5  1  0
  7  5  2  0
  7  8  1  0
  8  2  1  0
  9  8  2  0
 10 11  2  0
 12  1  1  0
 12 11  1  0
 13 12  2  0
 14 13  1  0
 14 15  2  0
 15 10  1  0
 17  1  1  0
  3 18  1  0
  4 19  1  0
  6 20  1  0
  6 21  1  0
 10 22  1  0
 11 23  1  0
 14 24  1  0
 16 25  1  0
 16 26  1  0
 16 27  1  0
 17 28  1  0
 17 29  1  0
 17 30  1  0
M  ISO  8  18  14  19  14  22  14  23  14  24  14  25   8  26   8  27   8
M  ISO  3  28   8  29   8  30   8
M  END
>  <minimizedAffinity>  (1) 
-4.4838624

>  <minimizedRMSD>  (1) 
1.46978629

$$$$
