
     RDKit          3D

 25 26  0  0  0  0  0  0  0  0999 V2000
   38.3280   23.4920   36.9180 C   0  0  0  0  0  0  0  0  0  0  0  0
   41.7100   21.8070   37.1710 C   0  0  0  0  0  0  0  0  0  0  0  0
   40.3590   22.1180   37.4290 C   0  0  0  0  0  0  0  0  0  0  0  0
   39.7450   23.1330   36.6840 C   0  0  0  0  0  0  0  0  0  0  0  0
   40.4990   23.7700   35.7400 N   0  0  0  0  0  0  0  0  0  0  0  0
   41.7950   23.4470   35.5160 C   0  0  0  0  0  0  0  0  0  0  0  0
   42.4030   22.4590   36.2370 N   0  0  0  0  0  0  0  0  0  0  0  0
   37.4430   22.4950   36.3050 N   0  0  0  0  0  0  0  0  0  0  0  0
   37.3620   21.8630   35.1170 C   0  0  0  0  0  0  0  0  0  0  0  0
   36.2950   21.0310   35.1590 N   0  0  0  0  0  0  0  0  0  0  0  0
   35.7150   21.1440   36.3710 C   0  0  0  0  0  0  0  0  0  0  0  0
   36.4420   22.0580   37.0690 N   0  0  0  0  0  0  0  0  0  0  0  0
   38.0060   23.5120   38.4240 C   0  0  0  0  0  0  0  0  0  0  0  0
   37.9550   24.8180   36.3450 C   0  0  0  0  0  0  0  0  0  0  0  0
   42.2012   21.0118   37.7510 H   0  0  0  0  0  0  0  0  0  0  0  0
   39.7971   21.5730   38.2018 H   0  0  0  0  0  0  0  0  0  0  0  0
   42.3644   23.9864   34.7447 H   0  0  0  0  0  0  0  0  0  0  0  0
   38.0429   21.9993   34.2639 H   0  0  0  0  0  0  0  0  0  0  0  0
   34.8262   20.6022   36.7266 H   0  0  0  0  0  0  0  0  0  0  0  0
   38.9415   23.4539   38.9998 H   0  0  0  0  0  0  0  0  0  0  0  0
   37.4790   24.4446   38.6739 H   0  0  0  0  0  0  0  0  0  0  0  0
   37.3676   22.6518   38.6739 H   0  0  0  0  0  0  0  0  0  0  0  0
   37.7555   25.5273   37.1617 H   0  0  0  0  0  0  0  0  0  0  0  0
   38.7818   25.1954   35.7254 H   0  0  0  0  0  0  0  0  0  0  0  0
   37.0527   24.7090   35.7254 H   0  0  0  0  0  0  0  0  0  0  0  0
  1 13  1  0
  2  3  2  0
  4  1  1  0
  4  3  1  0
  5  4  2  0
  6  5  1  0
  6  7  2  0
  7  2  1  0
  8  1  1  0
  8 12  1  0
  9 10  2  0
  9  8  1  0
 10 11  1  0
 11 12  2  0
 14  1  1  0
  2 15  1  0
  3 16  1  0
  6 17  1  0
  9 18  1  0
 11 19  1  0
 13 20  1  0
 13 21  1  0
 13 22  1  0
 14 23  1  0
 14 24  1  0
 14 25  1  0
M  ISO  8  15  14  16  14  17  14  18  14  19  14  20   8  21   8  22   8
M  ISO  3  23   8  24   8  25   8
M  END
>  <minimizedAffinity>  (1) 
-3.7676146

>  <minimizedRMSD>  (1) 
1.43586087

$$$$
