
     RDKit          3D

 39 43  0  0  0  0  0  0  0  0999 V2000
   37.9990   27.1690   34.9360 C   0  0  0  0  0  0  0  0  0  0  0  0
   37.9540   25.8930   34.3570 C   0  0  0  0  0  0  0  0  0  0  0  0
   37.1640   25.7480   33.2300 C   0  0  0  0  0  0  0  0  0  0  0  0
   36.4870   26.8240   32.7530 N   0  0  0  0  0  0  0  0  0  0  0  0
   36.5390   28.0120   33.3030 C   0  0  0  0  0  0  0  0  0  0  0  0
   37.2910   28.1660   34.3830 N   0  0  0  0  0  0  0  0  0  0  0  0
   38.7140   24.8580   34.9540 N   0  0  0  0  0  0  0  0  0  0  0  0
   39.6620   24.1160   34.3180 C   0  0  0  0  0  0  0  0  0  0  0  0
   40.1770   23.2240   35.2100 N   0  0  0  0  0  0  0  0  0  0  0  0
   39.5570   23.4100   36.3810 C   0  0  0  0  0  0  0  0  0  0  0  0
   39.6310   22.8380   37.6350 C   0  0  0  0  0  0  0  0  0  0  0  0
   38.8610   23.2300   38.6820 N   0  0  0  0  0  0  0  0  0  0  0  0
   37.9740   24.2370   38.4900 C   0  0  0  0  0  0  0  0  0  0  0  0
   37.8730   24.8180   37.2880 N   0  0  0  0  0  0  0  0  0  0  0  0
   38.6400   24.4230   36.2520 C   0  0  0  0  0  0  0  0  0  0  0  0
   40.5460   21.7820   37.8810 N   0  0  0  0  0  0  0  0  0  0  0  0
   35.8820   29.2540   32.9200 C   0  0  0  0  0  0  0  0  0  0  0  0
   35.4430   29.5300   31.6210 C   0  0  0  0  0  0  0  0  0  0  0  0
   34.8230   30.6820   31.2180 C   0  0  0  0  0  0  0  0  0  0  0  0
   34.5930   31.6760   32.1370 C   0  0  0  0  0  0  0  0  0  0  0  0
   34.9960   31.4800   33.4360 C   0  0  0  0  0  0  0  0  0  0  0  0
   34.7400   32.5090   34.3080 C   0  0  0  0  0  0  0  0  0  0  0  0
   35.1110   32.3950   35.6300 C   0  0  0  0  0  0  0  0  0  0  0  0
   35.7420   31.2040   36.0070 C   0  0  0  0  0  0  0  0  0  0  0  0
   35.9650   30.2260   35.0920 C   0  0  0  0  0  0  0  0  0  0  0  0
   35.6130   30.2970   33.7680 C   0  0  0  0  0  0  0  0  0  0  0  0
   38.6080   27.3510   35.8338 H   0  0  0  0  0  0  0  0  0  0  0  0
   37.0855   24.7730   32.7268 H   0  0  0  0  0  0  0  0  0  0  0  0
   39.9610   24.2190   33.2644 H   0  0  0  0  0  0  0  0  0  0  0  0
   37.3380   24.5764   39.3208 H   0  0  0  0  0  0  0  0  0  0  0  0
   40.6008   21.3556   38.8170 H   0  0  0  0  0  0  0  0  0  0  0  0
   41.1555   21.4418   37.1236 H   0  0  0  0  0  0  0  0  0  0  0  0
   35.6102   28.7553   30.8582 H   0  0  0  0  0  0  0  0  0  0  0  0
   34.5127   30.8099   30.1704 H   0  0  0  0  0  0  0  0  0  0  0  0
   34.0958   32.6109   31.8391 H   0  0  0  0  0  0  0  0  0  0  0  0
   34.2401   33.4220   33.9522 H   0  0  0  0  0  0  0  0  0  0  0  0
   34.9205   33.2009   36.3540 H   0  0  0  0  0  0  0  0  0  0  0  0
   36.0590   31.0595   37.0504 H   0  0  0  0  0  0  0  0  0  0  0  0
   36.4648   29.3091   35.4378 H   0  0  0  0  0  0  0  0  0  0  0  0
  2  1  2  0
  2  7  1  0
  3  2  1  0
  4  3  2  0
  4  5  1  0
  5  6  2  0
  6  1  1  0
  7 15  1  0
  8  7  1  0
  8  9  2  0
  9 10  1  0
 10 11  2  0
 11 16  1  0
 11 12  1  0
 13 12  2  0
 14 13  1  0
 15 10  1  0
 15 14  2  0
 17  5  1  0
 17 26  1  0
 18 17  2  0
 19 18  1  0
 19 20  2  0
 20 21  1  0
 21 26  2  0
 21 22  1  0
 22 23  2  0
 23 24  1  0
 25 24  2  0
 26 25  1  0
  1 27  1  0
  3 28  1  0
  8 29  1  0
 13 30  1  0
 16 31  1  0
 16 32  1  0
 18 33  1  0
 19 34  1  0
 20 35  1  0
 22 36  1  0
 23 37  1  0
 24 38  1  0
 25 39  1  0
M  ISO  8  27  14  28  14  29  14  30  14  33  14  34  14  35  14  36  14
M  ISO  3  37  14  38  14  39  14
M  END
>  <minimizedAffinity>  (1) 
-6.99214458

>  <minimizedRMSD>  (1) 
1.27019203

$$$$
