
     RDKit          3D

 34 38  0  0  0  0  0  0  0  0999 V2000
   37.7200   26.9470   34.9730 C   0  0  0  0  0  0  0  0  0  0  0  0
   37.8920   25.7280   34.2550 C   0  0  0  0  0  0  0  0  0  0  0  0
   37.2940   25.6110   33.0150 C   0  0  0  0  0  0  0  0  0  0  0  0
   36.5620   26.6730   32.5370 N   0  0  0  0  0  0  0  0  0  0  0  0
   36.4190   27.8160   33.2470 C   0  0  0  0  0  0  0  0  0  0  0  0
   36.9930   27.9390   34.4450 N   0  0  0  0  0  0  0  0  0  0  0  0
   35.6470   28.8800   32.6930 N   0  0  0  0  0  0  0  0  0  0  0  0
   35.7970   29.3830   31.4500 C   0  0  0  0  0  0  0  0  0  0  0  0
   34.9020   30.3860   31.2470 N   0  0  0  0  0  0  0  0  0  0  0  0
   34.1830   30.5020   32.4000 C   0  0  0  0  0  0  0  0  0  0  0  0
   33.1430   31.3600   32.7490 C   0  0  0  0  0  0  0  0  0  0  0  0
   32.6080   31.2460   33.9900 N   0  0  0  0  0  0  0  0  0  0  0  0
   33.0760   30.3150   34.8700 C   0  0  0  0  0  0  0  0  0  0  0  0
   34.0900   29.4890   34.5060 N   0  0  0  0  0  0  0  0  0  0  0  0
   34.6600   29.5570   33.2890 C   0  0  0  0  0  0  0  0  0  0  0  0
   38.6770   24.7280   34.8850 N   0  0  0  0  0  0  0  0  0  0  0  0
   39.6450   23.9950   34.2460 C   0  0  0  0  0  0  0  0  0  0  0  0
   40.1890   23.1340   35.1570 N   0  0  0  0  0  0  0  0  0  0  0  0
   39.5780   23.3280   36.3230 C   0  0  0  0  0  0  0  0  0  0  0  0
   39.6670   22.7910   37.5980 C   0  0  0  0  0  0  0  0  0  0  0  0
   38.8980   23.1830   38.6440 N   0  0  0  0  0  0  0  0  0  0  0  0
   37.9740   24.1710   38.4400 C   0  0  0  0  0  0  0  0  0  0  0  0
   37.8600   24.7130   37.2180 N   0  0  0  0  0  0  0  0  0  0  0  0
   38.6220   24.3210   36.1940 C   0  0  0  0  0  0  0  0  0  0  0  0
   40.6060   21.7690   37.8680 N   0  0  0  0  0  0  0  0  0  0  0  0
   38.1851   27.0727   35.9619 H   0  0  0  0  0  0  0  0  0  0  0  0
   37.4008   24.6897   32.4236 H   0  0  0  0  0  0  0  0  0  0  0  0
   36.5334   29.0337   30.7113 H   0  0  0  0  0  0  0  0  0  0  0  0
   32.7659   32.1095   32.0377 H   0  0  0  0  0  0  0  0  0  0  0  0
   32.6324   30.2335   35.8733 H   0  0  0  0  0  0  0  0  0  0  0  0
   39.9322   24.0846   33.1879 H   0  0  0  0  0  0  0  0  0  0  0  0
   37.3341   24.5159   39.2655 H   0  0  0  0  0  0  0  0  0  0  0  0
   40.6736   21.3688   38.8146 H   0  0  0  0  0  0  0  0  0  0  0  0
   41.2224   21.4247   37.1180 H   0  0  0  0  0  0  0  0  0  0  0  0
  2 16  1  0
  2  1  2  0
  3  2  1  0
  4  3  2  0
  4  5  1  0
  5  6  2  0
  6  1  1  0
  7  5  1  0
  7 15  1  0
  8  7  1  0
  9  8  2  0
  9 10  1  0
 10 11  2  0
 10 15  1  0
 11 12  1  0
 12 13  2  0
 14 13  1  0
 15 14  2  0
 16 24  1  0
 17 16  1  0
 17 18  2  0
 18 19  1  0
 19 20  2  0
 20 25  1  0
 20 21  1  0
 22 21  2  0
 23 22  1  0
 24 19  1  0
 24 23  2  0
  1 26  1  0
  3 27  1  0
  8 28  1  0
 11 29  1  0
 13 30  1  0
 17 31  1  0
 22 32  1  0
 25 33  1  0
 25 34  1  0
M  ISO  7  26  14  27  14  28  14  29  14  30  14  31  14  32  14
M  END
>  <minimizedAffinity>  (1) 
-6.80733347

>  <minimizedRMSD>  (1) 
0.876227915

$$$$
