
     RDKit          3D

 37 39  0  0  1  0  0  0  0  0999 V2000
   38.3500   23.0810   35.7840 C   0  0  2  0  0  0  0  0  0  0  0  0
   37.4250   21.9200   35.6580 C   0  0  0  0  0  0  0  0  0  0  0  0
   36.9400   21.5580   34.3200 C   0  0  0  0  0  0  0  0  0  0  0  0
   35.7000   20.7010   34.6240 C   0  0  0  0  0  0  0  0  0  0  0  0
   35.6100   20.6160   36.1390 C   0  0  0  0  0  0  0  0  0  0  0  0
   36.1440   22.0340   36.4570 C   0  0  0  0  0  0  0  0  0  0  0  0
   41.4360   21.7090   37.4510 C   0  0  0  0  0  0  0  0  0  0  0  0
   40.1610   22.2510   37.2530 C   0  0  0  0  0  0  0  0  0  0  0  0
   39.6890   22.5200   35.9770 C   0  0  0  0  0  0  0  0  0  0  0  0
   40.5630   22.2130   34.9750 N   0  0  0  0  0  0  0  0  0  0  0  0
   41.7710   21.7020   35.1450 C   0  0  0  0  0  0  0  0  0  0  0  0
   42.2170   21.4450   36.3920 N   0  0  0  0  0  0  0  0  0  0  0  0
   37.9030   23.9040   37.0210 C   0  0  0  0  0  0  0  0  0  0  0  0
   38.2800   24.0350   34.6310 C   0  0  0  0  0  0  0  0  0  0  0  0
   38.4980   25.4450   35.0500 C   0  0  0  0  0  0  0  0  0  0  0  0
   39.5720   26.1880   35.4500 N   0  0  0  0  0  0  0  0  0  0  0  0
   39.1820   27.3940   35.7000 O   0  0  0  0  0  0  0  0  0  0  0  0
   37.8920   27.4800   35.4800 C   0  0  0  0  0  0  0  0  0  0  0  0
   37.4410   26.2840   35.0740 N   0  0  0  0  0  0  0  0  0  0  0  0
   38.1224   21.1565   36.0332 H   0  0  0  0  0  0  0  0  0  0  0  0
   37.6955   20.9792   33.7684 H   0  0  0  0  0  0  0  0  0  0  0  0
   36.7204   22.4304   33.6869 H   0  0  0  0  0  0  0  0  0  0  0  0
   34.7969   21.1765   34.2136 H   0  0  0  0  0  0  0  0  0  0  0  0
   35.7789   19.7028   34.1686 H   0  0  0  0  0  0  0  0  0  0  0  0
   34.5775   20.4698   36.4890 H   0  0  0  0  0  0  0  0  0  0  0  0
   36.1438   19.7782   36.6115 H   0  0  0  0  0  0  0  0  0  0  0  0
   36.3278   22.1853   37.5309 H   0  0  0  0  0  0  0  0  0  0  0  0
   35.4823   22.8791   36.2162 H   0  0  0  0  0  0  0  0  0  0  0  0
   41.7961   21.5005   38.4693 H   0  0  0  0  0  0  0  0  0  0  0  0
   39.5234   22.4670   38.1229 H   0  0  0  0  0  0  0  0  0  0  0  0
   42.4084   21.4878   34.2745 H   0  0  0  0  0  0  0  0  0  0  0  0
   38.1920   23.3719   37.9393 H   0  0  0  0  0  0  0  0  0  0  0  0
   38.3893   24.8905   37.0003 H   0  0  0  0  0  0  0  0  0  0  0  0
   36.8108   24.0331   37.0003 H   0  0  0  0  0  0  0  0  0  0  0  0
   39.0526   23.7606   33.8976 H   0  0  0  0  0  0  0  0  0  0  0  0
   37.2713   23.9652   34.1978 H   0  0  0  0  0  0  0  0  0  0  0  0
   37.2800   28.3851   35.6076 H   0  0  0  0  0  0  0  0  0  0  0  0
  1 14  1  6
  1  9  1  0
  1 13  1  0
  2  1  1  0
  2  6  1  0
  3  4  1  0
  3  2  1  0
  4  5  1  0
  5  6  1  0
  8  7  2  0
  9  8  1  0
 10 11  1  0
 10  9  2  0
 11 12  2  0
 12  7  1  0
 14 15  1  0
 15 19  1  0
 15 16  2  0
 16 17  1  0
 18 17  1  0
 19 18  2  0
  2 20  1  0
  3 21  1  0
  3 22  1  0
  4 23  1  0
  4 24  1  0
  5 25  1  0
  5 26  1  0
  6 27  1  0
  6 28  1  0
  7 29  1  0
  8 30  1  0
 11 31  1  0
 13 32  1  0
 13 33  1  0
 13 34  1  0
 14 35  1  0
 14 36  1  0
 18 37  1  0
M  ISO  8  20  13  21  13  22  13  23  13  24  13  25  13  26  13  27  13
M  ISO  8  28  13  29  14  30  14  31  14  32   8  33   8  34   8  35   8
M  ISO  2  36   8  37  14
M  END
>  <minimizedAffinity>  (1) 
-4.40255451

>  <minimizedRMSD>  (1) 
1.57775307

$$$$
