
     RDKit          3D

 42 44  0  0  1  0  0  0  0  0999 V2000
   38.9070   23.4450   35.2450 C   0  0  2  0  0  0  0  0  0  0  0  0
   40.0890   23.1990   36.1320 C   0  0  0  0  0  0  0  0  0  0  0  0
   41.4150   23.6120   35.6270 C   0  0  0  0  0  0  0  0  0  0  0  0
   42.3920   22.8210   36.5040 C   0  0  0  0  0  0  0  0  0  0  0  0
   41.5280   22.0560   37.4900 C   0  0  0  0  0  0  0  0  0  0  0  0
   40.3180   21.7760   36.5560 C   0  0  0  0  0  0  0  0  0  0  0  0
   38.2030   27.0510   36.0750 C   0  0  0  0  0  0  0  0  0  0  0  0
   38.3140   25.6670   36.2010 C   0  0  0  0  0  0  0  0  0  0  0  0
   38.7700   24.8890   35.1470 C   0  0  0  0  0  0  0  0  0  0  0  0
   39.0710   25.6160   34.0550 N   0  0  0  0  0  0  0  0  0  0  0  0
   38.9840   26.9270   33.8830 C   0  0  0  0  0  0  0  0  0  0  0  0
   38.5340   27.6600   34.9330 N   0  0  0  0  0  0  0  0  0  0  0  0
   37.6820   22.8470   36.0240 C   0  0  0  0  0  0  0  0  0  0  0  0
   38.9630   22.7210   33.9710 C   0  0  0  0  0  0  0  0  0  0  0  0
   37.6790   22.4710   33.3040 C   0  0  0  0  0  0  0  0  0  0  0  0
   37.0490   21.2520   33.5910 C   0  0  0  0  0  0  0  0  0  0  0  0
   35.8510   20.8730   33.0220 C   0  0  0  0  0  0  0  0  0  0  0  0
   35.2100   21.6900   32.1310 C   0  0  0  0  0  0  0  0  0  0  0  0
   35.7870   22.9010   31.8140 C   0  0  0  0  0  0  0  0  0  0  0  0
   36.9770   23.2360   32.4030 C   0  0  0  0  0  0  0  0  0  0  0  0
   39.7570   23.8402   36.9618 H   0  0  0  0  0  0  0  0  0  0  0  0
   41.5330   23.3445   34.5666 H   0  0  0  0  0  0  0  0  0  0  0  0
   41.5747   24.6991   35.6795 H   0  0  0  0  0  0  0  0  0  0  0  0
   42.9821   22.1248   35.8898 H   0  0  0  0  0  0  0  0  0  0  0  0
   43.1061   23.4825   37.0164 H   0  0  0  0  0  0  0  0  0  0  0  0
   42.0108   21.1293   37.8338 H   0  0  0  0  0  0  0  0  0  0  0  0
   41.2977   22.5764   38.4313 H   0  0  0  0  0  0  0  0  0  0  0  0
   39.4578   21.3529   37.0954 H   0  0  0  0  0  0  0  0  0  0  0  0
   40.4725   21.0396   35.7536 H   0  0  0  0  0  0  0  0  0  0  0  0
   37.8392   27.6476   36.9245 H   0  0  0  0  0  0  0  0  0  0  0  0
   38.0360   25.1850   37.1499 H   0  0  0  0  0  0  0  0  0  0  0  0
   39.2643   27.4007   32.9306 H   0  0  0  0  0  0  0  0  0  0  0  0
   37.8583   22.9331   37.1064 H   0  0  0  0  0  0  0  0  0  0  0  0
   36.7707   23.4016   35.7557 H   0  0  0  0  0  0  0  0  0  0  0  0
   37.5587   21.7874   35.7557 H   0  0  0  0  0  0  0  0  0  0  0  0
   39.5899   23.3054   33.2815 H   0  0  0  0  0  0  0  0  0  0  0  0
   39.3619   21.7261   34.2181 H   0  0  0  0  0  0  0  0  0  0  0  0
   37.5322   20.5663   34.3026 H   0  0  0  0  0  0  0  0  0  0  0  0
   35.4058   19.9028   33.2876 H   0  0  0  0  0  0  0  0  0  0  0  0
   34.2548   21.3869   31.6775 H   0  0  0  0  0  0  0  0  0  0  0  0
   35.3013   23.5846   31.1021 H   0  0  0  0  0  0  0  0  0  0  0  0
   37.4120   24.2086   32.1295 H   0  0  0  0  0  0  0  0  0  0  0  0
  1 14  1  6
  1 13  1  0
  1  2  1  0
  2  6  1  0
  3  2  1  0
  3  4  1  0
  4  5  1  0
  6  5  1  0
  7  8  2  0
  9  1  1  0
  9  8  1  0
 10  9  2  0
 11 10  1  0
 11 12  2  0
 12  7  1  0
 15 16  2  0
 15 14  1  0
 17 16  1  0
 18 17  2  0
 19 18  1  0
 19 20  2  0
 20 15  1  0
  2 21  1  0
  3 22  1  0
  3 23  1  0
  4 24  1  0
  4 25  1  0
  5 26  1  0
  5 27  1  0
  6 28  1  0
  6 29  1  0
  7 30  1  0
  8 31  1  0
 11 32  1  0
 13 33  1  0
 13 34  1  0
 13 35  1  0
 14 36  1  0
 14 37  1  0
 16 38  1  0
 17 39  1  0
 18 40  1  0
 19 41  1  0
 20 42  1  0
M  ISO  8  21  13  22  13  23  13  24  13  25  13  26  13  27  13  28  13
M  ISO  8  29  13  30  14  31  14  32  14  33   8  34   8  35   8  36   8
M  ISO  6  37   8  38  14  39  14  40  14  41  14  42  14
M  END
>  <minimizedAffinity>  (1) 
-4.62235212

>  <minimizedRMSD>  (1) 
5.70686626

$$$$
