
     RDKit          3D

 39 41  0  0  1  0  0  0  0  0999 V2000
   38.5830   23.5410   36.2770 C   0  0  2  0  0  0  0  0  0  0  0  0
   37.8080   22.3200   35.9050 C   0  0  0  0  0  0  0  0  0  0  0  0
   37.5090   22.1370   34.4720 C   0  0  0  0  0  0  0  0  0  0  0  0
   36.3750   21.0990   34.4880 C   0  0  0  0  0  0  0  0  0  0  0  0
   36.0600   20.8580   35.9710 C   0  0  0  0  0  0  0  0  0  0  0  0
   36.4310   22.2420   36.5120 C   0  0  0  0  0  0  0  0  0  0  0  0
   41.6350   21.5740   37.2980 C   0  0  0  0  0  0  0  0  0  0  0  0
   40.2940   21.9870   37.1850 C   0  0  0  0  0  0  0  0  0  0  0  0
   39.9840   23.0970   36.4040 C   0  0  0  0  0  0  0  0  0  0  0  0
   41.0550   23.6850   35.8080 N   0  0  0  0  0  0  0  0  0  0  0  0
   42.3180   23.2940   35.9150 C   0  0  0  0  0  0  0  0  0  0  0  0
   42.6060   22.2270   36.6680 N   0  0  0  0  0  0  0  0  0  0  0  0
   38.0310   24.0360   37.6370 C   0  0  0  0  0  0  0  0  0  0  0  0
   38.4320   24.6820   35.3270 C   0  0  0  0  0  0  0  0  0  0  0  0
   38.1580   25.9310   36.1020 C   0  0  0  0  0  0  0  0  0  0  0  0
   38.9820   27.1370   35.6750 C   0  0  0  0  0  0  0  0  0  0  0  0
   37.5470   27.0940   35.2850 C   0  0  0  0  0  0  0  0  0  0  0  0
   38.5122   21.5635   36.2815 H   0  0  0  0  0  0  0  0  0  0  0  0
   38.3870   21.7557   33.9300 H   0  0  0  0  0  0  0  0  0  0  0  0
   37.2347   23.0725   33.9624 H   0  0  0  0  0  0  0  0  0  0  0  0
   35.4892   21.4893   33.9654 H   0  0  0  0  0  0  0  0  0  0  0  0
   36.6655   20.1696   33.9764 H   0  0  0  0  0  0  0  0  0  0  0  0
   34.9988   20.6199   36.1356 H   0  0  0  0  0  0  0  0  0  0  0  0
   36.5806   20.0085   36.4372 H   0  0  0  0  0  0  0  0  0  0  0  0
   36.4545   22.2706   37.6114 H   0  0  0  0  0  0  0  0  0  0  0  0
   35.7413   23.0640   36.2698 H   0  0  0  0  0  0  0  0  0  0  0  0
   41.8826   20.6986   37.9164 H   0  0  0  0  0  0  0  0  0  0  0  0
   39.4981   21.4376   37.7091 H   0  0  0  0  0  0  0  0  0  0  0  0
   43.1171   23.8396   35.3918 H   0  0  0  0  0  0  0  0  0  0  0  0
   38.5783   23.5453   38.4553 H   0  0  0  0  0  0  0  0  0  0  0  0
   38.1610   25.1258   37.7107 H   0  0  0  0  0  0  0  0  0  0  0  0
   36.9618   23.7885   37.7107 H   0  0  0  0  0  0  0  0  0  0  0  0
   39.3590   24.8040   34.7475 H   0  0  0  0  0  0  0  0  0  0  0  0
   37.5978   24.4828   34.6382 H   0  0  0  0  0  0  0  0  0  0  0  0
   37.9225   25.4247   37.0497 H   0  0  0  0  0  0  0  0  0  0  0  0
   39.3196   27.8613   36.4309 H   0  0  0  0  0  0  0  0  0  0  0  0
   39.9236   27.2649   35.1209 H   0  0  0  0  0  0  0  0  0  0  0  0
   36.8282   27.7795   35.7577 H   0  0  0  0  0  0  0  0  0  0  0  0
   36.9973   27.1716   34.3353 H   0  0  0  0  0  0  0  0  0  0  0  0
  1 14  1  6
  1  9  1  0
  1 13  1  0
  2  1  1  0
  2  6  1  0
  3  4  1  0
  3  2  1  0
  4  5  1  0
  5  6  1  0
  8  7  2  0
  9  8  1  0
 10 11  1  0
 10  9  2  0
 11 12  2  0
 12  7  1  0
 14 15  1  0
 16 15  1  0
 17 16  1  0
 17 15  1  0
  2 18  1  0
  3 19  1  0
  3 20  1  0
  4 21  1  0
  4 22  1  0
  5 23  1  0
  5 24  1  0
  6 25  1  0
  6 26  1  0
  7 27  1  0
  8 28  1  0
 11 29  1  0
 13 30  1  0
 13 31  1  0
 13 32  1  0
 14 33  1  0
 14 34  1  0
 15 35  1  0
 16 36  1  0
 16 37  1  0
 17 38  1  0
 17 39  1  0
M  ISO  8  18  13  19  13  20  13  21  13  22  13  23  13  24  13  25  13
M  ISO  8  26  13  27  14  28  14  29  14  30   8  31   8  32   8  33   8
M  ISO  6  34   8  35  13  36  13  37  13  38  13  39  13
M  END
>  <minimizedAffinity>  (1) 
-4.38482094

>  <minimizedRMSD>  (1) 
0.733517408

$$$$
