
     RDKit          3D

 38 40  0  0  1  0  0  0  0  0999 V2000
   38.3750   23.0820   35.7290 C   0  0  2  0  0  0  0  0  0  0  0  0
   37.4350   21.9170   35.6460 C   0  0  0  0  0  0  0  0  0  0  0  0
   36.9250   21.5800   34.3000 C   0  0  0  0  0  0  0  0  0  0  0  0
   35.7080   20.6890   34.6080 C   0  0  0  0  0  0  0  0  0  0  0  0
   35.6100   20.6300   36.1290 C   0  0  0  0  0  0  0  0  0  0  0  0
   36.1690   22.0320   36.4480 C   0  0  0  0  0  0  0  0  0  0  0  0
   41.4290   21.7120   37.4520 C   0  0  0  0  0  0  0  0  0  0  0  0
   40.1540   22.2620   37.2620 C   0  0  0  0  0  0  0  0  0  0  0  0
   39.6930   22.5240   35.9790 C   0  0  0  0  0  0  0  0  0  0  0  0
   40.5810   22.2000   35.0170 N   0  0  0  0  0  0  0  0  0  0  0  0
   41.7950   21.6780   35.1610 C   0  0  0  0  0  0  0  0  0  0  0  0
   42.2190   21.4320   36.4260 N   0  0  0  0  0  0  0  0  0  0  0  0
   37.8970   23.9050   36.9810 C   0  0  0  0  0  0  0  0  0  0  0  0
   38.2900   24.0190   34.5940 C   0  0  0  0  0  0  0  0  0  0  0  0
   38.4790   25.3840   34.9630 N   0  0  0  0  0  0  0  0  0  0  0  0
   39.4400   26.2050   35.4110 C   0  0  0  0  0  0  0  0  0  0  0  0
   38.9700   27.4530   35.6010 N   0  0  0  0  0  0  0  0  0  0  0  0
   37.6510   27.4200   35.2560 C   0  0  0  0  0  0  0  0  0  0  0  0
   37.3880   26.1650   34.8780 N   0  0  0  0  0  0  0  0  0  0  0  0
   38.1203   21.1518   36.0393 H   0  0  0  0  0  0  0  0  0  0  0  0
   37.6794   21.0320   33.7165 H   0  0  0  0  0  0  0  0  0  0  0  0
   36.6747   22.4644   33.6957 H   0  0  0  0  0  0  0  0  0  0  0  0
   34.7940   21.1285   34.1821 H   0  0  0  0  0  0  0  0  0  0  0  0
   35.8197   19.6860   34.1704 H   0  0  0  0  0  0  0  0  0  0  0  0
   34.5722   20.5093   36.4732 H   0  0  0  0  0  0  0  0  0  0  0  0
   36.1296   19.7877   36.6091 H   0  0  0  0  0  0  0  0  0  0  0  0
   36.3632   22.1724   37.5216 H   0  0  0  0  0  0  0  0  0  0  0  0
   35.5158   22.8854   36.2136 H   0  0  0  0  0  0  0  0  0  0  0  0
   41.7810   21.5086   38.4741 H   0  0  0  0  0  0  0  0  0  0  0  0
   39.5176   22.4864   38.1307 H   0  0  0  0  0  0  0  0  0  0  0  0
   42.4295   21.4548   34.2906 H   0  0  0  0  0  0  0  0  0  0  0  0
   38.2002   23.3829   37.9005 H   0  0  0  0  0  0  0  0  0  0  0  0
   38.3549   24.9049   36.9591 H   0  0  0  0  0  0  0  0  0  0  0  0
   36.8016   24.0028   36.9591 H   0  0  0  0  0  0  0  0  0  0  0  0
   39.0632   23.7471   33.8604 H   0  0  0  0  0  0  0  0  0  0  0  0
   37.2734   23.9346   34.1824 H   0  0  0  0  0  0  0  0  0  0  0  0
   40.4795   25.8984   35.5993 H   0  0  0  0  0  0  0  0  0  0  0  0
   36.9425   28.2610   35.2834 H   0  0  0  0  0  0  0  0  0  0  0  0
  1 14  1  6
  1  9  1  0
  1 13  1  0
  2  1  1  0
  2  6  1  0
  3  4  1  0
  3  2  1  0
  4  5  1  0
  5  6  1  0
  8  7  2  0
  9  8  1  0
 10 11  1  0
 10  9  2  0
 11 12  2  0
 12  7  1  0
 14 15  1  0
 15 16  1  0
 16 17  2  0
 18 17  1  0
 19 15  1  0
 19 18  2  0
  2 20  1  0
  3 21  1  0
  3 22  1  0
  4 23  1  0
  4 24  1  0
  5 25  1  0
  5 26  1  0
  6 27  1  0
  6 28  1  0
  7 29  1  0
  8 30  1  0
 11 31  1  0
 13 32  1  0
 13 33  1  0
 13 34  1  0
 14 35  1  0
 14 36  1  0
 16 37  1  0
 18 38  1  0
M  ISO  8  20  13  21  13  22  13  23  13  24  13  25  13  26  13  27  13
M  ISO  8  28  13  29  14  30  14  31  14  32   8  33   8  34   8  35   8
M  ISO  3  36   8  37  14  38  14
M  END
>  <minimizedAffinity>  (1) 
-4.35294867

>  <minimizedRMSD>  (1) 
1.62612307

$$$$
