
     RDKit          3D

 33 36  0  0  0  0  0  0  0  0999 V2000
   37.6480   27.0050   35.1230 C   0  0  0  0  0  0  0  0  0  0  0  0
   37.8860   25.8290   34.3680 C   0  0  0  0  0  0  0  0  0  0  0  0
   37.3400   25.7710   33.0980 C   0  0  0  0  0  0  0  0  0  0  0  0
   36.6100   26.8280   32.6310 N   0  0  0  0  0  0  0  0  0  0  0  0
   36.4020   27.9220   33.3620 C   0  0  0  0  0  0  0  0  0  0  0  0
   36.9250   28.0030   34.6080 N   0  0  0  0  0  0  0  0  0  0  0  0
   35.6310   28.9860   32.8130 N   0  0  0  0  0  0  0  0  0  0  0  0
   34.8160   29.8200   33.4900 C   0  0  0  0  0  0  0  0  0  0  0  0
   34.1400   30.8090   32.7740 C   0  0  0  0  0  0  0  0  0  0  0  0
   34.3010   30.9290   31.4070 C   0  0  0  0  0  0  0  0  0  0  0  0
   33.6640   31.8460   30.7880 O   0  0  0  0  0  0  0  0  0  0  0  0
   35.1290   30.0670   30.7800 N   0  0  0  0  0  0  0  0  0  0  0  0
   35.7870   29.1080   31.4660 C   0  0  0  0  0  0  0  0  0  0  0  0
   36.5280   28.3690   30.7600 O   0  0  0  0  0  0  0  0  0  0  0  0
   38.6640   24.8110   34.9710 N   0  0  0  0  0  0  0  0  0  0  0  0
   39.6250   24.0910   34.3040 C   0  0  0  0  0  0  0  0  0  0  0  0
   40.1690   23.2070   35.1880 N   0  0  0  0  0  0  0  0  0  0  0  0
   39.5640   23.3710   36.3700 C   0  0  0  0  0  0  0  0  0  0  0  0
   39.6460   22.8140   37.6260 C   0  0  0  0  0  0  0  0  0  0  0  0
   38.8870   23.1830   38.6850 N   0  0  0  0  0  0  0  0  0  0  0  0
   37.9710   24.1790   38.5070 C   0  0  0  0  0  0  0  0  0  0  0  0
   37.8710   24.7390   37.2850 N   0  0  0  0  0  0  0  0  0  0  0  0
   38.6220   24.3690   36.2530 C   0  0  0  0  0  0  0  0  0  0  0  0
   40.5960   21.7660   37.8540 N   0  0  0  0  0  0  0  0  0  0  0  0
   38.0610   27.0961   36.1385 H   0  0  0  0  0  0  0  0  0  0  0  0
   37.4922   24.8814   32.4692 H   0  0  0  0  0  0  0  0  0  0  0  0
   34.6873   29.7234   34.5782 H   0  0  0  0  0  0  0  0  0  0  0  0
   33.4705   31.5018   33.3048 H   0  0  0  0  0  0  0  0  0  0  0  0
   35.2611   30.1420   29.7613 H   0  0  0  0  0  0  0  0  0  0  0  0
   39.9053   24.2068   33.2466 H   0  0  0  0  0  0  0  0  0  0  0  0
   37.3325   24.5152   39.3372 H   0  0  0  0  0  0  0  0  0  0  0  0
   40.6738   21.3353   38.7864 H   0  0  0  0  0  0  0  0  0  0  0  0
   41.2011   21.4433   37.0855 H   0  0  0  0  0  0  0  0  0  0  0  0
  2 15  1  0
  2  1  2  0
  3  2  1  0
  4  3  2  0
  4  5  1  0
  5  6  2  0
  6  1  1  0
  7  5  1  0
  7  8  1  0
  9  8  2  0
 10  9  1  0
 11 10  2  0
 12 10  1  0
 12 13  1  0
 13  7  1  0
 14 13  2  0
 15 23  1  0
 16 15  1  0
 16 17  2  0
 17 18  1  0
 18 19  2  0
 19 24  1  0
 19 20  1  0
 21 20  2  0
 22 21  1  0
 23 18  1  0
 23 22  2  0
  1 25  1  0
  3 26  1  0
  8 27  1  0
  9 28  1  0
 12 29  1  0
 16 30  1  0
 21 31  1  0
 24 32  1  0
 24 33  1  0
M  ISO  7  25  14  26  14  27  14  28  14  29   9  30  14  31  14
M  END
>  <minimizedAffinity>  (1) 
-6.77785873

>  <minimizedRMSD>  (1) 
1.09228933

$$$$
