
     RDKit          3D

 34 35  0  0  1  0  0  0  0  0999 V2000
   38.3430   23.4580   36.4420 C   0  0  2  0  0  0  0  0  0  0  0  0
   37.6480   22.2390   35.9310 C   0  0  0  0  0  0  0  0  0  0  0  0
   37.4980   22.1040   34.4720 C   0  0  0  0  0  0  0  0  0  0  0  0
   36.3580   21.0900   34.3190 C   0  0  0  0  0  0  0  0  0  0  0  0
   35.9890   20.6790   35.7400 C   0  0  0  0  0  0  0  0  0  0  0  0
   36.2440   22.0420   36.4350 C   0  0  0  0  0  0  0  0  0  0  0  0
   41.5950   21.7310   37.2370 C   0  0  0  0  0  0  0  0  0  0  0  0
   40.2400   22.0540   37.2110 C   0  0  0  0  0  0  0  0  0  0  0  0
   39.7690   23.1250   36.4640 C   0  0  0  0  0  0  0  0  0  0  0  0
   40.7310   23.8040   35.7840 N   0  0  0  0  0  0  0  0  0  0  0  0
   42.0320   23.5060   35.8010 C   0  0  0  0  0  0  0  0  0  0  0  0
   42.4650   22.4560   36.5370 N   0  0  0  0  0  0  0  0  0  0  0  0
   37.8080   23.7180   37.8790 C   0  0  0  0  0  0  0  0  0  0  0  0
   38.0430   24.6980   35.6770 C   0  0  0  0  0  0  0  0  0  0  0  0
   38.3070   25.8530   36.4950 N   0  0  0  0  0  0  0  0  0  0  0  0
   38.3596   21.4972   36.3226 H   0  0  0  0  0  0  0  0  0  0  0  0
   37.2306   23.0676   34.0138 H   0  0  0  0  0  0  0  0  0  0  0  0
   38.4252   21.7829   33.9749 H   0  0  0  0  0  0  0  0  0  0  0  0
   35.4961   21.5528   33.8160 H   0  0  0  0  0  0  0  0  0  0  0  0
   36.6580   20.2260   33.7079 H   0  0  0  0  0  0  0  0  0  0  0  0
   34.9394   20.3600   35.8218 H   0  0  0  0  0  0  0  0  0  0  0  0
   36.5379   19.8187   36.1506 H   0  0  0  0  0  0  0  0  0  0  0  0
   36.1957   21.9717   37.5317 H   0  0  0  0  0  0  0  0  0  0  0  0
   35.5252   22.8471   36.2228 H   0  0  0  0  0  0  0  0  0  0  0  0
   41.9458   20.8774   37.8356 H   0  0  0  0  0  0  0  0  0  0  0  0
   39.5298   21.4488   37.7935 H   0  0  0  0  0  0  0  0  0  0  0  0
   42.7465   24.1090   35.2214 H   0  0  0  0  0  0  0  0  0  0  0  0
   38.5437   23.3605   38.6144 H   0  0  0  0  0  0  0  0  0  0  0  0
   37.6435   24.7965   38.0195 H   0  0  0  0  0  0  0  0  0  0  0  0
   36.8584   23.1809   38.0195 H   0  0  0  0  0  0  0  0  0  0  0  0
   38.6764   24.7347   34.7784 H   0  0  0  0  0  0  0  0  0  0  0  0
   36.9827   24.6958   35.3840 H   0  0  0  0  0  0  0  0  0  0  0  0
   38.2470   25.5906   37.4892 H   0  0  0  0  0  0  0  0  0  0  0  0
   39.2513   26.2100   36.2905 H   0  0  0  0  0  0  0  0  0  0  0  0
  1 14  1  6
  1  9  1  0
  1 13  1  0
  2  6  1  0
  2  1  1  0
  3  2  1  0
  4  3  1  0
  4  5  1  0
  5  6  1  0
  8  7  2  0
  9  8  1  0
 10 11  1  0
 10  9  2  0
 11 12  2  0
 12  7  1  0
 14 15  1  0
  2 16  1  0
  3 17  1  0
  3 18  1  0
  4 19  1  0
  4 20  1  0
  5 21  1  0
  5 22  1  0
  6 23  1  0
  6 24  1  0
  7 25  1  0
  8 26  1  0
 11 27  1  0
 13 28  1  0
 13 29  1  0
 13 30  1  0
 14 31  1  0
 14 32  1  0
 15 33  1  0
 15 34  1  0
M  ISO  8  16  13  17  13  18  13  19  13  20  13  21  13  22  13  23  13
M  ISO  8  24  13  25  14  26  14  27  14  28   8  29   8  30   8  31   8
M  ISO  3  32   8  33   5  34   5
M  END
>  <minimizedAffinity>  (1) 
-3.62898922

>  <minimizedRMSD>  (1) 
0.366185099

$$$$
