
     RDKit          3D

 34 37  0  0  0  0  0  0  0  0999 V2000
   37.5950   26.8750   34.9470 C   0  0  0  0  0  0  0  0  0  0  0  0
   38.0140   25.7620   34.1970 C   0  0  0  0  0  0  0  0  0  0  0  0
   37.6610   25.7110   32.8590 C   0  0  0  0  0  0  0  0  0  0  0  0
   36.9220   26.7490   32.3420 N   0  0  0  0  0  0  0  0  0  0  0  0
   36.5400   27.7950   33.0860 C   0  0  0  0  0  0  0  0  0  0  0  0
   36.8820   27.8510   34.3930 N   0  0  0  0  0  0  0  0  0  0  0  0
   35.7770   28.8380   32.4900 N   0  0  0  0  0  0  0  0  0  0  0  0
   34.6060   29.1910   33.0710 C   0  0  0  0  0  0  0  0  0  0  0  0
   33.9350   30.2100   32.4260 C   0  0  0  0  0  0  0  0  0  0  0  0
   34.3480   30.8650   31.2850 C   0  0  0  0  0  0  0  0  0  0  0  0
   33.5270   31.9060   30.7430 N   0  0  0  0  0  0  0  0  0  0  0  0
   35.5370   30.4650   30.7450 N   0  0  0  0  0  0  0  0  0  0  0  0
   36.2060   29.4630   31.3720 C   0  0  0  0  0  0  0  0  0  0  0  0
   37.3150   29.0890   30.8690 O   0  0  0  0  0  0  0  0  0  0  0  0
   38.7730   24.7610   34.8640 N   0  0  0  0  0  0  0  0  0  0  0  0
   39.7750   24.0290   34.2760 C   0  0  0  0  0  0  0  0  0  0  0  0
   40.2760   23.1720   35.2080 N   0  0  0  0  0  0  0  0  0  0  0  0
   39.6080   23.3600   36.3470 C   0  0  0  0  0  0  0  0  0  0  0  0
   39.6370   22.8240   37.6140 C   0  0  0  0  0  0  0  0  0  0  0  0
   38.8130   23.2120   38.6280 N   0  0  0  0  0  0  0  0  0  0  0  0
   37.8930   24.2000   38.3780 C   0  0  0  0  0  0  0  0  0  0  0  0
   37.8540   24.7340   37.1450 N   0  0  0  0  0  0  0  0  0  0  0  0
   38.6610   24.3510   36.1570 C   0  0  0  0  0  0  0  0  0  0  0  0
   40.5680   21.7960   37.9350 N   0  0  0  0  0  0  0  0  0  0  0  0
   37.8621   26.9395   36.0121 H   0  0  0  0  0  0  0  0  0  0  0  0
   37.9635   24.8631   32.2268 H   0  0  0  0  0  0  0  0  0  0  0  0
   34.2218   28.7063   33.9807 H   0  0  0  0  0  0  0  0  0  0  0  0
   32.9784   30.5306   32.8644 H   0  0  0  0  0  0  0  0  0  0  0  0
   33.8225   32.4041   29.8913 H   0  0  0  0  0  0  0  0  0  0  0  0
   32.6411   32.1565   31.2050 H   0  0  0  0  0  0  0  0  0  0  0  0
   40.1140   24.1192   33.2334 H   0  0  0  0  0  0  0  0  0  0  0  0
   37.2066   24.5452   39.1652 H   0  0  0  0  0  0  0  0  0  0  0  0
   40.5873   21.3967   38.8843 H   0  0  0  0  0  0  0  0  0  0  0  0
   41.2223   21.4515   37.2180 H   0  0  0  0  0  0  0  0  0  0  0  0
  2 15  1  0
  2  1  2  0
  3  2  1  0
  4  3  2  0
  4  5  1  0
  5  6  2  0
  6  1  1  0
  7  8  1  0
  7  5  1  0
  9  8  2  0
 10  9  1  0
 11 10  1  0
 12 10  2  0
 12 13  1  0
 13  7  1  0
 14 13  2  0
 15 23  1  0
 16 15  1  0
 16 17  2  0
 17 18  1  0
 18 19  2  0
 19 24  1  0
 19 20  1  0
 21 20  2  0
 22 21  1  0
 23 18  1  0
 23 22  2  0
  1 25  1  0
  3 26  1  0
  8 27  1  0
  9 28  1  0
 11 29  1  0
 11 30  1  0
 16 31  1  0
 21 32  1  0
 24 33  1  0
 24 34  1  0
M  ISO  6  25  14  26  14  27  14  28  14  31  14  32  14
M  END
>  <minimizedAffinity>  (1) 
-6.74813557

>  <minimizedRMSD>  (1) 
0.885907054

$$$$
