
     RDKit          3D

 37 41  0  0  0  0  0  0  0  0999 V2000
   37.9470   26.7510   34.4260 C   0  0  0  0  0  0  0  0  0  0  0  0
   37.9470   25.4310   33.9510 C   0  0  0  0  0  0  0  0  0  0  0  0
   37.1840   25.1650   32.8320 C   0  0  0  0  0  0  0  0  0  0  0  0
   36.4760   26.1760   32.2480 N   0  0  0  0  0  0  0  0  0  0  0  0
   36.4920   27.4140   32.7180 C   0  0  0  0  0  0  0  0  0  0  0  0
   37.2210   27.6790   33.7880 N   0  0  0  0  0  0  0  0  0  0  0  0
   35.8040   28.6410   32.2420 C   0  0  0  0  0  0  0  0  0  0  0  0
   34.6300   29.0730   32.7290 N   0  0  0  0  0  0  0  0  0  0  0  0
   34.0310   30.1750   32.2880 C   0  0  0  0  0  0  0  0  0  0  0  0
   34.5520   30.9540   31.3130 N   0  0  0  0  0  0  0  0  0  0  0  0
   35.7480   30.5890   30.7600 C   0  0  0  0  0  0  0  0  0  0  0  0
   36.2590   31.3940   29.7700 C   0  0  0  0  0  0  0  0  0  0  0  0
   37.4620   31.0520   29.1920 C   0  0  0  0  0  0  0  0  0  0  0  0
   38.0940   29.8960   29.6520 C   0  0  0  0  0  0  0  0  0  0  0  0
   37.5140   29.1600   30.6350 C   0  0  0  0  0  0  0  0  0  0  0  0
   36.3270   29.4410   31.2500 C   0  0  0  0  0  0  0  0  0  0  0  0
   38.7150   24.4700   34.6650 N   0  0  0  0  0  0  0  0  0  0  0  0
   39.6600   23.6740   34.1180 C   0  0  0  0  0  0  0  0  0  0  0  0
   40.1820   22.8900   35.1070 N   0  0  0  0  0  0  0  0  0  0  0  0
   39.5720   23.1920   36.2440 C   0  0  0  0  0  0  0  0  0  0  0  0
   39.6380   22.7750   37.5580 C   0  0  0  0  0  0  0  0  0  0  0  0
   38.8590   23.2810   38.5680 N   0  0  0  0  0  0  0  0  0  0  0  0
   37.9660   24.2520   38.2640 C   0  0  0  0  0  0  0  0  0  0  0  0
   37.8680   24.6890   36.9980 N   0  0  0  0  0  0  0  0  0  0  0  0
   38.6380   24.1850   36.0090 C   0  0  0  0  0  0  0  0  0  0  0  0
   40.5560   21.7640   37.9360 N   0  0  0  0  0  0  0  0  0  0  0  0
   38.5374   27.0216   35.3138 H   0  0  0  0  0  0  0  0  0  0  0  0
   37.1466   24.1480   32.4145 H   0  0  0  0  0  0  0  0  0  0  0  0
   33.0694   30.4659   32.7359 H   0  0  0  0  0  0  0  0  0  0  0  0
   35.7175   32.2947   29.4452 H   0  0  0  0  0  0  0  0  0  0  0  0
   37.9080   31.6677   28.3970 H   0  0  0  0  0  0  0  0  0  0  0  0
   39.0563   29.5827   29.2209 H   0  0  0  0  0  0  0  0  0  0  0  0
   38.0478   28.2568   30.9656 H   0  0  0  0  0  0  0  0  0  0  0  0
   39.9575   23.6599   33.0591 H   0  0  0  0  0  0  0  0  0  0  0  0
   37.3250   24.6801   39.0487 H   0  0  0  0  0  0  0  0  0  0  0  0
   40.6048   21.4532   38.9168 H   0  0  0  0  0  0  0  0  0  0  0  0
   41.1745   21.3399   37.2300 H   0  0  0  0  0  0  0  0  0  0  0  0
  2  1  2  0
  2 17  1  0
  3  2  1  0
  4  5  1  0
  4  3  2  0
  5  6  2  0
  6  1  1  0
  7  5  1  0
  7  8  2  0
  9  8  1  0
 10  9  2  0
 11 16  2  0
 11 10  1  0
 12 11  1  0
 13 14  1  0
 13 12  2  0
 14 15  2  0
 15 16  1  0
 16  7  1  0
 17 25  1  0
 18 17  1  0
 18 19  2  0
 19 20  1  0
 20 21  2  0
 21 26  1  0
 21 22  1  0
 23 22  2  0
 24 23  1  0
 25 20  1  0
 25 24  2  0
  1 27  1  0
  3 28  1  0
  9 29  1  0
 12 30  1  0
 13 31  1  0
 14 32  1  0
 15 33  1  0
 18 34  1  0
 23 35  1  0
 26 36  1  0
 26 37  1  0
M  ISO  8  27  14  28  14  29  14  30  14  31  14  32  14  33  14  34  14
M  ISO  1  35  14
M  END
>  <minimizedAffinity>  (1) 
-6.62126207

>  <minimizedRMSD>  (1) 
0.599821687

$$$$
