
     RDKit          3D

 40 42  0  0  1  0  0  0  0  0999 V2000
   38.5670   23.0680   36.0130 C   0  0  2  0  0  0  0  0  0  0  0  0
   37.5720   21.9630   35.7980 C   0  0  0  0  0  0  0  0  0  0  0  0
   37.1150   21.7520   34.4000 C   0  0  0  0  0  0  0  0  0  0  0  0
   35.8810   20.8460   34.6170 C   0  0  0  0  0  0  0  0  0  0  0  0
   35.6800   20.7380   36.1210 C   0  0  0  0  0  0  0  0  0  0  0  0
   36.2880   22.0970   36.5400 C   0  0  0  0  0  0  0  0  0  0  0  0
   41.6740   21.4460   37.4300 C   0  0  0  0  0  0  0  0  0  0  0  0
   40.4230   22.0630   37.3470 C   0  0  0  0  0  0  0  0  0  0  0  0
   39.8800   22.4190   36.1190 C   0  0  0  0  0  0  0  0  0  0  0  0
   40.6750   22.1100   35.0410 N   0  0  0  0  0  0  0  0  0  0  0  0
   41.8640   21.5220   35.1330 C   0  0  0  0  0  0  0  0  0  0  0  0
   42.3680   21.1880   36.3280 N   0  0  0  0  0  0  0  0  0  0  0  0
   38.1900   23.7320   37.3660 C   0  0  0  0  0  0  0  0  0  0  0  0
   38.5590   24.1460   35.0240 C   0  0  0  0  0  0  0  0  0  0  0  0
   38.0090   25.6870   35.8420 S   0  0  0  0  0  0  0  0  0  0  0  0
   37.2600   26.6700   34.5310 C   0  0  0  0  0  0  0  0  0  0  0  0
   37.0750   26.3120   33.1920 C   0  0  0  0  0  0  0  0  0  0  0  0
   36.4810   27.3660   32.6140 N   0  0  0  0  0  0  0  0  0  0  0  0
   36.3010   28.3320   33.5310 C   0  0  0  0  0  0  0  0  0  0  0  0
   36.7850   27.9040   34.7290 N   0  0  0  0  0  0  0  0  0  0  0  0
   38.1907   21.1299   36.1630 H   0  0  0  0  0  0  0  0  0  0  0  0
   37.8840   21.2470   33.7970 H   0  0  0  0  0  0  0  0  0  0  0  0
   36.9004   22.6811   33.8516 H   0  0  0  0  0  0  0  0  0  0  0  0
   34.9935   21.2945   34.1467 H   0  0  0  0  0  0  0  0  0  0  0  0
   36.0323   19.8547   34.1649 H   0  0  0  0  0  0  0  0  0  0  0  0
   34.6165   20.6603   36.3912 H   0  0  0  0  0  0  0  0  0  0  0  0
   36.1251   19.8518   36.5970 H   0  0  0  0  0  0  0  0  0  0  0  0
   36.4371   22.1732   37.6272 H   0  0  0  0  0  0  0  0  0  0  0  0
   35.6864   22.9917   36.3220 H   0  0  0  0  0  0  0  0  0  0  0  0
   42.0856   21.1728   38.4128 H   0  0  0  0  0  0  0  0  0  0  0  0
   39.8593   22.2701   38.2686 H   0  0  0  0  0  0  0  0  0  0  0  0
   42.4386   21.3080   34.2197 H   0  0  0  0  0  0  0  0  0  0  0  0
   38.5470   23.1033   38.1950 H   0  0  0  0  0  0  0  0  0  0  0  0
   38.6591   24.7249   37.4305 H   0  0  0  0  0  0  0  0  0  0  0  0
   37.0970   23.8380   37.4305 H   0  0  0  0  0  0  0  0  0  0  0  0
   39.5720   24.2835   34.6180 H   0  0  0  0  0  0  0  0  0  0  0  0
   37.8752   23.8940   34.2000 H   0  0  0  0  0  0  0  0  0  0  0  0
   37.3579   25.3632   32.7126 H   0  0  0  0  0  0  0  0  0  0  0  0
   35.8369   29.3115   33.3434 H   0  0  0  0  0  0  0  0  0  0  0  0
   36.7853   28.4286   35.6154 H   0  0  0  0  0  0  0  0  0  0  0  0
  1 14  1  6
  1  9  1  0
  1 13  1  0
  2  1  1  0
  2  6  1  0
  3  4  1  0
  3  2  1  0
  4  5  1  0
  5  6  1  0
  8  7  2  0
  9  8  1  0
 10 11  1  0
 10  9  2  0
 11 12  2  0
 12  7  1  0
 14 15  1  0
 16 20  1  0
 16 15  1  0
 17 16  2  0
 18 17  1  0
 18 19  2  0
 19 20  1  0
  2 21  1  0
  3 22  1  0
  3 23  1  0
  4 24  1  0
  4 25  1  0
  5 26  1  0
  5 27  1  0
  6 28  1  0
  6 29  1  0
  7 30  1  0
  8 31  1  0
 11 32  1  0
 13 33  1  0
 13 34  1  0
 13 35  1  0
 14 36  1  0
 14 37  1  0
 17 38  1  0
 19 39  1  0
 20 40  1  0
M  ISO  8  21  13  22  13  23  13  24  13  25  13  26  13  27  13  28  13
M  ISO  8  29  13  30  14  31  14  32  14  33   8  34   8  35   8  36   8
M  ISO  4  37   8  38  14  39  14  40   9
M  END
>  <minimizedAffinity>  (1) 
-4.51863194

>  <minimizedRMSD>  (1) 
0.804667473

$$$$
