
     RDKit          3D

 38 40  0  0  1  0  0  0  0  0999 V2000
   38.7710   23.0660   36.0790 C   0  0  2  0  0  0  0  0  0  0  0  0
   37.7440   22.0000   35.8180 C   0  0  0  0  0  0  0  0  0  0  0  0
   37.2880   21.8620   34.4030 C   0  0  0  0  0  0  0  0  0  0  0  0
   36.0390   20.9690   34.5720 C   0  0  0  0  0  0  0  0  0  0  0  0
   35.8150   20.8180   36.0580 C   0  0  0  0  0  0  0  0  0  0  0  0
   36.4480   22.1410   36.5470 C   0  0  0  0  0  0  0  0  0  0  0  0
   41.8600   21.3220   37.3760 C   0  0  0  0  0  0  0  0  0  0  0  0
   40.6250   21.9770   37.3410 C   0  0  0  0  0  0  0  0  0  0  0  0
   40.0640   22.3780   36.1360 C   0  0  0  0  0  0  0  0  0  0  0  0
   40.8190   22.0770   35.0310 N   0  0  0  0  0  0  0  0  0  0  0  0
   41.9970   21.4520   35.0710 C   0  0  0  0  0  0  0  0  0  0  0  0
   42.5180   21.0740   36.2510 N   0  0  0  0  0  0  0  0  0  0  0  0
   38.4190   23.6630   37.4730 C   0  0  0  0  0  0  0  0  0  0  0  0
   38.7760   24.2020   35.1540 C   0  0  0  0  0  0  0  0  0  0  0  0
   38.1170   25.6660   36.0270 S   0  0  0  0  0  0  0  0  0  0  0  0
   37.3360   26.7540   34.8330 C   0  0  0  0  0  0  0  0  0  0  0  0
   37.1530   26.2010   33.6050 N   0  0  0  0  0  0  0  0  0  0  0  0
   36.5840   27.0720   32.8250 O   0  0  0  0  0  0  0  0  0  0  0  0
   36.3790   28.1800   33.4840 C   0  0  0  0  0  0  0  0  0  0  0  0
   36.8440   28.0030   34.7480 N   0  0  0  0  0  0  0  0  0  0  0  0
   38.3363   21.1400   36.1638 H   0  0  0  0  0  0  0  0  0  0  0  0
   38.0513   21.3728   33.7800 H   0  0  0  0  0  0  0  0  0  0  0  0
   37.0918   22.8193   33.8980 H   0  0  0  0  0  0  0  0  0  0  0  0
   35.1655   21.4453   34.1029 H   0  0  0  0  0  0  0  0  0  0  0  0
   36.1828   19.9903   34.0908 H   0  0  0  0  0  0  0  0  0  0  0  0
   34.7454   20.7579   36.3078 H   0  0  0  0  0  0  0  0  0  0  0  0
   36.2352   19.9047   36.5045 H   0  0  0  0  0  0  0  0  0  0  0  0
   36.5795   22.1668   37.6388 H   0  0  0  0  0  0  0  0  0  0  0  0
   35.8745   23.0609   36.3602 H   0  0  0  0  0  0  0  0  0  0  0  0
   42.2878   21.0110   38.3405 H   0  0  0  0  0  0  0  0  0  0  0  0
   40.0905   22.1773   38.2813 H   0  0  0  0  0  0  0  0  0  0  0  0
   42.5421   21.2460   34.1380 H   0  0  0  0  0  0  0  0  0  0  0  0
   38.8078   23.0037   38.2630 H   0  0  0  0  0  0  0  0  0  0  0  0
   38.8739   24.6598   37.5705 H   0  0  0  0  0  0  0  0  0  0  0  0
   37.3266   23.7474   37.5705 H   0  0  0  0  0  0  0  0  0  0  0  0
   39.8042   24.4022   34.8182 H   0  0  0  0  0  0  0  0  0  0  0  0
   38.1529   23.9753   34.2763 H   0  0  0  0  0  0  0  0  0  0  0  0
   35.9130   29.0938   33.0867 H   0  0  0  0  0  0  0  0  0  0  0  0
  1 14  1  6
  1  9  1  0
  1 13  1  0
  2  1  1  0
  2  6  1  0
  3  4  1  0
  3  2  1  0
  4  5  1  0
  5  6  1  0
  8  7  2  0
  9  8  1  0
 10 11  1  0
 10  9  2  0
 11 12  2  0
 12  7  1  0
 14 15  1  0
 16 15  1  0
 17 16  2  0
 18 19  1  0
 18 17  1  0
 19 20  2  0
 20 16  1  0
  2 21  1  0
  3 22  1  0
  3 23  1  0
  4 24  1  0
  4 25  1  0
  5 26  1  0
  5 27  1  0
  6 28  1  0
  6 29  1  0
  7 30  1  0
  8 31  1  0
 11 32  1  0
 13 33  1  0
 13 34  1  0
 13 35  1  0
 14 36  1  0
 14 37  1  0
 19 38  1  0
M  ISO  8  21  13  22  13  23  13  24  13  25  13  26  13  27  13  28  13
M  ISO  8  29  13  30  14  31  14  32  14  33   8  34   8  35   8  36   8
M  ISO  2  37   8  38  14
M  END
>  <minimizedAffinity>  (1) 
-4.5213995

>  <minimizedRMSD>  (1) 
0.710960865

$$$$
