
     RDKit          3D

 36 39  0  0  0  0  0  0  0  0999 V2000
   37.7200   26.9680   35.0450 C   0  0  0  0  0  0  0  0  0  0  0  0
   37.9180   25.7550   34.3240 C   0  0  0  0  0  0  0  0  0  0  0  0
   37.3320   25.6270   33.0710 C   0  0  0  0  0  0  0  0  0  0  0  0
   36.5930   26.6820   32.5970 N   0  0  0  0  0  0  0  0  0  0  0  0
   36.4170   27.8160   33.2870 C   0  0  0  0  0  0  0  0  0  0  0  0
   36.9840   27.9490   34.5070 N   0  0  0  0  0  0  0  0  0  0  0  0
   38.7080   24.7530   34.9460 N   0  0  0  0  0  0  0  0  0  0  0  0
   39.6880   24.0390   34.3130 C   0  0  0  0  0  0  0  0  0  0  0  0
   40.2280   23.1720   35.2240 N   0  0  0  0  0  0  0  0  0  0  0  0
   39.6010   23.3450   36.3820 C   0  0  0  0  0  0  0  0  0  0  0  0
   39.6770   22.7950   37.6460 C   0  0  0  0  0  0  0  0  0  0  0  0
   38.8900   23.1680   38.6870 N   0  0  0  0  0  0  0  0  0  0  0  0
   37.9680   24.1390   38.4820 C   0  0  0  0  0  0  0  0  0  0  0  0
   37.8650   24.6980   37.2640 N   0  0  0  0  0  0  0  0  0  0  0  0
   38.6410   24.3290   36.2460 C   0  0  0  0  0  0  0  0  0  0  0  0
   40.6290   21.7640   37.9010 N   0  0  0  0  0  0  0  0  0  0  0  0
   34.0910   30.9230   31.6550 C   0  0  0  0  0  0  0  0  0  0  0  0
   35.2660   30.5240   31.0490 C   0  0  0  0  0  0  0  0  0  0  0  0
   36.0540   29.5120   31.5520 C   0  0  0  0  0  0  0  0  0  0  0  0
   35.6160   28.8950   32.7140 C   0  0  0  0  0  0  0  0  0  0  0  0
   34.4520   29.2440   33.3700 C   0  0  0  0  0  0  0  0  0  0  0  0
   33.7110   30.2730   32.8030 C   0  0  0  0  0  0  0  0  0  0  0  0
   33.1460   32.2240   30.9430 S   0  0  0  0  0  0  0  0  0  0  0  0
   31.9400   31.6600   30.2390 O   0  0  0  0  0  0  0  0  0  0  0  0
   34.0310   32.9660   29.9890 O   0  0  0  0  0  0  0  0  0  0  0  0
   38.1702   27.0982   36.0402 H   0  0  0  0  0  0  0  0  0  0  0  0
   37.4563   24.7092   32.4775 H   0  0  0  0  0  0  0  0  0  0  0  0
   39.9884   24.1430   33.2599 H   0  0  0  0  0  0  0  0  0  0  0  0
   37.3118   24.4659   39.3021 H   0  0  0  0  0  0  0  0  0  0  0  0
   40.6958   21.3454   38.8397 H   0  0  0  0  0  0  0  0  0  0  0  0
   41.2497   21.4381   37.1464 H   0  0  0  0  0  0  0  0  0  0  0  0
   35.5854   31.0343   30.1284 H   0  0  0  0  0  0  0  0  0  0  0  0
   36.9870   29.2077   31.0551 H   0  0  0  0  0  0  0  0  0  0  0  0
   34.1295   28.7353   34.2905 H   0  0  0  0  0  0  0  0  0  0  0  0
   32.7773   30.5811   33.2962 H   0  0  0  0  0  0  0  0  0  0  0  0
   32.6928   33.0808   31.9112 H   0  0  0  0  0  0  0  0  0  0  0  0
  2  7  1  0
  2  1  2  0
  3  2  1  0
  4  3  2  0
  4  5  1  0
  5  6  2  0
  6  1  1  0
  7 15  1  0
  8  7  1  0
  8  9  2  0
  9 10  1  0
 10 11  2  0
 11 16  1  0
 11 12  1  0
 13 12  2  0
 14 13  1  0
 15 10  1  0
 15 14  2  0
 17 22  2  0
 18 19  2  0
 18 17  1  0
 19 20  1  0
 20  5  1  0
 20 21  2  0
 22 21  1  0
 23 17  1  0
 24 23  2  0
 25 23  2  0
  1 26  1  0
  3 27  1  0
  8 28  1  0
 13 29  1  0
 16 30  1  0
 16 31  1  0
 18 32  1  0
 19 33  1  0
 21 34  1  0
 22 35  1  0
 23 36  1  0
M  ISO  8  26  14  27  14  28  14  29  14  32  14  33  14  34  14  35  14
M  ISO  1  36  11
M  END
>  <minimizedAffinity>  (1) 
-6.23515654

>  <minimizedRMSD>  (1) 
0.999122322

$$$$
