
     RDKit          3D

 37 40  0  0  0  0  0  0  0  0999 V2000
   37.7420   26.8680   34.7150 C   0  0  0  0  0  0  0  0  0  0  0  0
   37.9070   25.6130   34.0780 C   0  0  0  0  0  0  0  0  0  0  0  0
   37.3010   25.4200   32.8400 C   0  0  0  0  0  0  0  0  0  0  0  0
   36.5780   26.4410   32.2950 N   0  0  0  0  0  0  0  0  0  0  0  0
   36.4400   27.6160   32.9220 C   0  0  0  0  0  0  0  0  0  0  0  0
   37.0140   27.8190   34.1080 N   0  0  0  0  0  0  0  0  0  0  0  0
   35.6790   28.6590   32.3250 N   0  0  0  0  0  0  0  0  0  0  0  0
   34.4940   29.2440   32.9560 C   0  0  0  0  0  0  0  0  0  0  0  0
   34.3620   30.6780   32.5110 C   0  0  0  0  0  0  0  0  0  0  0  0
   35.6510   31.2910   32.2760 N   0  0  0  0  0  0  0  0  0  0  0  0
   36.4340   30.6580   31.2600 C   0  0  0  0  0  0  0  0  0  0  0  0
   36.0270   29.2200   31.0350 C   0  0  0  0  0  0  0  0  0  0  0  0
   38.6890   24.6260   34.7530 N   0  0  0  0  0  0  0  0  0  0  0  0
   39.6520   23.8630   34.1720 C   0  0  0  0  0  0  0  0  0  0  0  0
   40.1720   23.0450   35.1300 N   0  0  0  0  0  0  0  0  0  0  0  0
   39.5480   23.2930   36.2790 C   0  0  0  0  0  0  0  0  0  0  0  0
   39.6130   22.8160   37.5730 C   0  0  0  0  0  0  0  0  0  0  0  0
   38.8350   23.2560   38.5920 N   0  0  0  0  0  0  0  0  0  0  0  0
   37.9270   24.2370   38.3260 C   0  0  0  0  0  0  0  0  0  0  0  0
   37.8400   24.7200   37.0790 N   0  0  0  0  0  0  0  0  0  0  0  0
   38.6070   24.2830   36.0830 C   0  0  0  0  0  0  0  0  0  0  0  0
   40.5490   21.7910   37.8930 N   0  0  0  0  0  0  0  0  0  0  0  0
   38.2044   27.0607   35.6943 H   0  0  0  0  0  0  0  0  0  0  0  0
   37.4031   24.4614   32.3102 H   0  0  0  0  0  0  0  0  0  0  0  0
   33.5989   28.6800   32.6549 H   0  0  0  0  0  0  0  0  0  0  0  0
   34.5949   29.2011   34.0505 H   0  0  0  0  0  0  0  0  0  0  0  0
   33.7784   30.7088   31.5791 H   0  0  0  0  0  0  0  0  0  0  0  0
   33.8591   31.2387   33.3127 H   0  0  0  0  0  0  0  0  0  0  0  0
   35.4953   32.2705   31.9982 H   0  0  0  0  0  0  0  0  0  0  0  0
   36.3075   31.2129   30.3187 H   0  0  0  0  0  0  0  0  0  0  0  0
   37.4829   30.6630   31.5913 H   0  0  0  0  0  0  0  0  0  0  0  0
   35.1595   29.1764   30.3601 H   0  0  0  0  0  0  0  0  0  0  0  0
   36.8489   28.6522   30.5745 H   0  0  0  0  0  0  0  0  0  0  0  0
   39.9575   23.8993   33.1159 H   0  0  0  0  0  0  0  0  0  0  0  0
   37.2757   24.6262   39.1225 H   0  0  0  0  0  0  0  0  0  0  0  0
   40.6060   21.4277   38.8551 H   0  0  0  0  0  0  0  0  0  0  0  0
   41.1688   21.4131   37.1623 H   0  0  0  0  0  0  0  0  0  0  0  0
  2  1  2  0
  2 13  1  0
  3  2  1  0
  4  3  2  0
  4  5  1  0
  5  6  2  0
  6  1  1  0
  7  5  1  0
  7  8  1  0
  9  8  1  0
 10  9  1  0
 11 10  1  0
 12 11  1  0
 12  7  1  0
 13 21  1  0
 14 13  1  0
 14 15  2  0
 15 16  1  0
 16 17  2  0
 17 22  1  0
 17 18  1  0
 19 18  2  0
 20 19  1  0
 21 16  1  0
 21 20  2  0
  1 23  1  0
  3 24  1  0
  8 25  1  0
  8 26  1  0
  9 27  1  0
  9 28  1  0
 10 29  1  0
 11 30  1  0
 11 31  1  0
 12 32  1  0
 12 33  1  0
 14 34  1  0
 19 35  1  0
 22 36  1  0
 22 37  1  0
M  ISO  8  23  14  24  14  25  13  26  13  27  13  28  13  29   5  30  13
M  ISO  5  31  13  32  13  33  13  34  14  35  14
M  END
>  <minimizedAffinity>  (1) 
-6.20846272

>  <minimizedRMSD>  (1) 
0.579899311

$$$$
