
     RDKit          3D

 39 42  0  0  1  0  0  0  0  0999 V2000
   37.2900   25.7780   34.1700 C   0  0  1  0  0  0  0  0  0  0  0  0
   38.1050   25.2380   35.2710 C   0  0  0  0  0  0  0  0  0  0  0  0
   38.4090   26.4310   36.1560 C   0  0  0  0  0  0  0  0  0  0  0  0
   37.9380   27.6540   35.4130 C   0  0  0  0  0  0  0  0  0  0  0  0
   37.8560   27.1810   33.9650 C   0  0  2  0  0  0  0  0  0  0  0  0
   37.0330   28.0490   33.1340 C   0  0  0  0  0  0  0  0  0  0  0  0
   35.8700   28.6930   33.4960 C   0  0  0  0  0  0  0  0  0  0  0  0
   35.1090   29.5030   32.6990 C   0  0  0  0  0  0  0  0  0  0  0  0
   35.5110   29.7190   31.4070 C   0  0  0  0  0  0  0  0  0  0  0  0
   36.6670   29.1070   30.9720 C   0  0  0  0  0  0  0  0  0  0  0  0
   37.0200   29.3640   29.6640 C   0  0  0  0  0  0  0  0  0  0  0  0
   38.1430   28.8060   29.1450 C   0  0  0  0  0  0  0  0  0  0  0  0
   38.9210   27.9870   29.9380 C   0  0  0  0  0  0  0  0  0  0  0  0
   38.5400   27.7550   31.2310 C   0  0  0  0  0  0  0  0  0  0  0  0
   37.4140   28.2860   31.8240 C   0  0  0  0  0  0  0  0  0  0  0  0
   36.4100   24.1420   30.9830 C   0  0  0  0  0  0  0  0  0  0  0  0
   37.6520   23.5640   30.5800 C   0  0  0  0  0  0  0  0  0  0  0  0
   38.7860   23.7290   31.4000 C   0  0  0  0  0  0  0  0  0  0  0  0
   38.6180   24.4440   32.5460 N   0  0  0  0  0  0  0  0  0  0  0  0
   37.4150   24.9820   32.8970 C   0  0  0  0  0  0  0  0  0  0  0  0
   36.3290   24.8240   32.1140 N   0  0  0  0  0  0  0  0  0  0  0  0
   36.2182   25.7526   34.4163 H   0  0  0  0  0  0  0  0  0  0  0  0
   37.5430   24.4752   35.8299 H   0  0  0  0  0  0  0  0  0  0  0  0
   39.0209   24.7501   34.9062 H   0  0  0  0  0  0  0  0  0  0  0  0
   37.8737   26.3393   37.1126 H   0  0  0  0  0  0  0  0  0  0  0  0
   39.4843   26.4938   36.3789 H   0  0  0  0  0  0  0  0  0  0  0  0
   36.9523   27.9797   35.7767 H   0  0  0  0  0  0  0  0  0  0  0  0
   38.6052   28.5186   35.5443 H   0  0  0  0  0  0  0  0  0  0  0  0
   38.8068   27.1950   33.4121 H   0  0  0  0  0  0  0  0  0  0  0  0
   35.5191   28.5407   34.5273 H   0  0  0  0  0  0  0  0  0  0  0  0
   34.1927   29.9716   33.0873 H   0  0  0  0  0  0  0  0  0  0  0  0
   34.9265   30.3640   30.7345 H   0  0  0  0  0  0  0  0  0  0  0  0
   36.3927   30.0199   29.0425 H   0  0  0  0  0  0  0  0  0  0  0  0
   38.4305   29.0046   28.1020 H   0  0  0  0  0  0  0  0  0  0  0  0
   39.8355   27.5269   29.5354 H   0  0  0  0  0  0  0  0  0  0  0  0
   39.1772   27.0981   31.8413 H   0  0  0  0  0  0  0  0  0  0  0  0
   35.5178   24.0199   30.3513 H   0  0  0  0  0  0  0  0  0  0  0  0
   37.7227   22.9965   29.6403 H   0  0  0  0  0  0  0  0  0  0  0  0
   39.7614   23.3001   31.1268 H   0  0  0  0  0  0  0  0  0  0  0  0
  1  2  1  0
  2  3  1  0
  4  3  1  0
  5  1  1  0
  5  4  1  0
  6  7  2  0
  6  5  1  0
  8  7  1  0
  9  8  2  0
 10  9  1  0
 10 15  2  0
 11 10  1  0
 12 11  2  0
 12 13  1  0
 13 14  2  0
 14 15  1  0
 15  6  1  0
 16 21  2  0
 17 16  1  0
 17 18  2  0
 18 19  1  0
 19 20  2  0
 20  1  1  0
 21 20  1  0
  1 22  1  1
  2 23  1  0
  2 24  1  0
  3 25  1  0
  3 26  1  0
  4 27  1  0
  4 28  1  0
  5 29  1  6
  7 30  1  0
  8 31  1  0
  9 32  1  0
 11 33  1  0
 12 34  1  0
 13 35  1  0
 14 36  1  0
 16 37  1  0
 17 38  1  0
 18 39  1  0
M  ISO  8  22  13  23  13  24  13  25  13  26  13  27  13  28  13  29  13
M  ISO  8  30  14  31  14  32  14  33  14  34  14  35  14  36  14  37  14
M  ISO  2  38  14  39  14
M  END
>  <minimizedAffinity>  (1) 
-5.43959188

>  <minimizedRMSD>  (1) 
7.02970314

$$$$
