
     RDKit          3D

 30 32  0  0  1  0  0  0  0  0999 V2000
   38.8590   25.2190   34.7000 C   0  0  1  0  0  0  0  0  0  0  0  0
   37.5630   25.7520   34.2550 C   0  0  0  0  0  0  0  0  0  0  0  0
   37.9070   26.9150   33.3420 C   0  0  0  0  0  0  0  0  0  0  0  0
   39.4040   27.1150   33.4400 C   0  0  0  0  0  0  0  0  0  0  0  0
   39.7560   26.4490   34.7580 C   0  0  2  0  0  0  0  0  0  0  0  0
   39.4260   22.7670   37.3940 C   0  0  0  0  0  0  0  0  0  0  0  0
   38.7120   23.3320   38.4970 C   0  0  0  0  0  0  0  0  0  0  0  0
   38.0390   24.5520   38.2950 C   0  0  0  0  0  0  0  0  0  0  0  0
   38.1090   25.1210   37.0600 N   0  0  0  0  0  0  0  0  0  0  0  0
   38.8040   24.5430   36.0370 C   0  0  0  0  0  0  0  0  0  0  0  0
   39.4560   23.3740   36.2090 N   0  0  0  0  0  0  0  0  0  0  0  0
   41.1980   26.1050   34.7030 C   0  0  0  0  0  0  0  0  0  0  0  0
   41.8220   24.8700   34.8850 C   0  0  0  0  0  0  0  0  0  0  0  0
   43.1530   25.0240   34.7450 N   0  0  0  0  0  0  0  0  0  0  0  0
   43.3650   26.3390   34.4790 C   0  0  0  0  0  0  0  0  0  0  0  0
   42.1850   26.9860   34.4540 N   0  0  0  0  0  0  0  0  0  0  0  0
   39.2179   24.4355   34.0165 H   0  0  0  0  0  0  0  0  0  0  0  0
   36.9974   24.9844   33.7064 H   0  0  0  0  0  0  0  0  0  0  0  0
   36.9330   26.0641   35.1010 H   0  0  0  0  0  0  0  0  0  0  0  0
   37.3806   27.8234   33.6701 H   0  0  0  0  0  0  0  0  0  0  0  0
   37.6018   26.7088   32.3055 H   0  0  0  0  0  0  0  0  0  0  0  0
   39.9229   26.6285   32.6010 H   0  0  0  0  0  0  0  0  0  0  0  0
   39.7021   28.1730   33.3975 H   0  0  0  0  0  0  0  0  0  0  0  0
   39.6085   27.0344   35.6775 H   0  0  0  0  0  0  0  0  0  0  0  0
   39.9597   21.8144   37.5268 H   0  0  0  0  0  0  0  0  0  0  0  0
   38.6894   22.8281   39.4745 H   0  0  0  0  0  0  0  0  0  0  0  0
   37.4746   25.0303   39.1090 H   0  0  0  0  0  0  0  0  0  0  0  0
   41.3092   23.9226   35.1072 H   0  0  0  0  0  0  0  0  0  0  0  0
   44.3480   26.8029   34.3103 H   0  0  0  0  0  0  0  0  0  0  0  0
   42.0578   27.9921   34.2736 H   0  0  0  0  0  0  0  0  0  0  0  0
  1  5  1  0
  1 10  1  0
  2  1  1  0
  3  4  1  0
  3  2  1  0
  4  5  1  0
  6  7  2  0
  8  7  1  0
  9  8  2  0
 10 11  2  0
 10  9  1  0
 11  6  1  0
 12  5  1  0
 12 13  2  0
 14 13  1  0
 15 14  2  0
 16 15  1  0
 16 12  1  0
  1 17  1  6
  2 18  1  0
  2 19  1  0
  3 20  1  0
  3 21  1  0
  4 22  1  0
  4 23  1  0
  5 24  1  1
  6 25  1  0
  7 26  1  0
  8 27  1  0
 13 28  1  0
 15 29  1  0
 16 30  1  0
M  ISO  8  17  13  18  13  19  13  20  13  21  13  22  13  23  13  24  13
M  ISO  6  25  14  26  14  27  14  28  14  29  14  30   9
M  END
>  <minimizedAffinity>  (1) 
-4.41455507

>  <minimizedRMSD>  (1) 
0.584040046

$$$$
