
     RDKit          3D

 40 42  0  0  1  0  0  0  0  0999 V2000
   39.2510   23.9580   34.4190 C   0  0  1  0  0  0  0  0  0  0  0  0
   37.9810   24.0070   33.7000 C   0  0  0  0  0  0  0  0  0  0  0  0
   38.2970   24.7680   32.4320 C   0  0  0  0  0  0  0  0  0  0  0  0
   39.6350   25.4370   32.6390 C   0  0  0  0  0  0  0  0  0  0  0  0
   39.9010   25.3070   34.1230 C   0  0  2  0  0  0  0  0  0  0  0  0
   41.3620   25.2910   34.4190 C   0  0  1  0  0  0  0  0  0  0  0  0
   42.0810   24.0180   34.2190 C   0  0  0  0  0  0  0  0  0  0  0  0
   43.5090   24.2700   34.7590 C   0  0  0  0  0  0  0  0  0  0  0  0
   44.2360   25.1380   33.7900 C   0  0  0  0  0  0  0  0  0  0  0  0
   43.2840   25.8830   32.9190 C   0  0  0  0  0  0  0  0  0  0  0  0
   42.0410   26.3650   33.6100 C   0  0  2  0  0  0  0  0  0  0  0  0
   42.4690   27.3890   34.4750 O   0  0  0  0  0  0  0  0  0  0  0  0
   39.7520   22.7440   37.8660 C   0  0  0  0  0  0  0  0  0  0  0  0
   38.7800   23.5010   38.6070 C   0  0  0  0  0  0  0  0  0  0  0  0
   37.9550   24.4240   37.9170 C   0  0  0  0  0  0  0  0  0  0  0  0
   38.1610   24.5160   36.5760 N   0  0  0  0  0  0  0  0  0  0  0  0
   39.0870   23.7890   35.9090 C   0  0  0  0  0  0  0  0  0  0  0  0
   39.8760   22.9070   36.5600 N   0  0  0  0  0  0  0  0  0  0  0  0
   39.8457   23.0913   34.0946 H   0  0  0  0  0  0  0  0  0  0  0  0
   37.6260   22.9923   33.4670 H   0  0  0  0  0  0  0  0  0  0  0  0
   37.1837   24.4845   34.2885 H   0  0  0  0  0  0  0  0  0  0  0  0
   37.5216   25.5250   32.2428 H   0  0  0  0  0  0  0  0  0  0  0  0
   38.3270   24.0910   31.5656 H   0  0  0  0  0  0  0  0  0  0  0  0
   40.4179   24.9276   32.0580 H   0  0  0  0  0  0  0  0  0  0  0  0
   39.6334   26.4853   32.3057 H   0  0  0  0  0  0  0  0  0  0  0  0
   39.5117   26.1390   34.7282 H   0  0  0  0  0  0  0  0  0  0  0  0
   41.4143   25.4641   35.5040 H   0  0  0  0  0  0  0  0  0  0  0  0
   41.5937   23.2073   34.7805 H   0  0  0  0  0  0  0  0  0  0  0  0
   42.0889   23.7116   33.1626 H   0  0  0  0  0  0  0  0  0  0  0  0
   43.4527   24.7716   35.7364 H   0  0  0  0  0  0  0  0  0  0  0  0
   44.0398   23.3141   34.8798 H   0  0  0  0  0  0  0  0  0  0  0  0
   44.8535   25.8586   34.3462 H   0  0  0  0  0  0  0  0  0  0  0  0
   44.8662   24.4997   33.1533 H   0  0  0  0  0  0  0  0  0  0  0  0
   42.9819   25.2186   32.0960 H   0  0  0  0  0  0  0  0  0  0  0  0
   43.8167   26.7830   32.5781 H   0  0  0  0  0  0  0  0  0  0  0  0
   41.3049   26.6960   32.8626 H   0  0  0  0  0  0  0  0  0  0  0  0
   42.3481   27.0998   35.4141 H   0  0  0  0  0  0  0  0  0  0  0  0
   40.3975   22.0236   38.3898 H   0  0  0  0  0  0  0  0  0  0  0  0
   38.6781   23.3658   39.6939 H   0  0  0  0  0  0  0  0  0  0  0  0
   37.1952   25.0284   38.4341 H   0  0  0  0  0  0  0  0  0  0  0  0
  1 17  1  0
  2  1  1  0
  3  4  1  0
  3  2  1  0
  4  5  1  0
  5  6  1  0
  5  1  1  0
  7  6  1  0
  7  8  1  0
  9  8  1  0
 10 11  1  0
 10  9  1  0
 11  6  1  0
 11 12  1  0
 13 14  2  0
 15 14  1  0
 16 15  2  0
 17 18  2  0
 17 16  1  0
 18 13  1  0
  1 19  1  6
  2 20  1  0
  2 21  1  0
  3 22  1  0
  3 23  1  0
  4 24  1  0
  4 25  1  0
  5 26  1  1
  6 27  1  1
  7 28  1  0
  7 29  1  0
  8 30  1  0
  8 31  1  0
  9 32  1  0
  9 33  1  0
 10 34  1  0
 10 35  1  0
 11 36  1  6
 12 37  1  0
 13 38  1  0
 14 39  1  0
 15 40  1  0
M  ISO  8  19  13  20  13  21  13  22  13  23  13  24  13  25  13  26  13
M  ISO  8  27  13  28  13  29  13  30  13  31  13  32  13  33  13  34  13
M  ISO  6  35  13  36  13  37   3  38  14  39  14  40  14
M  END
>  <minimizedAffinity>  (1) 
-4.14824486

>  <minimizedRMSD>  (1) 
0.873151004

$$$$
