
     RDKit          3D

 26 27  0  0  0  0  0  0  0  0999 V2000
   38.3780   23.6880   38.6450 C   0  0  0  0  0  0  0  0  0  0  0  0
   37.8300   24.4170   37.5830 C   0  0  0  0  0  0  0  0  0  0  0  0
   38.4800   24.3600   36.3630 C   0  0  0  0  0  0  0  0  0  0  0  0
   39.6080   23.6000   36.2810 N   0  0  0  0  0  0  0  0  0  0  0  0
   40.1110   22.9140   37.3090 C   0  0  0  0  0  0  0  0  0  0  0  0
   39.5000   22.9500   38.5090 N   0  0  0  0  0  0  0  0  0  0  0  0
   37.0000   26.5730   33.0660 C   0  0  0  0  0  0  0  0  0  0  0  0
   37.4580   25.2820   32.8410 C   0  0  0  0  0  0  0  0  0  0  0  0
   37.9330   24.5940   33.9430 C   0  0  0  0  0  0  0  0  0  0  0  0
   37.9780   25.0880   35.2020 C   0  0  0  0  0  0  0  0  0  0  0  0
   37.5140   26.3730   35.3810 C   0  0  0  0  0  0  0  0  0  0  0  0
   37.0240   27.1340   34.3470 C   0  0  0  0  0  0  0  0  0  0  0  0
   36.3820   27.5030   31.7020 S   0  0  0  0  0  0  0  0  0  0  0  0
   35.3420   28.4980   32.1910 O   0  0  0  0  0  0  0  0  0  0  0  0
   35.7710   26.5900   30.6780 O   0  0  0  0  0  0  0  0  0  0  0  0
   41.3390   22.1760   36.9440 C   0  0  0  0  0  0  0  0  0  0  0  0
   41.2150   21.5750   35.6900 F   0  0  0  0  0  0  0  0  0  0  0  0
   41.6260   21.1850   37.8670 F   0  0  0  0  0  0  0  0  0  0  0  0
   42.4300   23.0320   36.9290 F   0  0  0  0  0  0  0  0  0  0  0  0
   37.8771   23.7176   39.6239 H   0  0  0  0  0  0  0  0  0  0  0  0
   36.9153   25.0138   37.7138 H   0  0  0  0  0  0  0  0  0  0  0  0
   37.4439   24.8296   31.8384 H   0  0  0  0  0  0  0  0  0  0  0  0
   38.3013   23.5697   33.7842 H   0  0  0  0  0  0  0  0  0  0  0  0
   37.5367   26.8069   36.3916 H   0  0  0  0  0  0  0  0  0  0  0  0
   36.6603   28.1572   34.5221 H   0  0  0  0  0  0  0  0  0  0  0  0
   37.4224   28.1788   31.1208 H   0  0  0  0  0  0  0  0  0  0  0  0
  2  1  2  0
  3  2  1  0
  4  3  2  0
  4  5  1  0
  5  6  2  0
  6  1  1  0
  7 12  2  0
  8  7  1  0
  8  9  2  0
  9 10  1  0
 10 11  2  0
 10  3  1  0
 12 11  1  0
 13 14  2  0
 13  7  1  0
 15 13  2  0
 16  5  1  0
 16 18  1  0
 17 16  1  0
 19 16  1  0
  1 20  1  0
  2 21  1  0
  8 22  1  0
  9 23  1  0
 11 24  1  0
 12 25  1  0
 13 26  1  0
M  ISO  7  20  14  21  14  22  14  23  14  24  14  25  14  26  11
M  END
>  <minimizedAffinity>  (1) 
-5.16798925

>  <minimizedRMSD>  (1) 
6.03023434

$$$$
