
     RDKit          3D

 25 25  0  0  0  0  0  0  0  0999 V2000
   38.1160   23.8140   38.1610 C   0  0  0  0  0  0  0  0  0  0  0  0
   37.9020   24.7240   37.1250 C   0  0  0  0  0  0  0  0  0  0  0  0
   38.8290   24.7420   36.0750 C   0  0  0  0  0  0  0  0  0  0  0  0
   39.8810   23.8820   36.1160 N   0  0  0  0  0  0  0  0  0  0  0  0
   40.0490   23.0190   37.1350 C   0  0  0  0  0  0  0  0  0  0  0  0
   39.1650   22.9770   38.1730 N   0  0  0  0  0  0  0  0  0  0  0  0
   41.2720   22.1720   36.9670 C   0  0  0  0  0  0  0  0  0  0  0  0
   41.2180   21.4640   35.7640 F   0  0  0  0  0  0  0  0  0  0  0  0
   41.4020   21.2650   37.9930 F   0  0  0  0  0  0  0  0  0  0  0  0
   42.3990   22.9760   37.0000 F   0  0  0  0  0  0  0  0  0  0  0  0
   38.6660   25.6850   34.9360 C   0  0  0  0  0  0  0  0  0  0  0  0
   37.3070   26.3740   35.0560 C   0  0  0  0  0  0  0  0  0  0  0  0
   38.7370   24.9440   33.6420 C   0  0  0  0  0  0  0  0  0  0  0  0
   39.7050   26.7780   34.9690 C   0  0  0  0  0  0  0  0  0  0  0  0
   37.4007   23.7816   38.9961 H   0  0  0  0  0  0  0  0  0  0  0  0
   37.0365   25.4028   37.1326 H   0  0  0  0  0  0  0  0  0  0  0  0
   37.0536   26.5025   36.1187 H   0  0  0  0  0  0  0  0  0  0  0  0
   37.3508   27.3588   34.5678 H   0  0  0  0  0  0  0  0  0  0  0  0
   36.5385   25.7566   34.5678 H   0  0  0  0  0  0  0  0  0  0  0  0
   38.8402   23.8671   33.8413 H   0  0  0  0  0  0  0  0  0  0  0  0
   37.8175   25.1238   33.0656 H   0  0  0  0  0  0  0  0  0  0  0  0
   39.6056   25.2951   33.0656 H   0  0  0  0  0  0  0  0  0  0  0  0
   39.9419   27.0272   36.0139 H   0  0  0  0  0  0  0  0  0  0  0  0
   40.6163   26.4331   34.4586 H   0  0  0  0  0  0  0  0  0  0  0  0
   39.3144   27.6707   34.4586 H   0  0  0  0  0  0  0  0  0  0  0  0
  1  6  2  0
  2  1  1  0
  3  4  1  0
  3  2  2  0
  4  5  2  0
  5  6  1  0
  7 10  1  0
  7  5  1  0
  7  9  1  0
  8  7  1  0
 11 14  1  0
 11 12  1  0
 11  3  1  0
 13 11  1  0
  1 15  1  0
  2 16  1  0
 12 17  1  0
 12 18  1  0
 12 19  1  0
 13 20  1  0
 13 21  1  0
 13 22  1  0
 14 23  1  0
 14 24  1  0
 14 25  1  0
M  ISO  8  15  14  16  14  17   8  18   8  19   8  20   8  21   8  22   8
M  ISO  3  23   8  24   8  25   8
M  END
>  <minimizedAffinity>  (1) 
-4.23621845

>  <minimizedRMSD>  (1) 
4.23160934

$$$$
