
     RDKit          3D

 16 16  0  0  0  0  0  0  0  0999 V2000
   41.1060   22.1440   36.4660 C   0  0  0  0  0  0  0  0  0  0  0  0
   40.4700   22.7260   37.5710 C   0  0  0  0  0  0  0  0  0  0  0  0
   39.1320   23.0520   37.4290 C   0  0  0  0  0  0  0  0  0  0  0  0
   38.5160   22.7990   36.2550 N   0  0  0  0  0  0  0  0  0  0  0  0
   39.1590   22.2370   35.2060 C   0  0  0  0  0  0  0  0  0  0  0  0
   40.4600   21.9090   35.3150 N   0  0  0  0  0  0  0  0  0  0  0  0
   38.2650   22.0600   34.0250 C   0  0  0  0  0  0  0  0  0  0  0  0
   36.9760   21.7460   34.4150 F   0  0  0  0  0  0  0  0  0  0  0  0
   38.7280   21.0600   33.2070 F   0  0  0  0  0  0  0  0  0  0  0  0
   38.2590   23.2420   33.2740 F   0  0  0  0  0  0  0  0  0  0  0  0
   38.4100   23.6710   38.5730 C   0  0  0  0  0  0  0  0  0  0  0  0
   37.3720   22.8670   38.9770 F   0  0  0  0  0  0  0  0  0  0  0  0
   39.2500   23.8540   39.6510 F   0  0  0  0  0  0  0  0  0  0  0  0
   37.9440   24.9460   38.2460 F   0  0  0  0  0  0  0  0  0  0  0  0
   42.1687   21.8714   36.5456 H   0  0  0  0  0  0  0  0  0  0  0  0
   41.0104   22.9155   38.5102 H   0  0  0  0  0  0  0  0  0  0  0  0
  1  2  2  0
  3  2  1  0
  3 11  1  0
  4  3  2  0
  5  6  2  0
  5  4  1  0
  6  1  1  0
  7  8  1  0
  7  5  1  0
  9  7  1  0
 10  7  1  0
 11 12  1  0
 11 13  1  0
 14 11  1  0
  1 15  1  0
  2 16  1  0
M  ISO  2  15  14  16  14
M  END
>  <minimizedAffinity>  (1) 
-4.22813082

>  <minimizedRMSD>  (1) 
1.43406546

$$$$
