
     RDKit          3D

 19 20  0  0  0  0  0  0  0  0999 V2000
   41.0750   22.1200   37.4220 C   0  0  0  0  0  0  0  0  0  0  0  0
   41.7030   22.8130   36.3860 C   0  0  0  0  0  0  0  0  0  0  0  0
   40.9760   23.8060   35.7310 C   0  0  0  0  0  0  0  0  0  0  0  0
   39.7150   24.0140   36.1610 N   0  0  0  0  0  0  0  0  0  0  0  0
   39.1210   23.3490   37.1510 C   0  0  0  0  0  0  0  0  0  0  0  0
   39.8230   22.3900   37.7830 N   0  0  0  0  0  0  0  0  0  0  0  0
   41.5800   24.5820   34.6220 C   0  0  0  0  0  0  0  0  0  0  0  0
   41.8530   23.9990   33.4010 C   0  0  0  0  0  0  0  0  0  0  0  0
   42.5720   25.3690   32.4230 S   0  0  0  0  0  0  0  0  0  0  0  0
   42.3700   26.5460   33.9050 C   0  0  0  0  0  0  0  0  0  0  0  0
   41.9070   25.8570   34.6830 N   0  0  0  0  0  0  0  0  0  0  0  0
   37.7300   23.8050   37.3920 C   0  0  0  0  0  0  0  0  0  0  0  0
   37.3600   24.8080   36.5050 F   0  0  0  0  0  0  0  0  0  0  0  0
   37.6070   24.3190   38.6780 F   0  0  0  0  0  0  0  0  0  0  0  0
   36.8590   22.7410   37.2910 F   0  0  0  0  0  0  0  0  0  0  0  0
   41.6284   21.3315   37.9530 H   0  0  0  0  0  0  0  0  0  0  0  0
   42.7387   22.5830   36.0955 H   0  0  0  0  0  0  0  0  0  0  0  0
   41.6797   22.9583   33.0897 H   0  0  0  0  0  0  0  0  0  0  0  0
   42.6318   27.6112   33.9875 H   0  0  0  0  0  0  0  0  0  0  0  0
  1  6  2  0
  2  1  1  0
  3  4  1  0
  3  2  2  0
  4  5  2  0
  5 12  1  0
  5  6  1  0
  7 11  1  0
  7  3  1  0
  8  7  2  0
  9  8  1  0
  9 10  1  0
 10 11  2  0
 12 14  1  0
 13 12  1  0
 15 12  1  0
  1 16  1  0
  2 17  1  0
  8 18  1  0
 10 19  1  0
M  ISO  4  16  14  17  14  18  14  19  14
M  END
>  <minimizedAffinity>  (1) 
-3.77118754

>  <minimizedRMSD>  (1) 
5.77270317

$$$$
