
     RDKit          3D

 20 21  0  0  0  0  0  0  0  0999 V2000
   38.3230   23.3570   38.4800 C   0  0  0  0  0  0  0  0  0  0  0  0
   37.8540   24.3940   37.6570 C   0  0  0  0  0  0  0  0  0  0  0  0
   38.5950   24.6790   36.5230 C   0  0  0  0  0  0  0  0  0  0  0  0
   39.7190   23.9570   36.2660 N   0  0  0  0  0  0  0  0  0  0  0  0
   40.1320   22.9790   37.0750 C   0  0  0  0  0  0  0  0  0  0  0  0
   39.4340   22.6720   38.1900 N   0  0  0  0  0  0  0  0  0  0  0  0
   38.1380   25.7270   35.6730 N   0  0  0  0  0  0  0  0  0  0  0  0
   37.4090   25.5710   34.5970 N   0  0  0  0  0  0  0  0  0  0  0  0
   37.1280   26.7400   33.9930 C   0  0  0  0  0  0  0  0  0  0  0  0
   37.7420   27.7340   34.7650 C   0  0  0  0  0  0  0  0  0  0  0  0
   38.3550   27.0500   35.7960 C   0  0  0  0  0  0  0  0  0  0  0  0
   41.3820   22.3400   36.5810 C   0  0  0  0  0  0  0  0  0  0  0  0
   41.3440   22.1590   35.2060 F   0  0  0  0  0  0  0  0  0  0  0  0
   41.5810   21.0990   37.1820 F   0  0  0  0  0  0  0  0  0  0  0  0
   42.4790   23.1240   36.9280 F   0  0  0  0  0  0  0  0  0  0  0  0
   37.7599   23.1010   39.3896 H   0  0  0  0  0  0  0  0  0  0  0  0
   36.9396   24.9541   37.9023 H   0  0  0  0  0  0  0  0  0  0  0  0
   36.5356   26.8855   33.0776 H   0  0  0  0  0  0  0  0  0  0  0  0
   37.7371   28.8198   34.5890 H   0  0  0  0  0  0  0  0  0  0  0  0
   38.9375   27.5191   36.6027 H   0  0  0  0  0  0  0  0  0  0  0  0
  2  1  2  0
  3  2  1  0
  4  3  2  0
  4  5  1  0
  5  6  2  0
  6  1  1  0
  7 11  1  0
  7  3  1  0
  8  7  1  0
  9  8  2  0
  9 10  1  0
 10 11  2  0
 12 15  1  0
 12  5  1  0
 12 14  1  0
 13 12  1  0
  1 16  1  0
  2 17  1  0
  9 18  1  0
 10 19  1  0
 11 20  1  0
M  ISO  5  16  14  17  14  18  14  19  14  20  14
M  END
>  <minimizedAffinity>  (1) 
-4.2249198

>  <minimizedRMSD>  (1) 
4.22957182

$$$$
