
     RDKit          3D

 27 28  0  0  0  0  0  0  0  0999 V2000
   35.5730   21.0900   36.5610 C   0  0  0  0  0  0  0  0  0  0  0  0
   35.6420   20.7870   35.2030 C   0  0  0  0  0  0  0  0  0  0  0  0
   36.6410   21.3940   34.4410 C   0  0  0  0  0  0  0  0  0  0  0  0
   37.4940   22.2500   35.0670 N   0  0  0  0  0  0  0  0  0  0  0  0
   37.3930   22.5180   36.3880 C   0  0  0  0  0  0  0  0  0  0  0  0
   36.4260   21.9340   37.1430 N   0  0  0  0  0  0  0  0  0  0  0  0
   36.7630   21.1250   33.0500 N   0  0  0  0  0  0  0  0  0  0  0  0
   36.3430   22.0860   32.0530 C   0  0  0  0  0  0  0  0  0  0  0  0
   35.7620   21.2330   30.9280 C   0  0  0  0  0  0  0  0  0  0  0  0
   36.8720   20.5880   30.2880 N   0  0  0  0  0  0  0  0  0  0  0  0
   37.7390   19.8740   31.1750 C   0  0  0  0  0  0  0  0  0  0  0  0
   37.3080   19.8850   32.6110 C   0  0  0  0  0  0  0  0  0  0  0  0
   38.4400   23.4840   36.8390 C   0  0  0  0  0  0  0  0  0  0  0  0
   39.0580   23.0490   38.0010 F   0  0  0  0  0  0  0  0  0  0  0  0
   37.9030   24.7300   37.0780 F   0  0  0  0  0  0  0  0  0  0  0  0
   39.3820   23.6430   35.8240 F   0  0  0  0  0  0  0  0  0  0  0  0
   34.7900   20.6181   37.1727 H   0  0  0  0  0  0  0  0  0  0  0  0
   34.9279   20.0878   34.7436 H   0  0  0  0  0  0  0  0  0  0  0  0
   35.5793   22.7637   32.4624 H   0  0  0  0  0  0  0  0  0  0  0  0
   37.1701   22.7256   31.7112 H   0  0  0  0  0  0  0  0  0  0  0  0
   35.0718   20.4816   31.3391 H   0  0  0  0  0  0  0  0  0  0  0  0
   35.1960   21.8496   30.2143 H   0  0  0  0  0  0  0  0  0  0  0  0
   36.5008   19.9214   29.5961 H   0  0  0  0  0  0  0  0  0  0  0  0
   37.7875   18.8276   30.8392 H   0  0  0  0  0  0  0  0  0  0  0  0
   38.7128   20.3843   31.1375 H   0  0  0  0  0  0  0  0  0  0  0  0
   36.5440   19.1054   32.7473 H   0  0  0  0  0  0  0  0  0  0  0  0
   38.2118   19.7078   33.2124 H   0  0  0  0  0  0  0  0  0  0  0  0
  1  6  2  0
  2  1  1  0
  3  4  1  0
  3  2  2  0
  4  5  2  0
  5 13  1  0
  5  6  1  0
  7  3  1  0
  8  7  1  0
  9  8  1  0
 10  9  1  0
 10 11  1  0
 11 12  1  0
 12  7  1  0
 13 15  1  0
 13 14  1  0
 16 13  1  0
  1 17  1  0
  2 18  1  0
  8 19  1  0
  8 20  1  0
  9 21  1  0
  9 22  1  0
 10 23  1  0
 11 24  1  0
 11 25  1  0
 12 26  1  0
 12 27  1  0
M  ISO  8  17  14  18  14  19  13  20  13  21  13  22  13  23   5  24  13
M  ISO  3  25  13  26  13  27  13
M  END
>  <minimizedAffinity>  (1) 
-3.82260442

>  <minimizedRMSD>  (1) 
6.35571671

$$$$
