
     RDKit          3D

 31 34  0  0  0  0  0  0  0  0999 V2000
   37.6390   26.9430   34.8910 C   0  0  0  0  0  0  0  0  0  0  0  0
   37.8540   25.7350   34.1980 C   0  0  0  0  0  0  0  0  0  0  0  0
   37.2750   25.6070   32.9470 C   0  0  0  0  0  0  0  0  0  0  0  0
   36.5340   26.6480   32.4520 N   0  0  0  0  0  0  0  0  0  0  0  0
   36.3540   27.7770   33.1380 C   0  0  0  0  0  0  0  0  0  0  0  0
   36.9030   27.9180   34.3450 N   0  0  0  0  0  0  0  0  0  0  0  0
   38.6470   24.7360   34.8310 N   0  0  0  0  0  0  0  0  0  0  0  0
   39.6110   24.0040   34.2120 C   0  0  0  0  0  0  0  0  0  0  0  0
   40.1460   23.1570   35.1380 N   0  0  0  0  0  0  0  0  0  0  0  0
   39.5380   23.3530   36.2940 C   0  0  0  0  0  0  0  0  0  0  0  0
   39.6240   22.8290   37.5620 C   0  0  0  0  0  0  0  0  0  0  0  0
   38.8490   23.2280   38.6070 N   0  0  0  0  0  0  0  0  0  0  0  0
   37.9250   24.2090   38.3970 C   0  0  0  0  0  0  0  0  0  0  0  0
   37.8190   24.7400   37.1660 N   0  0  0  0  0  0  0  0  0  0  0  0
   38.5840   24.3430   36.1440 C   0  0  0  0  0  0  0  0  0  0  0  0
   40.5660   21.8030   37.8520 N   0  0  0  0  0  0  0  0  0  0  0  0
   35.5540   28.8470   32.5560 C   0  0  0  0  0  0  0  0  0  0  0  0
   36.0450   29.6630   31.5630 C   0  0  0  0  0  0  0  0  0  0  0  0
   35.2500   30.6710   31.0370 C   0  0  0  0  0  0  0  0  0  0  0  0
   33.9880   30.8770   31.4800 N   0  0  0  0  0  0  0  0  0  0  0  0
   33.5300   30.0750   32.4460 C   0  0  0  0  0  0  0  0  0  0  0  0
   34.3000   29.0840   32.9680 N   0  0  0  0  0  0  0  0  0  0  0  0
   38.0797   27.0856   35.8887 H   0  0  0  0  0  0  0  0  0  0  0  0
   37.4075   24.6858   32.3606 H   0  0  0  0  0  0  0  0  0  0  0  0
   39.9063   24.0808   33.1552 H   0  0  0  0  0  0  0  0  0  0  0  0
   37.2803   24.5584   39.2170 H   0  0  0  0  0  0  0  0  0  0  0  0
   40.6267   21.4135   38.8036 H   0  0  0  0  0  0  0  0  0  0  0  0
   41.1873   21.4497   37.1103 H   0  0  0  0  0  0  0  0  0  0  0  0
   37.0679   29.5162   31.1861 H   0  0  0  0  0  0  0  0  0  0  0  0
   35.6540   31.3164   30.2431 H   0  0  0  0  0  0  0  0  0  0  0  0
   32.5082   30.2200   32.8267 H   0  0  0  0  0  0  0  0  0  0  0  0
  2  7  1  0
  2  1  2  0
  3  2  1  0
  4  3  2  0
  4  5  1  0
  5  6  2  0
  6  1  1  0
  7 15  1  0
  8  7  1  0
  8  9  2  0
  9 10  1  0
 10 11  2  0
 11 16  1  0
 11 12  1  0
 13 12  2  0
 14 13  1  0
 15 10  1  0
 15 14  2  0
 17 22  1  0
 17  5  1  0
 18 17  2  0
 19 20  2  0
 19 18  1  0
 20 21  1  0
 21 22  2  0
  1 23  1  0
  3 24  1  0
  8 25  1  0
 13 26  1  0
 16 27  1  0
 16 28  1  0
 18 29  1  0
 19 30  1  0
 21 31  1  0
M  ISO  7  23  14  24  14  25  14  26  14  29  14  30  14  31  14
M  END
>  <minimizedAffinity>  (1) 
-6.05216074

>  <minimizedRMSD>  (1) 
0.791352928

$$$$
