
     RDKit          3D

 30 32  0  0  0  0  0  0  0  0999 V2000
   37.7050   27.0450   34.9870 C   0  0  0  0  0  0  0  0  0  0  0  0
   37.8780   25.8450   34.2700 C   0  0  0  0  0  0  0  0  0  0  0  0
   37.2870   25.7460   33.0210 C   0  0  0  0  0  0  0  0  0  0  0  0
   36.5690   26.8050   32.5390 N   0  0  0  0  0  0  0  0  0  0  0  0
   36.4180   27.9320   33.2360 C   0  0  0  0  0  0  0  0  0  0  0  0
   36.9840   28.0330   34.4380 N   0  0  0  0  0  0  0  0  0  0  0  0
   35.6780   29.0530   32.7640 N   0  0  0  0  0  0  0  0  0  0  0  0
   35.8050   29.5600   31.4230 C   0  0  0  0  0  0  0  0  0  0  0  0
   36.8470   29.1000   30.8160 N   0  0  0  0  0  0  0  0  0  0  0  0
   34.8100   30.4680   30.9460 N   0  0  0  0  0  0  0  0  0  0  0  0
   37.1130   29.3480   29.8370 H   0  0  0  0  0  0  0  0  0  0  0  0
   38.6510   24.8170   34.8860 N   0  0  0  0  0  0  0  0  0  0  0  0
   39.5950   24.0670   34.2450 C   0  0  0  0  0  0  0  0  0  0  0  0
   40.1220   23.1910   35.1470 N   0  0  0  0  0  0  0  0  0  0  0  0
   39.5220   23.3900   36.3170 C   0  0  0  0  0  0  0  0  0  0  0  0
   39.5990   22.8490   37.5860 C   0  0  0  0  0  0  0  0  0  0  0  0
   38.8420   23.2550   38.6370 N   0  0  0  0  0  0  0  0  0  0  0  0
   37.9420   24.2630   38.4400 C   0  0  0  0  0  0  0  0  0  0  0  0
   37.8410   24.8140   37.2170 N   0  0  0  0  0  0  0  0  0  0  0  0
   38.5900   24.4080   36.1880 C   0  0  0  0  0  0  0  0  0  0  0  0
   40.5220   21.7950   37.8460 N   0  0  0  0  0  0  0  0  0  0  0  0
   38.1550   27.1697   35.9830 H   0  0  0  0  0  0  0  0  0  0  0  0
   37.3940   24.8277   32.4250 H   0  0  0  0  0  0  0  0  0  0  0  0
   35.0248   29.5204   33.4088 H   0  0  0  0  0  0  0  0  0  0  0  0
   34.8746   30.8473   29.9906 H   0  0  0  0  0  0  0  0  0  0  0  0
   34.0282   30.7431   31.5576 H   0  0  0  0  0  0  0  0  0  0  0  0
   39.8803   24.1543   33.1862 H   0  0  0  0  0  0  0  0  0  0  0  0
   37.3103   24.6184   39.2674 H   0  0  0  0  0  0  0  0  0  0  0  0
   40.5851   21.3867   38.7895 H   0  0  0  0  0  0  0  0  0  0  0  0
   41.1261   21.4414   37.0904 H   0  0  0  0  0  0  0  0  0  0  0  0
  2 12  1  0
  2  1  2  0
  3  2  1  0
  4  3  2  0
  4  5  1  0
  5  6  2  0
  6  1  1  0
  7  5  1  0
  8  7  1  0
  9  8  2  0
 10  8  1  0
 11  9  1  0
 12 20  1  0
 13 12  1  0
 13 14  2  0
 14 15  1  0
 15 16  2  0
 16 21  1  0
 16 17  1  0
 18 17  2  0
 19 18  1  0
 20 15  1  0
 20 19  2  0
  1 22  1  0
  3 23  1  0
  7 24  1  0
 10 25  1  0
 10 26  1  0
 13 27  1  0
 18 28  1  0
 21 29  1  0
 21 30  1  0
M  ISO  4  22  14  23  14  27  14  28  14
M  END
>  <minimizedAffinity>  (1) 
-6.03285885

>  <minimizedRMSD>  (1) 
0.874440908

$$$$
