
     RDKit          3D

 40 43  0  0  0  0  0  0  0  0999 V2000
   37.6130   22.3350   34.4220 C   0  0  0  0  0  0  0  0  0  0  0  0
   36.7780   21.2790   34.2660 N   0  0  0  0  0  0  0  0  0  0  0  0
   36.0340   21.0820   33.1790 C   0  0  0  0  0  0  0  0  0  0  0  0
   36.0570   21.9430   32.1270 N   0  0  0  0  0  0  0  0  0  0  0  0
   36.8770   23.0450   32.1950 C   0  0  0  0  0  0  0  0  0  0  0  0
   36.9080   23.9360   31.1600 C   0  0  0  0  0  0  0  0  0  0  0  0
   37.7070   25.0430   31.2260 C   0  0  0  0  0  0  0  0  0  0  0  0
   38.4730   25.2140   32.3800 C   0  0  0  0  0  0  0  0  0  0  0  0
   38.3890   24.2700   33.3870 C   0  0  0  0  0  0  0  0  0  0  0  0
   37.6030   23.1680   33.3420 C   0  0  0  0  0  0  0  0  0  0  0  0
   38.3260   23.3170   37.8990 C   0  0  0  0  0  0  0  0  0  0  0  0
   37.6720   23.1320   36.6860 C   0  0  0  0  0  0  0  0  0  0  0  0
   38.3750   22.4940   35.6310 C   0  0  0  0  0  0  0  0  0  0  0  0
   39.6240   22.1410   35.9580 N   0  0  0  0  0  0  0  0  0  0  0  0
   40.2590   22.3070   37.0920 C   0  0  0  0  0  0  0  0  0  0  0  0
   39.5900   22.9160   38.0970 N   0  0  0  0  0  0  0  0  0  0  0  0
   41.6330   21.7960   37.0650 C   0  0  0  0  0  0  0  0  0  0  0  0
   41.9140   20.9650   38.1120 F   0  0  0  0  0  0  0  0  0  0  0  0
   42.5480   22.8630   37.0620 F   0  0  0  0  0  0  0  0  0  0  0  0
   41.8700   21.1390   35.8460 F   0  0  0  0  0  0  0  0  0  0  0  0
   39.3350   24.7910   34.3130 N   0  0  0  0  0  0  0  0  0  0  0  0
   40.7480   24.7310   34.6400 C   0  0  0  0  0  0  0  0  0  0  0  0
   41.4470   26.0280   34.2630 C   0  0  0  0  0  0  0  0  0  0  0  0
   40.5740   27.0800   34.2050 O   0  0  0  0  0  0  0  0  0  0  0  0
   39.5720   27.0800   35.1350 C   0  0  0  0  0  0  0  0  0  0  0  0
   38.8100   25.7870   35.2790 C   0  0  0  0  0  0  0  0  0  0  0  0
   35.3822   20.1972   33.1310 H   0  0  0  0  0  0  0  0  0  0  0  0
   36.2869   23.7617   30.2690 H   0  0  0  0  0  0  0  0  0  0  0  0
   37.7448   25.7706   30.4019 H   0  0  0  0  0  0  0  0  0  0  0  0
   39.1338   26.0868   32.4870 H   0  0  0  0  0  0  0  0  0  0  0  0
   37.7887   23.8086   38.7234 H   0  0  0  0  0  0  0  0  0  0  0  0
   36.6350   23.4718   36.5474 H   0  0  0  0  0  0  0  0  0  0  0  0
   40.8608   24.5620   35.7211 H   0  0  0  0  0  0  0  0  0  0  0  0
   41.2057   23.9070   34.0729 H   0  0  0  0  0  0  0  0  0  0  0  0
   42.2190   26.2476   35.0152 H   0  0  0  0  0  0  0  0  0  0  0  0
   41.8912   25.8982   33.2651 H   0  0  0  0  0  0  0  0  0  0  0  0
   40.0180   27.3194   36.1116 H   0  0  0  0  0  0  0  0  0  0  0  0
   38.8389   27.8212   34.7840 H   0  0  0  0  0  0  0  0  0  0  0  0
   37.7435   25.9659   35.0774 H   0  0  0  0  0  0  0  0  0  0  0  0
   38.9313   25.4030   36.3026 H   0  0  0  0  0  0  0  0  0  0  0  0
  1 13  1  0
  2  1  2  0
  3  2  1  0
  4  5  1  0
  4  3  2  0
  5 10  2  0
  6  7  2  0
  6  5  1  0
  7  8  1  0
  8  9  2  0
  9 21  1  0
 10  9  1  0
 10  1  1  0
 11 16  2  0
 12 11  1  0
 13 14  1  0
 13 12  2  0
 14 15  2  0
 15 16  1  0
 17 15  1  0
 17 18  1  0
 19 17  1  0
 20 17  1  0
 21 22  1  0
 21 26  1  0
 23 22  1  0
 24 23  1  0
 24 25  1  0
 25 26  1  0
  3 27  1  0
  6 28  1  0
  7 29  1  0
  8 30  1  0
 11 31  1  0
 12 32  1  0
 22 33  1  0
 22 34  1  0
 23 35  1  0
 23 36  1  0
 25 37  1  0
 25 38  1  0
 26 39  1  0
 26 40  1  0
M  ISO  8  27  14  28  14  29  14  30  14  31  14  32  14  33  13  34  13
M  ISO  6  35  13  36  13  37  13  38  13  39  13  40  13
M  END
>  <minimizedAffinity>  (1) 
-6.11743593

>  <minimizedRMSD>  (1) 
2.95632958

$$$$
