
     RDKit          3D

 34 37  0  0  0  0  0  0  0  0999 V2000
   37.9900   23.1830   35.3000 C   0  0  0  0  0  0  0  0  0  0  0  0
   37.9970   22.6750   36.5520 N   0  0  0  0  0  0  0  0  0  0  0  0
   38.0980   23.4240   37.6530 C   0  0  0  0  0  0  0  0  0  0  0  0
   38.2030   24.7820   37.5890 N   0  0  0  0  0  0  0  0  0  0  0  0
   38.2050   25.3850   36.3500 C   0  0  0  0  0  0  0  0  0  0  0  0
   38.3080   26.7420   36.2680 C   0  0  0  0  0  0  0  0  0  0  0  0
   38.3070   27.3590   35.0380 C   0  0  0  0  0  0  0  0  0  0  0  0
   38.1980   26.5420   33.9300 C   0  0  0  0  0  0  0  0  0  0  0  0
   38.0960   25.1770   34.0860 C   0  0  0  0  0  0  0  0  0  0  0  0
   38.0970   24.5420   35.2830 C   0  0  0  0  0  0  0  0  0  0  0  0
   39.1370   20.9330   32.6390 C   0  0  0  0  0  0  0  0  0  0  0  0
   39.1380   21.7880   33.7260 C   0  0  0  0  0  0  0  0  0  0  0  0
   37.8950   22.3110   34.1630 C   0  0  0  0  0  0  0  0  0  0  0  0
   36.8520   21.8840   33.4330 N   0  0  0  0  0  0  0  0  0  0  0  0
   36.8310   21.0770   32.4050 C   0  0  0  0  0  0  0  0  0  0  0  0
   38.0050   20.5820   31.9860 N   0  0  0  0  0  0  0  0  0  0  0  0
   35.4770   20.8530   31.8740 C   0  0  0  0  0  0  0  0  0  0  0  0
   35.0510   19.5610   32.0380 F   0  0  0  0  0  0  0  0  0  0  0  0
   35.4330   21.1900   30.5100 F   0  0  0  0  0  0  0  0  0  0  0  0
   34.5710   21.7320   32.4820 F   0  0  0  0  0  0  0  0  0  0  0  0
   37.9570   24.6880   32.7530 N   0  0  0  0  0  0  0  0  0  0  0  0
   38.6440   24.1520   31.7490 N   0  0  0  0  0  0  0  0  0  0  0  0
   37.8570   23.9770   30.6760 C   0  0  0  0  0  0  0  0  0  0  0  0
   36.5720   24.4040   30.9350 C   0  0  0  0  0  0  0  0  0  0  0  0
   36.6770   24.8480   32.2620 C   0  0  0  0  0  0  0  0  0  0  0  0
   38.0964   22.9326   38.6372 H   0  0  0  0  0  0  0  0  0  0  0  0
   38.3919   27.3436   37.1851 H   0  0  0  0  0  0  0  0  0  0  0  0
   38.3892   28.4517   34.9419 H   0  0  0  0  0  0  0  0  0  0  0  0
   38.1926   26.9816   32.9217 H   0  0  0  0  0  0  0  0  0  0  0  0
   40.0958   20.5213   32.2909 H   0  0  0  0  0  0  0  0  0  0  0  0
   40.0754   22.0543   34.2363 H   0  0  0  0  0  0  0  0  0  0  0  0
   38.1921   23.5504   29.7190 H   0  0  0  0  0  0  0  0  0  0  0  0
   35.6931   24.3982   30.2735 H   0  0  0  0  0  0  0  0  0  0  0  0
   35.8421   25.2714   32.8397 H   0  0  0  0  0  0  0  0  0  0  0  0
  1  2  2  0
  2  3  1  0
  4  3  2  0
  5  4  1  0
  6  5  2  0
  7  6  1  0
  8  9  1  0
  8  7  2  0
  9 10  2  0
 10  1  1  0
 10  5  1  0
 11 12  2  0
 12 13  1  0
 13  1  1  0
 14 13  2  0
 15 14  1  0
 16 15  2  0
 16 11  1  0
 17 18  1  0
 17 15  1  0
 17 20  1  0
 19 17  1  0
 21  9  1  0
 22 21  1  0
 23 24  1  0
 23 22  2  0
 24 25  2  0
 25 21  1  0
  3 26  1  0
  6 27  1  0
  7 28  1  0
  8 29  1  0
 11 30  1  0
 12 31  1  0
 23 32  1  0
 24 33  1  0
 25 34  1  0
M  ISO  8  26  14  27  14  28  14  29  14  30  14  31  14  32  14  33  14
M  ISO  1  34  14
M  END
>  <minimizedAffinity>  (1) 
-6.04389811

>  <minimizedRMSD>  (1) 
5.80374718

$$$$
