
     RDKit          3D

 30 33  0  0  0  0  0  0  0  0999 V2000
   38.6740   24.7410   34.8630 N   0  0  0  0  0  0  0  0  0  0  0  0
   39.6310   24.0090   34.2470 C   0  0  0  0  0  0  0  0  0  0  0  0
   40.1760   23.1480   35.1500 N   0  0  0  0  0  0  0  0  0  0  0  0
   39.5570   23.3460   36.3190 C   0  0  0  0  0  0  0  0  0  0  0  0
   39.6380   22.8130   37.5900 C   0  0  0  0  0  0  0  0  0  0  0  0
   38.8640   23.2090   38.6350 N   0  0  0  0  0  0  0  0  0  0  0  0
   37.9530   24.1900   38.4230 C   0  0  0  0  0  0  0  0  0  0  0  0
   37.8430   24.7350   37.1990 N   0  0  0  0  0  0  0  0  0  0  0  0
   38.6020   24.3440   36.1770 C   0  0  0  0  0  0  0  0  0  0  0  0
   37.6940   26.9570   34.9400 C   0  0  0  0  0  0  0  0  0  0  0  0
   37.8850   25.7450   34.2390 C   0  0  0  0  0  0  0  0  0  0  0  0
   37.2930   25.6160   32.9900 C   0  0  0  0  0  0  0  0  0  0  0  0
   36.5530   26.6500   32.4860 N   0  0  0  0  0  0  0  0  0  0  0  0
   36.3940   27.7930   33.1910 C   0  0  0  0  0  0  0  0  0  0  0  0
   36.9600   27.9360   34.3980 N   0  0  0  0  0  0  0  0  0  0  0  0
   35.5700   28.8880   32.5760 C   0  0  0  0  0  0  0  0  0  0  0  0
   36.0440   29.7220   31.5690 C   0  0  0  0  0  0  0  0  0  0  0  0
   35.2360   30.6840   31.0700 C   0  0  0  0  0  0  0  0  0  0  0  0
   33.9090   30.8170   31.5950 C   0  0  0  0  0  0  0  0  0  0  0  0
   33.8680   29.4350   32.9000 S   0  0  0  0  0  0  0  0  0  0  0  0
   40.5820   21.7810   37.8620 N   0  0  0  0  0  0  0  0  0  0  0  0
   39.9212   24.0955   33.1895 H   0  0  0  0  0  0  0  0  0  0  0  0
   37.3096   24.5370   39.2449 H   0  0  0  0  0  0  0  0  0  0  0  0
   38.1489   27.0959   35.9318 H   0  0  0  0  0  0  0  0  0  0  0  0
   37.4180   24.6896   32.4103 H   0  0  0  0  0  0  0  0  0  0  0  0
   37.0665   29.6000   31.1823 H   0  0  0  0  0  0  0  0  0  0  0  0
   35.5914   31.3543   30.2735 H   0  0  0  0  0  0  0  0  0  0  0  0
   33.1207   31.5316   31.3159 H   0  0  0  0  0  0  0  0  0  0  0  0
   40.6474   21.3792   38.8081 H   0  0  0  0  0  0  0  0  0  0  0  0
   41.1990   21.4368   37.1125 H   0  0  0  0  0  0  0  0  0  0  0  0
  1  9  1  0
  2  1  1  0
  2  3  2  0
  3  4  1  0
  4  5  2  0
  5 21  1  0
  5  6  1  0
  7  6  2  0
  8  7  1  0
  9  4  1  0
  9  8  2  0
 11  1  1  0
 11 10  2  0
 12 11  1  0
 13 12  2  0
 13 14  1  0
 14 15  2  0
 15 10  1  0
 16 20  1  0
 16 14  1  0
 17 16  2  0
 18 17  1  0
 18 19  2  0
 19 20  1  0
  2 22  1  0
  7 23  1  0
 10 24  1  0
 12 25  1  0
 17 26  1  0
 18 27  1  0
 19 28  1  0
 21 29  1  0
 21 30  1  0
M  ISO  7  22  14  23  14  24  14  25  14  26  14  27  14  28  14
M  END
>  <minimizedAffinity>  (1) 
-5.89126301

>  <minimizedRMSD>  (1) 
0.753409326

$$$$
