
     RDKit          3D

 33 35  0  0  0  0  0  0  0  0999 V2000
   37.9050   23.4360   34.1400 C   0  0  0  0  0  0  0  0  0  0  0  0
   37.3140   22.3790   33.5680 N   0  0  0  0  0  0  0  0  0  0  0  0
   36.6390   22.4500   32.4100 C   0  0  0  0  0  0  0  0  0  0  0  0
   36.5090   23.6320   31.7290 N   0  0  0  0  0  0  0  0  0  0  0  0
   37.0910   24.7520   32.2600 C   0  0  0  0  0  0  0  0  0  0  0  0
   37.0020   25.9180   31.5740 C   0  0  0  0  0  0  0  0  0  0  0  0
   37.6200   27.0460   32.0650 C   0  0  0  0  0  0  0  0  0  0  0  0
   38.3100   26.9120   33.2630 C   0  0  0  0  0  0  0  0  0  0  0  0
   38.3680   25.7210   33.9170 C   0  0  0  0  0  0  0  0  0  0  0  0
   37.7640   24.6010   33.4420 C   0  0  0  0  0  0  0  0  0  0  0  0
   38.3230   23.3160   37.7670 C   0  0  0  0  0  0  0  0  0  0  0  0
   37.7750   23.4650   36.5310 C   0  0  0  0  0  0  0  0  0  0  0  0
   38.5830   23.2650   35.3800 C   0  0  0  0  0  0  0  0  0  0  0  0
   39.8490   22.9220   35.7040 N   0  0  0  0  0  0  0  0  0  0  0  0
   40.3930   22.7700   36.8780 C   0  0  0  0  0  0  0  0  0  0  0  0
   39.6170   22.9740   37.9540 N   0  0  0  0  0  0  0  0  0  0  0  0
   41.8120   22.3950   36.8130 C   0  0  0  0  0  0  0  0  0  0  0  0
   42.1260   21.3870   37.6950 F   0  0  0  0  0  0  0  0  0  0  0  0
   42.6290   23.5010   37.0630 F   0  0  0  0  0  0  0  0  0  0  0  0
   42.1390   21.9960   35.5080 F   0  0  0  0  0  0  0  0  0  0  0  0
   39.1410   25.8130   35.1720 C   0  0  0  0  0  0  0  0  0  0  0  0
   38.7230   27.0890   35.9770 C   0  0  0  0  0  0  0  0  0  0  0  0
   36.1799   21.5390   31.9985 H   0  0  0  0  0  0  0  0  0  0  0  0
   36.4390   25.9625   30.6301 H   0  0  0  0  0  0  0  0  0  0  0  0
   37.5697   28.0079   31.5337 H   0  0  0  0  0  0  0  0  0  0  0  0
   38.8201   27.7873   33.6916 H   0  0  0  0  0  0  0  0  0  0  0  0
   37.6875   23.4805   38.6497 H   0  0  0  0  0  0  0  0  0  0  0  0
   36.7149   23.7381   36.4237 H   0  0  0  0  0  0  0  0  0  0  0  0
   38.9477   24.9191   35.7833 H   0  0  0  0  0  0  0  0  0  0  0  0
   40.2116   25.8793   34.9281 H   0  0  0  0  0  0  0  0  0  0  0  0
   38.7911   26.8811   37.0550 H   0  0  0  0  0  0  0  0  0  0  0  0
   39.3956   27.9208   35.7208 H   0  0  0  0  0  0  0  0  0  0  0  0
   37.6886   27.3616   35.7208 H   0  0  0  0  0  0  0  0  0  0  0  0
  1 13  1  0
  2  1  2  0
  3  2  1  0
  4  5  1  0
  4  3  2  0
  5 10  2  0
  6  7  2  0
  6  5  1  0
  7  8  1  0
  8  9  2  0
  9 21  1  0
 10  9  1  0
 10  1  1  0
 11 16  2  0
 12 11  1  0
 13 14  1  0
 13 12  2  0
 14 15  2  0
 15 16  1  0
 17 15  1  0
 17 19  1  0
 17 18  1  0
 20 17  1  0
 21 22  1  0
  3 23  1  0
  6 24  1  0
  7 25  1  0
  8 26  1  0
 11 27  1  0
 12 28  1  0
 21 29  1  0
 21 30  1  0
 22 31  1  0
 22 32  1  0
 22 33  1  0
M  ISO  8  23  14  24  14  25  14  26  14  27  14  28  14  29   8  30   8
M  ISO  3  31   8  32   8  33   8
M  END
>  <minimizedAffinity>  (1) 
-5.39819908

>  <minimizedRMSD>  (1) 
2.42460632

$$$$
