
     RDKit          3D

 36 38  0  0  0  0  0  0  0  0999 V2000
   37.8230   22.7260   34.2900 C   0  0  0  0  0  0  0  0  0  0  0  0
   37.0540   21.6750   33.9880 N   0  0  0  0  0  0  0  0  0  0  0  0
   36.3220   21.5980   32.8650 C   0  0  0  0  0  0  0  0  0  0  0  0
   36.3140   22.5990   31.9480 N   0  0  0  0  0  0  0  0  0  0  0  0
   37.0810   23.7140   32.1910 C   0  0  0  0  0  0  0  0  0  0  0  0
   37.0710   24.7590   31.3140 C   0  0  0  0  0  0  0  0  0  0  0  0
   37.7920   25.8830   31.5570 C   0  0  0  0  0  0  0  0  0  0  0  0
   38.5260   25.8970   32.7190 C   0  0  0  0  0  0  0  0  0  0  0  0
   38.5370   24.8450   33.5910 C   0  0  0  0  0  0  0  0  0  0  0  0
   37.8080   23.7280   33.3560 C   0  0  0  0  0  0  0  0  0  0  0  0
   38.3880   23.3760   37.8680 C   0  0  0  0  0  0  0  0  0  0  0  0
   37.7970   23.3370   36.6280 C   0  0  0  0  0  0  0  0  0  0  0  0
   38.5280   22.7610   35.5290 C   0  0  0  0  0  0  0  0  0  0  0  0
   39.7320   22.3230   35.9190 N   0  0  0  0  0  0  0  0  0  0  0  0
   40.3080   22.3520   37.0800 C   0  0  0  0  0  0  0  0  0  0  0  0
   39.6290   22.8940   38.0960 N   0  0  0  0  0  0  0  0  0  0  0  0
   41.6740   21.7920   37.0540 C   0  0  0  0  0  0  0  0  0  0  0  0
   41.9190   20.9770   38.1170 F   0  0  0  0  0  0  0  0  0  0  0  0
   42.6230   22.8320   37.0240 F   0  0  0  0  0  0  0  0  0  0  0  0
   41.8850   21.0940   35.8510 F   0  0  0  0  0  0  0  0  0  0  0  0
   39.5280   25.0650   34.6750 C   0  0  0  0  0  0  0  0  0  0  0  0
   40.9310   25.1940   34.0830 C   0  0  0  0  0  0  0  0  0  0  0  0
   39.4400   26.5460   35.1860 C   0  0  0  0  0  0  0  0  0  0  0  0
   35.7128   20.7003   32.6833 H   0  0  0  0  0  0  0  0  0  0  0  0
   36.4693   24.6896   30.3958 H   0  0  0  0  0  0  0  0  0  0  0  0
   37.7891   26.7358   30.8622 H   0  0  0  0  0  0  0  0  0  0  0  0
   39.1266   26.7877   32.9557 H   0  0  0  0  0  0  0  0  0  0  0  0
   37.8291   23.8165   38.7068 H   0  0  0  0  0  0  0  0  0  0  0  0
   36.7840   23.7384   36.4776 H   0  0  0  0  0  0  0  0  0  0  0  0
   39.3495   24.2580   35.4009 H   0  0  0  0  0  0  0  0  0  0  0  0
   41.6677   25.2617   34.8971 H   0  0  0  0  0  0  0  0  0  0  0  0
   41.1498   24.3122   33.4629 H   0  0  0  0  0  0  0  0  0  0  0  0
   40.9854   26.1009   33.4629 H   0  0  0  0  0  0  0  0  0  0  0  0
   39.4395   26.5549   36.2860 H   0  0  0  0  0  0  0  0  0  0  0  0
   40.3060   27.1139   34.8151 H   0  0  0  0  0  0  0  0  0  0  0  0
   38.5129   27.0074   34.8151 H   0  0  0  0  0  0  0  0  0  0  0  0
  1 13  1  0
  2  1  2  0
  3  2  1  0
  4  5  1  0
  4  3  2  0
  5 10  2  0
  6  7  2  0
  6  5  1  0
  7  8  1  0
  8  9  2  0
  9 21  1  0
 10  9  1  0
 10  1  1  0
 11 16  2  0
 12 11  1  0
 13 14  1  0
 13 12  2  0
 14 15  2  0
 15 16  1  0
 17 15  1  0
 17 18  1  0
 19 17  1  0
 20 17  1  0
 21 23  1  0
 22 21  1  0
  3 24  1  0
  6 25  1  0
  7 26  1  0
  8 27  1  0
 11 28  1  0
 12 29  1  0
 21 30  1  0
 22 31  1  0
 22 32  1  0
 22 33  1  0
 23 34  1  0
 23 35  1  0
 23 36  1  0
M  ISO  8  24  14  25  14  26  14  27  14  28  14  29  14  30   8  31   8
M  ISO  5  32   8  33   8  34   8  35   8  36   8
M  END
>  <minimizedAffinity>  (1) 
-5.57235956

>  <minimizedRMSD>  (1) 
2.50867438

$$$$
