
     RDKit          3D

 41 45  0  0  0  0  0  0  0  0999 V2000
   39.8430   23.6610   34.1880 C   0  0  0  0  0  0  0  0  0  0  0  0
   39.5400   22.4200   34.6260 N   0  0  0  0  0  0  0  0  0  0  0  0
   38.7840   22.1760   35.6990 C   0  0  0  0  0  0  0  0  0  0  0  0
   38.2500   23.1920   36.4450 N   0  0  0  0  0  0  0  0  0  0  0  0
   38.5080   24.4820   36.0700 C   0  0  0  0  0  0  0  0  0  0  0  0
   37.9850   25.5100   36.8030 C   0  0  0  0  0  0  0  0  0  0  0  0
   38.2360   26.8160   36.4370 C   0  0  0  0  0  0  0  0  0  0  0  0
   39.0260   27.0210   35.3120 C   0  0  0  0  0  0  0  0  0  0  0  0
   39.5180   25.9310   34.6210 C   0  0  0  0  0  0  0  0  0  0  0  0
   39.2920   24.6410   34.9570 C   0  0  0  0  0  0  0  0  0  0  0  0
   40.2110   26.5460   33.5460 N   0  0  0  0  0  0  0  0  0  0  0  0
   39.4990   26.8060   32.3980 C   0  0  0  0  0  0  0  0  0  0  0  0
   40.2480   27.4470   31.4480 N   0  0  0  0  0  0  0  0  0  0  0  0
   41.4810   27.6070   31.9990 C   0  0  0  0  0  0  0  0  0  0  0  0
   42.7130   28.1490   31.6530 C   0  0  0  0  0  0  0  0  0  0  0  0
   42.7990   28.6610   30.5110 O   0  0  0  0  0  0  0  0  0  0  0  0
   43.7410   28.1080   32.5290 N   0  0  0  0  0  0  0  0  0  0  0  0
   43.6510   27.5550   33.7670 C   0  0  0  0  0  0  0  0  0  0  0  0
   44.8420   27.6110   34.5410 N   0  0  0  0  0  0  0  0  0  0  0  0
   42.4570   27.0110   34.1470 N   0  0  0  0  0  0  0  0  0  0  0  0
   41.4240   27.0560   33.2560 C   0  0  0  0  0  0  0  0  0  0  0  0
   42.9520   23.9580   32.2590 C   0  0  0  0  0  0  0  0  0  0  0  0
   42.0730   23.7950   33.3170 C   0  0  0  0  0  0  0  0  0  0  0  0
   40.6830   23.8400   33.0350 C   0  0  0  0  0  0  0  0  0  0  0  0
   40.4080   24.0350   31.7370 N   0  0  0  0  0  0  0  0  0  0  0  0
   41.2250   24.1880   30.7310 C   0  0  0  0  0  0  0  0  0  0  0  0
   42.5360   24.1520   30.9850 N   0  0  0  0  0  0  0  0  0  0  0  0
   40.5230   24.3870   29.4490 C   0  0  0  0  0  0  0  0  0  0  0  0
   40.6800   23.3400   28.5850 F   0  0  0  0  0  0  0  0  0  0  0  0
   40.9650   25.5730   28.8340 F   0  0  0  0  0  0  0  0  0  0  0  0
   39.1550   24.6080   29.6760 F   0  0  0  0  0  0  0  0  0  0  0  0
   38.5855   21.1341   35.9905 H   0  0  0  0  0  0  0  0  0  0  0  0
   37.3637   25.2959   37.6851 H   0  0  0  0  0  0  0  0  0  0  0  0
   37.8278   27.6604   37.0118 H   0  0  0  0  0  0  0  0  0  0  0  0
   39.2573   28.0422   34.9750 H   0  0  0  0  0  0  0  0  0  0  0  0
   38.4436   26.5292   32.2586 H   0  0  0  0  0  0  0  0  0  0  0  0
   44.6415   28.5181   32.2429 H   0  0  0  0  0  0  0  0  0  0  0  0
   44.8578   27.2139   35.4912 H   0  0  0  0  0  0  0  0  0  0  0  0
   45.6892   28.0487   34.1516 H   0  0  0  0  0  0  0  0  0  0  0  0
   44.0327   23.9286   32.4621 H   0  0  0  0  0  0  0  0  0  0  0  0
   42.4402   23.6360   34.3416 H   0  0  0  0  0  0  0  0  0  0  0  0
  1  2  2  0
  1 10  1  0
  2  3  1  0
  3  4  2  0
  5  4  1  0
  5  6  2  0
  7  6  1  0
  8  7  2  0
  9 10  2  0
  9  8  1  0
 10  5  1  0
 11  9  1  0
 12 11  1  0
 13 14  1  0
 13 12  2  0
 14 21  2  0
 15 14  1  0
 15 17  1  0
 16 15  2  0
 17 18  1  0
 18 20  2  0
 18 19  1  0
 21 11  1  0
 21 20  1  0
 22 23  2  0
 24 23  1  0
 24  1  1  0
 25 24  2  0
 26 27  2  0
 26 25  1  0
 27 22  1  0
 28 31  1  0
 28 26  1  0
 29 28  1  0
 30 28  1  0
  3 32  1  0
  6 33  1  0
  7 34  1  0
  8 35  1  0
 12 36  1  0
 17 37  1  0
 19 38  1  0
 19 39  1  0
 22 40  1  0
 23 41  1  0
M  ISO  8  32  14  33  14  34  14  35  14  36  14  37   9  40  14  41  14
M  END
>  <minimizedAffinity>  (1) 
-5.07474947

>  <minimizedRMSD>  (1) 
5.55484533

$$$$
