
     RDKit          3D

 40 43  0  0  0  0  0  0  0  0999 V2000
   40.0960   23.7280   34.7720 C   0  0  0  0  0  0  0  0  0  0  0  0
   38.8010   23.5300   34.5090 N   0  0  0  0  0  0  0  0  0  0  0  0
   38.0320   24.4270   33.8800 C   0  0  0  0  0  0  0  0  0  0  0  0
   38.5230   25.6250   33.4590 N   0  0  0  0  0  0  0  0  0  0  0  0
   39.8340   25.9000   33.6920 C   0  0  0  0  0  0  0  0  0  0  0  0
   40.3690   27.1060   33.3240 C   0  0  0  0  0  0  0  0  0  0  0  0
   41.6720   27.4070   33.5810 C   0  0  0  0  0  0  0  0  0  0  0  0
   42.4160   26.4410   34.2220 C   0  0  0  0  0  0  0  0  0  0  0  0
   41.8800   25.2380   34.5850 C   0  0  0  0  0  0  0  0  0  0  0  0
   40.5840   24.9330   34.3440 C   0  0  0  0  0  0  0  0  0  0  0  0
   41.1550   21.7350   37.6810 C   0  0  0  0  0  0  0  0  0  0  0  0
   40.5180   22.6710   36.9040 C   0  0  0  0  0  0  0  0  0  0  0  0
   40.8370   22.7530   35.5030 C   0  0  0  0  0  0  0  0  0  0  0  0
   41.7510   21.8410   35.1660 N   0  0  0  0  0  0  0  0  0  0  0  0
   42.3690   20.9480   35.8730 C   0  0  0  0  0  0  0  0  0  0  0  0
   42.0730   20.8800   37.1740 N   0  0  0  0  0  0  0  0  0  0  0  0
   43.3510   20.1740   35.0920 C   0  0  0  0  0  0  0  0  0  0  0  0
   42.9400   18.8970   34.8560 F   0  0  0  0  0  0  0  0  0  0  0  0
   44.5950   20.1610   35.7460 F   0  0  0  0  0  0  0  0  0  0  0  0
   43.6120   20.8200   33.8690 F   0  0  0  0  0  0  0  0  0  0  0  0
   42.9250   24.3270   35.1300 C   0  0  0  0  0  0  0  0  0  0  0  0
   44.1730   24.3410   34.2810 C   0  0  0  0  0  0  0  0  0  0  0  0
   45.1580   23.5890   35.1060 C   0  0  0  0  0  0  0  0  0  0  0  0
   44.7290   23.9040   36.5400 C   0  0  0  0  0  0  0  0  0  0  0  0
   43.7200   25.0490   36.2810 C   0  0  0  0  0  0  0  0  0  0  0  0
   36.9735   24.1895   33.6981 H   0  0  0  0  0  0  0  0  0  0  0  0
   39.7348   27.8445   32.8117 H   0  0  0  0  0  0  0  0  0  0  0  0
   42.1089   28.3740   33.2910 H   0  0  0  0  0  0  0  0  0  0  0  0
   43.4731   26.6443   34.4483 H   0  0  0  0  0  0  0  0  0  0  0  0
   40.9107   21.6784   38.7520 H   0  0  0  0  0  0  0  0  0  0  0  0
   39.7736   23.3493   37.3466 H   0  0  0  0  0  0  0  0  0  0  0  0
   42.3771   23.3887   35.3014 H   0  0  0  0  0  0  0  0  0  0  0  0
   44.5150   25.3708   34.1005 H   0  0  0  0  0  0  0  0  0  0  0  0
   44.0205   23.8999   33.2849 H   0  0  0  0  0  0  0  0  0  0  0  0
   45.0978   22.5092   34.9048 H   0  0  0  0  0  0  0  0  0  0  0  0
   46.2002   23.8718   34.8964 H   0  0  0  0  0  0  0  0  0  0  0  0
   44.2486   23.0390   37.0205 H   0  0  0  0  0  0  0  0  0  0  0  0
   45.5532   24.1617   37.2213 H   0  0  0  0  0  0  0  0  0  0  0  0
   44.2082   25.9746   35.9419 H   0  0  0  0  0  0  0  0  0  0  0  0
   43.1358   25.4020   37.1436 H   0  0  0  0  0  0  0  0  0  0  0  0
  1 13  1  0
  2  1  2  0
  3  2  1  0
  4  5  1  0
  4  3  2  0
  5 10  2  0
  6  7  2  0
  6  5  1  0
  7  8  1  0
  8  9  2  0
  9 21  1  0
 10  9  1  0
 10  1  1  0
 12 11  2  0
 13 12  1  0
 14 13  2  0
 14 15  1  0
 15 16  2  0
 16 11  1  0
 17 19  1  0
 17 15  1  0
 18 17  1  0
 20 17  1  0
 21 25  1  0
 22 23  1  0
 22 21  1  0
 23 24  1  0
 25 24  1  0
  3 26  1  0
  6 27  1  0
  7 28  1  0
  8 29  1  0
 11 30  1  0
 12 31  1  0
 21 32  1  0
 22 33  1  0
 22 34  1  0
 23 35  1  0
 23 36  1  0
 24 37  1  0
 24 38  1  0
 25 39  1  0
 25 40  1  0
M  ISO  8  26  14  27  14  28  14  29  14  30  14  31  14  32  13  33  13
M  ISO  7  34  13  35  13  36  13  37  13  38  13  39  13  40  13
M  END
>  <minimizedAffinity>  (1) 
-4.51719809

>  <minimizedRMSD>  (1) 
1.55398166

$$$$
