
     RDKit          3D

 29 31  0  0  0  0  0  0  0  0999 V2000
   38.1030   23.5080   34.2780 C   0  0  0  0  0  0  0  0  0  0  0  0
   37.4770   22.4930   33.6380 N   0  0  0  0  0  0  0  0  0  0  0  0
   36.7510   22.6550   32.5340 C   0  0  0  0  0  0  0  0  0  0  0  0
   36.5800   23.8810   31.9530 N   0  0  0  0  0  0  0  0  0  0  0  0
   37.1700   24.9630   32.5230 C   0  0  0  0  0  0  0  0  0  0  0  0
   37.0220   26.2030   31.9740 C   0  0  0  0  0  0  0  0  0  0  0  0
   37.6200   27.3080   32.5500 C   0  0  0  0  0  0  0  0  0  0  0  0
   38.3720   27.0960   33.7030 C   0  0  0  0  0  0  0  0  0  0  0  0
   38.4840   25.8190   34.2100 C   0  0  0  0  0  0  0  0  0  0  0  0
   37.9040   24.7190   33.6610 C   0  0  0  0  0  0  0  0  0  0  0  0
   38.7600   23.0320   37.8600 C   0  0  0  0  0  0  0  0  0  0  0  0
   38.0980   23.2630   36.6630 C   0  0  0  0  0  0  0  0  0  0  0  0
   38.8700   23.2670   35.4740 C   0  0  0  0  0  0  0  0  0  0  0  0
   40.1770   23.0390   35.6700 N   0  0  0  0  0  0  0  0  0  0  0  0
   40.8130   22.8180   36.7950 C   0  0  0  0  0  0  0  0  0  0  0  0
   40.0930   22.8130   37.9310 N   0  0  0  0  0  0  0  0  0  0  0  0
   42.2580   22.6090   36.6070 C   0  0  0  0  0  0  0  0  0  0  0  0
   42.7170   21.5040   37.2860 F   0  0  0  0  0  0  0  0  0  0  0  0
   42.9730   23.7350   37.0290 F   0  0  0  0  0  0  0  0  0  0  0  0
   42.5530   22.4880   35.2470 F   0  0  0  0  0  0  0  0  0  0  0  0
   39.3040   25.8470   35.3750 N   0  0  0  0  0  0  0  0  0  0  0  0
   36.2743   21.7762   32.0753 H   0  0  0  0  0  0  0  0  0  0  0  0
   36.4194   26.3250   31.0618 H   0  0  0  0  0  0  0  0  0  0  0  0
   37.5068   28.3124   32.1161 H   0  0  0  0  0  0  0  0  0  0  0  0
   38.8712   27.9386   34.2037 H   0  0  0  0  0  0  0  0  0  0  0  0
   38.1756   23.0267   38.7919 H   0  0  0  0  0  0  0  0  0  0  0  0
   37.0121   23.4370   36.6373 H   0  0  0  0  0  0  0  0  0  0  0  0
   39.4981   24.9759   35.8892 H   0  0  0  0  0  0  0  0  0  0  0  0
   39.7026   26.7383   35.7029 H   0  0  0  0  0  0  0  0  0  0  0  0
  1 13  1  0
  2  1  2  0
  3  2  1  0
  4  5  1  0
  4  3  2  0
  5 10  2  0
  6  5  1  0
  6  7  2  0
  7  8  1  0
  8  9  2  0
  9 21  1  0
 10  9  1  0
 10  1  1  0
 11 16  2  0
 12 11  1  0
 13 14  1  0
 13 12  2  0
 14 15  2  0
 15 16  1  0
 17 15  1  0
 17 19  1  0
 17 18  1  0
 20 17  1  0
  3 22  1  0
  6 23  1  0
  7 24  1  0
  8 25  1  0
 11 26  1  0
 12 27  1  0
 21 28  1  0
 21 29  1  0
M  ISO  6  22  14  23  14  24  14  25  14  26  14  27  14
M  END
>  <minimizedAffinity>  (1) 
-5.01826191

>  <minimizedRMSD>  (1) 
2.08715248

$$$$
