
     RDKit          3D

 41 45  0  0  0  0  0  0  0  0999 V2000
   38.1070   22.8500   31.2170 C   0  0  0  0  0  0  0  0  0  0  0  0
   37.5920   21.5990   31.1910 N   0  0  0  0  0  0  0  0  0  0  0  0
   36.2870   21.3350   31.1260 C   0  0  0  0  0  0  0  0  0  0  0  0
   35.3590   22.3340   31.0820 N   0  0  0  0  0  0  0  0  0  0  0  0
   35.7840   23.6220   31.1030 C   0  0  0  0  0  0  0  0  0  0  0  0
   34.8720   24.6440   31.0540 C   0  0  0  0  0  0  0  0  0  0  0  0
   35.2950   25.9610   31.0670 C   0  0  0  0  0  0  0  0  0  0  0  0
   36.6640   26.1850   31.1330 C   0  0  0  0  0  0  0  0  0  0  0  0
   37.5320   25.1100   31.1810 C   0  0  0  0  0  0  0  0  0  0  0  0
   37.1420   23.8140   31.1690 C   0  0  0  0  0  0  0  0  0  0  0  0
   38.8280   25.7760   31.2450 C   0  0  0  0  0  0  0  0  0  0  0  0
   39.5620   26.0960   30.0870 C   0  0  0  0  0  0  0  0  0  0  0  0
   40.7170   26.7400   30.3330 N   0  0  0  0  0  0  0  0  0  0  0  0
   40.7790   26.8670   31.6700 C   0  0  0  0  0  0  0  0  0  0  0  0
   41.7030   27.4360   32.5210 C   0  0  0  0  0  0  0  0  0  0  0  0
   41.4590   27.4070   33.8970 C   0  0  0  0  0  0  0  0  0  0  0  0
   40.3110   26.8220   34.4450 C   0  0  0  0  0  0  0  0  0  0  0  0
   39.3780   26.2480   33.6050 C   0  0  0  0  0  0  0  0  0  0  0  0
   39.6670   26.3030   32.2500 C   0  0  0  0  0  0  0  0  0  0  0  0
   41.5470   23.2540   30.0180 C   0  0  0  0  0  0  0  0  0  0  0  0
   40.1830   23.0680   30.0520 C   0  0  0  0  0  0  0  0  0  0  0  0
   39.5290   23.0490   31.2930 C   0  0  0  0  0  0  0  0  0  0  0  0
   40.3610   23.2270   32.3330 N   0  0  0  0  0  0  0  0  0  0  0  0
   41.6570   23.4060   32.3270 C   0  0  0  0  0  0  0  0  0  0  0  0
   42.2810   23.4220   31.1410 N   0  0  0  0  0  0  0  0  0  0  0  0
   42.2170   23.5590   33.6930 C   0  0  0  0  0  0  0  0  0  0  0  0
   43.0600   24.6280   33.7940 F   0  0  0  0  0  0  0  0  0  0  0  0
   42.9020   22.3860   34.0560 F   0  0  0  0  0  0  0  0  0  0  0  0
   41.1830   23.6620   34.6250 F   0  0  0  0  0  0  0  0  0  0  0  0
   35.9507   20.2878   31.1074 H   0  0  0  0  0  0  0  0  0  0  0  0
   33.7971   24.4156   31.0040 H   0  0  0  0  0  0  0  0  0  0  0  0
   34.5783   26.7945   31.0268 H   0  0  0  0  0  0  0  0  0  0  0  0
   37.0558   27.2128   31.1470 H   0  0  0  0  0  0  0  0  0  0  0  0
   39.2215   25.8422   29.0723 H   0  0  0  0  0  0  0  0  0  0  0  0
   41.4081   27.0669   29.6427 H   0  0  0  0  0  0  0  0  0  0  0  0
   42.6157   27.9043   32.1240 H   0  0  0  0  0  0  0  0  0  0  0  0
   42.1968   27.8609   34.5750 H   0  0  0  0  0  0  0  0  0  0  0  0
   40.1542   26.8198   35.5338 H   0  0  0  0  0  0  0  0  0  0  0  0
   38.4611   25.7757   33.9873 H   0  0  0  0  0  0  0  0  0  0  0  0
   42.0571   23.2663   29.0435 H   0  0  0  0  0  0  0  0  0  0  0  0
   39.6144   22.9362   29.1196 H   0  0  0  0  0  0  0  0  0  0  0  0
  1 22  1  0
  2  1  2  0
  3  2  1  0
  4  5  1  0
  4  3  2  0
  5 10  2  0
  6  7  2  0
  6  5  1  0
  7  8  1  0
  8  9  2  0
  9 11  1  0
 10  9  1  0
 10  1  1  0
 11 19  1  0
 12 13  1  0
 12 11  2  0
 13 14  1  0
 14 19  2  0
 14 15  1  0
 15 16  2  0
 16 17  1  0
 18 17  2  0
 19 18  1  0
 20 21  2  0
 20 25  1  0
 21 22  1  0
 22 23  2  0
 24 23  1  0
 24 26  1  0
 25 24  2  0
 26 27  1  0
 26 28  1  0
 26 29  1  0
  3 30  1  0
  6 31  1  0
  7 32  1  0
  8 33  1  0
 12 34  1  0
 13 35  1  0
 15 36  1  0
 16 37  1  0
 17 38  1  0
 18 39  1  0
 20 40  1  0
 21 41  1  0
M  ISO  8  30  14  31  14  32  14  33  14  34  14  35   9  36  14  37  14
M  ISO  4  38  14  39  14  40  14  41  14
M  END
>  <minimizedAffinity>  (1) 
-4.81741095

>  <minimizedRMSD>  (1) 
5.0779438

$$$$
