
     RDKit          3D

 45 50  0  0  0  0  0  0  0  0999 V2000
   38.1440   23.2200   35.0000 C   0  0  0  0  0  0  0  0  0  0  0  0
   38.4080   22.5830   36.1720 N   0  0  0  0  0  0  0  0  0  0  0  0
   38.5770   23.2080   37.3310 C   0  0  0  0  0  0  0  0  0  0  0  0
   38.5000   24.5510   37.4330 N   0  0  0  0  0  0  0  0  0  0  0  0
   38.2380   25.2900   36.3010 C   0  0  0  0  0  0  0  0  0  0  0  0
   38.1570   26.6440   36.3760 C   0  0  0  0  0  0  0  0  0  0  0  0
   37.8970   27.3950   35.2520 C   0  0  0  0  0  0  0  0  0  0  0  0
   37.7270   26.6970   34.0660 C   0  0  0  0  0  0  0  0  0  0  0  0
   37.8180   25.3210   34.0390 C   0  0  0  0  0  0  0  0  0  0  0  0
   38.0730   24.5860   35.1410 C   0  0  0  0  0  0  0  0  0  0  0  0
   37.5930   24.9430   32.6110 C   0  0  0  0  0  0  0  0  0  0  0  0
   36.5540   24.5600   31.8800 N   0  0  0  0  0  0  0  0  0  0  0  0
   36.9620   24.3660   30.6810 O   0  0  0  0  0  0  0  0  0  0  0  0
   38.2450   24.6020   30.5710 C   0  0  0  0  0  0  0  0  0  0  0  0
   38.6990   24.9760   31.7760 N   0  0  0  0  0  0  0  0  0  0  0  0
   39.1170   24.5170   29.4270 N   0  0  0  0  0  0  0  0  0  0  0  0
   39.4160   23.4890   28.6100 C   0  0  0  0  0  0  0  0  0  0  0  0
   40.3020   23.9560   27.6850 N   0  0  0  0  0  0  0  0  0  0  0  0
   40.5240   25.2530   27.9570 C   0  0  0  0  0  0  0  0  0  0  0  0
   41.3440   26.1600   27.3050 C   0  0  0  0  0  0  0  0  0  0  0  0
   41.4050   27.4200   27.7660 N   0  0  0  0  0  0  0  0  0  0  0  0
   40.6710   27.7900   28.8540 C   0  0  0  0  0  0  0  0  0  0  0  0
   39.8800   26.9050   29.4800 N   0  0  0  0  0  0  0  0  0  0  0  0
   39.7940   25.6380   29.0480 C   0  0  0  0  0  0  0  0  0  0  0  0
   42.1290   25.8430   26.1740 N   0  0  0  0  0  0  0  0  0  0  0  0
   39.1040   21.3940   31.9570 C   0  0  0  0  0  0  0  0  0  0  0  0
   39.1900   22.1170   33.1360 C   0  0  0  0  0  0  0  0  0  0  0  0
   37.9730   22.4640   33.7830 C   0  0  0  0  0  0  0  0  0  0  0  0
   36.8600   22.0390   33.1580 N   0  0  0  0  0  0  0  0  0  0  0  0
   36.7990   21.3490   32.0320 C   0  0  0  0  0  0  0  0  0  0  0  0
   37.9380   21.0190   31.4190 N   0  0  0  0  0  0  0  0  0  0  0  0
   35.4000   21.0650   31.6480 C   0  0  0  0  0  0  0  0  0  0  0  0
   35.1570   19.7500   31.4060 F   0  0  0  0  0  0  0  0  0  0  0  0
   35.0680   21.8150   30.4950 F   0  0  0  0  0  0  0  0  0  0  0  0
   34.5220   21.5600   32.6180 F   0  0  0  0  0  0  0  0  0  0  0  0
   38.7856   22.6143   38.2332 H   0  0  0  0  0  0  0  0  0  0  0  0
   38.3006   27.1453   37.3446 H   0  0  0  0  0  0  0  0  0  0  0  0
   37.8277   28.4921   35.2926 H   0  0  0  0  0  0  0  0  0  0  0  0
   37.5173   27.2467   33.1365 H   0  0  0  0  0  0  0  0  0  0  0  0
   39.0198   22.4650   28.6765 H   0  0  0  0  0  0  0  0  0  0  0  0
   40.7279   28.8249   29.2224 H   0  0  0  0  0  0  0  0  0  0  0  0
   42.1127   24.8887   25.7869 H   0  0  0  0  0  0  0  0  0  0  0  0
   42.7176   26.5662   25.7365 H   0  0  0  0  0  0  0  0  0  0  0  0
   40.0350   21.1163   31.4410 H   0  0  0  0  0  0  0  0  0  0  0  0
   40.1634   22.4113   33.5554 H   0  0  0  0  0  0  0  0  0  0  0  0
  1 10  1  0
  1  2  2  0
  2  3  1  0
  3  4  2  0
  5  6  2  0
  5  4  1  0
  7  6  1  0
  8  7  2  0
  9  8  1  0
  9 10  2  0
 10  5  1  0
 11  9  1  0
 12 11  2  0
 13 12  1  0
 14 13  1  0
 14 15  2  0
 15 11  1  0
 16 14  1  0
 17 16  1  0
 18 19  1  0
 18 17  2  0
 19 24  2  0
 20 21  2  0
 20 19  1  0
 21 22  1  0
 22 23  2  0
 24 16  1  0
 24 23  1  0
 25 20  1  0
 26 27  2  0
 27 28  1  0
 28  1  1  0
 29 28  2  0
 30 29  1  0
 31 26  1  0
 31 30  2  0
 32 30  1  0
 32 35  1  0
 33 32  1  0
 34 32  1  0
  3 36  1  0
  6 37  1  0
  7 38  1  0
  8 39  1  0
 17 40  1  0
 22 41  1  0
 25 42  1  0
 25 43  1  0
 26 44  1  0
 27 45  1  0
M  ISO  8  36  14  37  14  38  14  39  14  40  14  41  14  44  14  45  14
M  END
>  <minimizedAffinity>  (1) 
-6.71351719

>  <minimizedRMSD>  (1) 
0.840201914

$$$$
