
     RDKit          3D

 36 39  0  0  0  0  0  0  0  0999 V2000
   38.6050   25.0610   35.0250 N   0  0  0  0  0  0  0  0  0  0  0  0
   39.5170   24.3370   34.3180 C   0  0  0  0  0  0  0  0  0  0  0  0
   40.0400   23.3870   35.1500 N   0  0  0  0  0  0  0  0  0  0  0  0
   39.4680   23.5190   36.3410 C   0  0  0  0  0  0  0  0  0  0  0  0
   39.5590   22.8870   37.5660 C   0  0  0  0  0  0  0  0  0  0  0  0
   38.8290   23.2360   38.6670 N   0  0  0  0  0  0  0  0  0  0  0  0
   37.9500   24.2750   38.5580 C   0  0  0  0  0  0  0  0  0  0  0  0
   37.8350   24.9110   37.3820 N   0  0  0  0  0  0  0  0  0  0  0  0
   38.5590   24.5620   36.2980 C   0  0  0  0  0  0  0  0  0  0  0  0
   37.7930   27.3310   35.2770 C   0  0  0  0  0  0  0  0  0  0  0  0
   37.8520   26.1360   34.5030 C   0  0  0  0  0  0  0  0  0  0  0  0
   37.1640   26.1280   33.3010 C   0  0  0  0  0  0  0  0  0  0  0  0
   36.4700   27.2360   32.9060 N   0  0  0  0  0  0  0  0  0  0  0  0
   36.4430   28.3490   33.6740 C   0  0  0  0  0  0  0  0  0  0  0  0
   37.0970   28.3910   34.8420 N   0  0  0  0  0  0  0  0  0  0  0  0
   35.6890   29.5590   33.2480 C   0  0  0  0  0  0  0  0  0  0  0  0
   34.4100   29.0840   32.5930 C   0  0  0  0  0  0  0  0  0  0  0  0
   33.3450   29.2100   33.6440 C   0  0  0  0  0  0  0  0  0  0  0  0
   33.9510   29.8360   34.8570 C   0  0  0  0  0  0  0  0  0  0  0  0
   35.2770   30.4110   34.4170 C   0  0  0  0  0  0  0  0  0  0  0  0
   40.4550   21.8050   37.7360 N   0  0  0  0  0  0  0  0  0  0  0  0
   39.7855   24.4901   33.2623 H   0  0  0  0  0  0  0  0  0  0  0  0
   37.3446   24.5864   39.4220 H   0  0  0  0  0  0  0  0  0  0  0  0
   38.3230   27.3842   36.2394 H   0  0  0  0  0  0  0  0  0  0  0  0
   37.1765   25.2304   32.6653 H   0  0  0  0  0  0  0  0  0  0  0  0
   36.3350   30.1504   32.5825 H   0  0  0  0  0  0  0  0  0  0  0  0
   34.1676   29.7130   31.7238 H   0  0  0  0  0  0  0  0  0  0  0  0
   34.5002   28.0503   32.2278 H   0  0  0  0  0  0  0  0  0  0  0  0
   32.5264   29.8421   33.2694 H   0  0  0  0  0  0  0  0  0  0  0  0
   32.9406   28.2178   33.8929 H   0  0  0  0  0  0  0  0  0  0  0  0
   33.2981   30.6337   35.2410 H   0  0  0  0  0  0  0  0  0  0  0  0
   34.0812   29.1008   35.6648 H   0  0  0  0  0  0  0  0  0  0  0  0
   36.0179   30.3435   35.2273 H   0  0  0  0  0  0  0  0  0  0  0  0
   35.2033   31.4761   34.1523 H   0  0  0  0  0  0  0  0  0  0  0  0
   40.5244   21.3323   38.6485 H   0  0  0  0  0  0  0  0  0  0  0  0
   41.0377   21.4901   36.9472 H   0  0  0  0  0  0  0  0  0  0  0  0
  1  9  1  0
  2  1  1  0
  2  3  2  0
  3  4  1  0
  4  5  2  0
  5 21  1  0
  5  6  1  0
  7  6  2  0
  8  7  1  0
  9  4  1  0
  9  8  2  0
 11  1  1  0
 11 10  2  0
 12 11  1  0
 13 12  2  0
 13 14  1  0
 14 15  2  0
 15 10  1  0
 16 14  1  0
 16 20  1  0
 17 16  1  0
 17 18  1  0
 18 19  1  0
 20 19  1  0
  2 22  1  0
  7 23  1  0
 10 24  1  0
 12 25  1  0
 16 26  1  0
 17 27  1  0
 17 28  1  0
 18 29  1  0
 18 30  1  0
 19 31  1  0
 19 32  1  0
 20 33  1  0
 20 34  1  0
 21 35  1  0
 21 36  1  0
M  ISO  8  22  14  23  14  24  14  25  14  26  13  27  13  28  13  29  13
M  ISO  5  30  13  31  13  32  13  33  13  34  13
M  END
>  <minimizedAffinity>  (1) 
-5.79940557

>  <minimizedRMSD>  (1) 
1.33822334

$$$$
