
     RDKit          3D

 42 46  0  0  0  0  0  0  0  0999 V2000
   38.1000   23.1240   35.1280 C   0  0  0  0  0  0  0  0  0  0  0  0
   38.3360   22.5640   36.3440 N   0  0  0  0  0  0  0  0  0  0  0  0
   38.5210   23.2730   37.4600 C   0  0  0  0  0  0  0  0  0  0  0  0
   38.4860   24.6240   37.4600 N   0  0  0  0  0  0  0  0  0  0  0  0
   38.2520   25.2840   36.2740 C   0  0  0  0  0  0  0  0  0  0  0  0
   38.2140   26.6370   36.2500 C   0  0  0  0  0  0  0  0  0  0  0  0
   37.9830   27.3090   35.0700 C   0  0  0  0  0  0  0  0  0  0  0  0
   37.7970   26.5330   33.9330 C   0  0  0  0  0  0  0  0  0  0  0  0
   37.8470   25.1560   34.0190 C   0  0  0  0  0  0  0  0  0  0  0  0
   38.0720   24.4850   35.1690 C   0  0  0  0  0  0  0  0  0  0  0  0
   39.0050   20.9820   32.2820 C   0  0  0  0  0  0  0  0  0  0  0  0
   39.1130   21.7930   33.4030 C   0  0  0  0  0  0  0  0  0  0  0  0
   37.9100   22.2840   33.9740 C   0  0  0  0  0  0  0  0  0  0  0  0
   36.7840   21.8890   33.3380 N   0  0  0  0  0  0  0  0  0  0  0  0
   36.7010   21.1160   32.2700 C   0  0  0  0  0  0  0  0  0  0  0  0
   37.8370   20.6540   31.7350 N   0  0  0  0  0  0  0  0  0  0  0  0
   35.3020   20.9060   31.8560 C   0  0  0  0  0  0  0  0  0  0  0  0
   34.9410   19.5980   31.8050 F   0  0  0  0  0  0  0  0  0  0  0  0
   35.0920   21.4900   30.5830 F   0  0  0  0  0  0  0  0  0  0  0  0
   34.4350   21.6390   32.6790 F   0  0  0  0  0  0  0  0  0  0  0  0
   37.6140   24.6770   32.6180 C   0  0  0  0  0  0  0  0  0  0  0  0
   36.5670   24.3130   31.8900 N   0  0  0  0  0  0  0  0  0  0  0  0
   36.9780   23.9910   30.7240 O   0  0  0  0  0  0  0  0  0  0  0  0
   38.2760   24.1200   30.6250 C   0  0  0  0  0  0  0  0  0  0  0  0
   38.7300   24.5550   31.8040 N   0  0  0  0  0  0  0  0  0  0  0  0
   39.1570   23.8650   29.4870 C   0  0  0  0  0  0  0  0  0  0  0  0
   39.4590   22.5970   29.0310 C   0  0  0  0  0  0  0  0  0  0  0  0
   40.2760   22.3250   27.9750 C   0  0  0  0  0  0  0  0  0  0  0  0
   40.8540   23.3920   27.3000 C   0  0  0  0  0  0  0  0  0  0  0  0
   40.5860   24.6980   27.7160 C   0  0  0  0  0  0  0  0  0  0  0  0
   39.7480   24.9010   28.7940 C   0  0  0  0  0  0  0  0  0  0  0  0
   38.7071   22.7429   38.4057 H   0  0  0  0  0  0  0  0  0  0  0  0
   38.3688   27.2040   37.1798 H   0  0  0  0  0  0  0  0  0  0  0  0
   37.9475   28.4077   35.0300 H   0  0  0  0  0  0  0  0  0  0  0  0
   37.6096   27.0163   32.9628 H   0  0  0  0  0  0  0  0  0  0  0  0
   39.9266   20.5926   31.8249 H   0  0  0  0  0  0  0  0  0  0  0  0
   40.0936   22.0456   33.8326 H   0  0  0  0  0  0  0  0  0  0  0  0
   39.0070   21.7443   29.5588 H   0  0  0  0  0  0  0  0  0  0  0  0
   40.4724   21.2879   27.6655 H   0  0  0  0  0  0  0  0  0  0  0  0
   41.5189   23.2097   26.4429 H   0  0  0  0  0  0  0  0  0  0  0  0
   41.0367   25.5535   27.1916 H   0  0  0  0  0  0  0  0  0  0  0  0
   39.5427   25.9332   29.1141 H   0  0  0  0  0  0  0  0  0  0  0  0
  1 10  1  0
  1  2  2  0
  2  3  1  0
  4  3  2  0
  5  4  1  0
  6  5  2  0
  7  6  1  0
  8  9  1  0
  8  7  2  0
  9 10  2  0
 10  5  1  0
 11 12  2  0
 12 13  1  0
 13  1  1  0
 14 13  2  0
 15 14  1  0
 16 15  2  0
 16 11  1  0
 17 15  1  0
 17 20  1  0
 18 17  1  0
 19 17  1  0
 21  9  1  0
 22 21  2  0
 23 22  1  0
 24 23  1  0
 24 25  2  0
 25 21  1  0
 26 24  1  0
 27 26  2  0
 28 27  1  0
 29 30  1  0
 29 28  2  0
 30 31  2  0
 31 26  1  0
  3 32  1  0
  6 33  1  0
  7 34  1  0
  8 35  1  0
 11 36  1  0
 12 37  1  0
 27 38  1  0
 28 39  1  0
 29 40  1  0
 30 41  1  0
 31 42  1  0
M  ISO  8  32  14  33  14  34  14  35  14  36  14  37  14  38  14  39  14
M  ISO  3  40  14  41  14  42  14
M  END
>  <minimizedAffinity>  (1) 
-6.20654392

>  <minimizedRMSD>  (1) 
0.353041291

$$$$
