
     RDKit          3D

 35 38  0  0  0  0  0  0  0  0999 V2000
   38.1050   23.1240   35.1140 C   0  0  0  0  0  0  0  0  0  0  0  0
   38.3670   22.5580   36.3210 N   0  0  0  0  0  0  0  0  0  0  0  0
   38.5630   23.2550   37.4390 C   0  0  0  0  0  0  0  0  0  0  0  0
   38.5180   24.6030   37.4520 N   0  0  0  0  0  0  0  0  0  0  0  0
   38.2600   25.2670   36.2770 C   0  0  0  0  0  0  0  0  0  0  0  0
   38.2100   26.6290   36.2630 C   0  0  0  0  0  0  0  0  0  0  0  0
   37.9550   27.3060   35.0910 C   0  0  0  0  0  0  0  0  0  0  0  0
   37.7550   26.5390   33.9540 C   0  0  0  0  0  0  0  0  0  0  0  0
   37.8160   25.1630   34.0190 C   0  0  0  0  0  0  0  0  0  0  0  0
   38.0670   24.4830   35.1660 C   0  0  0  0  0  0  0  0  0  0  0  0
   39.0050   21.0200   32.2330 C   0  0  0  0  0  0  0  0  0  0  0  0
   39.1130   21.8210   33.3610 C   0  0  0  0  0  0  0  0  0  0  0  0
   37.9060   22.2920   33.9520 C   0  0  0  0  0  0  0  0  0  0  0  0
   36.7790   21.8950   33.3290 N   0  0  0  0  0  0  0  0  0  0  0  0
   36.6990   21.1290   32.2500 C   0  0  0  0  0  0  0  0  0  0  0  0
   37.8330   20.6860   31.6940 N   0  0  0  0  0  0  0  0  0  0  0  0
   35.2980   20.9090   31.8510 C   0  0  0  0  0  0  0  0  0  0  0  0
   34.9500   19.5980   31.8000 F   0  0  0  0  0  0  0  0  0  0  0  0
   35.0760   21.4870   30.5780 F   0  0  0  0  0  0  0  0  0  0  0  0
   34.4360   21.6300   32.6930 F   0  0  0  0  0  0  0  0  0  0  0  0
   37.5730   24.6970   32.6210 C   0  0  0  0  0  0  0  0  0  0  0  0
   36.5160   24.3310   31.9070 N   0  0  0  0  0  0  0  0  0  0  0  0
   36.9260   24.0220   30.7280 O   0  0  0  0  0  0  0  0  0  0  0  0
   38.2230   24.1640   30.6160 C   0  0  0  0  0  0  0  0  0  0  0  0
   38.6800   24.5930   31.7960 N   0  0  0  0  0  0  0  0  0  0  0  0
   39.0320   23.9060   29.4300 C   0  0  0  0  0  0  0  0  0  0  0  0
   39.5520   22.7710   29.2420 O   0  0  0  0  0  0  0  0  0  0  0  0
   39.2440   24.8920   28.4940 O   0  0  0  0  0  0  0  0  0  0  0  0
   38.7670   22.7170   38.3765 H   0  0  0  0  0  0  0  0  0  0  0  0
   38.3744   27.1913   37.1940 H   0  0  0  0  0  0  0  0  0  0  0  0
   37.9121   28.4047   35.0588 H   0  0  0  0  0  0  0  0  0  0  0  0
   37.5461   27.0315   32.9929 H   0  0  0  0  0  0  0  0  0  0  0  0
   39.9263   20.6447   31.7637 H   0  0  0  0  0  0  0  0  0  0  0  0
   40.0946   22.0825   33.7830 H   0  0  0  0  0  0  0  0  0  0  0  0
   39.7951   24.7042   27.6933 H   0  0  0  0  0  0  0  0  0  0  0  0
  1 10  1  0
  1  2  2  0
  2  3  1  0
  3  4  2  0
  5  4  1  0
  6  5  2  0
  7  6  1  0
  8  9  1  0
  8  7  2  0
  9 10  2  0
 10  5  1  0
 11 12  2  0
 12 13  1  0
 13  1  1  0
 14 13  2  0
 15 14  1  0
 16 11  1  0
 16 15  2  0
 17 15  1  0
 17 20  1  0
 18 17  1  0
 19 17  1  0
 21  9  1  0
 22 21  2  0
 23 22  1  0
 24 23  1  0
 24 25  2  0
 25 21  1  0
 26 24  1  0
 27 26  2  0
 28 26  1  0
  3 29  1  0
  6 30  1  0
  7 31  1  0
  8 32  1  0
 11 33  1  0
 12 34  1  0
 28 35  1  0
M  ISO  7  29  14  30  14  31  14  32  14  33  14  34  14  35   3
M  END
>  <minimizedAffinity>  (1) 
-6.08844185

>  <minimizedRMSD>  (1) 
0.345256567

$$$$
