
     RDKit          3D

 44 47  0  0  0  0  0  0  0  0999 V2000
   38.0030   23.0960   35.1520 C   0  0  0  0  0  0  0  0  0  0  0  0
   38.0580   22.5700   36.3960 N   0  0  0  0  0  0  0  0  0  0  0  0
   38.1600   23.3050   37.5080 C   0  0  0  0  0  0  0  0  0  0  0  0
   38.2160   24.6530   37.4640 N   0  0  0  0  0  0  0  0  0  0  0  0
   38.1660   25.2820   36.2410 C   0  0  0  0  0  0  0  0  0  0  0  0
   38.2240   26.6370   36.1700 C   0  0  0  0  0  0  0  0  0  0  0  0
   38.1780   27.2750   34.9490 C   0  0  0  0  0  0  0  0  0  0  0  0
   38.0730   26.4680   33.8270 C   0  0  0  0  0  0  0  0  0  0  0  0
   38.0190   25.1000   33.9580 C   0  0  0  0  0  0  0  0  0  0  0  0
   38.0620   24.4550   35.1470 C   0  0  0  0  0  0  0  0  0  0  0  0
   39.1210   20.8800   32.4380 C   0  0  0  0  0  0  0  0  0  0  0  0
   39.1380   21.7180   33.5410 C   0  0  0  0  0  0  0  0  0  0  0  0
   37.8910   22.2280   34.0060 C   0  0  0  0  0  0  0  0  0  0  0  0
   36.8150   21.8230   33.2970 N   0  0  0  0  0  0  0  0  0  0  0  0
   36.8230   21.0190   32.2420 C   0  0  0  0  0  0  0  0  0  0  0  0
   37.9920   20.5420   31.8080 N   0  0  0  0  0  0  0  0  0  0  0  0
   35.4610   20.8020   31.7240 C   0  0  0  0  0  0  0  0  0  0  0  0
   35.2360   19.5260   31.3110 F   0  0  0  0  0  0  0  0  0  0  0  0
   35.2180   21.6880   30.6480 F   0  0  0  0  0  0  0  0  0  0  0  0
   34.5120   21.1910   32.6800 F   0  0  0  0  0  0  0  0  0  0  0  0
   37.9320   24.5830   32.5510 C   0  0  0  0  0  0  0  0  0  0  0  0
   36.9590   24.2150   31.7270 N   0  0  0  0  0  0  0  0  0  0  0  0
   37.4990   23.8480   30.6160 O   0  0  0  0  0  0  0  0  0  0  0  0
   38.8020   23.9550   30.6590 C   0  0  0  0  0  0  0  0  0  0  0  0
   39.1250   24.4180   31.8680 N   0  0  0  0  0  0  0  0  0  0  0  0
   39.7680   23.6230   29.5600 C   0  0  0  0  0  0  0  0  0  0  0  0
   39.4480   22.2480   29.0090 C   0  0  0  0  0  0  0  0  0  0  0  0
   41.1330   23.4920   30.2240 C   0  0  0  0  0  0  0  0  0  0  0  0
   39.8230   24.6510   28.4820 C   0  0  0  0  0  0  0  0  0  0  0  0
   38.1993   22.7984   38.4836 H   0  0  0  0  0  0  0  0  0  0  0  0
   38.3083   27.2293   37.0931 H   0  0  0  0  0  0  0  0  0  0  0  0
   38.2225   28.3712   34.8690 H   0  0  0  0  0  0  0  0  0  0  0  0
   38.0327   26.9240   32.8268 H   0  0  0  0  0  0  0  0  0  0  0  0
   40.0745   20.4769   32.0661 H   0  0  0  0  0  0  0  0  0  0  0  0
   40.0819   21.9809   34.0410 H   0  0  0  0  0  0  0  0  0  0  0  0
   39.2851   21.5481   29.8418 H   0  0  0  0  0  0  0  0  0  0  0  0
   38.5385   22.3025   28.3926 H   0  0  0  0  0  0  0  0  0  0  0  0
   40.2881   21.8954   28.3926 H   0  0  0  0  0  0  0  0  0  0  0  0
   41.0116   23.5037   31.3172 H   0  0  0  0  0  0  0  0  0  0  0  0
   41.6007   22.5448   29.9171 H   0  0  0  0  0  0  0  0  0  0  0  0
   41.7723   24.3329   29.9171 H   0  0  0  0  0  0  0  0  0  0  0  0
   39.8766   25.6528   28.9331 H   0  0  0  0  0  0  0  0  0  0  0  0
   40.7134   24.4814   27.8587 H   0  0  0  0  0  0  0  0  0  0  0  0
   38.9196   24.5774   27.8587 H   0  0  0  0  0  0  0  0  0  0  0  0
  1  2  2  0
  2  3  1  0
  4  3  2  0
  5  4  1  0
  6  5  2  0
  7  6  1  0
  8  9  1  0
  8  7  2  0
  9 10  2  0
 10  1  1  0
 10  5  1  0
 11 12  2  0
 12 13  1  0
 13  1  1  0
 14 13  2  0
 15 14  1  0
 16 15  2  0
 16 11  1  0
 17 15  1  0
 17 20  1  0
 18 17  1  0
 19 17  1  0
 21  9  1  0
 22 21  2  0
 23 24  1  0
 23 22  1  0
 24 25  2  0
 25 21  1  0
 26 28  1  0
 26 24  1  0
 27 26  1  0
 29 26  1  0
  3 30  1  0
  6 31  1  0
  7 32  1  0
  8 33  1  0
 11 34  1  0
 12 35  1  0
 27 36  1  0
 27 37  1  0
 27 38  1  0
 28 39  1  0
 28 40  1  0
 28 41  1  0
 29 42  1  0
 29 43  1  0
 29 44  1  0
M  ISO  8  30  14  31  14  32  14  33  14  34  14  35  14  36   8  37   8
M  ISO  7  38   8  39   8  40   8  41   8  42   8  43   8  44   8
M  END
>  <minimizedAffinity>  (1) 
-5.96138525

>  <minimizedRMSD>  (1) 
0.349027961

$$$$
