
     RDKit          3D

 39 43  0  0  0  0  0  0  0  0999 V2000
   38.0910   23.1190   35.1400 C   0  0  0  0  0  0  0  0  0  0  0  0
   38.3330   22.5650   36.3460 N   0  0  0  0  0  0  0  0  0  0  0  0
   38.5280   23.2640   37.4590 C   0  0  0  0  0  0  0  0  0  0  0  0
   38.4950   24.6190   37.4590 N   0  0  0  0  0  0  0  0  0  0  0  0
   38.2560   25.2740   36.2750 C   0  0  0  0  0  0  0  0  0  0  0  0
   38.2140   26.6360   36.2440 C   0  0  0  0  0  0  0  0  0  0  0  0
   37.9710   27.3080   35.0680 C   0  0  0  0  0  0  0  0  0  0  0  0
   37.7750   26.5260   33.9430 C   0  0  0  0  0  0  0  0  0  0  0  0
   37.8270   25.1530   34.0240 C   0  0  0  0  0  0  0  0  0  0  0  0
   38.0650   24.4800   35.1760 C   0  0  0  0  0  0  0  0  0  0  0  0
   39.0060   20.9790   32.2880 C   0  0  0  0  0  0  0  0  0  0  0  0
   39.1030   21.7870   33.4110 C   0  0  0  0  0  0  0  0  0  0  0  0
   37.8920   22.2800   33.9810 C   0  0  0  0  0  0  0  0  0  0  0  0
   36.7710   21.8880   33.3430 N   0  0  0  0  0  0  0  0  0  0  0  0
   36.6970   21.1170   32.2750 C   0  0  0  0  0  0  0  0  0  0  0  0
   37.8330   20.6530   31.7360 N   0  0  0  0  0  0  0  0  0  0  0  0
   35.3030   20.9060   31.8540 C   0  0  0  0  0  0  0  0  0  0  0  0
   34.9420   19.5980   31.8090 F   0  0  0  0  0  0  0  0  0  0  0  0
   35.0970   21.4880   30.5800 F   0  0  0  0  0  0  0  0  0  0  0  0
   34.4340   21.6390   32.6720 F   0  0  0  0  0  0  0  0  0  0  0  0
   37.6000   24.6750   32.6190 C   0  0  0  0  0  0  0  0  0  0  0  0
   36.5490   24.3260   31.8930 N   0  0  0  0  0  0  0  0  0  0  0  0
   36.9760   23.9920   30.7220 O   0  0  0  0  0  0  0  0  0  0  0  0
   38.2740   24.1050   30.6350 C   0  0  0  0  0  0  0  0  0  0  0  0
   38.7220   24.5380   31.8200 N   0  0  0  0  0  0  0  0  0  0  0  0
   39.1050   23.8190   29.4710 C   0  0  0  0  0  0  0  0  0  0  0  0
   39.4900   22.5920   28.9880 C   0  0  0  0  0  0  0  0  0  0  0  0
   40.2760   22.7690   27.8610 C   0  0  0  0  0  0  0  0  0  0  0  0
   40.3540   24.0980   27.6820 N   0  0  0  0  0  0  0  0  0  0  0  0
   39.6570   24.7040   28.6400 N   0  0  0  0  0  0  0  0  0  0  0  0
   38.7206   22.7310   38.4018 H   0  0  0  0  0  0  0  0  0  0  0  0
   38.3765   27.2054   37.1710 H   0  0  0  0  0  0  0  0  0  0  0  0
   37.9345   28.4065   35.0244 H   0  0  0  0  0  0  0  0  0  0  0  0
   37.5756   27.0068   32.9740 H   0  0  0  0  0  0  0  0  0  0  0  0
   39.9300   20.5914   31.8340 H   0  0  0  0  0  0  0  0  0  0  0  0
   40.0808   22.0391   33.8474 H   0  0  0  0  0  0  0  0  0  0  0  0
   39.2170   21.6211   29.4272 H   0  0  0  0  0  0  0  0  0  0  0  0
   40.7389   21.9858   27.2427 H   0  0  0  0  0  0  0  0  0  0  0  0
   40.8695   24.5711   26.9261 H   0  0  0  0  0  0  0  0  0  0  0  0
  1 10  1  0
  1  2  2  0
  2  3  1  0
  4  3  2  0
  5  4  1  0
  6  5  2  0
  7  6  1  0
  8  9  1  0
  8  7  2  0
  9 10  2  0
 10  5  1  0
 11 12  2  0
 12 13  1  0
 13  1  1  0
 14 13  2  0
 15 14  1  0
 16 15  2  0
 16 11  1  0
 17 15  1  0
 17 20  1  0
 18 17  1  0
 19 17  1  0
 21  9  1  0
 22 21  2  0
 23 22  1  0
 24 23  1  0
 24 25  2  0
 25 21  1  0
 26 24  1  0
 27 26  1  0
 28 27  2  0
 29 28  1  0
 29 30  1  0
 30 26  2  0
  3 31  1  0
  6 32  1  0
  7 33  1  0
  8 34  1  0
 11 35  1  0
 12 36  1  0
 27 37  1  0
 28 38  1  0
 29 39  1  0
M  ISO  8  31  14  32  14  33  14  34  14  35  14  36  14  37  14  38  14
M  ISO  1  39   9
M  END
>  <minimizedAffinity>  (1) 
-6.06122875

>  <minimizedRMSD>  (1) 
0.360345691

$$$$
