
     RDKit          3D

 37 41  0  0  0  0  0  0  0  0999 V2000
   38.1210   23.1220   35.1170 C   0  0  0  0  0  0  0  0  0  0  0  0
   38.3840   22.5540   36.3170 N   0  0  0  0  0  0  0  0  0  0  0  0
   38.5770   23.2520   37.4410 C   0  0  0  0  0  0  0  0  0  0  0  0
   38.5190   24.6000   37.4570 N   0  0  0  0  0  0  0  0  0  0  0  0
   38.2570   25.2660   36.2830 C   0  0  0  0  0  0  0  0  0  0  0  0
   38.1980   26.6250   36.2760 C   0  0  0  0  0  0  0  0  0  0  0  0
   37.9400   27.3060   35.1090 C   0  0  0  0  0  0  0  0  0  0  0  0
   37.7470   26.5380   33.9680 C   0  0  0  0  0  0  0  0  0  0  0  0
   37.8170   25.1630   34.0280 C   0  0  0  0  0  0  0  0  0  0  0  0
   38.0700   24.4870   35.1720 C   0  0  0  0  0  0  0  0  0  0  0  0
   39.0050   21.0220   32.2360 C   0  0  0  0  0  0  0  0  0  0  0  0
   39.1100   21.8220   33.3640 C   0  0  0  0  0  0  0  0  0  0  0  0
   37.9250   22.2910   33.9560 C   0  0  0  0  0  0  0  0  0  0  0  0
   36.7870   21.8920   33.3320 N   0  0  0  0  0  0  0  0  0  0  0  0
   36.6970   21.1290   32.2570 C   0  0  0  0  0  0  0  0  0  0  0  0
   37.8250   20.6860   31.6990 N   0  0  0  0  0  0  0  0  0  0  0  0
   35.2960   20.9060   31.8580 C   0  0  0  0  0  0  0  0  0  0  0  0
   34.9410   19.6000   31.8210 F   0  0  0  0  0  0  0  0  0  0  0  0
   35.0670   21.4860   30.5880 F   0  0  0  0  0  0  0  0  0  0  0  0
   34.4330   21.6330   32.6940 F   0  0  0  0  0  0  0  0  0  0  0  0
   37.5690   24.6970   32.6310 C   0  0  0  0  0  0  0  0  0  0  0  0
   36.5160   24.3390   31.9080 N   0  0  0  0  0  0  0  0  0  0  0  0
   36.9170   24.0270   30.7370 O   0  0  0  0  0  0  0  0  0  0  0  0
   38.2110   24.1590   30.6310 C   0  0  0  0  0  0  0  0  0  0  0  0
   38.6810   24.5840   31.8090 N   0  0  0  0  0  0  0  0  0  0  0  0
   39.0950   23.9180   29.4930 C   0  0  0  0  0  0  0  0  0  0  0  0
   39.7780   24.7630   28.6980 N   0  0  0  0  0  0  0  0  0  0  0  0
   40.4470   24.1000   27.7980 O   0  0  0  0  0  0  0  0  0  0  0  0
   40.2510   22.8200   27.9410 C   0  0  0  0  0  0  0  0  0  0  0  0
   39.4260   22.7000   28.9750 N   0  0  0  0  0  0  0  0  0  0  0  0
   38.7885   22.7135   38.3766 H   0  0  0  0  0  0  0  0  0  0  0  0
   38.3577   27.1834   37.2102 H   0  0  0  0  0  0  0  0  0  0  0  0
   37.8891   28.4045   35.0809 H   0  0  0  0  0  0  0  0  0  0  0  0
   37.5364   27.0317   33.0078 H   0  0  0  0  0  0  0  0  0  0  0  0
   39.9262   20.6492   31.7643 H   0  0  0  0  0  0  0  0  0  0  0  0
   40.0931   22.0820   33.7834 H   0  0  0  0  0  0  0  0  0  0  0  0
   40.6788   22.0091   27.3332 H   0  0  0  0  0  0  0  0  0  0  0  0
  1 10  1  0
  1  2  2  0
  2  3  1  0
  3  4  2  0
  5  4  1  0
  6  5  2  0
  7  6  1  0
  8  9  1  0
  8  7  2  0
  9 10  2  0
 10  5  1  0
 11 12  2  0
 12 13  1  0
 13  1  1  0
 14 13  2  0
 15 14  1  0
 16 11  1  0
 16 15  2  0
 17 15  1  0
 17 20  1  0
 18 17  1  0
 19 17  1  0
 21  9  1  0
 22 21  2  0
 23 22  1  0
 24 23  1  0
 24 25  2  0
 25 21  1  0
 26 24  1  0
 27 26  2  0
 28 29  1  0
 28 27  1  0
 29 30  2  0
 30 26  1  0
  3 31  1  0
  6 32  1  0
  7 33  1  0
  8 34  1  0
 11 35  1  0
 12 36  1  0
 29 37  1  0
M  ISO  7  31  14  32  14  33  14  34  14  35  14  36  14  37  14
M  END
>  <minimizedAffinity>  (1) 
-6.01856518

>  <minimizedRMSD>  (1) 
0.411984742

$$$$
