
     RDKit          3D

 28 31  0  0  0  0  0  0  0  0999 V2000
   38.6810   24.6470   34.7450 N   0  0  0  0  0  0  0  0  0  0  0  0
   39.6460   23.8950   34.1660 C   0  0  0  0  0  0  0  0  0  0  0  0
   40.1810   23.0690   35.1050 N   0  0  0  0  0  0  0  0  0  0  0  0
   39.5550   23.3050   36.2540 C   0  0  0  0  0  0  0  0  0  0  0  0
   39.6300   22.8130   37.5410 C   0  0  0  0  0  0  0  0  0  0  0  0
   38.8440   23.2420   38.5740 N   0  0  0  0  0  0  0  0  0  0  0  0
   37.9200   24.2240   38.3220 C   0  0  0  0  0  0  0  0  0  0  0  0
   37.8350   24.7140   37.0720 N   0  0  0  0  0  0  0  0  0  0  0  0
   38.6080   24.2860   36.0690 C   0  0  0  0  0  0  0  0  0  0  0  0
   37.7420   26.8860   34.7120 C   0  0  0  0  0  0  0  0  0  0  0  0
   37.8850   25.6360   34.0830 C   0  0  0  0  0  0  0  0  0  0  0  0
   37.2500   25.4160   32.8520 C   0  0  0  0  0  0  0  0  0  0  0  0
   36.5120   26.4460   32.3200 N   0  0  0  0  0  0  0  0  0  0  0  0
   36.4010   27.6340   32.9590 C   0  0  0  0  0  0  0  0  0  0  0  0
   37.0060   27.8420   34.1290 N   0  0  0  0  0  0  0  0  0  0  0  0
   35.6190   28.7310   32.3990 C   0  0  0  0  0  0  0  0  0  0  0  0
   36.1250   29.2850   31.2880 N   0  0  0  0  0  0  0  0  0  0  0  0
   35.3580   30.2420   30.8780 O   0  0  0  0  0  0  0  0  0  0  0  0
   34.3370   30.3540   31.6870 C   0  0  0  0  0  0  0  0  0  0  0  0
   34.4830   29.4060   32.6570 N   0  0  0  0  0  0  0  0  0  0  0  0
   40.5630   21.7990   37.8670 N   0  0  0  0  0  0  0  0  0  0  0  0
   39.9481   23.9438   33.1094 H   0  0  0  0  0  0  0  0  0  0  0  0
   37.2653   24.6011   39.1215 H   0  0  0  0  0  0  0  0  0  0  0  0
   38.2321   27.0778   35.6779 H   0  0  0  0  0  0  0  0  0  0  0  0
   37.3396   24.4518   32.3301 H   0  0  0  0  0  0  0  0  0  0  0  0
   33.5134   31.0781   31.6014 H   0  0  0  0  0  0  0  0  0  0  0  0
   40.6138   21.4361   38.8296 H   0  0  0  0  0  0  0  0  0  0  0  0
   41.1908   21.4243   37.1415 H   0  0  0  0  0  0  0  0  0  0  0  0
  1  9  1  0
  2  1  1  0
  2  3  2  0
  3  4  1  0
  4  5  2  0
  5 21  1  0
  5  6  1  0
  7  6  2  0
  8  7  1  0
  9  4  1  0
  9  8  2  0
 11 10  2  0
 11  1  1  0
 12 11  1  0
 13 12  2  0
 13 14  1  0
 14 15  2  0
 15 10  1  0
 16 20  1  0
 16 14  1  0
 17 16  2  0
 18 17  1  0
 18 19  1  0
 19 20  2  0
  2 22  1  0
  7 23  1  0
 10 24  1  0
 12 25  1  0
 19 26  1  0
 21 27  1  0
 21 28  1  0
M  ISO  5  22  14  23  14  24  14  25  14  26  14
M  END
>  <minimizedAffinity>  (1) 
-5.77962208

>  <minimizedRMSD>  (1) 
0.737533033

$$$$
