
     RDKit          3D

 39 43  0  0  0  0  0  0  0  0999 V2000
   37.9920   23.1310   35.1730 C   0  0  0  0  0  0  0  0  0  0  0  0
   38.0330   22.5620   36.4020 N   0  0  0  0  0  0  0  0  0  0  0  0
   38.1350   23.2530   37.5380 C   0  0  0  0  0  0  0  0  0  0  0  0
   38.2060   24.6000   37.5410 N   0  0  0  0  0  0  0  0  0  0  0  0
   38.1710   25.2710   36.3390 C   0  0  0  0  0  0  0  0  0  0  0  0
   38.2410   26.6300   36.3140 C   0  0  0  0  0  0  0  0  0  0  0  0
   38.2080   27.3150   35.1220 C   0  0  0  0  0  0  0  0  0  0  0  0
   38.1010   26.5480   33.9720 C   0  0  0  0  0  0  0  0  0  0  0  0
   38.0350   25.1730   34.0510 C   0  0  0  0  0  0  0  0  0  0  0  0
   38.0660   24.4890   35.2170 C   0  0  0  0  0  0  0  0  0  0  0  0
   39.1000   21.0050   32.3830 C   0  0  0  0  0  0  0  0  0  0  0  0
   39.1220   21.8020   33.5150 C   0  0  0  0  0  0  0  0  0  0  0  0
   37.8800   22.3060   33.9940 C   0  0  0  0  0  0  0  0  0  0  0  0
   36.8070   21.9340   33.2670 N   0  0  0  0  0  0  0  0  0  0  0  0
   36.8030   21.1700   32.1860 C   0  0  0  0  0  0  0  0  0  0  0  0
   37.9690   20.6990   31.7360 N   0  0  0  0  0  0  0  0  0  0  0  0
   35.4420   20.9860   31.6610 C   0  0  0  0  0  0  0  0  0  0  0  0
   35.1810   19.7120   31.2690 F   0  0  0  0  0  0  0  0  0  0  0  0
   35.2370   21.8500   30.5570 F   0  0  0  0  0  0  0  0  0  0  0  0
   34.4930   21.4410   32.5880 F   0  0  0  0  0  0  0  0  0  0  0  0
   37.9460   24.7100   32.6260 C   0  0  0  0  0  0  0  0  0  0  0  0
   36.9690   24.3870   31.7890 N   0  0  0  0  0  0  0  0  0  0  0  0
   37.5020   24.0570   30.6680 O   0  0  0  0  0  0  0  0  0  0  0  0
   38.8070   24.1440   30.7170 C   0  0  0  0  0  0  0  0  0  0  0  0
   39.1440   24.5580   31.9450 N   0  0  0  0  0  0  0  0  0  0  0  0
   39.8020   23.8580   29.6500 C   0  0  0  0  0  0  0  0  0  0  0  0
   39.7300   22.4860   28.9800 C   0  0  0  0  0  0  0  0  0  0  0  0
   39.4180   23.7290   28.2390 C   0  0  0  0  0  0  0  0  0  0  0  0
   38.1619   22.7117   38.4952 H   0  0  0  0  0  0  0  0  0  0  0  0
   38.3250   27.1872   37.2587 H   0  0  0  0  0  0  0  0  0  0  0  0
   38.2635   28.4129   35.0830 H   0  0  0  0  0  0  0  0  0  0  0  0
   38.0685   27.0403   32.9888 H   0  0  0  0  0  0  0  0  0  0  0  0
   40.0511   20.6070   31.9997 H   0  0  0  0  0  0  0  0  0  0  0  0
   40.0669   22.0376   34.0266 H   0  0  0  0  0  0  0  0  0  0  0  0
   40.5533   24.4673   30.1738 H   0  0  0  0  0  0  0  0  0  0  0  0
   40.6516   21.9267   28.7614 H   0  0  0  0  0  0  0  0  0  0  0  0
   39.2098   21.5379   29.1814 H   0  0  0  0  0  0  0  0  0  0  0  0
   40.1047   24.0807   27.4549 H   0  0  0  0  0  0  0  0  0  0  0  0
   38.5542   24.0693   27.6490 H   0  0  0  0  0  0  0  0  0  0  0  0
  1 10  1  0
  1  2  2  0
  2  3  1  0
  3  4  2  0
  5  4  1  0
  6  5  2  0
  7  6  1  0
  8  9  1  0
  8  7  2  0
  9 10  2  0
 10  5  1  0
 11 12  2  0
 12 13  1  0
 13  1  1  0
 14 13  2  0
 15 14  1  0
 16 15  2  0
 16 11  1  0
 17 15  1  0
 17 20  1  0
 18 17  1  0
 19 17  1  0
 21  9  1  0
 22 21  2  0
 23 24  1  0
 23 22  1  0
 24 25  2  0
 25 21  1  0
 26 24  1  0
 27 26  1  0
 28 27  1  0
 28 26  1  0
  3 29  1  0
  6 30  1  0
  7 31  1  0
  8 32  1  0
 11 33  1  0
 12 34  1  0
 26 35  1  0
 27 36  1  0
 27 37  1  0
 28 38  1  0
 28 39  1  0
M  ISO  8  29  14  30  14  31  14  32  14  33  14  34  14  35  13  36  13
M  ISO  3  37  13  38  13  39  13
M  END
>  <minimizedAffinity>  (1) 
-5.94809532

>  <minimizedRMSD>  (1) 
0.177825168

$$$$
