
     RDKit          3D

 30 33  0  0  0  0  0  0  0  0999 V2000
   38.3980   24.6320   35.8410 C   0  0  0  0  0  0  0  0  0  0  0  0
   37.6880   24.3800   37.0490 C   0  0  0  0  0  0  0  0  0  0  0  0
   38.8030   23.2760   37.9900 S   0  0  0  0  0  0  0  0  0  0  0  0
   40.0540   23.3380   36.5830 C   0  0  0  0  0  0  0  0  0  0  0  0
   39.5500   24.0050   35.8410 N   0  0  0  0  0  0  0  0  0  0  0  0
   41.3380   22.6520   36.5580 N   0  0  0  0  0  0  0  0  0  0  0  0
   41.6300   21.3640   36.8450 C   0  0  0  0  0  0  0  0  0  0  0  0
   42.9530   21.1780   36.6850 N   0  0  0  0  0  0  0  0  0  0  0  0
   43.4620   22.3670   36.2970 C   0  0  0  0  0  0  0  0  0  0  0  0
   44.7380   22.8110   35.9800 C   0  0  0  0  0  0  0  0  0  0  0  0
   45.7100   22.0160   36.0330 O   0  0  0  0  0  0  0  0  0  0  0  0
   44.9750   24.0840   35.6140 N   0  0  0  0  0  0  0  0  0  0  0  0
   43.9660   24.9710   35.5440 C   0  0  0  0  0  0  0  0  0  0  0  0
   44.0900   26.3520   35.1670 N   0  0  0  0  0  0  0  0  0  0  0  0
   42.7190   24.5650   35.8460 N   0  0  0  0  0  0  0  0  0  0  0  0
   42.4430   23.2930   36.2180 C   0  0  0  0  0  0  0  0  0  0  0  0
   37.7330   25.0560   33.4910 C   0  0  0  0  0  0  0  0  0  0  0  0
   37.8190   25.4940   34.8070 C   0  0  0  0  0  0  0  0  0  0  0  0
   37.3370   26.7710   35.0970 C   0  0  0  0  0  0  0  0  0  0  0  0
   36.8130   27.5210   34.1030 N   0  0  0  0  0  0  0  0  0  0  0  0
   36.7460   27.0550   32.8200 C   0  0  0  0  0  0  0  0  0  0  0  0
   37.2070   25.8300   32.5360 N   0  0  0  0  0  0  0  0  0  0  0  0
   36.6998   24.7603   37.3470 H   0  0  0  0  0  0  0  0  0  0  0  0
   40.9069   20.5961   37.1572 H   0  0  0  0  0  0  0  0  0  0  0  0
   45.9346   24.3810   35.3861 H   0  0  0  0  0  0  0  0  0  0  0  0
   43.2561   26.9560   35.1425 H   0  0  0  0  0  0  0  0  0  0  0  0
   45.0128   26.7379   34.9212 H   0  0  0  0  0  0  0  0  0  0  0  0
   38.1045   24.0540   33.2301 H   0  0  0  0  0  0  0  0  0  0  0  0
   37.3832   27.1627   36.1238 H   0  0  0  0  0  0  0  0  0  0  0  0
   36.3160   27.6823   32.0253 H   0  0  0  0  0  0  0  0  0  0  0  0
  1  5  1  0
  1  2  2  0
  2  3  1  0
  4  3  1  0
  5  4  2  0
  6  4  1  0
  6  7  1  0
  8  7  2  0
  9  8  1  0
 10 11  2  0
 10  9  1  0
 12 10  1  0
 13 12  1  0
 13 15  2  0
 14 13  1  0
 15 16  1  0
 16  9  2  0
 16  6  1  0
 17 18  2  0
 18 19  1  0
 18  1  1  0
 20 19  2  0
 21 20  1  0
 22 21  2  0
 22 17  1  0
  2 23  1  0
  7 24  1  0
 12 25  1  0
 14 26  1  0
 14 27  1  0
 17 28  1  0
 19 29  1  0
 21 30  1  0
M  ISO  6  23  14  24  14  25   9  28  14  29  14  30  14
M  END
>  <minimizedAffinity>  (1) 
-5.24735546

>  <minimizedRMSD>  (1) 
1.3832562

$$$$
