
     RDKit          3D

 34 37  0  0  0  0  0  0  0  0999 V2000
   38.0270   23.1080   35.2030 C   0  0  0  0  0  0  0  0  0  0  0  0
   38.1400   22.5670   36.4400 N   0  0  0  0  0  0  0  0  0  0  0  0
   38.2750   23.2880   37.5550 C   0  0  0  0  0  0  0  0  0  0  0  0
   38.3080   24.6360   37.5280 N   0  0  0  0  0  0  0  0  0  0  0  0
   38.2000   25.2740   36.3130 C   0  0  0  0  0  0  0  0  0  0  0  0
   38.2490   26.6350   36.2620 C   0  0  0  0  0  0  0  0  0  0  0  0
   38.1600   27.2890   35.0530 C   0  0  0  0  0  0  0  0  0  0  0  0
   38.0230   26.4990   33.9230 C   0  0  0  0  0  0  0  0  0  0  0  0
   37.9780   25.1210   34.0290 C   0  0  0  0  0  0  0  0  0  0  0  0
   38.0640   24.4750   35.2110 C   0  0  0  0  0  0  0  0  0  0  0  0
   39.0260   20.8940   32.4450 C   0  0  0  0  0  0  0  0  0  0  0  0
   39.0930   21.7240   33.5570 C   0  0  0  0  0  0  0  0  0  0  0  0
   37.8830   22.2460   34.0540 C   0  0  0  0  0  0  0  0  0  0  0  0
   36.7710   21.8670   33.3720 N   0  0  0  0  0  0  0  0  0  0  0  0
   36.7280   21.0790   32.3180 C   0  0  0  0  0  0  0  0  0  0  0  0
   37.8760   20.5810   31.8430 N   0  0  0  0  0  0  0  0  0  0  0  0
   35.3420   20.8860   31.8320 C   0  0  0  0  0  0  0  0  0  0  0  0
   35.0020   19.5820   31.6860 F   0  0  0  0  0  0  0  0  0  0  0  0
   35.1850   21.5460   30.5930 F   0  0  0  0  0  0  0  0  0  0  0  0
   34.4470   21.5590   32.6650 F   0  0  0  0  0  0  0  0  0  0  0  0
   37.8320   24.6220   32.6300 C   0  0  0  0  0  0  0  0  0  0  0  0
   36.8290   24.2810   31.8360 N   0  0  0  0  0  0  0  0  0  0  0  0
   37.3080   23.9160   30.7080 O   0  0  0  0  0  0  0  0  0  0  0  0
   38.6080   23.9980   30.7050 C   0  0  0  0  0  0  0  0  0  0  0  0
   39.0030   24.4430   31.9040 N   0  0  0  0  0  0  0  0  0  0  0  0
   39.5140   23.6760   29.6170 C   0  0  0  0  0  0  0  0  0  0  0  0
   39.2180   23.8850   28.4070 O   0  0  0  0  0  0  0  0  0  0  0  0
   38.3616   22.7693   38.5211 H   0  0  0  0  0  0  0  0  0  0  0  0
   38.3601   27.2140   37.1907 H   0  0  0  0  0  0  0  0  0  0  0  0
   38.1960   28.3865   34.9877 H   0  0  0  0  0  0  0  0  0  0  0  0
   37.9494   26.9722   32.9327 H   0  0  0  0  0  0  0  0  0  0  0  0
   39.9609   20.4765   32.0430 H   0  0  0  0  0  0  0  0  0  0  0  0
   40.0556   21.9646   34.0318 H   0  0  0  0  0  0  0  0  0  0  0  0
   40.4929   23.2344   29.8550 H   0  0  0  0  0  0  0  0  0  0  0  0
  1 10  1  0
  1  2  2  0
  2  3  1  0
  4  3  2  0
  5  4  1  0
  6  5  2  0
  7  6  1  0
  8  9  1  0
  8  7  2  0
  9 10  2  0
 10  5  1  0
 11 12  2  0
 12 13  1  0
 13  1  1  0
 14 13  2  0
 15 14  1  0
 16 15  2  0
 16 11  1  0
 17 15  1  0
 17 20  1  0
 18 17  1  0
 19 17  1  0
 21  9  1  0
 22 21  2  0
 23 22  1  0
 24 23  1  0
 24 25  2  0
 25 21  1  0
 26 24  1  0
 27 26  2  0
  3 28  1  0
  6 29  1  0
  7 30  1  0
  8 31  1  0
 11 32  1  0
 12 33  1  0
 26 34  1  0
M  ISO  7  28  14  29  14  30  14  31  14  32  14  33  14  34   6
M  END
>  <minimizedAffinity>  (1) 
-5.81863642

>  <minimizedRMSD>  (1) 
0.0425368547

$$$$
