
     RDKit          3D

 26 28  0  0  0  0  0  0  0  0999 V2000
   38.6730   24.8860   35.0090 N   0  0  0  0  0  0  0  0  0  0  0  0
   39.6040   24.1620   34.3480 C   0  0  0  0  0  0  0  0  0  0  0  0
   40.1410   23.2540   35.1990 N   0  0  0  0  0  0  0  0  0  0  0  0
   39.5550   23.4040   36.3910 C   0  0  0  0  0  0  0  0  0  0  0  0
   39.6510   22.8160   37.6240 C   0  0  0  0  0  0  0  0  0  0  0  0
   38.9040   23.1810   38.7050 N   0  0  0  0  0  0  0  0  0  0  0  0
   37.9970   24.2010   38.5610 C   0  0  0  0  0  0  0  0  0  0  0  0
   37.8880   24.7920   37.3590 N   0  0  0  0  0  0  0  0  0  0  0  0
   38.6240   24.4290   36.2970 C   0  0  0  0  0  0  0  0  0  0  0  0
   37.7040   27.1010   35.2030 C   0  0  0  0  0  0  0  0  0  0  0  0
   37.8970   25.9290   34.4550 C   0  0  0  0  0  0  0  0  0  0  0  0
   37.2950   25.8650   33.1880 C   0  0  0  0  0  0  0  0  0  0  0  0
   36.5580   26.9270   32.7400 N   0  0  0  0  0  0  0  0  0  0  0  0
   36.4070   28.0330   33.5080 C   0  0  0  0  0  0  0  0  0  0  0  0
   36.9710   28.1080   34.7120 N   0  0  0  0  0  0  0  0  0  0  0  0
   35.6020   29.1810   33.0100 C   0  0  0  0  0  0  0  0  0  0  0  0
   36.4250   29.9100   32.1440 F   0  0  0  0  0  0  0  0  0  0  0  0
   34.4580   28.8020   32.3680 F   0  0  0  0  0  0  0  0  0  0  0  0
   35.3310   30.0580   34.0630 F   0  0  0  0  0  0  0  0  0  0  0  0
   40.5690   21.7590   37.8360 N   0  0  0  0  0  0  0  0  0  0  0  0
   39.8808   24.2892   33.2910 H   0  0  0  0  0  0  0  0  0  0  0  0
   37.3751   24.5265   39.4080 H   0  0  0  0  0  0  0  0  0  0  0  0
   38.1586   27.1928   36.2005 H   0  0  0  0  0  0  0  0  0  0  0  0
   37.4149   24.9690   32.5613 H   0  0  0  0  0  0  0  0  0  0  0  0
   40.6405   21.3173   38.7637 H   0  0  0  0  0  0  0  0  0  0  0  0
   41.1652   21.4318   37.0625 H   0  0  0  0  0  0  0  0  0  0  0  0
  1  9  1  0
  2  1  1  0
  2  3  2  0
  3  4  1  0
  4  5  2  0
  5 20  1  0
  5  6  1  0
  7  6  2  0
  8  7  1  0
  9  4  1  0
  9  8  2  0
 11  1  1  0
 11 10  2  0
 12 11  1  0
 13 12  2  0
 13 14  1  0
 14 15  2  0
 15 10  1  0
 16 14  1  0
 16 19  1  0
 17 16  1  0
 18 16  1  0
  2 21  1  0
  7 22  1  0
 10 23  1  0
 12 24  1  0
 20 25  1  0
 20 26  1  0
M  ISO  4  21  14  22  14  23  14  24  14
M  END
>  <minimizedAffinity>  (1) 
-5.7000742

>  <minimizedRMSD>  (1) 
0.98540628

$$$$
