
     RDKit          3D

 23 25  0  0  0  0  0  0  0  0999 V2000
   38.3470   24.6020   35.9860 C   0  0  0  0  0  0  0  0  0  0  0  0
   37.6140   24.4500   37.1980 C   0  0  0  0  0  0  0  0  0  0  0  0
   38.6480   23.3230   38.2070 S   0  0  0  0  0  0  0  0  0  0  0  0
   39.9140   23.2460   36.8010 C   0  0  0  0  0  0  0  0  0  0  0  0
   39.4550   23.9070   36.0250 N   0  0  0  0  0  0  0  0  0  0  0  0
   41.1650   22.4860   36.7960 N   0  0  0  0  0  0  0  0  0  0  0  0
   41.3630   21.2860   37.2910 N   0  0  0  0  0  0  0  0  0  0  0  0
   42.6490   20.9230   37.0940 C   0  0  0  0  0  0  0  0  0  0  0  0
   43.2270   22.0020   36.4340 C   0  0  0  0  0  0  0  0  0  0  0  0
   42.2700   22.9930   36.2500 C   0  0  0  0  0  0  0  0  0  0  0  0
   37.8160   25.0030   33.5940 C   0  0  0  0  0  0  0  0  0  0  0  0
   37.8280   25.4470   34.9110 C   0  0  0  0  0  0  0  0  0  0  0  0
   37.3250   26.7280   35.1520 C   0  0  0  0  0  0  0  0  0  0  0  0
   36.8540   27.4760   34.1230 N   0  0  0  0  0  0  0  0  0  0  0  0
   36.8650   26.9990   32.8590 C   0  0  0  0  0  0  0  0  0  0  0  0
   37.3410   25.7820   32.6160 N   0  0  0  0  0  0  0  0  0  0  0  0
   36.6490   24.9047   37.4664 H   0  0  0  0  0  0  0  0  0  0  0  0
   43.1329   19.9807   37.3905 H   0  0  0  0  0  0  0  0  0  0  0  0
   44.2761   22.0618   36.1088 H   0  0  0  0  0  0  0  0  0  0  0  0
   42.3959   23.9721   35.7646 H   0  0  0  0  0  0  0  0  0  0  0  0
   38.2010   24.0010   33.3536 H   0  0  0  0  0  0  0  0  0  0  0  0
   37.3109   27.1299   36.1759 H   0  0  0  0  0  0  0  0  0  0  0  0
   36.4811   27.6161   32.0333 H   0  0  0  0  0  0  0  0  0  0  0  0
  1  5  1  0
  1  2  2  0
  2  3  1  0
  4  3  1  0
  5  4  2  0
  6  4  1  0
  6  7  1  0
  8  7  2  0
  9  8  1  0
 10  9  2  0
 10  6  1  0
 11 12  2  0
 12 13  1  0
 12  1  1  0
 14 13  2  0
 15 14  1  0
 16 15  2  0
 16 11  1  0
  2 17  1  0
  8 18  1  0
  9 19  1  0
 10 20  1  0
 11 21  1  0
 13 22  1  0
 15 23  1  0
M  ISO  7  17  14  18  14  19  14  20  14  21  14  22  14  23  14
M  END
>  <minimizedAffinity>  (1) 
-4.28494883

>  <minimizedRMSD>  (1) 
0.706126392

$$$$
