
     RDKit          3D

 23 25  0  0  0  0  0  0  0  0999 V2000
   38.3170   24.7400   35.8770 C   0  0  0  0  0  0  0  0  0  0  0  0
   37.6810   24.6340   37.1640 C   0  0  0  0  0  0  0  0  0  0  0  0
   38.6560   23.3600   38.0330 S   0  0  0  0  0  0  0  0  0  0  0  0
   39.7560   23.1880   36.5100 C   0  0  0  0  0  0  0  0  0  0  0  0
   39.3340   23.9210   35.7740 N   0  0  0  0  0  0  0  0  0  0  0  0
   37.6430   25.3060   33.5540 C   0  0  0  0  0  0  0  0  0  0  0  0
   37.7950   25.6890   34.8900 C   0  0  0  0  0  0  0  0  0  0  0  0
   37.4380   26.9840   35.2290 C   0  0  0  0  0  0  0  0  0  0  0  0
   36.9620   27.8100   34.2580 N   0  0  0  0  0  0  0  0  0  0  0  0
   36.8300   27.3950   32.9700 C   0  0  0  0  0  0  0  0  0  0  0  0
   37.1750   26.1400   32.6380 N   0  0  0  0  0  0  0  0  0  0  0  0
   40.9160   22.1490   36.6030 C   0  0  0  0  0  0  0  0  0  0  0  0
   41.7600   21.7940   35.6090 C   0  0  0  0  0  0  0  0  0  0  0  0
   42.5740   20.8480   36.2460 C   0  0  0  0  0  0  0  0  0  0  0  0
   42.1460   20.7290   37.5370 N   0  0  0  0  0  0  0  0  0  0  0  0
   41.1040   21.5490   37.7560 N   0  0  0  0  0  0  0  0  0  0  0  0
   36.8093   25.1917   37.5370 H   0  0  0  0  0  0  0  0  0  0  0  0
   37.9197   24.2840   33.2556 H   0  0  0  0  0  0  0  0  0  0  0  0
   37.5376   27.3385   36.2655 H   0  0  0  0  0  0  0  0  0  0  0  0
   36.4428   28.0831   32.2041 H   0  0  0  0  0  0  0  0  0  0  0  0
   41.7980   22.1540   34.5703 H   0  0  0  0  0  0  0  0  0  0  0  0
   43.4095   20.2988   35.7874 H   0  0  0  0  0  0  0  0  0  0  0  0
   42.5613   20.1020   38.2407 H   0  0  0  0  0  0  0  0  0  0  0  0
  1  2  2  0
  2  3  1  0
  4 12  1  0
  4  3  1  0
  5  1  1  0
  5  4  2  0
  6  7  2  0
  7  8  1  0
  7  1  1  0
  9  8  2  0
 10  9  1  0
 11 10  2  0
 11  6  1  0
 12 16  2  0
 13 14  2  0
 13 12  1  0
 14 15  1  0
 15 16  1  0
  2 17  1  0
  6 18  1  0
  8 19  1  0
 10 20  1  0
 13 21  1  0
 14 22  1  0
 15 23  1  0
M  ISO  7  17  14  18  14  19  14  20  14  21  14  22  14  23   9
M  END
>  <minimizedAffinity>  (1) 
-4.19703579

>  <minimizedRMSD>  (1) 
0.842451036

$$$$
