
     RDKit          3D

 30 32  0  0  0  0  0  0  0  0999 V2000
   37.8700   24.2290   33.4500 C   0  0  0  0  0  0  0  0  0  0  0  0
   37.3640   23.2440   32.5540 C   0  0  0  0  0  0  0  0  0  0  0  0
   37.0480   24.1440   31.0030 S   0  0  0  0  0  0  0  0  0  0  0  0
   37.6640   25.7520   31.8280 C   0  0  0  0  0  0  0  0  0  0  0  0
   37.9270   25.3980   32.8610 N   0  0  0  0  0  0  0  0  0  0  0  0
   37.7390   27.0600   31.2020 N   0  0  0  0  0  0  0  0  0  0  0  0
   36.5690   27.8620   30.9640 C   0  0  0  0  0  0  0  0  0  0  0  0
   36.9160   28.8090   29.8110 C   0  0  0  0  0  0  0  0  0  0  0  0
   37.7250   28.1460   28.8050 N   0  0  0  0  0  0  0  0  0  0  0  0
   38.9970   27.6950   29.2960 C   0  0  0  0  0  0  0  0  0  0  0  0
   39.0250   27.5630   30.8100 C   0  0  0  0  0  0  0  0  0  0  0  0
   37.9660   24.7010   35.8720 C   0  0  0  0  0  0  0  0  0  0  0  0
   38.2340   23.8530   34.8040 C   0  0  0  0  0  0  0  0  0  0  0  0
   38.8600   22.6420   35.1120 C   0  0  0  0  0  0  0  0  0  0  0  0
   39.1710   22.3580   36.4020 N   0  0  0  0  0  0  0  0  0  0  0  0
   38.8840   23.2270   37.3990 C   0  0  0  0  0  0  0  0  0  0  0  0
   38.2810   24.4000   37.1300 N   0  0  0  0  0  0  0  0  0  0  0  0
   37.2002   22.1750   32.7549 H   0  0  0  0  0  0  0  0  0  0  0  0
   35.7193   27.2210   30.6863 H   0  0  0  0  0  0  0  0  0  0  0  0
   36.2817   28.4227   31.8657 H   0  0  0  0  0  0  0  0  0  0  0  0
   35.9841   29.1618   29.3451 H   0  0  0  0  0  0  0  0  0  0  0  0
   37.4932   29.6523   30.2180 H   0  0  0  0  0  0  0  0  0  0  0  0
   37.8899   28.8068   28.0323 H   0  0  0  0  0  0  0  0  0  0  0  0
   39.2179   26.7129   28.8525 H   0  0  0  0  0  0  0  0  0  0  0  0
   39.7491   28.4461   29.0128 H   0  0  0  0  0  0  0  0  0  0  0  0
   39.8158   26.8620   31.1152 H   0  0  0  0  0  0  0  0  0  0  0  0
   39.2349   28.5309   31.2886 H   0  0  0  0  0  0  0  0  0  0  0  0
   37.4721   25.6627   35.6690 H   0  0  0  0  0  0  0  0  0  0  0  0
   39.0991   21.9237   34.3139 H   0  0  0  0  0  0  0  0  0  0  0  0
   39.1454   22.9729   38.4368 H   0  0  0  0  0  0  0  0  0  0  0  0
  1 13  1  0
  2  1  2  0
  3  4  1  0
  3  2  1  0
  4  5  2  0
  5  1  1  0
  6  4  1  0
  7  6  1  0
  8  7  1  0
  9 10  1  0
  9  8  1  0
 10 11  1  0
 11  6  1  0
 12 17  2  0
 13 14  2  0
 13 12  1  0
 14 15  1  0
 15 16  2  0
 17 16  1  0
  2 18  1  0
  7 19  1  0
  7 20  1  0
  8 21  1  0
  8 22  1  0
  9 23  1  0
 10 24  1  0
 10 25  1  0
 11 26  1  0
 11 27  1  0
 12 28  1  0
 14 29  1  0
 16 30  1  0
M  ISO  8  18  14  19  13  20  13  21  13  22  13  23   5  24  13  25  13
M  ISO  5  26  13  27  13  28  14  29  14  30  14
M  END
>  <minimizedAffinity>  (1) 
-4.34918833

>  <minimizedRMSD>  (1) 
7.63036346

$$$$
