
     RDKit          3D

 23 25  0  0  0  0  0  0  0  0999 V2000
   38.3200   24.7310   35.8540 C   0  0  0  0  0  0  0  0  0  0  0  0
   37.6910   24.6140   37.1480 C   0  0  0  0  0  0  0  0  0  0  0  0
   38.6790   23.3480   37.9960 S   0  0  0  0  0  0  0  0  0  0  0  0
   39.7770   23.1820   36.4710 C   0  0  0  0  0  0  0  0  0  0  0  0
   39.3430   23.9200   35.7370 N   0  0  0  0  0  0  0  0  0  0  0  0
   37.6130   25.3120   33.5510 C   0  0  0  0  0  0  0  0  0  0  0  0
   37.7840   25.6880   34.8820 C   0  0  0  0  0  0  0  0  0  0  0  0
   37.4330   26.9950   35.2410 C   0  0  0  0  0  0  0  0  0  0  0  0
   36.9480   27.8170   34.2650 N   0  0  0  0  0  0  0  0  0  0  0  0
   36.7980   27.4110   32.9870 C   0  0  0  0  0  0  0  0  0  0  0  0
   37.1310   26.1720   32.6530 N   0  0  0  0  0  0  0  0  0  0  0  0
   40.9010   22.2040   36.5180 C   0  0  0  0  0  0  0  0  0  0  0  0
   41.4390   21.5200   37.5200 C   0  0  0  0  0  0  0  0  0  0  0  0
   42.4720   20.6860   37.2650 C   0  0  0  0  0  0  0  0  0  0  0  0
   42.9150   20.5960   35.9380 C   0  0  0  0  0  0  0  0  0  0  0  0
   41.7160   21.8110   35.1030 S   0  0  0  0  0  0  0  0  0  0  0  0
   36.8180   25.1630   37.5307 H   0  0  0  0  0  0  0  0  0  0  0  0
   37.8792   24.2920   33.2369 H   0  0  0  0  0  0  0  0  0  0  0  0
   37.5445   27.3483   36.2767 H   0  0  0  0  0  0  0  0  0  0  0  0
   36.4026   28.1025   32.2284 H   0  0  0  0  0  0  0  0  0  0  0  0
   41.0501   21.6301   38.5431 H   0  0  0  0  0  0  0  0  0  0  0  0
   42.9461   20.1012   38.0670 H   0  0  0  0  0  0  0  0  0  0  0  0
   43.7262   19.9933   35.5035 H   0  0  0  0  0  0  0  0  0  0  0  0
  1  2  2  0
  2  3  1  0
  4 12  1  0
  4  3  1  0
  5  1  1  0
  5  4  2  0
  6  7  2  0
  7  8  1  0
  7  1  1  0
  9  8  2  0
 10  9  1  0
 11 10  2  0
 11  6  1  0
 12 13  2  0
 14 13  1  0
 15 14  2  0
 16 15  1  0
 16 12  1  0
  2 17  1  0
  6 18  1  0
  8 19  1  0
 10 20  1  0
 13 21  1  0
 14 22  1  0
 15 23  1  0
M  ISO  7  17  14  18  14  19  14  20  14  21  14  22  14  23  14
M  END
>  <minimizedAffinity>  (1) 
-4.1556797

>  <minimizedRMSD>  (1) 
0.765076458

$$$$
