
     RDKit          3D

 23 25  0  0  0  0  0  0  0  0999 V2000
   38.2720   24.6870   35.8810 C   0  0  0  0  0  0  0  0  0  0  0  0
   37.5340   24.5140   37.0870 C   0  0  0  0  0  0  0  0  0  0  0  0
   38.5580   23.3650   38.0800 S   0  0  0  0  0  0  0  0  0  0  0  0
   39.8230   23.3170   36.6780 C   0  0  0  0  0  0  0  0  0  0  0  0
   39.3830   23.9920   35.9030 N   0  0  0  0  0  0  0  0  0  0  0  0
   37.7170   25.1240   33.5020 C   0  0  0  0  0  0  0  0  0  0  0  0
   37.7590   25.5570   34.8220 C   0  0  0  0  0  0  0  0  0  0  0  0
   37.2930   26.8480   35.0910 C   0  0  0  0  0  0  0  0  0  0  0  0
   36.8260   27.6080   34.0630 N   0  0  0  0  0  0  0  0  0  0  0  0
   36.8070   27.1350   32.7830 C   0  0  0  0  0  0  0  0  0  0  0  0
   37.2540   25.8980   32.5220 N   0  0  0  0  0  0  0  0  0  0  0  0
   41.0820   22.5030   36.7530 C   0  0  0  0  0  0  0  0  0  0  0  0
   42.2980   22.7710   36.1580 C   0  0  0  0  0  0  0  0  0  0  0  0
   43.1170   21.7260   36.5320 C   0  0  0  0  0  0  0  0  0  0  0  0
   42.3430   20.9050   37.3220 C   0  0  0  0  0  0  0  0  0  0  0  0
   41.1430   21.3870   37.4380 O   0  0  0  0  0  0  0  0  0  0  0  0
   36.5694   24.9670   37.3597 H   0  0  0  0  0  0  0  0  0  0  0  0
   38.0765   24.1130   33.2597 H   0  0  0  0  0  0  0  0  0  0  0  0
   37.3038   27.2430   36.1176 H   0  0  0  0  0  0  0  0  0  0  0  0
   36.4259   27.7670   31.9673 H   0  0  0  0  0  0  0  0  0  0  0  0
   42.5577   23.6311   35.5234 H   0  0  0  0  0  0  0  0  0  0  0  0
   44.1716   21.5786   36.2560 H   0  0  0  0  0  0  0  0  0  0  0  0
   42.6924   19.9723   37.7889 H   0  0  0  0  0  0  0  0  0  0  0  0
  1  5  1  0
  1  2  2  0
  2  3  1  0
  4 12  1  0
  4  3  1  0
  5  4  2  0
  6  7  2  0
  7  8  1  0
  7  1  1  0
  9  8  2  0
 10  9  1  0
 11 10  2  0
 11  6  1  0
 12 16  1  0
 13 14  1  0
 13 12  2  0
 14 15  2  0
 15 16  1  0
  2 17  1  0
  6 18  1  0
  8 19  1  0
 10 20  1  0
 13 21  1  0
 14 22  1  0
 15 23  1  0
M  ISO  7  17  14  18  14  19  14  20  14  21  14  22  14  23  14
M  END
>  <minimizedAffinity>  (1) 
-4.1944108

>  <minimizedRMSD>  (1) 
0.756172776

$$$$
