
     RDKit          3D

 17 18  0  0  0  0  0  0  0  0999 V2000
   38.0470   24.5920   33.7930 C   0  0  0  0  0  0  0  0  0  0  0  0
   37.9360   25.1320   35.0820 C   0  0  0  0  0  0  0  0  0  0  0  0
   37.4400   26.4350   35.2100 C   0  0  0  0  0  0  0  0  0  0  0  0
   37.0960   27.1010   34.0830 N   0  0  0  0  0  0  0  0  0  0  0  0
   37.2230   26.5330   32.8480 C   0  0  0  0  0  0  0  0  0  0  0  0
   37.6930   25.2980   32.7260 N   0  0  0  0  0  0  0  0  0  0  0  0
   38.3350   24.3520   36.2590 C   0  0  0  0  0  0  0  0  0  0  0  0
   37.8510   24.6990   37.5570 C   0  0  0  0  0  0  0  0  0  0  0  0
   38.6130   23.4770   38.6700 S   0  0  0  0  0  0  0  0  0  0  0  0
   39.4710   22.6900   37.1700 C   0  0  0  0  0  0  0  0  0  0  0  0
   39.1460   23.2960   36.2970 N   0  0  0  0  0  0  0  0  0  0  0  0
   40.3910   21.5200   37.0770 O   0  0  0  0  0  0  0  0  0  0  0  0
   38.4325   23.5699   33.6641 H   0  0  0  0  0  0  0  0  0  0  0  0
   37.3328   26.9044   36.1990 H   0  0  0  0  0  0  0  0  0  0  0  0
   36.9348   27.1009   31.9511 H   0  0  0  0  0  0  0  0  0  0  0  0
   37.1702   25.5207   37.8242 H   0  0  0  0  0  0  0  0  0  0  0  0
   40.7517   21.2426   36.1978 H   0  0  0  0  0  0  0  0  0  0  0  0
  1  2  2  0
  2  3  1  0
  2  7  1  0
  4  3  2  0
  5  4  1  0
  6  5  2  0
  6  1  1  0
  7 11  1  0
  7  8  2  0
  8  9  1  0
 10  9  1  0
 11 10  2  0
 12 10  1  0
  1 13  1  0
  3 14  1  0
  5 15  1  0
  8 16  1  0
 12 17  1  0
M  ISO  5  13  14  14  14  15  14  16  14  17   3
M  END
>  <minimizedAffinity>  (1) 
-3.58339763

>  <minimizedRMSD>  (1) 
0.253751308

$$$$
