
     RDKit          3D

 34 37  0  0  0  0  0  0  0  0999 V2000
   37.7610   25.2170   33.8740 C   0  0  0  0  0  0  0  0  0  0  0  0
   37.9770   25.5910   35.1840 C   0  0  0  0  0  0  0  0  0  0  0  0
   37.6660   26.9020   35.5330 C   0  0  0  0  0  0  0  0  0  0  0  0
   37.1680   27.7460   34.5810 N   0  0  0  0  0  0  0  0  0  0  0  0
   36.9770   27.3170   33.2990 C   0  0  0  0  0  0  0  0  0  0  0  0
   37.2790   26.0480   32.9640 N   0  0  0  0  0  0  0  0  0  0  0  0
   36.4510   28.3750   32.4900 N   0  0  0  0  0  0  0  0  0  0  0  0
   36.8290   28.4430   31.2020 C   0  0  0  0  0  0  0  0  0  0  0  0
   36.3040   29.4740   30.4510 C   0  0  0  0  0  0  0  0  0  0  0  0
   35.4400   30.3420   31.0840 C   0  0  0  0  0  0  0  0  0  0  0  0
   34.8170   31.4520   30.4480 N   0  0  0  0  0  0  0  0  0  0  0  0
   35.0920   30.2300   32.3840 N   0  0  0  0  0  0  0  0  0  0  0  0
   35.6110   29.2110   33.1200 C   0  0  0  0  0  0  0  0  0  0  0  0
   35.3130   29.0720   34.3310 O   0  0  0  0  0  0  0  0  0  0  0  0
   38.5100   24.6560   36.1680 C   0  0  0  0  0  0  0  0  0  0  0  0
   37.8000   24.3520   37.3600 C   0  0  0  0  0  0  0  0  0  0  0  0
   38.8420   23.1660   38.2480 S   0  0  0  0  0  0  0  0  0  0  0  0
   40.1150   23.2520   36.8520 C   0  0  0  0  0  0  0  0  0  0  0  0
   39.6360   23.9840   36.1440 N   0  0  0  0  0  0  0  0  0  0  0  0
   41.3820   22.5380   36.7510 N   0  0  0  0  0  0  0  0  0  0  0  0
   41.4740   21.2320   37.0900 C   0  0  0  0  0  0  0  0  0  0  0  0
   42.7990   20.8550   36.8840 C   0  0  0  0  0  0  0  0  0  0  0  0
   43.4360   21.9570   36.4300 N   0  0  0  0  0  0  0  0  0  0  0  0
   42.5770   22.9930   36.3460 C   0  0  0  0  0  0  0  0  0  0  0  0
   37.9991   24.1860   33.5736 H   0  0  0  0  0  0  0  0  0  0  0  0
   37.8194   27.2546   36.5636 H   0  0  0  0  0  0  0  0  0  0  0  0
   37.5248   27.7104   30.7670 H   0  0  0  0  0  0  0  0  0  0  0  0
   36.5643   29.5986   29.3895 H   0  0  0  0  0  0  0  0  0  0  0  0
   34.1808   32.0611   30.9820 H   0  0  0  0  0  0  0  0  0  0  0  0
   35.0022   31.6464   29.4536 H   0  0  0  0  0  0  0  0  0  0  0  0
   36.8252   24.7516   37.6764 H   0  0  0  0  0  0  0  0  0  0  0  0
   40.6593   20.5909   37.4576 H   0  0  0  0  0  0  0  0  0  0  0  0
   43.2381   19.8612   37.0561 H   0  0  0  0  0  0  0  0  0  0  0  0
   42.8111   24.0140   36.0102 H   0  0  0  0  0  0  0  0  0  0  0  0
  1  2  2  0
  2  3  1  0
  2 15  1  0
  4  3  2  0
  5  4  1  0
  6  5  2  0
  6  1  1  0
  7 13  1  0
  7  5  1  0
  8  7  1  0
  9 10  1  0
  9  8  2  0
 10 12  2  0
 11 10  1  0
 12 13  1  0
 13 14  2  0
 15 16  2  0
 16 17  1  0
 18 17  1  0
 19 15  1  0
 19 18  2  0
 20 18  1  0
 20 21  1  0
 22 21  2  0
 23 22  1  0
 24 23  2  0
 24 20  1  0
  1 25  1  0
  3 26  1  0
  8 27  1  0
  9 28  1  0
 11 29  1  0
 11 30  1  0
 16 31  1  0
 21 32  1  0
 22 33  1  0
 24 34  1  0
M  ISO  8  25  14  26  14  27  14  28  14  31  14  32  14  33  14  34  14
M  END
>  <minimizedAffinity>  (1) 
-6.0468502

>  <minimizedRMSD>  (1) 
0.590442181

$$$$
