
     RDKit          3D

 36 39  0  0  0  0  0  0  0  0999 V2000
   38.3990   24.6270   36.0570 C   0  0  0  0  0  0  0  0  0  0  0  0
   37.7040   24.3980   37.2870 C   0  0  0  0  0  0  0  0  0  0  0  0
   38.7750   23.2840   38.2300 S   0  0  0  0  0  0  0  0  0  0  0  0
   40.0260   23.2940   36.7930 C   0  0  0  0  0  0  0  0  0  0  0  0
   39.5280   23.9670   36.0550 N   0  0  0  0  0  0  0  0  0  0  0  0
   41.2990   22.5790   36.7390 N   0  0  0  0  0  0  0  0  0  0  0  0
   41.4190   21.3130   37.1640 C   0  0  0  0  0  0  0  0  0  0  0  0
   42.7520   20.9530   36.9700 C   0  0  0  0  0  0  0  0  0  0  0  0
   43.3620   22.0280   36.4350 N   0  0  0  0  0  0  0  0  0  0  0  0
   42.4820   23.0530   36.2810 C   0  0  0  0  0  0  0  0  0  0  0  0
   37.7090   25.0280   33.7180 C   0  0  0  0  0  0  0  0  0  0  0  0
   37.8240   25.4870   35.0360 C   0  0  0  0  0  0  0  0  0  0  0  0
   37.3720   26.7700   35.3050 C   0  0  0  0  0  0  0  0  0  0  0  0
   36.8420   27.5220   34.3020 N   0  0  0  0  0  0  0  0  0  0  0  0
   36.7480   27.0390   33.0370 C   0  0  0  0  0  0  0  0  0  0  0  0
   37.1860   25.7950   32.7670 N   0  0  0  0  0  0  0  0  0  0  0  0
   36.1930   27.8370   31.9980 N   0  0  0  0  0  0  0  0  0  0  0  0
   35.1740   28.8450   32.2260 C   0  0  0  0  0  0  0  0  0  0  0  0
   35.8090   30.1770   31.8490 C   0  0  0  0  0  0  0  0  0  0  0  0
   37.0020   29.9940   31.1220 O   0  0  0  0  0  0  0  0  0  0  0  0
   36.7750   29.0980   30.0810 C   0  0  0  0  0  0  0  0  0  0  0  0
   36.6330   27.6740   30.6340 C   0  0  0  0  0  0  0  0  0  0  0  0
   36.7308   24.8094   37.5928 H   0  0  0  0  0  0  0  0  0  0  0  0
   40.6218   20.6819   37.5836 H   0  0  0  0  0  0  0  0  0  0  0  0
   43.2139   19.9832   37.2069 H   0  0  0  0  0  0  0  0  0  0  0  0
   42.6871   24.0533   35.8719 H   0  0  0  0  0  0  0  0  0  0  0  0
   38.0574   24.0156   33.4656 H   0  0  0  0  0  0  0  0  0  0  0  0
   37.4415   27.1781   36.3241 H   0  0  0  0  0  0  0  0  0  0  0  0
   34.2945   28.6488   31.5952 H   0  0  0  0  0  0  0  0  0  0  0  0
   34.8325   28.8432   33.2716 H   0  0  0  0  0  0  0  0  0  0  0  0
   35.0996   30.7494   31.2332 H   0  0  0  0  0  0  0  0  0  0  0  0
   36.0497   30.7187   32.7757 H   0  0  0  0  0  0  0  0  0  0  0  0
   37.6214   29.1333   29.3793 H   0  0  0  0  0  0  0  0  0  0  0  0
   35.8466   29.3771   29.5612 H   0  0  0  0  0  0  0  0  0  0  0  0
   35.8890   27.1080   30.0543 H   0  0  0  0  0  0  0  0  0  0  0  0
   37.5779   27.1142   30.5722 H   0  0  0  0  0  0  0  0  0  0  0  0
  1  2  2  0
  2  3  1  0
  4  3  1  0
  5  1  1  0
  5  4  2  0
  6  4  1  0
  6  7  1  0
  8  7  2  0
  9  8  1  0
 10  9  2  0
 10  6  1  0
 11 12  2  0
 12 13  1  0
 12  1  1  0
 14 13  2  0
 15 14  1  0
 16 15  2  0
 16 11  1  0
 17 18  1  0
 17 15  1  0
 19 18  1  0
 20 19  1  0
 21 22  1  0
 21 20  1  0
 22 17  1  0
  2 23  1  0
  7 24  1  0
  8 25  1  0
 10 26  1  0
 11 27  1  0
 13 28  1  0
 18 29  1  0
 18 30  1  0
 19 31  1  0
 19 32  1  0
 21 33  1  0
 21 34  1  0
 22 35  1  0
 22 36  1  0
M  ISO  8  23  14  24  14  25  14  26  14  27  14  28  14  29  13  30  13
M  ISO  6  31  13  32  13  33  13  34  13  35  13  36  13
M  END
>  <minimizedAffinity>  (1) 
-5.49691343

>  <minimizedRMSD>  (1) 
0.247691154

$$$$
