
     RDKit          3D

 31 34  0  0  0  0  0  0  0  0999 V2000
   37.6560   25.3630   34.0230 C   0  0  0  0  0  0  0  0  0  0  0  0
   37.9880   25.7100   35.3280 C   0  0  0  0  0  0  0  0  0  0  0  0
   37.8040   27.0350   35.6950 C   0  0  0  0  0  0  0  0  0  0  0  0
   37.3170   27.9290   34.7910 N   0  0  0  0  0  0  0  0  0  0  0  0
   37.0080   27.5260   33.5220 C   0  0  0  0  0  0  0  0  0  0  0  0
   37.1810   26.2540   33.1590 N   0  0  0  0  0  0  0  0  0  0  0  0
   38.5080   24.7220   36.2660 C   0  0  0  0  0  0  0  0  0  0  0  0
   37.7930   24.3560   37.4270 C   0  0  0  0  0  0  0  0  0  0  0  0
   38.8390   23.1180   38.2500 S   0  0  0  0  0  0  0  0  0  0  0  0
   40.1230   23.2860   36.8630 C   0  0  0  0  0  0  0  0  0  0  0  0
   39.6440   24.0470   36.2080 N   0  0  0  0  0  0  0  0  0  0  0  0
   41.3880   22.5720   36.7430 N   0  0  0  0  0  0  0  0  0  0  0  0
   41.4740   21.2500   36.9930 C   0  0  0  0  0  0  0  0  0  0  0  0
   42.8200   20.9110   36.7810 C   0  0  0  0  0  0  0  0  0  0  0  0
   43.4520   22.0370   36.4220 N   0  0  0  0  0  0  0  0  0  0  0  0
   42.5910   23.0810   36.3890 C   0  0  0  0  0  0  0  0  0  0  0  0
   36.4830   28.4700   32.5390 C   0  0  0  0  0  0  0  0  0  0  0  0
   37.1620   28.6210   31.3330 C   0  0  0  0  0  0  0  0  0  0  0  0
   36.6640   29.5250   30.3870 C   0  0  0  0  0  0  0  0  0  0  0  0
   35.5610   30.2000   30.6850 N   0  0  0  0  0  0  0  0  0  0  0  0
   34.9010   30.0700   31.8280 C   0  0  0  0  0  0  0  0  0  0  0  0
   35.3570   29.1980   32.7750 N   0  0  0  0  0  0  0  0  0  0  0  0
   37.7904   24.3212   33.6965 H   0  0  0  0  0  0  0  0  0  0  0  0
   38.0513   27.3631   36.7154 H   0  0  0  0  0  0  0  0  0  0  0  0
   36.8164   24.7368   37.7606 H   0  0  0  0  0  0  0  0  0  0  0  0
   40.6595   20.5771   37.2992 H   0  0  0  0  0  0  0  0  0  0  0  0
   43.2695   19.9128   36.8889 H   0  0  0  0  0  0  0  0  0  0  0  0
   42.8210   24.1248   36.1289 H   0  0  0  0  0  0  0  0  0  0  0  0
   38.0734   28.0405   31.1271 H   0  0  0  0  0  0  0  0  0  0  0  0
   37.1731   29.6717   29.4230 H   0  0  0  0  0  0  0  0  0  0  0  0
   33.9917   30.6610   32.0122 H   0  0  0  0  0  0  0  0  0  0  0  0
  1  2  2  0
  2  3  1  0
  2  7  1  0
  4  3  2  0
  5  4  1  0
  6  5  2  0
  6  1  1  0
  7  8  2  0
  8  9  1  0
 10  9  1  0
 11  7  1  0
 11 10  2  0
 12 10  1  0
 12 13  1  0
 14 13  2  0
 15 14  1  0
 16 15  2  0
 16 12  1  0
 17 22  1  0
 17  5  1  0
 18 17  2  0
 19 20  2  0
 19 18  1  0
 20 21  1  0
 21 22  2  0
  1 23  1  0
  3 24  1  0
  8 25  1  0
 13 26  1  0
 14 27  1  0
 16 28  1  0
 18 29  1  0
 19 30  1  0
 21 31  1  0
M  ISO  8  23  14  24  14  25  14  26  14  27  14  28  14  29  14  30  14
M  ISO  1  31  14
M  END
>  <minimizedAffinity>  (1) 
-5.05763388

>  <minimizedRMSD>  (1) 
0.932955384

$$$$
