
     RDKit          3D

 32 35  0  0  0  0  0  0  0  0999 V2000
   37.6060   25.3860   34.1210 C   0  0  0  0  0  0  0  0  0  0  0  0
   38.0090   25.7550   35.4090 C   0  0  0  0  0  0  0  0  0  0  0  0
   37.8770   27.0860   35.7740 C   0  0  0  0  0  0  0  0  0  0  0  0
   37.3620   27.9590   34.8560 N   0  0  0  0  0  0  0  0  0  0  0  0
   36.9830   27.5720   33.6230 C   0  0  0  0  0  0  0  0  0  0  0  0
   37.1130   26.2880   33.2770 N   0  0  0  0  0  0  0  0  0  0  0  0
   38.5460   24.7480   36.3110 C   0  0  0  0  0  0  0  0  0  0  0  0
   37.8230   24.3660   37.4870 C   0  0  0  0  0  0  0  0  0  0  0  0
   38.8590   23.1070   38.2840 S   0  0  0  0  0  0  0  0  0  0  0  0
   40.1390   23.2830   36.8890 C   0  0  0  0  0  0  0  0  0  0  0  0
   39.6640   24.0670   36.2400 N   0  0  0  0  0  0  0  0  0  0  0  0
   41.3950   22.5640   36.7500 N   0  0  0  0  0  0  0  0  0  0  0  0
   41.4760   21.2410   36.9890 C   0  0  0  0  0  0  0  0  0  0  0  0
   42.8170   20.8900   36.7590 C   0  0  0  0  0  0  0  0  0  0  0  0
   43.4560   22.0150   36.3980 N   0  0  0  0  0  0  0  0  0  0  0  0
   42.6000   23.0620   36.3850 C   0  0  0  0  0  0  0  0  0  0  0  0
   36.4360   28.5370   32.6700 C   0  0  0  0  0  0  0  0  0  0  0  0
   37.1100   28.7510   31.4760 C   0  0  0  0  0  0  0  0  0  0  0  0
   36.6030   29.6600   30.5680 C   0  0  0  0  0  0  0  0  0  0  0  0
   35.4450   30.3150   30.8940 C   0  0  0  0  0  0  0  0  0  0  0  0
   34.7670   30.1020   32.0890 C   0  0  0  0  0  0  0  0  0  0  0  0
   35.2840   29.2020   32.9710 N   0  0  0  0  0  0  0  0  0  0  0  0
   37.6980   24.3371   33.8025 H   0  0  0  0  0  0  0  0  0  0  0  0
   38.1782   27.4303   36.7744 H   0  0  0  0  0  0  0  0  0  0  0  0
   36.8521   24.7515   37.8317 H   0  0  0  0  0  0  0  0  0  0  0  0
   40.6598   20.5725   37.3004 H   0  0  0  0  0  0  0  0  0  0  0  0
   43.2585   19.8871   36.8559 H   0  0  0  0  0  0  0  0  0  0  0  0
   42.8350   24.1059   36.1298 H   0  0  0  0  0  0  0  0  0  0  0  0
   38.0377   28.2028   31.2551 H   0  0  0  0  0  0  0  0  0  0  0  0
   37.1134   29.8520   29.6127 H   0  0  0  0  0  0  0  0  0  0  0  0
   35.0331   31.0419   30.1785 H   0  0  0  0  0  0  0  0  0  0  0  0
   33.8381   30.6457   32.3160 H   0  0  0  0  0  0  0  0  0  0  0  0
  1  2  2  0
  2  3  1  0
  2  7  1  0
  4  3  2  0
  5  4  1  0
  6  5  2  0
  6  1  1  0
  7  8  2  0
  8  9  1  0
 10  9  1  0
 11  7  1  0
 11 10  2  0
 12 10  1  0
 12 13  1  0
 14 13  2  0
 15 14  1  0
 16 15  2  0
 16 12  1  0
 17 22  1  0
 17  5  1  0
 18 17  2  0
 19 20  2  0
 19 18  1  0
 20 21  1  0
 21 22  2  0
  1 23  1  0
  3 24  1  0
  8 25  1  0
 13 26  1  0
 14 27  1  0
 16 28  1  0
 18 29  1  0
 19 30  1  0
 20 31  1  0
 21 32  1  0
M  ISO  8  23  14  24  14  25  14  26  14  27  14  28  14  29  14  30  14
M  ISO  2  31  14  32  14
M  END
>  <minimizedAffinity>  (1) 
-5.10386944

>  <minimizedRMSD>  (1) 
0.96742481

$$$$
