
     RDKit          3D

 31 34  0  0  0  0  0  0  0  0999 V2000
   37.6650   25.3350   34.0200 C   0  0  0  0  0  0  0  0  0  0  0  0
   38.0010   25.7010   35.3190 C   0  0  0  0  0  0  0  0  0  0  0  0
   37.8090   27.0280   35.6830 C   0  0  0  0  0  0  0  0  0  0  0  0
   37.3080   27.8930   34.7610 N   0  0  0  0  0  0  0  0  0  0  0  0
   36.9940   27.4980   33.5080 C   0  0  0  0  0  0  0  0  0  0  0  0
   37.1780   26.2260   33.1580 N   0  0  0  0  0  0  0  0  0  0  0  0
   38.5350   24.7120   36.2540 C   0  0  0  0  0  0  0  0  0  0  0  0
   37.8030   24.3560   37.4280 C   0  0  0  0  0  0  0  0  0  0  0  0
   38.8430   23.1200   38.2570 S   0  0  0  0  0  0  0  0  0  0  0  0
   40.1270   23.2760   36.8730 C   0  0  0  0  0  0  0  0  0  0  0  0
   39.6550   24.0370   36.2060 N   0  0  0  0  0  0  0  0  0  0  0  0
   41.4000   22.5610   36.7440 N   0  0  0  0  0  0  0  0  0  0  0  0
   41.4740   21.2360   37.0190 C   0  0  0  0  0  0  0  0  0  0  0  0
   42.8190   20.8880   36.7940 C   0  0  0  0  0  0  0  0  0  0  0  0
   43.4460   22.0100   36.4080 N   0  0  0  0  0  0  0  0  0  0  0  0
   42.5980   23.0550   36.3670 C   0  0  0  0  0  0  0  0  0  0  0  0
   36.4600   28.4650   32.5590 C   0  0  0  0  0  0  0  0  0  0  0  0
   35.3000   29.1610   32.8530 C   0  0  0  0  0  0  0  0  0  0  0  0
   34.7400   30.0930   31.9960 C   0  0  0  0  0  0  0  0  0  0  0  0
   35.3680   30.3220   30.8250 N   0  0  0  0  0  0  0  0  0  0  0  0
   36.5080   29.6530   30.5090 C   0  0  0  0  0  0  0  0  0  0  0  0
   37.0330   28.7430   31.3740 N   0  0  0  0  0  0  0  0  0  0  0  0
   37.8038   24.2921   33.6991 H   0  0  0  0  0  0  0  0  0  0  0  0
   38.0575   27.3724   36.6977 H   0  0  0  0  0  0  0  0  0  0  0  0
   36.8274   24.7440   37.7563 H   0  0  0  0  0  0  0  0  0  0  0  0
   40.6584   20.5749   37.3474 H   0  0  0  0  0  0  0  0  0  0  0  0
   43.2686   19.8910   36.9116 H   0  0  0  0  0  0  0  0  0  0  0  0
   42.8322   24.0923   36.0856 H   0  0  0  0  0  0  0  0  0  0  0  0
   34.7997   28.9643   33.8127 H   0  0  0  0  0  0  0  0  0  0  0  0
   33.8158   30.6275   32.2609 H   0  0  0  0  0  0  0  0  0  0  0  0
   37.0088   29.8481   29.5493 H   0  0  0  0  0  0  0  0  0  0  0  0
  1  2  2  0
  2  3  1  0
  2  7  1  0
  4  3  2  0
  5  4  1  0
  6  5  2  0
  6  1  1  0
  7  8  2  0
  8  9  1  0
 10  9  1  0
 11  7  1  0
 11 10  2  0
 12 10  1  0
 12 13  1  0
 14 13  2  0
 15 14  1  0
 16 15  2  0
 16 12  1  0
 17 18  2  0
 17  5  1  0
 19 18  1  0
 20 19  2  0
 21 20  1  0
 21 22  2  0
 22 17  1  0
  1 23  1  0
  3 24  1  0
  8 25  1  0
 13 26  1  0
 14 27  1  0
 16 28  1  0
 18 29  1  0
 19 30  1  0
 21 31  1  0
M  ISO  8  23  14  24  14  25  14  26  14  27  14  28  14  29  14  30  14
M  ISO  1  31  14
M  END
>  <minimizedAffinity>  (1) 
-5.0662179

>  <minimizedRMSD>  (1) 
0.774278522

$$$$
