
     RDKit          3D

 30 33  0  0  0  0  0  0  0  0999 V2000
   38.2870   24.7010   35.8530 C   0  0  0  0  0  0  0  0  0  0  0  0
   37.5260   24.4540   37.0410 C   0  0  0  0  0  0  0  0  0  0  0  0
   38.5660   23.3570   38.0480 S   0  0  0  0  0  0  0  0  0  0  0  0
   39.9020   23.3930   36.6930 C   0  0  0  0  0  0  0  0  0  0  0  0
   39.4230   24.0560   35.9400 N   0  0  0  0  0  0  0  0  0  0  0  0
   41.1940   22.7150   36.6900 N   0  0  0  0  0  0  0  0  0  0  0  0
   41.3000   21.4410   37.1240 C   0  0  0  0  0  0  0  0  0  0  0  0
   42.6440   21.0840   36.9980 C   0  0  0  0  0  0  0  0  0  0  0  0
   43.2680   22.1760   36.4900 N   0  0  0  0  0  0  0  0  0  0  0  0
   42.3830   23.1780   36.3000 C   0  0  0  0  0  0  0  0  0  0  0  0
   37.7080   25.1060   33.4870 C   0  0  0  0  0  0  0  0  0  0  0  0
   37.7610   25.5530   34.7990 C   0  0  0  0  0  0  0  0  0  0  0  0
   37.2930   26.8350   35.0550 C   0  0  0  0  0  0  0  0  0  0  0  0
   36.8120   27.5800   34.0120 N   0  0  0  0  0  0  0  0  0  0  0  0
   36.7830   27.0990   32.7520 C   0  0  0  0  0  0  0  0  0  0  0  0
   37.2340   25.8650   32.5110 N   0  0  0  0  0  0  0  0  0  0  0  0
   36.2560   27.9160   31.6180 C   0  0  0  0  0  0  0  0  0  0  0  0
   35.7430   29.3210   32.0700 C   0  0  0  0  0  0  0  0  0  0  0  0
   36.9220   29.1630   31.1860 C   0  0  0  0  0  0  0  0  0  0  0  0
   36.5280   24.8441   37.2896 H   0  0  0  0  0  0  0  0  0  0  0  0
   40.4852   20.8069   37.5035 H   0  0  0  0  0  0  0  0  0  0  0  0
   43.1017   20.1178   37.2569 H   0  0  0  0  0  0  0  0  0  0  0  0
   42.5999   24.1801   35.9016 H   0  0  0  0  0  0  0  0  0  0  0  0
   38.0693   24.0942   33.2511 H   0  0  0  0  0  0  0  0  0  0  0  0
   37.3084   27.2440   36.0760 H   0  0  0  0  0  0  0  0  0  0  0  0
   35.9059   27.0347   31.0606 H   0  0  0  0  0  0  0  0  0  0  0  0
   34.7997   29.7225   31.6713 H   0  0  0  0  0  0  0  0  0  0  0  0
   35.5379   29.8146   33.0314 H   0  0  0  0  0  0  0  0  0  0  0  0
   37.9231   29.4022   31.5741 H   0  0  0  0  0  0  0  0  0  0  0  0
   37.1884   29.5750   30.2015 H   0  0  0  0  0  0  0  0  0  0  0  0
  1  5  1  0
  1  2  2  0
  2  3  1  0
  4  3  1  0
  5  4  2  0
  6  4  1  0
  6  7  1  0
  8  7  2  0
  9  8  1  0
 10  9  2  0
 10  6  1  0
 11 12  2  0
 12 13  1  0
 12  1  1  0
 14 13  2  0
 15 14  1  0
 16 15  2  0
 16 11  1  0
 17 18  1  0
 17 15  1  0
 19 17  1  0
 19 18  1  0
  2 20  1  0
  7 21  1  0
  8 22  1  0
 10 23  1  0
 11 24  1  0
 13 25  1  0
 17 26  1  0
 18 27  1  0
 18 28  1  0
 19 29  1  0
 19 30  1  0
M  ISO  8  20  14  21  14  22  14  23  14  24  14  25  14  26  13  27  13
M  ISO  3  28  13  29  13  30  13
M  END
>  <minimizedAffinity>  (1) 
-4.73378563

>  <minimizedRMSD>  (1) 
0.0341881625

$$$$
