
     RDKit          3D

 26 28  0  0  0  0  0  0  0  0999 V2000
   38.2600   24.6620   35.7870 C   0  0  0  0  0  0  0  0  0  0  0  0
   37.5170   24.4620   36.9820 C   0  0  0  0  0  0  0  0  0  0  0  0
   38.5780   23.4120   38.0120 S   0  0  0  0  0  0  0  0  0  0  0  0
   39.8930   23.4040   36.6390 C   0  0  0  0  0  0  0  0  0  0  0  0
   39.4050   24.0370   35.8550 N   0  0  0  0  0  0  0  0  0  0  0  0
   41.1890   22.7270   36.6530 N   0  0  0  0  0  0  0  0  0  0  0  0
   41.2980   21.4580   37.1190 C   0  0  0  0  0  0  0  0  0  0  0  0
   42.6460   21.1260   36.9910 C   0  0  0  0  0  0  0  0  0  0  0  0
   43.2670   22.2060   36.4600 N   0  0  0  0  0  0  0  0  0  0  0  0
   42.3770   23.2050   36.2450 C   0  0  0  0  0  0  0  0  0  0  0  0
   37.6650   24.9930   33.3980 C   0  0  0  0  0  0  0  0  0  0  0  0
   37.7220   25.4690   34.6990 C   0  0  0  0  0  0  0  0  0  0  0  0
   37.2390   26.7630   34.9070 C   0  0  0  0  0  0  0  0  0  0  0  0
   36.7470   27.4810   33.8670 N   0  0  0  0  0  0  0  0  0  0  0  0
   36.7200   26.9510   32.6100 C   0  0  0  0  0  0  0  0  0  0  0  0
   37.1810   25.7180   32.4060 N   0  0  0  0  0  0  0  0  0  0  0  0
   36.2050   27.6700   31.4480 C   0  0  0  0  0  0  0  0  0  0  0  0
   35.8080   28.8650   31.4840 O   0  0  0  0  0  0  0  0  0  0  0  0
   36.1120   27.0660   30.1800 O   0  0  0  0  0  0  0  0  0  0  0  0
   36.5199   24.8564   37.2276 H   0  0  0  0  0  0  0  0  0  0  0  0
   40.4915   20.8234   37.5151 H   0  0  0  0  0  0  0  0  0  0  0  0
   43.1151   20.1704   37.2681 H   0  0  0  0  0  0  0  0  0  0  0  0
   42.5838   24.2000   35.8241 H   0  0  0  0  0  0  0  0  0  0  0  0
   38.0347   23.9791   33.1853 H   0  0  0  0  0  0  0  0  0  0  0  0
   37.2577   27.2004   35.9161 H   0  0  0  0  0  0  0  0  0  0  0  0
   36.4014   26.1274   30.0564 H   0  0  0  0  0  0  0  0  0  0  0  0
  1  5  1  0
  1  2  2  0
  2  3  1  0
  4  6  1  0
  4  3  1  0
  5  4  2  0
  6  7  1  0
  8  7  2  0
  9  8  1  0
 10  9  2  0
 10  6  1  0
 11 12  2  0
 12 13  1  0
 12  1  1  0
 14 13  2  0
 15 14  1  0
 16 15  2  0
 16 11  1  0
 17 18  2  0
 17 15  1  0
 19 17  1  0
  2 20  1  0
  7 21  1  0
  8 22  1  0
 10 23  1  0
 11 24  1  0
 13 25  1  0
 19 26  1  0
M  ISO  7  20  14  21  14  22  14  23  14  24  14  25  14  26   3
M  END
>  <minimizedAffinity>  (1) 
-4.93238401

>  <minimizedRMSD>  (1) 
0.361547261

$$$$
