
     RDKit          3D

 25 27  0  0  0  0  0  0  0  0999 V2000
   38.2980   24.7000   35.8660 C   0  0  0  0  0  0  0  0  0  0  0  0
   37.5380   24.4390   37.0530 C   0  0  0  0  0  0  0  0  0  0  0  0
   38.5840   23.3400   38.0490 S   0  0  0  0  0  0  0  0  0  0  0  0
   39.9050   23.3930   36.7070 C   0  0  0  0  0  0  0  0  0  0  0  0
   39.4370   24.0640   35.9400 N   0  0  0  0  0  0  0  0  0  0  0  0
   41.2110   22.7190   36.6880 N   0  0  0  0  0  0  0  0  0  0  0  0
   41.3060   21.4280   37.1000 C   0  0  0  0  0  0  0  0  0  0  0  0
   42.6660   21.1010   36.9560 C   0  0  0  0  0  0  0  0  0  0  0  0
   43.2870   22.2100   36.4710 N   0  0  0  0  0  0  0  0  0  0  0  0
   42.3970   23.1990   36.3070 C   0  0  0  0  0  0  0  0  0  0  0  0
   37.7060   25.1100   33.5030 C   0  0  0  0  0  0  0  0  0  0  0  0
   37.7640   25.5570   34.8260 C   0  0  0  0  0  0  0  0  0  0  0  0
   37.2920   26.8380   35.0820 C   0  0  0  0  0  0  0  0  0  0  0  0
   36.8030   27.5880   34.0580 N   0  0  0  0  0  0  0  0  0  0  0  0
   36.7650   27.1210   32.7950 C   0  0  0  0  0  0  0  0  0  0  0  0
   37.2190   25.8820   32.5390 N   0  0  0  0  0  0  0  0  0  0  0  0
   36.2390   27.9650   31.7750 N   0  0  0  0  0  0  0  0  0  0  0  0
   36.5381   24.8217   37.3054 H   0  0  0  0  0  0  0  0  0  0  0  0
   40.4960   20.7800   37.4662 H   0  0  0  0  0  0  0  0  0  0  0  0
   43.1369   20.1349   37.1903 H   0  0  0  0  0  0  0  0  0  0  0  0
   42.6042   24.2117   35.9307 H   0  0  0  0  0  0  0  0  0  0  0  0
   38.0700   24.1017   33.2564 H   0  0  0  0  0  0  0  0  0  0  0  0
   37.3135   27.2427   36.1046 H   0  0  0  0  0  0  0  0  0  0  0  0
   36.1987   27.6321   30.8011 H   0  0  0  0  0  0  0  0  0  0  0  0
   35.8990   28.9081   32.0114 H   0  0  0  0  0  0  0  0  0  0  0  0
  1  5  1  0
  1  2  2  0
  2  3  1  0
  4  3  1  0
  5  4  2  0
  6  4  1  0
  6  7  1  0
  8  7  2  0
  9  8  1  0
 10  9  2  0
 10  6  1  0
 11 12  2  0
 12 13  1  0
 12  1  1  0
 14 13  2  0
 15 14  1  0
 16 15  2  0
 16 11  1  0
 17 15  1  0
  2 18  1  0
  7 19  1  0
  8 20  1  0
 10 21  1  0
 11 22  1  0
 13 23  1  0
 17 24  1  0
 17 25  1  0
M  ISO  6  18  14  19  14  20  14  21  14  22  14  23  14
M  END
>  <minimizedAffinity>  (1) 
-4.36051035

>  <minimizedRMSD>  (1) 
0.0192831717

$$$$
