
     RDKit          3D

 26 28  0  0  0  0  0  0  0  0999 V2000
   38.2920   24.7070   35.8700 C   0  0  0  0  0  0  0  0  0  0  0  0
   37.5310   24.4420   37.0530 C   0  0  0  0  0  0  0  0  0  0  0  0
   38.5780   23.3360   38.0470 S   0  0  0  0  0  0  0  0  0  0  0  0
   39.8990   23.3970   36.7010 C   0  0  0  0  0  0  0  0  0  0  0  0
   39.4330   24.0730   35.9320 N   0  0  0  0  0  0  0  0  0  0  0  0
   41.2050   22.7200   36.6870 N   0  0  0  0  0  0  0  0  0  0  0  0
   41.3050   21.4330   37.1030 C   0  0  0  0  0  0  0  0  0  0  0  0
   42.6540   21.0970   36.9650 C   0  0  0  0  0  0  0  0  0  0  0  0
   43.2730   22.1850   36.4840 N   0  0  0  0  0  0  0  0  0  0  0  0
   42.3920   23.2020   36.3040 C   0  0  0  0  0  0  0  0  0  0  0  0
   37.7080   25.1310   33.5040 C   0  0  0  0  0  0  0  0  0  0  0  0
   37.7620   25.5710   34.8240 C   0  0  0  0  0  0  0  0  0  0  0  0
   37.2960   26.8510   35.0920 C   0  0  0  0  0  0  0  0  0  0  0  0
   36.8110   27.6060   34.0590 N   0  0  0  0  0  0  0  0  0  0  0  0
   36.7800   27.1340   32.7990 C   0  0  0  0  0  0  0  0  0  0  0  0
   37.2270   25.9060   32.5380 N   0  0  0  0  0  0  0  0  0  0  0  0
   36.2290   28.0460   31.7440 C   0  0  0  0  0  0  0  0  0  0  0  0
   36.5309   24.8240   37.3058 H   0  0  0  0  0  0  0  0  0  0  0  0
   40.4936   20.7885   37.4719 H   0  0  0  0  0  0  0  0  0  0  0  0
   43.1180   20.1288   37.2043 H   0  0  0  0  0  0  0  0  0  0  0  0
   42.6090   24.2108   35.9230 H   0  0  0  0  0  0  0  0  0  0  0  0
   38.0705   24.1224   33.2563 H   0  0  0  0  0  0  0  0  0  0  0  0
   37.3163   27.2511   36.1165 H   0  0  0  0  0  0  0  0  0  0  0  0
   35.7169   28.8936   32.2230 H   0  0  0  0  0  0  0  0  0  0  0  0
   37.0517   28.4212   31.1175 H   0  0  0  0  0  0  0  0  0  0  0  0
   35.5142   27.4923   31.1175 H   0  0  0  0  0  0  0  0  0  0  0  0
  1  5  1  0
  1  2  2  0
  2  3  1  0
  4  3  1  0
  5  4  2  0
  6  4  1  0
  6  7  1  0
  8  7  2  0
  9  8  1  0
 10  9  2  0
 10  6  1  0
 11 12  2  0
 12 13  1  0
 12  1  1  0
 14 13  2  0
 15 14  1  0
 16 15  2  0
 16 11  1  0
 17 15  1  0
  2 18  1  0
  7 19  1  0
  8 20  1  0
 10 21  1  0
 11 22  1  0
 13 23  1  0
 17 24  1  0
 17 25  1  0
 17 26  1  0
M  ISO  8  18  14  19  14  20  14  21  14  22  14  23  14  24   8  25   8
M  ISO  1  26   8
M  END
>  <minimizedAffinity>  (1) 
-4.41990948

>  <minimizedRMSD>  (1) 
0.0181433428

$$$$
