
     RDKit          3D

 38 41  0  0  1  0  0  0  0  0999 V2000
   38.0210   25.1540   33.6270 C   0  0  0  0  0  0  0  0  0  0  0  0
   37.8740   25.5000   34.9770 C   0  0  0  0  0  0  0  0  0  0  0  0
   37.2120   26.6850   35.2870 C   0  0  0  0  0  0  0  0  0  0  0  0
   36.7350   27.4570   34.2630 N   0  0  0  0  0  0  0  0  0  0  0  0
   36.8980   27.0870   32.9760 C   0  0  0  0  0  0  0  0  0  0  0  0
   37.5280   25.9610   32.6950 N   0  0  0  0  0  0  0  0  0  0  0  0
   36.3890   27.9270   31.9570 N   0  0  0  0  0  0  0  0  0  0  0  0
   35.2060   28.7810   32.1120 C   0  0  0  0  0  0  0  0  0  0  0  0
   35.6710   30.0600   31.4290 C   0  0  0  0  0  0  0  0  0  0  0  0
   36.9280   29.7180   30.6650 C   0  0  0  0  0  0  0  0  0  0  0  0
   36.8170   28.1790   30.6220 C   0  0  1  0  0  0  0  0  0  0  0  0
   38.4060   24.6350   36.0310 C   0  0  0  0  0  0  0  0  0  0  0  0
   37.6950   24.4160   37.2310 C   0  0  0  0  0  0  0  0  0  0  0  0
   38.7370   23.2960   38.1990 S   0  0  0  0  0  0  0  0  0  0  0  0
   40.0230   23.2840   36.8040 C   0  0  0  0  0  0  0  0  0  0  0  0
   39.5480   23.9610   36.0480 N   0  0  0  0  0  0  0  0  0  0  0  0
   41.2880   22.5660   36.7700 N   0  0  0  0  0  0  0  0  0  0  0  0
   41.3800   21.2860   37.1860 C   0  0  0  0  0  0  0  0  0  0  0  0
   42.7240   20.9160   37.0150 C   0  0  0  0  0  0  0  0  0  0  0  0
   43.3520   21.9830   36.5140 N   0  0  0  0  0  0  0  0  0  0  0  0
   42.4890   23.0180   36.3520 C   0  0  0  0  0  0  0  0  0  0  0  0
   38.0920   27.5770   30.1690 C   0  0  0  0  0  0  0  0  0  0  0  0
   38.4750   28.0580   28.9460 F   0  0  0  0  0  0  0  0  0  0  0  0
   38.0620   26.1930   30.1890 F   0  0  0  0  0  0  0  0  0  0  0  0
   39.0770   28.0090   31.0700 F   0  0  0  0  0  0  0  0  0  0  0  0
   38.5382   24.2256   33.3431 H   0  0  0  0  0  0  0  0  0  0  0  0
   37.0753   26.9942   36.3337 H   0  0  0  0  0  0  0  0  0  0  0  0
   34.3292   28.3502   31.6065 H   0  0  0  0  0  0  0  0  0  0  0  0
   34.8826   28.9185   33.1544 H   0  0  0  0  0  0  0  0  0  0  0  0
   34.8957   30.4233   30.7384 H   0  0  0  0  0  0  0  0  0  0  0  0
   35.8625   30.8529   32.1670 H   0  0  0  0  0  0  0  0  0  0  0  0
   36.9217   30.1545   29.6553 H   0  0  0  0  0  0  0  0  0  0  0  0
   37.8569   30.0995   31.1140 H   0  0  0  0  0  0  0  0  0  0  0  0
   36.1233   27.7253   29.8989 H   0  0  0  0  0  0  0  0  0  0  0  0
   36.7188   24.8353   37.5161 H   0  0  0  0  0  0  0  0  0  0  0  0
   40.5666   20.6588   37.5796 H   0  0  0  0  0  0  0  0  0  0  0  0
   43.1718   19.9387   37.2481 H   0  0  0  0  0  0  0  0  0  0  0  0
   42.7208   24.0195   35.9605 H   0  0  0  0  0  0  0  0  0  0  0  0
  1  2  2  0
  2  3  1  0
  2 12  1  0
  4  3  2  0
  5  4  1  0
  6  5  2  0
  6  1  1  0
  7  8  1  0
  7  5  1  0
  9  8  1  0
 10  9  1  0
 11 10  1  0
 11  7  1  0
 12 16  1  0
 12 13  2  0
 13 14  1  0
 15 14  1  0
 16 15  2  0
 17 15  1  0
 17 18  1  0
 19 18  2  0
 20 19  1  0
 21 20  2  0
 21 17  1  0
 22 24  1  0
 22 11  1  0
 22 25  1  0
 23 22  1  0
  1 26  1  0
  3 27  1  0
  8 28  1  0
  8 29  1  0
  9 30  1  0
  9 31  1  0
 10 32  1  0
 10 33  1  0
 11 34  1  6
 13 35  1  0
 18 36  1  0
 19 37  1  0
 21 38  1  0
M  ISO  8  26  14  27  14  28  13  29  13  30  13  31  13  32  13  33  13
M  ISO  5  34  13  35  14  36  14  37  14  38  14
M  END
>  <minimizedAffinity>  (1) 
-5.70795441

>  <minimizedRMSD>  (1) 
0.36829266

$$$$
