
     RDKit          3D

 48 53  0  0  1  0  0  0  0  0999 V2000
   38.2770   24.8450   33.8330 C   0  0  0  0  0  0  0  0  0  0  0  0
   38.0890   25.2180   35.1550 C   0  0  0  0  0  0  0  0  0  0  0  0
   37.3490   26.3820   35.4120 C   0  0  0  0  0  0  0  0  0  0  0  0
   36.8560   27.0830   34.3480 N   0  0  0  0  0  0  0  0  0  0  0  0
   37.0680   26.6780   33.0850 C   0  0  0  0  0  0  0  0  0  0  0  0
   37.7710   25.5700   32.8320 N   0  0  0  0  0  0  0  0  0  0  0  0
   36.5190   27.4680   32.0430 N   0  0  0  0  0  0  0  0  0  0  0  0
   35.3160   28.2860   32.1590 C   0  0  0  0  0  0  0  0  0  0  0  0
   35.7280   29.5350   31.3830 C   0  0  0  0  0  0  0  0  0  0  0  0
   36.9700   29.1670   30.6170 C   0  0  0  0  0  0  0  0  0  0  0  0
   36.9830   27.6510   30.6890 C   0  0  1  0  0  0  0  0  0  0  0  0
   38.6450   24.4200   36.2480 C   0  0  0  0  0  0  0  0  0  0  0  0
   38.0110   24.3710   37.5100 C   0  0  0  0  0  0  0  0  0  0  0  0
   39.0390   23.2840   38.5190 S   0  0  0  0  0  0  0  0  0  0  0  0
   40.2150   23.0450   37.0410 C   0  0  0  0  0  0  0  0  0  0  0  0
   39.7200   23.6800   36.2650 N   0  0  0  0  0  0  0  0  0  0  0  0
   41.4260   22.2360   36.9950 N   0  0  0  0  0  0  0  0  0  0  0  0
   41.4810   21.0290   37.5590 C   0  0  0  0  0  0  0  0  0  0  0  0
   42.7640   20.5300   37.3360 C   0  0  0  0  0  0  0  0  0  0  0  0
   43.4100   21.4730   36.6470 N   0  0  0  0  0  0  0  0  0  0  0  0
   42.6060   22.5380   36.4230 C   0  0  0  0  0  0  0  0  0  0  0  0
   38.3300   27.1350   30.5980 N   0  0  0  0  0  0  0  0  0  0  0  0
   39.4310   27.8570   30.8230 C   0  0  0  0  0  0  0  0  0  0  0  0
   40.4740   27.0370   30.6420 N   0  0  0  0  0  0  0  0  0  0  0  0
   40.0080   25.8120   30.3060 C   0  0  0  0  0  0  0  0  0  0  0  0
   40.7510   24.6770   30.0340 C   0  0  0  0  0  0  0  0  0  0  0  0
   40.0170   23.5720   29.7210 N   0  0  0  0  0  0  0  0  0  0  0  0
   38.6700   23.6190   29.6890 C   0  0  0  0  0  0  0  0  0  0  0  0
   37.9540   24.7320   29.9570 N   0  0  0  0  0  0  0  0  0  0  0  0
   38.6120   25.8630   30.2750 C   0  0  0  0  0  0  0  0  0  0  0  0
   42.1730   24.7030   30.0870 N   0  0  0  0  0  0  0  0  0  0  0  0
   38.8530   23.9361   33.6046 H   0  0  0  0  0  0  0  0  0  0  0  0
   37.1705   26.7213   36.4430 H   0  0  0  0  0  0  0  0  0  0  0  0
   34.4477   27.7931   31.6973 H   0  0  0  0  0  0  0  0  0  0  0  0
   35.0026   28.4821   33.1950 H   0  0  0  0  0  0  0  0  0  0  0  0
   34.9278   29.8338   30.6899 H   0  0  0  0  0  0  0  0  0  0  0  0
   35.9123   30.3827   32.0593 H   0  0  0  0  0  0  0  0  0  0  0  0
   37.8668   29.5924   31.0911 H   0  0  0  0  0  0  0  0  0  0  0  0
   36.9715   29.5507   29.5861 H   0  0  0  0  0  0  0  0  0  0  0  0
   36.4052   27.1566   29.8942 H   0  0  0  0  0  0  0  0  0  0  0  0
   37.0873   24.8859   37.8129 H   0  0  0  0  0  0  0  0  0  0  0  0
   40.6674   20.5222   38.0987 H   0  0  0  0  0  0  0  0  0  0  0  0
   43.1623   19.5577   37.6615 H   0  0  0  0  0  0  0  0  0  0  0  0
   42.8641   23.4614   35.8838 H   0  0  0  0  0  0  0  0  0  0  0  0
   39.4728   28.9200   31.1029 H   0  0  0  0  0  0  0  0  0  0  0  0
   38.1241   22.6998   29.4302 H   0  0  0  0  0  0  0  0  0  0  0  0
   42.7117   23.8494   29.8818 H   0  0  0  0  0  0  0  0  0  0  0  0
   42.6634   25.5754   30.3306 H   0  0  0  0  0  0  0  0  0  0  0  0
  1  2  2  0
  2  3  1  0
  2 12  1  0
  4  3  2  0
  5  4  1  0
  6  5  2  0
  6  1  1  0
  7  8  1  0
  7  5  1  0
  9  8  1  0
 10 11  1  0
 10  9  1  0
 11  7  1  0
 12 16  1  0
 12 13  2  0
 13 14  1  0
 15 14  1  0
 16 15  2  0
 17 15  1  0
 17 18  1  0
 19 18  2  0
 20 19  1  0
 21 20  2  0
 21 17  1  0
 22 11  1  0
 22 23  1  0
 24 23  2  0
 25 24  1  0
 26 31  1  0
 26 25  2  0
 27 26  1  0
 28 27  2  0
 28 29  1  0
 29 30  2  0
 30 25  1  0
 30 22  1  0
  1 32  1  0
  3 33  1  0
  8 34  1  0
  8 35  1  0
  9 36  1  0
  9 37  1  0
 10 38  1  0
 10 39  1  0
 11 40  1  6
 13 41  1  0
 18 42  1  0
 19 43  1  0
 21 44  1  0
 23 45  1  0
 28 46  1  0
 31 47  1  0
 31 48  1  0
M  ISO  8  32  14  33  14  34  13  35  13  36  13  37  13  38  13  39  13
M  ISO  7  40  13  41  14  42  14  43  14  44  14  45  14  46  14
M  END
>  <minimizedAffinity>  (1) 
-5.73316574

>  <minimizedRMSD>  (1) 
0.925218284

$$$$
