
     RDKit          3D

 51 55  0  0  1  0  0  0  0  0999 V2000
   37.9460   25.3330   33.3820 C   0  0  0  0  0  0  0  0  0  0  0  0
   37.8040   25.6690   34.7350 C   0  0  0  0  0  0  0  0  0  0  0  0
   37.1830   26.8720   35.0570 C   0  0  0  0  0  0  0  0  0  0  0  0
   36.7400   27.6700   34.0380 N   0  0  0  0  0  0  0  0  0  0  0  0
   36.8940   27.3140   32.7590 C   0  0  0  0  0  0  0  0  0  0  0  0
   37.4900   26.1570   32.4360 N   0  0  0  0  0  0  0  0  0  0  0  0
   36.4170   28.1850   31.7310 N   0  0  0  0  0  0  0  0  0  0  0  0
   35.2650   29.0720   31.9260 C   0  0  0  0  0  0  0  0  0  0  0  0
   35.7530   30.3250   31.2150 C   0  0  0  0  0  0  0  0  0  0  0  0
   36.9790   29.9500   30.4530 C   0  0  0  0  0  0  0  0  0  0  0  0
   36.8560   28.4150   30.3930 C   0  0  1  0  0  0  0  0  0  0  0  0
   38.3020   24.7750   35.7770 C   0  0  0  0  0  0  0  0  0  0  0  0
   37.5430   24.4810   36.9160 C   0  0  0  0  0  0  0  0  0  0  0  0
   38.5510   23.3470   37.8970 S   0  0  0  0  0  0  0  0  0  0  0  0
   39.9180   23.4360   36.5640 C   0  0  0  0  0  0  0  0  0  0  0  0
   39.4570   24.1290   35.8290 N   0  0  0  0  0  0  0  0  0  0  0  0
   41.1970   22.7500   36.5840 N   0  0  0  0  0  0  0  0  0  0  0  0
   41.3110   21.4740   36.9660 C   0  0  0  0  0  0  0  0  0  0  0  0
   42.6780   21.1460   36.8630 C   0  0  0  0  0  0  0  0  0  0  0  0
   43.3000   22.2590   36.4220 N   0  0  0  0  0  0  0  0  0  0  0  0
   42.4060   23.2590   36.2430 C   0  0  0  0  0  0  0  0  0  0  0  0
   38.1380   27.7930   29.9690 C   0  0  0  0  0  0  0  0  0  0  0  0
   39.3540   28.2190   30.7230 C   0  0  0  0  0  0  0  0  0  0  0  0
   40.5010   27.3500   30.1880 C   0  0  0  0  0  0  0  0  0  0  0  0
   40.7550   27.7100   28.7410 C   0  0  0  0  0  0  0  0  0  0  0  0
   39.5140   27.3600   27.9540 C   0  0  0  0  0  0  0  0  0  0  0  0
   38.3670   28.1710   28.5180 C   0  0  0  0  0  0  0  0  0  0  0  0
   38.4340   24.3887   33.0990 H   0  0  0  0  0  0  0  0  0  0  0  0
   37.0514   27.1742   36.1065 H   0  0  0  0  0  0  0  0  0  0  0  0
   34.3568   28.6666   31.4561 H   0  0  0  0  0  0  0  0  0  0  0  0
   34.9781   29.2248   32.9769 H   0  0  0  0  0  0  0  0  0  0  0  0
   34.9787   30.6931   30.5258 H   0  0  0  0  0  0  0  0  0  0  0  0
   35.9718   31.1244   31.9382 H   0  0  0  0  0  0  0  0  0  0  0  0
   36.9752   30.3917   29.4456 H   0  0  0  0  0  0  0  0  0  0  0  0
   37.9141   30.3043   30.9114 H   0  0  0  0  0  0  0  0  0  0  0  0
   36.1762   27.9688   29.6522 H   0  0  0  0  0  0  0  0  0  0  0  0
   36.5408   24.8615   37.1626 H   0  0  0  0  0  0  0  0  0  0  0  0
   40.4980   20.8105   37.2958 H   0  0  0  0  0  0  0  0  0  0  0  0
   43.1441   20.1771   37.0955 H   0  0  0  0  0  0  0  0  0  0  0  0
   42.6179   24.2796   35.8915 H   0  0  0  0  0  0  0  0  0  0  0  0
   38.0213   26.7155   30.1571 H   0  0  0  0  0  0  0  0  0  0  0  0
   39.5634   29.2837   30.5428 H   0  0  0  0  0  0  0  0  0  0  0  0
   39.2229   28.0947   31.8081 H   0  0  0  0  0  0  0  0  0  0  0  0
   41.4102   27.5338   30.7793 H   0  0  0  0  0  0  0  0  0  0  0  0
   40.2302   26.2867   30.2654 H   0  0  0  0  0  0  0  0  0  0  0  0
   40.9621   28.7868   28.6540 H   0  0  0  0  0  0  0  0  0  0  0  0
   41.6241   27.1576   28.3542 H   0  0  0  0  0  0  0  0  0  0  0  0
   39.2979   26.2860   28.0534 H   0  0  0  0  0  0  0  0  0  0  0  0
   39.6578   27.5865   26.8872 H   0  0  0  0  0  0  0  0  0  0  0  0
   38.6098   29.2419   28.4531 H   0  0  0  0  0  0  0  0  0  0  0  0
   37.4549   27.9631   27.9393 H   0  0  0  0  0  0  0  0  0  0  0  0
  1  2  2  0
  2  3  1  0
  2 12  1  0
  4  3  2  0
  5  4  1  0
  6  5  2  0
  6  1  1  0
  7  8  1  0
  7  5  1  0
  9  8  1  0
 10  9  1  0
 11 10  1  0
 11  7  1  0
 12 16  1  0
 12 13  2  0
 13 14  1  0
 15 17  1  0
 15 14  1  0
 16 15  2  0
 17 18  1  0
 19 18  2  0
 20 19  1  0
 21 20  2  0
 21 17  1  0
 22 11  1  0
 22 23  1  0
 24 23  1  0
 25 24  1  0
 26 27  1  0
 26 25  1  0
 27 22  1  0
  1 28  1  0
  3 29  1  0
  8 30  1  0
  8 31  1  0
  9 32  1  0
  9 33  1  0
 10 34  1  0
 10 35  1  0
 11 36  1  6
 13 37  1  0
 18 38  1  0
 19 39  1  0
 21 40  1  0
 22 41  1  0
 23 42  1  0
 23 43  1  0
 24 44  1  0
 24 45  1  0
 25 46  1  0
 25 47  1  0
 26 48  1  0
 26 49  1  0
 27 50  1  0
 27 51  1  0
M  ISO  8  28  14  29  14  30  13  31  13  32  13  33  13  34  13  35  13
M  ISO  8  36  13  37  14  38  14  39  14  40  14  41  13  42  13  43  13
M  ISO  8  44  13  45  13  46  13  47  13  48  13  49  13  50  13  51  13
M  END
>  <minimizedAffinity>  (1) 
-5.83075905

>  <minimizedRMSD>  (1) 
0.487066865

$$$$
