
     RDKit          3D

 42 45  0  0  1  0  0  0  0  0999 V2000
   38.7390   24.4100   33.8670 C   0  0  0  0  0  0  0  0  0  0  0  0
   39.2170   24.7200   35.1260 C   0  0  0  0  0  0  0  0  0  0  0  0
   38.8650   25.9580   35.6910 C   0  0  0  0  0  0  0  0  0  0  0  0
   38.0660   26.7880   34.9550 N   0  0  0  0  0  0  0  0  0  0  0  0
   37.6260   26.4470   33.7370 C   0  0  0  0  0  0  0  0  0  0  0  0
   37.9600   25.2650   33.1960 N   0  0  0  0  0  0  0  0  0  0  0  0
   36.7980   27.3740   33.0430 N   0  0  0  0  0  0  0  0  0  0  0  0
   35.8950   28.3090   33.6740 C   0  0  0  0  0  0  0  0  0  0  0  0
   36.1220   29.5540   32.8230 C   0  0  0  0  0  0  0  0  0  0  0  0
   36.8430   29.0940   31.5800 C   0  0  0  0  0  0  0  0  0  0  0  0
   36.6690   27.5920   31.6210 C   0  0  2  0  0  0  0  0  0  0  0  0
   40.0730   23.7780   35.8590 C   0  0  0  0  0  0  0  0  0  0  0  0
   39.5370   22.9120   36.8390 C   0  0  0  0  0  0  0  0  0  0  0  0
   40.9380   21.9590   37.4570 S   0  0  0  0  0  0  0  0  0  0  0  0
   42.0840   22.8970   36.2660 C   0  0  0  0  0  0  0  0  0  0  0  0
   41.3660   23.5850   35.7520 N   0  0  0  0  0  0  0  0  0  0  0  0
   43.5280   22.7270   36.0990 N   0  0  0  0  0  0  0  0  0  0  0  0
   44.0820   21.5010   36.0810 C   0  0  0  0  0  0  0  0  0  0  0  0
   45.4570   21.7050   35.9090 C   0  0  0  0  0  0  0  0  0  0  0  0
   45.6470   23.0280   35.8350 N   0  0  0  0  0  0  0  0  0  0  0  0
   44.4620   23.6760   35.9510 C   0  0  0  0  0  0  0  0  0  0  0  0
   35.4330   27.1230   31.0850 N   0  0  0  0  0  0  0  0  0  0  0  0
   35.3850   25.7800   30.6170 C   0  0  0  0  0  0  0  0  0  0  0  0
   36.3290   24.9050   30.7260 N   0  0  0  0  0  0  0  0  0  0  0  0
   34.1590   25.3860   29.9630 N   0  0  0  0  0  0  0  0  0  0  0  0
   36.2780   23.9410   30.3820 H   0  0  0  0  0  0  0  0  0  0  0  0
   39.0034   23.4451   33.4098 H   0  0  0  0  0  0  0  0  0  0  0  0
   39.2201   26.2489   36.6906 H   0  0  0  0  0  0  0  0  0  0  0  0
   34.8519   27.9648   33.6158 H   0  0  0  0  0  0  0  0  0  0  0  0
   36.0741   28.4564   34.7493 H   0  0  0  0  0  0  0  0  0  0  0  0
   35.1588   30.0134   32.5562 H   0  0  0  0  0  0  0  0  0  0  0  0
   36.7082   30.3085   33.3681 H   0  0  0  0  0  0  0  0  0  0  0  0
   37.9073   29.3697   31.6156 H   0  0  0  0  0  0  0  0  0  0  0  0
   36.4522   29.5504   30.6586 H   0  0  0  0  0  0  0  0  0  0  0  0
   37.3831   27.0384   30.9937 H   0  0  0  0  0  0  0  0  0  0  0  0
   38.4869   22.8354   37.1576 H   0  0  0  0  0  0  0  0  0  0  0  0
   43.5620   20.5368   36.1808 H   0  0  0  0  0  0  0  0  0  0  0  0
   46.2322   20.9271   35.8467 H   0  0  0  0  0  0  0  0  0  0  0  0
   44.2997   24.7637   35.9282 H   0  0  0  0  0  0  0  0  0  0  0  0
   34.6053   27.7343   31.0384 H   0  0  0  0  0  0  0  0  0  0  0  0
   33.3890   26.0625   29.8616 H   0  0  0  0  0  0  0  0  0  0  0  0
   34.0547   24.4285   29.5980 H   0  0  0  0  0  0  0  0  0  0  0  0
  1  2  2  0
  2  3  1  0
  2 12  1  0
  4  3  2  0
  5  4  1  0
  6  5  2  0
  6  1  1  0
  7  8  1  0
  7  5  1  0
  9  8  1  0
 10 11  1  0
 10  9  1  0
 11  7  1  0
 12 13  2  0
 13 14  1  0
 15 14  1  0
 16 12  1  0
 16 15  2  0
 17 15  1  0
 18 17  1  0
 19 18  2  0
 20 19  1  0
 20 21  2  0
 21 17  1  0
 22 11  1  0
 23 24  2  0
 23 22  1  0
 25 23  1  0
 26 24  1  0
  1 27  1  0
  3 28  1  0
  8 29  1  0
  8 30  1  0
  9 31  1  0
  9 32  1  0
 10 33  1  0
 10 34  1  0
 11 35  1  6
 13 36  1  0
 18 37  1  0
 19 38  1  0
 21 39  1  0
 22 40  1  0
 25 41  1  0
 25 42  1  0
M  ISO  8  27  14  28  14  29  13  30  13  31  13  32  13  33  13  34  13
M  ISO  5  35  13  36  14  37  14  38  14  39  14
M  END
>  <minimizedAffinity>  (1) 
-5.3246994

>  <minimizedRMSD>  (1) 
1.98956442

$$$$
