
     RDKit          3D

 38 41  0  0  1  0  0  0  0  0999 V2000
   37.7790   25.1860   33.5280 C   0  0  0  0  0  0  0  0  0  0  0  0
   37.7770   25.5660   34.8560 C   0  0  0  0  0  0  0  0  0  0  0  0
   37.2550   26.8320   35.1800 C   0  0  0  0  0  0  0  0  0  0  0  0
   36.7820   27.6110   34.1560 N   0  0  0  0  0  0  0  0  0  0  0  0
   36.8110   27.1810   32.8700 C   0  0  0  0  0  0  0  0  0  0  0  0
   37.3060   25.9820   32.5700 N   0  0  0  0  0  0  0  0  0  0  0  0
   36.2960   28.0630   31.8810 N   0  0  0  0  0  0  0  0  0  0  0  0
   35.2280   29.0350   32.1020 C   0  0  0  0  0  0  0  0  0  0  0  0
   35.7440   30.2120   31.2870 C   0  0  0  0  0  0  0  0  0  0  0  0
   36.8830   29.7090   30.4560 C   0  0  0  0  0  0  0  0  0  0  0  0
   36.6810   28.2060   30.4960 C   0  0  1  0  0  0  0  0  0  0  0  0
   38.2960   24.6910   35.9000 C   0  0  0  0  0  0  0  0  0  0  0  0
   37.5560   24.4100   37.0630 C   0  0  0  0  0  0  0  0  0  0  0  0
   38.5820   23.3020   38.0470 S   0  0  0  0  0  0  0  0  0  0  0  0
   39.9270   23.3700   36.6990 C   0  0  0  0  0  0  0  0  0  0  0  0
   39.4500   24.0560   35.9460 N   0  0  0  0  0  0  0  0  0  0  0  0
   41.2150   22.6980   36.6860 N   0  0  0  0  0  0  0  0  0  0  0  0
   41.3370   21.4230   37.0850 C   0  0  0  0  0  0  0  0  0  0  0  0
   42.6870   21.0740   36.9530 C   0  0  0  0  0  0  0  0  0  0  0  0
   43.2990   22.1810   36.4770 N   0  0  0  0  0  0  0  0  0  0  0  0
   42.4060   23.1710   36.3130 C   0  0  0  0  0  0  0  0  0  0  0  0
   37.9960   27.5180   30.2170 C   0  0  0  0  0  0  0  0  0  0  0  0
   38.1819   24.1998   33.2541 H   0  0  0  0  0  0  0  0  0  0  0  0
   37.2274   27.1851   36.2214 H   0  0  0  0  0  0  0  0  0  0  0  0
   34.2628   28.6702   31.7208 H   0  0  0  0  0  0  0  0  0  0  0  0
   35.0308   29.2638   33.1597 H   0  0  0  0  0  0  0  0  0  0  0  0
   34.9455   30.5994   30.6371 H   0  0  0  0  0  0  0  0  0  0  0  0
   36.0722   31.0294   31.9459 H   0  0  0  0  0  0  0  0  0  0  0  0
   37.8509   29.9917   30.8956 H   0  0  0  0  0  0  0  0  0  0  0  0
   36.8977   30.1222   29.4367 H   0  0  0  0  0  0  0  0  0  0  0  0
   35.9676   27.7841   29.7728 H   0  0  0  0  0  0  0  0  0  0  0  0
   36.5557   24.7890   37.3194 H   0  0  0  0  0  0  0  0  0  0  0  0
   40.5275   20.7727   37.4482 H   0  0  0  0  0  0  0  0  0  0  0  0
   43.1508   20.1044   37.1871 H   0  0  0  0  0  0  0  0  0  0  0  0
   42.6173   24.1841   35.9402 H   0  0  0  0  0  0  0  0  0  0  0  0
   38.4851   27.2621   31.1685 H   0  0  0  0  0  0  0  0  0  0  0  0
   37.8140   26.5996   29.6396 H   0  0  0  0  0  0  0  0  0  0  0  0
   38.6468   28.1912   29.6396 H   0  0  0  0  0  0  0  0  0  0  0  0
  1  2  2  0
  2  3  1  0
  2 12  1  0
  4  3  2  0
  5  4  1  0
  6  5  2  0
  6  1  1  0
  7  8  1  0
  7  5  1  0
  9  8  1  0
 10 11  1  0
 10  9  1  0
 11  7  1  0
 12 16  1  0
 12 13  2  0
 13 14  1  0
 15 14  1  0
 16 15  2  0
 17 15  1  0
 17 18  1  0
 19 18  2  0
 20 19  1  0
 21 20  2  0
 21 17  1  0
 22 11  1  0
  1 23  1  0
  3 24  1  0
  8 25  1  0
  8 26  1  0
  9 27  1  0
  9 28  1  0
 10 29  1  0
 10 30  1  0
 11 31  1  6
 13 32  1  0
 18 33  1  0
 19 34  1  0
 21 35  1  0
 22 36  1  0
 22 37  1  0
 22 38  1  0
M  ISO  8  23  14  24  14  25  13  26  13  27  13  28  13  29  13  30  13
M  ISO  8  31  13  32  14  33  14  34  14  35  14  36   8  37   8  38   8
M  END
>  <minimizedAffinity>  (1) 
-5.64710665

>  <minimizedRMSD>  (1) 
0.0950674266

$$$$
