
     RDKit          3D

 25 26  0  0  1  0  0  0  0  0999 V2000
   38.2110   24.6700   34.9700 N   0  0  0  0  0  0  0  0  0  0  0  0
   37.7660   25.0640   36.3090 C   0  0  0  0  0  0  0  0  0  0  0  0
   37.6740   23.6880   36.9850 C   0  0  1  0  0  0  0  0  0  0  0  0
   38.3470   22.7080   36.0680 C   0  0  0  0  0  0  0  0  0  0  0  0
   39.2170   23.6450   35.2370 C   0  0  0  0  0  0  0  0  0  0  0  0
   37.7730   25.1610   33.7070 C   0  0  0  0  0  0  0  0  0  0  0  0
   37.9420   24.4350   32.5260 C   0  0  0  0  0  0  0  0  0  0  0  0
   37.4860   24.9840   31.3220 C   0  0  0  0  0  0  0  0  0  0  0  0
   36.8850   26.2310   31.3730 N   0  0  0  0  0  0  0  0  0  0  0  0
   36.7470   26.8920   32.5420 C   0  0  0  0  0  0  0  0  0  0  0  0
   37.1810   26.3710   33.6920 N   0  0  0  0  0  0  0  0  0  0  0  0
   38.2610   23.7000   38.3710 C   0  0  0  0  0  0  0  0  0  0  0  0
   39.5470   23.2550   38.3640 F   0  0  0  0  0  0  0  0  0  0  0  0
   37.5330   22.7640   39.1160 F   0  0  0  0  0  0  0  0  0  0  0  0
   38.0970   24.8970   39.0320 F   0  0  0  0  0  0  0  0  0  0  0  0
   38.5008   25.7136   36.8071 H   0  0  0  0  0  0  0  0  0  0  0  0
   36.8354   25.6501   36.3305 H   0  0  0  0  0  0  0  0  0  0  0  0
   36.6248   23.3946   37.1370 H   0  0  0  0  0  0  0  0  0  0  0  0
   38.9545   21.9814   36.6275 H   0  0  0  0  0  0  0  0  0  0  0  0
   37.6560   22.0865   35.4795 H   0  0  0  0  0  0  0  0  0  0  0  0
   39.5811   23.1680   34.3151 H   0  0  0  0  0  0  0  0  0  0  0  0
   40.1459   23.9917   35.7133 H   0  0  0  0  0  0  0  0  0  0  0  0
   38.4259   23.4473   32.5418 H   0  0  0  0  0  0  0  0  0  0  0  0
   37.6007   24.4449   30.3700 H   0  0  0  0  0  0  0  0  0  0  0  0
   36.2665   27.8815   32.5471 H   0  0  0  0  0  0  0  0  0  0  0  0
  1  5  1  0
  1  2  1  0
  2  3  1  0
  3 12  1  0
  4  3  1  0
  5  4  1  0
  6  1  1  0
  7  6  2  0
  8  9  2  0
  8  7  1  0
  9 10  1  0
 10 11  2  0
 11  6  1  0
 12 15  1  0
 12 14  1  0
 13 12  1  0
  2 16  1  0
  2 17  1  0
  3 18  1  1
  4 19  1  0
  4 20  1  0
  5 21  1  0
  5 22  1  0
  7 23  1  0
  8 24  1  0
 10 25  1  0
M  ISO  8  16  13  17  13  18  13  19  13  20  13  21  13  22  13  23  14
M  ISO  2  24  14  25  14
M  END
>  <minimizedAffinity>  (1) 
-4.49135351

>  <minimizedRMSD>  (1) 
2.93900108

$$$$
