
     RDKit          3D

 44 47  0  0  1  0  0  0  0  0999 V2000
   38.8630   25.9600   33.3640 C   0  0  0  0  0  0  0  0  0  0  0  0
   38.1190   25.8760   34.5300 C   0  0  0  0  0  0  0  0  0  0  0  0
   36.9930   26.6890   34.6600 C   0  0  0  0  0  0  0  0  0  0  0  0
   36.6820   27.5260   33.6280 N   0  0  0  0  0  0  0  0  0  0  0  0
   37.4350   27.5720   32.5140 C   0  0  0  0  0  0  0  0  0  0  0  0
   38.5090   26.8010   32.3820 N   0  0  0  0  0  0  0  0  0  0  0  0
   37.0190   28.4840   31.4960 N   0  0  0  0  0  0  0  0  0  0  0  0
   35.6580   28.8700   31.2180 C   0  0  0  0  0  0  0  0  0  0  0  0
   35.8390   30.3610   30.9240 C   0  0  0  0  0  0  0  0  0  0  0  0
   37.3160   30.5830   30.7140 C   0  0  0  0  0  0  0  0  0  0  0  0
   37.8670   29.1970   30.5470 C   0  0  2  0  0  0  0  0  0  0  0  0
   38.5120   24.9550   35.5980 C   0  0  0  0  0  0  0  0  0  0  0  0
   37.6670   24.7090   36.6960 C   0  0  0  0  0  0  0  0  0  0  0  0
   38.5530   23.5260   37.7390 S   0  0  0  0  0  0  0  0  0  0  0  0
   39.9910   23.5370   36.4930 C   0  0  0  0  0  0  0  0  0  0  0  0
   39.6190   24.2520   35.7230 N   0  0  0  0  0  0  0  0  0  0  0  0
   41.2300   22.7840   36.5780 N   0  0  0  0  0  0  0  0  0  0  0  0
   41.2600   21.4970   36.9660 C   0  0  0  0  0  0  0  0  0  0  0  0
   42.5940   21.0940   36.9330 C   0  0  0  0  0  0  0  0  0  0  0  0
   43.3010   22.1520   36.5300 N   0  0  0  0  0  0  0  0  0  0  0  0
   42.4810   23.2130   36.3030 C   0  0  0  0  0  0  0  0  0  0  0  0
   37.7420   28.6560   29.1560 C   0  0  0  0  0  0  0  0  0  0  0  0
   37.9050   29.8020   28.1880 C   0  0  0  0  0  0  0  0  0  0  0  0
   38.8570   27.6680   28.9040 C   0  0  0  0  0  0  0  0  0  0  0  0
   39.7555   25.3285   33.2427 H   0  0  0  0  0  0  0  0  0  0  0  0
   36.3735   26.6564   35.5684 H   0  0  0  0  0  0  0  0  0  0  0  0
   35.2539   28.3317   30.3480 H   0  0  0  0  0  0  0  0  0  0  0  0
   34.9466   28.6477   32.0270 H   0  0  0  0  0  0  0  0  0  0  0  0
   35.2808   30.6396   30.0180 H   0  0  0  0  0  0  0  0  0  0  0  0
   35.4592   30.9774   31.7521 H   0  0  0  0  0  0  0  0  0  0  0  0
   37.4971   31.1877   29.8131 H   0  0  0  0  0  0  0  0  0  0  0  0
   37.7859   31.1300   31.5446 H   0  0  0  0  0  0  0  0  0  0  0  0
   38.9502   29.1198   30.7222 H   0  0  0  0  0  0  0  0  0  0  0  0
   36.6744   25.1452   36.8815 H   0  0  0  0  0  0  0  0  0  0  0  0
   40.3964   20.8797   37.2545 H   0  0  0  0  0  0  0  0  0  0  0  0
   42.9871   20.0990   37.1889 H   0  0  0  0  0  0  0  0  0  0  0  0
   42.7766   24.2169   35.9642 H   0  0  0  0  0  0  0  0  0  0  0  0
   36.7655   28.1656   29.0295 H   0  0  0  0  0  0  0  0  0  0  0  0
   38.0383   30.7391   28.7484 H   0  0  0  0  0  0  0  0  0  0  0  0
   38.7870   29.6247   27.5550 H   0  0  0  0  0  0  0  0  0  0  0  0
   37.0086   29.8776   27.5550 H   0  0  0  0  0  0  0  0  0  0  0  0
   39.2570   27.3135   29.8654 H   0  0  0  0  0  0  0  0  0  0  0  0
   38.4672   26.8134   28.3316 H   0  0  0  0  0  0  0  0  0  0  0  0
   39.6585   28.1578   28.3316 H   0  0  0  0  0  0  0  0  0  0  0  0
  1  2  2  0
  2  3  1  0
  2 12  1  0
  4  3  2  0
  5  4  1  0
  6  5  2  0
  6  1  1  0
  7  5  1  0
  8  7  1  0
  9  8  1  0
 10  9  1  0
 11 10  1  0
 11  7  1  0
 12 16  1  0
 12 13  2  0
 13 14  1  0
 15 17  1  0
 15 14  1  0
 16 15  2  0
 17 18  1  0
 19 18  2  0
 20 19  1  0
 21 20  2  0
 21 17  1  0
 22 11  1  0
 23 22  1  0
 24 22  1  0
  1 25  1  0
  3 26  1  0
  8 27  1  0
  8 28  1  0
  9 29  1  0
  9 30  1  0
 10 31  1  0
 10 32  1  0
 11 33  1  1
 13 34  1  0
 18 35  1  0
 19 36  1  0
 21 37  1  0
 22 38  1  0
 23 39  1  0
 23 40  1  0
 23 41  1  0
 24 42  1  0
 24 43  1  0
 24 44  1  0
M  ISO  8  25  14  26  14  27  13  28  13  29  13  30  13  31  13  32  13
M  ISO  8  33  13  34  14  35  14  36  14  37  14  38   8  39   8  40   8
M  ISO  4  41   8  42   8  43   8  44   8
M  END
>  <minimizedAffinity>  (1) 
-4.97419977

>  <minimizedRMSD>  (1) 
1.3056426

$$$$
