
     RDKit          3D

 41 44  0  0  1  0  0  0  0  0999 V2000
   38.6330   25.7670   33.4350 C   0  0  0  0  0  0  0  0  0  0  0  0
   38.0370   25.7910   34.7030 C   0  0  0  0  0  0  0  0  0  0  0  0
   37.0220   26.7180   34.9330 C   0  0  0  0  0  0  0  0  0  0  0  0
   36.6640   27.5550   33.9150 N   0  0  0  0  0  0  0  0  0  0  0  0
   37.2720   27.4940   32.7050 C   0  0  0  0  0  0  0  0  0  0  0  0
   38.2390   26.6120   32.4760 N   0  0  0  0  0  0  0  0  0  0  0  0
   36.8140   28.4170   31.7190 N   0  0  0  0  0  0  0  0  0  0  0  0
   35.4650   28.9270   31.6090 C   0  0  0  0  0  0  0  0  0  0  0  0
   35.7450   30.3850   31.2420 C   0  0  0  0  0  0  0  0  0  0  0  0
   37.2010   30.4660   30.8520 C   0  0  0  0  0  0  0  0  0  0  0  0
   37.5840   29.0210   30.6500 C   0  0  2  0  0  0  0  0  0  0  0  0
   38.4740   24.8620   35.7430 C   0  0  0  0  0  0  0  0  0  0  0  0
   37.6580   24.5820   36.8600 C   0  0  0  0  0  0  0  0  0  0  0  0
   38.5980   23.4000   37.8600 S   0  0  0  0  0  0  0  0  0  0  0  0
   40.0000   23.4600   36.5810 C   0  0  0  0  0  0  0  0  0  0  0  0
   39.5910   24.1820   35.8310 N   0  0  0  0  0  0  0  0  0  0  0  0
   41.2570   22.7350   36.6220 N   0  0  0  0  0  0  0  0  0  0  0  0
   41.3210   21.4480   36.9880 C   0  0  0  0  0  0  0  0  0  0  0  0
   42.6580   21.0640   36.9170 C   0  0  0  0  0  0  0  0  0  0  0  0
   43.3400   22.1540   36.5070 N   0  0  0  0  0  0  0  0  0  0  0  0
   42.4930   23.1840   36.3230 C   0  0  0  0  0  0  0  0  0  0  0  0
   37.1900   28.5120   29.2870 C   0  0  0  0  0  0  0  0  0  0  0  0
   38.0090   29.2760   28.2620 C   0  0  0  0  0  0  0  0  0  0  0  0
   39.4351   25.0440   33.2257 H   0  0  0  0  0  0  0  0  0  0  0  0
   36.5214   26.7741   35.9109 H   0  0  0  0  0  0  0  0  0  0  0  0
   34.8994   28.4112   30.8191 H   0  0  0  0  0  0  0  0  0  0  0  0
   34.8499   28.7922   32.5109 H   0  0  0  0  0  0  0  0  0  0  0  0
   35.1095   30.6916   30.3981 H   0  0  0  0  0  0  0  0  0  0  0  0
   35.5257   31.0534   32.0876 H   0  0  0  0  0  0  0  0  0  0  0  0
   37.3293   31.0417   29.9235 H   0  0  0  0  0  0  0  0  0  0  0  0
   37.8214   30.9759   31.6037 H   0  0  0  0  0  0  0  0  0  0  0  0
   38.6633   28.8112   30.6838 H   0  0  0  0  0  0  0  0  0  0  0  0
   36.6617   24.9945   37.0773 H   0  0  0  0  0  0  0  0  0  0  0  0
   40.4750   20.8126   37.2887 H   0  0  0  0  0  0  0  0  0  0  0  0
   43.0741   20.0724   37.1484 H   0  0  0  0  0  0  0  0  0  0  0  0
   42.7585   24.1988   35.9918 H   0  0  0  0  0  0  0  0  0  0  0  0
   37.4033   27.4355   29.2117 H   0  0  0  0  0  0  0  0  0  0  0  0
   36.1141   28.6610   29.1132 H   0  0  0  0  0  0  0  0  0  0  0  0
   38.7188   29.9381   28.7795 H   0  0  0  0  0  0  0  0  0  0  0  0
   38.5635   28.5650   27.6319 H   0  0  0  0  0  0  0  0  0  0  0  0
   37.3382   29.8785   27.6319 H   0  0  0  0  0  0  0  0  0  0  0  0
  1  2  2  0
  2  3  1  0
  2 12  1  0
  4  3  2  0
  5  4  1  0
  6  5  2  0
  6  1  1  0
  7  5  1  0
  8  7  1  0
  9  8  1  0
 10  9  1  0
 11 10  1  0
 11  7  1  0
 12 16  1  0
 12 13  2  0
 13 14  1  0
 15 17  1  0
 15 14  1  0
 16 15  2  0
 17 18  1  0
 19 18  2  0
 20 19  1  0
 21 20  2  0
 21 17  1  0
 22 11  1  0
 23 22  1  0
  1 24  1  0
  3 25  1  0
  8 26  1  0
  8 27  1  0
  9 28  1  0
  9 29  1  0
 10 30  1  0
 10 31  1  0
 11 32  1  1
 13 33  1  0
 18 34  1  0
 19 35  1  0
 21 36  1  0
 22 37  1  0
 22 38  1  0
 23 39  1  0
 23 40  1  0
 23 41  1  0
M  ISO  8  24  14  25  14  26  13  27  13  28  13  29  13  30  13  31  13
M  ISO  8  32  13  33  14  34  14  35  14  36  14  37   8  38   8  39   8
M  ISO  2  40   8  41   8
M  END
>  <minimizedAffinity>  (1) 
-5.15842962

>  <minimizedRMSD>  (1) 
0.967061162

$$$$
