
     RDKit          3D

 29 31  0  0  1  0  0  0  0  0999 V2000
   37.1600   21.8180   33.8300 N   0  0  0  0  0  0  0  0  0  0  0  0
   37.0800   21.6680   35.2790 C   0  0  0  0  0  0  0  0  0  0  0  0
   38.4660   22.1250   35.7210 C   0  0  1  0  0  0  0  0  0  0  0  0
   39.0780   22.8050   34.5140 C   0  0  0  0  0  0  0  0  0  0  0  0
   37.8040   23.1090   33.7200 C   0  0  0  0  0  0  0  0  0  0  0  0
   36.7190   20.9280   32.8110 C   0  0  0  0  0  0  0  0  0  0  0  0
   35.7270   19.9730   33.0140 C   0  0  0  0  0  0  0  0  0  0  0  0
   35.3620   19.1470   31.9570 C   0  0  0  0  0  0  0  0  0  0  0  0
   36.0070   19.3220   30.7630 N   0  0  0  0  0  0  0  0  0  0  0  0
   36.9600   20.2490   30.5930 C   0  0  0  0  0  0  0  0  0  0  0  0
   37.3190   21.0500   31.6040 N   0  0  0  0  0  0  0  0  0  0  0  0
   38.4620   22.9120   36.9090 N   0  0  0  0  0  0  0  0  0  0  0  0
   39.4080   22.8700   37.8600 N   0  0  0  0  0  0  0  0  0  0  0  0
   39.1040   23.7360   38.8420 C   0  0  0  0  0  0  0  0  0  0  0  0
   37.9090   24.3700   38.5220 C   0  0  0  0  0  0  0  0  0  0  0  0
   37.5560   23.8160   37.3060 C   0  0  0  0  0  0  0  0  0  0  0  0
   36.2933   22.3084   35.7044 H   0  0  0  0  0  0  0  0  0  0  0  0
   36.8230   20.6498   35.6064 H   0  0  0  0  0  0  0  0  0  0  0  0
   39.0850   21.2696   36.0296 H   0  0  0  0  0  0  0  0  0  0  0  0
   39.6179   23.7227   34.7902 H   0  0  0  0  0  0  0  0  0  0  0  0
   39.8336   22.2129   33.9769 H   0  0  0  0  0  0  0  0  0  0  0  0
   38.0219   23.3742   32.6749 H   0  0  0  0  0  0  0  0  0  0  0  0
   37.2144   23.9656   34.0786 H   0  0  0  0  0  0  0  0  0  0  0  0
   35.2396   19.8734   33.9951 H   0  0  0  0  0  0  0  0  0  0  0  0
   34.5825   18.3801   32.0763 H   0  0  0  0  0  0  0  0  0  0  0  0
   37.4515   20.3526   29.6144 H   0  0  0  0  0  0  0  0  0  0  0  0
   39.7016   23.9135   39.7483 H   0  0  0  0  0  0  0  0  0  0  0  0
   37.3701   25.1342   39.1013 H   0  0  0  0  0  0  0  0  0  0  0  0
   36.6514   24.0818   36.7393 H   0  0  0  0  0  0  0  0  0  0  0  0
  1  2  1  0
  2  3  1  0
  3 12  1  0
  4  3  1  0
  5  1  1  0
  5  4  1  0
  6  7  2  0
  6  1  1  0
  8  7  1  0
  9  8  2  0
 10  9  1  0
 10 11  2  0
 11  6  1  0
 12 16  1  0
 12 13  1  0
 13 14  2  0
 15 14  1  0
 16 15  2  0
  2 17  1  0
  2 18  1  0
  3 19  1  1
  4 20  1  0
  4 21  1  0
  5 22  1  0
  5 23  1  0
  7 24  1  0
  8 25  1  0
 10 26  1  0
 14 27  1  0
 15 28  1  0
 16 29  1  0
M  ISO  8  17  13  18  13  19  13  20  13  21  13  22  13  23  13  24  14
M  ISO  5  25  14  26  14  27  14  28  14  29  14
M  END
>  <minimizedAffinity>  (1) 
-4.32695818

>  <minimizedRMSD>  (1) 
3.11889815

$$$$
