
     RDKit          3D

 37 40  0  0  1  0  0  0  0  0999 V2000
   38.6690   25.7790   33.4330 C   0  0  0  0  0  0  0  0  0  0  0  0
   38.0490   25.7980   34.6890 C   0  0  0  0  0  0  0  0  0  0  0  0
   37.0180   26.7070   34.9220 C   0  0  0  0  0  0  0  0  0  0  0  0
   36.6660   27.5400   33.8990 N   0  0  0  0  0  0  0  0  0  0  0  0
   37.2870   27.4920   32.7010 C   0  0  0  0  0  0  0  0  0  0  0  0
   38.2800   26.6170   32.4750 N   0  0  0  0  0  0  0  0  0  0  0  0
   36.8480   28.4060   31.6910 N   0  0  0  0  0  0  0  0  0  0  0  0
   35.5060   28.9300   31.5770 C   0  0  0  0  0  0  0  0  0  0  0  0
   35.7880   30.3740   31.1910 C   0  0  0  0  0  0  0  0  0  0  0  0
   37.2460   30.4570   30.8300 C   0  0  0  0  0  0  0  0  0  0  0  0
   37.6110   28.9850   30.6020 C   0  0  2  0  0  0  0  0  0  0  0  0
   38.4910   24.8670   35.7340 C   0  0  0  0  0  0  0  0  0  0  0  0
   37.6700   24.5930   36.8540 C   0  0  0  0  0  0  0  0  0  0  0  0
   38.6070   23.4130   37.8530 S   0  0  0  0  0  0  0  0  0  0  0  0
   40.0190   23.4610   36.5710 C   0  0  0  0  0  0  0  0  0  0  0  0
   39.5990   24.1810   35.8330 N   0  0  0  0  0  0  0  0  0  0  0  0
   41.2710   22.7280   36.6180 N   0  0  0  0  0  0  0  0  0  0  0  0
   41.3230   21.4480   36.9840 C   0  0  0  0  0  0  0  0  0  0  0  0
   42.6670   21.0520   36.9220 C   0  0  0  0  0  0  0  0  0  0  0  0
   43.3450   22.1400   36.5140 N   0  0  0  0  0  0  0  0  0  0  0  0
   42.5040   23.1860   36.3210 C   0  0  0  0  0  0  0  0  0  0  0  0
   37.1730   28.5180   29.2780 C   0  0  0  0  0  0  0  0  0  0  0  0
   37.7210   29.0050   28.3050 O   0  0  0  0  0  0  0  0  0  0  0  0
   39.4835   25.0661   33.2370 H   0  0  0  0  0  0  0  0  0  0  0  0
   36.5066   26.7515   35.8949 H   0  0  0  0  0  0  0  0  0  0  0  0
   34.9338   28.4078   30.7961 H   0  0  0  0  0  0  0  0  0  0  0  0
   34.8964   28.8150   32.4854 H   0  0  0  0  0  0  0  0  0  0  0  0
   35.1685   30.6623   30.3289 H   0  0  0  0  0  0  0  0  0  0  0  0
   35.5501   31.0555   32.0211 H   0  0  0  0  0  0  0  0  0  0  0  0
   37.3969   31.0509   29.9165 H   0  0  0  0  0  0  0  0  0  0  0  0
   37.8620   30.9497   31.5966 H   0  0  0  0  0  0  0  0  0  0  0  0
   38.6833   28.7396   30.6027 H   0  0  0  0  0  0  0  0  0  0  0  0
   36.6749   25.0090   37.0702 H   0  0  0  0  0  0  0  0  0  0  0  0
   40.4705   20.8189   37.2798 H   0  0  0  0  0  0  0  0  0  0  0  0
   43.0800   20.0601   37.1575 H   0  0  0  0  0  0  0  0  0  0  0  0
   42.7725   24.2001   35.9901 H   0  0  0  0  0  0  0  0  0  0  0  0
   36.3830   27.7601   29.1707 H   0  0  0  0  0  0  0  0  0  0  0  0
  1  2  2  0
  2  3  1  0
  2 12  1  0
  4  3  2  0
  5  4  1  0
  6  5  2  0
  6  1  1  0
  7  5  1  0
  8  7  1  0
  9  8  1  0
 10  9  1  0
 11 10  1  0
 11  7  1  0
 12 16  1  0
 12 13  2  0
 13 14  1  0
 15 17  1  0
 15 14  1  0
 16 15  2  0
 17 18  1  0
 19 18  2  0
 20 19  1  0
 21 20  2  0
 21 17  1  0
 22 11  1  0
 23 22  2  0
  1 24  1  0
  3 25  1  0
  8 26  1  0
  8 27  1  0
  9 28  1  0
  9 29  1  0
 10 30  1  0
 10 31  1  0
 11 32  1  1
 13 33  1  0
 18 34  1  0
 19 35  1  0
 21 36  1  0
 22 37  1  0
M  ISO  8  24  14  25  14  26  13  27  13  28  13  29  13  30  13  31  13
M  ISO  6  32  13  33  14  34  14  35  14  36  14  37   6
M  END
>  <minimizedAffinity>  (1) 
-5.13445807

>  <minimizedRMSD>  (1) 
0.900556922

$$$$
