
     RDKit          3D

 35 38  0  0  0  0  0  0  0  0999 V2000
   39.9180   22.6660   37.5410 C   0  0  0  0  0  0  0  0  0  0  0  0
   39.1980   23.4070   38.5050 C   0  0  0  0  0  0  0  0  0  0  0  0
   37.8180   23.6070   38.3380 C   0  0  0  0  0  0  0  0  0  0  0  0
   37.2450   23.0610   37.2310 N   0  0  0  0  0  0  0  0  0  0  0  0
   37.9620   22.3530   36.3200 C   0  0  0  0  0  0  0  0  0  0  0  0
   39.2760   22.1650   36.4840 N   0  0  0  0  0  0  0  0  0  0  0  0
   37.3260   21.7970   35.1710 N   0  0  0  0  0  0  0  0  0  0  0  0
   38.0050   21.9920   34.0260 C   0  0  0  0  0  0  0  0  0  0  0  0
   37.4820   21.4990   32.8530 C   0  0  0  0  0  0  0  0  0  0  0  0
   36.2680   20.8320   32.9830 C   0  0  0  0  0  0  0  0  0  0  0  0
   35.6260   20.2790   31.8480 N   0  0  0  0  0  0  0  0  0  0  0  0
   35.6210   20.6580   34.1440 N   0  0  0  0  0  0  0  0  0  0  0  0
   36.1590   21.1520   35.2790 C   0  0  0  0  0  0  0  0  0  0  0  0
   35.6490   21.0510   36.4120 O   0  0  0  0  0  0  0  0  0  0  0  0
   38.1230   21.6520   31.5900 N   0  0  0  0  0  0  0  0  0  0  0  0
   38.6370   20.5870   30.9310 C   0  0  0  0  0  0  0  0  0  0  0  0
   39.1950   20.9520   29.7630 N   0  0  0  0  0  0  0  0  0  0  0  0
   39.0390   22.2860   29.6630 C   0  0  0  0  0  0  0  0  0  0  0  0
   39.3900   23.2370   28.7170 C   0  0  0  0  0  0  0  0  0  0  0  0
   39.9870   22.8810   27.6890 O   0  0  0  0  0  0  0  0  0  0  0  0
   39.0480   24.5180   28.9850 N   0  0  0  0  0  0  0  0  0  0  0  0
   38.4010   24.9260   30.0930 C   0  0  0  0  0  0  0  0  0  0  0  0
   38.1300   26.3180   30.1940 N   0  0  0  0  0  0  0  0  0  0  0  0
   38.0610   23.9850   31.0160 N   0  0  0  0  0  0  0  0  0  0  0  0
   38.3760   22.6890   30.8030 C   0  0  0  0  0  0  0  0  0  0  0  0
   40.9993   22.5035   37.6610 H   0  0  0  0  0  0  0  0  0  0  0  0
   39.7154   23.8248   39.3812 H   0  0  0  0  0  0  0  0  0  0  0  0
   37.2272   24.1789   39.0687 H   0  0  0  0  0  0  0  0  0  0  0  0
   38.9611   22.5359   34.0277 H   0  0  0  0  0  0  0  0  0  0  0  0
   34.7274   19.7868   31.9534 H   0  0  0  0  0  0  0  0  0  0  0  0
   36.0578   20.3691   30.9172 H   0  0  0  0  0  0  0  0  0  0  0  0
   38.6026   19.5528   31.3041 H   0  0  0  0  0  0  0  0  0  0  0  0
   39.3014   25.2345   28.2898 H   0  0  0  0  0  0  0  0  0  0  0  0
   37.6376   26.6882   31.0195 H   0  0  0  0  0  0  0  0  0  0  0  0
   38.4261   26.9562   29.4417 H   0  0  0  0  0  0  0  0  0  0  0  0
  1  2  2  0
  3  2  1  0
  4  3  2  0
  5  6  2  0
  5  4  1  0
  6  1  1  0
  7 13  1  0
  7  5  1  0
  8  7  1  0
  9 10  1  0
  9  8  2  0
 10 12  2  0
 11 10  1  0
 12 13  1  0
 13 14  2  0
 15  9  1  0
 16 15  1  0
 17 16  2  0
 18 17  1  0
 18 25  2  0
 19 21  1  0
 19 18  1  0
 20 19  2  0
 21 22  1  0
 22 23  1  0
 22 24  2  0
 25 24  1  0
 25 15  1  0
  1 26  1  0
  2 27  1  0
  3 28  1  0
  8 29  1  0
 11 30  1  0
 11 31  1  0
 16 32  1  0
 21 33  1  0
 23 34  1  0
 23 35  1  0
M  ISO  6  26  14  27  14  28  14  29  14  32  14  33   9
M  END
>  <minimizedAffinity>  (1) 
-5.97968721

>  <minimizedRMSD>  (1) 
0.749102831

$$$$
