
     RDKit          3D

 28 29  0  0  1  0  0  0  0  0999 V2000
   37.5450   26.6910   33.3010 N   0  0  0  0  0  0  0  0  0  0  0  0
   37.1610   27.3510   34.5440 C   0  0  0  0  0  0  0  0  0  0  0  0
   38.4370   27.1970   35.3620 C   0  0  2  0  0  0  0  0  0  0  0  0
   39.5240   26.7670   34.3990 C   0  0  0  0  0  0  0  0  0  0  0  0
   38.8960   27.2010   33.0810 C   0  0  0  0  0  0  0  0  0  0  0  0
   36.8110   25.7830   32.4960 C   0  0  0  0  0  0  0  0  0  0  0  0
   37.0540   24.4110   32.5110 C   0  0  0  0  0  0  0  0  0  0  0  0
   36.3040   23.5650   31.7010 C   0  0  0  0  0  0  0  0  0  0  0  0
   35.3440   24.1430   30.9140 N   0  0  0  0  0  0  0  0  0  0  0  0
   35.1320   25.4730   30.9210 C   0  0  0  0  0  0  0  0  0  0  0  0
   35.8530   26.2990   31.7020 N   0  0  0  0  0  0  0  0  0  0  0  0
   38.2010   26.0460   36.3160 C   0  0  0  0  0  0  0  0  0  0  0  0
   38.9430   24.8020   35.8860 C   0  0  0  0  0  0  0  0  0  0  0  0
   36.9124   28.4098   34.3790 H   0  0  0  0  0  0  0  0  0  0  0  0
   36.2633   26.9313   35.0214 H   0  0  0  0  0  0  0  0  0  0  0  0
   38.7072   28.1214   35.8935 H   0  0  0  0  0  0  0  0  0  0  0  0
   40.4714   27.2915   34.5921 H   0  0  0  0  0  0  0  0  0  0  0  0
   39.7974   25.7029   34.4539 H   0  0  0  0  0  0  0  0  0  0  0  0
   39.3814   26.7265   32.2154 H   0  0  0  0  0  0  0  0  0  0  0  0
   38.9678   28.2741   32.8503 H   0  0  0  0  0  0  0  0  0  0  0  0
   37.8379   23.9976   33.1626 H   0  0  0  0  0  0  0  0  0  0  0  0
   36.4747   22.4783   31.6929 H   0  0  0  0  0  0  0  0  0  0  0  0
   34.3502   25.8948   30.2723 H   0  0  0  0  0  0  0  0  0  0  0  0
   38.5459   26.3379   37.3189 H   0  0  0  0  0  0  0  0  0  0  0  0
   37.1247   25.8190   36.3196 H   0  0  0  0  0  0  0  0  0  0  0  0
   39.2743   24.2466   36.7759 H   0  0  0  0  0  0  0  0  0  0  0  0
   38.2761   24.1668   35.2845 H   0  0  0  0  0  0  0  0  0  0  0  0
   39.8188   25.0869   35.2845 H   0  0  0  0  0  0  0  0  0  0  0  0
  1  2  1  0
  2  3  1  0
  3 12  1  0
  4  3  1  0
  5  1  1  0
  5  4  1  0
  6  7  2  0
  6  1  1  0
  8  7  1  0
  9 10  1  0
  9  8  2  0
 10 11  2  0
 11  6  1  0
 13 12  1  0
  2 14  1  0
  2 15  1  0
  3 16  1  1
  4 17  1  0
  4 18  1  0
  5 19  1  0
  5 20  1  0
  7 21  1  0
  8 22  1  0
 10 23  1  0
 12 24  1  0
 12 25  1  0
 13 26  1  0
 13 27  1  0
 13 28  1  0
M  ISO  8  14  13  15  13  16  13  17  13  18  13  19  13  20  13  21  14
M  ISO  7  22  14  23  14  24   8  25   8  26   8  27   8  28   8
M  END
>  <minimizedAffinity>  (1) 
-3.7998085

>  <minimizedRMSD>  (1) 
4.42778254

$$$$
