
     RDKit          3D

 35 37  0  0  1  0  0  0  0  0999 V2000
   37.7380   22.6120   34.1920 N   0  0  0  0  0  0  0  0  0  0  0  0
   38.5090   21.9700   35.2540 C   0  0  0  0  0  0  0  0  0  0  0  0
   39.8490   22.6320   35.1030 C   0  0  1  0  0  0  0  0  0  0  0  0
   39.6590   23.7540   34.0930 C   0  0  0  0  0  0  0  0  0  0  0  0
   38.1680   23.9800   34.3230 C   0  0  0  0  0  0  0  0  0  0  0  0
   36.8030   22.0210   33.2900 C   0  0  0  0  0  0  0  0  0  0  0  0
   36.0700   20.8670   33.6250 C   0  0  0  0  0  0  0  0  0  0  0  0
   35.1740   20.3520   32.6980 C   0  0  0  0  0  0  0  0  0  0  0  0
   35.0690   21.0260   31.4960 N   0  0  0  0  0  0  0  0  0  0  0  0
   35.7810   22.1160   31.2150 C   0  0  0  0  0  0  0  0  0  0  0  0
   36.6490   22.6260   32.0960 N   0  0  0  0  0  0  0  0  0  0  0  0
   40.1420   23.2900   36.4260 C   0  0  2  0  0  0  0  0  0  0  0  0
   40.9800   22.6180   37.4200 C   0  0  0  0  0  0  0  0  0  0  0  0
   39.4580   22.6750   37.5770 C   0  0  1  0  0  0  0  0  0  0  0  0
   39.0290   23.5600   38.7560 C   0  0  0  0  0  0  0  0  0  0  0  0
   37.8570   24.4260   38.4380 C   0  0  0  0  0  0  0  0  0  0  0  0
   38.0723   22.1705   36.2435 H   0  0  0  0  0  0  0  0  0  0  0  0
   38.5428   20.8730   35.1796 H   0  0  0  0  0  0  0  0  0  0  0  0
   40.6383   21.9280   34.8007 H   0  0  0  0  0  0  0  0  0  0  0  0
   39.8799   23.4330   33.0643 H   0  0  0  0  0  0  0  0  0  0  0  0
   40.3092   24.6331   34.2133 H   0  0  0  0  0  0  0  0  0  0  0  0
   37.7221   24.6324   33.5578 H   0  0  0  0  0  0  0  0  0  0  0  0
   37.8944   24.4854   35.2609 H   0  0  0  0  0  0  0  0  0  0  0  0
   36.2046   20.3822   34.6032 H   0  0  0  0  0  0  0  0  0  0  0  0
   34.5774   19.4524   32.9096 H   0  0  0  0  0  0  0  0  0  0  0  0
   35.6527   22.6067   30.2389 H   0  0  0  0  0  0  0  0  0  0  0  0
   40.2078   24.2938   35.9811 H   0  0  0  0  0  0  0  0  0  0  0  0
   41.4754   21.6672   37.1739 H   0  0  0  0  0  0  0  0  0  0  0  0
   41.8435   22.9026   38.0392 H   0  0  0  0  0  0  0  0  0  0  0  0
   38.6063   21.9839   37.6607 H   0  0  0  0  0  0  0  0  0  0  0  0
   38.7654   22.9108   39.6040 H   0  0  0  0  0  0  0  0  0  0  0  0
   39.8735   24.2234   38.9940 H   0  0  0  0  0  0  0  0  0  0  0  0
   37.3911   24.7703   39.3731 H   0  0  0  0  0  0  0  0  0  0  0  0
   38.1915   25.2955   37.8532 H   0  0  0  0  0  0  0  0  0  0  0  0
   37.1241   23.8508   37.8532 H   0  0  0  0  0  0  0  0  0  0  0  0
  1  5  1  0
  1  2  1  0
  3  2  1  0
  3 12  1  0
  4  5  1  0
  4  3  1  0
  6  7  2  0
  6  1  1  0
  8  7  1  0
  9  8  2  0
 10  9  1  0
 10 11  2  0
 11  6  1  0
 12 13  1  0
 12 14  1  0
 13 14  1  0
 14 15  1  0
 16 15  1  0
  2 17  1  0
  2 18  1  0
  3 19  1  6
  4 20  1  0
  4 21  1  0
  5 22  1  0
  5 23  1  0
  7 24  1  0
  8 25  1  0
 10 26  1  0
 12 27  1  6
 13 28  1  0
 13 29  1  0
 14 30  1  6
 15 31  1  0
 15 32  1  0
 16 33  1  0
 16 34  1  0
 16 35  1  0
M  ISO  8  17  13  18  13  19  13  20  13  21  13  22  13  23  13  24  14
M  ISO  8  25  14  26  14  27  13  28  13  29  13  30  13  31   8  32   8
M  ISO  3  33   8  34   8  35   8
M  END
>  <minimizedAffinity>  (1) 
-4.26511383

>  <minimizedRMSD>  (1) 
1.5113759

$$$$
