
     RDKit          3D

 36 39  0  0  1  0  0  0  0  0999 V2000
   37.4530   22.1710   33.3020 N   0  0  0  0  0  0  0  0  0  0  0  0
   36.4680   21.1140   33.5150 C   0  0  0  0  0  0  0  0  0  0  0  0
   35.3240   21.5840   32.6630 C   0  0  1  0  0  0  0  0  0  0  0  0
   35.8460   22.7700   31.8670 C   0  0  0  0  0  0  0  0  0  0  0  0
   37.3240   22.3880   31.8870 C   0  0  0  0  0  0  0  0  0  0  0  0
   38.3130   22.7910   34.2570 C   0  0  0  0  0  0  0  0  0  0  0  0
   38.4520   22.2980   35.5700 C   0  0  0  0  0  0  0  0  0  0  0  0
   39.3150   22.9440   36.4400 C   0  0  0  0  0  0  0  0  0  0  0  0
   39.9880   24.0390   35.9550 N   0  0  0  0  0  0  0  0  0  0  0  0
   39.8290   24.4780   34.7010 C   0  0  0  0  0  0  0  0  0  0  0  0
   38.9970   23.8640   33.8420 N   0  0  0  0  0  0  0  0  0  0  0  0
   35.0580   20.4830   31.6700 C   0  0  2  0  0  0  0  0  0  0  0  0
   34.4950   19.2060   32.1010 C   0  0  0  0  0  0  0  0  0  0  0  0
   35.9890   19.3350   31.8150 C   0  0  1  0  0  0  0  0  0  0  0  0
   36.5270   18.7040   30.5900 C   0  0  0  0  0  0  0  0  0  0  0  0
   36.7410   19.2420   29.3660 C   0  0  0  0  0  0  0  0  0  0  0  0
   37.2510   18.4880   28.3550 C   0  0  0  0  0  0  0  0  0  0  0  0
   37.5270   17.1320   28.6940 C   0  0  0  0  0  0  0  0  0  0  0  0
   37.0400   17.0160   30.4410 S   0  0  0  0  0  0  0  0  0  0  0  0
   36.8468   20.1390   33.1746 H   0  0  0  0  0  0  0  0  0  0  0  0
   36.2025   20.9587   34.5711 H   0  0  0  0  0  0  0  0  0  0  0  0
   34.4318   21.8377   33.2543 H   0  0  0  0  0  0  0  0  0  0  0  0
   35.6545   23.7291   32.3704 H   0  0  0  0  0  0  0  0  0  0  0  0
   35.3965   22.9277   30.8755 H   0  0  0  0  0  0  0  0  0  0  0  0
   37.5272   21.4769   31.3051 H   0  0  0  0  0  0  0  0  0  0  0  0
   38.0181   23.1175   31.4443 H   0  0  0  0  0  0  0  0  0  0  0  0
   37.8845   21.4148   35.8985 H   0  0  0  0  0  0  0  0  0  0  0  0
   39.4552   22.5955   37.4739 H   0  0  0  0  0  0  0  0  0  0  0  0
   40.3919   25.3614   34.3654 H   0  0  0  0  0  0  0  0  0  0  0  0
   34.7423   21.1751   30.8755 H   0  0  0  0  0  0  0  0  0  0  0  0
   34.1405   19.0808   33.1348 H   0  0  0  0  0  0  0  0  0  0  0  0
   33.6864   18.5502   31.7460 H   0  0  0  0  0  0  0  0  0  0  0  0
   36.9193   19.1388   32.3682 H   0  0  0  0  0  0  0  0  0  0  0  0
   36.4999   20.3002   29.1872 H   0  0  0  0  0  0  0  0  0  0  0  0
   37.4366   18.8952   27.3501 H   0  0  0  0  0  0  0  0  0  0  0  0
   37.9383   16.3410   28.0496 H   0  0  0  0  0  0  0  0  0  0  0  0
  1  2  1  0
  1  6  1  0
  3  2  1  0
  4  5  1  0
  4  3  1  0
  5  1  1  0
  6  7  2  0
  7  8  1  0
  9  8  2  0
 10  9  1  0
 11  6  1  0
 11 10  2  0
 12 14  1  0
 12 13  1  0
 12  3  1  0
 14 13  1  0
 15 14  1  0
 16 15  2  0
 17 18  2  0
 17 16  1  0
 18 19  1  0
 19 15  1  0
  2 20  1  0
  2 21  1  0
  3 22  1  1
  4 23  1  0
  4 24  1  0
  5 25  1  0
  5 26  1  0
  7 27  1  0
  8 28  1  0
 10 29  1  0
 12 30  1  6
 13 31  1  0
 13 32  1  0
 14 33  1  1
 16 34  1  0
 17 35  1  0
 18 36  1  0
M  ISO  8  20  13  21  13  22  13  23  13  24  13  25  13  26  13  27  14
M  ISO  8  28  14  29  14  30  13  31  13  32  13  33  13  34  14  35  14
M  ISO  1  36  14
M  END
>  <minimizedAffinity>  (1) 
-4.25967503

>  <minimizedRMSD>  (1) 
7.71498537

$$$$
