
     RDKit          3D

 34 37  0  0  0  0  0  0  0  0999 V2000
   39.9190   22.6330   37.4980 C   0  0  0  0  0  0  0  0  0  0  0  0
   39.2160   23.3530   38.4770 C   0  0  0  0  0  0  0  0  0  0  0  0
   37.8500   23.5580   38.3220 C   0  0  0  0  0  0  0  0  0  0  0  0
   37.2420   23.0440   37.2110 N   0  0  0  0  0  0  0  0  0  0  0  0
   37.9420   22.3590   36.2890 C   0  0  0  0  0  0  0  0  0  0  0  0
   39.2680   22.1550   36.4320 N   0  0  0  0  0  0  0  0  0  0  0  0
   37.3060   21.8190   35.1220 N   0  0  0  0  0  0  0  0  0  0  0  0
   37.9610   22.0520   33.9760 C   0  0  0  0  0  0  0  0  0  0  0  0
   37.4170   21.5660   32.8050 C   0  0  0  0  0  0  0  0  0  0  0  0
   36.2410   20.8800   32.9270 C   0  0  0  0  0  0  0  0  0  0  0  0
   35.5740   20.3280   31.8080 N   0  0  0  0  0  0  0  0  0  0  0  0
   35.6090   20.6630   34.1040 N   0  0  0  0  0  0  0  0  0  0  0  0
   36.1540   21.1460   35.2440 C   0  0  0  0  0  0  0  0  0  0  0  0
   35.6620   21.0080   36.3820 O   0  0  0  0  0  0  0  0  0  0  0  0
   38.0360   21.7610   31.5380 N   0  0  0  0  0  0  0  0  0  0  0  0
   38.4600   20.8680   30.6490 C   0  0  0  0  0  0  0  0  0  0  0  0
   38.9970   21.4880   29.5600 N   0  0  0  0  0  0  0  0  0  0  0  0
   38.9060   22.8110   29.7710 C   0  0  0  0  0  0  0  0  0  0  0  0
   39.2500   23.9550   29.0860 C   0  0  0  0  0  0  0  0  0  0  0  0
   39.0160   25.1650   29.5890 N   0  0  0  0  0  0  0  0  0  0  0  0
   38.4300   25.3530   30.7960 C   0  0  0  0  0  0  0  0  0  0  0  0
   38.0980   24.2350   31.4570 N   0  0  0  0  0  0  0  0  0  0  0  0
   38.3090   22.9870   31.0000 C   0  0  0  0  0  0  0  0  0  0  0  0
   39.8610   23.8520   27.8290 N   0  0  0  0  0  0  0  0  0  0  0  0
   41.0003   22.4628   37.6072 H   0  0  0  0  0  0  0  0  0  0  0  0
   39.7410   23.7509   39.3579 H   0  0  0  0  0  0  0  0  0  0  0  0
   37.2740   24.1186   39.0730 H   0  0  0  0  0  0  0  0  0  0  0  0
   38.9060   22.6150   33.9694 H   0  0  0  0  0  0  0  0  0  0  0  0
   34.6891   19.8168   31.9365 H   0  0  0  0  0  0  0  0  0  0  0  0
   35.9733   20.4373   30.8649 H   0  0  0  0  0  0  0  0  0  0  0  0
   38.3874   19.7776   30.7749 H   0  0  0  0  0  0  0  0  0  0  0  0
   38.2394   26.3558   31.2061 H   0  0  0  0  0  0  0  0  0  0  0  0
   40.0504   22.9246   27.4229 H   0  0  0  0  0  0  0  0  0  0  0  0
   40.1207   24.7037   27.3113 H   0  0  0  0  0  0  0  0  0  0  0  0
  1  2  2  0
  3  2  1  0
  4  3  2  0
  5  6  2  0
  5  4  1  0
  6  1  1  0
  7 13  1  0
  7  5  1  0
  8  7  1  0
  9 10  1  0
  9  8  2  0
 10 12  2  0
 11 10  1  0
 12 13  1  0
 13 14  2  0
 15  9  1  0
 16 15  1  0
 17 18  1  0
 17 16  2  0
 18 23  2  0
 19 20  2  0
 19 18  1  0
 20 21  1  0
 21 22  2  0
 23 22  1  0
 23 15  1  0
 24 19  1  0
  1 25  1  0
  2 26  1  0
  3 27  1  0
  8 28  1  0
 11 29  1  0
 11 30  1  0
 16 31  1  0
 21 32  1  0
 24 33  1  0
 24 34  1  0
M  ISO  6  25  14  26  14  27  14  28  14  31  14  32  14
M  END
>  <minimizedAffinity>  (1) 
-5.61394835

>  <minimizedRMSD>  (1) 
1.05444312

$$$$
