
     RDKit          3D

 38 41  0  0  1  0  0  0  0  0999 V2000
   38.5810   24.2720   34.7880 N   0  0  0  0  0  0  0  0  0  0  0  0
   37.6400   25.1630   34.1310 C   0  0  0  0  0  0  0  0  0  0  0  0
   38.5160   25.8500   33.1240 C   0  0  1  0  0  0  0  0  0  0  0  0
   39.8580   25.1490   33.1700 C   0  0  0  0  0  0  0  0  0  0  0  0
   39.3520   23.7890   33.6640 C   0  0  0  0  0  0  0  0  0  0  0  0
   38.7030   23.9620   36.1790 C   0  0  0  0  0  0  0  0  0  0  0  0
   37.8190   24.4980   37.1350 C   0  0  0  0  0  0  0  0  0  0  0  0
   37.9930   24.1570   38.4760 C   0  0  0  0  0  0  0  0  0  0  0  0
   39.0270   23.3110   38.7700 N   0  0  0  0  0  0  0  0  0  0  0  0
   39.8460   22.8220   37.8310 C   0  0  0  0  0  0  0  0  0  0  0  0
   39.6880   23.1450   36.5430 N   0  0  0  0  0  0  0  0  0  0  0  0
   37.9170   25.5610   31.7710 C   0  0  2  0  0  0  0  0  0  0  0  0
   36.9000   26.4670   31.2190 C   0  0  0  0  0  0  0  0  0  0  0  0
   36.5090   25.1290   31.8480 C   0  0  1  0  0  0  0  0  0  0  0  0
   36.0420   24.0870   30.9630 N   0  0  0  0  0  0  0  0  0  0  0  0
   36.1330   22.7740   31.3220 C   0  0  0  0  0  0  0  0  0  0  0  0
   35.1850   21.9960   32.0060 C   0  0  0  0  0  0  0  0  0  0  0  0
   35.4520   20.7000   32.2790 C   0  0  0  0  0  0  0  0  0  0  0  0
   36.7980   20.2230   31.7920 C   0  0  0  0  0  0  0  0  0  0  0  0
   37.5660   21.7370   30.9660 S   0  0  0  0  0  0  0  0  0  0  0  0
   36.8318   24.6004   33.6407 H   0  0  0  0  0  0  0  0  0  0  0  0
   37.1268   25.8523   34.8176 H   0  0  0  0  0  0  0  0  0  0  0  0
   38.6081   26.9295   33.3145 H   0  0  0  0  0  0  0  0  0  0  0  0
   40.3321   25.0855   32.1795 H   0  0  0  0  0  0  0  0  0  0  0  0
   40.6401   25.6294   33.7763 H   0  0  0  0  0  0  0  0  0  0  0  0
   38.7276   23.2777   32.9165 H   0  0  0  0  0  0  0  0  0  0  0  0
   40.1206   23.0346   33.8879 H   0  0  0  0  0  0  0  0  0  0  0  0
   37.0061   25.1733   36.8297 H   0  0  0  0  0  0  0  0  0  0  0  0
   37.3298   24.5500   39.2607 H   0  0  0  0  0  0  0  0  0  0  0  0
   40.6615   22.1441   38.1233 H   0  0  0  0  0  0  0  0  0  0  0  0
   38.8530   25.1750   31.3410 H   0  0  0  0  0  0  0  0  0  0  0  0
   36.6622   27.4102   31.7327 H   0  0  0  0  0  0  0  0  0  0  0  0
   36.7298   26.9573   30.2492 H   0  0  0  0  0  0  0  0  0  0  0  0
   35.8426   24.7936   32.6563 H   0  0  0  0  0  0  0  0  0  0  0  0
   35.6357   24.3383   30.0505 H   0  0  0  0  0  0  0  0  0  0  0  0
   34.2284   22.4401   32.3184 H   0  0  0  0  0  0  0  0  0  0  0  0
   34.7461   20.0464   32.8124 H   0  0  0  0  0  0  0  0  0  0  0  0
   37.2341   19.2184   31.8951 H   0  0  0  0  0  0  0  0  0  0  0  0
  1  6  1  0
  2  1  1  0
  3  4  1  0
  3  2  1  0
  4  5  1  0
  5  1  1  0
  6 11  1  0
  6  7  2  0
  7  8  1  0
  8  9  2  0
 10  9  1  0
 11 10  2  0
 12 14  1  0
 12  3  1  0
 13 12  1  0
 13 14  1  0
 15 16  1  0
 15 14  1  0
 16 17  2  0
 17 18  1  0
 19 18  2  0
 20 16  1  0
 20 19  1  0
  2 21  1  0
  2 22  1  0
  3 23  1  1
  4 24  1  0
  4 25  1  0
  5 26  1  0
  5 27  1  0
  7 28  1  0
  8 29  1  0
 10 30  1  0
 12 31  1  6
 13 32  1  0
 13 33  1  0
 14 34  1  1
 15 35  1  0
 17 36  1  0
 18 37  1  0
 19 38  1  0
M  ISO  8  21  13  22  13  23  13  24  13  25  13  26  13  27  13  28  14
M  ISO  8  29  14  30  14  31  13  32  13  33  13  34  13  36  14  37  14
M  ISO  1  38  14
M  END
>  <minimizedAffinity>  (1) 
-4.70977831

>  <minimizedRMSD>  (1) 
7.03823185

$$$$
