
     RDKit          3D

 34 36  0  0  1  0  0  0  0  0999 V2000
   37.8960   22.6670   34.1570 N   0  0  0  0  0  0  0  0  0  0  0  0
   38.9150   22.0100   34.9710 C   0  0  0  0  0  0  0  0  0  0  0  0
   40.0900   22.9170   34.7820 C   0  0  1  0  0  0  0  0  0  0  0  0
   39.5820   24.1370   34.0390 C   0  0  0  0  0  0  0  0  0  0  0  0
   38.1370   24.0470   34.4690 C   0  0  0  0  0  0  0  0  0  0  0  0
   36.9210   22.1040   33.2850 C   0  0  0  0  0  0  0  0  0  0  0  0
   36.1800   20.9580   33.6690 C   0  0  0  0  0  0  0  0  0  0  0  0
   35.2320   20.4270   32.8000 C   0  0  0  0  0  0  0  0  0  0  0  0
   35.0870   21.0770   31.5980 N   0  0  0  0  0  0  0  0  0  0  0  0
   35.8060   22.1580   31.2700 C   0  0  0  0  0  0  0  0  0  0  0  0
   36.7290   22.6860   32.1020 N   0  0  0  0  0  0  0  0  0  0  0  0
   40.4940   23.3750   36.1640 C   0  0  2  0  0  0  0  0  0  0  0  0
   41.6450   22.7820   36.8410 C   0  0  0  0  0  0  0  0  0  0  0  0
   40.2290   22.3620   37.2150 C   0  0  1  0  0  0  0  0  0  0  0  0
   39.7030   22.8190   38.5070 N   0  0  0  0  0  0  0  0  0  0  0  0
   38.3630   23.2650   38.5950 C   0  0  0  0  0  0  0  0  0  0  0  0
   38.0690   24.5030   38.6920 O   0  0  0  0  0  0  0  0  0  0  0  0
   37.2220   22.4730   38.5910 O   0  0  0  0  0  0  0  0  0  0  0  0
   38.6131   21.9607   36.0276 H   0  0  0  0  0  0  0  0  0  0  0  0
   39.1082   20.9655   34.6851 H   0  0  0  0  0  0  0  0  0  0  0  0
   40.9184   22.4297   34.2469 H   0  0  0  0  0  0  0  0  0  0  0  0
   39.7007   24.0425   32.9495 H   0  0  0  0  0  0  0  0  0  0  0  0
   40.0951   25.0859   34.2544 H   0  0  0  0  0  0  0  0  0  0  0  0
   37.4907   24.7205   33.8870 H   0  0  0  0  0  0  0  0  0  0  0  0
   37.9338   24.3394   35.5098 H   0  0  0  0  0  0  0  0  0  0  0  0
   36.3538   20.4907   34.6495 H   0  0  0  0  0  0  0  0  0  0  0  0
   34.6347   19.5405   33.0595 H   0  0  0  0  0  0  0  0  0  0  0  0
   35.6393   22.6311   30.2911 H   0  0  0  0  0  0  0  0  0  0  0  0
   40.2358   24.4265   35.9698 H   0  0  0  0  0  0  0  0  0  0  0  0
   42.3025   22.0844   36.3016 H   0  0  0  0  0  0  0  0  0  0  0  0
   42.5138   23.1732   37.3907 H   0  0  0  0  0  0  0  0  0  0  0  0
   39.6705   21.4159   37.2699 H   0  0  0  0  0  0  0  0  0  0  0  0
   40.3046   22.8150   39.3430 H   0  0  0  0  0  0  0  0  0  0  0  0
   36.3279   22.8927   38.6579 H   0  0  0  0  0  0  0  0  0  0  0  0
  1  5  1  0
  1  2  1  0
  3  2  1  0
  3 12  1  0
  4  5  1  0
  4  3  1  0
  6  7  2  0
  6  1  1  0
  8  7  1  0
  9  8  2  0
 10  9  1  0
 10 11  2  0
 11  6  1  0
 12 13  1  0
 12 14  1  0
 13 14  1  0
 14 15  1  0
 15 16  1  0
 16 17  2  0
 18 16  1  0
  2 19  1  0
  2 20  1  0
  3 21  1  6
  4 22  1  0
  4 23  1  0
  5 24  1  0
  5 25  1  0
  7 26  1  0
  8 27  1  0
 10 28  1  0
 12 29  1  1
 13 30  1  0
 13 31  1  0
 14 32  1  6
 15 33  1  0
 18 34  1  0
M  ISO  8  19  13  20  13  21  13  22  13  23  13  24  13  25  13  26  14
M  ISO  7  27  14  28  14  29  13  30  13  31  13  32  13  34   3
M  END
>  <minimizedAffinity>  (1) 
-5.21079636

>  <minimizedRMSD>  (1) 
1.56241

$$$$
