
     RDKit          3D

 34 36  0  0  1  0  0  0  0  0999 V2000
   38.1440   22.9920   34.1260 N   0  0  0  0  0  0  0  0  0  0  0  0
   39.1030   22.2080   34.8800 C   0  0  0  0  0  0  0  0  0  0  0  0
   40.2970   23.1100   34.9070 C   0  0  1  0  0  0  0  0  0  0  0  0
   39.8490   24.4320   34.3230 C   0  0  0  0  0  0  0  0  0  0  0  0
   38.3740   24.3090   34.6750 C   0  0  0  0  0  0  0  0  0  0  0  0
   37.2240   22.5810   33.1190 C   0  0  0  0  0  0  0  0  0  0  0  0
   36.7220   21.2540   33.0860 C   0  0  0  0  0  0  0  0  0  0  0  0
   35.8200   20.9250   32.0640 C   0  0  0  0  0  0  0  0  0  0  0  0
   35.4850   21.9100   31.1680 N   0  0  0  0  0  0  0  0  0  0  0  0
   35.9830   23.1330   31.2450 C   0  0  0  0  0  0  0  0  0  0  0  0
   36.8470   23.4820   32.2070 N   0  0  0  0  0  0  0  0  0  0  0  0
   40.6310   23.3270   36.3440 C   0  0  2  0  0  0  0  0  0  0  0  0
   41.5450   22.4420   37.0640 C   0  0  0  0  0  0  0  0  0  0  0  0
   40.0260   22.3260   37.2590 C   0  0  1  0  0  0  0  0  0  0  0  0
   39.4910   22.7690   38.5320 N   0  0  0  0  0  0  0  0  0  0  0  0
   38.2180   23.4150   38.2780 C   0  0  0  0  0  0  0  0  0  0  0  0
   38.7371   22.0001   35.8963 H   0  0  0  0  0  0  0  0  0  0  0  0
   39.3062   21.2193   34.4428 H   0  0  0  0  0  0  0  0  0  0  0  0
   41.1551   22.6991   34.3549 H   0  0  0  0  0  0  0  0  0  0  0  0
   40.0179   24.4900   33.2376 H   0  0  0  0  0  0  0  0  0  0  0  0
   40.3667   25.3301   34.6909 H   0  0  0  0  0  0  0  0  0  0  0  0
   37.7625   25.0786   34.1813 H   0  0  0  0  0  0  0  0  0  0  0  0
   38.1191   24.4400   35.7370 H   0  0  0  0  0  0  0  0  0  0  0  0
   37.0296   20.5099   33.8355 H   0  0  0  0  0  0  0  0  0  0  0  0
   35.3957   19.9134   31.9830 H   0  0  0  0  0  0  0  0  0  0  0  0
   35.6796   23.8829   30.4996 H   0  0  0  0  0  0  0  0  0  0  0  0
   40.6357   24.4213   36.2326 H   0  0  0  0  0  0  0  0  0  0  0  0
   42.0935   21.6568   36.5230 H   0  0  0  0  0  0  0  0  0  0  0  0
   42.4098   22.5846   37.7286 H   0  0  0  0  0  0  0  0  0  0  0  0
   39.2617   21.5412   37.1588 H   0  0  0  0  0  0  0  0  0  0  0  0
   39.3552   21.9603   39.1553 H   0  0  0  0  0  0  0  0  0  0  0  0
   37.7341   23.6606   39.2348 H   0  0  0  0  0  0  0  0  0  0  0  0
   38.3835   24.3382   37.7032 H   0  0  0  0  0  0  0  0  0  0  0  0
   37.5706   22.7363   37.7032 H   0  0  0  0  0  0  0  0  0  0  0  0
  1  5  1  0
  1  2  1  0
  2  3  1  0
  3 12  1  0
  4  5  1  0
  4  3  1  0
  6  1  1  0
  7  6  2  0
  8  7  1  0
  9 10  1  0
  9  8  2  0
 10 11  2  0
 11  6  1  0
 12 13  1  0
 12 14  1  0
 13 14  1  0
 14 15  1  0
 16 15  1  0
  2 17  1  0
  2 18  1  0
  3 19  1  6
  4 20  1  0
  4 21  1  0
  5 22  1  0
  5 23  1  0
  7 24  1  0
  8 25  1  0
 10 26  1  0
 12 27  1  1
 13 28  1  0
 13 29  1  0
 14 30  1  6
 15 31  1  0
 16 32  1  0
 16 33  1  0
 16 34  1  0
M  ISO  8  17  13  18  13  19  13  20  13  21  13  22  13  23  13  24  14
M  ISO  8  25  14  26  14  27  13  28  13  29  13  30  13  31   5  32   8
M  ISO  2  33   8  34   8
M  END
>  <minimizedAffinity>  (1) 
-4.25948095

>  <minimizedRMSD>  (1) 
1.62338805

$$$$
