
     RDKit          3D

 29 31  0  0  0  0  0  0  0  0999 V2000
   38.2270   26.2580   34.6510 C   0  0  0  0  0  0  0  0  0  0  0  0
   37.4770   27.1960   33.8800 N   0  0  0  0  0  0  0  0  0  0  0  0
   36.5420   28.0430   34.3390 C   0  0  0  0  0  0  0  0  0  0  0  0
   36.0110   28.8040   33.3640 N   0  0  0  0  0  0  0  0  0  0  0  0
   36.6210   28.4390   32.2350 C   0  0  0  0  0  0  0  0  0  0  0  0
   36.5570   28.8090   30.8920 C   0  0  0  0  0  0  0  0  0  0  0  0
   37.3330   28.2310   29.9560 N   0  0  0  0  0  0  0  0  0  0  0  0
   38.2100   27.2660   30.2840 C   0  0  0  0  0  0  0  0  0  0  0  0
   38.2930   26.8850   31.5910 N   0  0  0  0  0  0  0  0  0  0  0  0
   37.5210   27.4540   32.5460 C   0  0  0  0  0  0  0  0  0  0  0  0
   35.6060   29.8450   30.5890 N   0  0  0  0  0  0  0  0  0  0  0  0
   37.5550   25.7330   35.8770 C   0  0  0  0  0  0  0  0  0  0  0  0
   38.0760   24.2270   37.8730 C   0  0  0  0  0  0  0  0  0  0  0  0
   38.3490   24.6850   36.5590 C   0  0  0  0  0  0  0  0  0  0  0  0
   39.4210   24.1180   35.8610 C   0  0  0  0  0  0  0  0  0  0  0  0
   40.1490   23.1570   36.4840 N   0  0  0  0  0  0  0  0  0  0  0  0
   39.8640   22.7410   37.7420 C   0  0  0  0  0  0  0  0  0  0  0  0
   38.8340   23.2760   38.4270 N   0  0  0  0  0  0  0  0  0  0  0  0
   39.1607   26.7488   34.9629 H   0  0  0  0  0  0  0  0  0  0  0  0
   38.3739   25.3861   33.9966 H   0  0  0  0  0  0  0  0  0  0  0  0
   36.2428   28.1079   35.3955 H   0  0  0  0  0  0  0  0  0  0  0  0
   38.8442   26.7959   29.5180 H   0  0  0  0  0  0  0  0  0  0  0  0
   35.4966   30.1763   29.6199 H   0  0  0  0  0  0  0  0  0  0  0  0
   35.0345   30.2555   31.3412 H   0  0  0  0  0  0  0  0  0  0  0  0
   37.3980   26.5670   36.5769 H   0  0  0  0  0  0  0  0  0  0  0  0
   36.6027   25.2789   35.5656 H   0  0  0  0  0  0  0  0  0  0  0  0
   37.2363   24.6566   38.4390 H   0  0  0  0  0  0  0  0  0  0  0  0
   39.6661   24.4413   34.8386 H   0  0  0  0  0  0  0  0  0  0  0  0
   40.4800   21.9583   38.2089 H   0  0  0  0  0  0  0  0  0  0  0  0
  1 12  1  0
  2  3  1  0
  2  1  1  0
  4  3  2  0
  5 10  2  0
  5  4  1  0
  6  5  1  0
  7  8  1  0
  7  6  2  0
  8  9  2  0
  9 10  1  0
 10  2  1  0
 11  6  1  0
 12 14  1  0
 13 18  2  0
 14 13  1  0
 15 16  1  0
 15 14  2  0
 16 17  2  0
 17 18  1  0
  1 19  1  0
  1 20  1  0
  3 21  1  0
  8 22  1  0
 11 23  1  0
 11 24  1  0
 12 25  1  0
 12 26  1  0
 13 27  1  0
 15 28  1  0
 17 29  1  0
M  ISO  8  19   8  20   8  21  14  22  14  25   8  26   8  27  14  28  14
M  ISO  1  29  14
M  END
>  <minimizedAffinity>  (1) 
-4.56180477

>  <minimizedRMSD>  (1) 
1.44182503

$$$$
