
     RDKit          3D

 27 29  0  0  0  0  0  0  0  0999 V2000
   38.4090   26.3750   34.6470 C   0  0  0  0  0  0  0  0  0  0  0  0
   37.5310   27.2760   33.9280 N   0  0  0  0  0  0  0  0  0  0  0  0
   36.5740   28.0230   34.5530 C   0  0  0  0  0  0  0  0  0  0  0  0
   35.8840   28.7820   33.6880 N   0  0  0  0  0  0  0  0  0  0  0  0
   36.3980   28.5320   32.4570 C   0  0  0  0  0  0  0  0  0  0  0  0
   36.1550   28.9640   31.1720 C   0  0  0  0  0  0  0  0  0  0  0  0
   36.8900   28.4850   30.1330 N   0  0  0  0  0  0  0  0  0  0  0  0
   37.8770   27.5730   30.3260 C   0  0  0  0  0  0  0  0  0  0  0  0
   38.1230   27.1420   31.5950 N   0  0  0  0  0  0  0  0  0  0  0  0
   37.4050   27.6070   32.6300 C   0  0  0  0  0  0  0  0  0  0  0  0
   37.6310   25.7320   35.7450 C   0  0  0  0  0  0  0  0  0  0  0  0
   38.0480   24.2890   37.7830 C   0  0  0  0  0  0  0  0  0  0  0  0
   38.3820   24.6920   36.4710 C   0  0  0  0  0  0  0  0  0  0  0  0
   39.4620   24.0830   35.8430 C   0  0  0  0  0  0  0  0  0  0  0  0
   40.1300   23.1250   36.5490 N   0  0  0  0  0  0  0  0  0  0  0  0
   39.8020   22.7510   37.7960 C   0  0  0  0  0  0  0  0  0  0  0  0
   38.7580   23.3410   38.4020 N   0  0  0  0  0  0  0  0  0  0  0  0
   39.2528   26.9390   35.0712 H   0  0  0  0  0  0  0  0  0  0  0  0
   38.8024   25.6074   33.9643 H   0  0  0  0  0  0  0  0  0  0  0  0
   36.3904   28.0047   35.6374 H   0  0  0  0  0  0  0  0  0  0  0  0
   35.3608   29.7017   30.9848 H   0  0  0  0  0  0  0  0  0  0  0  0
   38.4643   27.1910   29.4779 H   0  0  0  0  0  0  0  0  0  0  0  0
   37.3338   26.5109   36.4626 H   0  0  0  0  0  0  0  0  0  0  0  0
   36.7650   25.2384   35.2798 H   0  0  0  0  0  0  0  0  0  0  0  0
   37.1975   24.7588   38.2988 H   0  0  0  0  0  0  0  0  0  0  0  0
   39.7648   24.3607   34.8226 H   0  0  0  0  0  0  0  0  0  0  0  0
   40.3802   21.9720   38.3146 H   0  0  0  0  0  0  0  0  0  0  0  0
  1 11  1  0
  2  3  1  0
  2  1  1  0
  4  3  2  0
  5 10  2  0
  5  4  1  0
  6  5  1  0
  7  8  1  0
  7  6  2  0
  8  9  2  0
  9 10  1  0
 10  2  1  0
 11 13  1  0
 12 17  2  0
 13 12  1  0
 14 13  2  0
 14 15  1  0
 15 16  2  0
 16 17  1  0
  1 18  1  0
  1 19  1  0
  3 20  1  0
  6 21  1  0
  8 22  1  0
 11 23  1  0
 11 24  1  0
 12 25  1  0
 14 26  1  0
 16 27  1  0
M  ISO  8  18   8  19   8  20  14  21  14  22  14  23   8  24   8  25  14
M  ISO  2  26  14  27  14
M  END
>  <minimizedAffinity>  (1) 
-4.29516363

>  <minimizedRMSD>  (1) 
1.06414688

$$$$
