
     RDKit          3D

 24 25  0  0  0  0  0  0  0  0999 V2000
   39.9500   22.6850   36.9930 C   0  0  0  0  0  0  0  0  0  0  0  0
   39.3770   23.2730   38.1270 C   0  0  0  0  0  0  0  0  0  0  0  0
   37.9910   23.3510   38.1990 C   0  0  0  0  0  0  0  0  0  0  0  0
   37.2460   22.8540   37.1630 N   0  0  0  0  0  0  0  0  0  0  0  0
   37.8450   22.2930   36.0840 C   0  0  0  0  0  0  0  0  0  0  0  0
   39.1770   22.2150   36.0090 N   0  0  0  0  0  0  0  0  0  0  0  0
   37.0600   21.7760   35.0090 N   0  0  0  0  0  0  0  0  0  0  0  0
   37.5040   22.1350   33.7920 C   0  0  0  0  0  0  0  0  0  0  0  0
   36.7970   21.6740   32.7030 C   0  0  0  0  0  0  0  0  0  0  0  0
   35.7050   20.8920   32.9500 C   0  0  0  0  0  0  0  0  0  0  0  0
   34.8850   20.3490   31.9310 N   0  0  0  0  0  0  0  0  0  0  0  0
   35.2900   20.5530   34.1910 N   0  0  0  0  0  0  0  0  0  0  0  0
   35.9950   21.0130   35.2620 C   0  0  0  0  0  0  0  0  0  0  0  0
   35.7030   20.7620   36.4580 O   0  0  0  0  0  0  0  0  0  0  0  0
   37.1580   21.9820   31.2930 C   0  0  0  0  0  0  0  0  0  0  0  0
   37.2380   20.7960   30.5840 F   0  0  0  0  0  0  0  0  0  0  0  0
   38.3450   22.6850   31.2200 F   0  0  0  0  0  0  0  0  0  0  0  0
   36.1070   22.7270   30.7410 F   0  0  0  0  0  0  0  0  0  0  0  0
   41.0443   22.6092   36.9112 H   0  0  0  0  0  0  0  0  0  0  0  0
   40.0072   23.6631   38.9398 H   0  0  0  0  0  0  0  0  0  0  0  0
   37.5010   23.8042   39.0733 H   0  0  0  0  0  0  0  0  0  0  0  0
   38.3940   22.7699   33.6707 H   0  0  0  0  0  0  0  0  0  0  0  0
   34.0734   19.7654   32.1793 H   0  0  0  0  0  0  0  0  0  0  0  0
   35.1002   20.5376   30.9416 H   0  0  0  0  0  0  0  0  0  0  0  0
  1  2  2  0
  2  3  1  0
  4  3  2  0
  5  4  1  0
  6  5  2  0
  6  1  1  0
  7 13  1  0
  7  5  1  0
  8  7  1  0
  9 10  1  0
  9  8  2  0
 10 12  2  0
 11 10  1  0
 12 13  1  0
 13 14  2  0
 15  9  1  0
 16 15  1  0
 17 15  1  0
 18 15  1  0
  1 19  1  0
  2 20  1  0
  3 21  1  0
  8 22  1  0
 11 23  1  0
 11 24  1  0
M  ISO  4  19  14  20  14  21  14  22  14
M  END
>  <minimizedAffinity>  (1) 
-5.19573498

>  <minimizedRMSD>  (1) 
0.481567949

$$$$
