
     RDKit          3D

 31 33  0  0  0  0  0  0  0  0999 V2000
   39.8950   22.6180   37.3690 C   0  0  0  0  0  0  0  0  0  0  0  0
   39.1440   23.2060   38.3850 C   0  0  0  0  0  0  0  0  0  0  0  0
   37.7630   23.3640   38.1890 C   0  0  0  0  0  0  0  0  0  0  0  0
   37.2250   22.9310   37.0090 N   0  0  0  0  0  0  0  0  0  0  0  0
   37.9970   22.3620   36.0480 C   0  0  0  0  0  0  0  0  0  0  0  0
   39.3130   22.2120   36.2370 N   0  0  0  0  0  0  0  0  0  0  0  0
   37.4240   21.9160   34.8250 N   0  0  0  0  0  0  0  0  0  0  0  0
   38.1170   22.2870   33.7320 C   0  0  0  0  0  0  0  0  0  0  0  0
   37.6110   21.8830   32.5040 C   0  0  0  0  0  0  0  0  0  0  0  0
   36.4570   21.1470   32.5110 C   0  0  0  0  0  0  0  0  0  0  0  0
   35.8550   20.6840   31.3250 N   0  0  0  0  0  0  0  0  0  0  0  0
   35.8060   20.8030   33.6280 N   0  0  0  0  0  0  0  0  0  0  0  0
   36.2990   21.1980   34.8280 C   0  0  0  0  0  0  0  0  0  0  0  0
   35.7650   20.9290   35.9400 O   0  0  0  0  0  0  0  0  0  0  0  0
   38.2680   22.2200   31.2400 C   0  0  0  0  0  0  0  0  0  0  0  0
   39.0050   21.2870   30.5100 C   0  0  0  0  0  0  0  0  0  0  0  0
   39.5840   21.7120   29.3280 C   0  0  0  0  0  0  0  0  0  0  0  0
   39.4490   23.0020   28.8790 C   0  0  0  0  0  0  0  0  0  0  0  0
   38.7220   23.9120   29.6040 C   0  0  0  0  0  0  0  0  0  0  0  0
   38.1280   23.5220   30.7910 C   0  0  0  0  0  0  0  0  0  0  0  0
   40.9792   22.4867   37.5005 H   0  0  0  0  0  0  0  0  0  0  0  0
   39.6220   23.5384   39.3183 H   0  0  0  0  0  0  0  0  0  0  0  0
   37.1311   23.8235   38.9634 H   0  0  0  0  0  0  0  0  0  0  0  0
   39.0394   22.8814   33.8083 H   0  0  0  0  0  0  0  0  0  0  0  0
   34.9862   20.1325   31.3697 H   0  0  0  0  0  0  0  0  0  0  0  0
   36.2835   20.8968   30.4129 H   0  0  0  0  0  0  0  0  0  0  0  0
   39.1213   20.2512   30.8617 H   0  0  0  0  0  0  0  0  0  0  0  0
   40.1688   20.9965   28.7313 H   0  0  0  0  0  0  0  0  0  0  0  0
   39.9250   23.3070   27.9354 H   0  0  0  0  0  0  0  0  0  0  0  0
   38.6121   24.9455   29.2437 H   0  0  0  0  0  0  0  0  0  0  0  0
   37.5445   24.2465   31.3780 H   0  0  0  0  0  0  0  0  0  0  0  0
  1  2  2  0
  3  2  1  0
  4  3  2  0
  5  6  2  0
  5  4  1  0
  6  1  1  0
  7 13  1  0
  7  5  1  0
  8  7  1  0
  9 10  1  0
  9  8  2  0
 10 12  2  0
 11 10  1  0
 12 13  1  0
 13 14  2  0
 15  9  1  0
 16 15  2  0
 17 16  1  0
 18 17  2  0
 18 19  1  0
 19 20  2  0
 20 15  1  0
  1 21  1  0
  2 22  1  0
  3 23  1  0
  8 24  1  0
 11 25  1  0
 11 26  1  0
 16 27  1  0
 17 28  1  0
 18 29  1  0
 19 30  1  0
 20 31  1  0
M  ISO  8  21  14  22  14  23  14  24  14  27  14  28  14  29  14  30  14
M  ISO  1  31  14
M  END
>  <minimizedAffinity>  (1) 
-5.16214037

>  <minimizedRMSD>  (1) 
0.993418515

$$$$
