
     RDKit          3D

 23 24  0  0  0  0  0  0  0  0999 V2000
   37.5460   25.3300   35.8460 C   0  0  0  0  0  0  0  0  0  0  0  0
   38.3070   23.9150   37.7930 C   0  0  0  0  0  0  0  0  0  0  0  0
   38.4830   24.4050   36.4880 C   0  0  0  0  0  0  0  0  0  0  0  0
   39.6070   23.9790   35.7900 C   0  0  0  0  0  0  0  0  0  0  0  0
   40.4720   23.1120   36.4090 N   0  0  0  0  0  0  0  0  0  0  0  0
   40.2630   22.6620   37.6710 C   0  0  0  0  0  0  0  0  0  0  0  0
   39.1900   23.0650   38.3490 N   0  0  0  0  0  0  0  0  0  0  0  0
   38.1410   26.6940   35.5860 C   0  0  0  0  0  0  0  0  0  0  0  0
   37.4100   27.4590   34.5390 C   0  0  0  0  0  0  0  0  0  0  0  0
   36.3900   28.3920   34.5820 C   0  0  0  0  0  0  0  0  0  0  0  0
   36.0830   28.7890   33.2890 C   0  0  0  0  0  0  0  0  0  0  0  0
   36.9520   28.0610   32.5000 C   0  0  0  0  0  0  0  0  0  0  0  0
   37.7030   27.3030   33.2690 O   0  0  0  0  0  0  0  0  0  0  0  0
   37.2304   24.8972   34.8852 H   0  0  0  0  0  0  0  0  0  0  0  0
   36.6994   25.4683   36.5346 H   0  0  0  0  0  0  0  0  0  0  0  0
   37.4282   24.2331   38.3730 H   0  0  0  0  0  0  0  0  0  0  0  0
   39.7987   24.3289   34.7649 H   0  0  0  0  0  0  0  0  0  0  0  0
   40.9780   21.9658   38.1336 H   0  0  0  0  0  0  0  0  0  0  0  0
   38.1169   27.2709   36.5223 H   0  0  0  0  0  0  0  0  0  0  0  0
   39.1682   26.5406   35.2236 H   0  0  0  0  0  0  0  0  0  0  0  0
   35.9005   28.7603   35.4956 H   0  0  0  0  0  0  0  0  0  0  0  0
   35.3229   29.5158   32.9664 H   0  0  0  0  0  0  0  0  0  0  0  0
   37.0072   28.1077   31.4024 H   0  0  0  0  0  0  0  0  0  0  0  0
  1  3  1  0
  2  7  2  0
  3  2  1  0
  4  5  1  0
  4  3  2  0
  5  6  2  0
  6  7  1  0
  8  1  1  0
  9 10  2  0
  9  8  1  0
 11 10  1  0
 12 13  1  0
 12 11  2  0
 13  9  1  0
  1 14  1  0
  1 15  1  0
  2 16  1  0
  4 17  1  0
  6 18  1  0
  8 19  1  0
  8 20  1  0
 10 21  1  0
 11 22  1  0
 12 23  1  0
M  ISO  8  14   8  15   8  16  14  17  14  18  14  19   8  20   8  21  14
M  ISO  2  22  14  23  14
M  END
>  <minimizedAffinity>  (1) 
-3.76929975

>  <minimizedRMSD>  (1) 
0.951925397

$$$$
