
     RDKit          3D

 23 23  0  0  0  0  0  0  0  0999 V2000
   37.6700   25.4220   35.3840 C   0  0  0  0  0  0  0  0  0  0  0  0
   37.9420   24.5180   37.7570 C   0  0  0  0  0  0  0  0  0  0  0  0
   38.3200   24.5430   36.3870 C   0  0  0  0  0  0  0  0  0  0  0  0
   39.3520   23.7160   35.9590 C   0  0  0  0  0  0  0  0  0  0  0  0
   39.9330   22.9300   36.8940 N   0  0  0  0  0  0  0  0  0  0  0  0
   39.5630   22.9170   38.1840 C   0  0  0  0  0  0  0  0  0  0  0  0
   38.5780   23.7010   38.6190 N   0  0  0  0  0  0  0  0  0  0  0  0
   38.0130   26.8590   35.5610 C   0  0  0  0  0  0  0  0  0  0  0  0
   39.3950   27.1530   35.7570 N   0  0  0  0  0  0  0  0  0  0  0  0
   40.1810   27.0510   34.5490 C   0  0  0  0  0  0  0  0  0  0  0  0
   39.6210   27.1800   33.3790 N   0  0  0  0  0  0  0  0  0  0  0  0
   41.6010   26.8040   34.5910 N   0  0  0  0  0  0  0  0  0  0  0  0
   40.1780   27.1060   32.5180 H   0  0  0  0  0  0  0  0  0  0  0  0
   36.5795   25.3084   35.4727 H   0  0  0  0  0  0  0  0  0  0  0  0
   38.0354   25.1162   34.3926 H   0  0  0  0  0  0  0  0  0  0  0  0
   37.1287   25.1669   38.1140 H   0  0  0  0  0  0  0  0  0  0  0  0
   39.6807   23.7014   34.9094 H   0  0  0  0  0  0  0  0  0  0  0  0
   40.0795   22.2508   38.8907 H   0  0  0  0  0  0  0  0  0  0  0  0
   37.6786   27.3979   34.6623 H   0  0  0  0  0  0  0  0  0  0  0  0
   37.5092   27.1719   36.4874 H   0  0  0  0  0  0  0  0  0  0  0  0
   39.7937   27.4127   36.6705 H   0  0  0  0  0  0  0  0  0  0  0  0
   42.1380   26.7358   33.7147 H   0  0  0  0  0  0  0  0  0  0  0  0
   42.0783   26.6958   35.4973 H   0  0  0  0  0  0  0  0  0  0  0  0
  1  8  1  0
  1  3  1  0
  2  7  2  0
  3  2  1  0
  4  3  2  0
  4  5  1  0
  5  6  2  0
  6  7  1  0
  8  9  1  0
 10 12  1  0
 10  9  1  0
 11 10  2  0
 13 11  1  0
  1 14  1  0
  1 15  1  0
  2 16  1  0
  4 17  1  0
  6 18  1  0
  8 19  1  0
  8 20  1  0
  9 21  1  0
 12 22  1  0
 12 23  1  0
M  ISO  7  14   8  15   8  16  14  17  14  18  14  19   8  20   8
M  END
>  <minimizedAffinity>  (1) 
-3.55337477

>  <minimizedRMSD>  (1) 
0.585441828

$$$$
