
     RDKit          3D

 23 24  0  0  0  0  0  0  0  0999 V2000
   37.8270   21.9930   34.6530 C   0  0  0  0  0  0  0  0  0  0  0  0
   37.3090   23.0110   36.9130 C   0  0  0  0  0  0  0  0  0  0  0  0
   38.2060   22.4520   35.9890 C   0  0  0  0  0  0  0  0  0  0  0  0
   39.5410   22.3270   36.3730 C   0  0  0  0  0  0  0  0  0  0  0  0
   39.9010   22.7520   37.6150 N   0  0  0  0  0  0  0  0  0  0  0  0
   39.0070   23.2890   38.4860 C   0  0  0  0  0  0  0  0  0  0  0  0
   37.7210   23.4160   38.1320 N   0  0  0  0  0  0  0  0  0  0  0  0
   38.4010   22.8280   33.5480 C   0  0  0  0  0  0  0  0  0  0  0  0
   37.3550   23.5190   32.7470 C   0  0  0  0  0  0  0  0  0  0  0  0
   36.3610   22.9730   31.9340 C   0  0  0  0  0  0  0  0  0  0  0  0
   35.6780   24.0720   31.4380 C   0  0  0  0  0  0  0  0  0  0  0  0
   36.2190   25.2110   31.9150 N   0  0  0  0  0  0  0  0  0  0  0  0
   37.2230   24.8670   32.6980 N   0  0  0  0  0  0  0  0  0  0  0  0
   38.1800   20.9588   34.5271 H   0  0  0  0  0  0  0  0  0  0  0  0
   36.7321   22.0719   34.5825 H   0  0  0  0  0  0  0  0  0  0  0  0
   36.2497   23.1209   36.6377 H   0  0  0  0  0  0  0  0  0  0  0  0
   40.2856   21.8950   35.6881 H   0  0  0  0  0  0  0  0  0  0  0  0
   39.3389   23.6193   39.4814 H   0  0  0  0  0  0  0  0  0  0  0  0
   39.0649   23.5864   33.9886 H   0  0  0  0  0  0  0  0  0  0  0  0
   38.9460   22.1536   32.8711 H   0  0  0  0  0  0  0  0  0  0  0  0
   36.1640   21.9098   31.7323 H   0  0  0  0  0  0  0  0  0  0  0  0
   34.8182   24.0222   30.7536 H   0  0  0  0  0  0  0  0  0  0  0  0
   35.9067   26.1702   31.7069 H   0  0  0  0  0  0  0  0  0  0  0  0
  1  3  1  0
  2  7  2  0
  3  4  2  0
  3  2  1  0
  4  5  1  0
  5  6  2  0
  7  6  1  0
  8  1  1  0
  9  8  1  0
 10  9  1  0
 11 12  1  0
 11 10  2  0
 12 13  1  0
 13  9  2  0
  1 14  1  0
  1 15  1  0
  2 16  1  0
  4 17  1  0
  6 18  1  0
  8 19  1  0
  8 20  1  0
 10 21  1  0
 11 22  1  0
 12 23  1  0
M  ISO  8  14   8  15   8  16  14  17  14  18  14  19   8  20   8  21  14
M  ISO  2  22  14  23   9
M  END
>  <minimizedAffinity>  (1) 
-3.54802465

>  <minimizedRMSD>  (1) 
5.25042248

$$$$
