
     RDKit          3D

 31 33  0  0  0  0  0  0  0  0999 V2000
   39.8720   22.6570   37.4480 C   0  0  0  0  0  0  0  0  0  0  0  0
   39.1030   23.2500   38.4600 C   0  0  0  0  0  0  0  0  0  0  0  0
   37.7410   23.3920   38.2530 C   0  0  0  0  0  0  0  0  0  0  0  0
   37.2160   22.9490   37.0740 N   0  0  0  0  0  0  0  0  0  0  0  0
   37.9810   22.3790   36.1130 C   0  0  0  0  0  0  0  0  0  0  0  0
   39.3090   22.2340   36.3020 N   0  0  0  0  0  0  0  0  0  0  0  0
   37.4280   21.9180   34.8850 N   0  0  0  0  0  0  0  0  0  0  0  0
   38.1210   22.2710   33.7980 C   0  0  0  0  0  0  0  0  0  0  0  0
   37.6440   21.8590   32.5730 C   0  0  0  0  0  0  0  0  0  0  0  0
   36.4850   21.1150   32.5870 C   0  0  0  0  0  0  0  0  0  0  0  0
   35.8770   20.6230   31.4040 N   0  0  0  0  0  0  0  0  0  0  0  0
   35.8120   20.7790   33.7110 N   0  0  0  0  0  0  0  0  0  0  0  0
   36.3010   21.1950   34.8990 C   0  0  0  0  0  0  0  0  0  0  0  0
   35.7590   20.9410   36.0080 O   0  0  0  0  0  0  0  0  0  0  0  0
   38.3020   22.1730   31.3060 C   0  0  0  0  0  0  0  0  0  0  0  0
   39.0660   21.2440   30.6320 C   0  0  0  0  0  0  0  0  0  0  0  0
   39.6690   21.6090   29.4220 C   0  0  0  0  0  0  0  0  0  0  0  0
   39.4440   22.9000   28.9940 C   0  0  0  0  0  0  0  0  0  0  0  0
   38.6900   23.8620   29.6290 C   0  0  0  0  0  0  0  0  0  0  0  0
   38.1060   23.4660   30.8260 C   0  0  0  0  0  0  0  0  0  0  0  0
   40.9555   22.5356   37.5942 H   0  0  0  0  0  0  0  0  0  0  0  0
   39.5700   23.5937   39.3948 H   0  0  0  0  0  0  0  0  0  0  0  0
   37.0988   23.8502   39.0195 H   0  0  0  0  0  0  0  0  0  0  0  0
   39.0403   22.8697   33.8787 H   0  0  0  0  0  0  0  0  0  0  0  0
   35.0098   20.0704   31.4622 H   0  0  0  0  0  0  0  0  0  0  0  0
   36.3027   20.8183   30.4866 H   0  0  0  0  0  0  0  0  0  0  0  0
   39.1999   20.2308   31.0389 H   0  0  0  0  0  0  0  0  0  0  0  0
   40.2874   20.9052   28.8455 H   0  0  0  0  0  0  0  0  0  0  0  0
   39.9167   23.1929   28.0449 H   0  0  0  0  0  0  0  0  0  0  0  0
   38.5592   24.8736   29.2171 H   0  0  0  0  0  0  0  0  0  0  0  0
   37.4875   24.1751   31.3959 H   0  0  0  0  0  0  0  0  0  0  0  0
  1  2  2  0
  3  2  1  0
  4  3  2  0
  5  6  2  0
  5  4  1  0
  6  1  1  0
  7 13  1  0
  7  5  1  0
  8  7  1  0
  9 10  1  0
  9  8  2  0
 10 12  2  0
 11 10  1  0
 12 13  1  0
 13 14  2  0
 15  9  1  0
 16 15  2  0
 17 16  1  0
 18 17  2  0
 18 19  1  0
 19 20  2  0
 20 15  1  0
  1 21  1  0
  2 22  1  0
  3 23  1  0
  8 24  1  0
 11 25  1  0
 11 26  1  0
 16 27  1  0
 17 28  1  0
 18 29  1  0
 19 30  1  0
 20 31  1  0
M  ISO  8  21  14  22  14  23  14  24  14  27  14  28  14  29  14  30  14
M  ISO  1  31  14
M  END
>  <minimizedAffinity>  (1) 
-5.14794397

>  <minimizedRMSD>  (1) 
0.792540848

$$$$
