
     RDKit          3D

 46 49  0  0  1  0  0  0  0  0999 V2000
   37.7440   27.3980   33.8410 C   0  0  2  0  0  0  0  0  0  0  0  0
   36.4610   27.9760   34.4560 C   0  0  0  0  0  0  0  0  0  0  0  0
   35.7880   28.8350   33.4220 C   0  0  0  0  0  0  0  0  0  0  0  0
   36.6560   29.0430   32.1820 C   0  0  0  0  0  0  0  0  0  0  0  0
   36.9940   27.7200   31.5370 C   0  0  0  0  0  0  0  0  0  0  0  0
   37.4310   26.7530   32.5820 C   0  0  1  0  0  0  0  0  0  0  0  0
   38.1980   25.6230   32.0150 C   0  0  0  0  0  0  0  0  0  0  0  0
   39.5200   25.5840   31.7210 N   0  0  0  0  0  0  0  0  0  0  0  0
   40.1940   24.5690   31.2300 C   0  0  0  0  0  0  0  0  0  0  0  0
   39.5840   23.4010   30.9600 N   0  0  0  0  0  0  0  0  0  0  0  0
   38.2880   23.3170   31.2060 C   0  0  0  0  0  0  0  0  0  0  0  0
   37.6790   22.1150   30.9200 C   0  0  0  0  0  0  0  0  0  0  0  0
   36.3290   21.9500   31.1470 C   0  0  0  0  0  0  0  0  0  0  0  0
   35.5850   23.0120   31.6660 C   0  0  0  0  0  0  0  0  0  0  0  0
   36.2500   24.1860   31.9320 C   0  0  0  0  0  0  0  0  0  0  0  0
   37.5850   24.3920   31.7240 C   0  0  0  0  0  0  0  0  0  0  0  0
   38.4840   26.5730   34.8430 C   0  0  0  0  0  0  0  0  0  0  0  0
   37.6140   25.7260   35.6980 C   0  0  0  0  0  0  0  0  0  0  0  0
   38.0210   24.2940   37.7700 C   0  0  0  0  0  0  0  0  0  0  0  0
   38.3430   24.6950   36.4570 C   0  0  0  0  0  0  0  0  0  0  0  0
   39.4200   24.0900   35.8390 C   0  0  0  0  0  0  0  0  0  0  0  0
   40.1290   23.1320   36.5170 N   0  0  0  0  0  0  0  0  0  0  0  0
   39.7700   22.7880   37.7810 C   0  0  0  0  0  0  0  0  0  0  0  0
   38.7400   23.3610   38.3820 N   0  0  0  0  0  0  0  0  0  0  0  0
   38.4572   28.1943   33.5818 H   0  0  0  0  0  0  0  0  0  0  0  0
   35.7895   27.1572   34.7537 H   0  0  0  0  0  0  0  0  0  0  0  0
   36.7035   28.5744   35.3466 H   0  0  0  0  0  0  0  0  0  0  0  0
   34.8482   28.3508   33.1180 H   0  0  0  0  0  0  0  0  0  0  0  0
   35.6060   29.8217   33.8730 H   0  0  0  0  0  0  0  0  0  0  0  0
   36.1096   29.6674   31.4597 H   0  0  0  0  0  0  0  0  0  0  0  0
   37.5910   29.5373   32.4845 H   0  0  0  0  0  0  0  0  0  0  0  0
   36.1054   27.3260   31.0220 H   0  0  0  0  0  0  0  0  0  0  0  0
   37.8066   27.8647   30.8098 H   0  0  0  0  0  0  0  0  0  0  0  0
   36.6111   26.1393   32.9835 H   0  0  0  0  0  0  0  0  0  0  0  0
   41.2717   24.6757   31.0371 H   0  0  0  0  0  0  0  0  0  0  0  0
   38.2715   21.2842   30.5092 H   0  0  0  0  0  0  0  0  0  0  0  0
   35.8420   20.9899   30.9212 H   0  0  0  0  0  0  0  0  0  0  0  0
   34.5059   22.9129   31.8552 H   0  0  0  0  0  0  0  0  0  0  0  0
   35.6639   25.0213   32.3427 H   0  0  0  0  0  0  0  0  0  0  0  0
   39.1802   25.9156   34.3015 H   0  0  0  0  0  0  0  0  0  0  0  0
   38.9967   27.2773   35.5146 H   0  0  0  0  0  0  0  0  0  0  0  0
   37.0916   26.3780   36.4135 H   0  0  0  0  0  0  0  0  0  0  0  0
   36.9229   25.1974   35.0249 H   0  0  0  0  0  0  0  0  0  0  0  0
   37.1693   24.7569   38.2899 H   0  0  0  0  0  0  0  0  0  0  0  0
   39.7055   24.3733   34.8152 H   0  0  0  0  0  0  0  0  0  0  0  0
   40.3466   22.0184   38.3151 H   0  0  0  0  0  0  0  0  0  0  0  0
  1  2  1  0
  1 17  1  0
  3  2  1  0
  4  3  1  0
  5  4  1  0
  5  6  1  0
  6  1  1  0
  7  6  1  0
  8  7  2  0
  9  8  1  0
 10 11  1  0
 10  9  2  0
 11 16  2  0
 12 13  2  0
 12 11  1  0
 13 14  1  0
 14 15  2  0
 16 15  1  0
 16  7  1  0
 17 18  1  0
 18 20  1  0
 19 24  2  0
 20 19  1  0
 21 20  2  0
 21 22  1  0
 22 23  2  0
 23 24  1  0
  1 25  1  6
  2 26  1  0
  2 27  1  0
  3 28  1  0
  3 29  1  0
  4 30  1  0
  4 31  1  0
  5 32  1  0
  5 33  1  0
  6 34  1  1
  9 35  1  0
 12 36  1  0
 13 37  1  0
 14 38  1  0
 15 39  1  0
 17 40  1  0
 17 41  1  0
 18 42  1  0
 18 43  1  0
 19 44  1  0
 21 45  1  0
 23 46  1  0
M  ISO  8  25  13  26  13  27  13  28  13  29  13  30  13  31  13  32  13
M  ISO  8  33  13  34  13  35  14  36  14  37  14  38  14  39  14  40   8
M  ISO  6  41   8  42   8  43   8  44  14  45  14  46  14
M  END
>  <minimizedAffinity>  (1) 
-5.67997932

>  <minimizedRMSD>  (1) 
0.91448164

$$$$
