
     RDKit          3D

 46 49  0  0  1  0  0  0  0  0999 V2000
   36.5930   28.4930   32.7140 C   0  0  2  0  0  0  0  0  0  0  0  0
   35.9700   28.3940   31.3310 C   0  0  0  0  0  0  0  0  0  0  0  0
   37.0110   27.9380   30.3450 C   0  0  0  0  0  0  0  0  0  0  0  0
   38.4000   27.9750   30.9460 C   0  0  0  0  0  0  0  0  0  0  0  0
   38.5210   27.1150   32.1710 C   0  0  0  0  0  0  0  0  0  0  0  0
   37.2970   27.2480   33.0210 C   0  0  1  0  0  0  0  0  0  0  0  0
   37.7050   26.9470   34.4030 C   0  0  0  0  0  0  0  0  0  0  0  0
   37.9700   27.7790   35.4840 C   0  0  0  0  0  0  0  0  0  0  0  0
   38.2980   27.0410   36.5450 N   0  0  0  0  0  0  0  0  0  0  0  0
   38.2680   25.7240   36.2350 C   0  0  0  0  0  0  0  0  0  0  0  0
   38.5370   24.6330   37.0350 C   0  0  0  0  0  0  0  0  0  0  0  0
   38.4310   23.3820   36.4700 C   0  0  0  0  0  0  0  0  0  0  0  0
   38.0680   23.2530   35.1480 C   0  0  0  0  0  0  0  0  0  0  0  0
   37.8150   24.3780   34.4110 C   0  0  0  0  0  0  0  0  0  0  0  0
   37.8970   25.6530   34.8930 C   0  0  0  0  0  0  0  0  0  0  0  0
   35.5930   28.9520   33.7180 C   0  0  0  0  0  0  0  0  0  0  0  0
   35.5290   30.4400   33.8690 C   0  0  0  0  0  0  0  0  0  0  0  0
   35.3280   31.6990   36.0880 C   0  0  0  0  0  0  0  0  0  0  0  0
   34.8020   30.8700   35.0760 C   0  0  0  0  0  0  0  0  0  0  0  0
   33.5040   30.4070   35.2170 C   0  0  0  0  0  0  0  0  0  0  0  0
   32.7850   30.7730   36.3320 N   0  0  0  0  0  0  0  0  0  0  0  0
   33.3490   31.5740   37.2730 C   0  0  0  0  0  0  0  0  0  0  0  0
   34.5890   32.0200   37.1460 N   0  0  0  0  0  0  0  0  0  0  0  0
   37.3652   29.2757   32.7474 H   0  0  0  0  0  0  0  0  0  0  0  0
   35.1425   27.6695   31.3523 H   0  0  0  0  0  0  0  0  0  0  0  0
   35.5858   29.3797   31.0299 H   0  0  0  0  0  0  0  0  0  0  0  0
   36.9843   28.5989   29.4661 H   0  0  0  0  0  0  0  0  0  0  0  0
   36.7857   26.8993   30.0616 H   0  0  0  0  0  0  0  0  0  0  0  0
   39.1193   27.6197   30.1934 H   0  0  0  0  0  0  0  0  0  0  0  0
   38.6065   29.0131   31.2454 H   0  0  0  0  0  0  0  0  0  0  0  0
   38.6393   26.0645   31.8668 H   0  0  0  0  0  0  0  0  0  0  0  0
   39.3971   27.4398   32.7515 H   0  0  0  0  0  0  0  0  0  0  0  0
   36.4976   26.5219   32.8116 H   0  0  0  0  0  0  0  0  0  0  0  0
   37.9173   28.8776   35.4670 H   0  0  0  0  0  0  0  0  0  0  0  0
   38.5404   27.4204   37.4714 H   0  0  0  0  0  0  0  0  0  0  0  0
   38.8264   24.7583   38.0888 H   0  0  0  0  0  0  0  0  0  0  0  0
   38.6362   22.4860   37.0743 H   0  0  0  0  0  0  0  0  0  0  0  0
   37.9823   22.2568   34.6894 H   0  0  0  0  0  0  0  0  0  0  0  0
   37.5257   24.2461   33.3579 H   0  0  0  0  0  0  0  0  0  0  0  0
   34.6007   28.5916   33.4092 H   0  0  0  0  0  0  0  0  0  0  0  0
   35.9046   28.5440   34.6908 H   0  0  0  0  0  0  0  0  0  0  0  0
   36.5560   30.8306   33.9217 H   0  0  0  0  0  0  0  0  0  0  0  0
   34.9814   30.8335   32.9999 H   0  0  0  0  0  0  0  0  0  0  0  0
   36.3554   32.0824   36.0019 H   0  0  0  0  0  0  0  0  0  0  0  0
   33.0555   29.7577   34.4506 H   0  0  0  0  0  0  0  0  0  0  0  0
   32.7629   31.8581   38.1594 H   0  0  0  0  0  0  0  0  0  0  0  0
  1  6  1  0
  1 16  1  0
  2  1  1  0
  3  4  1  0
  3  2  1  0
  4  5  1  0
  5  6  1  0
  6  7  1  0
  7 15  1  0
  7  8  2  0
  8  9  1  0
 10  9  1  0
 10 11  2  0
 12 11  1  0
 13 12  2  0
 14 15  2  0
 14 13  1  0
 15 10  1  0
 16 17  1  0
 17 19  1  0
 18 23  2  0
 19 20  2  0
 19 18  1  0
 20 21  1  0
 21 22  2  0
 23 22  1  0
  1 24  1  6
  2 25  1  0
  2 26  1  0
  3 27  1  0
  3 28  1  0
  4 29  1  0
  4 30  1  0
  5 31  1  0
  5 32  1  0
  6 33  1  6
  8 34  1  0
  9 35  1  0
 11 36  1  0
 12 37  1  0
 13 38  1  0
 14 39  1  0
 16 40  1  0
 16 41  1  0
 17 42  1  0
 17 43  1  0
 18 44  1  0
 20 45  1  0
 22 46  1  0
M  ISO  8  24  13  25  13  26  13  27  13  28  13  29  13  30  13  31  13
M  ISO  8  32  13  33  13  34  14  35   9  36  14  37  14  38  14  39  14
M  ISO  7  40   8  41   8  42   8  43   8  44  14  45  14  46  14
M  END
>  <minimizedAffinity>  (1) 
-5.81293869

>  <minimizedRMSD>  (1) 
5.58773613

$$$$
