
     RDKit          3D

 43 45  0  0  1  0  0  0  0  0999 V2000
   37.3970   27.1170   33.5690 C   0  0  2  0  0  0  0  0  0  0  0  0
   36.5210   27.9430   34.4750 C   0  0  0  0  0  0  0  0  0  0  0  0
   35.8460   29.0210   33.6750 C   0  0  0  0  0  0  0  0  0  0  0  0
   36.4210   29.1260   32.2770 C   0  0  0  0  0  0  0  0  0  0  0  0
   36.3150   27.8420   31.5160 C   0  0  0  0  0  0  0  0  0  0  0  0
   36.5940   26.6570   32.4020 C   0  0  1  0  0  0  0  0  0  0  0  0
   37.3110   25.7230   31.5340 N   0  0  0  0  0  0  0  0  0  0  0  0
   38.4620   26.1880   31.0170 C   0  0  0  0  0  0  0  0  0  0  0  0
   39.1830   25.3460   30.1830 C   0  0  0  0  0  0  0  0  0  0  0  0
   38.6550   24.0870   29.9480 C   0  0  0  0  0  0  0  0  0  0  0  0
   39.2880   23.1250   29.1140 N   0  0  0  0  0  0  0  0  0  0  0  0
   37.5000   23.6810   30.4920 N   0  0  0  0  0  0  0  0  0  0  0  0
   36.7940   24.5020   31.3080 C   0  0  0  0  0  0  0  0  0  0  0  0
   35.7120   24.1040   31.8100 O   0  0  0  0  0  0  0  0  0  0  0  0
   38.1290   26.0380   34.3080 C   0  0  0  0  0  0  0  0  0  0  0  0
   37.6280   25.8230   35.6830 C   0  0  0  0  0  0  0  0  0  0  0  0
   38.0040   24.3230   37.7270 C   0  0  0  0  0  0  0  0  0  0  0  0
   38.3290   24.7650   36.4310 C   0  0  0  0  0  0  0  0  0  0  0  0
   39.3990   24.1710   35.7810 C   0  0  0  0  0  0  0  0  0  0  0  0
   40.1020   23.1700   36.4280 N   0  0  0  0  0  0  0  0  0  0  0  0
   39.7440   22.7840   37.6760 C   0  0  0  0  0  0  0  0  0  0  0  0
   38.7070   23.3640   38.3010 N   0  0  0  0  0  0  0  0  0  0  0  0
   38.2124   27.7370   33.1681 H   0  0  0  0  0  0  0  0  0  0  0  0
   35.7590   27.2975   34.9362 H   0  0  0  0  0  0  0  0  0  0  0  0
   37.1379   28.4026   35.2613 H   0  0  0  0  0  0  0  0  0  0  0  0
   34.7726   28.7917   33.6025 H   0  0  0  0  0  0  0  0  0  0  0  0
   36.0109   29.9810   34.1862 H   0  0  0  0  0  0  0  0  0  0  0  0
   35.8745   29.9073   31.7285 H   0  0  0  0  0  0  0  0  0  0  0  0
   37.4892   29.3708   32.3724 H   0  0  0  0  0  0  0  0  0  0  0  0
   35.2984   27.7514   31.1058 H   0  0  0  0  0  0  0  0  0  0  0  0
   37.0609   27.8546   30.7076 H   0  0  0  0  0  0  0  0  0  0  0  0
   35.7007   26.1729   32.8235 H   0  0  0  0  0  0  0  0  0  0  0  0
   38.8199   27.2022   31.2477 H   0  0  0  0  0  0  0  0  0  0  0  0
   40.1326   25.6642   29.7281 H   0  0  0  0  0  0  0  0  0  0  0  0
   38.8539   22.2019   28.9713 H   0  0  0  0  0  0  0  0  0  0  0  0
   40.1806   23.3512   28.6525 H   0  0  0  0  0  0  0  0  0  0  0  0
   38.0226   25.0977   33.7473 H   0  0  0  0  0  0  0  0  0  0  0  0
   39.1786   26.3564   34.3912 H   0  0  0  0  0  0  0  0  0  0  0  0
   37.7359   26.7659   36.2392 H   0  0  0  0  0  0  0  0  0  0  0  0
   36.5818   25.4970   35.5870 H   0  0  0  0  0  0  0  0  0  0  0  0
   37.1597   24.7790   38.2647 H   0  0  0  0  0  0  0  0  0  0  0  0
   39.6847   24.4898   34.7677 H   0  0  0  0  0  0  0  0  0  0  0  0
   40.3086   21.9873   38.1825 H   0  0  0  0  0  0  0  0  0  0  0  0
  1 15  1  0
  1  2  1  0
  3  2  1  0
  4  3  1  0
  5  4  1  0
  5  6  1  0
  6  1  1  0
  7  6  1  0
  8  7  1  0
  9  8  2  0
 10  9  1  0
 10 12  2  0
 11 10  1  0
 12 13  1  0
 13  7  1  0
 13 14  2  0
 15 16  1  0
 16 18  1  0
 17 22  2  0
 18 17  1  0
 19 20  1  0
 19 18  2  0
 20 21  2  0
 21 22  1  0
  1 23  1  6
  2 24  1  0
  2 25  1  0
  3 26  1  0
  3 27  1  0
  4 28  1  0
  4 29  1  0
  5 30  1  0
  5 31  1  0
  6 32  1  1
  8 33  1  0
  9 34  1  0
 11 35  1  0
 11 36  1  0
 15 37  1  0
 15 38  1  0
 16 39  1  0
 16 40  1  0
 17 41  1  0
 19 42  1  0
 21 43  1  0
M  ISO  8  23  13  24  13  25  13  26  13  27  13  28  13  29  13  30  13
M  ISO  8  31  13  32  13  33  14  34  14  37   8  38   8  39   8  40   8
M  ISO  3  41  14  42  14  43  14
M  END
>  <minimizedAffinity>  (1) 
-5.31659412

>  <minimizedRMSD>  (1) 
1.77052593

$$$$
