
     RDKit          3D

 45 47  0  0  1  0  0  0  0  0999 V2000
   37.4380   27.4010   33.6950 C   0  0  2  0  0  0  0  0  0  0  0  0
   36.5300   28.1760   34.6190 C   0  0  0  0  0  0  0  0  0  0  0  0
   35.6340   29.0920   33.8150 C   0  0  0  0  0  0  0  0  0  0  0  0
   36.2280   29.3050   32.4420 C   0  0  0  0  0  0  0  0  0  0  0  0
   36.3480   28.0370   31.6560 C   0  0  0  0  0  0  0  0  0  0  0  0
   36.6410   26.8660   32.5750 C   0  0  1  0  0  0  0  0  0  0  0  0
   38.6920   24.2520   29.9820 C   0  0  0  0  0  0  0  0  0  0  0  0
   39.0570   25.5650   30.1090 C   0  0  0  0  0  0  0  0  0  0  0  0
   38.3580   26.4120   30.9780 C   0  0  0  0  0  0  0  0  0  0  0  0
   37.2850   25.8800   31.7050 C   0  0  0  0  0  0  0  0  0  0  0  0
   36.9530   24.5490   31.5460 C   0  0  0  0  0  0  0  0  0  0  0  0
   37.6370   23.7080   30.6910 C   0  0  0  0  0  0  0  0  0  0  0  0
   39.5430   23.1450   28.8980 S   0  0  0  0  0  0  0  0  0  0  0  0
   39.4110   23.6240   27.4710 O   0  0  0  0  0  0  0  0  0  0  0  0
   41.0040   23.1990   29.2490 O   0  0  0  0  0  0  0  0  0  0  0  0
   38.2590   26.4070   34.4560 C   0  0  0  0  0  0  0  0  0  0  0  0
   37.5620   25.8320   35.6270 C   0  0  0  0  0  0  0  0  0  0  0  0
   38.0250   24.2840   37.6080 C   0  0  0  0  0  0  0  0  0  0  0  0
   38.3240   24.7890   36.3290 C   0  0  0  0  0  0  0  0  0  0  0  0
   39.4250   24.2750   35.6590 C   0  0  0  0  0  0  0  0  0  0  0  0
   40.1780   23.2990   36.2650 N   0  0  0  0  0  0  0  0  0  0  0  0
   39.8500   22.8440   37.4980 C   0  0  0  0  0  0  0  0  0  0  0  0
   38.8000   23.3310   38.1440 N   0  0  0  0  0  0  0  0  0  0  0  0
   38.1937   28.0547   33.2351 H   0  0  0  0  0  0  0  0  0  0  0  0
   35.9099   27.4730   35.1945 H   0  0  0  0  0  0  0  0  0  0  0  0
   37.1426   28.7802   35.3043 H   0  0  0  0  0  0  0  0  0  0  0  0
   34.6380   28.6356   33.7162 H   0  0  0  0  0  0  0  0  0  0  0  0
   35.5459   30.0604   34.3292 H   0  0  0  0  0  0  0  0  0  0  0  0
   35.5850   30.0031   31.8859 H   0  0  0  0  0  0  0  0  0  0  0  0
   37.2433   29.7050   32.5801 H   0  0  0  0  0  0  0  0  0  0  0  0
   35.4039   27.8511   31.1230 H   0  0  0  0  0  0  0  0  0  0  0  0
   37.1753   28.1409   30.9385 H   0  0  0  0  0  0  0  0  0  0  0  0
   35.7864   26.3653   33.0535 H   0  0  0  0  0  0  0  0  0  0  0  0
   39.9034   25.9568   29.5258 H   0  0  0  0  0  0  0  0  0  0  0  0
   38.6442   27.4685   31.0871 H   0  0  0  0  0  0  0  0  0  0  0  0
   36.1098   24.1426   32.1237 H   0  0  0  0  0  0  0  0  0  0  0  0
   37.3548   22.6508   30.5787 H   0  0  0  0  0  0  0  0  0  0  0  0
   39.0239   21.8834   29.0239 H   0  0  0  0  0  0  0  0  0  0  0  0
   38.5294   25.5863   33.7754 H   0  0  0  0  0  0  0  0  0  0  0  0
   39.1402   26.9433   34.8379 H   0  0  0  0  0  0  0  0  0  0  0  0
   37.3539   26.6450   36.3382 H   0  0  0  0  0  0  0  0  0  0  0  0
   36.6471   25.3538   35.2471 H   0  0  0  0  0  0  0  0  0  0  0  0
   37.1588   24.6698   38.1655 H   0  0  0  0  0  0  0  0  0  0  0  0
   39.6909   24.6437   34.6573 H   0  0  0  0  0  0  0  0  0  0  0  0
   40.4624   22.0609   37.9689 H   0  0  0  0  0  0  0  0  0  0  0  0
  1 16  1  0
  1  2  1  0
  3  2  1  0
  4  3  1  0
  5  4  1  0
  5  6  1  0
  6  1  1  0
  7  8  2  0
  7 12  1  0
  8  9  1  0
  9 10  2  0
 10  6  1  0
 11 10  1  0
 12 11  2  0
 13 15  2  0
 13  7  1  0
 14 13  2  0
 16 17  1  0
 17 19  1  0
 18 23  2  0
 19 18  1  0
 20 21  1  0
 20 19  2  0
 21 22  2  0
 22 23  1  0
  1 24  1  6
  2 25  1  0
  2 26  1  0
  3 27  1  0
  3 28  1  0
  4 29  1  0
  4 30  1  0
  5 31  1  0
  5 32  1  0
  6 33  1  1
  8 34  1  0
  9 35  1  0
 11 36  1  0
 12 37  1  0
 13 38  1  0
 16 39  1  0
 16 40  1  0
 17 41  1  0
 17 42  1  0
 18 43  1  0
 20 44  1  0
 22 45  1  0
M  ISO  8  24  13  25  13  26  13  27  13  28  13  29  13  30  13  31  13
M  ISO  8  32  13  33  13  34  14  35  14  36  14  37  14  38  11  39   8
M  ISO  6  40   8  41   8  42   8  43  14  44  14  45  14
M  END
>  <minimizedAffinity>  (1) 
-5.03670216

>  <minimizedRMSD>  (1) 
2.08009553

$$$$
