
     RDKit          3D

 40 42  0  0  1  0  0  0  0  0999 V2000
   37.4360   27.0780   33.6090 C   0  0  2  0  0  0  0  0  0  0  0  0
   36.6480   27.9880   34.5160 C   0  0  0  0  0  0  0  0  0  0  0  0
   35.8830   28.9910   33.6890 C   0  0  0  0  0  0  0  0  0  0  0  0
   36.3640   28.9910   32.2500 C   0  0  0  0  0  0  0  0  0  0  0  0
   36.2250   27.6620   31.5900 C   0  0  0  0  0  0  0  0  0  0  0  0
   36.5390   26.5370   32.5530 C   0  0  1  0  0  0  0  0  0  0  0  0
   37.1050   25.4610   31.7330 C   0  0  0  0  0  0  0  0  0  0  0  0
   36.4210   24.2440   31.8210 C   0  0  0  0  0  0  0  0  0  0  0  0
   36.9340   23.1880   31.0580 C   0  0  0  0  0  0  0  0  0  0  0  0
   38.0380   23.3570   30.2790 N   0  0  0  0  0  0  0  0  0  0  0  0
   38.6670   24.5240   30.2150 C   0  0  0  0  0  0  0  0  0  0  0  0
   38.1860   25.5470   30.9430 N   0  0  0  0  0  0  0  0  0  0  0  0
   38.2060   26.0580   34.3960 C   0  0  0  0  0  0  0  0  0  0  0  0
   37.6060   25.7220   35.6920 C   0  0  0  0  0  0  0  0  0  0  0  0
   38.0100   24.3080   37.7820 C   0  0  0  0  0  0  0  0  0  0  0  0
   38.3310   24.7120   36.4700 C   0  0  0  0  0  0  0  0  0  0  0  0
   39.4090   24.0990   35.8490 C   0  0  0  0  0  0  0  0  0  0  0  0
   40.1130   23.1290   36.5330 N   0  0  0  0  0  0  0  0  0  0  0  0
   39.7620   22.7840   37.7790 C   0  0  0  0  0  0  0  0  0  0  0  0
   38.7210   23.3690   38.3940 N   0  0  0  0  0  0  0  0  0  0  0  0
   38.2186   27.6393   33.0775 H   0  0  0  0  0  0  0  0  0  0  0  0
   35.9419   27.3897   35.1106 H   0  0  0  0  0  0  0  0  0  0  0  0
   37.3380   28.5199   35.1876 H   0  0  0  0  0  0  0  0  0  0  0  0
   34.8137   28.7339   33.7106 H   0  0  0  0  0  0  0  0  0  0  0  0
   36.0478   29.9925   34.1130 H   0  0  0  0  0  0  0  0  0  0  0  0
   35.7749   29.7272   31.6834 H   0  0  0  0  0  0  0  0  0  0  0  0
   37.4347   29.2429   32.2608 H   0  0  0  0  0  0  0  0  0  0  0  0
   35.1925   27.5472   31.2285 H   0  0  0  0  0  0  0  0  0  0  0  0
   36.9368   27.6127   30.7528 H   0  0  0  0  0  0  0  0  0  0  0  0
   35.6730   26.1236   33.0908 H   0  0  0  0  0  0  0  0  0  0  0  0
   35.5298   24.1233   32.4543 H   0  0  0  0  0  0  0  0  0  0  0  0
   36.4376   22.2068   31.0883 H   0  0  0  0  0  0  0  0  0  0  0  0
   39.5583   24.6509   29.5830 H   0  0  0  0  0  0  0  0  0  0  0  0
   38.2719   25.1377   33.7971 H   0  0  0  0  0  0  0  0  0  0  0  0
   39.1911   26.4992   34.6079 H   0  0  0  0  0  0  0  0  0  0  0  0
   37.5543   26.6422   36.2924 H   0  0  0  0  0  0  0  0  0  0  0  0
   36.6200   25.2879   35.4698 H   0  0  0  0  0  0  0  0  0  0  0  0
   37.1619   24.7756   38.3036 H   0  0  0  0  0  0  0  0  0  0  0  0
   39.6986   24.3819   34.8262 H   0  0  0  0  0  0  0  0  0  0  0  0
   40.3360   22.0085   38.3073 H   0  0  0  0  0  0  0  0  0  0  0  0
  1 13  1  0
  1  2  1  0
  3  2  1  0
  4  3  1  0
  5  4  1  0
  5  6  1  0
  6  1  1  0
  7  8  2  0
  7  6  1  0
  9  8  1  0
 10  9  2  0
 11 10  1  0
 11 12  2  0
 12  7  1  0
 13 14  1  0
 14 16  1  0
 15 20  2  0
 16 15  1  0
 17 16  2  0
 17 18  1  0
 18 19  2  0
 19 20  1  0
  1 21  1  6
  2 22  1  0
  2 23  1  0
  3 24  1  0
  3 25  1  0
  4 26  1  0
  4 27  1  0
  5 28  1  0
  5 29  1  0
  6 30  1  1
  8 31  1  0
  9 32  1  0
 11 33  1  0
 13 34  1  0
 13 35  1  0
 14 36  1  0
 14 37  1  0
 15 38  1  0
 17 39  1  0
 19 40  1  0
M  ISO  8  21  13  22  13  23  13  24  13  25  13  26  13  27  13  28  13
M  ISO  8  29  13  30  13  31  14  32  14  33  14  34   8  35   8  36   8
M  ISO  4  37   8  38  14  39  14  40  14
M  END
>  <minimizedAffinity>  (1) 
-5.01862049

>  <minimizedRMSD>  (1) 
1.45932925

$$$$
