
     RDKit          3D

 45 48  0  0  1  0  0  0  0  0999 V2000
   37.5460   27.2310   33.6760 C   0  0  2  0  0  0  0  0  0  0  0  0
   36.5700   28.0110   34.5270 C   0  0  0  0  0  0  0  0  0  0  0  0
   35.7720   28.9480   33.6550 C   0  0  0  0  0  0  0  0  0  0  0  0
   36.4490   29.0940   32.2890 C   0  0  0  0  0  0  0  0  0  0  0  0
   36.5220   27.8020   31.5670 C   0  0  0  0  0  0  0  0  0  0  0  0
   36.8500   26.6510   32.5120 C   0  0  1  0  0  0  0  0  0  0  0  0
   37.5520   25.6580   31.7400 N   0  0  0  0  0  0  0  0  0  0  0  0
   38.6210   26.0300   30.9760 C   0  0  0  0  0  0  0  0  0  0  0  0
   39.0940   24.9370   30.3260 N   0  0  0  0  0  0  0  0  0  0  0  0
   38.3480   23.8720   30.6600 C   0  0  0  0  0  0  0  0  0  0  0  0
   38.2810   22.5120   30.3780 C   0  0  0  0  0  0  0  0  0  0  0  0
   37.3400   21.7140   30.9350 N   0  0  0  0  0  0  0  0  0  0  0  0
   36.4140   22.2110   31.8000 C   0  0  0  0  0  0  0  0  0  0  0  0
   36.4560   23.5390   32.0950 N   0  0  0  0  0  0  0  0  0  0  0  0
   37.3880   24.3340   31.5440 C   0  0  0  0  0  0  0  0  0  0  0  0
   39.2690   22.0270   29.4660 N   0  0  0  0  0  0  0  0  0  0  0  0
   38.3370   26.2770   34.5240 C   0  0  0  0  0  0  0  0  0  0  0  0
   37.5960   25.7710   35.7020 C   0  0  0  0  0  0  0  0  0  0  0  0
   38.0050   24.3170   37.7660 C   0  0  0  0  0  0  0  0  0  0  0  0
   38.3390   24.7240   36.4490 C   0  0  0  0  0  0  0  0  0  0  0  0
   39.4150   24.1230   35.8160 C   0  0  0  0  0  0  0  0  0  0  0  0
   40.1130   23.1550   36.4900 N   0  0  0  0  0  0  0  0  0  0  0  0
   39.7590   22.7970   37.7470 C   0  0  0  0  0  0  0  0  0  0  0  0
   38.7170   23.3790   38.3640 N   0  0  0  0  0  0  0  0  0  0  0  0
   38.3085   27.8926   33.2390 H   0  0  0  0  0  0  0  0  0  0  0  0
   35.8876   27.3129   35.0340 H   0  0  0  0  0  0  0  0  0  0  0  0
   37.1250   28.5943   35.2764 H   0  0  0  0  0  0  0  0  0  0  0  0
   34.7581   28.5439   33.5181 H   0  0  0  0  0  0  0  0  0  0  0  0
   35.7175   29.9343   34.1390 H   0  0  0  0  0  0  0  0  0  0  0  0
   35.8740   29.8086   31.6818 H   0  0  0  0  0  0  0  0  0  0  0  0
   37.4764   29.4504   32.4543 H   0  0  0  0  0  0  0  0  0  0  0  0
   35.5518   27.6053   31.0875 H   0  0  0  0  0  0  0  0  0  0  0  0
   37.3232   27.8711   30.8164 H   0  0  0  0  0  0  0  0  0  0  0  0
   35.9864   26.1187   32.9374 H   0  0  0  0  0  0  0  0  0  0  0  0
   39.0310   27.0479   30.9001 H   0  0  0  0  0  0  0  0  0  0  0  0
   35.6520   21.5568   32.2487 H   0  0  0  0  0  0  0  0  0  0  0  0
   39.2855   21.0303   29.2067 H   0  0  0  0  0  0  0  0  0  0  0  0
   39.9645   22.6742   29.0681 H   0  0  0  0  0  0  0  0  0  0  0  0
   38.6273   25.4179   33.9013 H   0  0  0  0  0  0  0  0  0  0  0  0
   39.2064   26.8322   34.9059 H   0  0  0  0  0  0  0  0  0  0  0  0
   37.3998   26.6137   36.3812 H   0  0  0  0  0  0  0  0  0  0  0  0
   36.6651   25.3148   35.3342 H   0  0  0  0  0  0  0  0  0  0  0  0
   37.1553   24.7813   38.2879 H   0  0  0  0  0  0  0  0  0  0  0  0
   39.7026   24.4161   34.7955 H   0  0  0  0  0  0  0  0  0  0  0  0
   40.3329   22.0183   38.2707 H   0  0  0  0  0  0  0  0  0  0  0  0
  1 17  1  0
  1  2  1  0
  3  2  1  0
  4  3  1  0
  5  4  1  0
  5  6  1  0
  6  1  1  0
  7  6  1  0
  8  7  1  0
  9 10  1  0
  9  8  2  0
 10 15  2  0
 11 10  1  0
 11 12  2  0
 12 13  1  0
 13 14  2  0
 15  7  1  0
 15 14  1  0
 16 11  1  0
 17 18  1  0
 18 20  1  0
 19 24  2  0
 20 19  1  0
 21 20  2  0
 21 22  1  0
 22 23  2  0
 23 24  1  0
  1 25  1  6
  2 26  1  0
  2 27  1  0
  3 28  1  0
  3 29  1  0
  4 30  1  0
  4 31  1  0
  5 32  1  0
  5 33  1  0
  6 34  1  1
  8 35  1  0
 13 36  1  0
 16 37  1  0
 16 38  1  0
 17 39  1  0
 17 40  1  0
 18 41  1  0
 18 42  1  0
 19 43  1  0
 21 44  1  0
 23 45  1  0
M  ISO  8  25  13  26  13  27  13  28  13  29  13  30  13  31  13  32  13
M  ISO  8  33  13  34  13  35  14  36  14  39   8  40   8  41   8  42   8
M  ISO  3  43  14  44  14  45  14
M  END
>  <minimizedAffinity>  (1) 
-5.43471146

>  <minimizedRMSD>  (1) 
1.40572667

$$$$
