
     RDKit          3D

 40 42  0  0  1  0  0  0  0  0999 V2000
   37.4210   27.0940   33.6290 C   0  0  2  0  0  0  0  0  0  0  0  0
   36.6350   28.0110   34.5300 C   0  0  0  0  0  0  0  0  0  0  0  0
   35.8900   29.0150   33.6960 C   0  0  0  0  0  0  0  0  0  0  0  0
   36.3390   28.9890   32.2580 C   0  0  0  0  0  0  0  0  0  0  0  0
   36.1190   27.6350   31.6410 C   0  0  0  0  0  0  0  0  0  0  0  0
   36.5250   26.5380   32.5840 C   0  0  1  0  0  0  0  0  0  0  0  0
   37.2090   25.5630   31.6910 C   0  0  0  0  0  0  0  0  0  0  0  0
   36.6980   24.2730   31.6110 C   0  0  0  0  0  0  0  0  0  0  0  0
   37.3290   23.3640   30.7870 C   0  0  0  0  0  0  0  0  0  0  0  0
   38.4180   23.6810   30.0600 N   0  0  0  0  0  0  0  0  0  0  0  0
   38.8910   24.9530   30.1630 C   0  0  0  0  0  0  0  0  0  0  0  0
   38.3130   25.9000   30.9600 N   0  0  0  0  0  0  0  0  0  0  0  0
   38.1780   26.0560   34.4040 C   0  0  0  0  0  0  0  0  0  0  0  0
   37.5960   25.7530   35.7310 C   0  0  0  0  0  0  0  0  0  0  0  0
   38.0110   24.2990   37.7910 C   0  0  0  0  0  0  0  0  0  0  0  0
   38.3200   24.7210   36.4840 C   0  0  0  0  0  0  0  0  0  0  0  0
   39.3970   24.1220   35.8330 C   0  0  0  0  0  0  0  0  0  0  0  0
   40.1080   23.1460   36.4950 N   0  0  0  0  0  0  0  0  0  0  0  0
   39.7660   22.7810   37.7510 C   0  0  0  0  0  0  0  0  0  0  0  0
   38.7300   23.3560   38.3810 N   0  0  0  0  0  0  0  0  0  0  0  0
   38.2024   27.6704   33.1121 H   0  0  0  0  0  0  0  0  0  0  0  0
   35.9185   27.4202   35.1195 H   0  0  0  0  0  0  0  0  0  0  0  0
   37.3230   28.5364   35.2087 H   0  0  0  0  0  0  0  0  0  0  0  0
   34.8150   28.7855   33.7379 H   0  0  0  0  0  0  0  0  0  0  0  0
   36.0957   30.0168   34.1010 H   0  0  0  0  0  0  0  0  0  0  0  0
   35.7676   29.7384   31.6906 H   0  0  0  0  0  0  0  0  0  0  0  0
   37.4152   29.2142   32.2263 H   0  0  0  0  0  0  0  0  0  0  0  0
   35.0528   27.5212   31.3953 H   0  0  0  0  0  0  0  0  0  0  0  0
   36.7353   27.5608   30.7329 H   0  0  0  0  0  0  0  0  0  0  0  0
   35.6953   26.0674   33.1319 H   0  0  0  0  0  0  0  0  0  0  0  0
   35.8100   23.9831   32.1919 H   0  0  0  0  0  0  0  0  0  0  0  0
   36.9278   22.3419   30.7211 H   0  0  0  0  0  0  0  0  0  0  0  0
   39.7797   25.2313   29.5775 H   0  0  0  0  0  0  0  0  0  0  0  0
   38.1955   25.1279   33.8138 H   0  0  0  0  0  0  0  0  0  0  0  0
   39.1842   26.4629   34.5828 H   0  0  0  0  0  0  0  0  0  0  0  0
   37.5950   26.6778   36.3266 H   0  0  0  0  0  0  0  0  0  0  0  0
   36.5840   25.3614   35.5505 H   0  0  0  0  0  0  0  0  0  0  0  0
   37.1658   24.7560   38.3265 H   0  0  0  0  0  0  0  0  0  0  0  0
   39.6733   24.4226   34.8116 H   0  0  0  0  0  0  0  0  0  0  0  0
   40.3462   22.0003   38.2647 H   0  0  0  0  0  0  0  0  0  0  0  0
  1 13  1  0
  1  2  1  0
  3  2  1  0
  4  3  1  0
  5  4  1  0
  5  6  1  0
  6  1  1  0
  7  6  1  0
  8  7  2  0
  9  8  1  0
 10 11  1  0
 10  9  2  0
 11 12  2  0
 12  7  1  0
 13 14  1  0
 14 16  1  0
 15 20  2  0
 16 15  1  0
 17 16  2  0
 17 18  1  0
 18 19  2  0
 19 20  1  0
  1 21  1  6
  2 22  1  0
  2 23  1  0
  3 24  1  0
  3 25  1  0
  4 26  1  0
  4 27  1  0
  5 28  1  0
  5 29  1  0
  6 30  1  1
  8 31  1  0
  9 32  1  0
 11 33  1  0
 13 34  1  0
 13 35  1  0
 14 36  1  0
 14 37  1  0
 15 38  1  0
 17 39  1  0
 19 40  1  0
M  ISO  8  21  13  22  13  23  13  24  13  25  13  26  13  27  13  28  13
M  ISO  8  29  13  30  13  31  14  32  14  33  14  34   8  35   8  36   8
M  ISO  4  37   8  38  14  39  14  40  14
M  END
>  <minimizedAffinity>  (1) 
-4.96906948

>  <minimizedRMSD>  (1) 
1.47329676

$$$$
