
     RDKit          3D

 46 48  0  0  1  0  0  0  0  0999 V2000
   37.5500   27.1390   33.6940 C   0  0  2  0  0  0  0  0  0  0  0  0
   36.5860   27.9620   34.5300 C   0  0  0  0  0  0  0  0  0  0  0  0
   36.0220   28.9610   33.5880 C   0  0  0  0  0  0  0  0  0  0  0  0
   35.8220   28.5240   32.2220 C   0  0  0  0  0  0  0  0  0  0  0  0
   36.6360   27.4890   31.5830 C   0  0  0  0  0  0  0  0  0  0  0  0
   36.8010   26.4110   32.6550 C   0  0  1  0  0  0  0  0  0  0  0  0
   37.3750   25.2310   32.0800 N   0  0  0  0  0  0  0  0  0  0  0  0
   38.2140   25.4160   30.9450 C   0  0  0  0  0  0  0  0  0  0  0  0
   38.4870   24.1890   30.1450 C   0  0  0  0  0  0  0  0  0  0  0  0
   38.1390   22.9890   30.9250 N   0  0  0  0  0  0  0  0  0  0  0  0
   36.6880   23.0910   31.0570 C   0  0  0  0  0  0  0  0  0  0  0  0
   36.3470   24.2460   31.9320 C   0  0  0  0  0  0  0  0  0  0  0  0
   38.3720   26.2900   34.6250 C   0  0  0  0  0  0  0  0  0  0  0  0
   37.6250   25.7350   35.7760 C   0  0  0  0  0  0  0  0  0  0  0  0
   38.0410   24.2690   37.8340 C   0  0  0  0  0  0  0  0  0  0  0  0
   38.3540   24.6920   36.5140 C   0  0  0  0  0  0  0  0  0  0  0  0
   39.4240   24.0990   35.8610 C   0  0  0  0  0  0  0  0  0  0  0  0
   40.1350   23.1270   36.5260 N   0  0  0  0  0  0  0  0  0  0  0  0
   39.7910   22.7620   37.7860 C   0  0  0  0  0  0  0  0  0  0  0  0
   38.7700   23.3240   38.4130 N   0  0  0  0  0  0  0  0  0  0  0  0
   38.2670   27.7594   33.1364 H   0  0  0  0  0  0  0  0  0  0  0  0
   35.7893   27.3250   34.9416 H   0  0  0  0  0  0  0  0  0  0  0  0
   37.0831   28.4366   35.3889 H   0  0  0  0  0  0  0  0  0  0  0  0
   35.0457   29.2782   33.9832 H   0  0  0  0  0  0  0  0  0  0  0  0
   36.7746   29.7611   33.5291 H   0  0  0  0  0  0  0  0  0  0  0  0
   34.7830   28.1666   32.1685 H   0  0  0  0  0  0  0  0  0  0  0  0
   36.1286   29.4189   31.6606 H   0  0  0  0  0  0  0  0  0  0  0  0
   36.1230   27.0822   30.6990 H   0  0  0  0  0  0  0  0  0  0  0  0
   37.6027   27.8775   31.2300 H   0  0  0  0  0  0  0  0  0  0  0  0
   35.8923   25.9852   33.1054 H   0  0  0  0  0  0  0  0  0  0  0  0
   37.7331   26.1521   30.2839 H   0  0  0  0  0  0  0  0  0  0  0  0
   39.1875   25.7442   31.3381 H   0  0  0  0  0  0  0  0  0  0  0  0
   39.5548   24.1556   29.8828 H   0  0  0  0  0  0  0  0  0  0  0  0
   37.8776   24.2128   29.2295 H   0  0  0  0  0  0  0  0  0  0  0  0
   38.4053   22.1306   30.4219 H   0  0  0  0  0  0  0  0  0  0  0  0
   36.2394   23.2391   30.0636 H   0  0  0  0  0  0  0  0  0  0  0  0
   36.2955   22.1655   31.5036 H   0  0  0  0  0  0  0  0  0  0  0  0
   35.4609   24.7418   31.5090 H   0  0  0  0  0  0  0  0  0  0  0  0
   36.1834   23.8268   32.9357 H   0  0  0  0  0  0  0  0  0  0  0  0
   38.7859   25.4501   34.0477 H   0  0  0  0  0  0  0  0  0  0  0  0
   39.1463   26.9488   35.0450 H   0  0  0  0  0  0  0  0  0  0  0  0
   37.3992   26.5572   36.4710 H   0  0  0  0  0  0  0  0  0  0  0  0
   36.7180   25.2634   35.3699 H   0  0  0  0  0  0  0  0  0  0  0  0
   37.1972   24.7236   38.3738 H   0  0  0  0  0  0  0  0  0  0  0  0
   39.6971   24.3979   34.8382 H   0  0  0  0  0  0  0  0  0  0  0  0
   40.3733   21.9818   38.2980 H   0  0  0  0  0  0  0  0  0  0  0  0
  1  2  1  0
  1 13  1  0
  3  2  1  0
  4  3  1  0
  5  4  1  0
  5  6  1  0
  6  1  1  0
  7  6  1  0
  8  7  1  0
  9 10  1  0
  9  8  1  0
 10 11  1  0
 11 12  1  0
 12  7  1  0
 13 14  1  0
 14 16  1  0
 15 20  2  0
 16 15  1  0
 17 16  2  0
 17 18  1  0
 18 19  2  0
 19 20  1  0
  1 21  1  6
  2 22  1  0
  2 23  1  0
  3 24  1  0
  3 25  1  0
  4 26  1  0
  4 27  1  0
  5 28  1  0
  5 29  1  0
  6 30  1  1
  8 31  1  0
  8 32  1  0
  9 33  1  0
  9 34  1  0
 10 35  1  0
 11 36  1  0
 11 37  1  0
 12 38  1  0
 12 39  1  0
 13 40  1  0
 13 41  1  0
 14 42  1  0
 14 43  1  0
 15 44  1  0
 17 45  1  0
 19 46  1  0
M  ISO  8  21  13  22  13  23  13  24  13  25  13  26  13  27  13  28  13
M  ISO  8  29  13  30  13  31  13  32  13  33  13  34  13  35   5  36  13
M  ISO  8  37  13  38  13  39  13  40   8  41   8  42   8  43   8  44  14
M  ISO  2  45  14  46  14
M  END
>  <minimizedAffinity>  (1) 
-4.96241522

>  <minimizedRMSD>  (1) 
0.896643817

$$$$
