
     RDKit          3D

 44 46  0  0  1  0  0  0  0  0999 V2000
   37.7060   27.2740   33.9380 C   0  0  2  0  0  0  0  0  0  0  0  0
   36.5940   28.1170   34.5120 C   0  0  0  0  0  0  0  0  0  0  0  0
   35.8270   28.7790   33.3930 C   0  0  0  0  0  0  0  0  0  0  0  0
   36.5760   28.6470   32.0750 C   0  0  0  0  0  0  0  0  0  0  0  0
   36.7910   27.2180   31.6830 C   0  0  0  0  0  0  0  0  0  0  0  0
   37.1430   26.3850   32.8830 C   0  0  1  0  0  0  0  0  0  0  0  0
   38.0400   25.3040   32.5070 N   0  0  0  0  0  0  0  0  0  0  0  0
   38.4200   25.3740   31.1180 C   0  0  0  0  0  0  0  0  0  0  0  0
   37.7860   24.2070   30.4090 C   0  0  0  0  0  0  0  0  0  0  0  0
   36.9500   23.4870   31.4510 C   0  0  0  0  0  0  0  0  0  0  0  0
   37.4130   24.0500   32.7650 C   0  0  0  0  0  0  0  0  0  0  0  0
   38.5100   26.5560   34.9770 C   0  0  0  0  0  0  0  0  0  0  0  0
   37.6620   25.8270   35.9740 C   0  0  0  0  0  0  0  0  0  0  0  0
   38.0870   24.2570   37.9540 C   0  0  0  0  0  0  0  0  0  0  0  0
   38.3640   24.7360   36.6600 C   0  0  0  0  0  0  0  0  0  0  0  0
   39.3960   24.1390   35.9580 C   0  0  0  0  0  0  0  0  0  0  0  0
   40.1070   23.1090   36.5470 N   0  0  0  0  0  0  0  0  0  0  0  0
   39.7820   22.6990   37.7990 C   0  0  0  0  0  0  0  0  0  0  0  0
   38.7960   23.2640   38.4760 N   0  0  0  0  0  0  0  0  0  0  0  0
   38.4469   27.9376   33.4682 H   0  0  0  0  0  0  0  0  0  0  0  0
   35.9134   27.4776   35.0933 H   0  0  0  0  0  0  0  0  0  0  0  0
   37.0237   28.8902   35.1659 H   0  0  0  0  0  0  0  0  0  0  0  0
   34.8416   28.2995   33.2978 H   0  0  0  0  0  0  0  0  0  0  0  0
   35.7108   29.8473   33.6280 H   0  0  0  0  0  0  0  0  0  0  0  0
   35.9942   29.1463   31.2862 H   0  0  0  0  0  0  0  0  0  0  0  0
   37.5643   29.1130   32.2020 H   0  0  0  0  0  0  0  0  0  0  0  0
   35.8692   26.8256   31.2289 H   0  0  0  0  0  0  0  0  0  0  0  0
   37.6215   27.1699   30.9633 H   0  0  0  0  0  0  0  0  0  0  0  0
   36.2443   25.9033   33.2957 H   0  0  0  0  0  0  0  0  0  0  0  0
   38.0630   26.3174   30.6793 H   0  0  0  0  0  0  0  0  0  0  0  0
   39.5147   25.3372   31.0164 H   0  0  0  0  0  0  0  0  0  0  0  0
   37.1483   24.5609   29.5856 H   0  0  0  0  0  0  0  0  0  0  0  0
   38.5447   23.5414   29.9717 H   0  0  0  0  0  0  0  0  0  0  0  0
   35.8797   23.6894   31.2975 H   0  0  0  0  0  0  0  0  0  0  0  0
   37.0705   22.3948   31.3999 H   0  0  0  0  0  0  0  0  0  0  0  0
   38.1318   23.3620   33.2340 H   0  0  0  0  0  0  0  0  0  0  0  0
   36.5606   24.1807   33.4479 H   0  0  0  0  0  0  0  0  0  0  0  0
   39.1630   25.8279   34.4735 H   0  0  0  0  0  0  0  0  0  0  0  0
   39.0869   27.3135   35.5277 H   0  0  0  0  0  0  0  0  0  0  0  0
   37.3177   26.5479   36.7301 H   0  0  0  0  0  0  0  0  0  0  0  0
   36.8292   25.3731   35.4168 H   0  0  0  0  0  0  0  0  0  0  0  0
   37.2737   24.7108   38.5393 H   0  0  0  0  0  0  0  0  0  0  0  0
   39.6482   24.4796   34.9429 H   0  0  0  0  0  0  0  0  0  0  0  0
   40.3510   21.8788   38.2611 H   0  0  0  0  0  0  0  0  0  0  0  0
  1  2  1  0
  1 12  1  0
  3  2  1  0
  4  3  1  0
  5  4  1  0
  5  6  1  0
  6  1  1  0
  7  8  1  0
  7 11  1  0
  7  6  1  0
  9  8  1  0
  9 10  1  0
 10 11  1  0
 12 13  1  0
 13 15  1  0
 14 19  2  0
 15 14  1  0
 16 17  1  0
 16 15  2  0
 17 18  2  0
 18 19  1  0
  1 20  1  6
  2 21  1  0
  2 22  1  0
  3 23  1  0
  3 24  1  0
  4 25  1  0
  4 26  1  0
  5 27  1  0
  5 28  1  0
  6 29  1  1
  8 30  1  0
  8 31  1  0
  9 32  1  0
  9 33  1  0
 10 34  1  0
 10 35  1  0
 11 36  1  0
 11 37  1  0
 12 38  1  0
 12 39  1  0
 13 40  1  0
 13 41  1  0
 14 42  1  0
 16 43  1  0
 18 44  1  0
M  ISO  8  20  13  21  13  22  13  23  13  24  13  25  13  26  13  27  13
M  ISO  8  28  13  29  13  30  13  31  13  32  13  33  13  34  13  35  13
M  ISO  8  36  13  37  13  38   8  39   8  40   8  41   8  42  14  43  14
M  ISO  1  44  14
M  END
>  <minimizedAffinity>  (1) 
-4.83262014

>  <minimizedRMSD>  (1) 
1.61665511

$$$$
