
     RDKit          3D

 35 36  0  0  1  0  0  0  0  0999 V2000
   37.4890   27.0810   33.6490 C   0  0  2  0  0  0  0  0  0  0  0  0
   36.6690   28.0660   34.4470 C   0  0  0  0  0  0  0  0  0  0  0  0
   35.8650   28.9250   33.5020 C   0  0  0  0  0  0  0  0  0  0  0  0
   36.3550   28.7810   32.0750 C   0  0  0  0  0  0  0  0  0  0  0  0
   36.3440   27.3920   31.5670 C   0  0  0  0  0  0  0  0  0  0  0  0
   36.6490   26.3920   32.6870 C   0  0  1  0  0  0  0  0  0  0  0  0
   37.0360   25.1720   31.9570 C   0  0  0  0  0  0  0  0  0  0  0  0
   38.2580   25.2420   31.3290 F   0  0  0  0  0  0  0  0  0  0  0  0
   36.7230   23.9640   32.5180 F   0  0  0  0  0  0  0  0  0  0  0  0
   36.1850   25.0830   30.7710 F   0  0  0  0  0  0  0  0  0  0  0  0
   38.3400   26.2680   34.5770 C   0  0  0  0  0  0  0  0  0  0  0  0
   37.5930   25.7120   35.7150 C   0  0  0  0  0  0  0  0  0  0  0  0
   38.0280   24.2940   37.7870 C   0  0  0  0  0  0  0  0  0  0  0  0
   38.3660   24.6850   36.4750 C   0  0  0  0  0  0  0  0  0  0  0  0
   39.4450   24.0680   35.8650 C   0  0  0  0  0  0  0  0  0  0  0  0
   40.1330   23.1080   36.5570 N   0  0  0  0  0  0  0  0  0  0  0  0
   39.7740   22.7700   37.7980 C   0  0  0  0  0  0  0  0  0  0  0  0
   38.7310   23.3590   38.4050 N   0  0  0  0  0  0  0  0  0  0  0  0
   38.2309   27.5694   33.0000 H   0  0  0  0  0  0  0  0  0  0  0  0
   35.9884   27.5202   35.1170 H   0  0  0  0  0  0  0  0  0  0  0  0
   37.3370   28.7022   35.0462 H   0  0  0  0  0  0  0  0  0  0  0  0
   34.8092   28.6201   33.5508 H   0  0  0  0  0  0  0  0  0  0  0  0
   35.9808   29.9762   33.8045 H   0  0  0  0  0  0  0  0  0  0  0  0
   35.7097   29.3909   31.4256 H   0  0  0  0  0  0  0  0  0  0  0  0
   37.4039   29.1123   32.0662 H   0  0  0  0  0  0  0  0  0  0  0  0
   35.3512   27.1706   31.1483 H   0  0  0  0  0  0  0  0  0  0  0  0
   37.1201   27.2971   30.7933 H   0  0  0  0  0  0  0  0  0  0  0  0
   35.8686   26.0282   33.3715 H   0  0  0  0  0  0  0  0  0  0  0  0
   38.7799   25.4357   34.0081 H   0  0  0  0  0  0  0  0  0  0  0  0
   39.1072   26.9404   34.9884 H   0  0  0  0  0  0  0  0  0  0  0  0
   37.3344   26.5334   36.3994 H   0  0  0  0  0  0  0  0  0  0  0  0
   36.6978   25.2170   35.3105 H   0  0  0  0  0  0  0  0  0  0  0  0
   37.1771   24.7679   38.2983 H   0  0  0  0  0  0  0  0  0  0  0  0
   39.7439   24.3442   34.8430 H   0  0  0  0  0  0  0  0  0  0  0  0
   40.3429   21.9951   38.3327 H   0  0  0  0  0  0  0  0  0  0  0  0
  1  2  1  0
  1 11  1  0
  3  2  1  0
  4  3  1  0
  5  4  1  0
  5  6  1  0
  6  1  1  0
  7  9  1  0
  7  6  1  0
  8  7  1  0
 10  7  1  0
 11 12  1  0
 12 14  1  0
 13 18  2  0
 14 13  1  0
 15 14  2  0
 15 16  1  0
 16 17  2  0
 17 18  1  0
  1 19  1  6
  2 20  1  0
  2 21  1  0
  3 22  1  0
  3 23  1  0
  4 24  1  0
  4 25  1  0
  5 26  1  0
  5 27  1  0
  6 28  1  1
 11 29  1  0
 11 30  1  0
 12 31  1  0
 12 32  1  0
 13 33  1  0
 15 34  1  0
 17 35  1  0
M  ISO  8  19  13  20  13  21  13  22  13  23  13  24  13  25  13  26  13
M  ISO  8  27  13  28  13  29   8  30   8  31   8  32   8  33  14  34  14
M  ISO  1  35  14
M  END
>  <minimizedAffinity>  (1) 
-4.64217567

>  <minimizedRMSD>  (1) 
0.832404375

$$$$
