
     RDKit          3D

 41 42  0  0  1  0  0  0  0  0999 V2000
   37.5370   27.1610   33.7650 C   0  0  2  0  0  0  0  0  0  0  0  0
   36.7090   28.1220   34.5700 C   0  0  0  0  0  0  0  0  0  0  0  0
   35.8830   28.9780   33.6480 C   0  0  0  0  0  0  0  0  0  0  0  0
   36.4000   28.8670   32.2190 C   0  0  0  0  0  0  0  0  0  0  0  0
   36.3410   27.4620   31.7010 C   0  0  0  0  0  0  0  0  0  0  0  0
   36.6790   26.4700   32.7960 C   0  0  1  0  0  0  0  0  0  0  0  0
   38.3660   26.3060   34.6790 C   0  0  0  0  0  0  0  0  0  0  0  0
   37.6220   25.7080   35.8010 C   0  0  0  0  0  0  0  0  0  0  0  0
   38.0710   24.2430   37.8330 C   0  0  0  0  0  0  0  0  0  0  0  0
   38.3770   24.6690   36.5270 C   0  0  0  0  0  0  0  0  0  0  0  0
   39.4540   24.0820   35.8750 C   0  0  0  0  0  0  0  0  0  0  0  0
   40.1810   23.1090   36.5250 N   0  0  0  0  0  0  0  0  0  0  0  0
   39.8430   22.7350   37.7830 C   0  0  0  0  0  0  0  0  0  0  0  0
   38.8110   23.2940   38.4150 N   0  0  0  0  0  0  0  0  0  0  0  0
   37.1660   25.2800   32.0730 C   0  0  0  0  0  0  0  0  0  0  0  0
   38.0460   25.6540   30.9040 C   0  0  0  0  0  0  0  0  0  0  0  0
   35.9030   24.6690   31.4330 C   0  0  0  0  0  0  0  0  0  0  0  0
   38.2855   27.6750   33.1441 H   0  0  0  0  0  0  0  0  0  0  0  0
   36.0429   27.5583   35.2398 H   0  0  0  0  0  0  0  0  0  0  0  0
   37.3741   28.7652   35.1649 H   0  0  0  0  0  0  0  0  0  0  0  0
   34.8359   28.6426   33.6822 H   0  0  0  0  0  0  0  0  0  0  0  0
   35.9536   30.0263   33.9738 H   0  0  0  0  0  0  0  0  0  0  0  0
   35.7868   29.5095   31.5700 H   0  0  0  0  0  0  0  0  0  0  0  0
   37.4537   29.1829   32.2166 H   0  0  0  0  0  0  0  0  0  0  0  0
   35.3262   27.2570   31.3293 H   0  0  0  0  0  0  0  0  0  0  0  0
   37.0752   27.3545   30.8889 H   0  0  0  0  0  0  0  0  0  0  0  0
   35.8700   26.0973   33.4415 H   0  0  0  0  0  0  0  0  0  0  0  0
   38.8030   25.4907   34.0837 H   0  0  0  0  0  0  0  0  0  0  0  0
   39.1229   26.9683   35.1244 H   0  0  0  0  0  0  0  0  0  0  0  0
   37.3616   26.5074   36.5103 H   0  0  0  0  0  0  0  0  0  0  0  0
   36.7336   25.2200   35.3737 H   0  0  0  0  0  0  0  0  0  0  0  0
   37.2241   24.6903   38.3740 H   0  0  0  0  0  0  0  0  0  0  0  0
   39.7227   24.3899   34.8537 H   0  0  0  0  0  0  0  0  0  0  0  0
   40.4306   21.9564   38.2915 H   0  0  0  0  0  0  0  0  0  0  0  0
   37.7250   24.6305   32.7627 H   0  0  0  0  0  0  0  0  0  0  0  0
   38.9985   26.0588   31.2768 H   0  0  0  0  0  0  0  0  0  0  0  0
   38.2416   24.7612   30.2919 H   0  0  0  0  0  0  0  0  0  0  0  0
   37.5390   26.4144   30.2919 H   0  0  0  0  0  0  0  0  0  0  0  0
   35.2152   24.3363   32.2244 H   0  0  0  0  0  0  0  0  0  0  0  0
   35.4053   25.4259   30.8090 H   0  0  0  0  0  0  0  0  0  0  0  0
   36.1876   23.8089   30.8090 H   0  0  0  0  0  0  0  0  0  0  0  0
  1  2  1  0
  1  7  1  0
  3  2  1  0
  4  3  1  0
  5  4  1  0
  5  6  1  0
  6  1  1  0
  7  8  1  0
  8 10  1  0
  9 14  2  0
 10  9  1  0
 11 12  1  0
 11 10  2  0
 12 13  2  0
 13 14  1  0
 15  6  1  0
 16 15  1  0
 17 15  1  0
  1 18  1  6
  2 19  1  0
  2 20  1  0
  3 21  1  0
  3 22  1  0
  4 23  1  0
  4 24  1  0
  5 25  1  0
  5 26  1  0
  6 27  1  1
  7 28  1  0
  7 29  1  0
  8 30  1  0
  8 31  1  0
  9 32  1  0
 11 33  1  0
 13 34  1  0
 15 35  1  0
 16 36  1  0
 16 37  1  0
 16 38  1  0
 17 39  1  0
 17 40  1  0
 17 41  1  0
M  ISO  8  18  13  19  13  20  13  21  13  22  13  23  13  24  13  25  13
M  ISO  8  26  13  27  13  28   8  29   8  30   8  31   8  32  14  33  14
M  ISO  8  34  14  35   8  36   8  37   8  38   8  39   8  40   8  41   8
M  END
>  <minimizedAffinity>  (1) 
-4.5980072

>  <minimizedRMSD>  (1) 
0.957620561

$$$$
