
     RDKit          3D

 44 45  0  0  1  0  0  0  0  0999 V2000
   37.5120   27.0940   33.7380 C   0  0  2  0  0  0  0  0  0  0  0  0
   36.7010   28.0910   34.5520 C   0  0  0  0  0  0  0  0  0  0  0  0
   35.8250   28.9140   33.6720 C   0  0  0  0  0  0  0  0  0  0  0  0
   36.3780   28.8510   32.2580 C   0  0  0  0  0  0  0  0  0  0  0  0
   36.4180   27.4600   31.7210 C   0  0  0  0  0  0  0  0  0  0  0  0
   36.6980   26.4120   32.7930 C   0  0  1  0  0  0  0  0  0  0  0  0
   36.9350   25.2460   31.9470 C   0  0  0  0  0  0  0  0  0  0  0  0
   37.9720   25.6190   30.8840 C   0  0  0  0  0  0  0  0  0  0  0  0
   37.0650   23.8860   32.4950 C   0  0  0  0  0  0  0  0  0  0  0  0
   35.6640   25.0560   31.0350 C   0  0  0  0  0  0  0  0  0  0  0  0
   38.4130   26.3400   34.6850 C   0  0  0  0  0  0  0  0  0  0  0  0
   37.6710   25.6960   35.7610 C   0  0  0  0  0  0  0  0  0  0  0  0
   38.1170   24.2250   37.7900 C   0  0  0  0  0  0  0  0  0  0  0  0
   38.4340   24.6470   36.4850 C   0  0  0  0  0  0  0  0  0  0  0  0
   39.5080   24.0520   35.8580 C   0  0  0  0  0  0  0  0  0  0  0  0
   40.2240   23.0860   36.5030 N   0  0  0  0  0  0  0  0  0  0  0  0
   39.8820   22.7110   37.7620 C   0  0  0  0  0  0  0  0  0  0  0  0
   38.8380   23.2820   38.3860 N   0  0  0  0  0  0  0  0  0  0  0  0
   38.2274   27.5498   33.0377 H   0  0  0  0  0  0  0  0  0  0  0  0
   36.0747   27.5428   35.2712 H   0  0  0  0  0  0  0  0  0  0  0  0
   37.3968   28.7611   35.0781 H   0  0  0  0  0  0  0  0  0  0  0  0
   34.8000   28.5150   33.6890 H   0  0  0  0  0  0  0  0  0  0  0  0
   35.8030   29.9556   34.0251 H   0  0  0  0  0  0  0  0  0  0  0  0
   35.7414   29.4638   31.6028 H   0  0  0  0  0  0  0  0  0  0  0  0
   37.4111   29.2278   32.2864 H   0  0  0  0  0  0  0  0  0  0  0  0
   35.4459   27.2356   31.2577 H   0  0  0  0  0  0  0  0  0  0  0  0
   37.2419   27.4131   30.9937 H   0  0  0  0  0  0  0  0  0  0  0  0
   36.0287   25.9649   33.5427 H   0  0  0  0  0  0  0  0  0  0  0  0
   38.8978   25.9520   31.3759 H   0  0  0  0  0  0  0  0  0  0  0  0
   38.1856   24.7413   30.2562 H   0  0  0  0  0  0  0  0  0  0  0  0
   37.5776   26.4316   30.2562 H   0  0  0  0  0  0  0  0  0  0  0  0
   37.0606   23.9316   33.5940 H   0  0  0  0  0  0  0  0  0  0  0  0
   36.2217   23.2696   32.1502 H   0  0  0  0  0  0  0  0  0  0  0  0
   38.0098   23.4405   32.1502 H   0  0  0  0  0  0  0  0  0  0  0  0
   34.7747   24.9231   31.6686 H   0  0  0  0  0  0  0  0  0  0  0  0
   35.5323   25.9444   30.3999 H   0  0  0  0  0  0  0  0  0  0  0  0
   35.7979   24.1679   30.3999 H   0  0  0  0  0  0  0  0  0  0  0  0
   38.9551   25.5686   34.1184 H   0  0  0  0  0  0  0  0  0  0  0  0
   39.1039   27.0648   35.1402 H   0  0  0  0  0  0  0  0  0  0  0  0
   37.3742   26.4685   36.4856 H   0  0  0  0  0  0  0  0  0  0  0  0
   36.8098   25.1950   35.2948 H   0  0  0  0  0  0  0  0  0  0  0  0
   37.2666   24.6792   38.3197 H   0  0  0  0  0  0  0  0  0  0  0  0
   39.7875   24.3558   34.8384 H   0  0  0  0  0  0  0  0  0  0  0  0
   40.4649   21.9325   38.2761 H   0  0  0  0  0  0  0  0  0  0  0  0
  1  2  1  0
  1 11  1  0
  3  2  1  0
  4  3  1  0
  5  4  1  0
  5  6  1  0
  6  1  1  0
  7  9  1  0
  7  6  1  0
  8  7  1  0
 10  7  1  0
 11 12  1  0
 12 14  1  0
 13 18  2  0
 14 13  1  0
 15 14  2  0
 15 16  1  0
 16 17  2  0
 17 18  1  0
  1 19  1  6
  2 20  1  0
  2 21  1  0
  3 22  1  0
  3 23  1  0
  4 24  1  0
  4 25  1  0
  5 26  1  0
  5 27  1  0
  6 28  1  1
  8 29  1  0
  8 30  1  0
  8 31  1  0
  9 32  1  0
  9 33  1  0
  9 34  1  0
 10 35  1  0
 10 36  1  0
 10 37  1  0
 11 38  1  0
 11 39  1  0
 12 40  1  0
 12 41  1  0
 13 42  1  0
 15 43  1  0
 17 44  1  0
M  ISO  8  19  13  20  13  21  13  22  13  23  13  24  13  25  13  26  13
M  ISO  8  27  13  28  13  29   8  30   8  31   8  32   8  33   8  34   8
M  ISO  8  35   8  36   8  37   8  38   8  39   8  40   8  41   8  42  14
M  ISO  2  43  14  44  14
M  END
>  <minimizedAffinity>  (1) 
-4.81275749

>  <minimizedRMSD>  (1) 
0.655011177

$$$$
