
     RDKit          3D

 35 36  0  0  1  0  0  0  0  0999 V2000
   37.7180   27.3520   33.9480 C   0  0  2  0  0  0  0  0  0  0  0  0
   36.5230   28.0930   34.4960 C   0  0  0  0  0  0  0  0  0  0  0  0
   35.8260   28.8160   33.3750 C   0  0  0  0  0  0  0  0  0  0  0  0
   36.6290   28.7930   32.1030 C   0  0  0  0  0  0  0  0  0  0  0  0
   37.0030   27.4320   31.6350 C   0  0  0  0  0  0  0  0  0  0  0  0
   37.2810   26.5110   32.8030 C   0  0  1  0  0  0  0  0  0  0  0  0
   38.4730   26.6400   35.0290 C   0  0  0  0  0  0  0  0  0  0  0  0
   37.6380   25.7690   35.8660 C   0  0  0  0  0  0  0  0  0  0  0  0
   38.0640   24.2690   37.8860 C   0  0  0  0  0  0  0  0  0  0  0  0
   38.3640   24.7140   36.5840 C   0  0  0  0  0  0  0  0  0  0  0  0
   39.4120   24.1120   35.9100 C   0  0  0  0  0  0  0  0  0  0  0  0
   40.1140   23.1110   36.5390 N   0  0  0  0  0  0  0  0  0  0  0  0
   39.7950   22.7200   37.7760 C   0  0  0  0  0  0  0  0  0  0  0  0
   38.7790   23.2960   38.4400 N   0  0  0  0  0  0  0  0  0  0  0  0
   38.2510   25.4980   32.3040 C   0  0  0  0  0  0  0  0  0  0  0  0
   38.4623   28.0553   33.5462 H   0  0  0  0  0  0  0  0  0  0  0  0
   35.8280   27.3771   34.9591 H   0  0  0  0  0  0  0  0  0  0  0  0
   36.8562   28.8201   35.2512 H   0  0  0  0  0  0  0  0  0  0  0  0
   34.8551   28.3330   33.1906 H   0  0  0  0  0  0  0  0  0  0  0  0
   35.6977   29.8661   33.6764 H   0  0  0  0  0  0  0  0  0  0  0  0
   36.0357   29.2770   31.3132 H   0  0  0  0  0  0  0  0  0  0  0  0
   37.5704   29.3200   32.3175 H   0  0  0  0  0  0  0  0  0  0  0  0
   36.1764   27.0173   31.0394 H   0  0  0  0  0  0  0  0  0  0  0  0
   37.9164   27.5105   31.0272 H   0  0  0  0  0  0  0  0  0  0  0  0
   36.4156   25.9499   33.1855 H   0  0  0  0  0  0  0  0  0  0  0  0
   39.2525   26.0233   34.5579 H   0  0  0  0  0  0  0  0  0  0  0  0
   38.8882   27.4146   35.6906 H   0  0  0  0  0  0  0  0  0  0  0  0
   37.1276   26.3984   36.6099 H   0  0  0  0  0  0  0  0  0  0  0  0
   36.9483   25.2546   35.1806 H   0  0  0  0  0  0  0  0  0  0  0  0
   37.2357   24.7281   38.4456 H   0  0  0  0  0  0  0  0  0  0  0  0
   39.6783   24.4282   34.8906 H   0  0  0  0  0  0  0  0  0  0  0  0
   40.3716   21.9162   38.2570 H   0  0  0  0  0  0  0  0  0  0  0  0
   38.7303   24.9974   33.1582 H   0  0  0  0  0  0  0  0  0  0  0  0
   37.7210   24.7529   31.6925 H   0  0  0  0  0  0  0  0  0  0  0  0
   39.0184   25.9952   31.6925 H   0  0  0  0  0  0  0  0  0  0  0  0
  1  2  1  0
  1  7  1  0
  3  2  1  0
  4  3  1  0
  5  4  1  0
  5  6  1  0
  6  1  1  0
  7  8  1  0
  8 10  1  0
  9 14  2  0
 10  9  1  0
 11 12  1  0
 11 10  2  0
 12 13  2  0
 13 14  1  0
 15  6  1  0
  1 16  1  6
  2 17  1  0
  2 18  1  0
  3 19  1  0
  3 20  1  0
  4 21  1  0
  4 22  1  0
  5 23  1  0
  5 24  1  0
  6 25  1  1
  7 26  1  0
  7 27  1  0
  8 28  1  0
  8 29  1  0
  9 30  1  0
 11 31  1  0
 13 32  1  0
 15 33  1  0
 15 34  1  0
 15 35  1  0
M  ISO  8  16  13  17  13  18  13  19  13  20  13  21  13  22  13  23  13
M  ISO  8  24  13  25  13  26   8  27   8  28   8  29   8  30  14  31  14
M  ISO  4  32  14  33   8  34   8  35   8
M  END
>  <minimizedAffinity>  (1) 
-4.34599257

>  <minimizedRMSD>  (1) 
0.236193299

$$$$
