
     RDKit          3D

 34 35  0  0  1  0  0  0  0  0999 V2000
   38.0170   27.2730   33.8390 C   0  0  2  0  0  0  0  0  0  0  0  0
   36.6310   27.8400   33.9730 C   0  0  0  0  0  0  0  0  0  0  0  0
   36.2030   28.3620   32.6220 C   0  0  0  0  0  0  0  0  0  0  0  0
   37.3500   28.3810   31.6240 C   0  0  0  0  0  0  0  0  0  0  0  0
   38.0330   27.0810   31.4340 C   0  0  0  0  0  0  0  0  0  0  0  0
   38.0610   26.2890   32.7260 C   0  0  2  0  0  0  0  0  0  0  0  0
   38.5910   26.7810   35.1370 C   0  0  0  0  0  0  0  0  0  0  0  0
   37.7060   25.8820   35.8720 C   0  0  0  0  0  0  0  0  0  0  0  0
   38.0720   24.3370   37.8720 C   0  0  0  0  0  0  0  0  0  0  0  0
   38.3910   24.7840   36.5720 C   0  0  0  0  0  0  0  0  0  0  0  0
   39.4260   24.1340   35.8980 C   0  0  0  0  0  0  0  0  0  0  0  0
   40.0730   23.1010   36.5350 N   0  0  0  0  0  0  0  0  0  0  0  0
   39.7270   22.7220   37.7660 C   0  0  0  0  0  0  0  0  0  0  0  0
   38.7410   23.3290   38.4280 N   0  0  0  0  0  0  0  0  0  0  0  0
   36.9360   25.3850   32.6420 N   0  0  0  0  0  0  0  0  0  0  0  0
   38.6989   28.0917   33.5658 H   0  0  0  0  0  0  0  0  0  0  0  0
   35.9373   27.0536   34.3054 H   0  0  0  0  0  0  0  0  0  0  0  0
   36.6224   28.6523   34.7147 H   0  0  0  0  0  0  0  0  0  0  0  0
   35.4030   27.7167   32.2301 H   0  0  0  0  0  0  0  0  0  0  0  0
   35.8537   29.3966   32.7548 H   0  0  0  0  0  0  0  0  0  0  0  0
   36.9508   28.7026   30.6508 H   0  0  0  0  0  0  0  0  0  0  0  0
   38.1043   29.0686   32.0341 H   0  0  0  0  0  0  0  0  0  0  0  0
   37.4968   26.5014   30.6681 H   0  0  0  0  0  0  0  0  0  0  0  0
   39.0689   27.2720   31.1172 H   0  0  0  0  0  0  0  0  0  0  0  0
   38.9602   25.6804   32.9019 H   0  0  0  0  0  0  0  0  0  0  0  0
   39.5271   26.2453   34.9208 H   0  0  0  0  0  0  0  0  0  0  0  0
   38.7476   27.6651   35.7725 H   0  0  0  0  0  0  0  0  0  0  0  0
   37.1575   26.4753   36.6185 H   0  0  0  0  0  0  0  0  0  0  0  0
   37.0485   25.4130   35.1252 H   0  0  0  0  0  0  0  0  0  0  0  0
   37.2618   24.8267   38.4321 H   0  0  0  0  0  0  0  0  0  0  0  0
   39.7170   24.4404   34.8824 H   0  0  0  0  0  0  0  0  0  0  0  0
   40.2660   21.8915   38.2453 H   0  0  0  0  0  0  0  0  0  0  0  0
   36.6248   25.1350   33.5915 H   0  0  0  0  0  0  0  0  0  0  0  0
   36.1640   25.8435   32.1373 H   0  0  0  0  0  0  0  0  0  0  0  0
  1  2  1  0
  1  7  1  0
  3  2  1  0
  4  3  1  0
  5  4  1  0
  5  6  1  0
  6  1  1  0
  7  8  1  0
  8 10  1  0
  9 14  2  0
 10  9  1  0
 11 12  1  0
 11 10  2  0
 12 13  2  0
 13 14  1  0
 15  6  1  0
  1 16  1  6
  2 17  1  0
  2 18  1  0
  3 19  1  0
  3 20  1  0
  4 21  1  0
  4 22  1  0
  5 23  1  0
  5 24  1  0
  6 25  1  1
  7 26  1  0
  7 27  1  0
  8 28  1  0
  8 29  1  0
  9 30  1  0
 11 31  1  0
 13 32  1  0
 15 33  1  0
 15 34  1  0
M  ISO  8  16  13  17  13  18  13  19  13  20  13  21  13  22  13  23  13
M  ISO  8  24  13  25  13  26   8  27   8  28   8  29   8  30  14  31  14
M  ISO  3  32  14  33   5  34   5
M  END
>  <minimizedAffinity>  (1) 
-4.28848028

>  <minimizedRMSD>  (1) 
0.590050697

$$$$
