
     RDKit          3D

 38 40  0  0  1  0  0  0  0  0999 V2000
   36.2720   29.6780   32.2850 C   0  0  0  0  0  0  0  0  0  0  0  0
   37.0120   28.6400   31.7590 C   0  0  0  0  0  0  0  0  0  0  0  0
   37.2570   27.5410   32.5810 C   0  0  0  0  0  0  0  0  0  0  0  0
   36.7750   27.5000   33.8680 C   0  0  0  0  0  0  0  0  0  0  0  0
   36.0440   28.5260   34.3880 C   0  0  0  0  0  0  0  0  0  0  0  0
   35.7860   29.6250   33.5980 C   0  0  0  0  0  0  0  0  0  0  0  0
   37.1500   26.2460   34.5650 C   0  0  0  0  0  0  0  0  0  0  0  0
   38.5780   26.1850   34.9740 C   0  0  2  0  0  0  0  0  0  0  0  0
   40.4930   23.2490   36.0430 C   0  0  0  0  0  0  0  0  0  0  0  0
   39.6360   22.6280   37.0010 C   0  0  0  0  0  0  0  0  0  0  0  0
   38.3920   23.2370   37.2690 C   0  0  0  0  0  0  0  0  0  0  0  0
   38.1040   24.3870   36.5810 N   0  0  0  0  0  0  0  0  0  0  0  0
   38.9450   24.9440   35.6800 C   0  0  0  0  0  0  0  0  0  0  0  0
   40.1360   24.3910   35.4010 N   0  0  0  0  0  0  0  0  0  0  0  0
   38.8620   27.3640   35.9200 C   0  0  0  0  0  0  0  0  0  0  0  0
   35.9430   31.0740   31.2830 S   0  0  0  0  0  0  0  0  0  0  0  0
   36.4650   30.7510   29.8850 O   0  0  0  0  0  0  0  0  0  0  0  0
   36.6380   32.2800   31.7850 O   0  0  0  0  0  0  0  0  0  0  0  0
   34.2200   31.3710   31.1910 C   0  0  0  0  0  0  0  0  0  0  0  0
   33.1340   30.7190   31.6270 N   0  0  0  0  0  0  0  0  0  0  0  0
   32.0540   31.3670   31.2970 O   0  0  0  0  0  0  0  0  0  0  0  0
   32.3960   32.4610   30.6360 C   0  0  0  0  0  0  0  0  0  0  0  0
   33.7140   32.4510   30.5800 N   0  0  0  0  0  0  0  0  0  0  0  0
   31.6340   33.4850   30.0700 O   0  0  0  0  0  0  0  0  0  0  0  0
   37.3950   28.6778   30.7285 H   0  0  0  0  0  0  0  0  0  0  0  0
   37.8441   26.6949   32.1945 H   0  0  0  0  0  0  0  0  0  0  0  0
   35.6667   28.4776   35.4201 H   0  0  0  0  0  0  0  0  0  0  0  0
   35.1970   30.4629   33.9992 H   0  0  0  0  0  0  0  0  0  0  0  0
   36.5276   26.1523   35.4671 H   0  0  0  0  0  0  0  0  0  0  0  0
   36.9881   25.4247   33.8513 H   0  0  0  0  0  0  0  0  0  0  0  0
   39.1729   26.2237   34.0495 H   0  0  0  0  0  0  0  0  0  0  0  0
   41.4676   22.7906   35.8191 H   0  0  0  0  0  0  0  0  0  0  0  0
   39.9365   21.7028   37.5146 H   0  0  0  0  0  0  0  0  0  0  0  0
   37.6862   22.8090   37.9961 H   0  0  0  0  0  0  0  0  0  0  0  0
   38.7803   27.0249   36.9632 H   0  0  0  0  0  0  0  0  0  0  0  0
   39.8776   27.7448   35.7367 H   0  0  0  0  0  0  0  0  0  0  0  0
   38.1312   28.1655   35.7367 H   0  0  0  0  0  0  0  0  0  0  0  0
   32.0814   34.2363   29.6057 H   0  0  0  0  0  0  0  0  0  0  0  0
  1  6  1  0
  2  1  2  0
  2  3  1  0
  3  4  2  0
  4  5  1  0
  4  7  1  0
  6  5  2  0
  7  8  1  0
  8 13  1  0
  8 15  1  0
  9 10  2  0
 10 11  1  0
 12 11  2  0
 13 12  1  0
 14 13  2  0
 14  9  1  0
 16 18  2  0
 16  1  1  0
 17 16  2  0
 19 16  1  0
 19 20  2  0
 21 20  1  0
 22 21  1  0
 23 22  2  0
 23 19  1  0
 24 22  1  0
  2 25  1  0
  3 26  1  0
  5 27  1  0
  6 28  1  0
  7 29  1  0
  7 30  1  0
  8 31  1  6
  9 32  1  0
 10 33  1  0
 11 34  1  0
 15 35  1  0
 15 36  1  0
 15 37  1  0
 24 38  1  0
M  ISO  8  25  14  26  14  27  14  28  14  29   8  30   8  31   8  32  14
M  ISO  6  33  14  34  14  35   8  36   8  37   8  38   3
M  END
>  <minimizedAffinity>  (1) 
-4.93434906

>  <minimizedRMSD>  (1) 
0.0146277454

$$$$
