
     RDKit          3D

 29 31  0  0  0  0  0  0  0  0999 V2000
   39.8880   22.6560   37.3970 C   0  0  0  0  0  0  0  0  0  0  0  0
   39.1350   23.2260   38.4320 C   0  0  0  0  0  0  0  0  0  0  0  0
   37.7490   23.3660   38.2550 C   0  0  0  0  0  0  0  0  0  0  0  0
   37.2030   22.9370   37.0770 N   0  0  0  0  0  0  0  0  0  0  0  0
   37.9650   22.3890   36.0950 C   0  0  0  0  0  0  0  0  0  0  0  0
   39.2970   22.2540   36.2680 N   0  0  0  0  0  0  0  0  0  0  0  0
   37.4080   21.9390   34.8700 N   0  0  0  0  0  0  0  0  0  0  0  0
   38.0640   22.3130   33.7800 C   0  0  0  0  0  0  0  0  0  0  0  0
   37.5690   21.9040   32.5560 C   0  0  0  0  0  0  0  0  0  0  0  0
   36.4330   21.1440   32.5730 C   0  0  0  0  0  0  0  0  0  0  0  0
   35.8480   20.6780   31.3790 N   0  0  0  0  0  0  0  0  0  0  0  0
   35.7850   20.7800   33.7060 N   0  0  0  0  0  0  0  0  0  0  0  0
   36.2830   21.1880   34.9000 C   0  0  0  0  0  0  0  0  0  0  0  0
   35.7660   20.9100   36.0030 O   0  0  0  0  0  0  0  0  0  0  0  0
   38.1790   22.2350   31.2730 C   0  0  0  0  0  0  0  0  0  0  0  0
   38.2260   23.4970   30.7400 C   0  0  0  0  0  0  0  0  0  0  0  0
   38.8210   23.7320   29.5200 C   0  0  0  0  0  0  0  0  0  0  0  0
   39.3580   22.6740   28.8680 N   0  0  0  0  0  0  0  0  0  0  0  0
   39.3210   21.4220   29.3780 C   0  0  0  0  0  0  0  0  0  0  0  0
   38.7280   21.2420   30.5760 N   0  0  0  0  0  0  0  0  0  0  0  0
   40.9753   22.5384   37.5149 H   0  0  0  0  0  0  0  0  0  0  0  0
   39.6189   23.5566   39.3629 H   0  0  0  0  0  0  0  0  0  0  0  0
   37.1202   23.8083   39.0418 H   0  0  0  0  0  0  0  0  0  0  0  0
   38.9729   22.9289   33.8477 H   0  0  0  0  0  0  0  0  0  0  0  0
   34.9918   20.1065   31.4138 H   0  0  0  0  0  0  0  0  0  0  0  0
   36.2766   20.9088   30.4713 H   0  0  0  0  0  0  0  0  0  0  0  0
   37.7813   24.3358   31.2956 H   0  0  0  0  0  0  0  0  0  0  0  0
   38.8585   24.7440   29.0905 H   0  0  0  0  0  0  0  0  0  0  0  0
   39.7617   20.5751   28.8317 H   0  0  0  0  0  0  0  0  0  0  0  0
  1  2  2  0
  3  2  1  0
  4  3  2  0
  5  6  2  0
  5  4  1  0
  6  1  1  0
  7 13  1  0
  7  5  1  0
  8  7  1  0
  9 10  1  0
  9  8  2  0
 10 12  2  0
 11 10  1  0
 12 13  1  0
 13 14  2  0
 15  9  1  0
 16 15  2  0
 17 16  1  0
 18 19  1  0
 18 17  2  0
 19 20  2  0
 20 15  1  0
  1 21  1  0
  2 22  1  0
  3 23  1  0
  8 24  1  0
 11 25  1  0
 11 26  1  0
 16 27  1  0
 17 28  1  0
 19 29  1  0
M  ISO  7  21  14  22  14  23  14  24  14  27  14  28  14  29  14
M  END
>  <minimizedAffinity>  (1) 
-5.03249502

>  <minimizedRMSD>  (1) 
0.758816838

$$$$
