
     RDKit          3D

 29 31  0  0  0  0  0  0  0  0999 V2000
   39.8700   22.6650   37.3680 C   0  0  0  0  0  0  0  0  0  0  0  0
   39.0950   23.2200   38.4110 C   0  0  0  0  0  0  0  0  0  0  0  0
   37.7270   23.3410   38.2340 C   0  0  0  0  0  0  0  0  0  0  0  0
   37.1940   22.9150   37.0530 N   0  0  0  0  0  0  0  0  0  0  0  0
   37.9620   22.3850   36.0690 C   0  0  0  0  0  0  0  0  0  0  0  0
   39.2980   22.2620   36.2310 N   0  0  0  0  0  0  0  0  0  0  0  0
   37.4020   21.9430   34.8450 N   0  0  0  0  0  0  0  0  0  0  0  0
   38.0530   22.3180   33.7520 C   0  0  0  0  0  0  0  0  0  0  0  0
   37.5740   21.9310   32.5250 C   0  0  0  0  0  0  0  0  0  0  0  0
   36.4360   21.1720   32.5350 C   0  0  0  0  0  0  0  0  0  0  0  0
   35.8110   20.6910   31.3500 N   0  0  0  0  0  0  0  0  0  0  0  0
   35.7830   20.7980   33.6580 N   0  0  0  0  0  0  0  0  0  0  0  0
   36.2740   21.1920   34.8590 C   0  0  0  0  0  0  0  0  0  0  0  0
   35.7540   20.9060   35.9710 O   0  0  0  0  0  0  0  0  0  0  0  0
   38.1840   22.2660   31.2440 C   0  0  0  0  0  0  0  0  0  0  0  0
   38.2260   23.5440   30.7270 C   0  0  0  0  0  0  0  0  0  0  0  0
   38.8350   23.7250   29.5010 C   0  0  0  0  0  0  0  0  0  0  0  0
   39.3750   22.6980   28.8210 N   0  0  0  0  0  0  0  0  0  0  0  0
   39.3260   21.4560   29.3380 C   0  0  0  0  0  0  0  0  0  0  0  0
   38.7320   21.2610   30.5390 N   0  0  0  0  0  0  0  0  0  0  0  0
   40.9580   22.5637   37.4944 H   0  0  0  0  0  0  0  0  0  0  0  0
   39.5699   23.5500   39.3467 H   0  0  0  0  0  0  0  0  0  0  0  0
   37.0893   23.7678   39.0221 H   0  0  0  0  0  0  0  0  0  0  0  0
   38.9637   22.9303   33.8275 H   0  0  0  0  0  0  0  0  0  0  0  0
   34.9544   20.1227   31.4139 H   0  0  0  0  0  0  0  0  0  0  0  0
   36.2154   20.9113   30.4287 H   0  0  0  0  0  0  0  0  0  0  0  0
   37.7883   24.3921   31.2739 H   0  0  0  0  0  0  0  0  0  0  0  0
   38.8796   24.7357   29.0692 H   0  0  0  0  0  0  0  0  0  0  0  0
   39.7640   20.6084   28.7905 H   0  0  0  0  0  0  0  0  0  0  0  0
  1  2  2  0
  3  2  1  0
  4  3  2  0
  5  6  2  0
  5  4  1  0
  6  1  1  0
  7 13  1  0
  7  5  1  0
  8  7  1  0
  9 10  1  0
  9  8  2  0
 10 12  2  0
 11 10  1  0
 12 13  1  0
 13 14  2  0
 15  9  1  0
 16 15  2  0
 17 16  1  0
 18 19  1  0
 18 17  2  0
 19 20  2  0
 20 15  1  0
  1 21  1  0
  2 22  1  0
  3 23  1  0
  8 24  1  0
 11 25  1  0
 11 26  1  0
 16 27  1  0
 17 28  1  0
 19 29  1  0
M  ISO  7  21  14  22  14  23  14  24  14  27  14  28  14  29  14
M  END
>  <minimizedAffinity>  (1) 
-5.02735758

>  <minimizedRMSD>  (1) 
0.861348867

$$$$
