
     RDKit          3D

 43 46  0  0  1  0  0  0  0  0999 V2000
   37.2780   27.6050   33.6190 C   0  0  2  0  0  0  0  0  0  0  0  0
   36.4160   28.4330   34.5380 C   0  0  0  0  0  0  0  0  0  0  0  0
   35.3910   29.1930   33.7310 C   0  0  0  0  0  0  0  0  0  0  0  0
   35.7530   29.1580   32.2460 C   0  0  0  0  0  0  0  0  0  0  0  0
   35.8440   27.7870   31.6830 C   0  0  0  0  0  0  0  0  0  0  0  0
   36.4100   26.8170   32.7110 C   0  0  1  0  0  0  0  0  0  0  0  0
   37.0540   25.7690   31.9580 N   0  0  0  0  0  0  0  0  0  0  0  0
   37.8980   25.8780   30.9050 C   0  0  0  0  0  0  0  0  0  0  0  0
   38.2500   24.6180   30.5220 N   0  0  0  0  0  0  0  0  0  0  0  0
   37.6250   23.7340   31.3380 C   0  0  0  0  0  0  0  0  0  0  0  0
   36.9110   24.4670   32.1920 N   0  0  0  0  0  0  0  0  0  0  0  0
   38.3110   26.8400   34.3930 C   0  0  0  0  0  0  0  0  0  0  0  0
   37.7500   25.9940   35.4680 C   0  0  0  0  0  0  0  0  0  0  0  0
   38.3790   24.0400   36.9760 C   0  0  0  0  0  0  0  0  0  0  0  0
   38.6250   24.8820   35.8670 C   0  0  0  0  0  0  0  0  0  0  0  0
   39.7550   24.6390   35.1220 C   0  0  0  0  0  0  0  0  0  0  0  0
   40.6010   23.6090   35.4600 N   0  0  0  0  0  0  0  0  0  0  0  0
   40.3120   22.8420   36.5280 C   0  0  0  0  0  0  0  0  0  0  0  0
   39.2190   23.0560   37.2720 N   0  0  0  0  0  0  0  0  0  0  0  0
   41.3130   21.7820   36.7620 C   0  0  0  0  0  0  0  0  0  0  0  0
   41.9390   21.4000   35.6180 N   0  0  0  0  0  0  0  0  0  0  0  0
   42.8110   20.4570   35.9120 O   0  0  0  0  0  0  0  0  0  0  0  0
   42.7300   20.2560   37.2120 C   0  0  0  0  0  0  0  0  0  0  0  0
   41.7980   21.0740   37.7740 N   0  0  0  0  0  0  0  0  0  0  0  0
   37.8834   28.2407   32.9562 H   0  0  0  0  0  0  0  0  0  0  0  0
   35.9021   27.7715   35.2510 H   0  0  0  0  0  0  0  0  0  0  0  0
   37.0495   29.1468   35.0849 H   0  0  0  0  0  0  0  0  0  0  0  0
   34.4023   28.7328   33.8745 H   0  0  0  0  0  0  0  0  0  0  0  0
   35.3724   30.2392   34.0703 H   0  0  0  0  0  0  0  0  0  0  0  0
   34.9831   29.7114   31.6883 H   0  0  0  0  0  0  0  0  0  0  0  0
   36.7508   29.6108   32.1489 H   0  0  0  0  0  0  0  0  0  0  0  0
   34.8394   27.4518   31.3857 H   0  0  0  0  0  0  0  0  0  0  0  0
   36.5143   27.8076   30.8111 H   0  0  0  0  0  0  0  0  0  0  0  0
   35.6739   26.3243   33.3633 H   0  0  0  0  0  0  0  0  0  0  0  0
   38.2387   26.8156   30.4415 H   0  0  0  0  0  0  0  0  0  0  0  0
   37.6932   22.6367   31.3025 H   0  0  0  0  0  0  0  0  0  0  0  0
   38.8588   26.1922   33.6928 H   0  0  0  0  0  0  0  0  0  0  0  0
   38.9611   27.5830   34.8781 H   0  0  0  0  0  0  0  0  0  0  0  0
   37.5705   26.6272   36.3494 H   0  0  0  0  0  0  0  0  0  0  0  0
   36.8250   25.5477   35.0741 H   0  0  0  0  0  0  0  0  0  0  0  0
   37.4858   24.2015   37.5973 H   0  0  0  0  0  0  0  0  0  0  0  0
   39.9832   25.2716   34.2515 H   0  0  0  0  0  0  0  0  0  0  0  0
   43.3347   19.5249   37.7687 H   0  0  0  0  0  0  0  0  0  0  0  0
  1 12  1  0
  1  2  1  0
  3  2  1  0
  4  3  1  0
  5  4  1  0
  5  6  1  0
  6  1  1  0
  7 11  1  0
  7  6  1  0
  8  7  1  0
  9  8  2  0
  9 10  1  0
 10 11  2  0
 12 13  1  0
 13 15  1  0
 14 19  2  0
 15 14  1  0
 16 17  1  0
 16 15  2  0
 17 18  2  0
 18 20  1  0
 18 19  1  0
 20 24  1  0
 21 22  1  0
 21 20  2  0
 22 23  1  0
 23 24  2  0
  1 25  1  6
  2 26  1  0
  2 27  1  0
  3 28  1  0
  3 29  1  0
  4 30  1  0
  4 31  1  0
  5 32  1  0
  5 33  1  0
  6 34  1  1
  8 35  1  0
 10 36  1  0
 12 37  1  0
 12 38  1  0
 13 39  1  0
 13 40  1  0
 14 41  1  0
 16 42  1  0
 23 43  1  0
M  ISO  8  25  13  26  13  27  13  28  13  29  13  30  13  31  13  32  13
M  ISO  8  33  13  34  13  35  14  36  14  37   8  38   8  39   8  40   8
M  ISO  3  41  14  42  14  43  14
M  END
>  <minimizedAffinity>  (1) 
-4.99477863

>  <minimizedRMSD>  (1) 
1.44169891

$$$$
