
     RDKit          3D

 45 48  0  0  1  0  0  0  0  0999 V2000
   37.5570   27.2570   33.5800 C   0  0  2  0  0  0  0  0  0  0  0  0
   36.8770   28.0690   34.6600 C   0  0  0  0  0  0  0  0  0  0  0  0
   35.7560   28.8700   34.0480 C   0  0  0  0  0  0  0  0  0  0  0  0
   35.8900   28.9200   32.5340 C   0  0  0  0  0  0  0  0  0  0  0  0
   35.8750   27.5790   31.8890 C   0  0  0  0  0  0  0  0  0  0  0  0
   36.5480   26.5350   32.7700 C   0  0  1  0  0  0  0  0  0  0  0  0
   37.0480   25.5200   31.8780 N   0  0  0  0  0  0  0  0  0  0  0  0
   37.8890   25.6490   30.8230 C   0  0  0  0  0  0  0  0  0  0  0  0
   38.0750   24.4160   30.2840 N   0  0  0  0  0  0  0  0  0  0  0  0
   37.3540   23.5190   30.9990 C   0  0  0  0  0  0  0  0  0  0  0  0
   36.7470   24.2240   31.9530 N   0  0  0  0  0  0  0  0  0  0  0  0
   38.6590   26.4180   34.1660 C   0  0  0  0  0  0  0  0  0  0  0  0
   38.2140   25.4770   35.2170 C   0  0  0  0  0  0  0  0  0  0  0  0
   38.7970   23.1060   35.9380 C   0  0  0  0  0  0  0  0  0  0  0  0
   39.1620   24.3840   35.5040 C   0  0  0  0  0  0  0  0  0  0  0  0
   40.5140   24.6570   35.3280 C   0  0  0  0  0  0  0  0  0  0  0  0
   41.4510   23.6790   35.5800 N   0  0  0  0  0  0  0  0  0  0  0  0
   41.0430   22.4670   35.9940 C   0  0  0  0  0  0  0  0  0  0  0  0
   39.7460   22.1880   36.1700 N   0  0  0  0  0  0  0  0  0  0  0  0
   41.9080   21.3760   36.2880 N   0  0  0  0  0  0  0  0  0  0  0  0
   42.3200   20.8380   37.4200 N   0  0  0  0  0  0  0  0  0  0  0  0
   43.1550   19.7950   37.1440 C   0  0  0  0  0  0  0  0  0  0  0  0
   43.2530   19.6990   35.7520 C   0  0  0  0  0  0  0  0  0  0  0  0
   42.4540   20.7110   35.2340 C   0  0  0  0  0  0  0  0  0  0  0  0
   38.0702   27.9129   32.8614 H   0  0  0  0  0  0  0  0  0  0  0  0
   36.4701   27.3934   35.4268 H   0  0  0  0  0  0  0  0  0  0  0  0
   37.6060   28.7494   35.1243 H   0  0  0  0  0  0  0  0  0  0  0  0
   34.7950   28.4030   34.3095 H   0  0  0  0  0  0  0  0  0  0  0  0
   35.8027   29.8969   34.4395 H   0  0  0  0  0  0  0  0  0  0  0  0
   35.0534   29.5092   32.1303 H   0  0  0  0  0  0  0  0  0  0  0  0
   36.8673   29.3734   32.3119 H   0  0  0  0  0  0  0  0  0  0  0  0
   34.8320   27.2788   31.7103 H   0  0  0  0  0  0  0  0  0  0  0  0
   36.4289   27.6430   30.9408 H   0  0  0  0  0  0  0  0  0  0  0  0
   35.8990   26.0163   33.4909 H   0  0  0  0  0  0  0  0  0  0  0  0
   38.3410   26.5863   30.4663 H   0  0  0  0  0  0  0  0  0  0  0  0
   37.2842   22.4347   30.8277 H   0  0  0  0  0  0  0  0  0  0  0  0
   39.1176   25.8353   33.3535 H   0  0  0  0  0  0  0  0  0  0  0  0
   39.3645   27.1136   34.6439 H   0  0  0  0  0  0  0  0  0  0  0  0
   38.0572   26.0475   36.1443 H   0  0  0  0  0  0  0  0  0  0  0  0
   37.2953   25.0024   34.8419 H   0  0  0  0  0  0  0  0  0  0  0  0
   37.7366   22.8551   36.0883 H   0  0  0  0  0  0  0  0  0  0  0  0
   40.8350   25.6527   34.9880 H   0  0  0  0  0  0  0  0  0  0  0  0
   43.6577   19.1496   37.8794 H   0  0  0  0  0  0  0  0  0  0  0  0
   43.8446   18.9681   35.1812 H   0  0  0  0  0  0  0  0  0  0  0  0
   42.2927   20.9334   34.1688 H   0  0  0  0  0  0  0  0  0  0  0  0
  1 12  1  0
  1  2  1  0
  3  2  1  0
  4  3  1  0
  5  4  1  0
  5  6  1  0
  6  1  1  0
  7 11  1  0
  7  6  1  0
  8  7  1  0
  9  8  2  0
  9 10  1  0
 10 11  2  0
 12 13  1  0
 13 15  1  0
 14 19  2  0
 15 14  1  0
 16 15  2  0
 16 17  1  0
 17 18  2  0
 18 19  1  0
 18 20  1  0
 20 21  1  0
 22 21  2  0
 23 22  1  0
 24 23  2  0
 24 20  1  0
  1 25  1  6
  2 26  1  0
  2 27  1  0
  3 28  1  0
  3 29  1  0
  4 30  1  0
  4 31  1  0
  5 32  1  0
  5 33  1  0
  6 34  1  1
  8 35  1  0
 10 36  1  0
 12 37  1  0
 12 38  1  0
 13 39  1  0
 13 40  1  0
 14 41  1  0
 16 42  1  0
 22 43  1  0
 23 44  1  0
 24 45  1  0
M  ISO  8  25  13  26  13  27  13  28  13  29  13  30  13  31  13  32  13
M  ISO  8  33  13  34  13  35  14  36  14  37   8  38   8  39   8  40   8
M  ISO  5  41  14  42  14  43  14  44  14  45  14
M  END
>  <minimizedAffinity>  (1) 
-4.91023588

>  <minimizedRMSD>  (1) 
1.884341

$$$$
