
     RDKit          3D

 47 49  0  0  1  0  0  0  0  0999 V2000
   37.2460   27.7830   33.4660 C   0  0  2  0  0  0  0  0  0  0  0  0
   36.2650   28.4480   34.4050 C   0  0  0  0  0  0  0  0  0  0  0  0
   35.1700   29.1110   33.5990 C   0  0  0  0  0  0  0  0  0  0  0  0
   35.5840   29.2250   32.1330 C   0  0  0  0  0  0  0  0  0  0  0  0
   35.8700   27.9170   31.4970 C   0  0  0  0  0  0  0  0  0  0  0  0
   36.5040   26.9420   32.4800 C   0  0  1  0  0  0  0  0  0  0  0  0
   37.2980   26.0350   31.6910 N   0  0  0  0  0  0  0  0  0  0  0  0
   38.2310   26.3130   30.7490 C   0  0  0  0  0  0  0  0  0  0  0  0
   38.7200   25.1400   30.2720 N   0  0  0  0  0  0  0  0  0  0  0  0
   38.0950   24.1350   30.9130 C   0  0  0  0  0  0  0  0  0  0  0  0
   37.2470   24.7150   31.7600 N   0  0  0  0  0  0  0  0  0  0  0  0
   38.3380   27.0930   34.2290 C   0  0  0  0  0  0  0  0  0  0  0  0
   37.8470   26.1390   35.2430 C   0  0  0  0  0  0  0  0  0  0  0  0
   38.5810   24.0590   36.5240 C   0  0  0  0  0  0  0  0  0  0  0  0
   38.8170   25.0850   35.6040 C   0  0  0  0  0  0  0  0  0  0  0  0
   40.0570   25.1150   34.9820 C   0  0  0  0  0  0  0  0  0  0  0  0
   41.0050   24.1620   35.2730 N   0  0  0  0  0  0  0  0  0  0  0  0
   40.7050   23.1960   36.1770 C   0  0  0  0  0  0  0  0  0  0  0  0
   39.5150   23.1520   36.7870 N   0  0  0  0  0  0  0  0  0  0  0  0
   41.8150   22.2220   36.4080 C   0  0  0  0  0  0  0  0  0  0  0  0
   41.5650   21.3320   37.5890 C   0  0  0  0  0  0  0  0  0  0  0  0
   43.1490   22.9220   36.4640 C   0  0  0  0  0  0  0  0  0  0  0  0
   37.7820   28.5314   32.8638 H   0  0  0  0  0  0  0  0  0  0  0  0
   35.8240   27.6918   35.0711 H   0  0  0  0  0  0  0  0  0  0  0  0
   36.7881   29.2052   35.0076 H   0  0  0  0  0  0  0  0  0  0  0  0
   34.2519   28.5094   33.6708 H   0  0  0  0  0  0  0  0  0  0  0  0
   34.9924   30.1199   33.9996 H   0  0  0  0  0  0  0  0  0  0  0  0
   34.7687   29.7116   31.5776 H   0  0  0  0  0  0  0  0  0  0  0  0
   36.5151   29.8100   32.1038 H   0  0  0  0  0  0  0  0  0  0  0  0
   34.9281   27.4873   31.1254 H   0  0  0  0  0  0  0  0  0  0  0  0
   36.5785   28.0833   30.6722 H   0  0  0  0  0  0  0  0  0  0  0  0
   35.8134   26.3146   33.0626 H   0  0  0  0  0  0  0  0  0  0  0  0
   38.5397   27.3181   30.4257 H   0  0  0  0  0  0  0  0  0  0  0  0
   38.2524   23.0561   30.7671 H   0  0  0  0  0  0  0  0  0  0  0  0
   38.9676   26.5443   33.5131 H   0  0  0  0  0  0  0  0  0  0  0  0
   38.8945   27.8741   34.7677 H   0  0  0  0  0  0  0  0  0  0  0  0
   37.5956   26.7027   36.1535 H   0  0  0  0  0  0  0  0  0  0  0  0
   36.9771   25.6299   34.8024 H   0  0  0  0  0  0  0  0  0  0  0  0
   37.6094   24.0022   37.0366 H   0  0  0  0  0  0  0  0  0  0  0  0
   40.2832   25.9059   34.2517 H   0  0  0  0  0  0  0  0  0  0  0  0
   41.8466   21.5458   35.5410 H   0  0  0  0  0  0  0  0  0  0  0  0
   41.7247   21.9006   38.5170 H   0  0  0  0  0  0  0  0  0  0  0  0
   40.5288   20.9642   37.5581 H   0  0  0  0  0  0  0  0  0  0  0  0
   42.2581   20.4784   37.5581 H   0  0  0  0  0  0  0  0  0  0  0  0
   43.4393   23.0744   37.5140 H   0  0  0  0  0  0  0  0  0  0  0  0
   43.9078   22.3059   35.9594 H   0  0  0  0  0  0  0  0  0  0  0  0
   43.0732   23.8965   35.9594 H   0  0  0  0  0  0  0  0  0  0  0  0
  1 12  1  0
  1  2  1  0
  3  2  1  0
  4  3  1  0
  5  4  1  0
  5  6  1  0
  6  1  1  0
  7 11  1  0
  7  6  1  0
  8  7  1  0
  9  8  2  0
  9 10  1  0
 10 11  2  0
 12 13  1  0
 13 15  1  0
 14 19  2  0
 15 14  1  0
 16 17  1  0
 16 15  2  0
 17 18  2  0
 18 20  1  0
 18 19  1  0
 20 22  1  0
 20 21  1  0
  1 23  1  6
  2 24  1  0
  2 25  1  0
  3 26  1  0
  3 27  1  0
  4 28  1  0
  4 29  1  0
  5 30  1  0
  5 31  1  0
  6 32  1  1
  8 33  1  0
 10 34  1  0
 12 35  1  0
 12 36  1  0
 13 37  1  0
 13 38  1  0
 14 39  1  0
 16 40  1  0
 20 41  1  0
 21 42  1  0
 21 43  1  0
 21 44  1  0
 22 45  1  0
 22 46  1  0
 22 47  1  0
M  ISO  8  23  13  24  13  25  13  26  13  27  13  28  13  29  13  30  13
M  ISO  8  31  13  32  13  33  14  34  14  35   8  36   8  37   8  38   8
M  ISO  8  39  14  40  14  41   8  42   8  43   8  44   8  45   8  46   8
M  ISO  1  47   8
M  END
>  <minimizedAffinity>  (1) 
-4.78698492

>  <minimizedRMSD>  (1) 
1.44403744

$$$$
