
     RDKit          3D

 36 38  0  0  1  0  0  0  0  0999 V2000
   36.6700   21.7740   33.2200 C   0  0  2  0  0  0  0  0  0  0  0  0
   36.1460   20.3340   33.2070 C   0  0  0  0  0  0  0  0  0  0  0  0
   34.9360   20.5440   32.3090 C   0  0  0  0  0  0  0  0  0  0  0  0
   35.2250   21.7720   31.4720 C   0  0  0  0  0  0  0  0  0  0  0  0
   36.7210   22.0110   31.7500 C   0  0  1  0  0  0  0  0  0  0  0  0
   37.0060   23.3730   31.3750 N   0  0  0  0  0  0  0  0  0  0  0  0
   36.2080   24.3780   31.7050 C   0  0  0  0  0  0  0  0  0  0  0  0
   36.4920   25.6960   31.3370 C   0  0  0  0  0  0  0  0  0  0  0  0
   37.6510   25.9090   30.6070 C   0  0  0  0  0  0  0  0  0  0  0  0
   38.0370   27.2300   30.1770 N   0  0  0  0  0  0  0  0  0  0  0  0
   38.4320   24.8610   30.2940 N   0  0  0  0  0  0  0  0  0  0  0  0
   38.1260   23.5870   30.6680 C   0  0  0  0  0  0  0  0  0  0  0  0
   38.9240   22.6690   30.3250 O   0  0  0  0  0  0  0  0  0  0  0  0
   37.9340   21.9380   33.9210 C   0  0  0  0  0  0  0  0  0  0  0  0
   38.9510   21.3270   33.4800 O   0  0  0  0  0  0  0  0  0  0  0  0
   38.3190   24.9810   35.9360 C   0  0  0  0  0  0  0  0  0  0  0  0
   38.3090   24.0970   34.8370 C   0  0  0  0  0  0  0  0  0  0  0  0
   37.9250   22.8020   35.0860 C   0  0  0  0  0  0  0  0  0  0  0  0
   37.5780   22.4370   36.3500 N   0  0  0  0  0  0  0  0  0  0  0  0
   37.5940   23.2870   37.3770 C   0  0  0  0  0  0  0  0  0  0  0  0
   37.9680   24.5720   37.1700 N   0  0  0  0  0  0  0  0  0  0  0  0
   36.0601   22.4998   33.7778 H   0  0  0  0  0  0  0  0  0  0  0  0
   36.8712   19.6328   32.7684 H   0  0  0  0  0  0  0  0  0  0  0  0
   35.9390   19.8915   34.1926 H   0  0  0  0  0  0  0  0  0  0  0  0
   34.7890   19.6684   31.6597 H   0  0  0  0  0  0  0  0  0  0  0  0
   34.0198   20.6761   32.9032 H   0  0  0  0  0  0  0  0  0  0  0  0
   34.6170   22.6288   31.7979 H   0  0  0  0  0  0  0  0  0  0  0  0
   34.9891   21.6446   30.4052 H   0  0  0  0  0  0  0  0  0  0  0  0
   37.4861   21.4134   31.2328 H   0  0  0  0  0  0  0  0  0  0  0  0
   35.2967   24.1692   32.2847 H   0  0  0  0  0  0  0  0  0  0  0  0
   35.8261   26.5266   31.6140 H   0  0  0  0  0  0  0  0  0  0  0  0
   38.9030   27.3628   29.6355 H   0  0  0  0  0  0  0  0  0  0  0  0
   37.4467   28.0409   30.4114 H   0  0  0  0  0  0  0  0  0  0  0  0
   38.6202   26.0276   35.7817 H   0  0  0  0  0  0  0  0  0  0  0  0
   38.5952   24.4290   33.8281 H   0  0  0  0  0  0  0  0  0  0  0  0
   37.3061   22.9477   38.3830 H   0  0  0  0  0  0  0  0  0  0  0  0
  1 14  1  0
  2  1  1  0
  3  2  1  0
  4  5  1  0
  4  3  1  0
  5  1  1  0
  6  7  1  0
  6  5  1  0
  8  7  2  0
  9  8  1  0
 10  9  1  0
 11  9  2  0
 11 12  1  0
 12  6  1  0
 13 12  2  0
 14 18  1  0
 15 14  2  0
 16 21  2  0
 17 18  2  0
 17 16  1  0
 18 19  1  0
 19 20  2  0
 21 20  1  0
  1 22  1  1
  2 23  1  0
  2 24  1  0
  3 25  1  0
  3 26  1  0
  4 27  1  0
  4 28  1  0
  5 29  1  6
  7 30  1  0
  8 31  1  0
 10 32  1  0
 10 33  1  0
 16 34  1  0
 17 35  1  0
 20 36  1  0
M  ISO  8  22  13  23  13  24  13  25  13  26  13  27  13  28  13  29  13
M  ISO  5  30  14  31  14  34  14  35  14  36  14
M  END
>  <minimizedAffinity>  (1) 
-4.72278976

>  <minimizedRMSD>  (1) 
3.27811527

$$$$
