
     RDKit          3D

 38 40  0  0  1  0  0  0  0  0999 V2000
   36.7880   22.0660   33.1500 C   0  0  2  0  0  0  0  0  0  0  0  0
   36.3510   20.6060   32.9740 C   0  0  0  0  0  0  0  0  0  0  0  0
   35.1150   20.8400   32.0920 C   0  0  0  0  0  0  0  0  0  0  0  0
   35.3180   22.2130   31.4430 C   0  0  0  0  0  0  0  0  0  0  0  0
   36.8050   22.4440   31.7150 C   0  0  1  0  0  0  0  0  0  0  0  0
   37.1690   23.7680   31.3690 N   0  0  0  0  0  0  0  0  0  0  0  0
   36.5860   24.8260   31.9790 C   0  0  0  0  0  0  0  0  0  0  0  0
   36.9020   26.1340   31.6810 C   0  0  0  0  0  0  0  0  0  0  0  0
   36.2730   27.2950   32.3390 C   0  0  0  0  0  0  0  0  0  0  0  0
   37.8590   26.4140   30.7150 C   0  0  0  0  0  0  0  0  0  0  0  0
   38.1820   27.5900   30.4070 O   0  0  0  0  0  0  0  0  0  0  0  0
   38.4320   25.3530   30.1150 N   0  0  0  0  0  0  0  0  0  0  0  0
   38.0890   24.0930   30.4420 C   0  0  0  0  0  0  0  0  0  0  0  0
   38.6830   23.2010   29.8250 O   0  0  0  0  0  0  0  0  0  0  0  0
   38.0480   22.2170   33.8560 C   0  0  0  0  0  0  0  0  0  0  0  0
   39.0900   21.7030   33.3530 O   0  0  0  0  0  0  0  0  0  0  0  0
   38.4530   25.0190   36.1920 C   0  0  0  0  0  0  0  0  0  0  0  0
   38.4620   24.2520   35.0070 C   0  0  0  0  0  0  0  0  0  0  0  0
   38.0160   22.9590   35.1020 C   0  0  0  0  0  0  0  0  0  0  0  0
   37.5980   22.4860   36.3060 N   0  0  0  0  0  0  0  0  0  0  0  0
   37.5910   23.2150   37.4200 C   0  0  0  0  0  0  0  0  0  0  0  0
   38.0240   24.4980   37.3610 N   0  0  0  0  0  0  0  0  0  0  0  0
   36.1529   22.6997   33.7864 H   0  0  0  0  0  0  0  0  0  0  0  0
   37.1163   20.0035   32.4628 H   0  0  0  0  0  0  0  0  0  0  0  0
   36.1738   20.0461   33.9041 H   0  0  0  0  0  0  0  0  0  0  0  0
   35.0415   20.0591   31.3208 H   0  0  0  0  0  0  0  0  0  0  0  0
   34.1859   20.8038   32.6798 H   0  0  0  0  0  0  0  0  0  0  0  0
   34.6949   22.9828   31.9218 H   0  0  0  0  0  0  0  0  0  0  0  0
   35.0377   22.2594   30.3803 H   0  0  0  0  0  0  0  0  0  0  0  0
   37.5655   21.8902   31.1450 H   0  0  0  0  0  0  0  0  0  0  0  0
   35.8242   24.6330   32.7487 H   0  0  0  0  0  0  0  0  0  0  0  0
   36.3370   27.1768   33.4308 H   0  0  0  0  0  0  0  0  0  0  0  0
   36.7962   28.2147   32.0384 H   0  0  0  0  0  0  0  0  0  0  0  0
   35.2168   27.3591   32.0384 H   0  0  0  0  0  0  0  0  0  0  0  0
   39.1476   25.5089   29.3908 H   0  0  0  0  0  0  0  0  0  0  0  0
   38.8024   26.0616   36.1622 H   0  0  0  0  0  0  0  0  0  0  0  0
   38.8106   24.6721   34.0520 H   0  0  0  0  0  0  0  0  0  0  0  0
   37.2407   22.7845   38.3697 H   0  0  0  0  0  0  0  0  0  0  0  0
  1 15  1  0
  2  1  1  0
  3  2  1  0
  4  5  1  0
  4  3  1  0
  5  1  1  0
  6  5  1  0
  6  7  1  0
  8  7  2  0
  8  9  1  0
 10  8  1  0
 11 10  2  0
 12 13  1  0
 12 10  1  0
 13  6  1  0
 14 13  2  0
 15 19  1  0
 16 15  2  0
 17 22  2  0
 18 19  2  0
 18 17  1  0
 19 20  1  0
 20 21  2  0
 22 21  1  0
  1 23  1  1
  2 24  1  0
  2 25  1  0
  3 26  1  0
  3 27  1  0
  4 28  1  0
  4 29  1  0
  5 30  1  6
  7 31  1  0
  9 32  1  0
  9 33  1  0
  9 34  1  0
 12 35  1  0
 17 36  1  0
 18 37  1  0
 21 38  1  0
M  ISO  8  23  13  24  13  25  13  26  13  27  13  28  13  29  13  30  13
M  ISO  8  31  14  32   8  33   8  34   8  35   9  36  14  37  14  38  14
M  END
>  <minimizedAffinity>  (1) 
-5.06424379

>  <minimizedRMSD>  (1) 
3.59473538

$$$$
