
     RDKit          3D

 36 39  0  0  1  0  0  0  0  0999 V2000
   38.1460   23.3480   34.5050 C   0  0  2  0  0  0  0  0  0  0  0  0
   37.6110   21.9480   34.8110 C   0  0  0  0  0  0  0  0  0  0  0  0
   36.8180   21.6900   33.5310 C   0  0  0  0  0  0  0  0  0  0  0  0
   37.3490   22.6690   32.5010 C   0  0  0  0  0  0  0  0  0  0  0  0
   38.6860   23.1090   33.1370 C   0  0  1  0  0  0  0  0  0  0  0  0
   39.0380   24.3440   32.4690 N   0  0  0  0  0  0  0  0  0  0  0  0
   40.1600   24.5540   31.7640 C   0  0  0  0  0  0  0  0  0  0  0  0
   40.1680   25.8270   31.2730 N   0  0  0  0  0  0  0  0  0  0  0  0
   39.0420   26.4130   31.6750 C   0  0  0  0  0  0  0  0  0  0  0  0
   38.4730   27.6580   31.5150 C   0  0  0  0  0  0  0  0  0  0  0  0
   37.2750   27.8950   32.0910 N   0  0  0  0  0  0  0  0  0  0  0  0
   36.6070   26.9770   32.8130 C   0  0  0  0  0  0  0  0  0  0  0  0
   37.1470   25.7750   32.9730 N   0  0  0  0  0  0  0  0  0  0  0  0
   38.3220   25.4930   32.4280 C   0  0  0  0  0  0  0  0  0  0  0  0
   39.1050   23.8320   35.4770 C   0  0  0  0  0  0  0  0  0  0  0  0
   38.9600   25.0030   35.9490 O   0  0  0  0  0  0  0  0  0  0  0  0
   41.1940   21.6680   37.5800 C   0  0  0  0  0  0  0  0  0  0  0  0
   40.1740   22.5470   37.1620 C   0  0  0  0  0  0  0  0  0  0  0  0
   40.1780   22.9280   35.8450 C   0  0  0  0  0  0  0  0  0  0  0  0
   41.1450   22.4470   35.0170 N   0  0  0  0  0  0  0  0  0  0  0  0
   42.1040   21.6170   35.4220 C   0  0  0  0  0  0  0  0  0  0  0  0
   42.1290   21.2230   36.7180 N   0  0  0  0  0  0  0  0  0  0  0  0
   37.4066   24.1608   34.5566 H   0  0  0  0  0  0  0  0  0  0  0  0
   38.4239   21.2188   34.9431 H   0  0  0  0  0  0  0  0  0  0  0  0
   37.0326   21.8633   35.7428 H   0  0  0  0  0  0  0  0  0  0  0  0
   36.9714   20.6558   33.1890 H   0  0  0  0  0  0  0  0  0  0  0  0
   35.7385   21.8248   33.6937 H   0  0  0  0  0  0  0  0  0  0  0  0
   36.6674   23.5227   32.3722 H   0  0  0  0  0  0  0  0  0  0  0  0
   37.4566   22.2392   31.4942 H   0  0  0  0  0  0  0  0  0  0  0  0
   39.5697   22.4552   33.0967 H   0  0  0  0  0  0  0  0  0  0  0  0
   40.9551   23.8106   31.6054 H   0  0  0  0  0  0  0  0  0  0  0  0
   38.9824   28.4396   30.9322 H   0  0  0  0  0  0  0  0  0  0  0  0
   35.6322   27.2179   33.2620 H   0  0  0  0  0  0  0  0  0  0  0  0
   41.2271   21.3394   38.6293 H   0  0  0  0  0  0  0  0  0  0  0  0
   39.4080   22.9114   37.8623 H   0  0  0  0  0  0  0  0  0  0  0  0
   42.8651   21.2563   34.7145 H   0  0  0  0  0  0  0  0  0  0  0  0
  1  2  1  0
  1 15  1  0
  3  2  1  0
  4  5  1  0
  4  3  1  0
  5  1  1  0
  6  5  1  0
  7  6  1  0
  8  9  1  0
  8  7  2  0
  9 14  2  0
 10  9  1  0
 10 11  2  0
 11 12  1  0
 12 13  2  0
 14  6  1  0
 14 13  1  0
 15 19  1  0
 15 16  2  0
 18 17  2  0
 19 18  1  0
 20 21  1  0
 20 19  2  0
 21 22  2  0
 22 17  1  0
  1 23  1  6
  2 24  1  0
  2 25  1  0
  3 26  1  0
  3 27  1  0
  4 28  1  0
  4 29  1  0
  5 30  1  1
  7 31  1  0
 10 32  1  0
 12 33  1  0
 17 34  1  0
 18 35  1  0
 21 36  1  0
M  ISO  8  23  13  24  13  25  13  26  13  27  13  28  13  29  13  30  13
M  ISO  6  31  14  32  14  33  14  34  14  35  14  36  14
M  END
>  <minimizedAffinity>  (1) 
-4.25746584

>  <minimizedRMSD>  (1) 
2.5138464

$$$$
