
     RDKit          3D

 34 35  0  0  1  0  0  0  0  0999 V2000
   36.7020   21.8070   33.2440 C   0  0  2  0  0  0  0  0  0  0  0  0
   36.3820   20.3310   32.9830 C   0  0  0  0  0  0  0  0  0  0  0  0
   35.1180   20.4910   32.1560 C   0  0  0  0  0  0  0  0  0  0  0  0
   35.1660   21.8900   31.5800 C   0  0  0  0  0  0  0  0  0  0  0  0
   36.6340   22.2990   31.8410 C   0  0  1  0  0  0  0  0  0  0  0  0
   36.7180   23.7960   31.6760 C   0  0  0  0  0  0  0  0  0  0  0  0
   37.6940   24.0220   30.5390 C   0  0  0  0  0  0  0  0  0  0  0  0
   35.3830   24.3580   31.1670 C   0  0  0  0  0  0  0  0  0  0  0  0
   37.9770   22.0160   33.9130 C   0  0  0  0  0  0  0  0  0  0  0  0
   39.0130   21.4680   33.4070 O   0  0  0  0  0  0  0  0  0  0  0  0
   38.4310   24.9700   36.0420 C   0  0  0  0  0  0  0  0  0  0  0  0
   38.4170   24.1160   34.9130 C   0  0  0  0  0  0  0  0  0  0  0  0
   37.9640   22.8370   35.1090 C   0  0  0  0  0  0  0  0  0  0  0  0
   37.5600   22.4590   36.3500 N   0  0  0  0  0  0  0  0  0  0  0  0
   37.5780   23.2690   37.4060 C   0  0  0  0  0  0  0  0  0  0  0  0
   38.0180   24.5390   37.2500 N   0  0  0  0  0  0  0  0  0  0  0  0
   36.0352   22.3312   33.9444 H   0  0  0  0  0  0  0  0  0  0  0  0
   37.1821   19.8315   32.4171 H   0  0  0  0  0  0  0  0  0  0  0  0
   36.2765   19.7084   33.8837 H   0  0  0  0  0  0  0  0  0  0  0  0
   35.0944   19.7459   31.3471 H   0  0  0  0  0  0  0  0  0  0  0  0
   34.2163   20.3395   32.7676 H   0  0  0  0  0  0  0  0  0  0  0  0
   34.4664   22.5602   32.1009 H   0  0  0  0  0  0  0  0  0  0  0  0
   34.8742   21.9422   30.5207 H   0  0  0  0  0  0  0  0  0  0  0  0
   37.4464   21.9184   31.2045 H   0  0  0  0  0  0  0  0  0  0  0  0
   36.9944   24.2651   32.6318 H   0  0  0  0  0  0  0  0  0  0  0  0
   38.6882   24.2522   30.9495 H   0  0  0  0  0  0  0  0  0  0  0  0
   37.7537   23.1139   29.9211 H   0  0  0  0  0  0  0  0  0  0  0  0
   37.3485   24.8639   29.9211 H   0  0  0  0  0  0  0  0  0  0  0  0
   34.7473   24.6256   32.0239 H   0  0  0  0  0  0  0  0  0  0  0  0
   35.5711   25.2533   30.5562 H   0  0  0  0  0  0  0  0  0  0  0  0
   34.8741   23.5977   30.5562 H   0  0  0  0  0  0  0  0  0  0  0  0
   38.7858   26.0053   35.9310 H   0  0  0  0  0  0  0  0  0  0  0  0
   38.7538   24.4624   33.9248 H   0  0  0  0  0  0  0  0  0  0  0  0
   37.2405   22.9116   38.3900 H   0  0  0  0  0  0  0  0  0  0  0  0
  1  9  1  0
  2  1  1  0
  3  2  1  0
  4  5  1  0
  4  3  1  0
  5  1  1  0
  6  5  1  0
  7  6  1  0
  8  6  1  0
  9 13  1  0
 10  9  2  0
 11 16  2  0
 12 13  2  0
 12 11  1  0
 13 14  1  0
 14 15  2  0
 16 15  1  0
  1 17  1  1
  2 18  1  0
  2 19  1  0
  3 20  1  0
  3 21  1  0
  4 22  1  0
  4 23  1  0
  5 24  1  6
  6 25  1  0
  7 26  1  0
  7 27  1  0
  7 28  1  0
  8 29  1  0
  8 30  1  0
  8 31  1  0
 11 32  1  0
 12 33  1  0
 15 34  1  0
M  ISO  8  17  13  18  13  19  13  20  13  21  13  22  13  23  13  24  13
M  ISO  8  25   8  26   8  27   8  28   8  29   8  30   8  31   8  32  14
M  ISO  2  33  14  34  14
M  END
>  <minimizedAffinity>  (1) 
-4.2307539

>  <minimizedRMSD>  (1) 
3.45916224

$$$$
