
     RDKit          3D

 38 40  0  0  1  0  0  0  0  0999 V2000
   37.5740   23.2860   34.1720 C   0  0  2  0  0  0  0  0  0  0  0  0
   37.9220   21.8110   34.4010 C   0  0  0  0  0  0  0  0  0  0  0  0
   37.2070   21.1960   33.2060 C   0  0  0  0  0  0  0  0  0  0  0  0
   36.9800   22.3290   32.2210 C   0  0  0  0  0  0  0  0  0  0  0  0
   37.9750   23.3950   32.7430 C   0  0  1  0  0  0  0  0  0  0  0  0
   37.2370   27.1930   30.8440 C   0  0  0  0  0  0  0  0  0  0  0  0
   38.5070   26.6770   31.0190 C   0  0  0  0  0  0  0  0  0  0  0  0
   38.7120   25.4540   31.6310 C   0  0  0  0  0  0  0  0  0  0  0  0
   37.6450   24.6910   32.0980 C   0  0  0  0  0  0  0  0  0  0  0  0
   36.3830   25.2180   31.9180 C   0  0  0  0  0  0  0  0  0  0  0  0
   36.1870   26.4390   31.3050 C   0  0  0  0  0  0  0  0  0  0  0  0
   36.9260   28.7330   30.0750 S   0  0  0  0  0  0  0  0  0  0  0  0
   35.8750   29.4500   30.8800 O   0  0  0  0  0  0  0  0  0  0  0  0
   38.1770   29.5530   29.9370 O   0  0  0  0  0  0  0  0  0  0  0  0
   38.2440   24.1930   35.0850 C   0  0  0  0  0  0  0  0  0  0  0  0
   37.7300   25.3410   35.2840 O   0  0  0  0  0  0  0  0  0  0  0  0
   40.4510   22.6750   37.5910 C   0  0  0  0  0  0  0  0  0  0  0  0
   39.2840   23.1570   36.9490 C   0  0  0  0  0  0  0  0  0  0  0  0
   39.4620   23.7110   35.7050 C   0  0  0  0  0  0  0  0  0  0  0  0
   40.7120   23.7690   35.1670 N   0  0  0  0  0  0  0  0  0  0  0  0
   41.7960   23.3120   35.7860 C   0  0  0  0  0  0  0  0  0  0  0  0
   41.6560   22.7590   37.0140 N   0  0  0  0  0  0  0  0  0  0  0  0
   36.5308   23.5734   34.3696 H   0  0  0  0  0  0  0  0  0  0  0  0
   39.0072   21.6350   34.3650 H   0  0  0  0  0  0  0  0  0  0  0  0
   37.6282   21.4072   35.3811 H   0  0  0  0  0  0  0  0  0  0  0  0
   37.8305   20.4130   32.7498 H   0  0  0  0  0  0  0  0  0  0  0  0
   36.2577   20.7269   33.5040 H   0  0  0  0  0  0  0  0  0  0  0  0
   35.9430   22.6938   32.2600 H   0  0  0  0  0  0  0  0  0  0  0  0
   37.1353   22.0471   31.1692 H   0  0  0  0  0  0  0  0  0  0  0  0
   39.0550   23.2890   32.5632 H   0  0  0  0  0  0  0  0  0  0  0  0
   39.3746   27.2522   30.6634 H   0  0  0  0  0  0  0  0  0  0  0  0
   39.7382   25.0765   31.7512 H   0  0  0  0  0  0  0  0  0  0  0  0
   35.5100   24.6503   32.2723 H   0  0  0  0  0  0  0  0  0  0  0  0
   35.1616   26.8180   31.1827 H   0  0  0  0  0  0  0  0  0  0  0  0
   36.4738   28.5279   28.7981 H   0  0  0  0  0  0  0  0  0  0  0  0
   40.3649   22.2202   38.5889 H   0  0  0  0  0  0  0  0  0  0  0  0
   38.2920   23.0913   37.4198 H   0  0  0  0  0  0  0  0  0  0  0  0
   42.7856   23.3816   35.3108 H   0  0  0  0  0  0  0  0  0  0  0  0
  1  2  1  0
  1 15  1  0
  3  2  1  0
  4  5  1  0
  4  3  1  0
  5  1  1  0
  6  7  2  0
  6 11  1  0
  7  8  1  0
  8  9  2  0
  9  5  1  0
 10  9  1  0
 11 10  2  0
 12  6  1  0
 12 13  2  0
 14 12  2  0
 15 16  2  0
 15 19  1  0
 18 17  2  0
 19 18  1  0
 20 19  2  0
 20 21  1  0
 21 22  2  0
 22 17  1  0
  1 23  1  6
  2 24  1  0
  2 25  1  0
  3 26  1  0
  3 27  1  0
  4 28  1  0
  4 29  1  0
  5 30  1  1
  7 31  1  0
  8 32  1  0
 10 33  1  0
 11 34  1  0
 12 35  1  0
 17 36  1  0
 18 37  1  0
 21 38  1  0
M  ISO  8  23  13  24  13  25  13  26  13  27  13  28  13  29  13  30  13
M  ISO  8  31  14  32  14  33  14  34  14  35  11  36  14  37  14  38  14
M  END
>  <minimizedAffinity>  (1) 
-4.27062273

>  <minimizedRMSD>  (1) 
3.05941486

$$$$
