
     RDKit          3D

 27 29  0  0  0  0  0  0  0  0999 V2000
   39.8940   22.6400   37.4010 C   0  0  0  0  0  0  0  0  0  0  0  0
   39.2290   23.4110   38.3670 C   0  0  0  0  0  0  0  0  0  0  0  0
   37.8460   23.6190   38.2410 C   0  0  0  0  0  0  0  0  0  0  0  0
   37.2230   23.0500   37.1740 N   0  0  0  0  0  0  0  0  0  0  0  0
   37.8930   22.3080   36.2540 C   0  0  0  0  0  0  0  0  0  0  0  0
   39.2110   22.1150   36.3820 N   0  0  0  0  0  0  0  0  0  0  0  0
   37.2210   21.7230   35.1460 N   0  0  0  0  0  0  0  0  0  0  0  0
   37.8410   21.8900   33.9820 C   0  0  0  0  0  0  0  0  0  0  0  0
   37.2620   21.3570   32.8380 C   0  0  0  0  0  0  0  0  0  0  0  0
   36.0830   20.6940   33.0210 C   0  0  0  0  0  0  0  0  0  0  0  0
   35.3830   20.1020   31.9520 N   0  0  0  0  0  0  0  0  0  0  0  0
   35.4830   20.5460   34.2220 N   0  0  0  0  0  0  0  0  0  0  0  0
   36.0590   21.0710   35.3270 C   0  0  0  0  0  0  0  0  0  0  0  0
   35.5960   20.9970   36.4860 O   0  0  0  0  0  0  0  0  0  0  0  0
   37.8940   21.5140   31.5780 N   0  0  0  0  0  0  0  0  0  0  0  0
   38.2950   22.5970   30.9240 C   0  0  0  0  0  0  0  0  0  0  0  0
   38.8560   22.2740   29.7400 N   0  0  0  0  0  0  0  0  0  0  0  0
   38.8040   20.9220   29.6490 C   0  0  0  0  0  0  0  0  0  0  0  0
   38.2140   20.5140   30.7840 N   0  0  0  0  0  0  0  0  0  0  0  0
   40.9774   22.4687   37.4839 H   0  0  0  0  0  0  0  0  0  0  0  0
   39.7836   23.8464   39.2113 H   0  0  0  0  0  0  0  0  0  0  0  0
   37.2886   24.2183   38.9759 H   0  0  0  0  0  0  0  0  0  0  0  0
   38.7927   22.4389   33.9263 H   0  0  0  0  0  0  0  0  0  0  0  0
   34.4956   19.6093   32.1274 H   0  0  0  0  0  0  0  0  0  0  0  0
   35.7584   20.1617   30.9947 H   0  0  0  0  0  0  0  0  0  0  0  0
   38.1843   23.6253   31.2988 H   0  0  0  0  0  0  0  0  0  0  0  0
   39.1674   20.2940   28.8223 H   0  0  0  0  0  0  0  0  0  0  0  0
  1  2  2  0
  3  2  1  0
  4  3  2  0
  5  6  2  0
  5  4  1  0
  6  1  1  0
  7 13  1  0
  7  5  1  0
  8  7  1  0
  9 10  1  0
  9  8  2  0
 10 12  2  0
 11 10  1  0
 12 13  1  0
 13 14  2  0
 15  9  1  0
 16 15  1  0
 17 16  2  0
 18 17  1  0
 18 19  2  0
 19 15  1  0
  1 20  1  0
  2 21  1  0
  3 22  1  0
  8 23  1  0
 11 24  1  0
 11 25  1  0
 16 26  1  0
 18 27  1  0
M  ISO  6  20  14  21  14  22  14  23  14  26  14  27  14
M  END
>  <minimizedAffinity>  (1) 
-4.96800804

>  <minimizedRMSD>  (1) 
0.647912204

$$$$
