
     RDKit          3D

 35 37  0  0  1  0  0  0  0  0999 V2000
   37.7450   23.5180   34.6410 C   0  0  2  0  0  0  0  0  0  0  0  0
   37.8330   21.9890   34.6600 C   0  0  0  0  0  0  0  0  0  0  0  0
   37.1320   21.6820   33.3490 C   0  0  0  0  0  0  0  0  0  0  0  0
   37.2080   22.9500   32.5180 C   0  0  0  0  0  0  0  0  0  0  0  0
   38.2910   23.7610   33.2740 C   0  0  1  0  0  0  0  0  0  0  0  0
   38.2180   25.1770   32.8300 C   0  0  0  0  0  0  0  0  0  0  0  0
   36.9390   25.7000   32.7210 C   0  0  0  0  0  0  0  0  0  0  0  0
   36.7170   27.0110   32.3130 C   0  0  0  0  0  0  0  0  0  0  0  0
   37.7840   27.8400   32.0010 C   0  0  0  0  0  0  0  0  0  0  0  0
   39.0500   27.3090   32.1130 C   0  0  0  0  0  0  0  0  0  0  0  0
   39.2680   26.0140   32.5160 C   0  0  0  0  0  0  0  0  0  0  0  0
   38.4700   24.1610   35.7230 C   0  0  0  0  0  0  0  0  0  0  0  0
   37.9410   25.1760   36.2820 O   0  0  0  0  0  0  0  0  0  0  0  0
   40.9350   22.1670   37.5740 C   0  0  0  0  0  0  0  0  0  0  0  0
   39.7140   22.7540   37.1690 C   0  0  0  0  0  0  0  0  0  0  0  0
   39.7460   23.5930   36.0820 C   0  0  0  0  0  0  0  0  0  0  0  0
   40.9310   23.8160   35.4590 N   0  0  0  0  0  0  0  0  0  0  0  0
   42.0810   23.2590   35.8480 C   0  0  0  0  0  0  0  0  0  0  0  0
   42.0800   22.4280   36.9160 N   0  0  0  0  0  0  0  0  0  0  0  0
   36.7454   23.9435   34.8132 H   0  0  0  0  0  0  0  0  0  0  0  0
   38.8754   21.6378   34.6601 H   0  0  0  0  0  0  0  0  0  0  0  0
   37.3988   21.5058   35.5477 H   0  0  0  0  0  0  0  0  0  0  0  0
   37.6397   20.8556   32.8301 H   0  0  0  0  0  0  0  0  0  0  0  0
   36.0889   21.3752   33.5157 H   0  0  0  0  0  0  0  0  0  0  0  0
   36.2445   23.4806   32.5082 H   0  0  0  0  0  0  0  0  0  0  0  0
   37.4427   22.7741   31.4578 H   0  0  0  0  0  0  0  0  0  0  0  0
   39.3539   23.5063   33.1503 H   0  0  0  0  0  0  0  0  0  0  0  0
   36.0768   25.0614   32.9636 H   0  0  0  0  0  0  0  0  0  0  0  0
   35.6882   27.3928   32.2373 H   0  0  0  0  0  0  0  0  0  0  0  0
   37.6258   28.8793   31.6773 H   0  0  0  0  0  0  0  0  0  0  0  0
   39.9156   27.9433   31.8716 H   0  0  0  0  0  0  0  0  0  0  0  0
   40.2990   25.6377   32.5896 H   0  0  0  0  0  0  0  0  0  0  0  0
   40.9494   21.4875   38.4389 H   0  0  0  0  0  0  0  0  0  0  0  0
   38.7752   22.5468   37.7036 H   0  0  0  0  0  0  0  0  0  0  0  0
   43.0153   23.4727   35.3081 H   0  0  0  0  0  0  0  0  0  0  0  0
  1  2  1  0
  1 12  1  0
  3  2  1  0
  4  5  1  0
  4  3  1  0
  5  1  1  0
  6  5  1  0
  7  6  2  0
  8  7  1  0
  9 10  1  0
  9  8  2  0
 10 11  2  0
 11  6  1  0
 12 16  1  0
 12 13  2  0
 15 14  2  0
 16 15  1  0
 17 18  1  0
 17 16  2  0
 18 19  2  0
 19 14  1  0
  1 20  1  6
  2 21  1  0
  2 22  1  0
  3 23  1  0
  3 24  1  0
  4 25  1  0
  4 26  1  0
  5 27  1  1
  7 28  1  0
  8 29  1  0
  9 30  1  0
 10 31  1  0
 11 32  1  0
 14 33  1  0
 15 34  1  0
 18 35  1  0
M  ISO  8  20  13  21  13  22  13  23  13  24  13  25  13  26  13  27  13
M  ISO  8  28  14  29  14  30  14  31  14  32  14  33  14  34  14  35  14
M  END
>  <minimizedAffinity>  (1) 
-4.22020578

>  <minimizedRMSD>  (1) 
2.59175539

$$$$
