
     RDKit          3D

 40 42  0  0  1  0  0  0  0  0999 V2000
   38.1580   23.3890   35.2140 C   0  0  2  0  0  0  0  0  0  0  0  0
   38.4150   21.9980   34.6220 C   0  0  0  0  0  0  0  0  0  0  0  0
   37.6230   22.1510   33.3120 C   0  0  0  0  0  0  0  0  0  0  0  0
   37.4660   23.6550   33.0900 C   0  0  0  0  0  0  0  0  0  0  0  0
   38.5540   24.1970   34.0260 C   0  0  1  0  0  0  0  0  0  0  0  0
   38.4640   25.5900   34.1440 N   0  0  0  0  0  0  0  0  0  0  0  0
   39.4090   26.3960   33.4640 C   0  0  0  0  0  0  0  0  0  0  0  0
   38.8540   27.2690   32.3880 C   0  0  0  0  0  0  0  0  0  0  0  0
   37.3820   27.5360   32.5550 C   0  0  0  0  0  0  0  0  0  0  0  0
   37.1780   27.6320   34.0720 C   0  0  0  0  0  0  0  0  0  0  0  0
   37.2510   26.1820   34.5450 C   0  0  0  0  0  0  0  0  0  0  0  0
   38.9130   23.6490   36.4260 C   0  0  0  0  0  0  0  0  0  0  0  0
   38.3340   24.2960   37.3620 O   0  0  0  0  0  0  0  0  0  0  0  0
   41.7450   21.5240   37.3770 C   0  0  0  0  0  0  0  0  0  0  0  0
   40.4340   22.0530   37.2900 C   0  0  0  0  0  0  0  0  0  0  0  0
   40.2740   23.1480   36.4780 C   0  0  0  0  0  0  0  0  0  0  0  0
   41.3460   23.6620   35.8140 N   0  0  0  0  0  0  0  0  0  0  0  0
   42.5730   23.1500   35.9090 C   0  0  0  0  0  0  0  0  0  0  0  0
   42.7680   22.0690   36.7020 N   0  0  0  0  0  0  0  0  0  0  0  0
   37.1416   23.5871   35.5851 H   0  0  0  0  0  0  0  0  0  0  0  0
   39.4847   21.8174   34.4398 H   0  0  0  0  0  0  0  0  0  0  0  0
   38.1228   21.1493   35.2579 H   0  0  0  0  0  0  0  0  0  0  0  0
   38.1749   21.6965   32.4760 H   0  0  0  0  0  0  0  0  0  0  0  0
   36.6467   21.6474   33.3694 H   0  0  0  0  0  0  0  0  0  0  0  0
   37.6576   23.9321   32.0429 H   0  0  0  0  0  0  0  0  0  0  0  0
   36.4565   24.0428   33.2913 H   0  0  0  0  0  0  0  0  0  0  0  0
   39.6138   24.0961   33.7493 H   0  0  0  0  0  0  0  0  0  0  0  0
   39.8988   27.0432   34.2064 H   0  0  0  0  0  0  0  0  0  0  0  0
   40.0953   25.6980   32.9622 H   0  0  0  0  0  0  0  0  0  0  0  0
   39.0139   26.7759   31.4178 H   0  0  0  0  0  0  0  0  0  0  0  0
   39.3747   28.2363   32.4447 H   0  0  0  0  0  0  0  0  0  0  0  0
   37.1000   28.4793   32.0644 H   0  0  0  0  0  0  0  0  0  0  0  0
   36.7605   26.7515   32.0985 H   0  0  0  0  0  0  0  0  0  0  0  0
   37.9719   28.2355   34.5362 H   0  0  0  0  0  0  0  0  0  0  0  0
   36.2295   28.1191   34.3424 H   0  0  0  0  0  0  0  0  0  0  0  0
   36.4125   25.6176   34.1110 H   0  0  0  0  0  0  0  0  0  0  0  0
   37.1939   26.1642   35.6434 H   0  0  0  0  0  0  0  0  0  0  0  0
   41.9285   20.6455   38.0131 H   0  0  0  0  0  0  0  0  0  0  0  0
   39.5914   21.6111   37.8421 H   0  0  0  0  0  0  0  0  0  0  0  0
   43.4112   23.5966   35.3541 H   0  0  0  0  0  0  0  0  0  0  0  0
  1 12  1  0
  2  1  1  0
  3  2  1  0
  4  3  1  0
  4  5  1  0
  5  6  1  0
  5  1  1  0
  6 11  1  0
  7  6  1  0
  8  9  1  0
  8  7  1  0
  9 10  1  0
 10 11  1  0
 12 16  1  0
 12 13  2  0
 15 14  2  0
 16 15  1  0
 17 18  1  0
 17 16  2  0
 18 19  2  0
 19 14  1  0
  1 20  1  1
  2 21  1  0
  2 22  1  0
  3 23  1  0
  3 24  1  0
  4 25  1  0
  4 26  1  0
  5 27  1  6
  7 28  1  0
  7 29  1  0
  8 30  1  0
  8 31  1  0
  9 32  1  0
  9 33  1  0
 10 34  1  0
 10 35  1  0
 11 36  1  0
 11 37  1  0
 14 38  1  0
 15 39  1  0
 18 40  1  0
M  ISO  8  20  13  21  13  22  13  23  13  24  13  25  13  26  13  27  13
M  ISO  8  28  13  29  13  30  13  31  13  32  13  33  13  34  13  35  13
M  ISO  5  36  13  37  13  38  14  39  14  40  14
M  END
>  <minimizedAffinity>  (1) 
-4.30548525

>  <minimizedRMSD>  (1) 
3.13216758

$$$$
