
     RDKit          3D

 32 34  0  0  1  0  0  0  0  0999 V2000
   37.4810   22.3360   34.9380 C   0  0  2  0  0  0  0  0  0  0  0  0
   36.7330   21.2980   35.7760 C   0  0  0  0  0  0  0  0  0  0  0  0
   35.7060   20.8370   34.7400 C   0  0  0  0  0  0  0  0  0  0  0  0
   36.2470   21.2620   33.3860 C   0  0  0  0  0  0  0  0  0  0  0  0
   37.7360   21.5100   33.7160 C   0  0  1  0  0  0  0  0  0  0  0  0
   38.3780   22.2690   32.6080 C   0  0  0  0  0  0  0  0  0  0  0  0
   39.5640   21.8370   32.0470 C   0  0  0  0  0  0  0  0  0  0  0  0
   39.9090   22.7200   31.0670 N   0  0  0  0  0  0  0  0  0  0  0  0
   38.9530   23.6890   31.0180 C   0  0  0  0  0  0  0  0  0  0  0  0
   38.0520   23.3960   31.9470 N   0  0  0  0  0  0  0  0  0  0  0  0
   38.6710   22.8680   35.5730 C   0  0  0  0  0  0  0  0  0  0  0  0
   39.5010   22.0510   36.0860 O   0  0  0  0  0  0  0  0  0  0  0  0
   40.1230   26.1640   34.8720 C   0  0  0  0  0  0  0  0  0  0  0  0
   39.9300   24.7610   34.8920 C   0  0  0  0  0  0  0  0  0  0  0  0
   38.8290   24.3040   35.5750 C   0  0  0  0  0  0  0  0  0  0  0  0
   38.0000   25.1970   36.1850 N   0  0  0  0  0  0  0  0  0  0  0  0
   38.1990   26.5130   36.1550 C   0  0  0  0  0  0  0  0  0  0  0  0
   39.2740   26.9990   35.4900 N   0  0  0  0  0  0  0  0  0  0  0  0
   36.9360   23.2736   34.7540 H   0  0  0  0  0  0  0  0  0  0  0  0
   37.3909   20.4767   36.0964 H   0  0  0  0  0  0  0  0  0  0  0  0
   36.3121   21.6717   36.7211 H   0  0  0  0  0  0  0  0  0  0  0  0
   35.5908   19.7437   34.7781 H   0  0  0  0  0  0  0  0  0  0  0  0
   34.7174   21.2792   34.9325 H   0  0  0  0  0  0  0  0  0  0  0  0
   35.7566   22.1787   33.0266 H   0  0  0  0  0  0  0  0  0  0  0  0
   36.0806   20.5270   32.5847 H   0  0  0  0  0  0  0  0  0  0  0  0
   38.4073   20.6491   33.8512 H   0  0  0  0  0  0  0  0  0  0  0  0
   40.1297   20.9399   32.3390 H   0  0  0  0  0  0  0  0  0  0  0  0
   38.9319   24.5522   30.3364 H   0  0  0  0  0  0  0  0  0  0  0  0
   37.2107   23.9587   32.1381 H   0  0  0  0  0  0  0  0  0  0  0  0
   40.9899   26.5790   34.3369 H   0  0  0  0  0  0  0  0  0  0  0  0
   40.6249   24.0736   34.3874 H   0  0  0  0  0  0  0  0  0  0  0  0
   37.5010   27.1951   36.6625 H   0  0  0  0  0  0  0  0  0  0  0  0
  1 11  1  0
  1  2  1  0
  3  2  1  0
  4  5  1  0
  4  3  1  0
  5  1  1  0
  6  5  1  0
  7  6  2  0
  8  7  1  0
  9  8  2  0
  9 10  1  0
 10  6  1  0
 11 15  1  0
 11 12  2  0
 13 14  2  0
 13 18  1  0
 14 15  1  0
 15 16  2  0
 17 16  1  0
 18 17  2  0
  1 19  1  6
  2 20  1  0
  2 21  1  0
  3 22  1  0
  3 23  1  0
  4 24  1  0
  4 25  1  0
  5 26  1  1
  7 27  1  0
  9 28  1  0
 10 29  1  0
 13 30  1  0
 14 31  1  0
 17 32  1  0
M  ISO  8  19  13  20  13  21  13  22  13  23  13  24  13  25  13  26  13
M  ISO  6  27  14  28  14  29   9  30  14  31  14  32  14
M  END
>  <minimizedAffinity>  (1) 
-3.68535757

>  <minimizedRMSD>  (1) 
2.9299438

$$$$
