
     RDKit          3D

 32 34  0  0  1  0  0  0  0  0999 V2000
   37.1520   22.6070   34.7930 C   0  0  2  0  0  0  0  0  0  0  0  0
   36.8340   21.4570   35.7590 C   0  0  0  0  0  0  0  0  0  0  0  0
   35.8360   20.6930   34.9020 C   0  0  0  0  0  0  0  0  0  0  0  0
   36.1400   21.0510   33.4800 C   0  0  0  0  0  0  0  0  0  0  0  0
   37.4640   21.8300   33.5750 C   0  0  1  0  0  0  0  0  0  0  0  0
   37.4550   22.6480   32.3520 N   0  0  0  0  0  0  0  0  0  0  0  0
   38.4340   22.9250   31.4750 C   0  0  0  0  0  0  0  0  0  0  0  0
   37.9450   23.7440   30.4780 C   0  0  0  0  0  0  0  0  0  0  0  0
   36.6620   23.9700   30.7460 N   0  0  0  0  0  0  0  0  0  0  0  0
   36.3530   23.3050   31.8890 C   0  0  0  0  0  0  0  0  0  0  0  0
   38.2040   23.4780   35.2890 C   0  0  0  0  0  0  0  0  0  0  0  0
   38.0180   24.7330   35.2560 O   0  0  0  0  0  0  0  0  0  0  0  0
   40.6670   22.2530   37.7110 C   0  0  0  0  0  0  0  0  0  0  0  0
   39.5250   22.8630   37.1560 C   0  0  0  0  0  0  0  0  0  0  0  0
   39.4000   22.8320   35.7890 C   0  0  0  0  0  0  0  0  0  0  0  0
   40.3630   22.2260   35.0430 N   0  0  0  0  0  0  0  0  0  0  0  0
   41.4360   21.6540   35.5870 C   0  0  0  0  0  0  0  0  0  0  0  0
   41.5940   21.6660   36.9290 N   0  0  0  0  0  0  0  0  0  0  0  0
   36.3542   23.3471   34.6324 H   0  0  0  0  0  0  0  0  0  0  0  0
   37.7249   20.8546   35.9902 H   0  0  0  0  0  0  0  0  0  0  0  0
   36.4694   21.7608   36.7513 H   0  0  0  0  0  0  0  0  0  0  0  0
   35.9533   19.6101   35.0553 H   0  0  0  0  0  0  0  0  0  0  0  0
   34.8007   20.9538   35.1667 H   0  0  0  0  0  0  0  0  0  0  0  0
   35.3441   21.6804   33.0552 H   0  0  0  0  0  0  0  0  0  0  0  0
   36.2095   20.1706   32.8242 H   0  0  0  0  0  0  0  0  0  0  0  0
   38.4327   21.3126   33.6369 H   0  0  0  0  0  0  0  0  0  0  0  0
   39.4679   22.5553   31.5415 H   0  0  0  0  0  0  0  0  0  0  0  0
   38.5112   24.1370   29.6207 H   0  0  0  0  0  0  0  0  0  0  0  0
   35.3633   23.2973   32.3690 H   0  0  0  0  0  0  0  0  0  0  0  0
   40.8044   22.2559   38.8024 H   0  0  0  0  0  0  0  0  0  0  0  0
   38.7659   23.3436   37.7906 H   0  0  0  0  0  0  0  0  0  0  0  0
   42.1904   21.1738   34.9464 H   0  0  0  0  0  0  0  0  0  0  0  0
  1 11  1  0
  1  2  1  0
  3  2  1  0
  4  5  1  0
  4  3  1  0
  5  1  1  0
  6  5  1  0
  7  6  1  0
  8  9  1  0
  8  7  2  0
  9 10  2  0
 10  6  1  0
 11 15  1  0
 12 11  2  0
 14 13  2  0
 15 14  1  0
 16 17  1  0
 16 15  2  0
 17 18  2  0
 18 13  1  0
  1 19  1  6
  2 20  1  0
  2 21  1  0
  3 22  1  0
  3 23  1  0
  4 24  1  0
  4 25  1  0
  5 26  1  1
  7 27  1  0
  8 28  1  0
 10 29  1  0
 13 30  1  0
 14 31  1  0
 17 32  1  0
M  ISO  8  19  13  20  13  21  13  22  13  23  13  24  13  25  13  26  13
M  ISO  6  27  14  28  14  29  14  30  14  31  14  32  14
M  END
>  <minimizedAffinity>  (1) 
-3.74812317

>  <minimizedRMSD>  (1) 
0.875880539

$$$$
