
     RDKit          3D

 39 41  0  0  1  0  0  0  0  0999 V2000
   36.2770   29.6750   32.2840 C   0  0  0  0  0  0  0  0  0  0  0  0
   37.0190   28.6370   31.7610 C   0  0  0  0  0  0  0  0  0  0  0  0
   37.2660   27.5360   32.5780 C   0  0  0  0  0  0  0  0  0  0  0  0
   36.7810   27.4960   33.8610 C   0  0  0  0  0  0  0  0  0  0  0  0
   36.0430   28.5270   34.3880 C   0  0  0  0  0  0  0  0  0  0  0  0
   35.7860   29.6260   33.5980 C   0  0  0  0  0  0  0  0  0  0  0  0
   37.1500   26.2460   34.5690 C   0  0  0  0  0  0  0  0  0  0  0  0
   38.5790   26.1880   34.9740 C   0  0  2  0  0  0  0  0  0  0  0  0
   40.4910   23.2470   36.0400 C   0  0  0  0  0  0  0  0  0  0  0  0
   39.6310   22.6250   36.9990 C   0  0  0  0  0  0  0  0  0  0  0  0
   38.3920   23.2350   37.2660 C   0  0  0  0  0  0  0  0  0  0  0  0
   38.1030   24.3860   36.5810 N   0  0  0  0  0  0  0  0  0  0  0  0
   38.9430   24.9440   35.6800 C   0  0  0  0  0  0  0  0  0  0  0  0
   40.1330   24.3870   35.4030 N   0  0  0  0  0  0  0  0  0  0  0  0
   38.8620   27.3670   35.9200 C   0  0  0  0  0  0  0  0  0  0  0  0
   35.9530   31.0690   31.2790 S   0  0  0  0  0  0  0  0  0  0  0  0
   36.4600   30.7420   29.8820 O   0  0  0  0  0  0  0  0  0  0  0  0
   36.6410   32.2760   31.7760 O   0  0  0  0  0  0  0  0  0  0  0  0
   34.2260   31.3650   31.1910 C   0  0  0  0  0  0  0  0  0  0  0  0
   33.1370   30.7180   31.6240 N   0  0  0  0  0  0  0  0  0  0  0  0
   32.0570   31.3690   31.2960 O   0  0  0  0  0  0  0  0  0  0  0  0
   32.4020   32.4610   30.6390 C   0  0  0  0  0  0  0  0  0  0  0  0
   33.7140   32.4540   30.5770 N   0  0  0  0  0  0  0  0  0  0  0  0
   31.5800   33.4820   30.0800 N   0  0  0  0  0  0  0  0  0  0  0  0
   37.4037   28.6771   30.7312 H   0  0  0  0  0  0  0  0  0  0  0  0
   37.8550   26.6913   32.1912 H   0  0  0  0  0  0  0  0  0  0  0  0
   35.6648   28.4765   35.4197 H   0  0  0  0  0  0  0  0  0  0  0  0
   35.1963   30.4646   33.9968 H   0  0  0  0  0  0  0  0  0  0  0  0
   36.5292   26.1629   35.4732 H   0  0  0  0  0  0  0  0  0  0  0  0
   36.9812   25.4168   33.8662 H   0  0  0  0  0  0  0  0  0  0  0  0
   39.1757   26.2298   34.0509 H   0  0  0  0  0  0  0  0  0  0  0  0
   41.4654   22.7888   35.8149 H   0  0  0  0  0  0  0  0  0  0  0  0
   39.9293   21.6986   37.5116 H   0  0  0  0  0  0  0  0  0  0  0  0
   37.6860   22.8068   37.9928 H   0  0  0  0  0  0  0  0  0  0  0  0
   38.7806   27.0278   36.9632 H   0  0  0  0  0  0  0  0  0  0  0  0
   39.8773   27.7486   35.7367 H   0  0  0  0  0  0  0  0  0  0  0  0
   38.1306   28.1679   35.7367 H   0  0  0  0  0  0  0  0  0  0  0  0
   32.0106   34.2799   29.5913 H   0  0  0  0  0  0  0  0  0  0  0  0
   30.5552   33.4221   30.1646 H   0  0  0  0  0  0  0  0  0  0  0  0
  1  6  1  0
  2  1  2  0
  2  3  1  0
  3  4  2  0
  4  5  1  0
  4  7  1  0
  6  5  2  0
  7  8  1  0
  8 13  1  0
  8 15  1  0
  9 10  2  0
 10 11  1  0
 12 11  2  0
 13 12  1  0
 14 13  2  0
 14  9  1  0
 16 18  2  0
 16  1  1  0
 17 16  2  0
 19 16  1  0
 19 20  2  0
 21 20  1  0
 22 21  1  0
 23 22  2  0
 23 19  1  0
 24 22  1  0
  2 25  1  0
  3 26  1  0
  5 27  1  0
  6 28  1  0
  7 29  1  0
  7 30  1  0
  8 31  1  6
  9 32  1  0
 10 33  1  0
 11 34  1  0
 15 35  1  0
 15 36  1  0
 15 37  1  0
 24 38  1  0
 24 39  1  0
M  ISO  8  25  14  26  14  27  14  28  14  29   8  30   8  31   8  32  14
M  ISO  5  33  14  34  14  35   8  36   8  37   8
M  END
>  <minimizedAffinity>  (1) 
-4.9303422

>  <minimizedRMSD>  (1) 
0.0204411913

$$$$
