
     RDKit          3D

 28 30  0  0  0  0  0  0  0  0999 V2000
   39.8870   22.6450   37.3200 C   0  0  0  0  0  0  0  0  0  0  0  0
   39.1150   23.2050   38.3620 C   0  0  0  0  0  0  0  0  0  0  0  0
   37.7470   23.3310   38.1930 C   0  0  0  0  0  0  0  0  0  0  0  0
   37.2000   22.9060   37.0160 N   0  0  0  0  0  0  0  0  0  0  0  0
   37.9630   22.3770   36.0410 C   0  0  0  0  0  0  0  0  0  0  0  0
   39.3060   22.2410   36.1770 N   0  0  0  0  0  0  0  0  0  0  0  0
   37.3810   21.9330   34.8070 N   0  0  0  0  0  0  0  0  0  0  0  0
   38.0450   22.3310   33.7080 C   0  0  0  0  0  0  0  0  0  0  0  0
   37.5410   21.9420   32.4850 C   0  0  0  0  0  0  0  0  0  0  0  0
   36.3970   21.1730   32.5060 C   0  0  0  0  0  0  0  0  0  0  0  0
   35.7980   20.7200   31.3040 N   0  0  0  0  0  0  0  0  0  0  0  0
   35.7660   20.7970   33.6270 N   0  0  0  0  0  0  0  0  0  0  0  0
   36.2700   21.1870   34.8230 C   0  0  0  0  0  0  0  0  0  0  0  0
   35.7640   20.8950   35.9310 O   0  0  0  0  0  0  0  0  0  0  0  0
   38.1650   22.3070   31.2580 N   0  0  0  0  0  0  0  0  0  0  0  0
   39.0030   21.7080   30.3630 C   0  0  0  0  0  0  0  0  0  0  0  0
   39.2500   22.6070   29.3580 C   0  0  0  0  0  0  0  0  0  0  0  0
   38.5610   23.7490   29.6470 N   0  0  0  0  0  0  0  0  0  0  0  0
   37.9020   23.5620   30.8040 C   0  0  0  0  0  0  0  0  0  0  0  0
   40.9747   22.5384   37.4451 H   0  0  0  0  0  0  0  0  0  0  0  0
   39.5944   23.5364   39.2949 H   0  0  0  0  0  0  0  0  0  0  0  0
   37.1173   23.7619   38.9854 H   0  0  0  0  0  0  0  0  0  0  0  0
   38.9556   22.9436   33.7816 H   0  0  0  0  0  0  0  0  0  0  0  0
   34.9433   20.1463   31.3389 H   0  0  0  0  0  0  0  0  0  0  0  0
   36.2174   20.9645   30.3956 H   0  0  0  0  0  0  0  0  0  0  0  0
   39.4075   20.6876   30.4350 H   0  0  0  0  0  0  0  0  0  0  0  0
   39.8880   22.4384   28.4780 H   0  0  0  0  0  0  0  0  0  0  0  0
   37.2570   24.3015   31.3011 H   0  0  0  0  0  0  0  0  0  0  0  0
  1  2  2  0
  3  2  1  0
  4  3  2  0
  5  6  2  0
  5  4  1  0
  6  1  1  0
  7 13  1  0
  7  5  1  0
  8  7  1  0
  9 10  1  0
  9  8  2  0
 10 12  2  0
 11 10  1  0
 12 13  1  0
 13 14  2  0
 15  9  1  0
 16 15  1  0
 17 18  1  0
 17 16  2  0
 18 19  2  0
 19 15  1  0
  1 20  1  0
  2 21  1  0
  3 22  1  0
  8 23  1  0
 11 24  1  0
 11 25  1  0
 16 26  1  0
 17 27  1  0
 19 28  1  0
M  ISO  7  20  14  21  14  22  14  23  14  26  14  27  14  28  14
M  END
>  <minimizedAffinity>  (1) 
-4.90811348

>  <minimizedRMSD>  (1) 
0.817884624

$$$$
