
     RDKit          3D

 46 50  0  0  1  0  0  0  0  0999 V2000
   37.3750   21.4290   32.3230 C   0  0  2  0  0  0  0  0  0  0  0  0
   36.5850   20.1840   31.9020 C   0  0  0  0  0  0  0  0  0  0  0  0
   35.2470   20.8430   31.5540 C   0  0  0  0  0  0  0  0  0  0  0  0
   35.5490   22.3310   31.3590 C   0  0  0  0  0  0  0  0  0  0  0  0
   37.0620   22.2750   31.1620 C   0  0  1  0  0  0  0  0  0  0  0  0
   37.6860   23.5370   30.9390 C   0  0  0  0  0  0  0  0  0  0  0  0
   38.4040   23.8920   29.7870 C   0  0  0  0  0  0  0  0  0  0  0  0
   38.8400   25.1400   29.9290 N   0  0  0  0  0  0  0  0  0  0  0  0
   38.4760   25.6720   31.0930 C   0  0  0  0  0  0  0  0  0  0  0  0
   38.7040   26.9100   31.6420 C   0  0  0  0  0  0  0  0  0  0  0  0
   38.1910   27.1960   32.9030 C   0  0  0  0  0  0  0  0  0  0  0  0
   37.4680   26.2100   33.5520 C   0  0  0  0  0  0  0  0  0  0  0  0
   37.2500   24.9650   32.9770 C   0  0  0  0  0  0  0  0  0  0  0  0
   37.7510   24.6690   31.7300 C   0  0  0  0  0  0  0  0  0  0  0  0
   38.7740   21.1550   32.5760 C   0  0  0  0  0  0  0  0  0  0  0  0
   39.3180   20.1850   31.9610 O   0  0  0  0  0  0  0  0  0  0  0  0
   41.3160   23.4140   33.9520 C   0  0  0  0  0  0  0  0  0  0  0  0
   40.6230   22.5570   33.0560 C   0  0  0  0  0  0  0  0  0  0  0  0
   39.4440   22.0180   33.5200 C   0  0  0  0  0  0  0  0  0  0  0  0
   39.0190   22.3220   34.7690 N   0  0  0  0  0  0  0  0  0  0  0  0
   39.6820   23.1280   35.5950 C   0  0  0  0  0  0  0  0  0  0  0  0
   40.8430   23.6800   35.1830 N   0  0  0  0  0  0  0  0  0  0  0  0
   39.1730   23.4200   36.9320 C   0  0  0  0  0  0  0  0  0  0  0  0
   38.1080   24.2530   37.2130 C   0  0  0  0  0  0  0  0  0  0  0  0
   37.9920   24.2230   38.5900 C   0  0  0  0  0  0  0  0  0  0  0  0
   38.9500   23.4050   39.1180 N   0  0  0  0  0  0  0  0  0  0  0  0
   39.6550   22.9270   38.0880 N   0  0  0  0  0  0  0  0  0  0  0  0
   37.1167   21.8906   33.2875 H   0  0  0  0  0  0  0  0  0  0  0  0
   37.0364   19.6860   31.0313 H   0  0  0  0  0  0  0  0  0  0  0  0
   36.5324   19.3845   32.6557 H   0  0  0  0  0  0  0  0  0  0  0  0
   34.8374   20.4115   30.6288 H   0  0  0  0  0  0  0  0  0  0  0  0
   34.5006   20.6833   32.3461 H   0  0  0  0  0  0  0  0  0  0  0  0
   35.0376   22.7382   30.4743 H   0  0  0  0  0  0  0  0  0  0  0  0
   35.2140   22.9817   32.1802 H   0  0  0  0  0  0  0  0  0  0  0  0
   37.4761   21.8532   30.2344 H   0  0  0  0  0  0  0  0  0  0  0  0
   38.5771   23.2464   28.9133 H   0  0  0  0  0  0  0  0  0  0  0  0
   39.3959   25.6380   29.2192 H   0  0  0  0  0  0  0  0  0  0  0  0
   39.2845   27.6653   31.0920 H   0  0  0  0  0  0  0  0  0  0  0  0
   38.3552   28.1778   33.3711 H   0  0  0  0  0  0  0  0  0  0  0  0
   37.0551   26.4183   34.5500 H   0  0  0  0  0  0  0  0  0  0  0  0
   36.6704   24.2070   33.5243 H   0  0  0  0  0  0  0  0  0  0  0  0
   42.2634   23.8718   33.6312 H   0  0  0  0  0  0  0  0  0  0  0  0
   41.0064   22.3365   32.0488 H   0  0  0  0  0  0  0  0  0  0  0  0
   37.4889   24.8159   36.4989 H   0  0  0  0  0  0  0  0  0  0  0  0
   37.2406   24.7753   39.1734 H   0  0  0  0  0  0  0  0  0  0  0  0
   39.0999   23.1970   40.1156 H   0  0  0  0  0  0  0  0  0  0  0  0
  1 15  1  0
  2  1  1  0
  3  2  1  0
  4  3  1  0
  5  4  1  0
  5  1  1  0
  6  5  1  0
  6 14  1  0
  7  8  1  0
  7  6  2  0
  8  9  1  0
  9 10  1  0
  9 14  2  0
 10 11  2  0
 11 12  1  0
 13 12  2  0
 14 13  1  0
 15 19  1  0
 16 15  2  0
 17 22  2  0
 18 19  2  0
 18 17  1  0
 19 20  1  0
 20 21  2  0
 21 23  1  0
 22 21  1  0
 23 24  1  0
 23 27  2  0
 24 25  2  0
 25 26  1  0
 27 26  1  0
  1 28  1  1
  2 29  1  0
  2 30  1  0
  3 31  1  0
  3 32  1  0
  4 33  1  0
  4 34  1  0
  5 35  1  6
  7 36  1  0
  8 37  1  0
 10 38  1  0
 11 39  1  0
 12 40  1  0
 13 41  1  0
 17 42  1  0
 18 43  1  0
 24 44  1  0
 25 45  1  0
 26 46  1  0
M  ISO  8  28  13  29  13  30  13  31  13  32  13  33  13  34  13  35  13
M  ISO  8  36  14  37   9  38  14  39  14  40  14  41  14  42  14  43  14
M  ISO  3  44  14  45  14  46   9
M  END
>  <minimizedAffinity>  (1) 
-6.04994774

>  <minimizedRMSD>  (1) 
2.14558506

$$$$
