
     RDKit          3D

 52 56  0  0  1  0  0  0  0  0999 V2000
   37.4140   21.3720   32.1340 C   0  0  2  0  0  0  0  0  0  0  0  0
   36.4760   20.2130   31.7720 C   0  0  0  0  0  0  0  0  0  0  0  0
   35.1520   20.9840   31.7010 C   0  0  0  0  0  0  0  0  0  0  0  0
   35.5270   22.4560   31.5440 C   0  0  0  0  0  0  0  0  0  0  0  0
   36.9820   22.3250   31.1020 C   0  0  1  0  0  0  0  0  0  0  0  0
   37.6490   23.5570   30.8660 C   0  0  0  0  0  0  0  0  0  0  0  0
   38.4430   23.8460   29.7450 C   0  0  0  0  0  0  0  0  0  0  0  0
   38.9070   25.0870   29.8540 N   0  0  0  0  0  0  0  0  0  0  0  0
   38.4900   25.6810   30.9780 C   0  0  0  0  0  0  0  0  0  0  0  0
   38.7170   26.9330   31.4920 C   0  0  0  0  0  0  0  0  0  0  0  0
   38.1420   27.2850   32.7040 C   0  0  0  0  0  0  0  0  0  0  0  0
   37.3580   26.3460   33.3440 C   0  0  0  0  0  0  0  0  0  0  0  0
   37.1400   25.0850   32.8080 C   0  0  0  0  0  0  0  0  0  0  0  0
   37.7020   24.7240   31.6120 C   0  0  0  0  0  0  0  0  0  0  0  0
   38.8130   20.9900   32.1230 C   0  0  0  0  0  0  0  0  0  0  0  0
   39.2160   20.2100   31.2030 O   0  0  0  0  0  0  0  0  0  0  0  0
   41.8590   21.9160   33.9400 C   0  0  0  0  0  0  0  0  0  0  0  0
   40.9950   21.4010   32.9460 C   0  0  0  0  0  0  0  0  0  0  0  0
   39.6470   21.5360   33.1750 C   0  0  0  0  0  0  0  0  0  0  0  0
   39.2240   22.1330   34.2980 N   0  0  0  0  0  0  0  0  0  0  0  0
   40.0430   22.6190   35.2370 C   0  0  0  0  0  0  0  0  0  0  0  0
   41.3770   22.5090   35.0540 N   0  0  0  0  0  0  0  0  0  0  0  0
   39.5360   23.2420   36.4110 N   0  0  0  0  0  0  0  0  0  0  0  0
   39.8610   22.6900   37.7110 C   0  0  0  0  0  0  0  0  0  0  0  0
   38.9500   23.4330   38.6980 C   0  0  0  0  0  0  0  0  0  0  0  0
   37.6450   23.4640   38.2530 O   0  0  0  0  0  0  0  0  0  0  0  0
   37.4560   24.1770   37.0940 C   0  0  0  0  0  0  0  0  0  0  0  0
   38.7010   24.4220   36.2970 C   0  0  0  0  0  0  0  0  0  0  0  0
   37.3498   21.7724   33.1565 H   0  0  0  0  0  0  0  0  0  0  0  0
   36.7390   19.7565   30.8064 H   0  0  0  0  0  0  0  0  0  0  0  0
   36.4889   19.3609   32.4676 H   0  0  0  0  0  0  0  0  0  0  0  0
   34.5597   20.6468   30.8376 H   0  0  0  0  0  0  0  0  0  0  0  0
   34.5418   20.8185   32.6012 H   0  0  0  0  0  0  0  0  0  0  0  0
   34.9128   22.9524   30.7783 H   0  0  0  0  0  0  0  0  0  0  0  0
   35.3745   23.0672   32.4457 H   0  0  0  0  0  0  0  0  0  0  0  0
   37.2140   21.9529   30.0932 H   0  0  0  0  0  0  0  0  0  0  0  0
   38.6479   23.1576   28.9119 H   0  0  0  0  0  0  0  0  0  0  0  0
   39.5155   25.5378   29.1558 H   0  0  0  0  0  0  0  0  0  0  0  0
   39.3489   27.6504   30.9480 H   0  0  0  0  0  0  0  0  0  0  0  0
   38.3055   28.2809   33.1415 H   0  0  0  0  0  0  0  0  0  0  0  0
   36.8928   26.6050   34.3065 H   0  0  0  0  0  0  0  0  0  0  0  0
   36.5080   24.3662   33.3501 H   0  0  0  0  0  0  0  0  0  0  0  0
   42.9472   21.8319   33.8031 H   0  0  0  0  0  0  0  0  0  0  0  0
   41.3820   20.9175   32.0369 H   0  0  0  0  0  0  0  0  0  0  0  0
   39.6562   21.6095   37.7343 H   0  0  0  0  0  0  0  0  0  0  0  0
   40.9257   22.8144   37.9579 H   0  0  0  0  0  0  0  0  0  0  0  0
   38.9842   22.9214   39.6712 H   0  0  0  0  0  0  0  0  0  0  0  0
   39.3095   24.4686   38.7885 H   0  0  0  0  0  0  0  0  0  0  0  0
   36.7487   23.6206   36.4614 H   0  0  0  0  0  0  0  0  0  0  0  0
   37.0822   25.1663   37.3965 H   0  0  0  0  0  0  0  0  0  0  0  0
   39.2341   25.2982   36.6946 H   0  0  0  0  0  0  0  0  0  0  0  0
   38.4521   24.6179   35.2436 H   0  0  0  0  0  0  0  0  0  0  0  0
  2  1  1  0
  3  2  1  0
  4  3  1  0
  5  4  1  0
  5  1  1  0
  6  5  1  0
  6 14  1  0
  7  8  1  0
  7  6  2  0
  8  9  1  0
  9 10  1  0
  9 14  2  0
 10 11  2  0
 11 12  1  0
 13 12  2  0
 14 13  1  0
 15  1  1  0
 15 19  1  0
 16 15  2  0
 17 22  2  0
 18 19  2  0
 18 17  1  0
 19 20  1  0
 20 21  2  0
 21 23  1  0
 22 21  1  0
 23 24  1  0
 24 25  1  0
 26 25  1  0
 27 26  1  0
 28 23  1  0
 28 27  1  0
  1 29  1  1
  2 30  1  0
  2 31  1  0
  3 32  1  0
  3 33  1  0
  4 34  1  0
  4 35  1  0
  5 36  1  6
  7 37  1  0
  8 38  1  0
 10 39  1  0
 11 40  1  0
 12 41  1  0
 13 42  1  0
 17 43  1  0
 18 44  1  0
 24 45  1  0
 24 46  1  0
 25 47  1  0
 25 48  1  0
 27 49  1  0
 27 50  1  0
 28 51  1  0
 28 52  1  0
M  ISO  8  29  13  30  13  31  13  32  13  33  13  34  13  35  13  36  13
M  ISO  8  37  14  38   9  39  14  40  14  41  14  42  14  43  14  44  14
M  ISO  8  45  13  46  13  47  13  48  13  49  13  50  13  51  13  52  13
M  END
>  <minimizedAffinity>  (1) 
-6.04153109

>  <minimizedRMSD>  (1) 
2.62220335

$$$$
