
     RDKit          3D

 41 44  0  0  1  0  0  0  0  0999 V2000
   36.8720   22.1810   32.9420 C   0  0  2  0  0  0  0  0  0  0  0  0
   36.3000   20.7590   32.8070 C   0  0  0  0  0  0  0  0  0  0  0  0
   35.1250   21.0520   31.8720 C   0  0  0  0  0  0  0  0  0  0  0  0
   35.4150   22.4230   31.2500 C   0  0  0  0  0  0  0  0  0  0  0  0
   36.9160   22.5260   31.5140 C   0  0  1  0  0  0  0  0  0  0  0  0
   37.5340   23.7100   31.0270 C   0  0  0  0  0  0  0  0  0  0  0  0
   38.4920   23.7570   30.0050 C   0  0  0  0  0  0  0  0  0  0  0  0
   38.8490   25.0240   29.8100 N   0  0  0  0  0  0  0  0  0  0  0  0
   38.1960   25.8620   30.6360 C   0  0  0  0  0  0  0  0  0  0  0  0
   38.2510   27.2180   30.7790 C   0  0  0  0  0  0  0  0  0  0  0  0
   37.4470   27.8300   31.7340 C   0  0  0  0  0  0  0  0  0  0  0  0
   36.6240   27.0250   32.4970 C   0  0  0  0  0  0  0  0  0  0  0  0
   36.5890   25.6500   32.3310 C   0  0  0  0  0  0  0  0  0  0  0  0
   37.3790   25.0380   31.3930 C   0  0  0  0  0  0  0  0  0  0  0  0
   38.1400   22.1990   33.6550 C   0  0  0  0  0  0  0  0  0  0  0  0
   39.1270   21.5780   33.1530 O   0  0  0  0  0  0  0  0  0  0  0  0
   38.6370   25.0030   35.9680 C   0  0  0  0  0  0  0  0  0  0  0  0
   38.5990   24.2420   34.7680 C   0  0  0  0  0  0  0  0  0  0  0  0
   38.1640   22.9390   34.9000 C   0  0  0  0  0  0  0  0  0  0  0  0
   37.8130   22.4700   36.1170 N   0  0  0  0  0  0  0  0  0  0  0  0
   37.8560   23.1980   37.2250 C   0  0  0  0  0  0  0  0  0  0  0  0
   38.2750   24.4850   37.1520 N   0  0  0  0  0  0  0  0  0  0  0  0
   37.4730   22.6510   38.4830 N   0  0  0  0  0  0  0  0  0  0  0  0
   36.3068   22.9033   33.5493 H   0  0  0  0  0  0  0  0  0  0  0  0
   37.0238   20.0662   32.3530 H   0  0  0  0  0  0  0  0  0  0  0  0
   36.0351   20.2672   33.7546 H   0  0  0  0  0  0  0  0  0  0  0  0
   35.0584   20.2827   31.0886 H   0  0  0  0  0  0  0  0  0  0  0  0
   34.1674   21.0484   32.4133 H   0  0  0  0  0  0  0  0  0  0  0  0
   34.8565   23.2256   31.7539 H   0  0  0  0  0  0  0  0  0  0  0  0
   35.1239   22.5220   30.1939 H   0  0  0  0  0  0  0  0  0  0  0  0
   37.6164   21.8828   30.9611 H   0  0  0  0  0  0  0  0  0  0  0  0
   38.8843   22.8892   29.4546 H   0  0  0  0  0  0  0  0  0  0  0  0
   39.5420   25.3269   29.1108 H   0  0  0  0  0  0  0  0  0  0  0  0
   38.9222   27.8185   30.1474 H   0  0  0  0  0  0  0  0  0  0  0  0
   37.4658   28.9205   31.8773 H   0  0  0  0  0  0  0  0  0  0  0  0
   35.9784   27.4884   33.2576 H   0  0  0  0  0  0  0  0  0  0  0  0
   35.9200   25.0430   32.9587 H   0  0  0  0  0  0  0  0  0  0  0  0
   38.9737   26.0493   35.9248 H   0  0  0  0  0  0  0  0  0  0  0  0
   38.8970   24.6644   33.7970 H   0  0  0  0  0  0  0  0  0  0  0  0
   37.5137   23.2333   39.3316 H   0  0  0  0  0  0  0  0  0  0  0  0
   37.1553   21.6731   38.5441 H   0  0  0  0  0  0  0  0  0  0  0  0
  1 15  1  0
  2  1  1  0
  3  2  1  0
  4  5  1  0
  4  3  1  0
  5  1  1  0
  6 14  1  0
  6  5  1  0
  7  6  2  0
  8  7  1  0
  8  9  1  0
  9 10  2  0
  9 14  1  0
 10 11  1  0
 11 12  2  0
 13 12  1  0
 14 13  2  0
 15 19  1  0
 16 15  2  0
 17 22  2  0
 18 19  2  0
 18 17  1  0
 19 20  1  0
 20 21  2  0
 21 23  1  0
 22 21  1  0
  1 24  1  1
  2 25  1  0
  2 26  1  0
  3 27  1  0
  3 28  1  0
  4 29  1  0
  4 30  1  0
  5 31  1  6
  7 32  1  0
  8 33  1  0
 10 34  1  0
 11 35  1  0
 12 36  1  0
 13 37  1  0
 17 38  1  0
 18 39  1  0
 23 40  1  0
 23 41  1  0
M  ISO  8  24  13  25  13  26  13  27  13  28  13  29  13  30  13  31  13
M  ISO  8  32  14  33   9  34  14  35  14  36  14  37  14  38  14  39  14
M  END
>  <minimizedAffinity>  (1) 
-5.78199339

>  <minimizedRMSD>  (1) 
0.271786273

$$$$
