
     RDKit          3D

 27 28  0  0  0  0  0  0  0  0999 V2000
   39.8690   22.6750   37.0550 C   0  0  0  0  0  0  0  0  0  0  0  0
   39.2510   23.2630   38.1630 C   0  0  0  0  0  0  0  0  0  0  0  0
   37.8590   23.3470   38.1870 C   0  0  0  0  0  0  0  0  0  0  0  0
   37.1580   22.8490   37.1230 N   0  0  0  0  0  0  0  0  0  0  0  0
   37.8000   22.2900   36.0770 C   0  0  0  0  0  0  0  0  0  0  0  0
   39.1480   22.1970   36.0330 N   0  0  0  0  0  0  0  0  0  0  0  0
   37.0560   21.7700   34.9600 N   0  0  0  0  0  0  0  0  0  0  0  0
   37.5370   22.1330   33.7650 C   0  0  0  0  0  0  0  0  0  0  0  0
   36.8580   21.6650   32.6410 C   0  0  0  0  0  0  0  0  0  0  0  0
   35.7660   20.8810   32.8680 C   0  0  0  0  0  0  0  0  0  0  0  0
   35.0050   20.3600   31.8010 N   0  0  0  0  0  0  0  0  0  0  0  0
   35.3250   20.5450   34.0830 N   0  0  0  0  0  0  0  0  0  0  0  0
   35.9830   20.9970   35.1750 C   0  0  0  0  0  0  0  0  0  0  0  0
   35.6580   20.7430   36.3570 O   0  0  0  0  0  0  0  0  0  0  0  0
   37.3840   22.0620   31.3210 C   0  0  0  0  0  0  0  0  0  0  0  0
   37.1310   23.4620   30.9110 C   0  0  0  0  0  0  0  0  0  0  0  0
   40.9662   22.6039   37.0224 H   0  0  0  0  0  0  0  0  0  0  0  0
   39.8508   23.6516   38.9992 H   0  0  0  0  0  0  0  0  0  0  0  0
   37.3371   23.8029   39.0413 H   0  0  0  0  0  0  0  0  0  0  0  0
   38.4279   22.7718   33.6738 H   0  0  0  0  0  0  0  0  0  0  0  0
   34.1834   19.7697   31.9945 H   0  0  0  0  0  0  0  0  0  0  0  0
   35.2708   20.5698   30.8283 H   0  0  0  0  0  0  0  0  0  0  0  0
   38.4730   21.9074   31.3333 H   0  0  0  0  0  0  0  0  0  0  0  0
   36.8467   21.4395   30.5904 H   0  0  0  0  0  0  0  0  0  0  0  0
   37.0173   24.0913   31.8060 H   0  0  0  0  0  0  0  0  0  0  0  0
   37.9777   23.8271   30.3112 H   0  0  0  0  0  0  0  0  0  0  0  0
   36.2101   23.5077   30.3112 H   0  0  0  0  0  0  0  0  0  0  0  0
  1  2  2  0
  2  3  1  0
  4  3  2  0
  5  4  1  0
  6  5  2  0
  6  1  1  0
  7 13  1  0
  7  5  1  0
  8  7  1  0
  9 10  1  0
  9  8  2  0
 10 12  2  0
 11 10  1  0
 12 13  1  0
 13 14  2  0
 15  9  1  0
 16 15  1  0
  1 17  1  0
  2 18  1  0
  3 19  1  0
  8 20  1  0
 11 21  1  0
 11 22  1  0
 15 23  1  0
 15 24  1  0
 16 25  1  0
 16 26  1  0
 16 27  1  0
M  ISO  8  17  14  18  14  19  14  20  14  23   8  24   8  25   8  26   8
M  ISO  1  27   8
M  END
>  <minimizedAffinity>  (1) 
-4.87024403

>  <minimizedRMSD>  (1) 
0.431050807

$$$$
