
     RDKit          3D

 46 50  0  0  1  0  0  0  0  0999 V2000
   37.3290   21.3930   32.2700 C   0  0  2  0  0  0  0  0  0  0  0  0
   36.4700   20.1750   31.9050 C   0  0  0  0  0  0  0  0  0  0  0  0
   35.1540   20.8880   31.5870 C   0  0  0  0  0  0  0  0  0  0  0  0
   35.5090   22.3580   31.3690 C   0  0  0  0  0  0  0  0  0  0  0  0
   37.0080   22.2310   31.1050 C   0  0  1  0  0  0  0  0  0  0  0  0
   37.6710   23.4580   30.8360 C   0  0  0  0  0  0  0  0  0  0  0  0
   38.4670   23.7150   29.7040 C   0  0  0  0  0  0  0  0  0  0  0  0
   38.9250   24.9620   29.7830 N   0  0  0  0  0  0  0  0  0  0  0  0
   38.5030   25.5940   30.8950 C   0  0  0  0  0  0  0  0  0  0  0  0
   38.7330   26.8530   31.3510 C   0  0  0  0  0  0  0  0  0  0  0  0
   38.1550   27.2410   32.5570 C   0  0  0  0  0  0  0  0  0  0  0  0
   37.3710   26.3190   33.2280 C   0  0  0  0  0  0  0  0  0  0  0  0
   37.1570   25.0420   32.7310 C   0  0  0  0  0  0  0  0  0  0  0  0
   37.7220   24.6520   31.5490 C   0  0  0  0  0  0  0  0  0  0  0  0
   38.7260   21.0620   32.4640 C   0  0  0  0  0  0  0  0  0  0  0  0
   39.2000   20.0500   31.8420 O   0  0  0  0  0  0  0  0  0  0  0  0
   41.4580   23.1920   33.6690 C   0  0  0  0  0  0  0  0  0  0  0  0
   40.6650   22.3530   32.8430 C   0  0  0  0  0  0  0  0  0  0  0  0
   39.4800   21.9100   33.3550 C   0  0  0  0  0  0  0  0  0  0  0  0
   39.1190   22.2840   34.6010 N   0  0  0  0  0  0  0  0  0  0  0  0
   39.8670   23.0710   35.3690 C   0  0  0  0  0  0  0  0  0  0  0  0
   41.0470   23.5330   34.9060 N   0  0  0  0  0  0  0  0  0  0  0  0
   39.3330   23.3860   36.6990 C   0  0  0  0  0  0  0  0  0  0  0  0
   39.5160   23.0060   37.9650 C   0  0  0  0  0  0  0  0  0  0  0  0
   38.7970   23.5540   38.9610 C   0  0  0  0  0  0  0  0  0  0  0  0
   37.8470   24.5490   38.5850 C   0  0  0  0  0  0  0  0  0  0  0  0
   38.0890   24.6060   36.7180 S   0  0  0  0  0  0  0  0  0  0  0  0
   37.1284   21.8804   33.2355 H   0  0  0  0  0  0  0  0  0  0  0  0
   36.8682   19.6377   31.0317 H   0  0  0  0  0  0  0  0  0  0  0  0
   36.4075   19.3947   32.6778 H   0  0  0  0  0  0  0  0  0  0  0  0
   34.7014   20.4659   30.6776 H   0  0  0  0  0  0  0  0  0  0  0  0
   34.4252   20.7677   32.4021 H   0  0  0  0  0  0  0  0  0  0  0  0
   34.9767   22.7830   30.5053 H   0  0  0  0  0  0  0  0  0  0  0  0
   35.2392   23.0283   32.1984 H   0  0  0  0  0  0  0  0  0  0  0  0
   37.3655   21.7761   30.1694 H   0  0  0  0  0  0  0  0  0  0  0  0
   38.6755   23.0044   28.8906 H   0  0  0  0  0  0  0  0  0  0  0  0
   39.5336   25.3950   29.0737 H   0  0  0  0  0  0  0  0  0  0  0  0
   39.3625   27.5510   30.7796 H   0  0  0  0  0  0  0  0  0  0  0  0
   38.3167   28.2500   32.9641 H   0  0  0  0  0  0  0  0  0  0  0  0
   36.9047   26.6068   34.1818 H   0  0  0  0  0  0  0  0  0  0  0  0
   36.5270   24.3368   33.2930 H   0  0  0  0  0  0  0  0  0  0  0  0
   42.4210   23.5688   33.2941 H   0  0  0  0  0  0  0  0  0  0  0  0
   40.9923   22.0713   31.8313 H   0  0  0  0  0  0  0  0  0  0  0  0
   40.2648   22.2344   38.1972 H   0  0  0  0  0  0  0  0  0  0  0  0
   38.9344   23.2509   40.0095 H   0  0  0  0  0  0  0  0  0  0  0  0
   37.1573   25.1283   39.2165 H   0  0  0  0  0  0  0  0  0  0  0  0
  1 15  1  0
  2  1  1  0
  3  2  1  0
  4  3  1  0
  5  4  1  0
  5  1  1  0
  6  5  1  0
  6 14  1  0
  7  8  1  0
  7  6  2  0
  8  9  1  0
  9 10  1  0
  9 14  2  0
 10 11  2  0
 11 12  1  0
 13 12  2  0
 14 13  1  0
 15 19  1  0
 16 15  2  0
 17 22  2  0
 18 19  2  0
 18 17  1  0
 19 20  1  0
 20 21  2  0
 21 23  1  0
 22 21  1  0
 23 27  1  0
 23 24  2  0
 24 25  1  0
 26 25  2  0
 27 26  1  0
  1 28  1  1
  2 29  1  0
  2 30  1  0
  3 31  1  0
  3 32  1  0
  4 33  1  0
  4 34  1  0
  5 35  1  6
  7 36  1  0
  8 37  1  0
 10 38  1  0
 11 39  1  0
 12 40  1  0
 13 41  1  0
 17 42  1  0
 18 43  1  0
 24 44  1  0
 25 45  1  0
 26 46  1  0
M  ISO  8  28  13  29  13  30  13  31  13  32  13  33  13  34  13  35  13
M  ISO  8  36  14  37   9  38  14  39  14  40  14  41  14  42  14  43  14
M  ISO  3  44  14  45  14  46  14
M  END
>  <minimizedAffinity>  (1) 
-5.77840233

>  <minimizedRMSD>  (1) 
2.31714272

$$$$
