
     RDKit          3D

 22 23  0  0  0  0  0  0  0  0999 V2000
   39.6830   22.9070   37.3100 C   0  0  0  0  0  0  0  0  0  0  0  0
   38.9360   23.1630   38.4760 C   0  0  0  0  0  0  0  0  0  0  0  0
   38.0100   24.2010   38.4330 C   0  0  0  0  0  0  0  0  0  0  0  0
   37.8660   24.9160   37.2770 N   0  0  0  0  0  0  0  0  0  0  0  0
   38.6050   24.6370   36.1800 C   0  0  0  0  0  0  0  0  0  0  0  0
   39.5120   23.6310   36.2000 N   0  0  0  0  0  0  0  0  0  0  0  0
   38.3980   25.4290   35.0110 N   0  0  0  0  0  0  0  0  0  0  0  0
   38.5970   26.8510   34.9810 C   0  0  0  0  0  0  0  0  0  0  0  0
   37.7570   27.2980   33.8110 C   0  0  0  0  0  0  0  0  0  0  0  0
   37.1370   26.0840   33.1890 C   0  0  0  0  0  0  0  0  0  0  0  0
   37.9680   24.9490   33.7090 C   0  0  0  0  0  0  0  0  0  0  0  0
   40.4233   22.0934   37.3130 H   0  0  0  0  0  0  0  0  0  0  0  0
   39.0792   22.5643   39.3876 H   0  0  0  0  0  0  0  0  0  0  0  0
   37.4022   24.4428   39.3174 H   0  0  0  0  0  0  0  0  0  0  0  0
   38.2499   27.3166   35.9152 H   0  0  0  0  0  0  0  0  0  0  0  0
   39.6554   27.1341   34.8823 H   0  0  0  0  0  0  0  0  0  0  0  0
   36.9688   27.9822   34.1583 H   0  0  0  0  0  0  0  0  0  0  0  0
   38.3811   27.8255   33.0747 H   0  0  0  0  0  0  0  0  0  0  0  0
   37.1890   26.1366   32.0915 H   0  0  0  0  0  0  0  0  0  0  0  0
   36.0706   25.9777   33.4368 H   0  0  0  0  0  0  0  0  0  0  0  0
   37.3689   24.0314   33.8040 H   0  0  0  0  0  0  0  0  0  0  0  0
   38.8051   24.6852   33.0460 H   0  0  0  0  0  0  0  0  0  0  0  0
  1  2  2  0
  3  2  1  0
  4  3  2  0
  5  6  2  0
  5  4  1  0
  6  1  1  0
  7  5  1  0
  8  7  1  0
  9  8  1  0
 10 11  1  0
 10  9  1  0
 11  7  1  0
  1 12  1  0
  2 13  1  0
  3 14  1  0
  8 15  1  0
  8 16  1  0
  9 17  1  0
  9 18  1  0
 10 19  1  0
 10 20  1  0
 11 21  1  0
 11 22  1  0
M  ISO  8  12  14  13  14  14  14  15  13  16  13  17  13  18  13  19  13
M  ISO  3  20  13  21  13  22  13
M  END
>  <minimizedAffinity>  (1) 
-3.59326577

>  <minimizedRMSD>  (1) 
3.6215539

$$$$
