
     RDKit          3D

 41 44  0  0  1  0  0  0  0  0999 V2000
   36.9230   22.1740   32.8700 C   0  0  2  0  0  0  0  0  0  0  0  0
   36.3600   20.7510   32.7560 C   0  0  0  0  0  0  0  0  0  0  0  0
   35.1450   21.0480   31.8720 C   0  0  0  0  0  0  0  0  0  0  0  0
   35.4130   22.4130   31.2260 C   0  0  0  0  0  0  0  0  0  0  0  0
   36.9200   22.5250   31.4420 C   0  0  1  0  0  0  0  0  0  0  0  0
   37.5120   23.7100   30.9400 C   0  0  0  0  0  0  0  0  0  0  0  0
   38.5150   23.7580   29.9550 C   0  0  0  0  0  0  0  0  0  0  0  0
   38.8330   25.0290   29.7280 N   0  0  0  0  0  0  0  0  0  0  0  0
   38.1140   25.8680   30.4950 C   0  0  0  0  0  0  0  0  0  0  0  0
   38.1110   27.2320   30.5900 C   0  0  0  0  0  0  0  0  0  0  0  0
   37.2480   27.8480   31.4840 C   0  0  0  0  0  0  0  0  0  0  0  0
   36.4220   27.0400   32.2430 C   0  0  0  0  0  0  0  0  0  0  0  0
   36.4460   25.6590   32.1260 C   0  0  0  0  0  0  0  0  0  0  0  0
   37.2900   25.0470   31.2510 C   0  0  0  0  0  0  0  0  0  0  0  0
   38.2220   22.1980   33.5350 C   0  0  0  0  0  0  0  0  0  0  0  0
   39.1300   21.4080   33.1260 O   0  0  0  0  0  0  0  0  0  0  0  0
   39.0670   25.3080   35.2900 C   0  0  0  0  0  0  0  0  0  0  0  0
   38.9000   24.3530   34.2550 C   0  0  0  0  0  0  0  0  0  0  0  0
   38.3720   23.1400   34.6280 C   0  0  0  0  0  0  0  0  0  0  0  0
   38.0490   22.9230   35.9110 N   0  0  0  0  0  0  0  0  0  0  0  0
   38.2090   23.8310   36.8850 C   0  0  0  0  0  0  0  0  0  0  0  0
   38.7270   25.0420   36.5570 N   0  0  0  0  0  0  0  0  0  0  0  0
   37.8270   23.5030   38.2590 C   0  0  0  0  0  0  0  0  0  0  0  0
   38.7200   23.6540   39.1340 O   0  0  0  0  0  0  0  0  0  0  0  0
   36.3692   22.8884   33.4968 H   0  0  0  0  0  0  0  0  0  0  0  0
   37.0678   20.0646   32.2682 H   0  0  0  0  0  0  0  0  0  0  0  0
   36.1411   20.2496   33.7103 H   0  0  0  0  0  0  0  0  0  0  0  0
   35.0375   20.2738   31.0980 H   0  0  0  0  0  0  0  0  0  0  0  0
   34.2140   21.0563   32.4578 H   0  0  0  0  0  0  0  0  0  0  0  0
   34.8674   23.2196   31.7375 H   0  0  0  0  0  0  0  0  0  0  0  0
   35.0903   22.4980   30.1779 H   0  0  0  0  0  0  0  0  0  0  0  0
   37.6080   21.8890   30.8657 H   0  0  0  0  0  0  0  0  0  0  0  0
   38.9629   22.8869   29.4545 H   0  0  0  0  0  0  0  0  0  0  0  0
   39.5435   25.3340   29.0475 H   0  0  0  0  0  0  0  0  0  0  0  0
   38.7858   27.8343   29.9641 H   0  0  0  0  0  0  0  0  0  0  0  0
   37.2216   28.9430   31.5858 H   0  0  0  0  0  0  0  0  0  0  0  0
   35.7277   27.5051   32.9583 H   0  0  0  0  0  0  0  0  0  0  0  0
   35.7742   25.0497   32.7484 H   0  0  0  0  0  0  0  0  0  0  0  0
   39.4875   26.2945   35.0449 H   0  0  0  0  0  0  0  0  0  0  0  0
   39.1772   24.5706   33.2130 H   0  0  0  0  0  0  0  0  0  0  0  0
   36.8182   23.1453   38.5128 H   0  0  0  0  0  0  0  0  0  0  0  0
  1 15  1  0
  2  1  1  0
  3  2  1  0
  4  5  1  0
  4  3  1  0
  5  1  1  0
  6 14  1  0
  6  5  1  0
  7  6  2  0
  8  7  1  0
  8  9  1  0
  9 10  2  0
  9 14  1  0
 10 11  1  0
 11 12  2  0
 13 12  1  0
 14 13  2  0
 15 19  1  0
 16 15  2  0
 17 22  2  0
 18 19  2  0
 18 17  1  0
 19 20  1  0
 20 21  2  0
 21 23  1  0
 22 21  1  0
 23 24  2  0
  1 25  1  1
  2 26  1  0
  2 27  1  0
  3 28  1  0
  3 29  1  0
  4 30  1  0
  4 31  1  0
  5 32  1  6
  7 33  1  0
  8 34  1  0
 10 35  1  0
 11 36  1  0
 12 37  1  0
 13 38  1  0
 17 39  1  0
 18 40  1  0
 23 41  1  0
M  ISO  8  25  13  26  13  27  13  28  13  29  13  30  13  31  13  32  13
M  ISO  8  33  14  34   9  35  14  36  14  37  14  38  14  39  14  40  14
M  ISO  1  41   6
M  END
>  <minimizedAffinity>  (1) 
-5.37499237

>  <minimizedRMSD>  (1) 
0.689434111

$$$$
