
     RDKit          3D

 36 39  0  0  1  0  0  0  0  0999 V2000
   39.4270   22.9270   37.2620 C   0  0  0  0  0  0  0  0  0  0  0  0
   38.2040   23.3570   37.8370 C   0  0  0  0  0  0  0  0  0  0  0  0
   37.5700   24.4610   37.2480 C   0  0  0  0  0  0  0  0  0  0  0  0
   38.1560   25.0490   36.1720 N   0  0  0  0  0  0  0  0  0  0  0  0
   39.3150   24.6160   35.6520 C   0  0  0  0  0  0  0  0  0  0  0  0
   39.9470   23.5480   36.2070 N   0  0  0  0  0  0  0  0  0  0  0  0
   39.8550   25.2890   34.5290 N   0  0  0  0  0  0  0  0  0  0  0  0
   40.2110   26.6790   34.5400 C   0  0  0  0  0  0  0  0  0  0  0  0
   40.1870   27.0820   33.0910 C   0  0  0  0  0  0  0  0  0  0  0  0
   39.8700   25.8660   32.2840 C   0  0  0  0  0  0  0  0  0  0  0  0
   40.1320   24.7310   33.2290 C   0  0  2  0  0  0  0  0  0  0  0  0
   39.1360   23.7070   32.9590 N   0  0  0  0  0  0  0  0  0  0  0  0
   39.2940   22.4150   33.3060 C   0  0  0  0  0  0  0  0  0  0  0  0
   38.1830   21.7440   32.9070 N   0  0  0  0  0  0  0  0  0  0  0  0
   37.3140   22.5800   32.3100 C   0  0  0  0  0  0  0  0  0  0  0  0
   36.0690   22.5190   31.7180 C   0  0  0  0  0  0  0  0  0  0  0  0
   35.5040   21.3970   31.6780 O   0  0  0  0  0  0  0  0  0  0  0  0
   35.4650   23.6070   31.1970 N   0  0  0  0  0  0  0  0  0  0  0  0
   36.0940   24.7950   31.2530 C   0  0  0  0  0  0  0  0  0  0  0  0
   35.5790   26.0110   30.7480 N   0  0  0  0  0  0  0  0  0  0  0  0
   37.3160   24.8860   31.8270 N   0  0  0  0  0  0  0  0  0  0  0  0
   37.9380   23.8110   32.3550 C   0  0  0  0  0  0  0  0  0  0  0  0
   39.9547   22.0649   37.6960 H   0  0  0  0  0  0  0  0  0  0  0  0
   37.7703   22.8458   38.7091 H   0  0  0  0  0  0  0  0  0  0  0  0
   36.6191   24.8425   37.6484 H   0  0  0  0  0  0  0  0  0  0  0  0
   39.4807   27.2634   35.1188 H   0  0  0  0  0  0  0  0  0  0  0  0
   41.1898   26.8578   35.0091 H   0  0  0  0  0  0  0  0  0  0  0  0
   39.4163   27.8500   32.9289 H   0  0  0  0  0  0  0  0  0  0  0  0
   41.1601   27.4986   32.7919 H   0  0  0  0  0  0  0  0  0  0  0  0
   38.8183   25.8728   31.9617 H   0  0  0  0  0  0  0  0  0  0  0  0
   40.4675   25.7991   31.3629 H   0  0  0  0  0  0  0  0  0  0  0  0
   41.1441   24.3082   33.1462 H   0  0  0  0  0  0  0  0  0  0  0  0
   40.1651   21.9820   33.8195 H   0  0  0  0  0  0  0  0  0  0  0  0
   34.5346   23.5292   30.7621 H   0  0  0  0  0  0  0  0  0  0  0  0
   36.1287   26.8779   30.8329 H   0  0  0  0  0  0  0  0  0  0  0  0
   34.6541   26.0300   30.2952 H   0  0  0  0  0  0  0  0  0  0  0  0
  1  2  2  0
  3  2  1  0
  4  3  2  0
  5  4  1  0
  5  6  2  0
  6  1  1  0
  7  8  1  0
  7  5  1  0
  9  8  1  0
 10  9  1  0
 10 11  1  0
 11  7  1  0
 12 11  1  0
 12 13  1  0
 14 13  2  0
 15 22  2  0
 15 14  1  0
 16 15  1  0
 17 16  2  0
 18 19  1  0
 18 16  1  0
 19 21  2  0
 20 19  1  0
 21 22  1  0
 22 12  1  0
  1 23  1  0
  2 24  1  0
  3 25  1  0
  8 26  1  0
  8 27  1  0
  9 28  1  0
  9 29  1  0
 10 30  1  0
 10 31  1  0
 11 32  1  1
 13 33  1  0
 18 34  1  0
 20 35  1  0
 20 36  1  0
M  ISO  8  23  14  24  14  25  14  26  13  27  13  28  13  29  13  30  13
M  ISO  4  31  13  32  13  33  14  34   9
M  END
>  <minimizedAffinity>  (1) 
-5.46217823

>  <minimizedRMSD>  (1) 
2.1052115

$$$$
