
     RDKit          3D

 38 41  0  0  1  0  0  0  0  0999 V2000
   39.7160   22.7500   37.7810 C   0  0  0  0  0  0  0  0  0  0  0  0
   38.9130   23.3690   38.7440 C   0  0  0  0  0  0  0  0  0  0  0  0
   38.0210   24.3310   38.3060 C   0  0  0  0  0  0  0  0  0  0  0  0
   37.9860   24.6080   36.9750 N   0  0  0  0  0  0  0  0  0  0  0  0
   38.7640   24.0020   36.0730 C   0  0  0  0  0  0  0  0  0  0  0  0
   39.6340   23.0660   36.4880 N   0  0  0  0  0  0  0  0  0  0  0  0
   38.6370   24.3760   34.7150 N   0  0  0  0  0  0  0  0  0  0  0  0
   38.8120   25.7250   34.2350 C   0  0  0  0  0  0  0  0  0  0  0  0
   38.0890   25.7570   32.9290 C   0  0  0  0  0  0  0  0  0  0  0  0
   37.5230   24.4010   32.6800 C   0  0  0  0  0  0  0  0  0  0  0  0
   38.3380   23.5220   33.5990 C   0  0  2  0  0  0  0  0  0  0  0  0
   37.4300   22.4480   34.0400 C   0  0  0  0  0  0  0  0  0  0  0  0
   37.0760   22.2600   35.3550 C   0  0  0  0  0  0  0  0  0  0  0  0
   36.2230   21.2930   35.8080 C   0  0  0  0  0  0  0  0  0  0  0  0
   35.6430   20.4110   34.9270 C   0  0  0  0  0  0  0  0  0  0  0  0
   35.9490   20.5400   33.5980 C   0  0  0  0  0  0  0  0  0  0  0  0
   35.3660   19.6610   32.7210 C   0  0  0  0  0  0  0  0  0  0  0  0
   35.6270   19.7360   31.3690 C   0  0  0  0  0  0  0  0  0  0  0  0
   36.4960   20.7290   30.9350 C   0  0  0  0  0  0  0  0  0  0  0  0
   37.0600   21.5890   31.8520 C   0  0  0  0  0  0  0  0  0  0  0  0
   36.8170   21.5370   33.2070 C   0  0  0  0  0  0  0  0  0  0  0  0
   40.4354   21.9809   38.0989 H   0  0  0  0  0  0  0  0  0  0  0  0
   38.9878   23.1013   39.8083 H   0  0  0  0  0  0  0  0  0  0  0  0
   37.3606   24.8556   39.0121 H   0  0  0  0  0  0  0  0  0  0  0  0
   38.3739   26.4476   34.9392 H   0  0  0  0  0  0  0  0  0  0  0  0
   39.8729   25.9964   34.1312 H   0  0  0  0  0  0  0  0  0  0  0  0
   37.2772   26.4981   32.9703 H   0  0  0  0  0  0  0  0  0  0  0  0
   38.7781   26.0371   32.1186 H   0  0  0  0  0  0  0  0  0  0  0  0
   36.4550   24.3638   32.9409 H   0  0  0  0  0  0  0  0  0  0  0  0
   37.5767   24.0946   31.6249 H   0  0  0  0  0  0  0  0  0  0  0  0
   39.2463   23.0929   33.1508 H   0  0  0  0  0  0  0  0  0  0  0  0
   37.5132   22.9406   36.1004 H   0  0  0  0  0  0  0  0  0  0  0  0
   35.9994   21.2200   36.8826 H   0  0  0  0  0  0  0  0  0  0  0  0
   34.9556   19.6272   35.2780 H   0  0  0  0  0  0  0  0  0  0  0  0
   34.6824   18.8873   33.1006 H   0  0  0  0  0  0  0  0  0  0  0  0
   35.1636   19.0346   30.6596 H   0  0  0  0  0  0  0  0  0  0  0  0
   36.7326   20.8282   29.8653 H   0  0  0  0  0  0  0  0  0  0  0  0
   37.7459   22.3641   31.4795 H   0  0  0  0  0  0  0  0  0  0  0  0
  1  2  2  0
  3  2  1  0
  4  3  2  0
  5  6  2  0
  5  4  1  0
  6  1  1  0
  7  5  1  0
  8  7  1  0
  9  8  1  0
 10  9  1  0
 10 11  1  0
 11 12  1  0
 11  7  1  0
 12 13  2  0
 13 14  1  0
 15 14  2  0
 16 15  1  0
 17 16  2  0
 18 17  1  0
 19 18  2  0
 19 20  1  0
 20 21  2  0
 21 16  1  0
 21 12  1  0
  1 22  1  0
  2 23  1  0
  3 24  1  0
  8 25  1  0
  8 26  1  0
  9 27  1  0
  9 28  1  0
 10 29  1  0
 10 30  1  0
 11 31  1  6
 13 32  1  0
 14 33  1  0
 15 34  1  0
 17 35  1  0
 18 36  1  0
 19 37  1  0
 20 38  1  0
M  ISO  8  22  14  23  14  24  14  25  13  26  13  27  13  28  13  29  13
M  ISO  8  30  13  31  13  32  14  33  14  34  14  35  14  36  14  37  14
M  ISO  1  38  14
M  END
>  <minimizedAffinity>  (1) 
-5.83439589

>  <minimizedRMSD>  (1) 
1.473423

$$$$
