
     RDKit          3D

 36 39  0  0  1  0  0  0  0  0999 V2000
   39.5610   22.6850   37.6640 C   0  0  0  0  0  0  0  0  0  0  0  0
   38.8340   23.4000   38.6490 C   0  0  0  0  0  0  0  0  0  0  0  0
   37.9970   24.4140   38.2250 C   0  0  0  0  0  0  0  0  0  0  0  0
   37.9090   24.6790   36.8890 N   0  0  0  0  0  0  0  0  0  0  0  0
   38.6080   23.9860   35.9780 C   0  0  0  0  0  0  0  0  0  0  0  0
   39.4360   22.9870   36.3730 N   0  0  0  0  0  0  0  0  0  0  0  0
   38.4560   24.3280   34.6110 N   0  0  0  0  0  0  0  0  0  0  0  0
   38.7440   25.6380   34.1030 C   0  0  0  0  0  0  0  0  0  0  0  0
   37.9820   25.7160   32.8090 C   0  0  0  0  0  0  0  0  0  0  0  0
   37.2510   24.4090   32.6290 C   0  0  0  0  0  0  0  0  0  0  0  0
   38.0120   23.4860   33.5390 C   0  0  2  0  0  0  0  0  0  0  0  0
   37.2040   22.3230   33.9780 C   0  0  0  0  0  0  0  0  0  0  0  0
   36.8000   21.8380   35.2010 C   0  0  0  0  0  0  0  0  0  0  0  0
   36.0620   20.7240   35.0490 N   0  0  0  0  0  0  0  0  0  0  0  0
   35.9620   20.4500   33.7360 C   0  0  0  0  0  0  0  0  0  0  0  0
   35.3180   19.4250   33.0430 C   0  0  0  0  0  0  0  0  0  0  0  0
   35.3780   19.3830   31.6600 C   0  0  0  0  0  0  0  0  0  0  0  0
   36.0720   20.3490   30.9630 C   0  0  0  0  0  0  0  0  0  0  0  0
   36.6980   21.3490   31.6760 C   0  0  0  0  0  0  0  0  0  0  0  0
   36.6600   21.4240   33.0530 C   0  0  0  0  0  0  0  0  0  0  0  0
   40.2358   21.8718   37.9695 H   0  0  0  0  0  0  0  0  0  0  0  0
   38.9332   23.1552   39.7168 H   0  0  0  0  0  0  0  0  0  0  0  0
   37.4119   24.9974   38.9512 H   0  0  0  0  0  0  0  0  0  0  0  0
   38.3989   26.4117   34.8047 H   0  0  0  0  0  0  0  0  0  0  0  0
   39.8223   25.8050   33.9641 H   0  0  0  0  0  0  0  0  0  0  0  0
   37.2614   26.5462   32.8478 H   0  0  0  0  0  0  0  0  0  0  0  0
   38.6679   25.8933   31.9676 H   0  0  0  0  0  0  0  0  0  0  0  0
   36.1991   24.4953   32.9389 H   0  0  0  0  0  0  0  0  0  0  0  0
   37.2150   24.0656   31.5846 H   0  0  0  0  0  0  0  0  0  0  0  0
   38.8643   23.0068   33.0351 H   0  0  0  0  0  0  0  0  0  0  0  0
   37.0467   22.2981   36.1692 H   0  0  0  0  0  0  0  0  0  0  0  0
   35.6430   20.1724   35.8113 H   0  0  0  0  0  0  0  0  0  0  0  0
   34.7634   18.6513   33.5941 H   0  0  0  0  0  0  0  0  0  0  0  0
   34.8691   18.5745   31.1147 H   0  0  0  0  0  0  0  0  0  0  0  0
   36.1249   20.3224   29.8646 H   0  0  0  0  0  0  0  0  0  0  0  0
   37.2523   22.1213   31.1226 H   0  0  0  0  0  0  0  0  0  0  0  0
  1  2  2  0
  3  2  1  0
  4  3  2  0
  5  6  2  0
  5  4  1  0
  6  1  1  0
  7  5  1  0
  8  7  1  0
  9  8  1  0
 10  9  1  0
 10 11  1  0
 11 12  1  0
 11  7  1  0
 12 13  2  0
 14 13  1  0
 15 14  1  0
 16 15  2  0
 17 16  1  0
 18 17  2  0
 18 19  1  0
 19 20  2  0
 20 15  1  0
 20 12  1  0
  1 21  1  0
  2 22  1  0
  3 23  1  0
  8 24  1  0
  8 25  1  0
  9 26  1  0
  9 27  1  0
 10 28  1  0
 10 29  1  0
 11 30  1  6
 13 31  1  0
 14 32  1  0
 16 33  1  0
 17 34  1  0
 18 35  1  0
 19 36  1  0
M  ISO  8  21  14  22  14  23  14  24  13  25  13  26  13  27  13  28  13
M  ISO  8  29  13  30  13  31  14  32   9  33  14  34  14  35  14  36  14
M  END
>  <minimizedAffinity>  (1) 
-5.31244564

>  <minimizedRMSD>  (1) 
1.6221472

$$$$
