
     RDKit          3D

 35 37  0  0  1  0  0  0  0  0999 V2000
   41.0930   22.9740   36.5200 C   0  0  0  0  0  0  0  0  0  0  0  0
   40.3840   22.5260   37.6400 C   0  0  0  0  0  0  0  0  0  0  0  0
   39.1190   23.0440   37.8380 C   0  0  0  0  0  0  0  0  0  0  0  0
   38.5940   23.9600   36.9620 N   0  0  0  0  0  0  0  0  0  0  0  0
   39.3340   24.3560   35.8890 C   0  0  0  0  0  0  0  0  0  0  0  0
   40.5720   23.8660   35.6730 N   0  0  0  0  0  0  0  0  0  0  0  0
   38.7330   25.3090   35.0120 N   0  0  0  0  0  0  0  0  0  0  0  0
   38.3070   26.6070   35.4150 C   0  0  0  0  0  0  0  0  0  0  0  0
   37.2770   26.9880   34.3650 C   0  0  0  0  0  0  0  0  0  0  0  0
   37.2240   25.8750   33.3480 C   0  0  0  0  0  0  0  0  0  0  0  0
   38.4680   25.1070   33.5940 C   0  0  2  0  0  0  0  0  0  0  0  0
   38.3640   23.7200   33.2270 N   0  0  0  0  0  0  0  0  0  0  0  0
   37.3010   22.9560   33.6020 C   0  0  0  0  0  0  0  0  0  0  0  0
   37.2070   21.6260   33.2460 C   0  0  0  0  0  0  0  0  0  0  0  0
   36.0040   20.8680   33.7030 C   0  0  0  0  0  0  0  0  0  0  0  0
   38.2140   21.0570   32.4920 C   0  0  0  0  0  0  0  0  0  0  0  0
   38.1370   19.8570   32.1670 O   0  0  0  0  0  0  0  0  0  0  0  0
   39.2510   21.8680   32.1480 N   0  0  0  0  0  0  0  0  0  0  0  0
   39.3430   23.1650   32.4950 C   0  0  0  0  0  0  0  0  0  0  0  0
   40.3680   23.7710   32.0930 O   0  0  0  0  0  0  0  0  0  0  0  0
   42.1036   22.5823   36.3325 H   0  0  0  0  0  0  0  0  0  0  0  0
   40.8166   21.7910   38.3347 H   0  0  0  0  0  0  0  0  0  0  0  0
   38.5269   22.7190   38.7062 H   0  0  0  0  0  0  0  0  0  0  0  0
   37.8540   26.5780   36.4170 H   0  0  0  0  0  0  0  0  0  0  0  0
   39.1359   27.3271   35.4812 H   0  0  0  0  0  0  0  0  0  0  0  0
   36.2907   27.1123   34.8358 H   0  0  0  0  0  0  0  0  0  0  0  0
   37.5523   27.9374   33.8825 H   0  0  0  0  0  0  0  0  0  0  0  0
   37.2099   26.2798   32.3253 H   0  0  0  0  0  0  0  0  0  0  0  0
   36.3187   25.2573   33.4422 H   0  0  0  0  0  0  0  0  0  0  0  0
   39.2992   25.4574   32.9645 H   0  0  0  0  0  0  0  0  0  0  0  0
   36.4987   23.4094   34.2026 H   0  0  0  0  0  0  0  0  0  0  0  0
   35.9771   20.8511   34.8025 H   0  0  0  0  0  0  0  0  0  0  0  0
   35.0956   21.3572   33.3215 H   0  0  0  0  0  0  0  0  0  0  0  0
   36.0532   19.8374   33.3215 H   0  0  0  0  0  0  0  0  0  0  0  0
   40.0139   21.4636   31.5864 H   0  0  0  0  0  0  0  0  0  0  0  0
  1  2  2  0
  2  3  1  0
  4  3  2  0
  5  4  1  0
  6  5  2  0
  6  1  1  0
  7  8  1  0
  7  5  1  0
  9  8  1  0
 10 11  1  0
 10  9  1  0
 11  7  1  0
 12 11  1  0
 12 13  1  0
 14 13  2  0
 14 15  1  0
 16 14  1  0
 17 16  2  0
 18 16  1  0
 18 19  1  0
 19 12  1  0
 20 19  2  0
  1 21  1  0
  2 22  1  0
  3 23  1  0
  8 24  1  0
  8 25  1  0
  9 26  1  0
  9 27  1  0
 10 28  1  0
 10 29  1  0
 11 30  1  6
 13 31  1  0
 15 32  1  0
 15 33  1  0
 15 34  1  0
 18 35  1  0
M  ISO  8  21  14  22  14  23  14  24  13  25  13  26  13  27  13  28  13
M  ISO  7  29  13  30  13  31  14  32   8  33   8  34   8  35   9
M  END
>  <minimizedAffinity>  (1) 
-4.57747602

>  <minimizedRMSD>  (1) 
1.77808213

$$$$
