
     RDKit          3D

 35 37  0  0  1  0  0  0  0  0999 V2000
   40.1600   23.0600   36.6650 C   0  0  0  0  0  0  0  0  0  0  0  0
   39.4610   22.7560   37.8390 C   0  0  0  0  0  0  0  0  0  0  0  0
   38.3710   23.5510   38.1450 C   0  0  0  0  0  0  0  0  0  0  0  0
   38.0210   24.5830   37.3120 N   0  0  0  0  0  0  0  0  0  0  0  0
   38.7280   24.8420   36.1820 C   0  0  0  0  0  0  0  0  0  0  0  0
   39.7830   24.0670   35.8920 N   0  0  0  0  0  0  0  0  0  0  0  0
   38.3070   25.9230   35.3680 N   0  0  0  0  0  0  0  0  0  0  0  0
   38.3120   27.2760   35.8190 C   0  0  0  0  0  0  0  0  0  0  0  0
   37.2750   27.9410   34.9350 C   0  0  0  0  0  0  0  0  0  0  0  0
   36.8350   26.9350   33.9050 C   0  0  0  0  0  0  0  0  0  0  0  0
   37.8330   25.8290   34.0250 C   0  0  1  0  0  0  0  0  0  0  0  0
   38.8620   25.8460   32.9370 C   0  0  0  0  0  0  0  0  0  0  0  0
   39.9960   26.7180   33.4970 C   0  0  0  0  0  0  0  0  0  0  0  0
   40.7410   27.2760   32.3200 C   0  0  0  0  0  0  0  0  0  0  0  0
   39.7090   27.3550   31.2400 C   0  0  0  0  0  0  0  0  0  0  0  0
   38.4480   26.6750   31.7590 C   0  0  0  0  0  0  0  0  0  0  0  0
   41.0335   22.4548   36.3809 H   0  0  0  0  0  0  0  0  0  0  0  0
   39.7648   21.9223   38.4891 H   0  0  0  0  0  0  0  0  0  0  0  0
   37.7855   23.3557   39.0555 H   0  0  0  0  0  0  0  0  0  0  0  0
   38.0253   27.3393   36.8791 H   0  0  0  0  0  0  0  0  0  0  0  0
   39.3028   27.7490   35.7516 H   0  0  0  0  0  0  0  0  0  0  0  0
   36.4134   28.2569   35.5415 H   0  0  0  0  0  0  0  0  0  0  0  0
   37.6999   28.8303   34.4465 H   0  0  0  0  0  0  0  0  0  0  0  0
   36.8577   27.3735   32.8964 H   0  0  0  0  0  0  0  0  0  0  0  0
   35.8026   26.5909   34.0655 H   0  0  0  0  0  0  0  0  0  0  0  0
   37.4033   24.8298   33.8610 H   0  0  0  0  0  0  0  0  0  0  0  0
   39.0732   24.8051   32.6508 H   0  0  0  0  0  0  0  0  0  0  0  0
   39.5796   27.5361   34.1031 H   0  0  0  0  0  0  0  0  0  0  0  0
   40.6643   26.1277   34.1412 H   0  0  0  0  0  0  0  0  0  0  0  0
   41.1433   28.2737   32.5496 H   0  0  0  0  0  0  0  0  0  0  0  0
   41.6046   26.6573   32.0347 H   0  0  0  0  0  0  0  0  0  0  0  0
   40.0695   26.8390   30.3379 H   0  0  0  0  0  0  0  0  0  0  0  0
   39.5032   28.4032   30.9775 H   0  0  0  0  0  0  0  0  0  0  0  0
   37.7092   27.4296   32.0669 H   0  0  0  0  0  0  0  0  0  0  0  0
   37.9837   26.0527   30.9798 H   0  0  0  0  0  0  0  0  0  0  0  0
  1  2  2  0
  2  3  1  0
  4  3  2  0
  5  4  1  0
  6  5  2  0
  6  1  1  0
  7  8  1  0
  7  5  1  0
  9  8  1  0
 10 11  1  0
 10  9  1  0
 11  7  1  0
 12 13  1  0
 12 11  1  0
 14 13  1  0
 15 16  1  0
 15 14  1  0
 16 12  1  0
  1 17  1  0
  2 18  1  0
  3 19  1  0
  8 20  1  0
  8 21  1  0
  9 22  1  0
  9 23  1  0
 10 24  1  0
 10 25  1  0
 11 26  1  1
 12 27  1  0
 13 28  1  0
 13 29  1  0
 14 30  1  0
 14 31  1  0
 15 32  1  0
 15 33  1  0
 16 34  1  0
 16 35  1  0
M  ISO  8  17  14  18  14  19  14  20  13  21  13  22  13  23  13  24  13
M  ISO  8  25  13  26  13  27  13  28  13  29  13  30  13  31  13  32  13
M  ISO  3  33  13  34  13  35  13
M  END
>  <minimizedAffinity>  (1) 
-4.4938798

>  <minimizedRMSD>  (1) 
1.4832257

$$$$
