
     RDKit          3D

 36 39  0  0  1  0  0  0  0  0999 V2000
   40.0640   22.9310   36.4690 C   0  0  0  0  0  0  0  0  0  0  0  0
   39.4850   22.6110   37.7010 C   0  0  0  0  0  0  0  0  0  0  0  0
   38.5030   23.4730   38.2070 C   0  0  0  0  0  0  0  0  0  0  0  0
   38.1550   24.5810   37.4840 N   0  0  0  0  0  0  0  0  0  0  0  0
   38.7400   24.8470   36.3040 C   0  0  0  0  0  0  0  0  0  0  0  0
   39.6890   24.0190   35.8090 N   0  0  0  0  0  0  0  0  0  0  0  0
   38.3250   26.0260   35.6010 N   0  0  0  0  0  0  0  0  0  0  0  0
   38.4300   27.3440   36.1350 C   0  0  0  0  0  0  0  0  0  0  0  0
   37.3990   28.1200   35.3640 C   0  0  0  0  0  0  0  0  0  0  0  0
   36.8090   27.2110   34.3400 C   0  0  0  0  0  0  0  0  0  0  0  0
   37.7460   26.0510   34.2580 C   0  0  1  0  0  0  0  0  0  0  0  0
   38.7770   26.1950   33.2230 C   0  0  0  0  0  0  0  0  0  0  0  0
   39.9630   25.6210   33.4980 N   0  0  0  0  0  0  0  0  0  0  0  0
   40.9330   25.7440   32.5440 C   0  0  0  0  0  0  0  0  0  0  0  0
   40.7820   26.3860   31.3720 N   0  0  0  0  0  0  0  0  0  0  0  0
   39.5870   26.9750   31.0750 C   0  0  0  0  0  0  0  0  0  0  0  0
   39.3830   27.6490   29.8820 C   0  0  0  0  0  0  0  0  0  0  0  0
   38.1360   28.2140   29.6700 C   0  0  0  0  0  0  0  0  0  0  0  0
   37.0990   28.1290   30.6010 C   0  0  0  0  0  0  0  0  0  0  0  0
   37.3880   27.4400   31.7630 C   0  0  0  0  0  0  0  0  0  0  0  0
   38.6090   26.8560   32.0290 C   0  0  0  0  0  0  0  0  0  0  0  0
   40.8373   22.2747   36.0433 H   0  0  0  0  0  0  0  0  0  0  0  0
   39.7907   21.7113   38.2552 H   0  0  0  0  0  0  0  0  0  0  0  0
   38.0188   23.2618   39.1719 H   0  0  0  0  0  0  0  0  0  0  0  0
   38.2032   27.3510   37.2113 H   0  0  0  0  0  0  0  0  0  0  0  0
   39.4418   27.7649   36.0396 H   0  0  0  0  0  0  0  0  0  0  0  0
   36.6121   28.4751   36.0457 H   0  0  0  0  0  0  0  0  0  0  0  0
   37.8610   28.9928   34.8795 H   0  0  0  0  0  0  0  0  0  0  0  0
   35.8083   26.8770   34.6517 H   0  0  0  0  0  0  0  0  0  0  0  0
   36.6885   27.7110   33.3677 H   0  0  0  0  0  0  0  0  0  0  0  0
   37.2356   25.1209   33.9674 H   0  0  0  0  0  0  0  0  0  0  0  0
   41.9106   25.2835   32.7498 H   0  0  0  0  0  0  0  0  0  0  0  0
   40.1820   27.7325   29.1305 H   0  0  0  0  0  0  0  0  0  0  0  0
   37.9552   28.7525   28.7280 H   0  0  0  0  0  0  0  0  0  0  0  0
   36.1132   28.5824   30.4205 H   0  0  0  0  0  0  0  0  0  0  0  0
   36.5966   27.3518   32.5219 H   0  0  0  0  0  0  0  0  0  0  0  0
  1  2  2  0
  2  3  1  0
  4  3  2  0
  5  4  1  0
  6  5  2  0
  6  1  1  0
  7  8  1  0
  7  5  1  0
  9  8  1  0
 10  9  1  0
 11 10  1  0
 11  7  1  0
 12 13  2  0
 12 11  1  0
 14 13  1  0
 15 14  2  0
 16 15  1  0
 16 21  2  0
 17 16  1  0
 18 17  2  0
 18 19  1  0
 19 20  2  0
 20 21  1  0
 21 12  1  0
  1 22  1  0
  2 23  1  0
  3 24  1  0
  8 25  1  0
  8 26  1  0
  9 27  1  0
  9 28  1  0
 10 29  1  0
 10 30  1  0
 11 31  1  6
 14 32  1  0
 17 33  1  0
 18 34  1  0
 19 35  1  0
 20 36  1  0
M  ISO  8  22  14  23  14  24  14  25  13  26  13  27  13  28  13  29  13
M  ISO  7  30  13  31  13  32  14  33  14  34  14  35  14  36  14
M  END
>  <minimizedAffinity>  (1) 
-5.09397745

>  <minimizedRMSD>  (1) 
1.75078285

$$$$
