
     RDKit          3D

 33 35  0  0  1  0  0  0  0  0999 V2000
   39.9720   22.6090   35.1530 C   0  0  0  0  0  0  0  0  0  0  0  0
   39.7450   22.1740   36.4620 C   0  0  0  0  0  0  0  0  0  0  0  0
   39.0560   23.0180   37.3150 C   0  0  0  0  0  0  0  0  0  0  0  0
   38.6350   24.2280   36.8400 N   0  0  0  0  0  0  0  0  0  0  0  0
   38.8770   24.6150   35.5590 C   0  0  0  0  0  0  0  0  0  0  0  0
   39.5450   23.8040   34.7180 N   0  0  0  0  0  0  0  0  0  0  0  0
   38.3880   25.9010   35.1780 N   0  0  0  0  0  0  0  0  0  0  0  0
   38.8080   27.1250   35.8020 C   0  0  0  0  0  0  0  0  0  0  0  0
   37.6720   28.0600   35.5140 C   0  0  0  0  0  0  0  0  0  0  0  0
   36.7220   27.3790   34.5760 C   0  0  0  0  0  0  0  0  0  0  0  0
   37.4270   26.1530   34.1390 C   0  0  1  0  0  0  0  0  0  0  0  0
   37.9280   26.1560   32.8110 N   0  0  0  0  0  0  0  0  0  0  0  0
   38.6840   27.1390   32.2850 C   0  0  0  0  0  0  0  0  0  0  0  0
   39.1710   27.1410   30.9890 C   0  0  0  0  0  0  0  0  0  0  0  0
   38.8740   26.0710   30.1670 C   0  0  0  0  0  0  0  0  0  0  0  0
   39.3120   25.9610   28.8360 N   0  0  0  0  0  0  0  0  0  0  0  0
   38.1180   25.0800   30.6810 N   0  0  0  0  0  0  0  0  0  0  0  0
   37.6830   25.1400   31.9320 C   0  0  0  0  0  0  0  0  0  0  0  0
   36.9760   24.1770   32.3580 O   0  0  0  0  0  0  0  0  0  0  0  0
   40.5169   21.9520   34.4592 H   0  0  0  0  0  0  0  0  0  0  0  0
   40.1029   21.1914   36.8033 H   0  0  0  0  0  0  0  0  0  0  0  0
   38.8514   22.7209   38.3542 H   0  0  0  0  0  0  0  0  0  0  0  0
   38.9434   26.9899   36.8852 H   0  0  0  0  0  0  0  0  0  0  0  0
   39.7754   27.4915   35.4280 H   0  0  0  0  0  0  0  0  0  0  0  0
   37.1524   28.3121   36.4502 H   0  0  0  0  0  0  0  0  0  0  0  0
   38.0523   28.9863   35.0587 H   0  0  0  0  0  0  0  0  0  0  0  0
   35.7854   27.1228   35.0930 H   0  0  0  0  0  0  0  0  0  0  0  0
   36.4476   28.0224   33.7270 H   0  0  0  0  0  0  0  0  0  0  0  0
   36.7266   25.3114   34.0332 H   0  0  0  0  0  0  0  0  0  0  0  0
   38.9308   27.9969   32.9277 H   0  0  0  0  0  0  0  0  0  0  0  0
   39.7824   27.9781   30.6210 H   0  0  0  0  0  0  0  0  0  0  0  0
   39.8906   26.7053   28.4211 H   0  0  0  0  0  0  0  0  0  0  0  0
   39.0543   25.1361   28.2755 H   0  0  0  0  0  0  0  0  0  0  0  0
  1  2  2  0
  2  3  1  0
  4  3  2  0
  5  4  1  0
  6  1  1  0
  6  5  2  0
  7  5  1  0
  7  8  1  0
  9  8  1  0
 10  9  1  0
 11 10  1  0
 11  7  1  0
 12 11  1  0
 13 12  1  0
 14 13  2  0
 15 17  2  0
 15 14  1  0
 16 15  1  0
 17 18  1  0
 18 19  2  0
 18 12  1  0
  1 20  1  0
  2 21  1  0
  3 22  1  0
  8 23  1  0
  8 24  1  0
  9 25  1  0
  9 26  1  0
 10 27  1  0
 10 28  1  0
 11 29  1  6
 13 30  1  0
 14 31  1  0
 16 32  1  0
 16 33  1  0
M  ISO  8  20  14  21  14  22  14  23  13  24  13  25  13  26  13  27  13
M  ISO  4  28  13  29  13  30  14  31  14
M  END
>  <minimizedAffinity>  (1) 
-4.81638098

>  <minimizedRMSD>  (1) 
2.55384302

$$$$
