
     RDKit          3D

 29 31  0  0  1  0  0  0  0  0999 V2000
   40.1220   23.0630   36.6480 C   0  0  0  0  0  0  0  0  0  0  0  0
   39.4610   22.8130   37.8670 C   0  0  0  0  0  0  0  0  0  0  0  0
   38.4070   23.6390   38.2030 C   0  0  0  0  0  0  0  0  0  0  0  0
   38.0530   24.6450   37.3610 N   0  0  0  0  0  0  0  0  0  0  0  0
   38.7150   24.8570   36.1910 C   0  0  0  0  0  0  0  0  0  0  0  0
   39.7490   24.0670   35.8340 N   0  0  0  0  0  0  0  0  0  0  0  0
   38.2800   25.9400   35.3570 N   0  0  0  0  0  0  0  0  0  0  0  0
   38.2900   27.3070   35.7850 C   0  0  0  0  0  0  0  0  0  0  0  0
   37.2230   27.9340   34.9190 C   0  0  0  0  0  0  0  0  0  0  0  0
   36.7820   26.9160   33.9080 C   0  0  0  0  0  0  0  0  0  0  0  0
   37.7770   25.8180   33.9900 C   0  0  1  0  0  0  0  0  0  0  0  0
   38.9200   25.9580   33.0550 C   0  0  0  0  0  0  0  0  0  0  0  0
   39.2580   27.0540   32.2850 C   0  0  0  0  0  0  0  0  0  0  0  0
   40.3770   26.7010   31.5980 C   0  0  0  0  0  0  0  0  0  0  0  0
   40.6860   25.4270   31.9590 C   0  0  0  0  0  0  0  0  0  0  0  0
   39.8030   25.0140   32.8250 O   0  0  0  0  0  0  0  0  0  0  0  0
   40.9651   22.4204   36.3543 H   0  0  0  0  0  0  0  0  0  0  0  0
   39.7733   21.9900   38.5267 H   0  0  0  0  0  0  0  0  0  0  0  0
   37.8587   23.4841   39.1439 H   0  0  0  0  0  0  0  0  0  0  0  0
   38.0348   27.3905   36.8517 H   0  0  0  0  0  0  0  0  0  0  0  0
   39.2736   27.7890   35.6834 H   0  0  0  0  0  0  0  0  0  0  0  0
   36.3677   28.2354   35.5415 H   0  0  0  0  0  0  0  0  0  0  0  0
   37.6203   28.8258   34.4121 H   0  0  0  0  0  0  0  0  0  0  0  0
   36.7755   27.3542   32.8991 H   0  0  0  0  0  0  0  0  0  0  0  0
   35.7616   26.5575   34.1086 H   0  0  0  0  0  0  0  0  0  0  0  0
   37.3115   24.8563   33.7284 H   0  0  0  0  0  0  0  0  0  0  0  0
   38.7290   28.0173   32.2373 H   0  0  0  0  0  0  0  0  0  0  0  0
   40.9293   27.3290   30.8834 H   0  0  0  0  0  0  0  0  0  0  0  0
   41.5386   24.8423   31.5832 H   0  0  0  0  0  0  0  0  0  0  0  0
  1  2  2  0
  2  3  1  0
  4  3  2  0
  5  4  1  0
  6  5  2  0
  6  1  1  0
  7  8  1  0
  7  5  1  0
  9  8  1  0
 10 11  1  0
 10  9  1  0
 11  7  1  0
 12 11  1  0
 13 12  2  0
 14 15  2  0
 14 13  1  0
 15 16  1  0
 16 12  1  0
  1 17  1  0
  2 18  1  0
  3 19  1  0
  8 20  1  0
  8 21  1  0
  9 22  1  0
  9 23  1  0
 10 24  1  0
 10 25  1  0
 11 26  1  1
 13 27  1  0
 14 28  1  0
 15 29  1  0
M  ISO  8  17  14  18  14  19  14  20  13  21  13  22  13  23  13  24  13
M  ISO  5  25  13  26  13  27  14  28  14  29  14
M  END
>  <minimizedAffinity>  (1) 
-4.25268269

>  <minimizedRMSD>  (1) 
1.23318946

$$$$
