
     RDKit          3D

 28 30  0  0  1  0  0  0  0  0999 V2000
   39.7180   22.8980   37.4880 C   0  0  0  0  0  0  0  0  0  0  0  0
   38.8290   23.2460   38.5370 C   0  0  0  0  0  0  0  0  0  0  0  0
   37.9500   24.2900   38.3200 C   0  0  0  0  0  0  0  0  0  0  0  0
   37.9670   24.9440   37.1160 N   0  0  0  0  0  0  0  0  0  0  0  0
   38.8230   24.5850   36.1460 C   0  0  0  0  0  0  0  0  0  0  0  0
   39.7040   23.5590   36.3260 N   0  0  0  0  0  0  0  0  0  0  0  0
   38.8020   25.2960   34.9110 N   0  0  0  0  0  0  0  0  0  0  0  0
   39.0530   26.7200   34.8360 C   0  0  0  0  0  0  0  0  0  0  0  0
   38.3430   27.1350   33.5790 C   0  0  0  0  0  0  0  0  0  0  0  0
   37.7890   25.9080   32.9280 C   0  0  0  0  0  0  0  0  0  0  0  0
   38.5460   24.7850   33.5840 C   0  0  2  0  0  0  0  0  0  0  0  0
   37.8470   23.5050   33.5670 C   0  0  0  0  0  0  0  0  0  0  0  0
   37.0780   22.9820   32.4270 C   0  0  0  0  0  0  0  0  0  0  0  0
   36.4710   21.3220   33.1060 S   0  0  0  0  0  0  0  0  0  0  0  0
   37.3530   21.6670   34.7360 C   0  0  0  0  0  0  0  0  0  0  0  0
   37.8440   22.6880   34.5940 N   0  0  0  0  0  0  0  0  0  0  0  0
   40.4297   22.0718   37.6327 H   0  0  0  0  0  0  0  0  0  0  0  0
   38.8389   22.7021   39.4930 H   0  0  0  0  0  0  0  0  0  0  0  0
   37.2432   24.5932   39.1065 H   0  0  0  0  0  0  0  0  0  0  0  0
   38.6374   27.2393   35.7121 H   0  0  0  0  0  0  0  0  0  0  0  0
   40.1250   26.9662   34.8240 H   0  0  0  0  0  0  0  0  0  0  0  0
   37.5247   27.8277   33.8250 H   0  0  0  0  0  0  0  0  0  0  0  0
   39.0417   27.6435   32.8984 H   0  0  0  0  0  0  0  0  0  0  0  0
   36.7093   25.8167   33.1174 H   0  0  0  0  0  0  0  0  0  0  0  0
   37.9023   25.9172   31.8339 H   0  0  0  0  0  0  0  0  0  0  0  0
   39.4697   24.5299   33.0438 H   0  0  0  0  0  0  0  0  0  0  0  0
   36.9021   23.4357   31.4405 H   0  0  0  0  0  0  0  0  0  0  0  0
   37.3872   21.0251   35.6286 H   0  0  0  0  0  0  0  0  0  0  0  0
  1  2  2  0
  3  2  1  0
  4  3  2  0
  5  6  2  0
  5  4  1  0
  6  1  1  0
  7  5  1  0
  8  7  1  0
  9  8  1  0
 10  9  1  0
 10 11  1  0
 11  7  1  0
 12 11  1  0
 12 16  1  0
 13 14  1  0
 13 12  2  0
 14 15  1  0
 16 15  2  0
  1 17  1  0
  2 18  1  0
  3 19  1  0
  8 20  1  0
  8 21  1  0
  9 22  1  0
  9 23  1  0
 10 24  1  0
 10 25  1  0
 11 26  1  6
 13 27  1  0
 15 28  1  0
M  ISO  8  17  14  18  14  19  14  20  13  21  13  22  13  23  13  24  13
M  ISO  4  25  13  26  13  27  14  28  14
M  END
>  <minimizedAffinity>  (1) 
-4.38640547

>  <minimizedRMSD>  (1) 
0.463912636

$$$$
