
     RDKit          3D

 36 38  0  0  1  0  0  0  0  0999 V2000
   40.0760   23.0410   36.6110 C   0  0  0  0  0  0  0  0  0  0  0  0
   39.4540   22.8100   37.8420 C   0  0  0  0  0  0  0  0  0  0  0  0
   38.4200   23.6580   38.2090 C   0  0  0  0  0  0  0  0  0  0  0  0
   38.0550   24.6730   37.3630 N   0  0  0  0  0  0  0  0  0  0  0  0
   38.6770   24.8640   36.1870 C   0  0  0  0  0  0  0  0  0  0  0  0
   39.6790   24.0400   35.8340 N   0  0  0  0  0  0  0  0  0  0  0  0
   38.2410   25.9390   35.3640 N   0  0  0  0  0  0  0  0  0  0  0  0
   38.3060   27.3090   35.7590 C   0  0  0  0  0  0  0  0  0  0  0  0
   37.2590   27.9760   34.8990 C   0  0  0  0  0  0  0  0  0  0  0  0
   36.7220   26.9530   33.9620 C   0  0  0  0  0  0  0  0  0  0  0  0
   37.6790   25.8070   34.0370 C   0  0  1  0  0  0  0  0  0  0  0  0
   38.6020   25.7260   32.9730 N   0  0  0  0  0  0  0  0  0  0  0  0
   38.9010   24.4510   32.4370 C   0  0  0  0  0  0  0  0  0  0  0  0
   40.1750   24.5160   31.6200 C   0  0  0  0  0  0  0  0  0  0  0  0
   40.2450   25.6580   30.7490 N   0  0  0  0  0  0  0  0  0  0  0  0
   40.1460   26.8850   31.5490 C   0  0  0  0  0  0  0  0  0  0  0  0
   38.7180   26.8460   32.1090 C   0  0  0  0  0  0  0  0  0  0  0  0
   40.9002   22.3897   36.2848 H   0  0  0  0  0  0  0  0  0  0  0  0
   39.7735   21.9851   38.4958 H   0  0  0  0  0  0  0  0  0  0  0  0
   37.8989   23.5179   39.1675 H   0  0  0  0  0  0  0  0  0  0  0  0
   38.0673   27.4217   36.8269 H   0  0  0  0  0  0  0  0  0  0  0  0
   39.3076   27.7446   35.6285 H   0  0  0  0  0  0  0  0  0  0  0  0
   36.4482   28.3665   35.5316 H   0  0  0  0  0  0  0  0  0  0  0  0
   37.6981   28.8160   34.3407 H   0  0  0  0  0  0  0  0  0  0  0  0
   36.6796   27.3530   32.9382 H   0  0  0  0  0  0  0  0  0  0  0  0
   35.6986   26.6503   34.2285 H   0  0  0  0  0  0  0  0  0  0  0  0
   37.1888   24.8319   33.8997 H   0  0  0  0  0  0  0  0  0  0  0  0
   39.0323   23.7322   33.2593 H   0  0  0  0  0  0  0  0  0  0  0  0
   38.0729   24.1298   31.7881 H   0  0  0  0  0  0  0  0  0  0  0  0
   41.0296   24.5537   32.3116 H   0  0  0  0  0  0  0  0  0  0  0  0
   40.1926   23.6216   30.9798 H   0  0  0  0  0  0  0  0  0  0  0  0
   39.4680   25.6239   30.0737 H   0  0  0  0  0  0  0  0  0  0  0  0
   40.8858   26.8823   32.3630 H   0  0  0  0  0  0  0  0  0  0  0  0
   40.3463   27.7925   30.9605 H   0  0  0  0  0  0  0  0  0  0  0  0
   38.5145   27.7699   32.6702 H   0  0  0  0  0  0  0  0  0  0  0  0
   37.9932   26.7628   31.2858 H   0  0  0  0  0  0  0  0  0  0  0  0
  1  2  2  0
  2  3  1  0
  4  3  2  0
  5  4  1  0
  6  5  2  0
  6  1  1  0
  7  8  1  0
  7  5  1  0
  9  8  1  0
 10 11  1  0
 10  9  1  0
 11  7  1  0
 12 11  1  0
 13 12  1  0
 14 13  1  0
 15 16  1  0
 15 14  1  0
 16 17  1  0
 17 12  1  0
  1 18  1  0
  2 19  1  0
  3 20  1  0
  8 21  1  0
  8 22  1  0
  9 23  1  0
  9 24  1  0
 10 25  1  0
 10 26  1  0
 11 27  1  1
 13 28  1  0
 13 29  1  0
 14 30  1  0
 14 31  1  0
 15 32  1  0
 16 33  1  0
 16 34  1  0
 17 35  1  0
 17 36  1  0
M  ISO  8  18  14  19  14  20  14  21  13  22  13  23  13  24  13  25  13
M  ISO  8  26  13  27  13  28  13  29  13  30  13  31  13  32   5  33  13
M  ISO  3  34  13  35  13  36  13
M  END
>  <minimizedAffinity>  (1) 
-4.27599907

>  <minimizedRMSD>  (1) 
1.34144306

$$$$
