
     RDKit          3D

 29 31  0  0  1  0  0  0  0  0999 V2000
   40.0750   22.9230   36.5560 C   0  0  0  0  0  0  0  0  0  0  0  0
   39.4990   22.6620   37.8040 C   0  0  0  0  0  0  0  0  0  0  0  0
   38.5200   23.5300   38.2500 C   0  0  0  0  0  0  0  0  0  0  0  0
   38.1470   24.5950   37.4810 N   0  0  0  0  0  0  0  0  0  0  0  0
   38.7280   24.8130   36.2820 C   0  0  0  0  0  0  0  0  0  0  0  0
   39.6980   23.9770   35.8090 N   0  0  0  0  0  0  0  0  0  0  0  0
   38.2950   25.9430   35.5260 N   0  0  0  0  0  0  0  0  0  0  0  0
   38.4100   27.2850   35.9920 C   0  0  0  0  0  0  0  0  0  0  0  0
   37.4240   28.0410   35.1530 C   0  0  0  0  0  0  0  0  0  0  0  0
   36.7480   27.0580   34.2380 C   0  0  0  0  0  0  0  0  0  0  0  0
   37.6850   25.9100   34.1960 C   0  0  1  0  0  0  0  0  0  0  0  0
   38.6380   25.9300   33.1370 C   0  0  0  0  0  0  0  0  0  0  0  0
   39.1220   27.0460   32.5600 C   0  0  0  0  0  0  0  0  0  0  0  0
   40.0300   27.1240   31.5580 C   0  0  0  0  0  0  0  0  0  0  0  0
   40.4450   25.7120   31.1560 C   0  0  0  0  0  0  0  0  0  0  0  0
   39.4170   24.5910   32.3310 S   0  0  0  0  0  0  0  0  0  0  0  0
   40.8566   22.2490   36.1754 H   0  0  0  0  0  0  0  0  0  0  0  0
   39.8135   21.7981   38.4079 H   0  0  0  0  0  0  0  0  0  0  0  0
   38.0407   23.3626   39.2258 H   0  0  0  0  0  0  0  0  0  0  0  0
   38.1502   27.3530   37.0587 H   0  0  0  0  0  0  0  0  0  0  0  0
   39.4332   27.6793   35.9047 H   0  0  0  0  0  0  0  0  0  0  0  0
   36.6770   28.5253   35.7991 H   0  0  0  0  0  0  0  0  0  0  0  0
   37.9353   28.8201   34.5686 H   0  0  0  0  0  0  0  0  0  0  0  0
   35.7722   26.7525   34.6436 H   0  0  0  0  0  0  0  0  0  0  0  0
   36.5436   27.4763   33.2414 H   0  0  0  0  0  0  0  0  0  0  0  0
   37.1594   24.9702   33.9714 H   0  0  0  0  0  0  0  0  0  0  0  0
   38.7369   28.0015   32.9455 H   0  0  0  0  0  0  0  0  0  0  0  0
   40.4069   28.0540   31.1074 H   0  0  0  0  0  0  0  0  0  0  0  0
   41.1617   25.4080   30.3789 H   0  0  0  0  0  0  0  0  0  0  0  0
  1  2  2  0
  2  3  1  0
  4  3  2  0
  5  4  1  0
  6  5  2  0
  6  1  1  0
  7  8  1  0
  7  5  1  0
  9  8  1  0
 10  9  1  0
 11 10  1  0
 11  7  1  0
 12 11  1  0
 13 12  2  0
 14 13  1  0
 15 14  2  0
 15 16  1  0
 16 12  1  0
  1 17  1  0
  2 18  1  0
  3 19  1  0
  8 20  1  0
  8 21  1  0
  9 22  1  0
  9 23  1  0
 10 24  1  0
 10 25  1  0
 11 26  1  1
 13 27  1  0
 14 28  1  0
 15 29  1  0
M  ISO  8  17  14  18  14  19  14  20  13  21  13  22  13  23  13  24  13
M  ISO  5  25  13  26  13  27  14  28  14  29  14
M  END
>  <minimizedAffinity>  (1) 
-4.24076653

>  <minimizedRMSD>  (1) 
1.42128038

$$$$
