
     RDKit          3D

 31 33  0  0  1  0  0  0  0  0999 V2000
   40.5900   23.6450   35.2740 C   0  0  0  0  0  0  0  0  0  0  0  0
   39.7900   22.7410   35.9790 C   0  0  0  0  0  0  0  0  0  0  0  0
   38.4760   23.1130   36.2180 C   0  0  0  0  0  0  0  0  0  0  0  0
   38.0140   24.3210   35.7680 N   0  0  0  0  0  0  0  0  0  0  0  0
   38.8240   25.1570   35.0930 C   0  0  0  0  0  0  0  0  0  0  0  0
   40.1230   24.8230   34.8410 N   0  0  0  0  0  0  0  0  0  0  0  0
   38.2820   26.4040   34.6490 N   0  0  0  0  0  0  0  0  0  0  0  0
   37.7590   27.3860   35.5460 C   0  0  0  0  0  0  0  0  0  0  0  0
   36.8890   28.2310   34.6650 C   0  0  0  0  0  0  0  0  0  0  0  0
   36.9250   27.6700   33.2880 C   0  0  0  0  0  0  0  0  0  0  0  0
   38.1870   26.8450   33.2590 C   0  0  2  0  0  0  0  0  0  0  0  0
   37.9180   25.7070   32.3300 C   0  0  0  0  0  0  0  0  0  0  0  0
   36.6510   25.1750   32.2490 C   0  0  0  0  0  0  0  0  0  0  0  0
   36.4930   24.1170   31.3560 C   0  0  0  0  0  0  0  0  0  0  0  0
   37.5510   23.6590   30.6220 C   0  0  0  0  0  0  0  0  0  0  0  0
   38.8250   24.2150   30.7210 C   0  0  0  0  0  0  0  0  0  0  0  0
   38.9320   25.2260   31.5870 N   0  0  0  0  0  0  0  0  0  0  0  0
   41.6376   23.3800   35.0682 H   0  0  0  0  0  0  0  0  0  0  0  0
   40.1859   21.7762   36.3290 H   0  0  0  0  0  0  0  0  0  0  0  0
   37.8047   22.4379   36.7690 H   0  0  0  0  0  0  0  0  0  0  0  0
   37.1694   26.9144   36.3460 H   0  0  0  0  0  0  0  0  0  0  0  0
   38.5438   27.9635   36.0565 H   0  0  0  0  0  0  0  0  0  0  0  0
   35.8561   28.2200   35.0432 H   0  0  0  0  0  0  0  0  0  0  0  0
   37.2539   29.2687   34.6588 H   0  0  0  0  0  0  0  0  0  0  0  0
   36.0427   27.0406   33.0997 H   0  0  0  0  0  0  0  0  0  0  0  0
   36.9138   28.4513   32.5137 H   0  0  0  0  0  0  0  0  0  0  0  0
   39.1074   27.3445   32.9222 H   0  0  0  0  0  0  0  0  0  0  0  0
   35.8155   25.5609   32.8515 H   0  0  0  0  0  0  0  0  0  0  0  0
   35.5060   23.6453   31.2406 H   0  0  0  0  0  0  0  0  0  0  0  0
   37.3911   22.8209   29.9277 H   0  0  0  0  0  0  0  0  0  0  0  0
   39.6779   23.8489   30.1306 H   0  0  0  0  0  0  0  0  0  0  0  0
  1  2  2  0
  2  3  1  0
  4  3  2  0
  5  4  1  0
  6  5  2  0
  6  1  1  0
  7  5  1  0
  7  8  1  0
  9  8  1  0
 10  9  1  0
 11 10  1  0
 11  7  1  0
 12 11  1  0
 13 12  2  0
 14 13  1  0
 15 16  1  0
 15 14  2  0
 16 17  2  0
 17 12  1  0
  1 18  1  0
  2 19  1  0
  3 20  1  0
  8 21  1  0
  8 22  1  0
  9 23  1  0
  9 24  1  0
 10 25  1  0
 10 26  1  0
 11 27  1  6
 13 28  1  0
 14 29  1  0
 15 30  1  0
 16 31  1  0
M  ISO  8  18  14  19  14  20  14  21  13  22  13  23  13  24  13  25  13
M  ISO  6  26  13  27  13  28  14  29  14  30  14  31  14
M  END
>  <minimizedAffinity>  (1) 
-4.15217638

>  <minimizedRMSD>  (1) 
2.76539803

$$$$
