
     RDKit          3D

 29 31  0  0  1  0  0  0  0  0999 V2000
   39.7930   22.8390   37.5030 C   0  0  0  0  0  0  0  0  0  0  0  0
   38.7030   23.2100   38.3330 C   0  0  0  0  0  0  0  0  0  0  0  0
   37.9060   24.2630   37.9250 C   0  0  0  0  0  0  0  0  0  0  0  0
   38.1820   24.9160   36.7500 N   0  0  0  0  0  0  0  0  0  0  0  0
   39.2280   24.5320   35.9910 C   0  0  0  0  0  0  0  0  0  0  0  0
   40.0200   23.5000   36.3750 N   0  0  0  0  0  0  0  0  0  0  0  0
   39.4820   25.2350   34.7790 N   0  0  0  0  0  0  0  0  0  0  0  0
   39.7690   26.6530   34.7530 C   0  0  0  0  0  0  0  0  0  0  0  0
   39.4450   27.0500   33.3450 C   0  0  0  0  0  0  0  0  0  0  0  0
   38.9310   25.8410   32.6270 C   0  0  0  0  0  0  0  0  0  0  0  0
   39.5050   24.7150   33.4360 C   0  0  2  0  0  0  0  0  0  0  0  0
   38.8070   23.4770   33.2680 N   0  0  0  0  0  0  0  0  0  0  0  0
   37.4730   23.3610   33.1870 N   0  0  0  0  0  0  0  0  0  0  0  0
   37.1170   22.0890   33.0330 C   0  0  0  0  0  0  0  0  0  0  0  0
   38.2620   21.3160   33.0080 C   0  0  0  0  0  0  0  0  0  0  0  0
   39.2820   22.2390   33.1590 C   0  0  0  0  0  0  0  0  0  0  0  0
   40.4484   22.0050   37.7943 H   0  0  0  0  0  0  0  0  0  0  0  0
   38.4987   22.6757   39.2725 H   0  0  0  0  0  0  0  0  0  0  0  0
   37.0511   24.5774   38.5417 H   0  0  0  0  0  0  0  0  0  0  0  0
   39.1354   27.1955   35.4701 H   0  0  0  0  0  0  0  0  0  0  0  0
   40.8064   26.8853   35.0356 H   0  0  0  0  0  0  0  0  0  0  0  0
   38.6766   27.8371   33.3471 H   0  0  0  0  0  0  0  0  0  0  0  0
   40.3431   27.4383   32.8425 H   0  0  0  0  0  0  0  0  0  0  0  0
   37.8314   25.8135   32.6314 H   0  0  0  0  0  0  0  0  0  0  0  0
   39.2154   25.8076   31.5649 H   0  0  0  0  0  0  0  0  0  0  0  0
   40.5201   24.4328   33.1199 H   0  0  0  0  0  0  0  0  0  0  0  0
   36.0864   21.7157   32.9411 H   0  0  0  0  0  0  0  0  0  0  0  0
   38.3435   20.2249   32.8948 H   0  0  0  0  0  0  0  0  0  0  0  0
   40.3511   21.9815   33.1856 H   0  0  0  0  0  0  0  0  0  0  0  0
  1  2  2  0
  3  2  1  0
  4  3  2  0
  5  6  2  0
  5  4  1  0
  6  1  1  0
  7  5  1  0
  8  7  1  0
  9  8  1  0
 10  9  1  0
 10 11  1  0
 11  7  1  0
 12 11  1  0
 13 12  1  0
 14 13  2  0
 15 14  1  0
 15 16  2  0
 16 12  1  0
  1 17  1  0
  2 18  1  0
  3 19  1  0
  8 20  1  0
  8 21  1  0
  9 22  1  0
  9 23  1  0
 10 24  1  0
 10 25  1  0
 11 26  1  6
 14 27  1  0
 15 28  1  0
 16 29  1  0
M  ISO  8  17  14  18  14  19  14  20  13  21  13  22  13  23  13  24  13
M  ISO  5  25  13  26  13  27  14  28  14  29  14
M  END
>  <minimizedAffinity>  (1) 
-4.06102514

>  <minimizedRMSD>  (1) 
1.30324447

$$$$
