
     RDKit          3D

 35 37  0  0  1  0  0  0  0  0999 V2000
   39.7320   22.8340   37.5340 C   0  0  0  0  0  0  0  0  0  0  0  0
   38.6940   23.2230   38.3880 C   0  0  0  0  0  0  0  0  0  0  0  0
   37.9100   24.2960   37.9980 C   0  0  0  0  0  0  0  0  0  0  0  0
   38.1720   24.9230   36.8180 N   0  0  0  0  0  0  0  0  0  0  0  0
   39.1750   24.5260   36.0200 C   0  0  0  0  0  0  0  0  0  0  0  0
   39.9450   23.4810   36.3930 N   0  0  0  0  0  0  0  0  0  0  0  0
   39.3970   25.2200   34.8050 N   0  0  0  0  0  0  0  0  0  0  0  0
   39.6840   26.6170   34.7310 C   0  0  0  0  0  0  0  0  0  0  0  0
   39.3230   27.0000   33.3280 C   0  0  0  0  0  0  0  0  0  0  0  0
   38.8050   25.7720   32.6320 C   0  0  0  0  0  0  0  0  0  0  0  0
   39.3760   24.6770   33.4690 C   0  0  2  0  0  0  0  0  0  0  0  0
   38.7300   23.4420   33.4410 N   0  0  0  0  0  0  0  0  0  0  0  0
   37.3900   23.3810   33.0030 C   0  0  0  0  0  0  0  0  0  0  0  0
   37.1660   22.6540   31.6940 C   0  0  0  0  0  0  0  0  0  0  0  0
   37.8350   21.4510   31.6150 O   0  0  0  0  0  0  0  0  0  0  0  0
   38.5830   21.1250   32.7200 C   0  0  0  0  0  0  0  0  0  0  0  0
   39.4760   22.2840   33.0910 C   0  0  0  0  0  0  0  0  0  0  0  0
   40.3766   21.9862   37.8093 H   0  0  0  0  0  0  0  0  0  0  0  0
   38.5074   22.6955   39.3351 H   0  0  0  0  0  0  0  0  0  0  0  0
   37.0824   24.6389   38.6363 H   0  0  0  0  0  0  0  0  0  0  0  0
   39.0758   27.1779   35.4559 H   0  0  0  0  0  0  0  0  0  0  0  0
   40.7342   26.8416   34.9690 H   0  0  0  0  0  0  0  0  0  0  0  0
   38.5454   27.7779   33.3414 H   0  0  0  0  0  0  0  0  0  0  0  0
   40.2032   27.3965   32.8007 H   0  0  0  0  0  0  0  0  0  0  0  0
   37.7053   25.7451   32.6346 H   0  0  0  0  0  0  0  0  0  0  0  0
   39.0868   25.7118   31.5704 H   0  0  0  0  0  0  0  0  0  0  0  0
   40.3618   24.4108   33.0598 H   0  0  0  0  0  0  0  0  0  0  0  0
   36.8022   22.8699   33.7797 H   0  0  0  0  0  0  0  0  0  0  0  0
   37.0813   24.4221   32.8276 H   0  0  0  0  0  0  0  0  0  0  0  0
   36.0887   22.4621   31.5815 H   0  0  0  0  0  0  0  0  0  0  0  0
   37.5591   23.2977   30.8933 H   0  0  0  0  0  0  0  0  0  0  0  0
   37.9120   20.8968   33.5612 H   0  0  0  0  0  0  0  0  0  0  0  0
   39.2036   20.2456   32.4928 H   0  0  0  0  0  0  0  0  0  0  0  0
   40.0997   21.9911   33.9484 H   0  0  0  0  0  0  0  0  0  0  0  0
   40.0934   22.5304   32.2146 H   0  0  0  0  0  0  0  0  0  0  0  0
  1  2  2  0
  3  2  1  0
  4  3  2  0
  5  6  2  0
  5  4  1  0
  6  1  1  0
  7  5  1  0
  8  7  1  0
  9  8  1  0
 10  9  1  0
 10 11  1  0
 11  7  1  0
 12 11  1  0
 13 12  1  0
 14 13  1  0
 15 14  1  0
 15 16  1  0
 16 17  1  0
 17 12  1  0
  1 18  1  0
  2 19  1  0
  3 20  1  0
  8 21  1  0
  8 22  1  0
  9 23  1  0
  9 24  1  0
 10 25  1  0
 10 26  1  0
 11 27  1  6
 13 28  1  0
 13 29  1  0
 14 30  1  0
 14 31  1  0
 16 32  1  0
 16 33  1  0
 17 34  1  0
 17 35  1  0
M  ISO  8  18  14  19  14  20  14  21  13  22  13  23  13  24  13  25  13
M  ISO  8  26  13  27  13  28  13  29  13  30  13  31  13  32  13  33  13
M  ISO  2  34  13  35  13
M  END
>  <minimizedAffinity>  (1) 
-4.17268276

>  <minimizedRMSD>  (1) 
1.14149392

$$$$
