
     RDKit          3D

 24 25  0  0  1  0  0  0  0  0999 V2000
   39.7090   22.9310   37.2500 C   0  0  0  0  0  0  0  0  0  0  0  0
   38.9530   23.1550   38.4290 C   0  0  0  0  0  0  0  0  0  0  0  0
   38.0080   24.1810   38.4050 C   0  0  0  0  0  0  0  0  0  0  0  0
   37.8440   24.9220   37.2700 N   0  0  0  0  0  0  0  0  0  0  0  0
   38.5900   24.6720   36.1620 C   0  0  0  0  0  0  0  0  0  0  0  0
   39.5040   23.6850   36.1760 N   0  0  0  0  0  0  0  0  0  0  0  0
   38.3650   25.4870   35.0080 N   0  0  0  0  0  0  0  0  0  0  0  0
   38.5260   26.9050   34.9940 C   0  0  0  0  0  0  0  0  0  0  0  0
   37.6420   27.3440   33.8550 C   0  0  0  0  0  0  0  0  0  0  0  0
   37.0680   26.1220   33.2030 C   0  0  0  0  0  0  0  0  0  0  0  0
   37.9450   25.0070   33.7050 C   0  0  1  0  0  0  0  0  0  0  0  0
   39.1220   24.8210   32.8160 C   0  0  0  0  0  0  0  0  0  0  0  0
   38.9790   24.9790   31.5950 O   0  0  0  0  0  0  0  0  0  0  0  0
   40.4653   22.1326   37.2251 H   0  0  0  0  0  0  0  0  0  0  0  0
   39.1062   22.5421   39.3295 H   0  0  0  0  0  0  0  0  0  0  0  0
   37.3982   24.3919   39.2959 H   0  0  0  0  0  0  0  0  0  0  0  0
   38.1936   27.3486   35.9441 H   0  0  0  0  0  0  0  0  0  0  0  0
   39.5734   27.2177   34.8708 H   0  0  0  0  0  0  0  0  0  0  0  0
   36.8285   27.9771   34.2389 H   0  0  0  0  0  0  0  0  0  0  0  0
   38.2264   27.9228   33.1246 H   0  0  0  0  0  0  0  0  0  0  0  0
   37.1211   26.2001   32.1071 H   0  0  0  0  0  0  0  0  0  0  0  0
   36.0051   25.9699   33.4418 H   0  0  0  0  0  0  0  0  0  0  0  0
   37.4328   24.0341   33.7393 H   0  0  0  0  0  0  0  0  0  0  0  0
   40.1021   24.5481   33.2343 H   0  0  0  0  0  0  0  0  0  0  0  0
  1  2  2  0
  3  2  1  0
  4  3  2  0
  5  6  2  0
  5  4  1  0
  6  1  1  0
  7  5  1  0
  8  7  1  0
  9  8  1  0
 10 11  1  0
 10  9  1  0
 11  7  1  0
 12 11  1  0
 13 12  2  0
  1 14  1  0
  2 15  1  0
  3 16  1  0
  8 17  1  0
  8 18  1  0
  9 19  1  0
  9 20  1  0
 10 21  1  0
 10 22  1  0
 11 23  1  1
 12 24  1  0
M  ISO  8  14  14  15  14  16  14  17  13  18  13  19  13  20  13  21  13
M  ISO  3  22  13  23  13  24   6
M  END
>  <minimizedAffinity>  (1) 
-3.67843533

>  <minimizedRMSD>  (1) 
0.149659038

$$$$
