
     RDKit          3D

 45 47  0  0  1  0  0  0  0  0999 V2000
   39.7760   23.0410   37.1370 C   0  0  0  0  0  0  0  0  0  0  0  0
   39.0290   23.1240   38.3250 C   0  0  0  0  0  0  0  0  0  0  0  0
   38.0040   24.0700   38.3950 C   0  0  0  0  0  0  0  0  0  0  0  0
   37.7690   24.8660   37.3210 N   0  0  0  0  0  0  0  0  0  0  0  0
   38.4890   24.7660   36.2130 C   0  0  0  0  0  0  0  0  0  0  0  0
   39.4780   23.8600   36.1340 N   0  0  0  0  0  0  0  0  0  0  0  0
   38.2160   25.6220   35.1500 N   0  0  0  0  0  0  0  0  0  0  0  0
   38.0210   27.0380   35.3100 C   0  0  0  0  0  0  0  0  0  0  0  0
   37.3330   27.5480   34.1130 C   0  0  0  0  0  0  0  0  0  0  0  0
   37.0060   26.3460   33.3550 C   0  0  0  0  0  0  0  0  0  0  0  0
   38.1120   25.3920   33.6960 C   0  0  2  0  0  0  0  0  0  0  0  0
   37.6980   24.0650   33.5460 N   0  0  0  0  0  0  0  0  0  0  0  0
   37.3350   23.1950   32.5370 C   0  0  0  0  0  0  0  0  0  0  0  0
   37.4140   23.7220   31.3900 N   0  0  0  0  0  0  0  0  0  0  0  0
   36.9170   21.8410   32.5620 N   0  0  0  0  0  0  0  0  0  0  0  0
   37.5160   24.6940   31.1910 H   0  0  0  0  0  0  0  0  0  0  0  0
   39.3670   26.0640   33.2990 C   0  0  0  0  0  0  0  0  0  0  0  0
   40.1490   27.0080   34.1570 C   0  0  0  0  0  0  0  0  0  0  0  0
   41.6760   26.8770   33.9650 C   0  0  0  0  0  0  0  0  0  0  0  0
   41.8830   27.0170   32.4850 C   0  0  0  0  0  0  0  0  0  0  0  0
   40.6880   27.5000   31.7390 C   0  0  0  0  0  0  0  0  0  0  0  0
   39.4660   26.5760   31.8720 C   0  0  0  0  0  0  0  0  0  0  0  0
   40.5929   22.3108   37.0395 H   0  0  0  0  0  0  0  0  0  0  0  0
   39.2459   22.4619   39.1762 H   0  0  0  0  0  0  0  0  0  0  0  0
   37.3964   24.1685   39.3066 H   0  0  0  0  0  0  0  0  0  0  0  0
   37.4070   27.2304   36.2022 H   0  0  0  0  0  0  0  0  0  0  0  0
   38.9906   27.5425   35.4336 H   0  0  0  0  0  0  0  0  0  0  0  0
   36.4203   28.0958   34.3902 H   0  0  0  0  0  0  0  0  0  0  0  0
   37.9498   28.2555   33.5394 H   0  0  0  0  0  0  0  0  0  0  0  0
   36.9898   26.5565   32.2755 H   0  0  0  0  0  0  0  0  0  0  0  0
   36.0109   25.9470   33.6012 H   0  0  0  0  0  0  0  0  0  0  0  0
   37.6492   23.5963   34.4619 H   0  0  0  0  0  0  0  0  0  0  0  0
   36.6858   21.3571   31.6826 H   0  0  0  0  0  0  0  0  0  0  0  0
   36.8444   21.3409   33.4595 H   0  0  0  0  0  0  0  0  0  0  0  0
   39.8593   25.0975   33.4821 H   0  0  0  0  0  0  0  0  0  0  0  0
   39.8516   28.0370   33.9066 H   0  0  0  0  0  0  0  0  0  0  0  0
   39.9274   26.7591   35.2053 H   0  0  0  0  0  0  0  0  0  0  0  0
   42.2058   27.6732   34.5086 H   0  0  0  0  0  0  0  0  0  0  0  0
   42.0658   25.9245   34.3532 H   0  0  0  0  0  0  0  0  0  0  0  0
   42.7038   27.7302   32.3185 H   0  0  0  0  0  0  0  0  0  0  0  0
   42.1054   26.0098   32.1028 H   0  0  0  0  0  0  0  0  0  0  0  0
   40.9509   27.5782   30.6737 H   0  0  0  0  0  0  0  0  0  0  0  0
   40.4074   28.4713   32.1723 H   0  0  0  0  0  0  0  0  0  0  0  0
   38.5538   27.1369   31.6202 H   0  0  0  0  0  0  0  0  0  0  0  0
   39.5758   25.7240   31.1850 H   0  0  0  0  0  0  0  0  0  0  0  0
  1  2  2  0
  2  3  1  0
  4  3  2  0
  5  4  1  0
  6  5  2  0
  6  1  1  0
  7  8  1  0
  7  5  1  0
  9  8  1  0
 10 11  1  0
 10  9  1  0
 11 12  1  1
 11  7  1  0
 13 15  1  0
 13 12  1  0
 14 13  2  0
 16 14  1  0
 17 11  1  0
 17 18  1  0
 19 18  1  0
 20 19  1  0
 21 22  1  0
 21 20  1  0
 22 17  1  0
  1 23  1  0
  2 24  1  0
  3 25  1  0
  8 26  1  0
  8 27  1  0
  9 28  1  0
  9 29  1  0
 10 30  1  0
 10 31  1  0
 12 32  1  0
 15 33  1  0
 15 34  1  0
 17 35  1  0
 18 36  1  0
 18 37  1  0
 19 38  1  0
 19 39  1  0
 20 40  1  0
 20 41  1  0
 21 42  1  0
 21 43  1  0
 22 44  1  0
 22 45  1  0
M  ISO  8  23  14  24  14  25  14  26  13  27  13  28  13  29  13  30  13
M  ISO  8  31  13  35  13  36  13  37  13  38  13  39  13  40  13  41  13
M  ISO  4  42  13  43  13  44  13  45  13
M  END
>  <minimizedAffinity>  (1) 
-5.28743029

>  <minimizedRMSD>  (1) 
0.961738229

$$$$
