
     RDKit          3D

 38 40  0  0  1  0  0  0  0  0999 V2000
   40.1370   23.1460   36.5630 C   0  0  0  0  0  0  0  0  0  0  0  0
   39.4420   22.8420   37.7580 C   0  0  0  0  0  0  0  0  0  0  0  0
   38.3550   23.6280   38.0890 C   0  0  0  0  0  0  0  0  0  0  0  0
   37.9900   24.6470   37.2780 N   0  0  0  0  0  0  0  0  0  0  0  0
   38.6580   24.9180   36.1570 C   0  0  0  0  0  0  0  0  0  0  0  0
   39.7270   24.1630   35.8100 N   0  0  0  0  0  0  0  0  0  0  0  0
   38.2620   25.9990   35.3560 N   0  0  0  0  0  0  0  0  0  0  0  0
   38.1620   27.3450   35.8140 C   0  0  0  0  0  0  0  0  0  0  0  0
   37.1530   28.0040   34.9150 C   0  0  0  0  0  0  0  0  0  0  0  0
   36.8830   27.0440   33.8320 C   0  0  0  0  0  0  0  0  0  0  0  0
   37.9340   26.0140   33.9260 C   0  0  2  0  0  0  0  0  0  0  0  0
   37.6280   24.7270   33.4110 N   0  0  0  0  0  0  0  0  0  0  0  0
   37.1730   24.3680   32.1420 C   0  0  0  0  0  0  0  0  0  0  0  0
   36.8910   25.2720   31.3180 N   0  0  0  0  0  0  0  0  0  0  0  0
   37.0200   23.0200   31.6750 N   0  0  0  0  0  0  0  0  0  0  0  0
   36.7790   26.2780   31.4870 H   0  0  0  0  0  0  0  0  0  0  0  0
   39.3210   26.5220   33.5480 C   0  0  0  0  0  0  0  0  0  0  0  0
   40.4580   26.6680   34.3180 C   0  0  0  0  0  0  0  0  0  0  0  0
   41.6180   27.1500   33.7520 C   0  0  0  0  0  0  0  0  0  0  0  0
   41.7160   27.5090   32.4260 C   0  0  0  0  0  0  0  0  0  0  0  0
   40.5730   27.3520   31.6970 C   0  0  0  0  0  0  0  0  0  0  0  0
   39.4520   26.8820   32.2550 N   0  0  0  0  0  0  0  0  0  0  0  0
   41.0082   22.5467   36.2598 H   0  0  0  0  0  0  0  0  0  0  0  0
   39.7569   22.0076   38.4019 H   0  0  0  0  0  0  0  0  0  0  0  0
   37.7880   23.4256   39.0096 H   0  0  0  0  0  0  0  0  0  0  0  0
   37.8197   27.3706   36.8591 H   0  0  0  0  0  0  0  0  0  0  0  0
   39.1338   27.8594   35.7812 H   0  0  0  0  0  0  0  0  0  0  0  0
   36.2296   28.2210   35.4719 H   0  0  0  0  0  0  0  0  0  0  0  0
   37.5293   28.9594   34.5207 H   0  0  0  0  0  0  0  0  0  0  0  0
   36.9287   27.5478   32.8552 H   0  0  0  0  0  0  0  0  0  0  0  0
   35.8795   26.6035   33.9268 H   0  0  0  0  0  0  0  0  0  0  0  0
   37.7611   23.9458   34.0690 H   0  0  0  0  0  0  0  0  0  0  0  0
   36.6767   22.8415   30.7205 H   0  0  0  0  0  0  0  0  0  0  0  0
   37.2535   22.2308   32.2943 H   0  0  0  0  0  0  0  0  0  0  0  0
   40.4375   26.3992   35.3844 H   0  0  0  0  0  0  0  0  0  0  0  0
   42.5084   27.2530   34.3897 H   0  0  0  0  0  0  0  0  0  0  0  0
   42.6478   27.8943   31.9864 H   0  0  0  0  0  0  0  0  0  0  0  0
   40.5737   27.6172   30.6295 H   0  0  0  0  0  0  0  0  0  0  0  0
  1  2  2  0
  2  3  1  0
  4  3  2  0
  5  4  1  0
  6  5  2  0
  6  1  1  0
  7  8  1  0
  7  5  1  0
  9  8  1  0
 10 11  1  0
 10  9  1  0
 11 12  1  6
 11  7  1  0
 13 12  1  0
 14 16  1  0
 14 13  2  0
 15 13  1  0
 17 11  1  0
 17 18  2  0
 19 18  1  0
 20 19  2  0
 21 22  2  0
 21 20  1  0
 22 17  1  0
  1 23  1  0
  2 24  1  0
  3 25  1  0
  8 26  1  0
  8 27  1  0
  9 28  1  0
  9 29  1  0
 10 30  1  0
 10 31  1  0
 12 32  1  0
 15 33  1  0
 15 34  1  0
 18 35  1  0
 19 36  1  0
 20 37  1  0
 21 38  1  0
M  ISO  8  23  14  24  14  25  14  26  13  27  13  28  13  29  13  30  13
M  ISO  5  31  13  35  14  36  14  37  14  38  14
M  END
>  <minimizedAffinity>  (1) 
-5.39860868

>  <minimizedRMSD>  (1) 
1.00681746

$$$$
