
     RDKit          3D

 37 39  0  0  1  0  0  0  0  0999 V2000
   40.1500   23.1390   36.5610 C   0  0  0  0  0  0  0  0  0  0  0  0
   39.4640   22.8360   37.7600 C   0  0  0  0  0  0  0  0  0  0  0  0
   38.3830   23.6170   38.0930 C   0  0  0  0  0  0  0  0  0  0  0  0
   38.0030   24.6380   37.2890 N   0  0  0  0  0  0  0  0  0  0  0  0
   38.6650   24.9080   36.1620 C   0  0  0  0  0  0  0  0  0  0  0  0
   39.7330   24.1540   35.8070 N   0  0  0  0  0  0  0  0  0  0  0  0
   38.2650   25.9860   35.3610 N   0  0  0  0  0  0  0  0  0  0  0  0
   38.1890   27.3340   35.8150 C   0  0  0  0  0  0  0  0  0  0  0  0
   37.1760   27.9990   34.9250 C   0  0  0  0  0  0  0  0  0  0  0  0
   36.8790   27.0410   33.8480 C   0  0  0  0  0  0  0  0  0  0  0  0
   37.9160   25.9990   33.9370 C   0  0  2  0  0  0  0  0  0  0  0  0
   37.6010   24.7120   33.4280 N   0  0  0  0  0  0  0  0  0  0  0  0
   37.1340   24.3540   32.1610 C   0  0  0  0  0  0  0  0  0  0  0  0
   36.8480   25.2540   31.3370 N   0  0  0  0  0  0  0  0  0  0  0  0
   36.9780   23.0010   31.7010 N   0  0  0  0  0  0  0  0  0  0  0  0
   36.7520   26.2620   31.4970 H   0  0  0  0  0  0  0  0  0  0  0  0
   39.2970   26.5120   33.5410 C   0  0  0  0  0  0  0  0  0  0  0  0
   40.4470   26.6490   34.2920 C   0  0  0  0  0  0  0  0  0  0  0  0
   41.6220   27.1290   33.7650 C   0  0  0  0  0  0  0  0  0  0  0  0
   41.6680   27.4840   32.4730 N   0  0  0  0  0  0  0  0  0  0  0  0
   40.5580   27.3620   31.7150 C   0  0  0  0  0  0  0  0  0  0  0  0
   39.4160   26.8910   32.2410 N   0  0  0  0  0  0  0  0  0  0  0  0
   41.0208   22.5411   36.2539 H   0  0  0  0  0  0  0  0  0  0  0  0
   39.7845   22.0038   38.4040 H   0  0  0  0  0  0  0  0  0  0  0  0
   37.8237   23.4114   39.0176 H   0  0  0  0  0  0  0  0  0  0  0  0
   37.8609   27.3687   36.8644 H   0  0  0  0  0  0  0  0  0  0  0  0
   39.1663   27.8367   35.7690 H   0  0  0  0  0  0  0  0  0  0  0  0
   36.2624   28.2284   35.4931 H   0  0  0  0  0  0  0  0  0  0  0  0
   37.5604   28.9473   34.5213 H   0  0  0  0  0  0  0  0  0  0  0  0
   36.9218   27.5407   32.8690 H   0  0  0  0  0  0  0  0  0  0  0  0
   35.8697   26.6162   33.9525 H   0  0  0  0  0  0  0  0  0  0  0  0
   37.7359   23.9313   34.0862 H   0  0  0  0  0  0  0  0  0  0  0  0
   36.6266   22.8175   30.7503 H   0  0  0  0  0  0  0  0  0  0  0  0
   37.2176   22.2150   32.3221 H   0  0  0  0  0  0  0  0  0  0  0  0
   40.4220   26.3628   35.3538 H   0  0  0  0  0  0  0  0  0  0  0  0
   42.5170   27.2211   34.3978 H   0  0  0  0  0  0  0  0  0  0  0  0
   40.5893   27.6517   30.6543 H   0  0  0  0  0  0  0  0  0  0  0  0
  1  2  2  0
  2  3  1  0
  4  3  2  0
  5  4  1  0
  6  5  2  0
  6  1  1  0
  7  8  1  0
  7  5  1  0
  9  8  1  0
 10 11  1  0
 10  9  1  0
 11 12  1  6
 11  7  1  0
 13 12  1  0
 14 16  1  0
 14 13  2  0
 15 13  1  0
 17 11  1  0
 17 18  2  0
 19 18  1  0
 20 19  2  0
 21 22  2  0
 21 20  1  0
 22 17  1  0
  1 23  1  0
  2 24  1  0
  3 25  1  0
  8 26  1  0
  8 27  1  0
  9 28  1  0
  9 29  1  0
 10 30  1  0
 10 31  1  0
 12 32  1  0
 15 33  1  0
 15 34  1  0
 18 35  1  0
 19 36  1  0
 21 37  1  0
M  ISO  8  23  14  24  14  25  14  26  13  27  13  28  13  29  13  30  13
M  ISO  4  31  13  35  14  36  14  37  14
M  END
>  <minimizedAffinity>  (1) 
-5.21063757

>  <minimizedRMSD>  (1) 
0.849468052

$$$$
