
     RDKit          3D

 36 38  0  0  1  0  0  0  0  0999 V2000
   40.1730   23.0840   36.6440 C   0  0  0  0  0  0  0  0  0  0  0  0
   39.4710   22.7720   37.8320 C   0  0  0  0  0  0  0  0  0  0  0  0
   38.3650   23.5580   38.1500 C   0  0  0  0  0  0  0  0  0  0  0  0
   37.9980   24.5780   37.3360 N   0  0  0  0  0  0  0  0  0  0  0  0
   38.6840   24.8460   36.2220 C   0  0  0  0  0  0  0  0  0  0  0  0
   39.7560   24.0980   35.8960 N   0  0  0  0  0  0  0  0  0  0  0  0
   38.3000   25.9240   35.4170 N   0  0  0  0  0  0  0  0  0  0  0  0
   38.2000   27.2700   35.8750 C   0  0  0  0  0  0  0  0  0  0  0  0
   37.2820   27.9620   34.9370 C   0  0  0  0  0  0  0  0  0  0  0  0
   36.9280   26.9600   33.8910 C   0  0  0  0  0  0  0  0  0  0  0  0
   37.9940   25.9350   33.9800 C   0  0  2  0  0  0  0  0  0  0  0  0
   37.7130   24.6610   33.4560 N   0  0  0  0  0  0  0  0  0  0  0  0
   37.4310   24.2660   32.1530 C   0  0  0  0  0  0  0  0  0  0  0  0
   37.2900   25.1530   31.2790 N   0  0  0  0  0  0  0  0  0  0  0  0
   37.3060   22.9190   31.6920 N   0  0  0  0  0  0  0  0  0  0  0  0
   37.2670   26.1840   31.3790 H   0  0  0  0  0  0  0  0  0  0  0  0
   39.3710   26.5000   33.6360 C   0  0  0  0  0  0  0  0  0  0  0  0
   40.5910   26.7340   34.2800 C   0  0  0  0  0  0  0  0  0  0  0  0
   41.4850   27.2920   33.3940 C   0  0  0  0  0  0  0  0  0  0  0  0
   40.7550   27.3720   32.2320 C   0  0  0  0  0  0  0  0  0  0  0  0
   39.5650   26.9210   32.3870 O   0  0  0  0  0  0  0  0  0  0  0  0
   41.0521   22.4945   36.3444 H   0  0  0  0  0  0  0  0  0  0  0  0
   39.7861   21.9408   38.4799 H   0  0  0  0  0  0  0  0  0  0  0  0
   37.7885   23.3503   39.0635 H   0  0  0  0  0  0  0  0  0  0  0  0
   37.7915   27.2955   36.8960 H   0  0  0  0  0  0  0  0  0  0  0  0
   39.1858   27.7573   35.9021 H   0  0  0  0  0  0  0  0  0  0  0  0
   36.3777   28.2978   35.4657 H   0  0  0  0  0  0  0  0  0  0  0  0
   37.7535   28.8531   34.4970 H   0  0  0  0  0  0  0  0  0  0  0  0
   36.9190   27.4255   32.8944 H   0  0  0  0  0  0  0  0  0  0  0  0
   35.9255   26.5338   34.0436 H   0  0  0  0  0  0  0  0  0  0  0  0
   37.7166   23.8982   34.1481 H   0  0  0  0  0  0  0  0  0  0  0  0
   37.0940   22.7312   30.7017 H   0  0  0  0  0  0  0  0  0  0  0  0
   37.4279   22.1361   32.3501 H   0  0  0  0  0  0  0  0  0  0  0  0
   40.8037   26.5065   35.3350 H   0  0  0  0  0  0  0  0  0  0  0  0
   42.5264   27.5982   33.5721 H   0  0  0  0  0  0  0  0  0  0  0  0
   41.1443   27.7739   31.2849 H   0  0  0  0  0  0  0  0  0  0  0  0
  1  2  2  0
  2  3  1  0
  4  3  2  0
  5  4  1  0
  6  5  2  0
  6  1  1  0
  7  8  1  0
  7  5  1  0
  9  8  1  0
 10 11  1  0
 10  9  1  0
 11 12  1  6
 11  7  1  0
 13 12  1  0
 14 16  1  0
 14 13  2  0
 15 13  1  0
 17 11  1  0
 17 18  2  0
 19 18  1  0
 20 21  1  0
 20 19  2  0
 21 17  1  0
  1 22  1  0
  2 23  1  0
  3 24  1  0
  8 25  1  0
  8 26  1  0
  9 27  1  0
  9 28  1  0
 10 29  1  0
 10 30  1  0
 12 31  1  0
 15 32  1  0
 15 33  1  0
 18 34  1  0
 19 35  1  0
 20 36  1  0
M  ISO  8  22  14  23  14  24  14  25  13  26  13  27  13  28  13  29  13
M  ISO  4  30  13  34  14  35  14  36  14
M  END
>  <minimizedAffinity>  (1) 
-5.07157469

>  <minimizedRMSD>  (1) 
0.484393835

$$$$
