
     RDKit          3D

 36 38  0  0  1  0  0  0  0  0999 V2000
   40.1680   23.0920   36.6440 C   0  0  0  0  0  0  0  0  0  0  0  0
   39.4600   22.7900   37.8270 C   0  0  0  0  0  0  0  0  0  0  0  0
   38.3710   23.5730   38.1290 C   0  0  0  0  0  0  0  0  0  0  0  0
   38.0140   24.5870   37.3100 N   0  0  0  0  0  0  0  0  0  0  0  0
   38.6940   24.8600   36.1990 C   0  0  0  0  0  0  0  0  0  0  0  0
   39.7600   24.1040   35.8890 N   0  0  0  0  0  0  0  0  0  0  0  0
   38.3160   25.9350   35.3810 N   0  0  0  0  0  0  0  0  0  0  0  0
   38.2000   27.2830   35.8320 C   0  0  0  0  0  0  0  0  0  0  0  0
   37.1850   27.9220   34.9150 C   0  0  0  0  0  0  0  0  0  0  0  0
   36.9480   26.9550   33.8330 C   0  0  0  0  0  0  0  0  0  0  0  0
   38.0190   25.9410   33.9490 C   0  0  2  0  0  0  0  0  0  0  0  0
   37.7280   24.6490   33.4370 N   0  0  0  0  0  0  0  0  0  0  0  0
   37.3590   24.2640   32.1480 C   0  0  0  0  0  0  0  0  0  0  0  0
   37.1530   25.1560   31.2920 N   0  0  0  0  0  0  0  0  0  0  0  0
   37.2210   22.9080   31.7010 N   0  0  0  0  0  0  0  0  0  0  0  0
   37.0470   26.1690   31.4350 H   0  0  0  0  0  0  0  0  0  0  0  0
   39.3790   26.4980   33.5610 C   0  0  0  0  0  0  0  0  0  0  0  0
   39.9360   27.1250   32.4660 C   0  0  0  0  0  0  0  0  0  0  0  0
   41.2320   27.4160   32.6720 N   0  0  0  0  0  0  0  0  0  0  0  0
   41.5440   26.9790   33.9270 C   0  0  0  0  0  0  0  0  0  0  0  0
   40.4240   26.4400   34.4300 N   0  0  0  0  0  0  0  0  0  0  0  0
   41.0457   22.4968   36.3520 H   0  0  0  0  0  0  0  0  0  0  0  0
   39.7673   21.9610   38.4815 H   0  0  0  0  0  0  0  0  0  0  0  0
   37.7883   23.3734   39.0404 H   0  0  0  0  0  0  0  0  0  0  0  0
   37.8501   27.3121   36.8745 H   0  0  0  0  0  0  0  0  0  0  0  0
   39.1656   27.8093   35.8064 H   0  0  0  0  0  0  0  0  0  0  0  0
   36.2506   28.1219   35.4599 H   0  0  0  0  0  0  0  0  0  0  0  0
   37.5469   28.8838   34.5226 H   0  0  0  0  0  0  0  0  0  0  0  0
   37.0003   27.4557   32.8550 H   0  0  0  0  0  0  0  0  0  0  0  0
   35.9507   26.4979   33.9130 H   0  0  0  0  0  0  0  0  0  0  0  0
   37.8002   23.8810   34.1196 H   0  0  0  0  0  0  0  0  0  0  0  0
   36.9434   22.7120   30.7287 H   0  0  0  0  0  0  0  0  0  0  0  0
   37.3995   22.1303   32.3524 H   0  0  0  0  0  0  0  0  0  0  0  0
   39.3886   27.3576   31.5407 H   0  0  0  0  0  0  0  0  0  0  0  0
   42.5210   27.0542   34.4268 H   0  0  0  0  0  0  0  0  0  0  0  0
   40.3617   26.0271   35.3716 H   0  0  0  0  0  0  0  0  0  0  0  0
  1  2  2  0
  2  3  1  0
  4  3  2  0
  5  4  1  0
  6  5  2  0
  6  1  1  0
  7  8  1  0
  7  5  1  0
  9  8  1  0
 10 11  1  0
 10  9  1  0
 11 12  1  6
 11  7  1  0
 13 12  1  0
 14 16  1  0
 14 13  2  0
 15 13  1  0
 17 11  1  0
 17 21  1  0
 18 19  1  0
 18 17  2  0
 19 20  2  0
 20 21  1  0
  1 22  1  0
  2 23  1  0
  3 24  1  0
  8 25  1  0
  8 26  1  0
  9 27  1  0
  9 28  1  0
 10 29  1  0
 10 30  1  0
 12 31  1  0
 15 32  1  0
 15 33  1  0
 18 34  1  0
 20 35  1  0
 21 36  1  0
M  ISO  8  22  14  23  14  24  14  25  13  26  13  27  13  28  13  29  13
M  ISO  4  30  13  34  14  35  14  36   9
M  END
>  <minimizedAffinity>  (1) 
-4.923069

>  <minimizedRMSD>  (1) 
0.503176868

$$$$
