
     RDKit          3D

 35 37  0  0  1  0  0  0  0  0999 V2000
   40.1410   23.0510   36.6450 C   0  0  0  0  0  0  0  0  0  0  0  0
   39.4660   22.8110   37.8650 C   0  0  0  0  0  0  0  0  0  0  0  0
   38.3940   23.6410   38.2000 C   0  0  0  0  0  0  0  0  0  0  0  0
   38.0400   24.6380   37.3560 N   0  0  0  0  0  0  0  0  0  0  0  0
   38.6930   24.8450   36.2130 C   0  0  0  0  0  0  0  0  0  0  0  0
   39.7260   24.0520   35.8800 N   0  0  0  0  0  0  0  0  0  0  0  0
   38.3110   25.9100   35.3850 N   0  0  0  0  0  0  0  0  0  0  0  0
   38.2500   27.2760   35.8000 C   0  0  0  0  0  0  0  0  0  0  0  0
   37.2950   27.9440   34.8780 C   0  0  0  0  0  0  0  0  0  0  0  0
   36.8720   26.9060   33.8900 C   0  0  0  0  0  0  0  0  0  0  0  0
   37.9550   25.8900   33.9580 C   0  0  2  0  0  0  0  0  0  0  0  0
   37.6360   24.6070   33.4920 N   0  0  0  0  0  0  0  0  0  0  0  0
   37.3240   24.1490   32.2190 C   0  0  0  0  0  0  0  0  0  0  0  0
   37.2150   24.9960   31.3030 N   0  0  0  0  0  0  0  0  0  0  0  0
   37.1330   22.7850   31.8330 N   0  0  0  0  0  0  0  0  0  0  0  0
   37.2490   26.0300   31.3460 H   0  0  0  0  0  0  0  0  0  0  0  0
   39.3230   26.4440   33.5460 C   0  0  0  0  0  0  0  0  0  0  0  0
   40.4650   26.5830   34.3260 C   0  0  0  0  0  0  0  0  0  0  0  0
   41.6960   27.3670   33.1190 S   0  0  0  0  0  0  0  0  0  0  0  0
   40.4480   27.3520   31.8130 C   0  0  0  0  0  0  0  0  0  0  0  0
   39.5260   26.8840   32.3360 N   0  0  0  0  0  0  0  0  0  0  0  0
   40.9899   22.4224   36.3381 H   0  0  0  0  0  0  0  0  0  0  0  0
   39.7771   21.9930   38.5314 H   0  0  0  0  0  0  0  0  0  0  0  0
   37.8434   23.4861   39.1396 H   0  0  0  0  0  0  0  0  0  0  0  0
   37.8904   27.3442   36.8373 H   0  0  0  0  0  0  0  0  0  0  0  0
   39.2414   27.7513   35.7656 H   0  0  0  0  0  0  0  0  0  0  0  0
   36.4234   28.3163   35.4363 H   0  0  0  0  0  0  0  0  0  0  0  0
   37.7586   28.8072   34.3780 H   0  0  0  0  0  0  0  0  0  0  0  0
   36.7988   27.3338   32.8792 H   0  0  0  0  0  0  0  0  0  0  0  0
   35.8800   26.4860   34.1124 H   0  0  0  0  0  0  0  0  0  0  0  0
   37.6325   23.8781   34.2197 H   0  0  0  0  0  0  0  0  0  0  0  0
   36.9030   22.5536   30.8560 H   0  0  0  0  0  0  0  0  0  0  0  0
   37.2255   22.0342   32.5320 H   0  0  0  0  0  0  0  0  0  0  0  0
   40.6160   26.3069   35.3800 H   0  0  0  0  0  0  0  0  0  0  0  0
   40.5408   27.7019   30.7743 H   0  0  0  0  0  0  0  0  0  0  0  0
  1  2  2  0
  2  3  1  0
  4  3  2  0
  5  4  1  0
  6  5  2  0
  6  1  1  0
  7  8  1  0
  7  5  1  0
  9  8  1  0
 10 11  1  0
 10  9  1  0
 11 12  1  6
 11  7  1  0
 13 12  1  0
 14 16  1  0
 14 13  2  0
 15 13  1  0
 17 11  1  0
 17 18  2  0
 19 18  1  0
 20 21  2  0
 20 19  1  0
 21 17  1  0
  1 22  1  0
  2 23  1  0
  3 24  1  0
  8 25  1  0
  8 26  1  0
  9 27  1  0
  9 28  1  0
 10 29  1  0
 10 30  1  0
 12 31  1  0
 15 32  1  0
 15 33  1  0
 18 34  1  0
 20 35  1  0
M  ISO  8  22  14  23  14  24  14  25  13  26  13  27  13  28  13  29  13
M  ISO  3  30  13  34  14  35  14
M  END
>  <minimizedAffinity>  (1) 
-4.89757681

>  <minimizedRMSD>  (1) 
0.915519118

$$$$
