
     RDKit          3D

 38 39  0  0  1  0  0  0  0  0999 V2000
   40.2510   22.9530   36.6070 C   0  0  0  0  0  0  0  0  0  0  0  0
   39.6460   22.7210   37.8680 C   0  0  0  0  0  0  0  0  0  0  0  0
   38.5850   23.5470   38.2450 C   0  0  0  0  0  0  0  0  0  0  0  0
   38.1780   24.5210   37.4110 N   0  0  0  0  0  0  0  0  0  0  0  0
   38.7550   24.7230   36.2400 C   0  0  0  0  0  0  0  0  0  0  0  0
   39.7550   23.9420   35.8850 N   0  0  0  0  0  0  0  0  0  0  0  0
   38.3240   25.7630   35.4170 N   0  0  0  0  0  0  0  0  0  0  0  0
   38.1020   27.0910   35.9040 C   0  0  0  0  0  0  0  0  0  0  0  0
   37.4100   27.8560   34.8790 C   0  0  0  0  0  0  0  0  0  0  0  0
   36.9570   26.7890   33.9330 C   0  0  0  0  0  0  0  0  0  0  0  0
   38.0940   25.8000   33.9810 C   0  0  2  0  0  0  0  0  0  0  0  0
   37.6930   24.5160   33.5720 N   0  0  0  0  0  0  0  0  0  0  0  0
   37.3370   23.9230   32.3780 C   0  0  0  0  0  0  0  0  0  0  0  0
   37.2710   24.7320   31.4030 N   0  0  0  0  0  0  0  0  0  0  0  0
   37.0450   22.5720   32.0680 N   0  0  0  0  0  0  0  0  0  0  0  0
   37.3020   25.7390   31.4410 H   0  0  0  0  0  0  0  0  0  0  0  0
   39.4110   26.4510   33.6140 C   0  0  0  0  0  0  0  0  0  0  0  0
   39.5850   27.2170   32.3900 C   0  0  0  0  0  0  0  0  0  0  0  0
   40.3680   26.7820   34.7390 C   0  0  0  0  0  0  0  0  0  0  0  0
   41.0911   22.3404   36.2478 H   0  0  0  0  0  0  0  0  0  0  0  0
   40.0010   21.9161   38.5283 H   0  0  0  0  0  0  0  0  0  0  0  0
   38.0866   23.4026   39.2149 H   0  0  0  0  0  0  0  0  0  0  0  0
   37.4870   27.0527   36.8152 H   0  0  0  0  0  0  0  0  0  0  0  0
   39.0644   27.5682   36.1409 H   0  0  0  0  0  0  0  0  0  0  0  0
   36.5542   28.4035   35.3007 H   0  0  0  0  0  0  0  0  0  0  0  0
   38.0377   28.6255   34.4058 H   0  0  0  0  0  0  0  0  0  0  0  0
   36.8225   27.1900   32.9176 H   0  0  0  0  0  0  0  0  0  0  0  0
   35.9849   26.3504   34.2024 H   0  0  0  0  0  0  0  0  0  0  0  0
   37.6557   23.8531   34.3595 H   0  0  0  0  0  0  0  0  0  0  0  0
   36.7935   22.3074   31.1049 H   0  0  0  0  0  0  0  0  0  0  0  0
   37.0842   21.8543   32.8057 H   0  0  0  0  0  0  0  0  0  0  0  0
   39.7649   25.5036   33.1815 H   0  0  0  0  0  0  0  0  0  0  0  0
   39.8222   28.2612   32.6416 H   0  0  0  0  0  0  0  0  0  0  0  0
   40.4080   26.7856   31.8013 H   0  0  0  0  0  0  0  0  0  0  0  0
   38.6564   27.1835   31.8013 H   0  0  0  0  0  0  0  0  0  0  0  0
   39.8713   26.6102   35.7053 H   0  0  0  0  0  0  0  0  0  0  0  0
   41.2576   26.1394   34.6646 H   0  0  0  0  0  0  0  0  0  0  0  0
   40.6705   27.8370   34.6646 H   0  0  0  0  0  0  0  0  0  0  0  0
  1  2  2  0
  2  3  1  0
  4  3  2  0
  5  4  1  0
  6  5  2  0
  6  1  1  0
  7  8  1  0
  7  5  1  0
  9  8  1  0
 10 11  1  0
 10  9  1  0
 11 17  1  0
 11  7  1  0
 11 12  1  6
 13 12  1  0
 14 16  1  0
 14 13  2  0
 15 13  1  0
 17 19  1  0
 18 17  1  0
  1 20  1  0
  2 21  1  0
  3 22  1  0
  8 23  1  0
  8 24  1  0
  9 25  1  0
  9 26  1  0
 10 27  1  0
 10 28  1  0
 12 29  1  0
 15 30  1  0
 15 31  1  0
 17 32  1  0
 18 33  1  0
 18 34  1  0
 18 35  1  0
 19 36  1  0
 19 37  1  0
 19 38  1  0
M  ISO  8  20  14  21  14  22  14  23  13  24  13  25  13  26  13  27  13
M  ISO  8  28  13  32   8  33   8  34   8  35   8  36   8  37   8  38   8
M  END
>  <minimizedAffinity>  (1) 
-4.82163954

>  <minimizedRMSD>  (1) 
0.531434894

$$$$
