
     RDKit          3D

 31 32  0  0  1  0  0  0  0  0999 V2000
   40.2270   23.0390   36.6580 C   0  0  0  0  0  0  0  0  0  0  0  0
   39.5460   22.7640   37.8680 C   0  0  0  0  0  0  0  0  0  0  0  0
   38.4490   23.5600   38.2030 C   0  0  0  0  0  0  0  0  0  0  0  0
   38.0790   24.5560   37.3690 N   0  0  0  0  0  0  0  0  0  0  0  0
   38.7390   24.7970   36.2320 C   0  0  0  0  0  0  0  0  0  0  0  0
   39.8060   24.0400   35.8830 N   0  0  0  0  0  0  0  0  0  0  0  0
   38.3260   25.8590   35.4120 N   0  0  0  0  0  0  0  0  0  0  0  0
   38.2510   27.2170   35.8470 C   0  0  0  0  0  0  0  0  0  0  0  0
   37.3080   27.8920   34.9190 C   0  0  0  0  0  0  0  0  0  0  0  0
   36.9100   26.8670   33.9080 C   0  0  0  0  0  0  0  0  0  0  0  0
   37.9460   25.8220   33.9890 C   0  0  2  0  0  0  0  0  0  0  0  0
   37.6360   24.5380   33.5050 N   0  0  0  0  0  0  0  0  0  0  0  0
   37.7600   24.0460   32.1990 C   0  0  0  0  0  0  0  0  0  0  0  0
   38.0690   24.8270   31.2690 N   0  0  0  0  0  0  0  0  0  0  0  0
   37.5870   22.6780   31.8270 N   0  0  0  0  0  0  0  0  0  0  0  0
   38.1710   25.8550   31.2810 H   0  0  0  0  0  0  0  0  0  0  0  0
   39.2480   26.3040   33.5490 N   0  0  0  0  0  0  0  0  0  0  0  0
   41.0952   22.4331   36.3595 H   0  0  0  0  0  0  0  0  0  0  0  0
   39.8722   21.9454   38.5265 H   0  0  0  0  0  0  0  0  0  0  0  0
   37.8929   23.3783   39.1345 H   0  0  0  0  0  0  0  0  0  0  0  0
   37.8737   27.2676   36.8790 H   0  0  0  0  0  0  0  0  0  0  0  0
   39.2399   27.6986   35.8376 H   0  0  0  0  0  0  0  0  0  0  0  0
   36.4240   28.2495   35.4675 H   0  0  0  0  0  0  0  0  0  0  0  0
   37.7742   28.7659   34.4406 H   0  0  0  0  0  0  0  0  0  0  0  0
   36.8850   27.3081   32.9006 H   0  0  0  0  0  0  0  0  0  0  0  0
   35.9047   26.4654   34.1034 H   0  0  0  0  0  0  0  0  0  0  0  0
   37.2703   23.8730   34.2014 H   0  0  0  0  0  0  0  0  0  0  0  0
   37.6952   22.3943   30.8428 H   0  0  0  0  0  0  0  0  0  0  0  0
   37.3540   21.9751   32.5429 H   0  0  0  0  0  0  0  0  0  0  0  0
   39.8301   26.5195   34.3710 H   0  0  0  0  0  0  0  0  0  0  0  0
   39.7093   25.5780   32.9824 H   0  0  0  0  0  0  0  0  0  0  0  0
  1  2  2  0
  2  3  1  0
  4  3  2  0
  5  4  1  0
  6  5  2  0
  6  1  1  0
  7  8  1  0
  7  5  1  0
  9  8  1  0
 10 11  1  0
 10  9  1  0
 11 12  1  6
 11  7  1  0
 13 12  1  0
 14 16  1  0
 14 13  2  0
 15 13  1  0
 17 11  1  0
  1 18  1  0
  2 19  1  0
  3 20  1  0
  8 21  1  0
  8 22  1  0
  9 23  1  0
  9 24  1  0
 10 25  1  0
 10 26  1  0
 12 27  1  0
 15 28  1  0
 15 29  1  0
 17 30  1  0
 17 31  1  0
M  ISO  8  18  14  19  14  20  14  21  13  22  13  23  13  24  13  25  13
M  ISO  3  26  13  30   5  31   5
M  END
>  <minimizedAffinity>  (1) 
-4.26321888

>  <minimizedRMSD>  (1) 
0.206820816

$$$$
