
     RDKit          3D

 30 31  0  0  1  0  0  0  0  0999 V2000
   40.2450   22.9960   36.6830 C   0  0  0  0  0  0  0  0  0  0  0  0
   39.5710   22.7310   37.9010 C   0  0  0  0  0  0  0  0  0  0  0  0
   38.4800   23.5370   38.2400 C   0  0  0  0  0  0  0  0  0  0  0  0
   38.1150   24.5280   37.3970 N   0  0  0  0  0  0  0  0  0  0  0  0
   38.7640   24.7590   36.2540 C   0  0  0  0  0  0  0  0  0  0  0  0
   39.8240   23.9860   35.9130 N   0  0  0  0  0  0  0  0  0  0  0  0
   38.3430   25.8120   35.4300 N   0  0  0  0  0  0  0  0  0  0  0  0
   38.2750   27.1760   35.8520 C   0  0  0  0  0  0  0  0  0  0  0  0
   37.3310   27.8450   34.9180 C   0  0  0  0  0  0  0  0  0  0  0  0
   36.9100   26.8150   33.9200 C   0  0  0  0  0  0  0  0  0  0  0  0
   37.9380   25.7670   34.0150 C   0  0  2  0  0  0  0  0  0  0  0  0
   37.6780   24.4830   33.5240 N   0  0  0  0  0  0  0  0  0  0  0  0
   37.9280   23.9340   32.2670 C   0  0  0  0  0  0  0  0  0  0  0  0
   38.3770   24.6630   31.3530 N   0  0  0  0  0  0  0  0  0  0  0  0
   37.7360   22.5610   31.9230 N   0  0  0  0  0  0  0  0  0  0  0  0
   38.5680   25.6820   31.3500 H   0  0  0  0  0  0  0  0  0  0  0  0
   39.1790   26.3170   33.5530 O   0  0  0  0  0  0  0  0  0  0  0  0
   41.1087   22.3853   36.3811 H   0  0  0  0  0  0  0  0  0  0  0  0
   39.8971   21.9139   38.5614 H   0  0  0  0  0  0  0  0  0  0  0  0
   37.9285   23.3674   39.1765 H   0  0  0  0  0  0  0  0  0  0  0  0
   37.9007   27.2389   36.8845 H   0  0  0  0  0  0  0  0  0  0  0  0
   39.2658   27.6536   35.8357 H   0  0  0  0  0  0  0  0  0  0  0  0
   36.4553   28.2196   35.4682 H   0  0  0  0  0  0  0  0  0  0  0  0
   37.8074   28.7038   34.4225 H   0  0  0  0  0  0  0  0  0  0  0  0
   36.8839   27.2431   32.9071 H   0  0  0  0  0  0  0  0  0  0  0  0
   35.8996   26.4285   34.1192 H   0  0  0  0  0  0  0  0  0  0  0  0
   37.2320   23.8429   34.1965 H   0  0  0  0  0  0  0  0  0  0  0  0
   37.9452   22.2351   30.9686 H   0  0  0  0  0  0  0  0  0  0  0  0
   37.3884   21.8969   32.6294 H   0  0  0  0  0  0  0  0  0  0  0  0
   39.7396   26.5654   34.3303 H   0  0  0  0  0  0  0  0  0  0  0  0
  1  2  2  0
  2  3  1  0
  4  3  2  0
  5  4  1  0
  6  5  2  0
  6  1  1  0
  7  8  1  0
  7  5  1  0
  9  8  1  0
 10 11  1  0
 10  9  1  0
 11 17  1  6
 11  7  1  0
 12 11  1  0
 13 12  1  0
 14 13  2  0
 15 13  1  0
 16 14  1  0
  1 18  1  0
  2 19  1  0
  3 20  1  0
  8 21  1  0
  8 22  1  0
  9 23  1  0
  9 24  1  0
 10 25  1  0
 10 26  1  0
 12 27  1  0
 15 28  1  0
 15 29  1  0
 17 30  1  0
M  ISO  8  18  14  19  14  20  14  21  13  22  13  23  13  24  13  25  13
M  ISO  2  26  13  30   3
M  END
>  <minimizedAffinity>  (1) 
-4.22238684

>  <minimizedRMSD>  (1) 
0.120363742

$$$$
