
     RDKit          3D

 43 45  0  0  1  0  0  0  0  0999 V2000
   40.5930   22.8050   35.5620 C   0  0  0  0  0  0  0  0  0  0  0  0
   40.1440   22.2970   36.7930 C   0  0  0  0  0  0  0  0  0  0  0  0
   39.1640   23.0130   37.4610 C   0  0  0  0  0  0  0  0  0  0  0  0
   38.6900   24.1470   36.9130 N   0  0  0  0  0  0  0  0  0  0  0  0
   39.1250   24.6100   35.7530 C   0  0  0  0  0  0  0  0  0  0  0  0
   40.0700   23.9300   35.0960 N   0  0  0  0  0  0  0  0  0  0  0  0
   38.6020   25.7970   35.2430 N   0  0  0  0  0  0  0  0  0  0  0  0
   38.5220   26.9880   36.0030 C   0  0  0  0  0  0  0  0  0  0  0  0
   37.5940   27.8730   35.3570 C   0  0  0  0  0  0  0  0  0  0  0  0
   36.9990   27.0870   34.2210 C   0  0  0  0  0  0  0  0  0  0  0  0
   38.0520   26.1480   33.9240 C   0  0  2  0  0  0  0  0  0  0  0  0
   37.6880   24.9320   33.2710 N   0  0  0  0  0  0  0  0  0  0  0  0
   36.7560   24.6340   32.2730 C   0  0  0  0  0  0  0  0  0  0  0  0
   36.1090   25.6130   31.7920 N   0  0  0  0  0  0  0  0  0  0  0  0
   36.4520   23.3570   31.7280 N   0  0  0  0  0  0  0  0  0  0  0  0
   36.0580   26.5300   32.1430 H   0  0  0  0  0  0  0  0  0  0  0  0
   39.2000   26.9410   33.4170 C   0  0  0  0  0  0  0  0  0  0  0  0
   39.4600   27.1020   32.0050 C   0  0  0  0  0  0  0  0  0  0  0  0
   38.6520   27.7200   31.0080 C   0  0  0  0  0  0  0  0  0  0  0  0
   39.3910   27.7220   29.7930 C   0  0  0  0  0  0  0  0  0  0  0  0
   39.0120   28.2170   28.5520 C   0  0  0  0  0  0  0  0  0  0  0  0
   37.7790   28.7520   28.5600 N   0  0  0  0  0  0  0  0  0  0  0  0
   37.0450   28.7730   29.6780 C   0  0  0  0  0  0  0  0  0  0  0  0
   37.4720   28.2860   30.8100 N   0  0  0  0  0  0  0  0  0  0  0  0
   41.3699   22.2748   34.9916 H   0  0  0  0  0  0  0  0  0  0  0  0
   40.5552   21.3660   37.2104 H   0  0  0  0  0  0  0  0  0  0  0  0
   38.7778   22.6587   38.4281 H   0  0  0  0  0  0  0  0  0  0  0  0
   38.1704   26.7577   37.0195 H   0  0  0  0  0  0  0  0  0  0  0  0
   39.5126   27.4614   36.0714 H   0  0  0  0  0  0  0  0  0  0  0  0
   36.8077   28.1834   36.0609 H   0  0  0  0  0  0  0  0  0  0  0  0
   38.0895   28.7878   34.9998 H   0  0  0  0  0  0  0  0  0  0  0  0
   36.0785   26.5707   34.5309 H   0  0  0  0  0  0  0  0  0  0  0  0
   36.7001   27.7054   33.3618 H   0  0  0  0  0  0  0  0  0  0  0  0
   38.2169   24.1119   33.6005 H   0  0  0  0  0  0  0  0  0  0  0  0
   35.7388   23.2685   30.9902 H   0  0  0  0  0  0  0  0  0  0  0  0
   36.9449   22.5201   32.0708 H   0  0  0  0  0  0  0  0  0  0  0  0
   39.0761   27.9554   33.8240 H   0  0  0  0  0  0  0  0  0  0  0  0
   40.0584   26.3338   33.7402 H   0  0  0  0  0  0  0  0  0  0  0  0
   40.4123   27.6510   31.9636 H   0  0  0  0  0  0  0  0  0  0  0  0
   39.3091   26.0560   31.6998 H   0  0  0  0  0  0  0  0  0  0  0  0
   40.3939   27.2728   29.8426 H   0  0  0  0  0  0  0  0  0  0  0  0
   39.6522   28.1757   27.6584 H   0  0  0  0  0  0  0  0  0  0  0  0
   36.0402   29.2192   29.6412 H   0  0  0  0  0  0  0  0  0  0  0  0
  1  2  2  0
  2  3  1  0
  4  3  2  0
  5  4  1  0
  6  1  1  0
  6  5  2  0
  7  5  1  0
  7  8  1  0
  9  8  1  0
 10  9  1  0
 11 12  1  6
 11 10  1  0
 11  7  1  0
 13 12  1  0
 14 16  1  0
 14 13  2  0
 15 13  1  0
 17 11  1  0
 18 17  1  0
 19 18  1  0
 20 19  2  0
 21 22  2  0
 21 20  1  0
 22 23  1  0
 23 24  2  0
 24 19  1  0
  1 25  1  0
  2 26  1  0
  3 27  1  0
  8 28  1  0
  8 29  1  0
  9 30  1  0
  9 31  1  0
 10 32  1  0
 10 33  1  0
 12 34  1  0
 15 35  1  0
 15 36  1  0
 17 37  1  0
 17 38  1  0
 18 39  1  0
 18 40  1  0
 20 41  1  0
 21 42  1  0
 23 43  1  0
M  ISO  8  25  14  26  14  27  14  28  13  29  13  30  13  31  13  32  13
M  ISO  8  33  13  37   8  38   8  39   8  40   8  41  14  42  14  43  14
M  END
>  <minimizedAffinity>  (1) 
-5.22239351

>  <minimizedRMSD>  (1) 
0.618894517

$$$$
