
     RDKit          3D

 46 49  0  0  1  0  0  0  0  0999 V2000
   40.2550   22.9760   36.5530 C   0  0  0  0  0  0  0  0  0  0  0  0
   39.6060   22.6730   37.7800 C   0  0  0  0  0  0  0  0  0  0  0  0
   38.5510   23.4830   38.1720 C   0  0  0  0  0  0  0  0  0  0  0  0
   38.1780   24.5190   37.3880 N   0  0  0  0  0  0  0  0  0  0  0  0
   38.7970   24.7820   36.2510 C   0  0  0  0  0  0  0  0  0  0  0  0
   39.8270   24.0100   35.8430 N   0  0  0  0  0  0  0  0  0  0  0  0
   38.3840   25.8660   35.4860 N   0  0  0  0  0  0  0  0  0  0  0  0
   38.2160   27.1670   36.0200 C   0  0  0  0  0  0  0  0  0  0  0  0
   37.4180   27.9400   35.1140 C   0  0  0  0  0  0  0  0  0  0  0  0
   36.9960   27.0040   34.0260 C   0  0  0  0  0  0  0  0  0  0  0  0
   38.0420   26.0040   34.0590 C   0  0  2  0  0  0  0  0  0  0  0  0
   37.7460   24.6990   33.5550 N   0  0  0  0  0  0  0  0  0  0  0  0
   37.0410   24.2550   32.4370 C   0  0  0  0  0  0  0  0  0  0  0  0
   36.5490   25.1390   31.6910 N   0  0  0  0  0  0  0  0  0  0  0  0
   36.8210   22.9050   32.0420 N   0  0  0  0  0  0  0  0  0  0  0  0
   36.4910   26.1070   31.8570 H   0  0  0  0  0  0  0  0  0  0  0  0
   39.2840   26.6780   33.6050 C   0  0  0  0  0  0  0  0  0  0  0  0
   39.9400   26.3810   32.3520 C   0  0  0  0  0  0  0  0  0  0  0  0
   39.5290   26.9540   31.1460 N   0  0  0  0  0  0  0  0  0  0  0  0
   40.3290   26.4320   30.1260 C   0  0  0  0  0  0  0  0  0  0  0  0
   40.0850   26.9460   28.8850 N   0  0  0  0  0  0  0  0  0  0  0  0
   39.0980   27.8480   29.0070 C   0  0  0  0  0  0  0  0  0  0  0  0
   38.2940   28.7290   28.3180 C   0  0  0  0  0  0  0  0  0  0  0  0
   37.3260   29.4790   28.8660 N   0  0  0  0  0  0  0  0  0  0  0  0
   37.1090   29.3780   30.1870 C   0  0  0  0  0  0  0  0  0  0  0  0
   37.8680   28.5370   30.8950 N   0  0  0  0  0  0  0  0  0  0  0  0
   38.8390   27.7840   30.3520 C   0  0  0  0  0  0  0  0  0  0  0  0
   41.0973   22.3636   36.1988 H   0  0  0  0  0  0  0  0  0  0  0  0
   39.9299   21.8233   38.3990 H   0  0  0  0  0  0  0  0  0  0  0  0
   38.0210   23.2837   39.1151 H   0  0  0  0  0  0  0  0  0  0  0  0
   37.7112   27.1037   36.9953 H   0  0  0  0  0  0  0  0  0  0  0  0
   39.1976   27.6451   36.1539 H   0  0  0  0  0  0  0  0  0  0  0  0
   36.5361   28.3443   35.6325 H   0  0  0  0  0  0  0  0  0  0  0  0
   37.9826   28.7939   34.7113 H   0  0  0  0  0  0  0  0  0  0  0  0
   36.9626   27.5140   33.0520 H   0  0  0  0  0  0  0  0  0  0  0  0
   35.9862   26.5910   34.1663 H   0  0  0  0  0  0  0  0  0  0  0  0
   38.1292   23.9365   34.1317 H   0  0  0  0  0  0  0  0  0  0  0  0
   36.2804   22.6993   31.1898 H   0  0  0  0  0  0  0  0  0  0  0  0
   37.2025   22.1340   32.6085 H   0  0  0  0  0  0  0  0  0  0  0  0
   39.0491   27.7522   33.5742 H   0  0  0  0  0  0  0  0  0  0  0  0
   40.0160   26.2890   34.3281 H   0  0  0  0  0  0  0  0  0  0  0  0
   40.9952   26.6629   32.4828 H   0  0  0  0  0  0  0  0  0  0  0  0
   39.6835   25.3217   32.2030 H   0  0  0  0  0  0  0  0  0  0  0  0
   41.0966   25.6656   30.3090 H   0  0  0  0  0  0  0  0  0  0  0  0
   38.4583   28.8250   27.2346 H   0  0  0  0  0  0  0  0  0  0  0  0
   36.3241   29.9742   30.6753 H   0  0  0  0  0  0  0  0  0  0  0  0
  1  2  2  0
  2  3  1  0
  4  3  2  0
  5  4  1  0
  6  5  2  0
  6  1  1  0
  7  8  1  0
  7  5  1  0
  9  8  1  0
 10 11  1  0
 10  9  1  0
 11 12  1  6
 11  7  1  0
 13 12  1  0
 14 16  1  0
 14 13  2  0
 15 13  1  0
 17 11  1  0
 18 17  1  0
 19 18  1  0
 20 19  1  0
 21 22  1  0
 21 20  2  0
 22 27  2  0
 23 24  2  0
 23 22  1  0
 24 25  1  0
 25 26  2  0
 27 26  1  0
 27 19  1  0
  1 28  1  0
  2 29  1  0
  3 30  1  0
  8 31  1  0
  8 32  1  0
  9 33  1  0
  9 34  1  0
 10 35  1  0
 10 36  1  0
 12 37  1  0
 15 38  1  0
 15 39  1  0
 17 40  1  0
 17 41  1  0
 18 42  1  0
 18 43  1  0
 20 44  1  0
 23 45  1  0
 25 46  1  0
M  ISO  8  28  14  29  14  30  14  31  13  32  13  33  13  34  13  35  13
M  ISO  8  36  13  40   8  41   8  42   8  43   8  44  14  45  14  46  14
M  END
>  <minimizedAffinity>  (1) 
-5.40560436

>  <minimizedRMSD>  (1) 
1.4375751

$$$$
