
     RDKit          3D

 41 43  0  0  1  0  0  0  0  0999 V2000
   40.5520   22.8240   35.4850 C   0  0  0  0  0  0  0  0  0  0  0  0
   40.1260   22.3100   36.7200 C   0  0  0  0  0  0  0  0  0  0  0  0
   39.1620   23.0290   37.4080 C   0  0  0  0  0  0  0  0  0  0  0  0
   38.6870   24.1680   36.8720 N   0  0  0  0  0  0  0  0  0  0  0  0
   39.1010   24.6360   35.7070 C   0  0  0  0  0  0  0  0  0  0  0  0
   40.0280   23.9530   35.0340 N   0  0  0  0  0  0  0  0  0  0  0  0
   38.5760   25.8290   35.2130 N   0  0  0  0  0  0  0  0  0  0  0  0
   38.5100   27.0160   35.9810 C   0  0  0  0  0  0  0  0  0  0  0  0
   37.5960   27.9170   35.3460 C   0  0  0  0  0  0  0  0  0  0  0  0
   36.9540   27.1210   34.2330 C   0  0  0  0  0  0  0  0  0  0  0  0
   38.0070   26.1940   33.9040 C   0  0  2  0  0  0  0  0  0  0  0  0
   37.6270   24.9820   33.2500 N   0  0  0  0  0  0  0  0  0  0  0  0
   36.6890   24.6930   32.2560 C   0  0  0  0  0  0  0  0  0  0  0  0
   36.0500   25.6820   31.7820 N   0  0  0  0  0  0  0  0  0  0  0  0
   36.3680   23.4210   31.7060 N   0  0  0  0  0  0  0  0  0  0  0  0
   36.0170   26.6000   32.1330 H   0  0  0  0  0  0  0  0  0  0  0  0
   39.1580   26.9700   33.3840 C   0  0  0  0  0  0  0  0  0  0  0  0
   39.4390   27.0670   31.9640 C   0  0  0  0  0  0  0  0  0  0  0  0
   38.6730   27.7420   30.9670 C   0  0  0  0  0  0  0  0  0  0  0  0
   39.5280   27.8070   29.7660 C   0  0  0  0  0  0  0  0  0  0  0  0
   38.4000   28.6630   28.5850 S   0  0  0  0  0  0  0  0  0  0  0  0
   37.0150   28.8080   29.8040 C   0  0  0  0  0  0  0  0  0  0  0  0
   37.5020   28.2520   30.8590 N   0  0  0  0  0  0  0  0  0  0  0  0
   41.3150   22.2930   34.8969 H   0  0  0  0  0  0  0  0  0  0  0  0
   40.5405   21.3749   37.1248 H   0  0  0  0  0  0  0  0  0  0  0  0
   38.7897   22.6732   38.3800 H   0  0  0  0  0  0  0  0  0  0  0  0
   38.1560   26.7822   36.9959 H   0  0  0  0  0  0  0  0  0  0  0  0
   39.5066   27.4764   36.0502 H   0  0  0  0  0  0  0  0  0  0  0  0
   36.8347   28.2605   36.0618 H   0  0  0  0  0  0  0  0  0  0  0  0
   38.1052   28.8146   34.9652 H   0  0  0  0  0  0  0  0  0  0  0  0
   36.0513   26.5977   34.5813 H   0  0  0  0  0  0  0  0  0  0  0  0
   36.6095   27.7305   33.3846 H   0  0  0  0  0  0  0  0  0  0  0  0
   38.1489   24.1563   33.5767 H   0  0  0  0  0  0  0  0  0  0  0  0
   35.6503   23.3439   30.9712 H   0  0  0  0  0  0  0  0  0  0  0  0
   36.8533   22.5771   32.0425 H   0  0  0  0  0  0  0  0  0  0  0  0
   39.0219   28.0010   33.7425 H   0  0  0  0  0  0  0  0  0  0  0  0
   40.0155   26.3867   33.7507 H   0  0  0  0  0  0  0  0  0  0  0  0
   40.4378   27.5244   31.9069 H   0  0  0  0  0  0  0  0  0  0  0  0
   39.2149   26.0293   31.6759 H   0  0  0  0  0  0  0  0  0  0  0  0
   40.5557   27.4445   29.6164 H   0  0  0  0  0  0  0  0  0  0  0  0
   36.0212   29.2579   29.6625 H   0  0  0  0  0  0  0  0  0  0  0  0
  1  2  2  0
  2  3  1  0
  4  3  2  0
  5  4  1  0
  6  1  1  0
  6  5  2  0
  7  5  1  0
  7  8  1  0
  9  8  1  0
 10  9  1  0
 11 12  1  6
 11 10  1  0
 11  7  1  0
 13 12  1  0
 14 16  1  0
 14 13  2  0
 15 13  1  0
 17 11  1  0
 18 17  1  0
 19 18  1  0
 20 19  2  0
 21 20  1  0
 21 22  1  0
 22 23  2  0
 23 19  1  0
  1 24  1  0
  2 25  1  0
  3 26  1  0
  8 27  1  0
  8 28  1  0
  9 29  1  0
  9 30  1  0
 10 31  1  0
 10 32  1  0
 12 33  1  0
 15 34  1  0
 15 35  1  0
 17 36  1  0
 17 37  1  0
 18 38  1  0
 18 39  1  0
 20 40  1  0
 22 41  1  0
M  ISO  8  24  14  25  14  26  14  27  13  28  13  29  13  30  13  31  13
M  ISO  7  32  13  36   8  37   8  38   8  39   8  40  14  41  14
M  END
>  <minimizedAffinity>  (1) 
-4.97154856

>  <minimizedRMSD>  (1) 
0.684776068

$$$$
