
     RDKit          3D

 43 45  0  0  1  0  0  0  0  0999 V2000
   40.5380   22.7980   35.4470 C   0  0  0  0  0  0  0  0  0  0  0  0
   40.1350   22.2690   36.6740 C   0  0  0  0  0  0  0  0  0  0  0  0
   39.1810   22.9850   37.3890 C   0  0  0  0  0  0  0  0  0  0  0  0
   38.7000   24.1330   36.8740 N   0  0  0  0  0  0  0  0  0  0  0  0
   39.0910   24.6190   35.7150 C   0  0  0  0  0  0  0  0  0  0  0  0
   40.0120   23.9350   35.0150 N   0  0  0  0  0  0  0  0  0  0  0  0
   38.5770   25.8100   35.2260 N   0  0  0  0  0  0  0  0  0  0  0  0
   38.5640   26.9830   35.9910 C   0  0  0  0  0  0  0  0  0  0  0  0
   37.6440   27.8920   35.4170 C   0  0  0  0  0  0  0  0  0  0  0  0
   36.9760   27.1620   34.2790 C   0  0  0  0  0  0  0  0  0  0  0  0
   37.9870   26.2140   33.9380 C   0  0  2  0  0  0  0  0  0  0  0  0
   37.6070   24.9820   33.2860 N   0  0  0  0  0  0  0  0  0  0  0  0
   36.6570   24.7110   32.2820 C   0  0  0  0  0  0  0  0  0  0  0  0
   36.0540   25.7170   31.7800 N   0  0  0  0  0  0  0  0  0  0  0  0
   36.2900   23.4530   31.7460 N   0  0  0  0  0  0  0  0  0  0  0  0
   36.0550   26.6180   32.0980 H   0  0  0  0  0  0  0  0  0  0  0  0
   39.1500   26.9660   33.3910 C   0  0  0  0  0  0  0  0  0  0  0  0
   39.3170   27.0970   31.9410 C   0  0  0  0  0  0  0  0  0  0  0  0
   38.5320   27.8930   31.0570 C   0  0  0  0  0  0  0  0  0  0  0  0
   39.0810   27.8210   29.7200 C   0  0  0  0  0  0  0  0  0  0  0  0
   37.9280   28.8390   28.7370 S   0  0  0  0  0  0  0  0  0  0  0  0
   36.8670   29.2340   30.2020 C   0  0  0  0  0  0  0  0  0  0  0  0
   37.4850   28.5970   31.1290 N   0  0  0  0  0  0  0  0  0  0  0  0
   35.6490   30.0260   30.4020 N   0  0  0  0  0  0  0  0  0  0  0  0
   41.2902   22.2726   34.8402 H   0  0  0  0  0  0  0  0  0  0  0  0
   40.5535   21.3272   37.0586 H   0  0  0  0  0  0  0  0  0  0  0  0
   38.8237   22.6185   38.3627 H   0  0  0  0  0  0  0  0  0  0  0  0
   38.2583   26.7489   37.0214 H   0  0  0  0  0  0  0  0  0  0  0  0
   39.5692   27.4293   36.0076 H   0  0  0  0  0  0  0  0  0  0  0  0
   36.8962   28.1983   36.1633 H   0  0  0  0  0  0  0  0  0  0  0  0
   38.1511   28.8019   35.0635 H   0  0  0  0  0  0  0  0  0  0  0  0
   36.0496   26.6662   34.6046 H   0  0  0  0  0  0  0  0  0  0  0  0
   36.6592   27.8084   33.4473 H   0  0  0  0  0  0  0  0  0  0  0  0
   38.1233   24.1534   33.6142 H   0  0  0  0  0  0  0  0  0  0  0  0
   35.5737   23.3968   31.0080 H   0  0  0  0  0  0  0  0  0  0  0  0
   36.7393   22.5940   32.0941 H   0  0  0  0  0  0  0  0  0  0  0  0
   39.0892   27.9862   33.7979 H   0  0  0  0  0  0  0  0  0  0  0  0
   40.0132   26.3544   33.6924 H   0  0  0  0  0  0  0  0  0  0  0  0
   40.3481   27.4553   31.8054 H   0  0  0  0  0  0  0  0  0  0  0  0
   38.9745   26.0984   31.6320 H   0  0  0  0  0  0  0  0  0  0  0  0
   39.9773   27.2825   29.3784 H   0  0  0  0  0  0  0  0  0  0  0  0
   35.2307   30.0993   31.3404 H   0  0  0  0  0  0  0  0  0  0  0  0
   35.2119   30.5089   29.6041 H   0  0  0  0  0  0  0  0  0  0  0  0
  1  2  2  0
  2  3  1  0
  4  3  2  0
  5  4  1  0
  6  1  1  0
  6  5  2  0
  7  5  1  0
  7  8  1  0
  9  8  1  0
 10  9  1  0
 11 12  1  6
 11 10  1  0
 11  7  1  0
 13 12  1  0
 14 16  1  0
 14 13  2  0
 15 13  1  0
 17 11  1  0
 18 17  1  0
 19 23  1  0
 19 18  1  0
 20 19  2  0
 21 20  1  0
 21 22  1  0
 22 24  1  0
 22 23  2  0
  1 25  1  0
  2 26  1  0
  3 27  1  0
  8 28  1  0
  8 29  1  0
  9 30  1  0
  9 31  1  0
 10 32  1  0
 10 33  1  0
 12 34  1  0
 15 35  1  0
 15 36  1  0
 17 37  1  0
 17 38  1  0
 18 39  1  0
 18 40  1  0
 20 41  1  0
 24 42  1  0
 24 43  1  0
M  ISO  8  25  14  26  14  27  14  28  13  29  13  30  13  31  13  32  13
M  ISO  6  33  13  37   8  38   8  39   8  40   8  41  14
M  END
>  <minimizedAffinity>  (1) 
-5.38024426

>  <minimizedRMSD>  (1) 
0.27421397

$$$$
