
     RDKit          3D

 48 51  0  0  1  0  0  0  0  0999 V2000
   40.6580   22.7720   35.5390 C   0  0  0  0  0  0  0  0  0  0  0  0
   40.2670   22.2640   36.7790 C   0  0  0  0  0  0  0  0  0  0  0  0
   39.2930   22.9780   37.4760 C   0  0  0  0  0  0  0  0  0  0  0  0
   38.7850   24.1000   36.9300 N   0  0  0  0  0  0  0  0  0  0  0  0
   39.1650   24.5650   35.7580 C   0  0  0  0  0  0  0  0  0  0  0  0
   40.1030   23.8850   35.0790 N   0  0  0  0  0  0  0  0  0  0  0  0
   38.6250   25.7290   35.2410 N   0  0  0  0  0  0  0  0  0  0  0  0
   38.5760   26.9220   35.9770 C   0  0  0  0  0  0  0  0  0  0  0  0
   37.6360   27.7920   35.3790 C   0  0  0  0  0  0  0  0  0  0  0  0
   36.9890   27.0170   34.2570 C   0  0  0  0  0  0  0  0  0  0  0  0
   38.0290   26.0880   33.9400 C   0  0  2  0  0  0  0  0  0  0  0  0
   37.6770   24.8310   33.3220 N   0  0  0  0  0  0  0  0  0  0  0  0
   36.7250   24.5090   32.3340 C   0  0  0  0  0  0  0  0  0  0  0  0
   36.0860   25.4830   31.8180 N   0  0  0  0  0  0  0  0  0  0  0  0
   36.3920   23.2300   31.8290 N   0  0  0  0  0  0  0  0  0  0  0  0
   36.0610   26.3900   32.1180 H   0  0  0  0  0  0  0  0  0  0  0  0
   39.1660   26.8640   33.3810 C   0  0  0  0  0  0  0  0  0  0  0  0
   39.2830   27.0230   31.9270 C   0  0  0  0  0  0  0  0  0  0  0  0
   38.5200   27.9030   31.1050 C   0  0  0  0  0  0  0  0  0  0  0  0
   38.8140   27.6390   29.7120 C   0  0  0  0  0  0  0  0  0  0  0  0
   37.7090   28.7970   28.8300 S   0  0  0  0  0  0  0  0  0  0  0  0
   37.0020   29.4780   30.3950 C   0  0  0  0  0  0  0  0  0  0  0  0
   37.6440   28.7970   31.2720 N   0  0  0  0  0  0  0  0  0  0  0  0
   36.0000   30.4990   30.6310 N   0  0  0  0  0  0  0  0  0  0  0  0
   34.8330   30.2640   31.1900 N   0  0  0  0  0  0  0  0  0  0  0  0
   34.1240   31.4290   31.2670 C   0  0  0  0  0  0  0  0  0  0  0  0
   34.9890   32.3680   30.7000 C   0  0  0  0  0  0  0  0  0  0  0  0
   36.1710   31.7650   30.3010 C   0  0  0  0  0  0  0  0  0  0  0  0
   41.4237   22.2509   34.9456 H   0  0  0  0  0  0  0  0  0  0  0  0
   40.7072   21.3425   37.1877 H   0  0  0  0  0  0  0  0  0  0  0  0
   38.9438   22.6296   38.4592 H   0  0  0  0  0  0  0  0  0  0  0  0
   38.2719   26.7051   37.0116 H   0  0  0  0  0  0  0  0  0  0  0  0
   39.5689   27.3955   35.9849 H   0  0  0  0  0  0  0  0  0  0  0  0
   36.8787   28.0978   36.1158 H   0  0  0  0  0  0  0  0  0  0  0  0
   38.1212   28.7052   35.0039 H   0  0  0  0  0  0  0  0  0  0  0  0
   36.0760   26.5037   34.5932 H   0  0  0  0  0  0  0  0  0  0  0  0
   36.6553   27.6342   33.4099 H   0  0  0  0  0  0  0  0  0  0  0  0
   38.2191   24.0251   33.6649 H   0  0  0  0  0  0  0  0  0  0  0  0
   35.6701   23.1360   31.1003 H   0  0  0  0  0  0  0  0  0  0  0  0
   36.8715   22.3929   32.1900 H   0  0  0  0  0  0  0  0  0  0  0  0
   39.1059   27.8750   33.8102 H   0  0  0  0  0  0  0  0  0  0  0  0
   40.0473   26.2625   33.6483 H   0  0  0  0  0  0  0  0  0  0  0  0
   40.3313   27.3080   31.7543 H   0  0  0  0  0  0  0  0  0  0  0  0
   38.8593   26.0604   31.6045 H   0  0  0  0  0  0  0  0  0  0  0  0
   39.5281   26.9176   29.2881 H   0  0  0  0  0  0  0  0  0  0  0  0
   33.1157   31.5891   31.6765 H   0  0  0  0  0  0  0  0  0  0  0  0
   34.7630   33.4385   30.5860 H   0  0  0  0  0  0  0  0  0  0  0  0
   37.0449   32.2313   29.8225 H   0  0  0  0  0  0  0  0  0  0  0  0
  1  2  2  0
  2  3  1  0
  4  3  2  0
  5  4  1  0
  6  1  1  0
  6  5  2  0
  7  5  1  0
  7  8  1  0
  9  8  1  0
 10  9  1  0
 11 12  1  6
 11 10  1  0
 11  7  1  0
 13 12  1  0
 14 16  1  0
 14 13  2  0
 15 13  1  0
 17 11  1  0
 18 17  1  0
 19 23  1  0
 19 18  1  0
 20 19  2  0
 21 20  1  0
 21 22  1  0
 22 24  1  0
 22 23  2  0
 24 25  1  0
 25 26  2  0
 27 26  1  0
 28 24  1  0
 28 27  2  0
  1 29  1  0
  2 30  1  0
  3 31  1  0
  8 32  1  0
  8 33  1  0
  9 34  1  0
  9 35  1  0
 10 36  1  0
 10 37  1  0
 12 38  1  0
 15 39  1  0
 15 40  1  0
 17 41  1  0
 17 42  1  0
 18 43  1  0
 18 44  1  0
 20 45  1  0
 26 46  1  0
 27 47  1  0
 28 48  1  0
M  ISO  8  29  14  30  14  31  14  32  13  33  13  34  13  35  13  36  13
M  ISO  8  37  13  41   8  42   8  43   8  44   8  45  14  46  14  47  14
M  ISO  1  48  14
M  END
>  <minimizedAffinity>  (1) 
-5.62265539

>  <minimizedRMSD>  (1) 
0.903319836

$$$$
