
     RDKit          3D

 57 60  0  0  1  0  0  0  0  0999 V2000
   40.6520   22.6550   35.5220 C   0  0  0  0  0  0  0  0  0  0  0  0
   40.2620   22.1470   36.7630 C   0  0  0  0  0  0  0  0  0  0  0  0
   39.3190   22.8850   37.4780 C   0  0  0  0  0  0  0  0  0  0  0  0
   38.8370   24.0300   36.9510 N   0  0  0  0  0  0  0  0  0  0  0  0
   39.2200   24.4910   35.7770 C   0  0  0  0  0  0  0  0  0  0  0  0
   40.1280   23.7880   35.0790 N   0  0  0  0  0  0  0  0  0  0  0  0
   38.7080   25.6750   35.2760 N   0  0  0  0  0  0  0  0  0  0  0  0
   38.7050   26.8650   36.0190 C   0  0  0  0  0  0  0  0  0  0  0  0
   37.7840   27.7640   35.4400 C   0  0  0  0  0  0  0  0  0  0  0  0
   37.0980   27.0170   34.3240 C   0  0  0  0  0  0  0  0  0  0  0  0
   38.1060   26.0600   33.9850 C   0  0  2  0  0  0  0  0  0  0  0  0
   37.7040   24.8190   33.3640 N   0  0  0  0  0  0  0  0  0  0  0  0
   36.7530   24.5370   32.3650 C   0  0  0  0  0  0  0  0  0  0  0  0
   36.1600   25.5390   31.8430 N   0  0  0  0  0  0  0  0  0  0  0  0
   36.3760   23.2720   31.8540 N   0  0  0  0  0  0  0  0  0  0  0  0
   36.1720   26.4460   32.1390 H   0  0  0  0  0  0  0  0  0  0  0  0
   39.2550   26.8070   33.4170 C   0  0  0  0  0  0  0  0  0  0  0  0
   39.3220   27.0150   31.9640 C   0  0  0  0  0  0  0  0  0  0  0  0
   38.4930   27.8830   31.1930 C   0  0  0  0  0  0  0  0  0  0  0  0
   38.8420   27.7710   29.7930 C   0  0  0  0  0  0  0  0  0  0  0  0
   37.6570   28.8820   28.9720 S   0  0  0  0  0  0  0  0  0  0  0  0
   36.8430   29.3580   30.5720 C   0  0  0  0  0  0  0  0  0  0  0  0
   37.5290   28.6690   31.4090 N   0  0  0  0  0  0  0  0  0  0  0  0
   35.7180   30.2900   30.7120 C   0  0  0  0  0  0  0  0  0  0  0  0
   36.1080   31.7280   30.4770 C   0  0  0  0  0  0  0  0  0  0  0  0
   36.7340   32.3630   31.6810 C   0  0  0  0  0  0  0  0  0  0  0  0
   35.7090   32.5610   32.7500 C   0  0  0  0  0  0  0  0  0  0  0  0
   34.6240   31.5320   32.5670 C   0  0  0  0  0  0  0  0  0  0  0  0
   35.1890   30.1900   32.1270 C   0  0  0  0  0  0  0  0  0  0  0  0
   41.3928   22.1154   34.9137 H   0  0  0  0  0  0  0  0  0  0  0  0
   40.6790   21.2089   37.1580 H   0  0  0  0  0  0  0  0  0  0  0  0
   38.9715   22.5371   38.4620 H   0  0  0  0  0  0  0  0  0  0  0  0
   38.4096   26.6514   37.0568 H   0  0  0  0  0  0  0  0  0  0  0  0
   39.7114   27.3090   36.0150 H   0  0  0  0  0  0  0  0  0  0  0  0
   37.0469   28.0877   36.1896 H   0  0  0  0  0  0  0  0  0  0  0  0
   38.2913   28.6640   35.0624 H   0  0  0  0  0  0  0  0  0  0  0  0
   36.1756   26.5282   34.6708 H   0  0  0  0  0  0  0  0  0  0  0  0
   36.7695   27.6496   33.4862 H   0  0  0  0  0  0  0  0  0  0  0  0
   38.2039   23.9901   33.7161 H   0  0  0  0  0  0  0  0  0  0  0  0
   35.6599   23.2071   31.1165 H   0  0  0  0  0  0  0  0  0  0  0  0
   36.8177   22.4164   32.2197 H   0  0  0  0  0  0  0  0  0  0  0  0
   39.2554   27.8023   33.8853 H   0  0  0  0  0  0  0  0  0  0  0  0
   40.1202   26.1623   33.6311 H   0  0  0  0  0  0  0  0  0  0  0  0
   40.3501   27.3550   31.7708 H   0  0  0  0  0  0  0  0  0  0  0  0
   38.9363   26.0431   31.6224 H   0  0  0  0  0  0  0  0  0  0  0  0
   39.6340   27.1605   29.3347 H   0  0  0  0  0  0  0  0  0  0  0  0
   34.9700   30.0107   29.9554 H   0  0  0  0  0  0  0  0  0  0  0  0
   36.8272   31.7659   29.6455 H   0  0  0  0  0  0  0  0  0  0  0  0
   35.1892   32.2874   30.2470 H   0  0  0  0  0  0  0  0  0  0  0  0
   37.5345   31.7112   32.0610 H   0  0  0  0  0  0  0  0  0  0  0  0
   37.1501   33.3407   31.3964 H   0  0  0  0  0  0  0  0  0  0  0  0
   36.1751   32.4373   33.7387 H   0  0  0  0  0  0  0  0  0  0  0  0
   35.2841   33.5734   32.6825 H   0  0  0  0  0  0  0  0  0  0  0  0
   34.0937   31.3997   33.5216 H   0  0  0  0  0  0  0  0  0  0  0  0
   33.9410   31.8900   31.7826 H   0  0  0  0  0  0  0  0  0  0  0  0
   34.3949   29.4299   32.1662 H   0  0  0  0  0  0  0  0  0  0  0  0
   36.0109   29.9058   32.8006 H   0  0  0  0  0  0  0  0  0  0  0  0
  1  2  2  0
  2  3  1  0
  4  3  2  0
  5  4  1  0
  6  1  1  0
  6  5  2  0
  7  5  1  0
  7  8  1  0
  9  8  1  0
 10  9  1  0
 11 12  1  6
 11 10  1  0
 11  7  1  0
 13 12  1  0
 14 16  1  0
 14 13  2  0
 15 13  1  0
 17 11  1  0
 18 17  1  0
 19 23  1  0
 19 18  1  0
 20 19  2  0
 21 20  1  0
 21 22  1  0
 22 24  1  0
 22 23  2  0
 24 29  1  0
 25 24  1  0
 25 26  1  0
 26 27  1  0
 28 27  1  0
 29 28  1  0
  1 30  1  0
  2 31  1  0
  3 32  1  0
  8 33  1  0
  8 34  1  0
  9 35  1  0
  9 36  1  0
 10 37  1  0
 10 38  1  0
 12 39  1  0
 15 40  1  0
 15 41  1  0
 17 42  1  0
 17 43  1  0
 18 44  1  0
 18 45  1  0
 20 46  1  0
 24 47  1  0
 25 48  1  0
 25 49  1  0
 26 50  1  0
 26 51  1  0
 27 52  1  0
 27 53  1  0
 28 54  1  0
 28 55  1  0
 29 56  1  0
 29 57  1  0
M  ISO  8  30  14  31  14  32  14  33  13  34  13  35  13  36  13  37  13
M  ISO  8  38  13  42   8  43   8  44   8  45   8  46  14  47  13  48  13
M  ISO  8  49  13  50  13  51  13  52  13  53  13  54  13  55  13  56  13
M  ISO  1  57  13
M  END
>  <minimizedAffinity>  (1) 
-5.74448109

>  <minimizedRMSD>  (1) 
1.03224897

$$$$
