
     RDKit          3D

 54 57  0  0  1  0  0  0  0  0999 V2000
   40.6730   22.5940   35.4170 C   0  0  0  0  0  0  0  0  0  0  0  0
   40.3290   22.1120   36.6920 C   0  0  0  0  0  0  0  0  0  0  0  0
   39.4050   22.8510   37.4210 C   0  0  0  0  0  0  0  0  0  0  0  0
   38.8900   23.9710   36.8830 N   0  0  0  0  0  0  0  0  0  0  0  0
   39.2190   24.4120   35.6870 C   0  0  0  0  0  0  0  0  0  0  0  0
   40.1150   23.7080   34.9700 N   0  0  0  0  0  0  0  0  0  0  0  0
   38.6630   25.5750   35.1800 N   0  0  0  0  0  0  0  0  0  0  0  0
   38.6670   26.7860   35.8920 C   0  0  0  0  0  0  0  0  0  0  0  0
   37.7110   27.6580   35.3320 C   0  0  0  0  0  0  0  0  0  0  0  0
   36.9980   26.8720   34.2550 C   0  0  0  0  0  0  0  0  0  0  0  0
   38.0010   25.9200   33.9090 C   0  0  2  0  0  0  0  0  0  0  0  0
   37.6120   24.6640   33.3160 N   0  0  0  0  0  0  0  0  0  0  0  0
   36.6590   24.3430   32.3450 C   0  0  0  0  0  0  0  0  0  0  0  0
   36.0510   25.3230   31.7940 N   0  0  0  0  0  0  0  0  0  0  0  0
   36.2760   23.0590   31.8720 N   0  0  0  0  0  0  0  0  0  0  0  0
   36.0580   26.2380   32.0690 H   0  0  0  0  0  0  0  0  0  0  0  0
   39.1300   26.6670   33.2730 C   0  0  0  0  0  0  0  0  0  0  0  0
   39.1260   26.9370   31.8310 C   0  0  0  0  0  0  0  0  0  0  0  0
   38.3460   27.9350   31.1500 C   0  0  0  0  0  0  0  0  0  0  0  0
   38.7200   27.9230   29.7410 C   0  0  0  0  0  0  0  0  0  0  0  0
   37.6200   29.2250   29.0490 S   0  0  0  0  0  0  0  0  0  0  0  0
   36.8370   29.5920   30.6820 C   0  0  0  0  0  0  0  0  0  0  0  0
   37.4410   28.7750   31.4550 N   0  0  0  0  0  0  0  0  0  0  0  0
   35.8330   30.5880   30.7170 N   0  0  0  0  0  0  0  0  0  0  0  0
   36.1620   31.7950   29.9450 C   0  0  0  0  0  0  0  0  0  0  0  0
   36.2810   32.8890   31.0190 C   0  0  0  0  0  0  0  0  0  0  0  0
   35.0250   33.0550   31.5810 O   0  0  0  0  0  0  0  0  0  0  0  0
   34.5350   31.9580   32.2360 C   0  0  0  0  0  0  0  0  0  0  0  0
   34.5240   30.7380   31.3210 C   0  0  0  0  0  0  0  0  0  0  0  0
   41.3998   22.0499   34.7960 H   0  0  0  0  0  0  0  0  0  0  0  0
   40.7722   21.1895   37.0953 H   0  0  0  0  0  0  0  0  0  0  0  0
   39.0986   22.5240   38.4256 H   0  0  0  0  0  0  0  0  0  0  0  0
   38.4166   26.5937   36.9457 H   0  0  0  0  0  0  0  0  0  0  0  0
   39.6647   27.2454   35.8328 H   0  0  0  0  0  0  0  0  0  0  0  0
   36.9961   27.9842   36.1017 H   0  0  0  0  0  0  0  0  0  0  0  0
   38.1863   28.5603   34.9197 H   0  0  0  0  0  0  0  0  0  0  0  0
   36.0926   26.3828   34.6434 H   0  0  0  0  0  0  0  0  0  0  0  0
   36.6372   27.4795   33.4119 H   0  0  0  0  0  0  0  0  0  0  0  0
   38.1339   23.8519   33.6751 H   0  0  0  0  0  0  0  0  0  0  0  0
   35.5514   22.9730   31.1450 H   0  0  0  0  0  0  0  0  0  0  0  0
   36.7230   22.2143   32.2561 H   0  0  0  0  0  0  0  0  0  0  0  0
   39.1847   27.6436   33.7762 H   0  0  0  0  0  0  0  0  0  0  0  0
   39.9802   25.9794   33.3934 H   0  0  0  0  0  0  0  0  0  0  0  0
   40.1713   27.1714   31.5811 H   0  0  0  0  0  0  0  0  0  0  0  0
   38.6116   26.0312   31.4775 H   0  0  0  0  0  0  0  0  0  0  0  0
   39.4651   27.2987   29.2262 H   0  0  0  0  0  0  0  0  0  0  0  0
   37.1122   31.6693   29.4053 H   0  0  0  0  0  0  0  0  0  0  0  0
   35.4103   32.0296   29.1770 H   0  0  0  0  0  0  0  0  0  0  0  0
   37.0011   32.5811   31.7915 H   0  0  0  0  0  0  0  0  0  0  0  0
   36.6367   33.8312   30.5766 H   0  0  0  0  0  0  0  0  0  0  0  0
   35.1691   31.7472   33.1098 H   0  0  0  0  0  0  0  0  0  0  0  0
   33.5029   32.1694   32.5524 H   0  0  0  0  0  0  0  0  0  0  0  0
   33.7682   30.8746   30.5336 H   0  0  0  0  0  0  0  0  0  0  0  0
   34.2793   29.8384   31.9048 H   0  0  0  0  0  0  0  0  0  0  0  0
  1  2  2  0
  2  3  1  0
  4  3  2  0
  5  4  1  0
  6  1  1  0
  6  5  2  0
  7  5  1  0
  7  8  1  0
  9  8  1  0
 10  9  1  0
 11 17  1  0
 11 10  1  0
 11  7  1  0
 11 12  1  6
 13 12  1  0
 14 16  1  0
 14 13  2  0
 15 13  1  0
 18 17  1  0
 19 23  1  0
 19 18  1  0
 20 19  2  0
 21 20  1  0
 21 22  1  0
 22 24  1  0
 22 23  2  0
 24 29  1  0
 25 24  1  0
 25 26  1  0
 26 27  1  0
 27 28  1  0
 29 28  1  0
  1 30  1  0
  2 31  1  0
  3 32  1  0
  8 33  1  0
  8 34  1  0
  9 35  1  0
  9 36  1  0
 10 37  1  0
 10 38  1  0
 12 39  1  0
 15 40  1  0
 15 41  1  0
 17 42  1  0
 17 43  1  0
 18 44  1  0
 18 45  1  0
 20 46  1  0
 25 47  1  0
 25 48  1  0
 26 49  1  0
 26 50  1  0
 28 51  1  0
 28 52  1  0
 29 53  1  0
 29 54  1  0
M  ISO  8  30  14  31  14  32  14  33  13  34  13  35  13  36  13  37  13
M  ISO  8  38  13  42   8  43   8  44   8  45   8  46  14  47  13  48  13
M  ISO  6  49  13  50  13  51  13  52  13  53  13  54  13
M  END
>  <minimizedAffinity>  (1) 
-5.49613571

>  <minimizedRMSD>  (1) 
1.08663261

$$$$
