
     RDKit          3D

 47 49  0  0  1  0  0  0  0  0999 V2000
   40.6720   22.6850   35.5790 C   0  0  0  0  0  0  0  0  0  0  0  0
   40.2900   22.2060   36.8370 C   0  0  0  0  0  0  0  0  0  0  0  0
   39.3280   22.9370   37.5310 C   0  0  0  0  0  0  0  0  0  0  0  0
   38.8170   24.0550   36.9660 N   0  0  0  0  0  0  0  0  0  0  0  0
   39.1900   24.4880   35.7820 C   0  0  0  0  0  0  0  0  0  0  0  0
   40.1170   23.7910   35.1050 N   0  0  0  0  0  0  0  0  0  0  0  0
   38.6470   25.6440   35.2500 N   0  0  0  0  0  0  0  0  0  0  0  0
   38.6090   26.8500   35.9620 C   0  0  0  0  0  0  0  0  0  0  0  0
   37.6700   27.7150   35.3530 C   0  0  0  0  0  0  0  0  0  0  0  0
   37.0120   26.9200   34.2530 C   0  0  0  0  0  0  0  0  0  0  0  0
   38.0400   25.9800   33.9480 C   0  0  2  0  0  0  0  0  0  0  0  0
   37.6800   24.7150   33.3520 N   0  0  0  0  0  0  0  0  0  0  0  0
   36.7330   24.3790   32.3680 C   0  0  0  0  0  0  0  0  0  0  0  0
   36.1070   25.3490   31.8250 N   0  0  0  0  0  0  0  0  0  0  0  0
   36.3860   23.0910   31.8910 N   0  0  0  0  0  0  0  0  0  0  0  0
   36.0920   26.2620   32.1020 H   0  0  0  0  0  0  0  0  0  0  0  0
   39.1810   26.7360   33.3630 C   0  0  0  0  0  0  0  0  0  0  0  0
   39.2570   26.9280   31.9100 C   0  0  0  0  0  0  0  0  0  0  0  0
   38.4910   27.8500   31.1280 C   0  0  0  0  0  0  0  0  0  0  0  0
   38.8260   27.6740   29.7250 C   0  0  0  0  0  0  0  0  0  0  0  0
   37.7310   28.8780   28.8980 S   0  0  0  0  0  0  0  0  0  0  0  0
   36.9800   29.4500   30.4900 C   0  0  0  0  0  0  0  0  0  0  0  0
   37.6020   28.7250   31.3390 N   0  0  0  0  0  0  0  0  0  0  0  0
   35.9070   30.5240   30.5860 C   0  0  0  0  0  0  0  0  0  0  0  0
   35.9520   31.1350   31.9780 C   0  0  0  0  0  0  0  0  0  0  0  0
   41.4277   22.1472   34.9877 H   0  0  0  0  0  0  0  0  0  0  0  0
   40.7305   21.2912   37.2601 H   0  0  0  0  0  0  0  0  0  0  0  0
   38.9886   22.6095   38.5248 H   0  0  0  0  0  0  0  0  0  0  0  0
   38.3099   26.6548   37.0024 H   0  0  0  0  0  0  0  0  0  0  0  0
   39.6046   27.3176   35.9542 H   0  0  0  0  0  0  0  0  0  0  0  0
   36.9197   28.0408   36.0884 H   0  0  0  0  0  0  0  0  0  0  0  0
   38.1572   28.6180   34.9566 H   0  0  0  0  0  0  0  0  0  0  0  0
   36.0984   26.4197   34.6066 H   0  0  0  0  0  0  0  0  0  0  0  0
   36.6772   27.5217   33.3952 H   0  0  0  0  0  0  0  0  0  0  0  0
   38.2143   23.9121   33.7135 H   0  0  0  0  0  0  0  0  0  0  0  0
   35.6677   22.9888   31.1599 H   0  0  0  0  0  0  0  0  0  0  0  0
   36.8520   22.2567   32.2753 H   0  0  0  0  0  0  0  0  0  0  0  0
   39.1661   27.7379   33.8169 H   0  0  0  0  0  0  0  0  0  0  0  0
   40.0503   26.0989   33.5831 H   0  0  0  0  0  0  0  0  0  0  0  0
   40.3068   27.1898   31.7117 H   0  0  0  0  0  0  0  0  0  0  0  0
   38.7961   25.9854   31.5796 H   0  0  0  0  0  0  0  0  0  0  0  0
   39.5569   26.9868   29.2739 H   0  0  0  0  0  0  0  0  0  0  0  0
   36.0953   31.3037   29.8332 H   0  0  0  0  0  0  0  0  0  0  0  0
   34.9166   30.0819   30.4026 H   0  0  0  0  0  0  0  0  0  0  0  0
   35.8931   30.3356   32.7314 H   0  0  0  0  0  0  0  0  0  0  0  0
   36.8934   31.6897   32.1047 H   0  0  0  0  0  0  0  0  0  0  0  0
   35.1020   31.8216   32.1047 H   0  0  0  0  0  0  0  0  0  0  0  0
  1  2  2  0
  2  3  1  0
  4  3  2  0
  5  4  1  0
  6  1  1  0
  6  5  2  0
  7  5  1  0
  7  8  1  0
  9  8  1  0
 10  9  1  0
 11 12  1  6
 11 10  1  0
 11  7  1  0
 13 12  1  0
 14 16  1  0
 14 13  2  0
 15 13  1  0
 17 11  1  0
 18 17  1  0
 19 23  1  0
 19 18  1  0
 20 19  2  0
 21 20  1  0
 21 22  1  0
 22 24  1  0
 22 23  2  0
 24 25  1  0
  1 26  1  0
  2 27  1  0
  3 28  1  0
  8 29  1  0
  8 30  1  0
  9 31  1  0
  9 32  1  0
 10 33  1  0
 10 34  1  0
 12 35  1  0
 15 36  1  0
 15 37  1  0
 17 38  1  0
 17 39  1  0
 18 40  1  0
 18 41  1  0
 20 42  1  0
 24 43  1  0
 24 44  1  0
 25 45  1  0
 25 46  1  0
 25 47  1  0
M  ISO  8  26  14  27  14  28  14  29  13  30  13  31  13  32  13  33  13
M  ISO  8  34  13  38   8  39   8  40   8  41   8  42  14  43   8  44   8
M  ISO  3  45   8  46   8  47   8
M  END
>  <minimizedAffinity>  (1) 
-5.07770157

>  <minimizedRMSD>  (1) 
0.803575397

$$$$
