
     RDKit          3D

 44 46  0  0  1  0  0  0  0  0999 V2000
   40.6390   22.6530   35.5240 C   0  0  0  0  0  0  0  0  0  0  0  0
   40.2760   22.1830   36.7870 C   0  0  0  0  0  0  0  0  0  0  0  0
   39.3290   22.9310   37.4880 C   0  0  0  0  0  0  0  0  0  0  0  0
   38.8240   24.0450   36.9250 N   0  0  0  0  0  0  0  0  0  0  0  0
   39.1790   24.4730   35.7330 C   0  0  0  0  0  0  0  0  0  0  0  0
   40.0890   23.7630   35.0470 N   0  0  0  0  0  0  0  0  0  0  0  0
   38.6430   25.6320   35.2000 N   0  0  0  0  0  0  0  0  0  0  0  0
   38.6310   26.8450   35.9010 C   0  0  0  0  0  0  0  0  0  0  0  0
   37.6900   27.7130   35.3020 C   0  0  0  0  0  0  0  0  0  0  0  0
   37.0030   26.9160   34.2210 C   0  0  0  0  0  0  0  0  0  0  0  0
   38.0160   25.9590   33.9040 C   0  0  2  0  0  0  0  0  0  0  0  0
   37.6270   24.6940   33.3310 N   0  0  0  0  0  0  0  0  0  0  0  0
   36.6800   24.3650   32.3420 C   0  0  0  0  0  0  0  0  0  0  0  0
   36.0810   25.3380   31.7800 N   0  0  0  0  0  0  0  0  0  0  0  0
   36.3120   23.0760   31.8840 N   0  0  0  0  0  0  0  0  0  0  0  0
   36.0870   26.2560   32.0430 H   0  0  0  0  0  0  0  0  0  0  0  0
   39.1530   26.6980   33.2920 C   0  0  0  0  0  0  0  0  0  0  0  0
   39.2170   26.8570   31.8360 C   0  0  0  0  0  0  0  0  0  0  0  0
   38.5290   27.8390   31.0550 C   0  0  0  0  0  0  0  0  0  0  0  0
   38.7820   27.5940   29.6450 C   0  0  0  0  0  0  0  0  0  0  0  0
   37.7850   28.9000   28.8310 S   0  0  0  0  0  0  0  0  0  0  0  0
   37.1780   29.5850   30.4260 C   0  0  0  0  0  0  0  0  0  0  0  0
   37.7520   28.8130   31.2710 N   0  0  0  0  0  0  0  0  0  0  0  0
   36.2490   30.7490   30.5260 C   0  0  0  0  0  0  0  0  0  0  0  0
   36.3040   31.4450   29.3570 F   0  0  0  0  0  0  0  0  0  0  0  0
   34.9540   30.3360   30.7640 F   0  0  0  0  0  0  0  0  0  0  0  0
   36.6350   31.4810   31.6280 F   0  0  0  0  0  0  0  0  0  0  0  0
   41.3801   22.1042   34.9244 H   0  0  0  0  0  0  0  0  0  0  0  0
   40.7151   21.2672   37.2095 H   0  0  0  0  0  0  0  0  0  0  0  0
   38.9991   22.6143   38.4884 H   0  0  0  0  0  0  0  0  0  0  0  0
   38.3500   26.6627   36.9488 H   0  0  0  0  0  0  0  0  0  0  0  0
   39.6310   27.3023   35.8699 H   0  0  0  0  0  0  0  0  0  0  0  0
   36.9568   28.0527   36.0484 H   0  0  0  0  0  0  0  0  0  0  0  0
   38.1792   28.6071   34.8883 H   0  0  0  0  0  0  0  0  0  0  0  0
   36.0904   26.4295   34.5957 H   0  0  0  0  0  0  0  0  0  0  0  0
   36.6599   27.5145   33.3642 H   0  0  0  0  0  0  0  0  0  0  0  0
   38.1340   23.8838   33.7150 H   0  0  0  0  0  0  0  0  0  0  0  0
   35.5984   22.9752   31.1481 H   0  0  0  0  0  0  0  0  0  0  0  0
   36.7580   22.2395   32.2869 H   0  0  0  0  0  0  0  0  0  0  0  0
   39.1447   27.7099   33.7232 H   0  0  0  0  0  0  0  0  0  0  0  0
   40.0223   26.0633   33.5186 H   0  0  0  0  0  0  0  0  0  0  0  0
   40.2831   27.0095   31.6119 H   0  0  0  0  0  0  0  0  0  0  0  0
   38.6597   25.9591   31.5307 H   0  0  0  0  0  0  0  0  0  0  0  0
   39.4126   26.8203   29.1827 H   0  0  0  0  0  0  0  0  0  0  0  0
  1  2  2  0
  2  3  1  0
  4  3  2  0
  5  4  1  0
  6  1  1  0
  6  5  2  0
  7  5  1  0
  7  8  1  0
  9  8  1  0
 10  9  1  0
 11 17  1  0
 11 10  1  0
 11  7  1  0
 11 12  1  6
 13 12  1  0
 14 16  1  0
 14 13  2  0
 15 13  1  0
 18 17  1  0
 19 23  1  0
 19 18  1  0
 20 19  2  0
 21 20  1  0
 21 22  1  0
 22 24  1  0
 22 23  2  0
 24 26  1  0
 24 27  1  0
 25 24  1  0
  1 28  1  0
  2 29  1  0
  3 30  1  0
  8 31  1  0
  8 32  1  0
  9 33  1  0
  9 34  1  0
 10 35  1  0
 10 36  1  0
 12 37  1  0
 15 38  1  0
 15 39  1  0
 17 40  1  0
 17 41  1  0
 18 42  1  0
 18 43  1  0
 20 44  1  0
M  ISO  8  28  14  29  14  30  14  31  13  32  13  33  13  34  13  35  13
M  ISO  6  36  13  40   8  41   8  42   8  43   8  44  14
M  END
>  <minimizedAffinity>  (1) 
-5.22486687

>  <minimizedRMSD>  (1) 
0.855264604

$$$$
