
     RDKit          3D

 48 51  0  0  1  0  0  0  0  0999 V2000
   40.6570   22.7020   35.5450 C   0  0  0  0  0  0  0  0  0  0  0  0
   40.2740   22.2080   36.7920 C   0  0  0  0  0  0  0  0  0  0  0  0
   39.3120   22.9370   37.4930 C   0  0  0  0  0  0  0  0  0  0  0  0
   38.8090   24.0610   36.9450 N   0  0  0  0  0  0  0  0  0  0  0  0
   39.1830   24.5110   35.7670 C   0  0  0  0  0  0  0  0  0  0  0  0
   40.1090   23.8180   35.0810 N   0  0  0  0  0  0  0  0  0  0  0  0
   38.6490   25.6750   35.2460 N   0  0  0  0  0  0  0  0  0  0  0  0
   38.6260   26.8750   35.9690 C   0  0  0  0  0  0  0  0  0  0  0  0
   37.6890   27.7530   35.3730 C   0  0  0  0  0  0  0  0  0  0  0  0
   37.0230   26.9750   34.2660 C   0  0  0  0  0  0  0  0  0  0  0  0
   38.0420   26.0290   33.9490 C   0  0  2  0  0  0  0  0  0  0  0  0
   37.6740   24.7720   33.3420 N   0  0  0  0  0  0  0  0  0  0  0  0
   36.7240   24.4540   32.3540 C   0  0  0  0  0  0  0  0  0  0  0  0
   36.1080   25.4330   31.8180 N   0  0  0  0  0  0  0  0  0  0  0  0
   36.3640   23.1740   31.8660 N   0  0  0  0  0  0  0  0  0  0  0  0
   36.0980   26.3430   32.1070 H   0  0  0  0  0  0  0  0  0  0  0  0
   39.1830   26.7840   33.3700 C   0  0  0  0  0  0  0  0  0  0  0  0
   39.2800   26.9490   31.9130 C   0  0  0  0  0  0  0  0  0  0  0  0
   38.5380   27.8750   31.1120 C   0  0  0  0  0  0  0  0  0  0  0  0
   38.8570   27.6570   29.7110 C   0  0  0  0  0  0  0  0  0  0  0  0
   37.7790   28.8610   28.8580 S   0  0  0  0  0  0  0  0  0  0  0  0
   37.0580   29.4850   30.4320 C   0  0  0  0  0  0  0  0  0  0  0  0
   37.6710   28.7710   31.2960 N   0  0  0  0  0  0  0  0  0  0  0  0
   36.0210   30.5700   30.4360 C   0  0  0  0  0  0  0  0  0  0  0  0
   35.9670   31.5180   31.5760 C   0  0  0  0  0  0  0  0  0  0  0  0
   34.9010   30.4790   31.4190 C   0  0  0  0  0  0  0  0  0  0  0  0
   41.4110   22.1681   34.9480 H   0  0  0  0  0  0  0  0  0  0  0  0
   40.7102   21.2861   37.2041 H   0  0  0  0  0  0  0  0  0  0  0  0
   38.9683   22.5980   38.4814 H   0  0  0  0  0  0  0  0  0  0  0  0
   38.3324   26.6732   37.0097 H   0  0  0  0  0  0  0  0  0  0  0  0
   39.6253   27.3347   35.9590 H   0  0  0  0  0  0  0  0  0  0  0  0
   36.9429   28.0741   36.1148 H   0  0  0  0  0  0  0  0  0  0  0  0
   38.1800   28.6579   34.9857 H   0  0  0  0  0  0  0  0  0  0  0  0
   36.1056   26.4790   34.6159 H   0  0  0  0  0  0  0  0  0  0  0  0
   36.6926   27.5887   33.4150 H   0  0  0  0  0  0  0  0  0  0  0  0
   38.2022   23.9617   33.6960 H   0  0  0  0  0  0  0  0  0  0  0  0
   35.6453   23.0855   31.1335 H   0  0  0  0  0  0  0  0  0  0  0  0
   36.8209   22.3317   32.2436 H   0  0  0  0  0  0  0  0  0  0  0  0
   39.1509   27.7941   33.8044 H   0  0  0  0  0  0  0  0  0  0  0  0
   40.0552   26.1609   33.6168 H   0  0  0  0  0  0  0  0  0  0  0  0
   40.3367   27.1871   31.7214 H   0  0  0  0  0  0  0  0  0  0  0  0
   38.8089   26.0089   31.5902 H   0  0  0  0  0  0  0  0  0  0  0  0
   39.5706   26.9439   29.2726 H   0  0  0  0  0  0  0  0  0  0  0  0
   36.0943   30.6811   29.3441 H   0  0  0  0  0  0  0  0  0  0  0  0
   36.6980   31.4363   32.3939 H   0  0  0  0  0  0  0  0  0  0  0  0
   35.9758   32.6133   31.6769 H   0  0  0  0  0  0  0  0  0  0  0  0
   33.8831   30.7736   31.1239 H   0  0  0  0  0  0  0  0  0  0  0  0
   34.4844   29.6853   32.0566 H   0  0  0  0  0  0  0  0  0  0  0  0
  1  2  2  0
  2  3  1  0
  4  3  2  0
  5  4  1  0
  6  1  1  0
  6  5  2  0
  7  5  1  0
  7  8  1  0
  9  8  1  0
 10  9  1  0
 11 12  1  6
 11 10  1  0
 11  7  1  0
 13 12  1  0
 14 16  1  0
 14 13  2  0
 15 13  1  0
 17 11  1  0
 18 17  1  0
 19 23  1  0
 19 18  1  0
 20 19  2  0
 21 20  1  0
 21 22  1  0
 22 24  1  0
 22 23  2  0
 24 26  1  0
 24 25  1  0
 26 25  1  0
  1 27  1  0
  2 28  1  0
  3 29  1  0
  8 30  1  0
  8 31  1  0
  9 32  1  0
  9 33  1  0
 10 34  1  0
 10 35  1  0
 12 36  1  0
 15 37  1  0
 15 38  1  0
 17 39  1  0
 17 40  1  0
 18 41  1  0
 18 42  1  0
 20 43  1  0
 24 44  1  0
 25 45  1  0
 25 46  1  0
 26 47  1  0
 26 48  1  0
M  ISO  8  27  14  28  14  29  14  30  13  31  13  32  13  33  13  34  13
M  ISO  8  35  13  39   8  40   8  41   8  42   8  43  14  44  13  45  13
M  ISO  3  46  13  47  13  48  13
M  END
>  <minimizedAffinity>  (1) 
-5.21224642

>  <minimizedRMSD>  (1) 
0.677040398

$$$$
