
     RDKit          3D

 27 29  0  0  0  0  0  0  0  0999 V2000
   40.2380   23.2960   33.6180 C   0  0  0  0  0  0  0  0  0  0  0  0
   39.8600   22.5830   34.7520 C   0  0  0  0  0  0  0  0  0  0  0  0
   38.5140   22.4950   35.0590 C   0  0  0  0  0  0  0  0  0  0  0  0
   37.6120   23.1080   34.2370 N   0  0  0  0  0  0  0  0  0  0  0  0
   38.0000   23.7920   33.1430 C   0  0  0  0  0  0  0  0  0  0  0  0
   39.3110   23.8850   32.8360 N   0  0  0  0  0  0  0  0  0  0  0  0
   37.9560   21.8040   36.1640 N   0  0  0  0  0  0  0  0  0  0  0  0
   36.9710   24.3940   32.3450 N   0  0  0  0  0  0  0  0  0  0  0  0
   36.7380   25.6790   32.1850 N   0  0  0  0  0  0  0  0  0  0  0  0
   35.6820   25.8530   31.3570 C   0  0  0  0  0  0  0  0  0  0  0  0
   35.2590   24.5780   30.9990 C   0  0  0  0  0  0  0  0  0  0  0  0
   36.0900   23.6380   31.6360 C   0  0  0  0  0  0  0  0  0  0  0  0
   36.0400   22.1770   31.5700 C   0  0  0  0  0  0  0  0  0  0  0  0
   35.0230   21.5670   32.3020 C   0  0  0  0  0  0  0  0  0  0  0  0
   34.9810   20.1820   32.2350 C   0  0  0  0  0  0  0  0  0  0  0  0
   35.8550   19.4550   31.5180 N   0  0  0  0  0  0  0  0  0  0  0  0
   36.8290   20.1080   30.8220 C   0  0  0  0  0  0  0  0  0  0  0  0
   36.9020   21.4500   30.8620 N   0  0  0  0  0  0  0  0  0  0  0  0
   41.3034   23.3798   33.3573 H   0  0  0  0  0  0  0  0  0  0  0  0
   40.6149   22.1001   35.3900 H   0  0  0  0  0  0  0  0  0  0  0  0
   36.9358   21.7981   36.3059 H   0  0  0  0  0  0  0  0  0  0  0  0
   38.5708   21.3079   36.8249 H   0  0  0  0  0  0  0  0  0  0  0  0
   35.2464   26.8096   31.0328 H   0  0  0  0  0  0  0  0  0  0  0  0
   34.4172   24.3437   30.3309 H   0  0  0  0  0  0  0  0  0  0  0  0
   34.3000   22.1465   32.8948 H   0  0  0  0  0  0  0  0  0  0  0  0
   34.1953   19.6538   32.7951 H   0  0  0  0  0  0  0  0  0  0  0  0
   37.5561   19.5360   30.2269 H   0  0  0  0  0  0  0  0  0  0  0  0
  1  2  2  0
  2  3  1  0
  3  7  1  0
  4  3  2  0
  5  4  1  0
  6  5  2  0
  6  1  1  0
  8  5  1  0
  9  8  1  0
 10  9  2  0
 11 10  1  0
 11 12  2  0
 12  8  1  0
 13 12  1  0
 13 14  2  0
 15 14  1  0
 16 15  2  0
 17 18  2  0
 17 16  1  0
 18 13  1  0
  1 19  1  0
  2 20  1  0
  7 21  1  0
  7 22  1  0
 10 23  1  0
 11 24  1  0
 14 25  1  0
 15 26  1  0
 17 27  1  0
M  ISO  7  19  14  20  14  23  14  24  14  25  14  26  14  27  14
M  END
>  <minimizedAffinity>  (1) 
-4.74421406

>  <minimizedRMSD>  (1) 
4.81470919

$$$$
