
     RDKit          3D

 19 20  0  0  0  0  0  0  0  0999 V2000
   40.2640   22.2520   36.9520 C   0  0  0  0  0  0  0  0  0  0  0  0
   39.7810   23.1290   37.9330 C   0  0  0  0  0  0  0  0  0  0  0  0
   38.4440   23.5210   37.8720 C   0  0  0  0  0  0  0  0  0  0  0  0
   37.6570   23.0360   36.8630 N   0  0  0  0  0  0  0  0  0  0  0  0
   38.1580   22.1890   35.9310 C   0  0  0  0  0  0  0  0  0  0  0  0
   39.4480   21.8030   35.9770 N   0  0  0  0  0  0  0  0  0  0  0  0
   37.7870   24.3970   38.7730 N   0  0  0  0  0  0  0  0  0  0  0  0
   37.2470   21.7370   34.9110 N   0  0  0  0  0  0  0  0  0  0  0  0
   37.2920   22.0440   33.6190 N   0  0  0  0  0  0  0  0  0  0  0  0
   36.2710   21.4330   32.9690 C   0  0  0  0  0  0  0  0  0  0  0  0
   35.5750   20.7140   33.9490 C   0  0  0  0  0  0  0  0  0  0  0  0
   36.2080   20.9180   35.1780 C   0  0  0  0  0  0  0  0  0  0  0  0
   41.3149   21.9282   36.9777 H   0  0  0  0  0  0  0  0  0  0  0  0
   40.4406   23.4991   38.7317 H   0  0  0  0  0  0  0  0  0  0  0  0
   36.7912   24.6230   38.6377 H   0  0  0  0  0  0  0  0  0  0  0  0
   38.3055   24.8073   39.5627 H   0  0  0  0  0  0  0  0  0  0  0  0
   36.0378   21.4901   31.8955 H   0  0  0  0  0  0  0  0  0  0  0  0
   34.6821   20.0942   33.7800 H   0  0  0  0  0  0  0  0  0  0  0  0
   35.9209   20.5004   36.1543 H   0  0  0  0  0  0  0  0  0  0  0  0
  1  2  2  0
  3  2  1  0
  3  7  1  0
  4  3  2  0
  5  6  2  0
  5  4  1  0
  6  1  1  0
  8 12  1  0
  8  5  1  0
  9  8  1  0
 10  9  2  0
 10 11  1  0
 11 12  2  0
  1 13  1  0
  2 14  1  0
  7 15  1  0
  7 16  1  0
 10 17  1  0
 11 18  1  0
 12 19  1  0
M  ISO  5  13  14  14  14  17  14  18  14  19  14
M  END
>  <minimizedAffinity>  (1) 
-3.92595363

>  <minimizedRMSD>  (1) 
0.798843563

$$$$
