
     RDKit          3D

 33 36  0  0  0  0  0  0  0  0999 V2000
   38.3950   23.5170   38.0860 C   0  0  0  0  0  0  0  0  0  0  0  0
   39.6140   22.9110   38.3840 C   0  0  0  0  0  0  0  0  0  0  0  0
   40.2400   22.1350   37.4160 C   0  0  0  0  0  0  0  0  0  0  0  0
   39.6220   22.0050   36.2060 N   0  0  0  0  0  0  0  0  0  0  0  0
   38.4450   22.5980   35.9350 C   0  0  0  0  0  0  0  0  0  0  0  0
   37.8370   23.3460   36.8640 N   0  0  0  0  0  0  0  0  0  0  0  0
   41.4750   21.4600   37.5660 N   0  0  0  0  0  0  0  0  0  0  0  0
   37.8960   22.3800   34.6140 N   0  0  0  0  0  0  0  0  0  0  0  0
   36.7980   21.6770   34.3310 N   0  0  0  0  0  0  0  0  0  0  0  0
   36.6050   21.7000   32.9800 C   0  0  0  0  0  0  0  0  0  0  0  0
   37.6480   22.4560   32.4540 C   0  0  0  0  0  0  0  0  0  0  0  0
   38.4750   22.8910   33.4970 C   0  0  0  0  0  0  0  0  0  0  0  0
   39.6550   23.6830   33.4660 N   0  0  0  0  0  0  0  0  0  0  0  0
   40.7940   23.3350   32.8540 C   0  0  0  0  0  0  0  0  0  0  0  0
   41.7170   24.3290   33.0230 N   0  0  0  0  0  0  0  0  0  0  0  0
   41.1110   25.2950   33.7560 C   0  0  0  0  0  0  0  0  0  0  0  0
   41.5090   26.5300   34.2500 C   0  0  0  0  0  0  0  0  0  0  0  0
   42.6720   26.9310   34.0210 O   0  0  0  0  0  0  0  0  0  0  0  0
   40.6380   27.2590   34.9600 N   0  0  0  0  0  0  0  0  0  0  0  0
   39.3950   26.8550   35.2190 C   0  0  0  0  0  0  0  0  0  0  0  0
   38.5240   27.6820   35.9790 N   0  0  0  0  0  0  0  0  0  0  0  0
   38.9590   25.6490   34.7550 N   0  0  0  0  0  0  0  0  0  0  0  0
   39.8270   24.8950   34.0320 C   0  0  0  0  0  0  0  0  0  0  0  0
   37.8868   24.1333   38.8422 H   0  0  0  0  0  0  0  0  0  0  0  0
   40.0752   23.0453   39.3736 H   0  0  0  0  0  0  0  0  0  0  0  0
   41.8579   20.9072   36.7858 H   0  0  0  0  0  0  0  0  0  0  0  0
   41.9909   21.5216   38.4554 H   0  0  0  0  0  0  0  0  0  0  0  0
   35.7898   21.2183   32.4202 H   0  0  0  0  0  0  0  0  0  0  0  0
   37.7991   22.6771   31.3871 H   0  0  0  0  0  0  0  0  0  0  0  0
   40.9605   22.3978   32.3027 H   0  0  0  0  0  0  0  0  0  0  0  0
   40.9430   28.1737   35.3223 H   0  0  0  0  0  0  0  0  0  0  0  0
   37.5630   27.3705   36.1797 H   0  0  0  0  0  0  0  0  0  0  0  0
   38.8538   28.5928   36.3291 H   0  0  0  0  0  0  0  0  0  0  0  0
  1  2  2  0
  3  7  1  0
  3  2  1  0
  4  3  2  0
  5  4  1  0
  5  6  2  0
  6  1  1  0
  8  5  1  0
  9  8  1  0
 10  9  2  0
 11 10  1  0
 11 12  2  0
 12  8  1  0
 13 12  1  0
 13 23  1  0
 14 15  2  0
 14 13  1  0
 15 16  1  0
 16 23  2  0
 16 17  1  0
 17 19  1  0
 18 17  2  0
 19 20  1  0
 20 21  1  0
 22 20  2  0
 23 22  1  0
  1 24  1  0
  2 25  1  0
  7 26  1  0
  7 27  1  0
 10 28  1  0
 11 29  1  0
 14 30  1  0
 19 31  1  0
 21 32  1  0
 21 33  1  0
M  ISO  6  24  14  25  14  28  14  29  14  30  14  31   9
M  END
>  <minimizedAffinity>  (1) 
-6.0624156

>  <minimizedRMSD>  (1) 
6.88780546

$$$$
