
     RDKit          3D

 26 28  0  0  0  0  0  0  0  0999 V2000
   41.5730   21.6260   36.2470 C   0  0  0  0  0  0  0  0  0  0  0  0
   41.0160   21.8620   37.5190 C   0  0  0  0  0  0  0  0  0  0  0  0
   39.8590   22.6380   37.6150 C   0  0  0  0  0  0  0  0  0  0  0  0
   39.3010   23.1460   36.4700 N   0  0  0  0  0  0  0  0  0  0  0  0
   39.8680   22.8980   35.2570 C   0  0  0  0  0  0  0  0  0  0  0  0
   40.9920   22.1460   35.1450 N   0  0  0  0  0  0  0  0  0  0  0  0
   39.1810   22.9730   38.8020 N   0  0  0  0  0  0  0  0  0  0  0  0
   39.2110   23.4710   34.1210 N   0  0  0  0  0  0  0  0  0  0  0  0
   39.6620   24.4400   33.3500 N   0  0  0  0  0  0  0  0  0  0  0  0
   38.7840   24.7350   32.3700 C   0  0  0  0  0  0  0  0  0  0  0  0
   37.7060   23.8500   32.5850 C   0  0  0  0  0  0  0  0  0  0  0  0
   38.0070   23.0720   33.6940 C   0  0  0  0  0  0  0  0  0  0  0  0
   37.1260   22.0650   34.1940 N   0  0  0  0  0  0  0  0  0  0  0  0
   36.8900   21.8540   35.4780 N   0  0  0  0  0  0  0  0  0  0  0  0
   36.0100   20.8300   35.6250 C   0  0  0  0  0  0  0  0  0  0  0  0
   35.7050   20.4060   34.3350 C   0  0  0  0  0  0  0  0  0  0  0  0
   36.4090   21.1860   33.4400 C   0  0  0  0  0  0  0  0  0  0  0  0
   42.4837   21.0165   36.1513 H   0  0  0  0  0  0  0  0  0  0  0  0
   41.4844   21.4422   38.4214 H   0  0  0  0  0  0  0  0  0  0  0  0
   38.3316   23.5543   38.7634 H   0  0  0  0  0  0  0  0  0  0  0  0
   39.5343   22.6369   39.7093 H   0  0  0  0  0  0  0  0  0  0  0  0
   38.8852   25.4945   31.5807 H   0  0  0  0  0  0  0  0  0  0  0  0
   36.7892   23.7878   31.9804 H   0  0  0  0  0  0  0  0  0  0  0  0
   35.6193   20.4206   36.5682 H   0  0  0  0  0  0  0  0  0  0  0  0
   35.0186   19.5873   34.0729 H   0  0  0  0  0  0  0  0  0  0  0  0
   36.3941   21.1128   32.3425 H   0  0  0  0  0  0  0  0  0  0  0  0
  1  2  2  0
  2  3  1  0
  3  7  1  0
  4  3  2  0
  5  4  1  0
  6  5  2  0
  6  1  1  0
  8  5  1  0
  9  8  1  0
 10 11  1  0
 10  9  2  0
 11 12  2  0
 12  8  1  0
 12 13  1  0
 13 14  1  0
 14 15  2  0
 16 15  1  0
 17 13  1  0
 17 16  2  0
  1 18  1  0
  2 19  1  0
  7 20  1  0
  7 21  1  0
 10 22  1  0
 11 23  1  0
 15 24  1  0
 16 25  1  0
 17 26  1  0
M  ISO  7  18  14  19  14  22  14  23  14  24  14  25  14  26  14
M  END
>  <minimizedAffinity>  (1) 
-4.64034271

>  <minimizedRMSD>  (1) 
2.89271665

$$$$
