
     RDKit          3D

 26 27  0  0  0  0  0  0  0  0999 V2000
   40.8240   22.9780   36.6020 C   0  0  0  0  0  0  0  0  0  0  0  0
   39.9800   22.8170   37.7090 C   0  0  0  0  0  0  0  0  0  0  0  0
   38.5960   22.9860   37.5380 C   0  0  0  0  0  0  0  0  0  0  0  0
   38.1350   23.3020   36.2990 N   0  0  0  0  0  0  0  0  0  0  0  0
   38.9730   23.4520   35.2450 C   0  0  0  0  0  0  0  0  0  0  0  0
   40.3090   23.2920   35.3940 N   0  0  0  0  0  0  0  0  0  0  0  0
   37.6210   22.8610   38.5440 N   0  0  0  0  0  0  0  0  0  0  0  0
   38.3770   23.7880   33.9770 N   0  0  0  0  0  0  0  0  0  0  0  0
   38.4940   24.9320   33.3320 N   0  0  0  0  0  0  0  0  0  0  0  0
   37.8070   24.9060   32.1750 C   0  0  0  0  0  0  0  0  0  0  0  0
   37.2320   23.6200   32.1370 C   0  0  0  0  0  0  0  0  0  0  0  0
   37.6010   22.9130   33.2910 C   0  0  0  0  0  0  0  0  0  0  0  0
   37.2280   21.5970   33.6260 N   0  0  0  0  0  0  0  0  0  0  0  0
   35.8950   21.1080   33.5420 C   0  0  0  0  0  0  0  0  0  0  0  0
   35.1920   21.5800   32.5450 N   0  0  0  0  0  0  0  0  0  0  0  0
   35.4590   20.1660   34.5370 N   0  0  0  0  0  0  0  0  0  0  0  0
   34.2200   21.2340   32.4710 H   0  0  0  0  0  0  0  0  0  0  0  0
   41.9102   22.8481   36.7176 H   0  0  0  0  0  0  0  0  0  0  0  0
   40.3944   22.5625   38.6956 H   0  0  0  0  0  0  0  0  0  0  0  0
   36.6264   23.0048   38.3180 H   0  0  0  0  0  0  0  0  0  0  0  0
   37.9016   22.6257   39.5067 H   0  0  0  0  0  0  0  0  0  0  0  0
   37.7151   25.7078   31.4275 H   0  0  0  0  0  0  0  0  0  0  0  0
   36.5941   23.2316   31.3294 H   0  0  0  0  0  0  0  0  0  0  0  0
   37.9624   20.9518   33.9504 H   0  0  0  0  0  0  0  0  0  0  0  0
   34.5000   19.7914   34.5064 H   0  0  0  0  0  0  0  0  0  0  0  0
   36.1057   19.8658   35.2804 H   0  0  0  0  0  0  0  0  0  0  0  0
  1  2  2  0
  3  2  1  0
  3  7  1  0
  4  3  2  0
  5  6  2  0
  5  4  1  0
  6  1  1  0
  8  5  1  0
  9  8  1  0
 10  9  2  0
 11 10  1  0
 11 12  2  0
 12 13  1  0
 12  8  1  0
 14 13  1  0
 14 16  1  0
 15 14  2  0
 17 15  1  0
  1 18  1  0
  2 19  1  0
  7 20  1  0
  7 21  1  0
 10 22  1  0
 11 23  1  0
 13 24  1  0
 16 25  1  0
 16 26  1  0
M  ISO  4  18  14  19  14  22  14  23  14
M  END
>  <minimizedAffinity>  (1) 
-4.60869694

>  <minimizedRMSD>  (1) 
2.75921488

$$$$
