
     RDKit          3D

 26 28  0  0  0  0  0  0  0  0999 V2000
   41.6260   22.8390   36.6590 C   0  0  0  0  0  0  0  0  0  0  0  0
   40.7530   22.4650   37.6740 C   0  0  0  0  0  0  0  0  0  0  0  0
   39.4590   22.9590   37.6480 C   0  0  0  0  0  0  0  0  0  0  0  0
   39.0640   23.8000   36.6350 N   0  0  0  0  0  0  0  0  0  0  0  0
   39.9450   24.1420   35.6610 C   0  0  0  0  0  0  0  0  0  0  0  0
   41.2130   23.6660   35.6770 N   0  0  0  0  0  0  0  0  0  0  0  0
   38.4260   22.6870   38.5970 N   0  0  0  0  0  0  0  0  0  0  0  0
   39.4650   25.0220   34.6360 N   0  0  0  0  0  0  0  0  0  0  0  0
   39.8490   26.2620   34.4100 N   0  0  0  0  0  0  0  0  0  0  0  0
   39.1760   26.7830   33.3560 C   0  0  0  0  0  0  0  0  0  0  0  0
   38.3280   25.7690   32.9260 C   0  0  0  0  0  0  0  0  0  0  0  0
   38.5120   24.6450   33.7430 C   0  0  0  0  0  0  0  0  0  0  0  0
   37.8040   23.4210   33.5860 N   0  0  0  0  0  0  0  0  0  0  0  0
   37.6900   22.2730   34.2960 C   0  0  0  0  0  0  0  0  0  0  0  0
   36.8360   21.4240   33.6240 C   0  0  0  0  0  0  0  0  0  0  0  0
   36.4360   22.0810   32.4980 N   0  0  0  0  0  0  0  0  0  0  0  0
   37.0260   23.2900   32.4810 C   0  0  0  0  0  0  0  0  0  0  0  0
   42.6582   22.4588   36.6567 H   0  0  0  0  0  0  0  0  0  0  0  0
   41.0821   21.7921   38.4795 H   0  0  0  0  0  0  0  0  0  0  0  0
   37.4944   23.1104   38.4797 H   0  0  0  0  0  0  0  0  0  0  0  0
   38.6130   22.0675   39.3984 H   0  0  0  0  0  0  0  0  0  0  0  0
   39.2786   27.7925   32.9313 H   0  0  0  0  0  0  0  0  0  0  0  0
   37.6264   25.8375   32.0816 H   0  0  0  0  0  0  0  0  0  0  0  0
   38.1942   22.0546   35.2489 H   0  0  0  0  0  0  0  0  0  0  0  0
   36.5357   20.4128   33.9358 H   0  0  0  0  0  0  0  0  0  0  0  0
   36.8984   24.0509   31.6970 H   0  0  0  0  0  0  0  0  0  0  0  0
  1  2  2  0
  3  2  1  0
  3  7  1  0
  4  3  2  0
  5  6  2  0
  5  4  1  0
  6  1  1  0
  8  5  1  0
  9  8  1  0
 10  9  2  0
 11 10  1  0
 11 12  2  0
 12  8  1  0
 13 12  1  0
 13 14  1  0
 15 14  2  0
 16 15  1  0
 17 16  2  0
 17 13  1  0
  1 18  1  0
  2 19  1  0
  7 20  1  0
  7 21  1  0
 10 22  1  0
 11 23  1  0
 14 24  1  0
 15 25  1  0
 17 26  1  0
M  ISO  7  18  14  19  14  22  14  23  14  24  14  25  14  26  14
M  END
>  <minimizedAffinity>  (1) 
-4.6029377

>  <minimizedRMSD>  (1) 
4.23260689

$$$$
