
     RDKit          3D

 26 28  0  0  0  0  0  0  0  0999 V2000
   37.8820   24.2290   37.9230 C   0  0  0  0  0  0  0  0  0  0  0  0
   38.8700   23.3620   38.4400 C   0  0  0  0  0  0  0  0  0  0  0  0
   39.6830   22.6800   37.5500 C   0  0  0  0  0  0  0  0  0  0  0  0
   39.5130   22.8620   36.2140 N   0  0  0  0  0  0  0  0  0  0  0  0
   38.5520   23.7050   35.7440 C   0  0  0  0  0  0  0  0  0  0  0  0
   37.7400   24.3860   36.5900 N   0  0  0  0  0  0  0  0  0  0  0  0
   40.7070   21.7790   37.8980 N   0  0  0  0  0  0  0  0  0  0  0  0
   38.4520   23.8290   34.3170 N   0  0  0  0  0  0  0  0  0  0  0  0
   37.4490   23.3940   33.5510 N   0  0  0  0  0  0  0  0  0  0  0  0
   37.6710   23.6720   32.2580 C   0  0  0  0  0  0  0  0  0  0  0  0
   38.8970   24.3220   32.2370 C   0  0  0  0  0  0  0  0  0  0  0  0
   39.3760   24.4120   33.5580 C   0  0  0  0  0  0  0  0  0  0  0  0
   40.6270   25.0340   33.9090 C   0  0  0  0  0  0  0  0  0  0  0  0
   40.8970   26.3330   34.2090 C   0  0  0  0  0  0  0  0  0  0  0  0
   42.1560   26.7100   34.5120 C   0  0  0  0  0  0  0  0  0  0  0  0
   43.1350   25.6390   34.4830 C   0  0  0  0  0  0  0  0  0  0  0  0
   42.1310   24.1080   34.0020 S   0  0  0  0  0  0  0  0  0  0  0  0
   37.2240   24.7798   38.6112 H   0  0  0  0  0  0  0  0  0  0  0  0
   38.9910   23.2314   39.5255 H   0  0  0  0  0  0  0  0  0  0  0  0
   41.2603   21.3186   37.1612 H   0  0  0  0  0  0  0  0  0  0  0  0
   40.9030   21.5801   38.8894 H   0  0  0  0  0  0  0  0  0  0  0  0
   37.0228   23.4363   31.4011 H   0  0  0  0  0  0  0  0  0  0  0  0
   39.4080   24.7024   31.3403 H   0  0  0  0  0  0  0  0  0  0  0  0
   40.0871   27.0773   34.2045 H   0  0  0  0  0  0  0  0  0  0  0  0
   42.4202   27.7482   34.7616 H   0  0  0  0  0  0  0  0  0  0  0  0
   44.2130   25.7024   34.6925 H   0  0  0  0  0  0  0  0  0  0  0  0
  1  2  2  0
  3  7  1  0
  3  2  1  0
  4  3  2  0
  5  4  1  0
  5  6  2  0
  6  1  1  0
  8  5  1  0
  9  8  1  0
 10  9  2  0
 11 10  1  0
 11 12  2  0
 12 13  1  0
 12  8  1  0
 13 17  1  0
 13 14  2  0
 14 15  1  0
 16 15  2  0
 17 16  1  0
  1 18  1  0
  2 19  1  0
  7 20  1  0
  7 21  1  0
 10 22  1  0
 11 23  1  0
 14 24  1  0
 15 25  1  0
 16 26  1  0
M  ISO  7  18  14  19  14  22  14  23  14  24  14  25  14  26  14
M  END
>  <minimizedAffinity>  (1) 
-4.59562635

>  <minimizedRMSD>  (1) 
5.77412796

$$$$
