
     RDKit          3D

 21 22  0  0  0  0  0  0  0  0999 V2000
   40.2600   22.1730   37.0360 C   0  0  0  0  0  0  0  0  0  0  0  0
   39.7810   23.0790   37.9830 C   0  0  0  0  0  0  0  0  0  0  0  0
   38.4830   23.5830   37.8250 C   0  0  0  0  0  0  0  0  0  0  0  0
   37.7360   23.1700   36.7520 N   0  0  0  0  0  0  0  0  0  0  0  0
   38.2490   22.2870   35.8580 C   0  0  0  0  0  0  0  0  0  0  0  0
   39.4960   21.7910   35.9930 N   0  0  0  0  0  0  0  0  0  0  0  0
   37.8430   24.5000   38.6820 N   0  0  0  0  0  0  0  0  0  0  0  0
   37.3820   21.9190   34.7660 N   0  0  0  0  0  0  0  0  0  0  0  0
   37.5380   22.2340   33.4840 N   0  0  0  0  0  0  0  0  0  0  0  0
   36.5120   21.7040   32.7580 C   0  0  0  0  0  0  0  0  0  0  0  0
   35.7060   21.0390   33.6770 C   0  0  0  0  0  0  0  0  0  0  0  0
   36.2730   21.1870   34.9350 C   0  0  0  0  0  0  0  0  0  0  0  0
   35.7020   20.6240   36.1320 C   0  0  0  0  0  0  0  0  0  0  0  0
   34.8790   21.2340   36.8590 O   0  0  0  0  0  0  0  0  0  0  0  0
   41.2758   21.7645   37.1420 H   0  0  0  0  0  0  0  0  0  0  0  0
   40.4068   23.3899   38.8325 H   0  0  0  0  0  0  0  0  0  0  0  0
   36.8824   24.8111   38.4785 H   0  0  0  0  0  0  0  0  0  0  0  0
   38.3357   24.8593   39.5121 H   0  0  0  0  0  0  0  0  0  0  0  0
   36.3546   21.7853   31.6724 H   0  0  0  0  0  0  0  0  0  0  0  0
   34.7804   20.4912   33.4464 H   0  0  0  0  0  0  0  0  0  0  0  0
   36.0024   19.6070   36.4245 H   0  0  0  0  0  0  0  0  0  0  0  0
  1  2  2  0
  3  2  1  0
  3  7  1  0
  4  3  2  0
  5  6  2  0
  5  4  1  0
  6  1  1  0
  8 12  1  0
  8  5  1  0
  9  8  1  0
 10  9  2  0
 10 11  1  0
 11 12  2  0
 12 13  1  0
 13 14  2  0
  1 15  1  0
  2 16  1  0
  7 17  1  0
  7 18  1  0
 10 19  1  0
 11 20  1  0
 13 21  1  0
M  ISO  5  15  14  16  14  19  14  20  14  21   6
M  END
>  <minimizedAffinity>  (1) 
-4.24337769

>  <minimizedRMSD>  (1) 
0.294755608

$$$$
