
     RDKit          3D

 22 23  0  0  0  0  0  0  0  0999 V2000
   40.5370   22.1860   37.1360 C   0  0  0  0  0  0  0  0  0  0  0  0
   39.8340   22.9140   38.1050 C   0  0  0  0  0  0  0  0  0  0  0  0
   38.6290   23.5010   37.7530 C   0  0  0  0  0  0  0  0  0  0  0  0
   38.1800   23.3430   36.4730 N   0  0  0  0  0  0  0  0  0  0  0  0
   38.8780   22.6340   35.5570 C   0  0  0  0  0  0  0  0  0  0  0  0
   40.0460   22.0620   35.8870 N   0  0  0  0  0  0  0  0  0  0  0  0
   37.7960   24.2680   38.6070 N   0  0  0  0  0  0  0  0  0  0  0  0
   38.2940   22.5450   34.2470 N   0  0  0  0  0  0  0  0  0  0  0  0
   38.7830   23.1080   33.1370 N   0  0  0  0  0  0  0  0  0  0  0  0
   37.9700   22.8120   32.0900 C   0  0  0  0  0  0  0  0  0  0  0  0
   36.9450   22.0310   32.6150 C   0  0  0  0  0  0  0  0  0  0  0  0
   37.1660   21.8720   33.9840 C   0  0  0  0  0  0  0  0  0  0  0  0
   36.3340   21.1300   34.8990 C   0  0  0  0  0  0  0  0  0  0  0  0
   35.4060   20.4140   34.4970 O   0  0  0  0  0  0  0  0  0  0  0  0
   36.5590   21.2040   36.2680 O   0  0  0  0  0  0  0  0  0  0  0  0
   41.4953   21.7129   37.3962 H   0  0  0  0  0  0  0  0  0  0  0  0
   40.2310   23.0176   39.1256 H   0  0  0  0  0  0  0  0  0  0  0  0
   36.9153   24.6635   38.2480 H   0  0  0  0  0  0  0  0  0  0  0  0
   38.0717   24.4295   39.5862 H   0  0  0  0  0  0  0  0  0  0  0  0
   38.0959   23.1251   31.0430 H   0  0  0  0  0  0  0  0  0  0  0  0
   36.1025   21.6098   32.0469 H   0  0  0  0  0  0  0  0  0  0  0  0
   35.9853   20.6929   36.8923 H   0  0  0  0  0  0  0  0  0  0  0  0
  1  2  2  0
  3  2  1  0
  3  7  1  0
  4  3  2  0
  5  6  2  0
  5  4  1  0
  6  1  1  0
  8  5  1  0
  9  8  1  0
 10 11  1  0
 10  9  2  0
 11 12  2  0
 12  8  1  0
 12 13  1  0
 13 15  1  0
 14 13  2  0
  1 16  1  0
  2 17  1  0
  7 18  1  0
  7 19  1  0
 10 20  1  0
 11 21  1  0
 15 22  1  0
M  ISO  5  16  14  17  14  20  14  21  14  22   3
M  END
>  <minimizedAffinity>  (1) 
-4.28978109

>  <minimizedRMSD>  (1) 
1.47272646

$$$$
