
     RDKit          3D

 42 45  0  0  1  0  0  0  0  0999 V2000
   36.8250   21.4210   32.6210 C   0  0  1  0  0  0  0  0  0  0  0  0
   40.6490   23.8320   34.4220 C   0  0  0  0  0  0  0  0  0  0  0  0
   40.3170   23.3710   35.7170 C   0  0  0  0  0  0  0  0  0  0  0  0
   38.9930   23.1040   36.0090 C   0  0  0  0  0  0  0  0  0  0  0  0
   38.0590   23.3000   35.0250 N   0  0  0  0  0  0  0  0  0  0  0  0
   38.4080   23.7420   33.7920 C   0  0  0  0  0  0  0  0  0  0  0  0
   39.6890   24.0080   33.4860 N   0  0  0  0  0  0  0  0  0  0  0  0
   38.4930   22.6400   37.2410 N   0  0  0  0  0  0  0  0  0  0  0  0
   37.3390   23.9080   32.8480 N   0  0  0  0  0  0  0  0  0  0  0  0
   36.8790   25.0430   32.3450 N   0  0  0  0  0  0  0  0  0  0  0  0
   35.8570   24.8070   31.4830 C   0  0  0  0  0  0  0  0  0  0  0  0
   35.6930   23.4220   31.4690 C   0  0  0  0  0  0  0  0  0  0  0  0
   36.6350   22.8740   32.3340 C   0  0  0  0  0  0  0  0  0  0  0  0
   35.8080   20.9930   33.6840 C   0  0  0  0  0  0  0  0  0  0  0  0
   36.5530   20.6510   31.3490 C   0  0  0  0  0  0  0  0  0  0  0  0
   35.9820   19.3350   31.7100 C   0  0  0  0  0  0  0  0  0  0  0  0
   34.7360   18.8120   31.9870 C   0  0  0  0  0  0  0  0  0  0  0  0
   34.8360   17.4990   32.2620 N   0  0  0  0  0  0  0  0  0  0  0  0
   36.1280   17.1300   32.1740 C   0  0  0  0  0  0  0  0  0  0  0  0
   36.6930   15.8960   32.3710 C   0  0  0  0  0  0  0  0  0  0  0  0
   38.0410   15.7260   32.2330 C   0  0  0  0  0  0  0  0  0  0  0  0
   38.8070   16.8220   31.8930 C   0  0  0  0  0  0  0  0  0  0  0  0
   38.2380   18.0480   31.6990 C   0  0  0  0  0  0  0  0  0  0  0  0
   36.8610   18.2570   31.8320 C   0  0  0  0  0  0  0  0  0  0  0  0
   37.8469   21.2270   32.9788 H   0  0  0  0  0  0  0  0  0  0  0  0
   41.6983   24.0495   34.1736 H   0  0  0  0  0  0  0  0  0  0  0  0
   41.0983   23.2276   36.4779 H   0  0  0  0  0  0  0  0  0  0  0  0
   37.4835   22.4711   37.3564 H   0  0  0  0  0  0  0  0  0  0  0  0
   39.1368   22.4695   38.0267 H   0  0  0  0  0  0  0  0  0  0  0  0
   35.2797   25.5515   30.9151 H   0  0  0  0  0  0  0  0  0  0  0  0
   34.9515   22.8629   30.8795 H   0  0  0  0  0  0  0  0  0  0  0  0
   36.2278   21.1697   34.6853 H   0  0  0  0  0  0  0  0  0  0  0  0
   34.8846   21.5788   33.5650 H   0  0  0  0  0  0  0  0  0  0  0  0
   35.5814   19.9232   33.5650 H   0  0  0  0  0  0  0  0  0  0  0  0
   37.4917   20.5084   30.7936 H   0  0  0  0  0  0  0  0  0  0  0  0
   35.8466   21.2073   30.7154 H   0  0  0  0  0  0  0  0  0  0  0  0
   33.7972   19.3852   31.9835 H   0  0  0  0  0  0  0  0  0  0  0  0
   34.0511   16.8765   32.5012 H   0  0  0  0  0  0  0  0  0  0  0  0
   36.0578   15.0396   32.6413 H   0  0  0  0  0  0  0  0  0  0  0  0
   38.5042   14.7405   32.3889 H   0  0  0  0  0  0  0  0  0  0  0  0
   39.8946   16.7062   31.7762 H   0  0  0  0  0  0  0  0  0  0  0  0
   38.8824   18.8979   31.4297 H   0  0  0  0  0  0  0  0  0  0  0  0
  1 14  1  0
  2  3  2  0
  3  4  1  0
  4  8  1  0
  5  4  2  0
  6  5  1  0
  7  6  2  0
  7  2  1  0
  9  6  1  0
 10  9  1  0
 11 10  2  0
 12 11  1  0
 12 13  2  0
 13  1  1  0
 13  9  1  0
 15 16  1  0
 15  1  1  0
 16 24  1  0
 16 17  2  0
 17 18  1  0
 19 18  1  0
 19 20  2  0
 21 20  1  0
 22 21  2  0
 23 24  2  0
 23 22  1  0
 24 19  1  0
  1 25  1  1
  2 26  1  0
  3 27  1  0
  8 28  1  0
  8 29  1  0
 11 30  1  0
 12 31  1  0
 14 32  1  0
 14 33  1  0
 14 34  1  0
 15 35  1  0
 15 36  1  0
 17 37  1  0
 18 38  1  0
 20 39  1  0
 21 40  1  0
 22 41  1  0
 23 42  1  0
M  ISO  8  25   8  26  14  27  14  30  14  31  14  32   8  33   8  34   8
M  ISO  8  35   8  36   8  37  14  38   9  39  14  40  14  41  14  42  14
M  END
>  <minimizedAffinity>  (1) 
-5.87524414

>  <minimizedRMSD>  (1) 
1.2945323

$$$$
