
     RDKit          3D

 29 30  0  0  1  0  0  0  0  0999 V2000
   40.5080   23.6570   34.8180 C   0  0  0  0  0  0  0  0  0  0  0  0
   40.0870   23.3780   36.1250 C   0  0  0  0  0  0  0  0  0  0  0  0
   38.7420   23.1330   36.3520 C   0  0  0  0  0  0  0  0  0  0  0  0
   37.8920   23.1750   35.2820 N   0  0  0  0  0  0  0  0  0  0  0  0
   38.3270   23.4460   34.0300 C   0  0  0  0  0  0  0  0  0  0  0  0
   39.6280   23.6850   33.7960 N   0  0  0  0  0  0  0  0  0  0  0  0
   38.1430   22.8350   37.5980 N   0  0  0  0  0  0  0  0  0  0  0  0
   37.3330   23.4620   32.9940 N   0  0  0  0  0  0  0  0  0  0  0  0
   36.9050   24.5110   32.3020 N   0  0  0  0  0  0  0  0  0  0  0  0
   35.9600   24.1390   31.4160 C   0  0  0  0  0  0  0  0  0  0  0  0
   35.8010   22.7720   31.5770 C   0  0  0  0  0  0  0  0  0  0  0  0
   36.6830   22.3540   32.5860 C   0  0  0  0  0  0  0  0  0  0  0  0
   36.8490   20.9550   33.0750 C   0  0  1  0  0  0  0  0  0  0  0  0
   35.5900   20.5650   33.8610 C   0  0  0  0  0  0  0  0  0  0  0  0
   36.9900   20.0490   31.8760 C   0  0  0  0  0  0  0  0  0  0  0  0
   38.2710   20.1780   31.3500 O   0  0  0  0  0  0  0  0  0  0  0  0
   41.5720   23.8562   34.6224 H   0  0  0  0  0  0  0  0  0  0  0  0
   40.8095   23.3539   36.9541 H   0  0  0  0  0  0  0  0  0  0  0  0
   37.1281   22.6690   37.6549 H   0  0  0  0  0  0  0  0  0  0  0  0
   38.7217   22.7840   38.4485 H   0  0  0  0  0  0  0  0  0  0  0  0
   35.4238   24.7887   30.7086 H   0  0  0  0  0  0  0  0  0  0  0  0
   35.1077   22.1292   31.0147 H   0  0  0  0  0  0  0  0  0  0  0  0
   37.7355   20.8664   33.7202 H   0  0  0  0  0  0  0  0  0  0  0  0
   35.7966   20.6290   34.9395 H   0  0  0  0  0  0  0  0  0  0  0  0
   34.7697   21.2512   33.6034 H   0  0  0  0  0  0  0  0  0  0  0  0
   35.3012   19.5353   33.6034 H   0  0  0  0  0  0  0  0  0  0  0  0
   36.8218   19.0059   32.1820 H   0  0  0  0  0  0  0  0  0  0  0  0
   36.2487   20.3295   31.1132 H   0  0  0  0  0  0  0  0  0  0  0  0
   38.9262   20.2440   32.0892 H   0  0  0  0  0  0  0  0  0  0  0  0
  1  2  2  0
  2  3  1  0
  3  7  1  0
  4  3  2  0
  5  4  1  0
  6  5  2  0
  6  1  1  0
  8  5  1  0
  9  8  1  0
 10 11  1  0
 10  9  2  0
 11 12  2  0
 12  8  1  0
 12 13  1  0
 13 14  1  0
 15 13  1  0
 16 15  1  0
  1 17  1  0
  2 18  1  0
  7 19  1  0
  7 20  1  0
 10 21  1  0
 11 22  1  0
 13 23  1  1
 14 24  1  0
 14 25  1  0
 14 26  1  0
 15 27  1  0
 15 28  1  0
 16 29  1  0
M  ISO  8  17  14  18  14  21  14  22  14  23   8  24   8  25   8  26   8
M  ISO  3  27   8  28   8  29   3
M  END
>  <minimizedAffinity>  (1) 
-4.11021042

>  <minimizedRMSD>  (1) 
0.130458176

$$$$
