
     RDKit          3D

 35 37  0  0  1  0  0  0  0  0999 V2000
   40.5510   23.3390   34.4910 C   0  0  0  0  0  0  0  0  0  0  0  0
   40.1820   23.0230   35.8130 C   0  0  0  0  0  0  0  0  0  0  0  0
   38.8280   22.8440   36.0990 C   0  0  0  0  0  0  0  0  0  0  0  0
   37.9310   22.9870   35.0790 N   0  0  0  0  0  0  0  0  0  0  0  0
   38.3220   23.2900   33.8190 C   0  0  0  0  0  0  0  0  0  0  0  0
   39.6230   23.4680   33.5150 N   0  0  0  0  0  0  0  0  0  0  0  0
   38.3070   22.5290   37.3600 N   0  0  0  0  0  0  0  0  0  0  0  0
   37.2730   23.4110   32.8320 N   0  0  0  0  0  0  0  0  0  0  0  0
   36.8750   24.4960   32.2170 N   0  0  0  0  0  0  0  0  0  0  0  0
   35.8660   24.2190   31.3620 C   0  0  0  0  0  0  0  0  0  0  0  0
   35.6500   22.8430   31.4850 C   0  0  0  0  0  0  0  0  0  0  0  0
   36.5520   22.3460   32.4220 C   0  0  0  0  0  0  0  0  0  0  0  0
   36.6630   20.9190   32.8430 C   0  0  1  0  0  0  0  0  0  0  0  0
   35.5870   20.6320   33.8950 C   0  0  0  0  0  0  0  0  0  0  0  0
   36.4310   20.0500   31.6290 C   0  0  0  0  0  0  0  0  0  0  0  0
   37.1220   18.7670   31.7570 N   0  0  0  0  0  0  0  0  0  0  0  0
   36.5490   17.5660   32.0240 C   0  0  0  0  0  0  0  0  0  0  0  0
   37.5050   16.5720   32.0740 C   0  0  0  0  0  0  0  0  0  0  0  0
   38.6850   17.1950   31.8290 N   0  0  0  0  0  0  0  0  0  0  0  0
   38.4420   18.5060   31.6420 C   0  0  0  0  0  0  0  0  0  0  0  0
   41.6139   23.4837   34.2474 H   0  0  0  0  0  0  0  0  0  0  0  0
   40.9427   22.9198   36.6009 H   0  0  0  0  0  0  0  0  0  0  0  0
   37.2909   22.4142   37.4834 H   0  0  0  0  0  0  0  0  0  0  0  0
   38.9399   22.4121   38.1642 H   0  0  0  0  0  0  0  0  0  0  0  0
   35.3300   24.9241   30.7097 H   0  0  0  0  0  0  0  0  0  0  0  0
   34.8985   22.2556   30.9371 H   0  0  0  0  0  0  0  0  0  0  0  0
   37.6559   20.7120   33.2688 H   0  0  0  0  0  0  0  0  0  0  0  0
   36.0176   20.7469   34.9007 H   0  0  0  0  0  0  0  0  0  0  0  0
   34.7539   21.3393   33.7698 H   0  0  0  0  0  0  0  0  0  0  0  0
   35.2169   19.6037   33.7698 H   0  0  0  0  0  0  0  0  0  0  0  0
   36.8066   20.5724   30.7368 H   0  0  0  0  0  0  0  0  0  0  0  0
   35.3517   19.8570   31.5399 H   0  0  0  0  0  0  0  0  0  0  0  0
   35.4717   17.4069   32.1791 H   0  0  0  0  0  0  0  0  0  0  0  0
   37.3444   15.5017   32.2707 H   0  0  0  0  0  0  0  0  0  0  0  0
   39.2125   19.2606   31.4254 H   0  0  0  0  0  0  0  0  0  0  0  0
  1  2  2  0
  2  3  1  0
  3  7  1  0
  4  3  2  0
  5  4  1  0
  6  5  2  0
  6  1  1  0
  8  5  1  0
  9  8  1  0
 10 11  1  0
 10  9  2  0
 11 12  2  0
 12  8  1  0
 12 13  1  0
 13 14  1  0
 15 16  1  0
 15 13  1  0
 16 17  1  0
 17 18  2  0
 19 18  1  0
 20 16  1  0
 20 19  2  0
  1 21  1  0
  2 22  1  0
  7 23  1  0
  7 24  1  0
 10 25  1  0
 11 26  1  0
 13 27  1  1
 14 28  1  0
 14 29  1  0
 14 30  1  0
 15 31  1  0
 15 32  1  0
 17 33  1  0
 18 34  1  0
 20 35  1  0
M  ISO  8  21  14  22  14  25  14  26  14  27   8  28   8  29   8  30   8
M  ISO  5  31   8  32   8  33  14  34  14  35  14
M  END
>  <minimizedAffinity>  (1) 
-4.52714348

>  <minimizedRMSD>  (1) 
0.59025377

$$$$
