
     RDKit          3D

 30 31  0  0  1  0  0  0  0  0999 V2000
   40.5450   23.6440   34.7900 C   0  0  0  0  0  0  0  0  0  0  0  0
   40.1300   23.3560   36.1100 C   0  0  0  0  0  0  0  0  0  0  0  0
   38.7900   23.1160   36.3440 C   0  0  0  0  0  0  0  0  0  0  0  0
   37.9180   23.1660   35.2810 N   0  0  0  0  0  0  0  0  0  0  0  0
   38.3530   23.4460   34.0290 C   0  0  0  0  0  0  0  0  0  0  0  0
   39.6570   23.6830   33.7820 N   0  0  0  0  0  0  0  0  0  0  0  0
   38.2290   22.8190   37.5940 N   0  0  0  0  0  0  0  0  0  0  0  0
   37.3440   23.4700   33.0000 N   0  0  0  0  0  0  0  0  0  0  0  0
   36.9160   24.5200   32.3310 N   0  0  0  0  0  0  0  0  0  0  0  0
   35.9510   24.1480   31.4420 C   0  0  0  0  0  0  0  0  0  0  0  0
   35.8060   22.7830   31.6050 C   0  0  0  0  0  0  0  0  0  0  0  0
   36.6960   22.3580   32.5990 C   0  0  0  0  0  0  0  0  0  0  0  0
   36.8660   20.9530   33.0740 C   0  0  1  0  0  0  0  0  0  0  0  0
   35.5440   20.4910   33.7010 C   0  0  0  0  0  0  0  0  0  0  0  0
   37.1950   20.0940   31.8760 C   0  0  0  0  0  0  0  0  0  0  0  0
   38.5660   20.3710   31.5100 N   0  0  0  0  0  0  0  0  0  0  0  0
   41.6081   23.8387   34.5851 H   0  0  0  0  0  0  0  0  0  0  0  0
   40.8586   23.3237   36.9335 H   0  0  0  0  0  0  0  0  0  0  0  0
   37.2158   22.6535   37.6776 H   0  0  0  0  0  0  0  0  0  0  0  0
   38.8300   22.7663   38.4288 H   0  0  0  0  0  0  0  0  0  0  0  0
   35.4036   24.7972   30.7428 H   0  0  0  0  0  0  0  0  0  0  0  0
   35.1092   22.1394   31.0480 H   0  0  0  0  0  0  0  0  0  0  0  0
   37.6706   20.8772   33.8202 H   0  0  0  0  0  0  0  0  0  0  0  0
   35.6282   20.5204   34.7974 H   0  0  0  0  0  0  0  0  0  0  0  0
   34.7317   21.1586   33.3776 H   0  0  0  0  0  0  0  0  0  0  0  0
   35.3243   19.4628   33.3776 H   0  0  0  0  0  0  0  0  0  0  0  0
   37.0819   19.0305   32.1332 H   0  0  0  0  0  0  0  0  0  0  0  0
   36.5165   20.3172   31.0394 H   0  0  0  0  0  0  0  0  0  0  0  0
   39.1325   20.4855   32.3626 H   0  0  0  0  0  0  0  0  0  0  0  0
   38.9376   19.5881   30.9534 H   0  0  0  0  0  0  0  0  0  0  0  0
  1  2  2  0
  2  3  1  0
  3  7  1  0
  4  3  2  0
  5  4  1  0
  6  5  2  0
  6  1  1  0
  8  5  1  0
  9  8  1  0
 10 11  1  0
 10  9  2  0
 11 12  2  0
 12  8  1  0
 12 13  1  0
 13 14  1  0
 15 13  1  0
 16 15  1  0
  1 17  1  0
  2 18  1  0
  7 19  1  0
  7 20  1  0
 10 21  1  0
 11 22  1  0
 13 23  1  1
 14 24  1  0
 14 25  1  0
 14 26  1  0
 15 27  1  0
 15 28  1  0
 16 29  1  0
 16 30  1  0
M  ISO  8  17  14  18  14  21  14  22  14  23   8  24   8  25   8  26   8
M  ISO  4  27   8  28   8  29   5  30   5
M  END
>  <minimizedAffinity>  (1) 
-4.09446526

>  <minimizedRMSD>  (1) 
0.203581348

$$$$
