
     RDKit          3D

 29 30  0  0  1  0  0  0  0  0999 V2000
   40.5150   23.6780   34.8180 C   0  0  0  0  0  0  0  0  0  0  0  0
   40.0810   23.3920   36.1170 C   0  0  0  0  0  0  0  0  0  0  0  0
   38.7460   23.1340   36.3510 C   0  0  0  0  0  0  0  0  0  0  0  0
   37.8980   23.1720   35.2770 N   0  0  0  0  0  0  0  0  0  0  0  0
   38.3250   23.4490   34.0300 C   0  0  0  0  0  0  0  0  0  0  0  0
   39.6240   23.7000   33.8030 N   0  0  0  0  0  0  0  0  0  0  0  0
   38.1510   22.8240   37.5970 N   0  0  0  0  0  0  0  0  0  0  0  0
   37.3380   23.4620   32.9920 N   0  0  0  0  0  0  0  0  0  0  0  0
   36.9080   24.5020   32.3050 N   0  0  0  0  0  0  0  0  0  0  0  0
   35.9640   24.1400   31.4070 C   0  0  0  0  0  0  0  0  0  0  0  0
   35.8220   22.7680   31.5770 C   0  0  0  0  0  0  0  0  0  0  0  0
   36.6970   22.3490   32.5830 C   0  0  0  0  0  0  0  0  0  0  0  0
   36.8710   20.9550   33.0650 C   0  0  1  0  0  0  0  0  0  0  0  0
   35.5400   20.4700   33.6430 C   0  0  0  0  0  0  0  0  0  0  0  0
   37.2390   20.0820   31.8900 C   0  0  0  0  0  0  0  0  0  0  0  0
   38.9240   20.3730   31.3480 S   0  0  0  0  0  0  0  0  0  0  0  0
   41.5779   23.8842   34.6240 H   0  0  0  0  0  0  0  0  0  0  0  0
   40.8012   23.3729   36.9483 H   0  0  0  0  0  0  0  0  0  0  0  0
   37.1377   22.6487   37.6544 H   0  0  0  0  0  0  0  0  0  0  0  0
   38.7313   22.7737   38.4465 H   0  0  0  0  0  0  0  0  0  0  0  0
   35.4272   24.7881   30.6986 H   0  0  0  0  0  0  0  0  0  0  0  0
   35.1350   22.1196   31.0134 H   0  0  0  0  0  0  0  0  0  0  0  0
   37.6576   20.9093   33.8325 H   0  0  0  0  0  0  0  0  0  0  0  0
   35.5891   20.4879   34.7418 H   0  0  0  0  0  0  0  0  0  0  0  0
   34.7295   21.1306   33.3014 H   0  0  0  0  0  0  0  0  0  0  0  0
   35.3445   19.4428   33.3014 H   0  0  0  0  0  0  0  0  0  0  0  0
   37.1364   19.0270   32.1840 H   0  0  0  0  0  0  0  0  0  0  0  0
   36.5640   20.3268   31.0567 H   0  0  0  0  0  0  0  0  0  0  0  0
   39.7376   20.5135   32.4413 H   0  0  0  0  0  0  0  0  0  0  0  0
  1  2  2  0
  2  3  1  0
  3  7  1  0
  4  3  2  0
  5  4  1  0
  6  5  2  0
  6  1  1  0
  8  5  1  0
  9  8  1  0
 10 11  1  0
 10  9  2  0
 11 12  2  0
 12  8  1  0
 12 13  1  0
 13 14  1  0
 15 13  1  0
 16 15  1  0
  1 17  1  0
  2 18  1  0
  7 19  1  0
  7 20  1  0
 10 21  1  0
 11 22  1  0
 13 23  1  1
 14 24  1  0
 14 25  1  0
 14 26  1  0
 15 27  1  0
 15 28  1  0
 16 29  1  0
M  ISO  8  17  14  18  14  21  14  22  14  23   8  24   8  25   8  26   8
M  ISO  3  27   8  28   8  29  11
M  END
>  <minimizedAffinity>  (1) 
-4.07801342

>  <minimizedRMSD>  (1) 
0.2524409

$$$$
