
     RDKit          3D

 42 45  0  0  1  0  0  0  0  0999 V2000
   38.1540   23.9560   33.1360 C   0  0  1  0  0  0  0  0  0  0  0  0
   34.9070   20.4350   32.2690 C   0  0  0  0  0  0  0  0  0  0  0  0
   35.8920   19.7190   31.5360 C   0  0  0  0  0  0  0  0  0  0  0  0
   36.8890   20.4380   30.8910 C   0  0  0  0  0  0  0  0  0  0  0  0
   36.8590   21.7870   31.0030 N   0  0  0  0  0  0  0  0  0  0  0  0
   35.9080   22.4540   31.7090 C   0  0  0  0  0  0  0  0  0  0  0  0
   34.9330   21.7830   32.3420 N   0  0  0  0  0  0  0  0  0  0  0  0
   37.9070   19.8580   30.1430 N   0  0  0  0  0  0  0  0  0  0  0  0
   36.0110   23.8780   31.7300 N   0  0  0  0  0  0  0  0  0  0  0  0
   35.1990   24.7530   31.1720 N   0  0  0  0  0  0  0  0  0  0  0  0
   35.6210   26.0220   31.3950 C   0  0  0  0  0  0  0  0  0  0  0  0
   36.7870   25.8980   32.1540 C   0  0  0  0  0  0  0  0  0  0  0  0
   37.0080   24.5270   32.3500 C   0  0  0  0  0  0  0  0  0  0  0  0
   39.3580   23.8100   32.1800 C   0  0  0  0  0  0  0  0  0  0  0  0
   38.5200   24.8950   34.2390 C   0  0  0  0  0  0  0  0  0  0  0  0
   38.6780   24.1400   35.5330 C   0  0  0  0  0  0  0  0  0  0  0  0
   37.6910   24.0220   36.5030 C   0  0  0  0  0  0  0  0  0  0  0  0
   38.1760   23.2880   37.5040 N   0  0  0  0  0  0  0  0  0  0  0  0
   39.4540   22.9310   37.2030 C   0  0  0  0  0  0  0  0  0  0  0  0
   39.7650   23.4510   35.9940 N   0  0  0  0  0  0  0  0  0  0  0  0
   41.0040   23.3200   35.3000 C   0  0  0  0  0  0  0  0  0  0  0  0
   41.9850   24.4000   35.1630 C   0  0  0  0  0  0  0  0  0  0  0  0
   42.2300   23.4100   36.2510 C   0  0  0  0  0  0  0  0  0  0  0  0
   37.8752   22.9827   33.5662 H   0  0  0  0  0  0  0  0  0  0  0  0
   34.1095   19.8812   32.7859 H   0  0  0  0  0  0  0  0  0  0  0  0
   35.8649   18.6207   31.4811 H   0  0  0  0  0  0  0  0  0  0  0  0
   37.9526   18.8340   30.0421 H   0  0  0  0  0  0  0  0  0  0  0  0
   38.6157   20.4523   29.6897 H   0  0  0  0  0  0  0  0  0  0  0  0
   35.1457   26.9524   31.0510 H   0  0  0  0  0  0  0  0  0  0  0  0
   37.4140   26.7209   32.5277 H   0  0  0  0  0  0  0  0  0  0  0  0
   40.2812   23.6980   32.7675 H   0  0  0  0  0  0  0  0  0  0  0  0
   39.2171   22.9224   31.5458 H   0  0  0  0  0  0  0  0  0  0  0  0
   39.4333   24.7056   31.5458 H   0  0  0  0  0  0  0  0  0  0  0  0
   39.4683   25.3945   33.9915 H   0  0  0  0  0  0  0  0  0  0  0  0
   37.7212   25.6424   34.3544 H   0  0  0  0  0  0  0  0  0  0  0  0
   36.6828   24.4591   36.4535 H   0  0  0  0  0  0  0  0  0  0  0  0
   40.1196   22.3240   37.8343 H   0  0  0  0  0  0  0  0  0  0  0  0
   40.5611   22.6538   34.5450 H   0  0  0  0  0  0  0  0  0  0  0  0
   42.6512   24.4170   34.2879 H   0  0  0  0  0  0  0  0  0  0  0  0
   41.9054   25.4969   35.1412 H   0  0  0  0  0  0  0  0  0  0  0  0
   42.0975   23.6965   37.3047 H   0  0  0  0  0  0  0  0  0  0  0  0
   43.0547   22.7444   36.5456 H   0  0  0  0  0  0  0  0  0  0  0  0
  1 15  1  0
  2  7  2  0
  3  2  1  0
  4  5  1  0
  4  3  2  0
  5  6  2  0
  6  9  1  0
  6  7  1  0
  8  4  1  0
  9 13  1  0
 10 11  2  0
 10  9  1  0
 11 12  1  0
 12 13  2  0
 13  1  1  0
 14  1  1  0
 15 16  1  0
 16 20  1  0
 16 17  2  0
 17 18  1  0
 19 18  2  0
 20 19  1  0
 21 20  1  0
 21 23  1  0
 22 21  1  0
 22 23  1  0
  1 24  1  1
  2 25  1  0
  3 26  1  0
  8 27  1  0
  8 28  1  0
 11 29  1  0
 12 30  1  0
 14 31  1  0
 14 32  1  0
 14 33  1  0
 15 34  1  0
 15 35  1  0
 17 36  1  0
 19 37  1  0
 21 38  1  0
 22 39  1  0
 22 40  1  0
 23 41  1  0
 23 42  1  0
M  ISO  8  24   8  25  14  26  14  29  14  30  14  31   8  32   8  33   8
M  ISO  8  34   8  35   8  36  14  37  14  38  13  39  13  40  13  41  13
M  ISO  1  42  13
M  END
>  <minimizedAffinity>  (1) 
-5.05918503

>  <minimizedRMSD>  (1) 
6.53638887

$$$$
