
     RDKit          3D

 44 46  0  0  1  0  0  0  0  0999 V2000
   37.6360   22.5960   33.4200 C   0  0  1  0  0  0  0  0  0  0  0  0
   40.3690   26.4180   34.7060 C   0  0  0  0  0  0  0  0  0  0  0  0
   39.2080   27.0690   35.2030 C   0  0  0  0  0  0  0  0  0  0  0  0
   37.9840   26.7770   34.6200 C   0  0  0  0  0  0  0  0  0  0  0  0
   37.9730   25.8810   33.6050 N   0  0  0  0  0  0  0  0  0  0  0  0
   39.0940   25.2670   33.1420 C   0  0  0  0  0  0  0  0  0  0  0  0
   40.2920   25.5320   33.6890 N   0  0  0  0  0  0  0  0  0  0  0  0
   36.7770   27.3460   35.0130 N   0  0  0  0  0  0  0  0  0  0  0  0
   38.9150   24.3460   32.0610 N   0  0  0  0  0  0  0  0  0  0  0  0
   39.3260   24.4650   30.8170 N   0  0  0  0  0  0  0  0  0  0  0  0
   38.9710   23.4050   30.0690 C   0  0  0  0  0  0  0  0  0  0  0  0
   38.2810   22.5580   30.9410 C   0  0  0  0  0  0  0  0  0  0  0  0
   38.2620   23.1810   32.1980 C   0  0  0  0  0  0  0  0  0  0  0  0
   36.5560   21.5910   32.9770 C   0  0  0  0  0  0  0  0  0  0  0  0
   38.6680   21.8770   34.2270 C   0  0  0  0  0  0  0  0  0  0  0  0
   38.7270   22.4300   35.6250 C   0  0  0  0  0  0  0  0  0  0  0  0
   37.6470   22.9860   36.2970 C   0  0  0  0  0  0  0  0  0  0  0  0
   38.0550   23.3700   37.5030 N   0  0  0  0  0  0  0  0  0  0  0  0
   39.3710   23.0770   37.6250 C   0  0  0  0  0  0  0  0  0  0  0  0
   39.7630   22.5090   36.4820 N   0  0  0  0  0  0  0  0  0  0  0  0
   41.0840   22.0550   36.2110 C   0  0  0  0  0  0  0  0  0  0  0  0
   41.5530   21.3170   37.4660 C   0  0  0  0  0  0  0  0  0  0  0  0
   41.9650   23.2710   35.9550 C   0  0  0  0  0  0  0  0  0  0  0  0
   37.1945   23.3967   34.0315 H   0  0  0  0  0  0  0  0  0  0  0  0
   41.3475   26.6392   35.1571 H   0  0  0  0  0  0  0  0  0  0  0  0
   39.2784   27.7887   36.0319 H   0  0  0  0  0  0  0  0  0  0  0  0
   35.9036   27.0826   34.5348 H   0  0  0  0  0  0  0  0  0  0  0  0
   36.7567   28.0307   35.7822 H   0  0  0  0  0  0  0  0  0  0  0  0
   39.1788   23.2402   29.0015 H   0  0  0  0  0  0  0  0  0  0  0  0
   37.8358   21.5843   30.6887 H   0  0  0  0  0  0  0  0  0  0  0  0
   36.0806   21.1486   33.8648 H   0  0  0  0  0  0  0  0  0  0  0  0
   35.7962   22.1109   32.3749 H   0  0  0  0  0  0  0  0  0  0  0  0
   37.0199   20.7959   32.3749 H   0  0  0  0  0  0  0  0  0  0  0  0
   38.4119   20.8081   34.2716 H   0  0  0  0  0  0  0  0  0  0  0  0
   39.6497   22.0136   33.7499 H   0  0  0  0  0  0  0  0  0  0  0  0
   36.6268   23.0911   35.8993 H   0  0  0  0  0  0  0  0  0  0  0  0
   40.0020   23.2713   38.5048 H   0  0  0  0  0  0  0  0  0  0  0  0
   41.1292   21.3938   35.3331 H   0  0  0  0  0  0  0  0  0  0  0  0
   41.2090   21.8583   38.3597 H   0  0  0  0  0  0  0  0  0  0  0  0
   41.1356   20.2993   37.4704 H   0  0  0  0  0  0  0  0  0  0  0  0
   42.6517   21.2627   37.4704 H   0  0  0  0  0  0  0  0  0  0  0  0
   42.2793   23.7048   36.9157 H   0  0  0  0  0  0  0  0  0  0  0  0
   42.8533   22.9662   35.3822 H   0  0  0  0  0  0  0  0  0  0  0  0
   41.3986   24.0201   35.3822 H   0  0  0  0  0  0  0  0  0  0  0  0
  1 15  1  0
  2  3  2  0
  4  8  1  0
  4  3  1  0
  5  4  2  0
  6  5  1  0
  6  7  2  0
  7  2  1  0
  9 13  1  0
  9  6  1  0
 10  9  1  0
 11 10  2  0
 11 12  1  0
 12 13  2  0
 13  1  1  0
 14  1  1  0
 15 16  1  0
 16 17  2  0
 16 20  1  0
 17 18  1  0
 18 19  2  0
 20 19  1  0
 21 20  1  0
 21 22  1  0
 23 21  1  0
  1 24  1  1
  2 25  1  0
  3 26  1  0
  8 27  1  0
  8 28  1  0
 11 29  1  0
 12 30  1  0
 14 31  1  0
 14 32  1  0
 14 33  1  0
 15 34  1  0
 15 35  1  0
 17 36  1  0
 19 37  1  0
 21 38  1  0
 22 39  1  0
 22 40  1  0
 22 41  1  0
 23 42  1  0
 23 43  1  0
 23 44  1  0
M  ISO  8  24   8  25  14  26  14  29  14  30  14  31   8  32   8  33   8
M  ISO  8  34   8  35   8  36  14  37  14  38   8  39   8  40   8  41   8
M  ISO  3  42   8  43   8  44   8
M  END
>  <minimizedAffinity>  (1) 
-4.75566053

>  <minimizedRMSD>  (1) 
5.94055843

$$$$
