
     RDKit          3D

 52 55  0  0  1  0  0  0  0  0999 V2000
   38.7540   21.9250   34.2560 C   0  0  0  0  0  0  0  0  0  0  0  0
   38.7130   22.4540   35.6770 C   0  0  0  0  0  0  0  0  0  0  0  0
   37.5900   22.9340   36.3240 C   0  0  0  0  0  0  0  0  0  0  0  0
   37.9360   23.3090   37.5480 N   0  0  0  0  0  0  0  0  0  0  0  0
   39.2580   23.0820   37.7090 C   0  0  0  0  0  0  0  0  0  0  0  0
   39.7120   22.5650   36.5670 N   0  0  0  0  0  0  0  0  0  0  0  0
   41.0740   22.1860   36.3360 C   0  0  2  0  0  0  0  0  0  0  0  0
   41.5240   21.4520   37.5930 C   0  0  0  0  0  0  0  0  0  0  0  0
   41.9030   23.4250   36.1230 C   0  0  0  0  0  0  0  0  0  0  0  0
   43.3610   23.1860   36.0730 C   0  0  0  0  0  0  0  0  0  0  0  0
   44.1110   22.2000   35.4670 C   0  0  0  0  0  0  0  0  0  0  0  0
   45.4840   22.2480   35.5960 C   0  0  0  0  0  0  0  0  0  0  0  0
   46.1350   23.1910   36.2730 N   0  0  0  0  0  0  0  0  0  0  0  0
   45.3730   24.1520   36.8610 C   0  0  0  0  0  0  0  0  0  0  0  0
   44.0100   24.1660   36.7740 N   0  0  0  0  0  0  0  0  0  0  0  0
   37.6240   22.5320   33.4590 C   0  0  1  0  0  0  0  0  0  0  0  0
   40.4350   26.3700   34.5410 C   0  0  0  0  0  0  0  0  0  0  0  0
   39.3150   27.0210   35.1060 C   0  0  0  0  0  0  0  0  0  0  0  0
   38.0560   26.7260   34.6120 C   0  0  0  0  0  0  0  0  0  0  0  0
   37.9780   25.8220   33.6070 N   0  0  0  0  0  0  0  0  0  0  0  0
   39.0600   25.2120   33.0810 C   0  0  0  0  0  0  0  0  0  0  0  0
   40.2830   25.4800   33.5390 N   0  0  0  0  0  0  0  0  0  0  0  0
   36.8740   27.2950   35.0790 N   0  0  0  0  0  0  0  0  0  0  0  0
   38.8080   24.2790   32.0180 N   0  0  0  0  0  0  0  0  0  0  0  0
   39.1260   24.3960   30.7490 N   0  0  0  0  0  0  0  0  0  0  0  0
   38.7470   23.3280   30.0310 C   0  0  0  0  0  0  0  0  0  0  0  0
   38.1360   22.4720   30.9500 C   0  0  0  0  0  0  0  0  0  0  0  0
   38.1950   23.1090   32.1970 C   0  0  0  0  0  0  0  0  0  0  0  0
   36.6090   21.4510   33.1060 C   0  0  0  0  0  0  0  0  0  0  0  0
   39.7148   22.1935   33.7926 H   0  0  0  0  0  0  0  0  0  0  0  0
   38.6460   20.8304   34.2694 H   0  0  0  0  0  0  0  0  0  0  0  0
   36.5787   22.9948   35.8955 H   0  0  0  0  0  0  0  0  0  0  0  0
   39.8496   23.2858   38.6137 H   0  0  0  0  0  0  0  0  0  0  0  0
   41.1845   21.5484   35.4465 H   0  0  0  0  0  0  0  0  0  0  0  0
   41.1851   22.0048   38.4816 H   0  0  0  0  0  0  0  0  0  0  0  0
   41.0902   20.4412   37.6025 H   0  0  0  0  0  0  0  0  0  0  0  0
   42.6216   21.3801   37.6025 H   0  0  0  0  0  0  0  0  0  0  0  0
   41.5972   23.8835   35.1710 H   0  0  0  0  0  0  0  0  0  0  0  0
   41.7222   24.0755   36.9915 H   0  0  0  0  0  0  0  0  0  0  0  0
   43.6266   21.3950   34.8948 H   0  0  0  0  0  0  0  0  0  0  0  0
   46.0765   21.4590   35.1098 H   0  0  0  0  0  0  0  0  0  0  0  0
   45.8743   24.9495   37.4291 H   0  0  0  0  0  0  0  0  0  0  0  0
   37.1245   23.3161   34.0470 H   0  0  0  0  0  0  0  0  0  0  0  0
   41.4425   26.5917   34.9229 H   0  0  0  0  0  0  0  0  0  0  0  0
   39.4412   27.7477   35.9221 H   0  0  0  0  0  0  0  0  0  0  0  0
   35.9722   27.0252   34.6608 H   0  0  0  0  0  0  0  0  0  0  0  0
   36.9015   27.9857   35.8426 H   0  0  0  0  0  0  0  0  0  0  0  0
   38.8871   23.1624   28.9526 H   0  0  0  0  0  0  0  0  0  0  0  0
   37.6938   21.4877   30.7363 H   0  0  0  0  0  0  0  0  0  0  0  0
   36.2004   21.0159   34.0300 H   0  0  0  0  0  0  0  0  0  0  0  0
   35.7923   21.8933   32.5166 H   0  0  0  0  0  0  0  0  0  0  0  0
   37.1018   20.6637   32.5166 H   0  0  0  0  0  0  0  0  0  0  0  0
  1  2  1  0
  2  3  2  0
  2  6  1  0
  3  4  1  0
  4  5  2  0
  6  5  1  0
  7  6  1  0
  7  8  1  0
  9  7  1  0
 10  9  1  0
 10 15  2  0
 11 12  2  0
 11 10  1  0
 12 13  1  0
 13 14  2  0
 15 14  1  0
 16  1  1  0
 17 18  2  0
 19 23  1  0
 19 18  1  0
 20 19  2  0
 21 22  2  0
 21 20  1  0
 22 17  1  0
 24 28  1  0
 24 21  1  0
 25 24  1  0
 26 25  2  0
 26 27  1  0
 27 28  2  0
 28 16  1  0
 29 16  1  0
  1 30  1  0
  1 31  1  0
  3 32  1  0
  5 33  1  0
  7 34  1  6
  8 35  1  0
  8 36  1  0
  8 37  1  0
  9 38  1  0
  9 39  1  0
 11 40  1  0
 12 41  1  0
 14 42  1  0
 16 43  1  1
 17 44  1  0
 18 45  1  0
 23 46  1  0
 23 47  1  0
 26 48  1  0
 27 49  1  0
 29 50  1  0
 29 51  1  0
 29 52  1  0
M  ISO  8  30   8  31   8  32  14  33  14  34   8  35   8  36   8  37   8
M  ISO  8  38   8  39   8  40  14  41  14  42  14  43   8  44  14  45  14
M  ISO  5  48  14  49  14  50   8  51   8  52   8
M  END
>  <minimizedAffinity>  (1) 
-5.25788355

>  <minimizedRMSD>  (1) 
0.512313664

$$$$
