
     RDKit          3D

 51 54  0  0  1  0  0  0  0  0999 V2000
   38.7120   21.9040   34.2290 C   0  0  0  0  0  0  0  0  0  0  0  0
   38.6980   22.4360   35.6470 C   0  0  0  0  0  0  0  0  0  0  0  0
   37.5750   22.8960   36.3270 C   0  0  0  0  0  0  0  0  0  0  0  0
   37.9400   23.2800   37.5360 N   0  0  0  0  0  0  0  0  0  0  0  0
   39.2820   23.0820   37.6700 C   0  0  0  0  0  0  0  0  0  0  0  0
   39.7140   22.5720   36.5130 N   0  0  0  0  0  0  0  0  0  0  0  0
   41.0610   22.2290   36.2600 C   0  0  2  0  0  0  0  0  0  0  0  0
   41.5570   21.4340   37.4640 C   0  0  0  0  0  0  0  0  0  0  0  0
   41.8890   23.5010   36.0980 C   0  0  0  0  0  0  0  0  0  0  0  0
   43.3290   23.1620   35.9020 C   0  0  0  0  0  0  0  0  0  0  0  0
   44.3130   23.8350   36.6070 C   0  0  0  0  0  0  0  0  0  0  0  0
   45.4790   23.3150   36.2220 N   0  0  0  0  0  0  0  0  0  0  0  0
   45.2240   22.3620   35.3150 C   0  0  0  0  0  0  0  0  0  0  0  0
   43.9180   22.2500   35.1030 N   0  0  0  0  0  0  0  0  0  0  0  0
   37.6000   22.5540   33.4380 C   0  0  1  0  0  0  0  0  0  0  0  0
   40.3550   26.4340   34.5350 C   0  0  0  0  0  0  0  0  0  0  0  0
   39.2220   27.0720   35.0740 C   0  0  0  0  0  0  0  0  0  0  0  0
   37.9750   26.7580   34.5590 C   0  0  0  0  0  0  0  0  0  0  0  0
   37.9230   25.8460   33.5600 N   0  0  0  0  0  0  0  0  0  0  0  0
   39.0230   25.2430   33.0550 C   0  0  0  0  0  0  0  0  0  0  0  0
   40.2330   25.5320   33.5370 N   0  0  0  0  0  0  0  0  0  0  0  0
   36.7750   27.3180   35.0010 N   0  0  0  0  0  0  0  0  0  0  0  0
   38.8040   24.2960   31.9930 N   0  0  0  0  0  0  0  0  0  0  0  0
   39.1460   24.4020   30.7380 N   0  0  0  0  0  0  0  0  0  0  0  0
   38.7810   23.3180   30.0210 C   0  0  0  0  0  0  0  0  0  0  0  0
   38.1580   22.4770   30.9340 C   0  0  0  0  0  0  0  0  0  0  0  0
   38.1890   23.1280   32.1810 C   0  0  0  0  0  0  0  0  0  0  0  0
   36.5600   21.5020   33.0720 C   0  0  0  0  0  0  0  0  0  0  0  0
   39.6797   22.1351   33.7598 H   0  0  0  0  0  0  0  0  0  0  0  0
   38.5638   20.8141   34.2439 H   0  0  0  0  0  0  0  0  0  0  0  0
   36.5522   22.9335   35.9239 H   0  0  0  0  0  0  0  0  0  0  0  0
   39.8918   23.3000   38.5592 H   0  0  0  0  0  0  0  0  0  0  0  0
   41.1528   21.6356   35.3383 H   0  0  0  0  0  0  0  0  0  0  0  0
   41.2430   21.9373   38.3903 H   0  0  0  0  0  0  0  0  0  0  0  0
   41.1308   20.4203   37.4349 H   0  0  0  0  0  0  0  0  0  0  0  0
   42.6548   21.3712   37.4349 H   0  0  0  0  0  0  0  0  0  0  0  0
   41.5261   24.0610   35.2235 H   0  0  0  0  0  0  0  0  0  0  0  0
   41.7864   24.1121   37.0069 H   0  0  0  0  0  0  0  0  0  0  0  0
   44.1622   24.6406   37.3407 H   0  0  0  0  0  0  0  0  0  0  0  0
   45.9924   21.7549   34.8141 H   0  0  0  0  0  0  0  0  0  0  0  0
   43.4495   21.5978   34.4581 H   0  0  0  0  0  0  0  0  0  0  0  0
   37.1219   23.3465   34.0324 H   0  0  0  0  0  0  0  0  0  0  0  0
   41.3527   26.6731   34.9317 H   0  0  0  0  0  0  0  0  0  0  0  0
   39.3247   27.8051   35.8877 H   0  0  0  0  0  0  0  0  0  0  0  0
   35.8842   27.0344   34.5686 H   0  0  0  0  0  0  0  0  0  0  0  0
   36.7804   28.0148   35.7595 H   0  0  0  0  0  0  0  0  0  0  0  0
   38.9419   23.1396   28.9476 H   0  0  0  0  0  0  0  0  0  0  0  0
   37.7228   21.4892   30.7223 H   0  0  0  0  0  0  0  0  0  0  0  0
   36.1347   21.0717   33.9907 H   0  0  0  0  0  0  0  0  0  0  0  0
   35.7586   21.9689   32.4806 H   0  0  0  0  0  0  0  0  0  0  0  0
   37.0360   20.7060   32.4806 H   0  0  0  0  0  0  0  0  0  0  0  0
  1  2  1  0
  2  3  2  0
  2  6  1  0
  3  4  1  0
  4  5  2  0
  6  5  1  0
  7  6  1  0
  7  8  1  0
  9  7  1  0
 10  9  1  0
 10 11  2  0
 12 11  1  0
 13 12  2  0
 14 13  1  0
 14 10  1  0
 15  1  1  0
 16 17  2  0
 18 22  1  0
 18 17  1  0
 19 18  2  0
 20 21  2  0
 20 19  1  0
 21 16  1  0
 23 27  1  0
 23 20  1  0
 24 23  1  0
 25 24  2  0
 25 26  1  0
 26 27  2  0
 27 15  1  0
 28 15  1  0
  1 29  1  0
  1 30  1  0
  3 31  1  0
  5 32  1  0
  7 33  1  6
  8 34  1  0
  8 35  1  0
  8 36  1  0
  9 37  1  0
  9 38  1  0
 11 39  1  0
 13 40  1  0
 14 41  1  0
 15 42  1  1
 16 43  1  0
 17 44  1  0
 22 45  1  0
 22 46  1  0
 25 47  1  0
 26 48  1  0
 28 49  1  0
 28 50  1  0
 28 51  1  0
M  ISO  8  29   8  30   8  31  14  32  14  33   8  34   8  35   8  36   8
M  ISO  8  37   8  38   8  39  14  40  14  41   9  42   8  43  14  44  14
M  ISO  5  47  14  48  14  49   8  50   8  51   8
M  END
>  <minimizedAffinity>  (1) 
-4.9972105

>  <minimizedRMSD>  (1) 
0.309582204

$$$$
