
     RDKit          3D

 57 60  0  0  1  0  0  0  0  0999 V2000
   38.7140   21.8760   34.2010 C   0  0  0  0  0  0  0  0  0  0  0  0
   38.7690   22.4420   35.5980 C   0  0  0  0  0  0  0  0  0  0  0  0
   37.6970   23.0310   36.2620 C   0  0  0  0  0  0  0  0  0  0  0  0
   38.1130   23.4130   37.4700 N   0  0  0  0  0  0  0  0  0  0  0  0
   39.4190   23.0830   37.5950 C   0  0  0  0  0  0  0  0  0  0  0  0
   39.7970   22.4970   36.4520 N   0  0  0  0  0  0  0  0  0  0  0  0
   41.1110   22.0100   36.2110 C   0  0  2  0  0  0  0  0  0  0  0  0
   41.5870   21.3300   37.4880 C   0  0  0  0  0  0  0  0  0  0  0  0
   42.0100   23.2000   35.8790 C   0  0  0  0  0  0  0  0  0  0  0  0
   43.3710   22.9660   36.4090 N   0  0  0  0  0  0  0  0  0  0  0  0
   43.8500   24.2590   36.8620 C   0  0  0  0  0  0  0  0  0  0  0  0
   45.1300   24.7070   36.2520 C   0  0  0  0  0  0  0  0  0  0  0  0
   46.1000   23.7370   36.1870 O   0  0  0  0  0  0  0  0  0  0  0  0
   45.6430   22.4780   35.8500 C   0  0  0  0  0  0  0  0  0  0  0  0
   44.2330   22.5700   35.3130 C   0  0  0  0  0  0  0  0  0  0  0  0
   37.6090   22.5450   33.4200 C   0  0  1  0  0  0  0  0  0  0  0  0
   40.4720   26.3310   34.5570 C   0  0  0  0  0  0  0  0  0  0  0  0
   39.3530   26.9890   35.1330 C   0  0  0  0  0  0  0  0  0  0  0  0
   38.0850   26.7170   34.6290 C   0  0  0  0  0  0  0  0  0  0  0  0
   38.0030   25.8310   33.6120 N   0  0  0  0  0  0  0  0  0  0  0  0
   39.0800   25.2050   33.0680 C   0  0  0  0  0  0  0  0  0  0  0  0
   40.2970   25.4670   33.5510 N   0  0  0  0  0  0  0  0  0  0  0  0
   36.9100   27.2950   35.1020 N   0  0  0  0  0  0  0  0  0  0  0  0
   38.8290   24.2980   32.0040 N   0  0  0  0  0  0  0  0  0  0  0  0
   39.1570   24.4240   30.7410 N   0  0  0  0  0  0  0  0  0  0  0  0
   38.7650   23.3650   30.0070 C   0  0  0  0  0  0  0  0  0  0  0  0
   38.1350   22.5080   30.9130 C   0  0  0  0  0  0  0  0  0  0  0  0
   38.1940   23.1300   32.1670 C   0  0  0  0  0  0  0  0  0  0  0  0
   36.5510   21.5110   33.0430 C   0  0  0  0  0  0  0  0  0  0  0  0
   39.6757   22.0531   33.6973 H   0  0  0  0  0  0  0  0  0  0  0  0
   38.5168   20.7952   34.2551 H   0  0  0  0  0  0  0  0  0  0  0  0
   36.6813   23.1593   35.8596 H   0  0  0  0  0  0  0  0  0  0  0  0
   40.0542   23.2632   38.4748 H   0  0  0  0  0  0  0  0  0  0  0  0
   41.1355   21.2960   35.3745 H   0  0  0  0  0  0  0  0  0  0  0  0
   41.2029   21.8787   38.3606 H   0  0  0  0  0  0  0  0  0  0  0  0
   41.2151   20.2951   37.5128 H   0  0  0  0  0  0  0  0  0  0  0  0
   42.6867   21.3252   37.5128 H   0  0  0  0  0  0  0  0  0  0  0  0
   42.0603   23.3258   34.7874 H   0  0  0  0  0  0  0  0  0  0  0  0
   41.5933   24.1081   36.3391 H   0  0  0  0  0  0  0  0  0  0  0  0
   43.0800   25.0088   36.6275 H   0  0  0  0  0  0  0  0  0  0  0  0
   44.0449   24.1530   37.9394 H   0  0  0  0  0  0  0  0  0  0  0  0
   44.9206   25.0526   35.2289 H   0  0  0  0  0  0  0  0  0  0  0  0
   45.5252   25.5016   36.9020 H   0  0  0  0  0  0  0  0  0  0  0  0
   46.2991   22.0456   35.0802 H   0  0  0  0  0  0  0  0  0  0  0  0
   45.6490   21.8386   36.7451 H   0  0  0  0  0  0  0  0  0  0  0  0
   44.1860   23.3195   34.5093 H   0  0  0  0  0  0  0  0  0  0  0  0
   43.9130   21.6018   34.9006 H   0  0  0  0  0  0  0  0  0  0  0  0
   37.1458   23.3349   34.0296 H   0  0  0  0  0  0  0  0  0  0  0  0
   41.4839   26.5321   34.9386 H   0  0  0  0  0  0  0  0  0  0  0  0
   39.4862   27.7000   35.9617 H   0  0  0  0  0  0  0  0  0  0  0  0
   36.0056   27.0440   34.6779 H   0  0  0  0  0  0  0  0  0  0  0  0
   36.9452   27.9737   35.8760 H   0  0  0  0  0  0  0  0  0  0  0  0
   38.9095   23.2086   28.9278 H   0  0  0  0  0  0  0  0  0  0  0  0
   37.6802   21.5326   30.6855 H   0  0  0  0  0  0  0  0  0  0  0  0
   36.1137   21.0837   33.9574 H   0  0  0  0  0  0  0  0  0  0  0  0
   35.7607   21.9945   32.4500 H   0  0  0  0  0  0  0  0  0  0  0  0
   37.0162   20.7098   32.4500 H   0  0  0  0  0  0  0  0  0  0  0  0
  1  2  1  0
  2  3  2  0
  2  6  1  0
  3  4  1  0
  4  5  2  0
  6  5  1  0
  7  6  1  0
  7  8  1  0
  9  7  1  0
  9 10  1  0
 10 11  1  0
 12 11  1  0
 13 12  1  0
 14 13  1  0
 15 14  1  0
 15 10  1  0
 16  1  1  0
 17 18  2  0
 19 23  1  0
 19 18  1  0
 20 19  2  0
 21 22  2  0
 21 20  1  0
 22 17  1  0
 24 28  1  0
 24 21  1  0
 25 24  1  0
 26 25  2  0
 26 27  1  0
 27 28  2  0
 28 16  1  0
 29 16  1  0
  1 30  1  0
  1 31  1  0
  3 32  1  0
  5 33  1  0
  7 34  1  6
  8 35  1  0
  8 36  1  0
  8 37  1  0
  9 38  1  0
  9 39  1  0
 11 40  1  0
 11 41  1  0
 12 42  1  0
 12 43  1  0
 14 44  1  0
 14 45  1  0
 15 46  1  0
 15 47  1  0
 16 48  1  1
 17 49  1  0
 18 50  1  0
 23 51  1  0
 23 52  1  0
 26 53  1  0
 27 54  1  0
 29 55  1  0
 29 56  1  0
 29 57  1  0
M  ISO  8  30   8  31   8  32  14  33  14  34   8  35   8  36   8  37   8
M  ISO  8  38   8  39   8  40  13  41  13  42  13  43  13  44  13  45  13
M  ISO  8  46  13  47  13  48   8  49  14  50  14  53  14  54  14  55   8
M  ISO  2  56   8  57   8
M  END
>  <minimizedAffinity>  (1) 
-5.10441637

>  <minimizedRMSD>  (1) 
0.585748494

$$$$
