
     RDKit          3D

 51 54  0  0  1  0  0  0  0  0999 V2000
   38.6880   21.8850   34.2430 C   0  0  0  0  0  0  0  0  0  0  0  0
   38.6720   22.4140   35.6600 C   0  0  0  0  0  0  0  0  0  0  0  0
   37.5450   22.8400   36.3560 C   0  0  0  0  0  0  0  0  0  0  0  0
   37.9140   23.2330   37.5620 N   0  0  0  0  0  0  0  0  0  0  0  0
   39.2600   23.0760   37.6770 C   0  0  0  0  0  0  0  0  0  0  0  0
   39.6950   22.5800   36.5160 N   0  0  0  0  0  0  0  0  0  0  0  0
   41.0500   22.2800   36.2460 C   0  0  2  0  0  0  0  0  0  0  0  0
   41.5770   21.4790   37.4310 C   0  0  0  0  0  0  0  0  0  0  0  0
   41.8340   23.5750   36.0950 C   0  0  0  0  0  0  0  0  0  0  0  0
   43.2950   23.3120   35.9740 C   0  0  0  0  0  0  0  0  0  0  0  0
   44.2010   24.0560   36.7040 C   0  0  0  0  0  0  0  0  0  0  0  0
   45.4400   23.5750   36.3720 C   0  0  0  0  0  0  0  0  0  0  0  0
   45.2480   22.5470   35.4420 C   0  0  0  0  0  0  0  0  0  0  0  0
   43.9490   22.4480   35.2540 O   0  0  0  0  0  0  0  0  0  0  0  0
   37.5900   22.5510   33.4460 C   0  0  1  0  0  0  0  0  0  0  0  0
   40.2790   26.4800   34.5230 C   0  0  0  0  0  0  0  0  0  0  0  0
   39.1320   27.1150   35.0310 C   0  0  0  0  0  0  0  0  0  0  0  0
   37.8970   26.7760   34.5020 C   0  0  0  0  0  0  0  0  0  0  0  0
   37.8720   25.8480   33.5180 N   0  0  0  0  0  0  0  0  0  0  0  0
   38.9860   25.2500   33.0430 C   0  0  0  0  0  0  0  0  0  0  0  0
   40.1860   25.5580   33.5360 N   0  0  0  0  0  0  0  0  0  0  0  0
   36.6850   27.3310   34.9160 N   0  0  0  0  0  0  0  0  0  0  0  0
   38.7940   24.2820   31.9940 N   0  0  0  0  0  0  0  0  0  0  0  0
   39.1540   24.3710   30.7400 N   0  0  0  0  0  0  0  0  0  0  0  0
   38.8200   23.2800   30.0340 C   0  0  0  0  0  0  0  0  0  0  0  0
   38.1890   22.4370   30.9560 C   0  0  0  0  0  0  0  0  0  0  0  0
   38.1920   23.1080   32.1900 C   0  0  0  0  0  0  0  0  0  0  0  0
   36.5290   21.5190   33.0800 C   0  0  0  0  0  0  0  0  0  0  0  0
   39.6617   22.1040   33.7805 H   0  0  0  0  0  0  0  0  0  0  0  0
   38.5251   20.7972   34.2551 H   0  0  0  0  0  0  0  0  0  0  0  0
   36.5164   22.8482   35.9663 H   0  0  0  0  0  0  0  0  0  0  0  0
   39.8737   23.3126   38.5587 H   0  0  0  0  0  0  0  0  0  0  0  0
   41.1543   21.7037   35.3149 H   0  0  0  0  0  0  0  0  0  0  0  0
   41.2606   21.9599   38.3684 H   0  0  0  0  0  0  0  0  0  0  0  0
   41.1750   20.4559   37.3899 H   0  0  0  0  0  0  0  0  0  0  0  0
   42.6756   21.4432   37.3899 H   0  0  0  0  0  0  0  0  0  0  0  0
   41.4884   24.0999   35.1922 H   0  0  0  0  0  0  0  0  0  0  0  0
   41.6649   24.1898   36.9913 H   0  0  0  0  0  0  0  0  0  0  0  0
   43.9739   24.8695   37.4088 H   0  0  0  0  0  0  0  0  0  0  0  0
   46.4048   23.9302   36.7631 H   0  0  0  0  0  0  0  0  0  0  0  0
   46.0299   21.9403   34.9619 H   0  0  0  0  0  0  0  0  0  0  0  0
   37.1254   23.3536   34.0376 H   0  0  0  0  0  0  0  0  0  0  0  0
   41.2668   26.7362   34.9337 H   0  0  0  0  0  0  0  0  0  0  0  0
   39.2133   27.8651   35.8315 H   0  0  0  0  0  0  0  0  0  0  0  0
   35.8037   27.0298   34.4761 H   0  0  0  0  0  0  0  0  0  0  0  0
   36.6720   28.0418   35.6613 H   0  0  0  0  0  0  0  0  0  0  0  0
   39.0020   23.0900   28.9659 H   0  0  0  0  0  0  0  0  0  0  0  0
   37.7708   21.4400   30.7531 H   0  0  0  0  0  0  0  0  0  0  0  0
   36.0954   21.0972   33.9988 H   0  0  0  0  0  0  0  0  0  0  0  0
   35.7368   22.0014   32.4886 H   0  0  0  0  0  0  0  0  0  0  0  0
   36.9893   20.7138   32.4886 H   0  0  0  0  0  0  0  0  0  0  0  0
  1  2  1  0
  2  3  2  0
  2  6  1  0
  3  4  1  0
  4  5  2  0
  6  5  1  0
  7  6  1  0
  7  8  1  0
  9  7  1  0
 10  9  1  0
 10 11  2  0
 12 11  1  0
 13 12  2  0
 14 13  1  0
 14 10  1  0
 15  1  1  0
 16 17  2  0
 18 22  1  0
 18 17  1  0
 19 18  2  0
 20 19  1  0
 20 21  2  0
 21 16  1  0
 23 27  1  0
 23 20  1  0
 24 23  1  0
 25 24  2  0
 25 26  1  0
 26 27  2  0
 27 15  1  0
 28 15  1  0
  1 29  1  0
  1 30  1  0
  3 31  1  0
  5 32  1  0
  7 33  1  6
  8 34  1  0
  8 35  1  0
  8 36  1  0
  9 37  1  0
  9 38  1  0
 11 39  1  0
 12 40  1  0
 13 41  1  0
 15 42  1  1
 16 43  1  0
 17 44  1  0
 22 45  1  0
 22 46  1  0
 25 47  1  0
 26 48  1  0
 28 49  1  0
 28 50  1  0
 28 51  1  0
M  ISO  8  29   8  30   8  31  14  32  14  33   8  34   8  35   8  36   8
M  ISO  8  37   8  38   8  39  14  40  14  41  14  42   8  43  14  44  14
M  ISO  5  47  14  48  14  49   8  50   8  51   8
M  END
>  <minimizedAffinity>  (1) 
-5.19238949

>  <minimizedRMSD>  (1) 
0.513251007

$$$$
