
     RDKit          3D

 59 62  0  0  1  0  0  0  0  0999 V2000
   38.6990   21.8760   34.1770 C   0  0  0  0  0  0  0  0  0  0  0  0
   38.7440   22.4070   35.5950 C   0  0  0  0  0  0  0  0  0  0  0  0
   37.6250   22.8110   36.3130 C   0  0  0  0  0  0  0  0  0  0  0  0
   38.0310   23.2110   37.5200 N   0  0  0  0  0  0  0  0  0  0  0  0
   39.3660   23.0770   37.5900 C   0  0  0  0  0  0  0  0  0  0  0  0
   39.7910   22.5880   36.4190 N   0  0  0  0  0  0  0  0  0  0  0  0
   41.1500   22.2950   36.0680 C   0  0  2  0  0  0  0  0  0  0  0  0
   41.6490   21.3190   37.1500 C   0  0  0  0  0  0  0  0  0  0  0  0
   41.9300   23.5920   36.1700 C   0  0  0  0  0  0  0  0  0  0  0  0
   43.3000   23.4580   35.6750 N   0  0  0  0  0  0  0  0  0  0  0  0
   44.1620   23.8640   36.7280 C   0  0  0  0  0  0  0  0  0  0  0  0
   44.5450   25.2960   36.8100 C   0  0  0  0  0  0  0  0  0  0  0  0
   45.1340   25.6440   35.4310 C   0  0  0  0  0  0  0  0  0  0  0  0
   43.9390   25.5700   34.5080 C   0  0  0  0  0  0  0  0  0  0  0  0
   43.3980   24.1900   34.4440 C   0  0  0  0  0  0  0  0  0  0  0  0
   37.6010   22.5600   33.4030 C   0  0  1  0  0  0  0  0  0  0  0  0
   40.3050   26.4700   34.5140 C   0  0  0  0  0  0  0  0  0  0  0  0
   39.1470   27.0950   35.0490 C   0  0  0  0  0  0  0  0  0  0  0  0
   37.9180   26.7640   34.5280 C   0  0  0  0  0  0  0  0  0  0  0  0
   37.8960   25.8600   33.5350 N   0  0  0  0  0  0  0  0  0  0  0  0
   38.9930   25.2590   33.0200 C   0  0  0  0  0  0  0  0  0  0  0  0
   40.1920   25.5720   33.5170 N   0  0  0  0  0  0  0  0  0  0  0  0
   36.7180   27.3240   34.9730 N   0  0  0  0  0  0  0  0  0  0  0  0
   38.7900   24.3260   31.9700 N   0  0  0  0  0  0  0  0  0  0  0  0
   39.1360   24.4290   30.7120 N   0  0  0  0  0  0  0  0  0  0  0  0
   38.7900   23.3550   29.9860 C   0  0  0  0  0  0  0  0  0  0  0  0
   38.1670   22.5020   30.8960 C   0  0  0  0  0  0  0  0  0  0  0  0
   38.1790   23.1400   32.1520 C   0  0  0  0  0  0  0  0  0  0  0  0
   36.5420   21.5280   33.0250 C   0  0  0  0  0  0  0  0  0  0  0  0
   39.6644   22.0677   33.6858 H   0  0  0  0  0  0  0  0  0  0  0  0
   38.5012   20.7943   34.2034 H   0  0  0  0  0  0  0  0  0  0  0  0
   36.5866   22.8026   35.9503 H   0  0  0  0  0  0  0  0  0  0  0  0
   39.9974   23.3251   38.4559 H   0  0  0  0  0  0  0  0  0  0  0  0
   41.2591   21.8715   35.0587 H   0  0  0  0  0  0  0  0  0  0  0  0
   41.4361   21.7353   38.1457 H   0  0  0  0  0  0  0  0  0  0  0  0
   41.1339   20.3535   37.0385 H   0  0  0  0  0  0  0  0  0  0  0  0
   42.7333   21.1712   37.0385 H   0  0  0  0  0  0  0  0  0  0  0  0
   41.4140   24.3623   35.5780 H   0  0  0  0  0  0  0  0  0  0  0  0
   41.9826   23.8695   37.2331 H   0  0  0  0  0  0  0  0  0  0  0  0
   43.6648   23.6049   37.6744 H   0  0  0  0  0  0  0  0  0  0  0  0
   45.1076   23.3409   36.5225 H   0  0  0  0  0  0  0  0  0  0  0  0
   43.6626   25.9185   37.0193 H   0  0  0  0  0  0  0  0  0  0  0  0
   45.2663   25.4797   37.6199 H   0  0  0  0  0  0  0  0  0  0  0  0
   45.5677   26.6549   35.4324 H   0  0  0  0  0  0  0  0  0  0  0  0
   45.9496   24.9696   35.1309 H   0  0  0  0  0  0  0  0  0  0  0  0
   43.1552   26.2462   34.8801 H   0  0  0  0  0  0  0  0  0  0  0  0
   44.2586   25.8671   33.4983 H   0  0  0  0  0  0  0  0  0  0  0  0
   42.3864   24.2523   34.0165 H   0  0  0  0  0  0  0  0  0  0  0  0
   44.1297   23.6302   33.8430 H   0  0  0  0  0  0  0  0  0  0  0  0
   37.1498   23.3551   34.0148 H   0  0  0  0  0  0  0  0  0  0  0  0
   41.2979   26.7206   34.9157 H   0  0  0  0  0  0  0  0  0  0  0  0
   39.2316   27.8291   35.8638 H   0  0  0  0  0  0  0  0  0  0  0  0
   35.8260   27.0375   34.5449 H   0  0  0  0  0  0  0  0  0  0  0  0
   36.7252   28.0233   35.7291 H   0  0  0  0  0  0  0  0  0  0  0  0
   38.9599   23.1854   28.9125 H   0  0  0  0  0  0  0  0  0  0  0  0
   37.7434   21.5115   30.6738 H   0  0  0  0  0  0  0  0  0  0  0  0
   36.1036   21.1008   33.9390 H   0  0  0  0  0  0  0  0  0  0  0  0
   35.7527   22.0129   32.4318 H   0  0  0  0  0  0  0  0  0  0  0  0
   37.0064   20.7265   32.4318 H   0  0  0  0  0  0  0  0  0  0  0  0
  1  2  1  0
  2  3  2  0
  2  6  1  0
  3  4  1  0
  4  5  2  0
  6  5  1  0
  7  9  1  0
  7  6  1  0
  7  8  1  0
 10  9  1  0
 10 11  1  0
 11 12  1  0
 13 12  1  0
 14 13  1  0
 15 14  1  0
 15 10  1  0
 16  1  1  0
 17 18  2  0
 19 23  1  0
 19 18  1  0
 20 19  2  0
 21 22  2  0
 21 20  1  0
 22 17  1  0
 24 28  1  0
 24 21  1  0
 25 24  1  0
 26 25  2  0
 26 27  1  0
 27 28  2  0
 28 16  1  0
 29 16  1  0
  1 30  1  0
  1 31  1  0
  3 32  1  0
  5 33  1  0
  7 34  1  6
  8 35  1  0
  8 36  1  0
  8 37  1  0
  9 38  1  0
  9 39  1  0
 11 40  1  0
 11 41  1  0
 12 42  1  0
 12 43  1  0
 13 44  1  0
 13 45  1  0
 14 46  1  0
 14 47  1  0
 15 48  1  0
 15 49  1  0
 16 50  1  1
 17 51  1  0
 18 52  1  0
 23 53  1  0
 23 54  1  0
 26 55  1  0
 27 56  1  0
 29 57  1  0
 29 58  1  0
 29 59  1  0
M  ISO  8  30   8  31   8  32  14  33  14  34   8  35   8  36   8  37   8
M  ISO  8  38   8  39   8  40  13  41  13  42  13  43  13  44  13  45  13
M  ISO  8  46  13  47  13  48  13  49  13  50   8  51  14  52  14  55  14
M  ISO  4  56  14  57   8  58   8  59   8
M  END
>  <minimizedAffinity>  (1) 
-5.22643089

>  <minimizedRMSD>  (1) 
0.359971642

$$$$
