
     RDKit          3D

 46 48  0  0  1  0  0  0  0  0999 V2000
   37.5650   22.5630   33.4100 C   0  0  1  0  0  0  0  0  0  0  0  0
   40.4330   26.3390   34.5720 C   0  0  0  0  0  0  0  0  0  0  0  0
   39.3190   27.0000   35.1310 C   0  0  0  0  0  0  0  0  0  0  0  0
   38.0570   26.7300   34.6140 C   0  0  0  0  0  0  0  0  0  0  0  0
   37.9760   25.8410   33.5980 N   0  0  0  0  0  0  0  0  0  0  0  0
   39.0600   25.2200   33.0780 C   0  0  0  0  0  0  0  0  0  0  0  0
   40.2780   25.4650   33.5590 N   0  0  0  0  0  0  0  0  0  0  0  0
   36.8760   27.3140   35.0750 N   0  0  0  0  0  0  0  0  0  0  0  0
   38.8100   24.3010   31.9990 N   0  0  0  0  0  0  0  0  0  0  0  0
   39.1520   24.4260   30.7410 N   0  0  0  0  0  0  0  0  0  0  0  0
   38.7610   23.3740   29.9990 C   0  0  0  0  0  0  0  0  0  0  0  0
   38.1130   22.5230   30.9010 C   0  0  0  0  0  0  0  0  0  0  0  0
   38.1660   23.1470   32.1620 C   0  0  0  0  0  0  0  0  0  0  0  0
   36.4910   21.5530   33.0230 C   0  0  0  0  0  0  0  0  0  0  0  0
   38.6650   21.8660   34.1800 C   0  0  0  0  0  0  0  0  0  0  0  0
   38.7330   22.4300   35.5820 C   0  0  0  0  0  0  0  0  0  0  0  0
   37.6740   23.0340   36.2580 C   0  0  0  0  0  0  0  0  0  0  0  0
   38.0970   23.4040   37.4570 N   0  0  0  0  0  0  0  0  0  0  0  0
   39.4030   23.0570   37.5760 C   0  0  0  0  0  0  0  0  0  0  0  0
   39.7650   22.4710   36.4350 N   0  0  0  0  0  0  0  0  0  0  0  0
   41.0630   21.9730   36.1850 C   0  0  2  0  0  0  0  0  0  0  0  0
   41.5920   21.3910   37.4850 C   0  0  0  0  0  0  0  0  0  0  0  0
   41.9630   23.1070   35.7120 C   0  0  0  0  0  0  0  0  0  0  0  0
   43.0940   23.2270   36.6170 N   0  0  0  0  0  0  0  0  0  0  0  0
   37.1115   23.3522   34.0277 H   0  0  0  0  0  0  0  0  0  0  0  0
   41.4395   26.5397   34.9679 H   0  0  0  0  0  0  0  0  0  0  0  0
   39.4462   27.7138   35.9583 H   0  0  0  0  0  0  0  0  0  0  0  0
   35.9752   27.0648   34.6422 H   0  0  0  0  0  0  0  0  0  0  0  0
   36.9054   27.9941   35.8480 H   0  0  0  0  0  0  0  0  0  0  0  0
   38.9164   23.2175   28.9213 H   0  0  0  0  0  0  0  0  0  0  0  0
   37.6506   21.5522   30.6693 H   0  0  0  0  0  0  0  0  0  0  0  0
   36.0408   21.1297   33.9330 H   0  0  0  0  0  0  0  0  0  0  0  0
   35.7133   22.0545   32.4284 H   0  0  0  0  0  0  0  0  0  0  0  0
   36.9438   20.7460   32.4284 H   0  0  0  0  0  0  0  0  0  0  0  0
   38.4526   20.7878   34.2282 H   0  0  0  0  0  0  0  0  0  0  0  0
   39.6274   22.0272   33.6723 H   0  0  0  0  0  0  0  0  0  0  0  0
   36.6580   23.1789   35.8621 H   0  0  0  0  0  0  0  0  0  0  0  0
   40.0450   23.2278   38.4527 H   0  0  0  0  0  0  0  0  0  0  0  0
   41.0411   21.1997   35.4030 H   0  0  0  0  0  0  0  0  0  0  0  0
   41.1228   21.9072   38.3355 H   0  0  0  0  0  0  0  0  0  0  0  0
   41.3535   20.3181   37.5303 H   0  0  0  0  0  0  0  0  0  0  0  0
   42.6827   21.5263   37.5303 H   0  0  0  0  0  0  0  0  0  0  0  0
   42.3256   22.8901   34.6964 H   0  0  0  0  0  0  0  0  0  0  0  0
   41.3960   24.0496   35.7011 H   0  0  0  0  0  0  0  0  0  0  0  0
   42.7599   23.1915   37.5907 H   0  0  0  0  0  0  0  0  0  0  0  0
   43.7505   22.4509   36.4508 H   0  0  0  0  0  0  0  0  0  0  0  0
  1 15  1  0
  2  3  2  0
  4  8  1  0
  4  3  1  0
  5  4  2  0
  6  7  2  0
  6  5  1  0
  7  2  1  0
  9 13  1  0
  9  6  1  0
 10  9  1  0
 11 10  2  0
 11 12  1  0
 12 13  2  0
 13  1  1  0
 14  1  1  0
 15 16  1  0
 16 17  2  0
 16 20  1  0
 17 18  1  0
 18 19  2  0
 20 19  1  0
 21 20  1  0
 21 22  1  0
 23 21  1  0
 23 24  1  0
  1 25  1  1
  2 26  1  0
  3 27  1  0
  8 28  1  0
  8 29  1  0
 11 30  1  0
 12 31  1  0
 14 32  1  0
 14 33  1  0
 14 34  1  0
 15 35  1  0
 15 36  1  0
 17 37  1  0
 19 38  1  0
 21 39  1  6
 22 40  1  0
 22 41  1  0
 22 42  1  0
 23 43  1  0
 23 44  1  0
 24 45  1  0
 24 46  1  0
M  ISO  8  25   8  26  14  27  14  30  14  31  14  32   8  33   8  34   8
M  ISO  8  35   8  36   8  37  14  38  14  39   8  40   8  41   8  42   8
M  ISO  4  43   8  44   8  45   5  46   5
M  END
>  <minimizedAffinity>  (1) 
-4.66750908

>  <minimizedRMSD>  (1) 
0.338437408

$$$$
