
     RDKit          3D

 24 26  0  0  0  0  0  0  0  0999 V2000
   38.1940   24.8300   35.3870 C   0  0  0  0  0  0  0  0  0  0  0  0
   37.8160   24.5620   36.7090 C   0  0  0  0  0  0  0  0  0  0  0  0
   38.6360   23.5590   37.1170 N   0  0  0  0  0  0  0  0  0  0  0  0
   39.4460   23.2650   36.0810 C   0  0  0  0  0  0  0  0  0  0  0  0
   39.2100   24.0100   35.0200 N   0  0  0  0  0  0  0  0  0  0  0  0
   36.6680   28.0380   34.2360 C   0  0  0  0  0  0  0  0  0  0  0  0
   37.2640   27.0900   35.0870 C   0  0  0  0  0  0  0  0  0  0  0  0
   37.5690   25.8550   34.5380 C   0  0  0  0  0  0  0  0  0  0  0  0
   37.2830   25.6090   33.2090 N   0  0  0  0  0  0  0  0  0  0  0  0
   36.7160   26.5450   32.4450 C   0  0  0  0  0  0  0  0  0  0  0  0
   36.4090   27.7560   32.9550 N   0  0  0  0  0  0  0  0  0  0  0  0
   40.4880   22.1890   36.1880 C   0  0  0  0  0  0  0  0  0  0  0  0
   41.8840   22.5970   36.6700 C   0  0  0  0  0  0  0  0  0  0  0  0
   40.9560   21.9200   37.6000 C   0  0  0  0  0  0  0  0  0  0  0  0
   37.0252   25.0573   37.2914 H   0  0  0  0  0  0  0  0  0  0  0  0
   39.6920   23.9768   34.1104 H   0  0  0  0  0  0  0  0  0  0  0  0
   36.4098   29.0312   34.6322 H   0  0  0  0  0  0  0  0  0  0  0  0
   37.4784   27.3188   36.1414 H   0  0  0  0  0  0  0  0  0  0  0  0
   36.4968   26.3271   31.3893 H   0  0  0  0  0  0  0  0  0  0  0  0
   40.1069   21.6067   35.3362 H   0  0  0  0  0  0  0  0  0  0  0  0
   42.7714   22.0656   36.2957 H   0  0  0  0  0  0  0  0  0  0  0  0
   42.4543   23.5374   36.6899 H   0  0  0  0  0  0  0  0  0  0  0  0
   40.5159   22.4822   38.4368 H   0  0  0  0  0  0  0  0  0  0  0  0
   41.0201   21.0202   38.2295 H   0  0  0  0  0  0  0  0  0  0  0  0
  1  2  2  0
  2  3  1  0
  4 12  1  0
  4  3  2  0
  5  1  1  0
  5  4  1  0
  6  7  2  0
  8  7  1  0
  8  1  1  0
  9  8  2  0
 10 11  2  0
 10  9  1  0
 11  6  1  0
 12 13  1  0
 12 14  1  0
 13 14  1  0
  2 15  1  0
  5 16  1  0
  6 17  1  0
  7 18  1  0
 10 19  1  0
 12 20  1  0
 13 21  1  0
 13 22  1  0
 14 23  1  0
 14 24  1  0
M  ISO  8  15  14  16   9  17  14  18  14  19  14  20  13  21  13  22  13
M  ISO  2  23  13  24  13
M  END
>  <minimizedAffinity>  (1) 
-3.96755147

>  <minimizedRMSD>  (1) 
5.98485804

$$$$
