
     RDKit          3D

 20 21  0  0  0  0  0  0  0  0999 V2000
   43.2850   19.8960   37.0970 C   0  0  0  0  0  0  0  0  0  0  0  0
   42.2310   20.7560   37.4160 C   0  0  0  0  0  0  0  0  0  0  0  0
   41.6160   21.4790   36.3850 C   0  0  0  0  0  0  0  0  0  0  0  0
   42.0890   21.2980   35.1120 N   0  0  0  0  0  0  0  0  0  0  0  0
   43.0980   20.4660   34.8490 C   0  0  0  0  0  0  0  0  0  0  0  0
   43.6900   19.7720   35.8270 N   0  0  0  0  0  0  0  0  0  0  0  0
   40.5120   22.3780   36.7320 C   0  0  0  0  0  0  0  0  0  0  0  0
   40.0330   23.3450   35.8560 C   0  0  0  0  0  0  0  0  0  0  0  0
   39.0180   23.9630   36.5450 N   0  0  0  0  0  0  0  0  0  0  0  0
   38.9340   23.3670   37.7550 C   0  0  0  0  0  0  0  0  0  0  0  0
   39.8290   22.4050   37.8860 N   0  0  0  0  0  0  0  0  0  0  0  0
   37.9620   23.7300   38.8200 C   0  0  0  0  0  0  0  0  0  0  0  0
   43.7829   19.3198   37.8908 H   0  0  0  0  0  0  0  0  0  0  0  0
   41.8905   20.8635   38.4564 H   0  0  0  0  0  0  0  0  0  0  0  0
   43.4481   20.3491   33.8128 H   0  0  0  0  0  0  0  0  0  0  0  0
   40.3875   23.5660   34.8384 H   0  0  0  0  0  0  0  0  0  0  0  0
   39.9731   21.7993   38.7065 H   0  0  0  0  0  0  0  0  0  0  0  0
   38.4182   23.5596   39.8063 H   0  0  0  0  0  0  0  0  0  0  0  0
   37.6886   24.7908   38.7208 H   0  0  0  0  0  0  0  0  0  0  0  0
   37.0601   23.1081   38.7208 H   0  0  0  0  0  0  0  0  0  0  0  0
  1  2  2  0
  3  7  1  0
  3  2  1  0
  4  3  2  0
  5  4  1  0
  5  6  2  0
  6  1  1  0
  7 11  1  0
  8  9  1  0
  8  7  2  0
  9 10  2  0
 10 11  1  0
 10 12  1  0
  1 13  1  0
  2 14  1  0
  5 15  1  0
  8 16  1  0
 11 17  1  0
 12 18  1  0
 12 19  1  0
 12 20  1  0
M  ISO  8  13  14  14  14  15  14  16  14  17   9  18   8  19   8  20   8
M  END
>  <minimizedAffinity>  (1) 
-3.48822808

>  <minimizedRMSD>  (1) 
1.34306145

$$$$
