
     RDKit          3D

 36 38  0  0  0  0  0  0  0  0999 V2000
   39.2150   24.1280   35.8540 C   0  0  0  0  0  0  0  0  0  0  0  0
   38.2340   24.4670   36.7950 C   0  0  0  0  0  0  0  0  0  0  0  0
   37.5160   25.4570   36.2220 N   0  0  0  0  0  0  0  0  0  0  0  0
   38.0570   25.6830   34.9970 C   0  0  0  0  0  0  0  0  0  0  0  0
   39.0900   24.8910   34.7490 N   0  0  0  0  0  0  0  0  0  0  0  0
   41.3570   21.5680   37.5220 C   0  0  0  0  0  0  0  0  0  0  0  0
   40.3850   22.5680   37.3390 C   0  0  0  0  0  0  0  0  0  0  0  0
   40.2260   23.0820   36.0700 C   0  0  0  0  0  0  0  0  0  0  0  0
   41.0170   22.5960   35.0610 N   0  0  0  0  0  0  0  0  0  0  0  0
   41.9300   21.6450   35.2750 C   0  0  0  0  0  0  0  0  0  0  0  0
   42.1030   21.1320   36.4900 N   0  0  0  0  0  0  0  0  0  0  0  0
   37.5460   26.6960   34.0650 C   0  0  0  0  0  0  0  0  0  0  0  0
   37.7940   26.8380   32.7150 C   0  0  0  0  0  0  0  0  0  0  0  0
   37.1270   27.9120   32.2020 C   0  0  0  0  0  0  0  0  0  0  0  0
   36.4610   28.4310   33.2600 N   0  0  0  0  0  0  0  0  0  0  0  0
   36.7110   27.7160   34.3450 N   0  0  0  0  0  0  0  0  0  0  0  0
   35.5870   29.5900   33.2940 C   0  0  0  0  0  0  0  0  0  0  0  0
   34.1680   29.1220   32.9560 C   0  0  0  0  0  0  0  0  0  0  0  0
   35.9830   30.6100   32.2550 C   0  0  0  0  0  0  0  0  0  0  0  0
   35.5340   30.1650   34.6790 C   0  0  0  0  0  0  0  0  0  0  0  0
   38.0811   24.0216   37.7891 H   0  0  0  0  0  0  0  0  0  0  0  0
   39.6704   24.8640   33.8985 H   0  0  0  0  0  0  0  0  0  0  0  0
   41.5096   21.1363   38.5222 H   0  0  0  0  0  0  0  0  0  0  0  0
   39.7730   22.9274   38.1794 H   0  0  0  0  0  0  0  0  0  0  0  0
   42.5450   21.2824   34.4382 H   0  0  0  0  0  0  0  0  0  0  0  0
   38.4446   26.1722   32.1289 H   0  0  0  0  0  0  0  0  0  0  0  0
   37.1298   28.2743   31.1634 H   0  0  0  0  0  0  0  0  0  0  0  0
   33.6111   28.9383   33.8866 H   0  0  0  0  0  0  0  0  0  0  0  0
   33.6557   29.8988   32.3693 H   0  0  0  0  0  0  0  0  0  0  0  0
   34.2183   28.1929   32.3693 H   0  0  0  0  0  0  0  0  0  0  0  0
   36.3377   31.5236   32.7546 H   0  0  0  0  0  0  0  0  0  0  0  0
   36.7873   30.2000   31.6265 H   0  0  0  0  0  0  0  0  0  0  0  0
   35.1127   30.8501   31.6265 H   0  0  0  0  0  0  0  0  0  0  0  0
   35.6089   29.3523   35.4165 H   0  0  0  0  0  0  0  0  0  0  0  0
   36.3715   30.8645   34.8179 H   0  0  0  0  0  0  0  0  0  0  0  0
   34.5828   30.6997   34.8179 H   0  0  0  0  0  0  0  0  0  0  0  0
  1  8  1  0
  1  2  2  0
  3  2  1  0
  4  3  2  0
  5  4  1  0
  5  1  1  0
  7  6  2  0
  8  7  1  0
  9 10  1  0
  9  8  2  0
 10 11  2  0
 11  6  1  0
 12 16  2  0
 12  4  1  0
 13 12  1  0
 14 13  2  0
 14 15  1  0
 15 17  1  0
 15 16  1  0
 17 20  1  0
 18 17  1  0
 19 17  1  0
  2 21  1  0
  5 22  1  0
  6 23  1  0
  7 24  1  0
 10 25  1  0
 13 26  1  0
 14 27  1  0
 18 28  1  0
 18 29  1  0
 18 30  1  0
 19 31  1  0
 19 32  1  0
 19 33  1  0
 20 34  1  0
 20 35  1  0
 20 36  1  0
M  ISO  8  21  14  22   9  23  14  24  14  25  14  26  14  27  14  28   8
M  ISO  8  29   8  30   8  31   8  32   8  33   8  34   8  35   8  36   8
M  END
>  <minimizedAffinity>  (1) 
-4.5769043

>  <minimizedRMSD>  (1) 
3.78766441

$$$$
