
     RDKit          3D

 31 34  0  0  0  0  0  0  0  0999 V2000
   38.0520   25.1300   35.1510 C   0  0  0  0  0  0  0  0  0  0  0  0
   37.9420   24.7270   33.8000 C   0  0  0  0  0  0  0  0  0  0  0  0
   37.3310   25.7510   33.1620 N   0  0  0  0  0  0  0  0  0  0  0  0
   37.0960   26.7040   34.0840 C   0  0  0  0  0  0  0  0  0  0  0  0
   37.5180   26.3600   35.2950 N   0  0  0  0  0  0  0  0  0  0  0  0
   38.6410   23.4700   38.4370 C   0  0  0  0  0  0  0  0  0  0  0  0
   38.0570   24.2690   37.4440 C   0  0  0  0  0  0  0  0  0  0  0  0
   38.6620   24.2950   36.1870 C   0  0  0  0  0  0  0  0  0  0  0  0
   39.7800   23.5520   35.9860 N   0  0  0  0  0  0  0  0  0  0  0  0
   40.3110   22.8000   36.9550 C   0  0  0  0  0  0  0  0  0  0  0  0
   39.7430   22.7630   38.1690 N   0  0  0  0  0  0  0  0  0  0  0  0
   36.4440   27.9740   33.7810 C   0  0  0  0  0  0  0  0  0  0  0  0
   35.8400   28.3990   32.6030 C   0  0  0  0  0  0  0  0  0  0  0  0
   35.3430   29.6540   32.7140 C   0  0  0  0  0  0  0  0  0  0  0  0
   35.6390   30.0100   33.9660 N   0  0  0  0  0  0  0  0  0  0  0  0
   36.2860   29.0350   34.6100 N   0  0  0  0  0  0  0  0  0  0  0  0
   35.2970   31.3100   34.5670 C   0  0  0  0  0  0  0  0  0  0  0  0
   35.6670   31.5500   35.9620 C   0  0  0  0  0  0  0  0  0  0  0  0
   34.2400   31.2430   35.7100 C   0  0  0  0  0  0  0  0  0  0  0  0
   38.2825   23.7782   33.3597 H   0  0  0  0  0  0  0  0  0  0  0  0
   37.4516   26.9146   36.1604 H   0  0  0  0  0  0  0  0  0  0  0  0
   38.1909   23.4249   39.4397 H   0  0  0  0  0  0  0  0  0  0  0  0
   37.1503   24.8569   37.6494 H   0  0  0  0  0  0  0  0  0  0  0  0
   41.2173   22.2093   36.7558 H   0  0  0  0  0  0  0  0  0  0  0  0
   35.7737   27.7889   31.6901 H   0  0  0  0  0  0  0  0  0  0  0  0
   34.8168   30.2438   31.9490 H   0  0  0  0  0  0  0  0  0  0  0  0
   35.4386   31.8683   33.6298 H   0  0  0  0  0  0  0  0  0  0  0  0
   36.2919   30.8133   36.4881 H   0  0  0  0  0  0  0  0  0  0  0  0
   36.1815   32.3764   36.4743 H   0  0  0  0  0  0  0  0  0  0  0  0
   33.4757   32.0280   35.8084 H   0  0  0  0  0  0  0  0  0  0  0  0
   33.5126   30.5025   36.0741 H   0  0  0  0  0  0  0  0  0  0  0  0
  1  5  1  0
  1  8  1  0
  2  1  2  0
  3  2  1  0
  3  4  2  0
  4  5  1  0
  7  6  2  0
  8  7  1  0
  9  8  2  0
  9 10  1  0
 10 11  2  0
 11  6  1  0
 12  4  1  0
 12 16  2  0
 13 14  2  0
 13 12  1  0
 14 15  1  0
 15 17  1  0
 15 16  1  0
 17 19  1  0
 17 18  1  0
 19 18  1  0
  2 20  1  0
  5 21  1  0
  6 22  1  0
  7 23  1  0
 10 24  1  0
 13 25  1  0
 14 26  1  0
 17 27  1  0
 18 28  1  0
 18 29  1  0
 19 30  1  0
 19 31  1  0
M  ISO  8  20  14  21   9  22  14  23  14  24  14  25  14  26  14  27  13
M  ISO  4  28  13  29  13  30  13  31  13
M  END
>  <minimizedAffinity>  (1) 
-5.01902533

>  <minimizedRMSD>  (1) 
4.6481061

$$$$
