
     RDKit          3D

 43 46  0  0  1  0  0  0  0  0999 V2000
   37.6930   25.8630   34.7660 C   0  0  0  0  0  0  0  0  0  0  0  0
   37.2480   27.1180   35.1180 C   0  0  0  0  0  0  0  0  0  0  0  0
   36.6750   27.7670   34.0740 C   0  0  0  0  0  0  0  0  0  0  0  0
   36.7660   26.9120   33.0700 N   0  0  0  0  0  0  0  0  0  0  0  0
   37.3570   25.8050   33.4680 N   0  0  0  0  0  0  0  0  0  0  0  0
   39.6560   23.3080   36.2590 C   0  0  0  0  0  0  0  0  0  0  0  0
   38.7450   23.5370   37.2880 C   0  0  0  0  0  0  0  0  0  0  0  0
   37.9270   24.5160   36.8270 N   0  0  0  0  0  0  0  0  0  0  0  0
   38.3480   24.8360   35.5820 C   0  0  0  0  0  0  0  0  0  0  0  0
   39.3870   24.1280   35.2100 N   0  0  0  0  0  0  0  0  0  0  0  0
   42.1320   20.8640   37.5960 C   0  0  0  0  0  0  0  0  0  0  0  0
   41.0890   21.7950   37.5560 C   0  0  0  0  0  0  0  0  0  0  0  0
   40.7510   22.3190   36.3080 C   0  0  0  0  0  0  0  0  0  0  0  0
   41.4370   21.9140   35.1790 N   0  0  0  0  0  0  0  0  0  0  0  0
   42.4210   21.0210   35.3000 C   0  0  0  0  0  0  0  0  0  0  0  0
   42.7700   20.5010   36.4730 N   0  0  0  0  0  0  0  0  0  0  0  0
   36.3380   26.9690   31.6740 C   0  0  1  0  0  0  0  0  0  0  0  0
   37.5040   27.4400   30.8110 C   0  0  0  0  0  0  0  0  0  0  0  0
   35.7630   25.6960   31.2190 C   0  0  0  0  0  0  0  0  0  0  0  0
   36.5420   24.5640   30.9620 N   0  0  0  0  0  0  0  0  0  0  0  0
   37.6970   24.8250   30.2990 C   0  0  0  0  0  0  0  0  0  0  0  0
   38.6510   23.8490   29.9990 C   0  0  0  0  0  0  0  0  0  0  0  0
   38.4170   22.5280   30.3960 C   0  0  0  0  0  0  0  0  0  0  0  0
   39.2250   21.5970   30.1640 O   0  0  0  0  0  0  0  0  0  0  0  0
   37.2740   22.2770   31.0480 N   0  0  0  0  0  0  0  0  0  0  0  0
   36.4080   23.2700   31.2960 C   0  0  0  0  0  0  0  0  0  0  0  0
   35.3560   22.8860   31.9130 O   0  0  0  0  0  0  0  0  0  0  0  0
   37.3458   27.5440   36.1274 H   0  0  0  0  0  0  0  0  0  0  0  0
   36.2349   28.7751   34.0648 H   0  0  0  0  0  0  0  0  0  0  0  0
   38.6990   23.0324   38.2643 H   0  0  0  0  0  0  0  0  0  0  0  0
   39.8915   24.1821   34.3137 H   0  0  0  0  0  0  0  0  0  0  0  0
   42.4325   20.4247   38.5587 H   0  0  0  0  0  0  0  0  0  0  0  0
   40.5579   22.1010   38.4694 H   0  0  0  0  0  0  0  0  0  0  0  0
   42.9630   20.7036   34.3969 H   0  0  0  0  0  0  0  0  0  0  0  0
   35.5220   27.7001   31.5762 H   0  0  0  0  0  0  0  0  0  0  0  0
   38.3284   27.7730   31.4586 H   0  0  0  0  0  0  0  0  0  0  0  0
   37.8487   26.6106   30.1760 H   0  0  0  0  0  0  0  0  0  0  0  0
   37.1759   28.2761   30.1760 H   0  0  0  0  0  0  0  0  0  0  0  0
   35.0369   25.3973   31.9894 H   0  0  0  0  0  0  0  0  0  0  0  0
   35.4108   25.9581   30.2104 H   0  0  0  0  0  0  0  0  0  0  0  0
   37.8926   25.8597   29.9809 H   0  0  0  0  0  0  0  0  0  0  0  0
   39.5717   24.1152   29.4591 H   0  0  0  0  0  0  0  0  0  0  0  0
   37.0600   21.3189   31.3595 H   0  0  0  0  0  0  0  0  0  0  0  0
  1  2  1  0
  1  9  1  0
  3  2  2  0
  4  5  1  0
  4  3  1  0
  5  1  2  0
  6 13  1  0
  6  7  2  0
  8  7  1  0
  9  8  2  0
 10  9  1  0
 10  6  1  0
 12 11  2  0
 13 12  1  0
 14 15  1  0
 14 13  2  0
 15 16  2  0
 16 11  1  0
 17  4  1  0
 18 17  1  0
 19 17  1  0
 20 19  1  0
 20 26  1  0
 21 20  1  0
 22 21  2  0
 22 23  1  0
 23 25  1  0
 24 23  2  0
 25 26  1  0
 26 27  2  0
  2 28  1  0
  3 29  1  0
  7 30  1  0
 10 31  1  0
 11 32  1  0
 12 33  1  0
 15 34  1  0
 17 35  1  1
 18 36  1  0
 18 37  1  0
 18 38  1  0
 19 39  1  0
 19 40  1  0
 21 41  1  0
 22 42  1  0
 25 43  1  0
M  ISO  8  28  14  29  14  30  14  31   9  32  14  33  14  34  14  35   8
M  ISO  8  36   8  37   8  38   8  39   8  40   8  41  14  42  14  43   9
M  END
>  <minimizedAffinity>  (1) 
-5.40634537

>  <minimizedRMSD>  (1) 
0.750192165

$$$$
