
     RDKit          3D

 40 43  0  0  1  0  0  0  0  0999 V2000
   37.7240   25.7470   34.5120 C   0  0  0  0  0  0  0  0  0  0  0  0
   37.2080   26.9900   34.8040 C   0  0  0  0  0  0  0  0  0  0  0  0
   36.6920   27.6170   33.7230 C   0  0  0  0  0  0  0  0  0  0  0  0
   36.8960   26.7300   32.7330 N   0  0  0  0  0  0  0  0  0  0  0  0
   37.5000   25.6270   33.1750 N   0  0  0  0  0  0  0  0  0  0  0  0
   39.6850   23.2850   36.1390 C   0  0  0  0  0  0  0  0  0  0  0  0
   38.7450   23.5570   37.1590 C   0  0  0  0  0  0  0  0  0  0  0  0
   37.9260   24.5060   36.6350 N   0  0  0  0  0  0  0  0  0  0  0  0
   38.3610   24.7680   35.3950 C   0  0  0  0  0  0  0  0  0  0  0  0
   39.4180   24.0510   35.0650 N   0  0  0  0  0  0  0  0  0  0  0  0
   42.0990   20.8810   37.6510 C   0  0  0  0  0  0  0  0  0  0  0  0
   41.0590   21.8180   37.5580 C   0  0  0  0  0  0  0  0  0  0  0  0
   40.7650   22.3030   36.2950 C   0  0  0  0  0  0  0  0  0  0  0  0
   41.4890   21.8570   35.2050 N   0  0  0  0  0  0  0  0  0  0  0  0
   42.4680   20.9640   35.3570 C   0  0  0  0  0  0  0  0  0  0  0  0
   42.7740   20.4800   36.5590 N   0  0  0  0  0  0  0  0  0  0  0  0
   36.5600   26.8230   31.3270 C   0  0  1  0  0  0  0  0  0  0  0  0
   35.3160   26.0060   31.0370 C   0  0  0  0  0  0  0  0  0  0  0  0
   36.2860   28.2540   30.9650 C   0  0  0  0  0  0  0  0  0  0  0  0
   37.4280   28.9520   30.3190 C   0  0  0  0  0  0  0  0  0  0  0  0
   37.5920   29.0100   28.8620 C   0  0  0  0  0  0  0  0  0  0  0  0
   37.0870   30.2330   29.5330 C   0  0  0  0  0  0  0  0  0  0  0  0
   37.2150   27.4278   35.8131 H   0  0  0  0  0  0  0  0  0  0  0  0
   36.2208   28.6094   33.6670 H   0  0  0  0  0  0  0  0  0  0  0  0
   38.6889   23.1004   38.1582 H   0  0  0  0  0  0  0  0  0  0  0  0
   39.9314   24.0728   34.1724 H   0  0  0  0  0  0  0  0  0  0  0  0
   42.3671   20.4670   38.6343 H   0  0  0  0  0  0  0  0  0  0  0  0
   40.5033   22.1516   38.4467 H   0  0  0  0  0  0  0  0  0  0  0  0
   43.0311   20.6222   34.4760 H   0  0  0  0  0  0  0  0  0  0  0  0
   37.4052   26.4391   30.7369 H   0  0  0  0  0  0  0  0  0  0  0  0
   34.8494   25.6996   31.9848 H   0  0  0  0  0  0  0  0  0  0  0  0
   34.6050   26.6136   30.4579 H   0  0  0  0  0  0  0  0  0  0  0  0
   35.5911   25.1122   30.4579 H   0  0  0  0  0  0  0  0  0  0  0  0
   35.4322   28.2764   30.2718 H   0  0  0  0  0  0  0  0  0  0  0  0
   36.0860   28.7842   31.9078 H   0  0  0  0  0  0  0  0  0  0  0  0
   38.0988   28.6456   31.1352 H   0  0  0  0  0  0  0  0  0  0  0  0
   36.9170   28.4279   28.2174 H   0  0  0  0  0  0  0  0  0  0  0  0
   38.4338   28.8081   28.1834 H   0  0  0  0  0  0  0  0  0  0  0  0
   37.7265   31.1239   29.6185 H   0  0  0  0  0  0  0  0  0  0  0  0
   36.2067   30.8843   29.4287 H   0  0  0  0  0  0  0  0  0  0  0  0
  1  2  1  0
  1  9  1  0
  3  2  2  0
  4  5  1  0
  4  3  1  0
  5  1  2  0
  6 13  1  0
  6  7  2  0
  8  7  1  0
  9  8  2  0
 10  9  1  0
 10  6  1  0
 12 11  2  0
 13 12  1  0
 14 15  1  0
 14 13  2  0
 15 16  2  0
 16 11  1  0
 17  4  1  0
 18 17  1  0
 19 17  1  0
 20 19  1  0
 21 22  1  0
 21 20  1  0
 22 20  1  0
  2 23  1  0
  3 24  1  0
  7 25  1  0
 10 26  1  0
 11 27  1  0
 12 28  1  0
 15 29  1  0
 17 30  1  6
 18 31  1  0
 18 32  1  0
 18 33  1  0
 19 34  1  0
 19 35  1  0
 20 36  1  0
 21 37  1  0
 21 38  1  0
 22 39  1  0
 22 40  1  0
M  ISO  8  23  14  24  14  25  14  26   9  27  14  28  14  29  14  30   8
M  ISO  8  31   8  32   8  33   8  34   8  35   8  36  13  37  13  38  13
M  ISO  2  39  13  40  13
M  END
>  <minimizedAffinity>  (1) 
-4.81625128

>  <minimizedRMSD>  (1) 
2.56464982

$$$$
