
     RDKit          3D

 47 51  0  0  1  0  0  0  0  0999 V2000
   38.0160   25.9820   34.7490 C   0  0  0  0  0  0  0  0  0  0  0  0
   37.0640   26.9110   35.1030 C   0  0  0  0  0  0  0  0  0  0  0  0
   36.7230   27.7230   34.0630 C   0  0  0  0  0  0  0  0  0  0  0  0
   37.4750   27.2850   33.0620 N   0  0  0  0  0  0  0  0  0  0  0  0
   38.2350   26.2690   33.4490 N   0  0  0  0  0  0  0  0  0  0  0  0
   39.9950   23.4470   36.2660 C   0  0  0  0  0  0  0  0  0  0  0  0
   38.9270   23.4890   37.1570 C   0  0  0  0  0  0  0  0  0  0  0  0
   38.0830   24.4400   36.6800 N   0  0  0  0  0  0  0  0  0  0  0  0
   38.6570   24.9230   35.5520 C   0  0  0  0  0  0  0  0  0  0  0  0
   39.7980   24.3520   35.2780 N   0  0  0  0  0  0  0  0  0  0  0  0
   42.2560   20.7860   37.5550 C   0  0  0  0  0  0  0  0  0  0  0  0
   41.1410   21.6320   37.4620 C   0  0  0  0  0  0  0  0  0  0  0  0
   41.1500   22.5440   36.4010 C   0  0  0  0  0  0  0  0  0  0  0  0
   42.2140   22.5800   35.5150 N   0  0  0  0  0  0  0  0  0  0  0  0
   43.2320   21.7340   35.6840 C   0  0  0  0  0  0  0  0  0  0  0  0
   43.2660   20.8600   36.6670 N   0  0  0  0  0  0  0  0  0  0  0  0
   37.5900   27.7150   31.7010 C   0  0  1  0  0  0  0  0  0  0  0  0
   39.0670   27.6140   31.2790 C   0  0  0  0  0  0  0  0  0  0  0  0
   36.8210   26.9180   30.7380 C   0  0  0  0  0  0  0  0  0  0  0  0
   36.5870   25.5560   30.8970 N   0  0  0  0  0  0  0  0  0  0  0  0
   35.4060   25.0640   31.3750 C   0  0  0  0  0  0  0  0  0  0  0  0
   35.3910   23.6960   31.4290 C   0  0  0  0  0  0  0  0  0  0  0  0
   36.6140   23.3270   30.9660 N   0  0  0  0  0  0  0  0  0  0  0  0
   37.2640   24.4460   30.6710 C   0  0  0  0  0  0  0  0  0  0  0  0
   38.5400   24.1440   30.1460 N   0  0  0  0  0  0  0  0  0  0  0  0
   39.1830   23.8990   28.9880 C   0  0  0  0  0  0  0  0  0  0  0  0
   40.5300   23.6990   29.2050 C   0  0  0  0  0  0  0  0  0  0  0  0
   40.7340   23.8240   30.5400 N   0  0  0  0  0  0  0  0  0  0  0  0
   39.5360   24.0890   31.0830 C   0  0  0  0  0  0  0  0  0  0  0  0
   36.6283   26.9891   36.1100 H   0  0  0  0  0  0  0  0  0  0  0  0
   35.9952   28.5478   34.0555 H   0  0  0  0  0  0  0  0  0  0  0  0
   38.7938   22.8776   38.0617 H   0  0  0  0  0  0  0  0  0  0  0  0
   40.4178   24.5482   34.4791 H   0  0  0  0  0  0  0  0  0  0  0  0
   42.3065   20.0478   38.3690 H   0  0  0  0  0  0  0  0  0  0  0  0
   40.3094   21.5814   38.1802 H   0  0  0  0  0  0  0  0  0  0  0  0
   44.0731   21.7685   34.9760 H   0  0  0  0  0  0  0  0  0  0  0  0
   37.1897   28.7393   31.6783 H   0  0  0  0  0  0  0  0  0  0  0  0
   39.7024   27.5705   32.1759 H   0  0  0  0  0  0  0  0  0  0  0  0
   39.2157   26.7036   30.6798 H   0  0  0  0  0  0  0  0  0  0  0  0
   39.3383   28.4957   30.6798 H   0  0  0  0  0  0  0  0  0  0  0  0
   37.3388   27.0259   29.7735 H   0  0  0  0  0  0  0  0  0  0  0  0
   35.8100   27.3314   30.8681 H   0  0  0  0  0  0  0  0  0  0  0  0
   34.5604   25.6968   31.6826 H   0  0  0  0  0  0  0  0  0  0  0  0
   34.5738   23.0434   31.7700 H   0  0  0  0  0  0  0  0  0  0  0  0
   38.6984   23.8632   28.0012 H   0  0  0  0  0  0  0  0  0  0  0  0
   41.2920   23.4803   28.4425 H   0  0  0  0  0  0  0  0  0  0  0  0
   39.3728   24.2445   32.1597 H   0  0  0  0  0  0  0  0  0  0  0  0
  1  2  1  0
  1  9  1  0
  3  2  2  0
  4  5  1  0
  4  3  1  0
  5  1  2  0
  6 13  1  0
  6  7  2  0
  8  7  1  0
  9  8  2  0
 10  9  1  0
 10  6  1  0
 12 11  2  0
 13 12  1  0
 14 15  1  0
 14 13  2  0
 15 16  2  0
 16 11  1  0
 17  4  1  0
 18 17  1  0
 19 20  1  0
 19 17  1  0
 20 21  1  0
 21 22  2  0
 23 22  1  0
 24 20  1  0
 24 23  2  0
 25 24  1  0
 25 29  1  0
 26 27  2  0
 26 25  1  0
 27 28  1  0
 28 29  2  0
  2 30  1  0
  3 31  1  0
  7 32  1  0
 10 33  1  0
 11 34  1  0
 12 35  1  0
 15 36  1  0
 17 37  1  1
 18 38  1  0
 18 39  1  0
 18 40  1  0
 19 41  1  0
 19 42  1  0
 21 43  1  0
 22 44  1  0
 26 45  1  0
 27 46  1  0
 29 47  1  0
M  ISO  8  30  14  31  14  32  14  33   9  34  14  35  14  36  14  37   8
M  ISO  8  38   8  39   8  40   8  41   8  42   8  43  14  44  14  45  14
M  ISO  2  46  14  47  14
M  END
>  <minimizedAffinity>  (1) 
-5.33895588

>  <minimizedRMSD>  (1) 
0.65143472

$$$$
