
     RDKit          3D

 43 46  0  0  1  0  0  0  0  0999 V2000
   37.9810   25.9960   34.7570 C   0  0  0  0  0  0  0  0  0  0  0  0
   37.0650   26.9540   35.1350 C   0  0  0  0  0  0  0  0  0  0  0  0
   36.7130   27.7640   34.0940 C   0  0  0  0  0  0  0  0  0  0  0  0
   37.4230   27.2910   33.0770 N   0  0  0  0  0  0  0  0  0  0  0  0
   38.1590   26.2680   33.4510 N   0  0  0  0  0  0  0  0  0  0  0  0
   39.9430   23.4350   36.2490 C   0  0  0  0  0  0  0  0  0  0  0  0
   38.8850   23.4980   37.1600 C   0  0  0  0  0  0  0  0  0  0  0  0
   38.0530   24.4590   36.6950 N   0  0  0  0  0  0  0  0  0  0  0  0
   38.6170   24.9290   35.5540 C   0  0  0  0  0  0  0  0  0  0  0  0
   39.7450   24.3410   35.2590 N   0  0  0  0  0  0  0  0  0  0  0  0
   42.2340   20.8080   37.5540 C   0  0  0  0  0  0  0  0  0  0  0  0
   41.1340   21.6750   37.4780 C   0  0  0  0  0  0  0  0  0  0  0  0
   41.0860   22.5150   36.3640 C   0  0  0  0  0  0  0  0  0  0  0  0
   42.0870   22.4620   35.4170 N   0  0  0  0  0  0  0  0  0  0  0  0
   43.1000   21.6070   35.5670 C   0  0  0  0  0  0  0  0  0  0  0  0
   43.1860   20.7910   36.6060 N   0  0  0  0  0  0  0  0  0  0  0  0
   37.5040   27.7040   31.7110 C   0  0  1  0  0  0  0  0  0  0  0  0
   38.9730   27.6240   31.2600 C   0  0  0  0  0  0  0  0  0  0  0  0
   36.7540   26.8800   30.7610 C   0  0  0  0  0  0  0  0  0  0  0  0
   36.5570   25.5150   30.9140 N   0  0  0  0  0  0  0  0  0  0  0  0
   35.3950   24.9850   31.3510 C   0  0  0  0  0  0  0  0  0  0  0  0
   35.4170   23.6130   31.4100 C   0  0  0  0  0  0  0  0  0  0  0  0
   36.6450   23.2940   30.9930 N   0  0  0  0  0  0  0  0  0  0  0  0
   37.2710   24.4320   30.7130 C   0  0  0  0  0  0  0  0  0  0  0  0
   38.5940   24.2570   30.1830 C   0  0  0  0  0  0  0  0  0  0  0  0
   38.8980   23.8520   29.0380 O   0  0  0  0  0  0  0  0  0  0  0  0
   39.8820   24.1700   29.8960 O   0  0  0  0  0  0  0  0  0  0  0  0
   36.6649   27.0541   36.1548 H   0  0  0  0  0  0  0  0  0  0  0  0
   36.0081   28.6085   34.0972 H   0  0  0  0  0  0  0  0  0  0  0  0
   38.7551   22.8913   38.0683 H   0  0  0  0  0  0  0  0  0  0  0  0
   40.3536   24.5255   34.4488 H   0  0  0  0  0  0  0  0  0  0  0  0
   42.3194   20.1245   38.4116 H   0  0  0  0  0  0  0  0  0  0  0  0
   40.3531   21.6921   38.2526 H   0  0  0  0  0  0  0  0  0  0  0  0
   43.8900   21.5791   34.8021 H   0  0  0  0  0  0  0  0  0  0  0  0
   37.0722   28.7156   31.6956 H   0  0  0  0  0  0  0  0  0  0  0  0
   39.6266   27.5884   32.1441 H   0  0  0  0  0  0  0  0  0  0  0  0
   39.1224   26.7164   30.6568 H   0  0  0  0  0  0  0  0  0  0  0  0
   39.2201   28.5100   30.6568 H   0  0  0  0  0  0  0  0  0  0  0  0
   37.2608   27.0029   29.7925 H   0  0  0  0  0  0  0  0  0  0  0  0
   35.7326   27.2601   30.9103 H   0  0  0  0  0  0  0  0  0  0  0  0
   34.5201   25.5900   31.6312 H   0  0  0  0  0  0  0  0  0  0  0  0
   34.6110   22.9349   31.7269 H   0  0  0  0  0  0  0  0  0  0  0  0
   40.1700   23.8494   29.0047 H   0  0  0  0  0  0  0  0  0  0  0  0
  1  2  1  0
  1  9  1  0
  3  2  2  0
  4  5  1  0
  4  3  1  0
  5  1  2  0
  6 13  1  0
  6  7  2  0
  8  7  1  0
  9  8  2  0
 10  9  1  0
 10  6  1  0
 12 11  2  0
 13 12  1  0
 14 15  1  0
 14 13  2  0
 15 16  2  0
 16 11  1  0
 17  4  1  0
 18 17  1  0
 19 20  1  0
 19 17  1  0
 20 21  1  0
 21 22  2  0
 23 22  1  0
 24 20  1  0
 24 23  2  0
 25 24  1  0
 26 25  2  0
 27 25  1  0
  2 28  1  0
  3 29  1  0
  7 30  1  0
 10 31  1  0
 11 32  1  0
 12 33  1  0
 15 34  1  0
 17 35  1  1
 18 36  1  0
 18 37  1  0
 18 38  1  0
 19 39  1  0
 19 40  1  0
 21 41  1  0
 22 42  1  0
 27 43  1  0
M  ISO  8  28  14  29  14  30  14  31   9  32  14  33  14  34  14  35   8
M  ISO  8  36   8  37   8  38   8  39   8  40   8  41  14  42  14  43   3
M  END
>  <minimizedAffinity>  (1) 
-5.06973982

>  <minimizedRMSD>  (1) 
0.565780699

$$$$
