
     RDKit          3D

 39 41  0  0  1  0  0  0  0  0999 V2000
   39.8970   22.6830   37.4050 C   0  0  0  0  0  0  0  0  0  0  0  0
   39.2690   23.4870   38.3610 C   0  0  0  0  0  0  0  0  0  0  0  0
   37.8990   23.6820   38.2540 C   0  0  0  0  0  0  0  0  0  0  0  0
   37.2250   23.0870   37.2280 N   0  0  0  0  0  0  0  0  0  0  0  0
   37.8610   22.3190   36.3260 C   0  0  0  0  0  0  0  0  0  0  0  0
   39.1970   22.1210   36.4190 N   0  0  0  0  0  0  0  0  0  0  0  0
   37.1580   21.6980   35.2570 N   0  0  0  0  0  0  0  0  0  0  0  0
   37.7570   21.8150   34.0660 C   0  0  0  0  0  0  0  0  0  0  0  0
   37.1730   21.2550   32.9590 C   0  0  0  0  0  0  0  0  0  0  0  0
   35.9700   20.5980   33.2040 C   0  0  0  0  0  0  0  0  0  0  0  0
   35.2200   19.9620   32.1820 N   0  0  0  0  0  0  0  0  0  0  0  0
   35.3930   20.4980   34.4180 N   0  0  0  0  0  0  0  0  0  0  0  0
   36.0050   21.0660   35.4840 C   0  0  0  0  0  0  0  0  0  0  0  0
   35.5660   21.0380   36.6480 O   0  0  0  0  0  0  0  0  0  0  0  0
   37.6750   21.2870   31.6480 N   0  0  0  0  0  0  0  0  0  0  0  0
   37.7800   22.3970   30.7520 C   0  0  0  0  0  0  0  0  0  0  0  0
   39.1930   22.3370   30.1670 C   0  0  0  0  0  0  0  0  0  0  0  0
   39.1970   21.1450   29.2320 C   0  0  0  0  0  0  0  0  0  0  0  0
   38.1500   20.1260   29.6300 C   0  0  0  0  0  0  0  0  0  0  0  0
   38.1480   20.0150   31.1420 C   0  0  1  0  0  0  0  0  0  0  0  0
   39.4710   19.6070   31.6660 C   0  0  0  0  0  0  0  0  0  0  0  0
   40.3170   18.6550   31.5420 O   0  0  0  0  0  0  0  0  0  0  0  0
   39.9190   20.5760   32.5820 O   0  0  0  0  0  0  0  0  0  0  0  0
   40.9819   22.5120   37.4670 H   0  0  0  0  0  0  0  0  0  0  0  0
   39.8445   23.9519   39.1750 H   0  0  0  0  0  0  0  0  0  0  0  0
   37.3650   24.3066   38.9852 H   0  0  0  0  0  0  0  0  0  0  0  0
   38.7104   22.3562   33.9758 H   0  0  0  0  0  0  0  0  0  0  0  0
   34.3348   19.4881   32.4118 H   0  0  0  0  0  0  0  0  0  0  0  0
   35.5605   19.9740   31.2100 H   0  0  0  0  0  0  0  0  0  0  0  0
   37.0310   22.3132   29.9507 H   0  0  0  0  0  0  0  0  0  0  0  0
   37.5993   23.3505   31.2699 H   0  0  0  0  0  0  0  0  0  0  0  0
   39.4187   23.2602   29.6131 H   0  0  0  0  0  0  0  0  0  0  0  0
   39.9553   22.2394   30.9540 H   0  0  0  0  0  0  0  0  0  0  0  0
   40.1886   20.6697   29.2625 H   0  0  0  0  0  0  0  0  0  0  0  0
   38.9652   21.5007   28.2172 H   0  0  0  0  0  0  0  0  0  0  0  0
   37.1600   20.4529   29.2793 H   0  0  0  0  0  0  0  0  0  0  0  0
   38.3785   19.1497   29.1776 H   0  0  0  0  0  0  0  0  0  0  0  0
   37.4762   19.2163   31.4894 H   0  0  0  0  0  0  0  0  0  0  0  0
   40.7930   20.4639   33.0332 H   0  0  0  0  0  0  0  0  0  0  0  0
  1  2  2  0
  3  2  1  0
  4  3  2  0
  5  6  2  0
  5  4  1  0
  6  1  1  0
  7 13  1  0
  7  5  1  0
  8  7  1  0
  9 10  1  0
  9  8  2  0
 10 12  2  0
 11 10  1  0
 12 13  1  0
 13 14  2  0
 15  9  1  0
 16 15  1  0
 17 16  1  0
 18 19  1  0
 18 17  1  0
 19 20  1  0
 20 15  1  0
 20 21  1  0
 21 23  1  0
 22 21  2  0
  1 24  1  0
  2 25  1  0
  3 26  1  0
  8 27  1  0
 11 28  1  0
 11 29  1  0
 16 30  1  0
 16 31  1  0
 17 32  1  0
 17 33  1  0
 18 34  1  0
 18 35  1  0
 19 36  1  0
 19 37  1  0
 20 38  1  6
 23 39  1  0
M  ISO  8  24  14  25  14  26  14  27  14  30  13  31  13  32  13  33  13
M  ISO  6  34  13  35  13  36  13  37  13  38  13  39   3
M  END
>  <minimizedAffinity>  (1) 
-5.21063471

>  <minimizedRMSD>  (1) 
0.627880991

$$$$
