
     RDKit          3D

 42 45  0  0  1  0  0  0  0  0999 V2000
   37.9840   26.0190   34.7490 C   0  0  0  0  0  0  0  0  0  0  0  0
   37.0670   26.9750   35.1270 C   0  0  0  0  0  0  0  0  0  0  0  0
   36.7250   27.7940   34.0860 C   0  0  0  0  0  0  0  0  0  0  0  0
   37.4450   27.3250   33.0730 N   0  0  0  0  0  0  0  0  0  0  0  0
   38.1810   26.2940   33.4440 N   0  0  0  0  0  0  0  0  0  0  0  0
   39.9410   23.4460   36.2370 C   0  0  0  0  0  0  0  0  0  0  0  0
   38.8770   23.5030   37.1430 C   0  0  0  0  0  0  0  0  0  0  0  0
   38.0510   24.4660   36.6750 N   0  0  0  0  0  0  0  0  0  0  0  0
   38.6110   24.9490   35.5440 C   0  0  0  0  0  0  0  0  0  0  0  0
   39.7380   24.3610   35.2570 N   0  0  0  0  0  0  0  0  0  0  0  0
   42.2280   20.8140   37.5530 C   0  0  0  0  0  0  0  0  0  0  0  0
   41.1140   21.6900   37.4700 C   0  0  0  0  0  0  0  0  0  0  0  0
   41.0670   22.5290   36.3640 C   0  0  0  0  0  0  0  0  0  0  0  0
   42.0750   22.4720   35.4260 N   0  0  0  0  0  0  0  0  0  0  0  0
   43.0910   21.6330   35.5550 C   0  0  0  0  0  0  0  0  0  0  0  0
   43.1790   20.8070   36.6030 N   0  0  0  0  0  0  0  0  0  0  0  0
   37.5450   27.7450   31.7060 C   0  0  1  0  0  0  0  0  0  0  0  0
   38.9960   27.6000   31.2370 C   0  0  0  0  0  0  0  0  0  0  0  0
   36.7090   26.9700   30.7710 C   0  0  0  0  0  0  0  0  0  0  0  0
   36.5270   25.5960   30.8900 N   0  0  0  0  0  0  0  0  0  0  0  0
   35.4100   25.0610   31.4700 C   0  0  0  0  0  0  0  0  0  0  0  0
   35.4380   23.6880   31.4690 C   0  0  0  0  0  0  0  0  0  0  0  0
   36.6130   23.3630   30.8680 N   0  0  0  0  0  0  0  0  0  0  0  0
   37.1970   24.5060   30.5550 C   0  0  0  0  0  0  0  0  0  0  0  0
   38.4400   24.3890   29.8900 N   0  0  0  0  0  0  0  0  0  0  0  0
   36.6587   27.0686   36.1441 H   0  0  0  0  0  0  0  0  0  0  0  0
   36.0214   28.6395   34.0874 H   0  0  0  0  0  0  0  0  0  0  0  0
   38.7406   22.8920   38.0475 H   0  0  0  0  0  0  0  0  0  0  0  0
   40.3496   24.5522   34.4506 H   0  0  0  0  0  0  0  0  0  0  0  0
   42.3145   20.1292   38.4095 H   0  0  0  0  0  0  0  0  0  0  0  0
   40.3294   21.7036   38.2409 H   0  0  0  0  0  0  0  0  0  0  0  0
   43.8773   21.6150   34.7859 H   0  0  0  0  0  0  0  0  0  0  0  0
   37.1910   28.7864   31.6909 H   0  0  0  0  0  0  0  0  0  0  0  0
   39.6593   27.5337   32.1120 H   0  0  0  0  0  0  0  0  0  0  0  0
   39.0960   26.6874   30.6311 H   0  0  0  0  0  0  0  0  0  0  0  0
   39.2747   28.4748   30.6311 H   0  0  0  0  0  0  0  0  0  0  0  0
   37.1364   27.1354   29.7710 H   0  0  0  0  0  0  0  0  0  0  0  0
   35.7030   27.3502   31.0020 H   0  0  0  0  0  0  0  0  0  0  0  0
   34.5869   25.6594   31.8877 H   0  0  0  0  0  0  0  0  0  0  0  0
   34.6763   23.0016   31.8673 H   0  0  0  0  0  0  0  0  0  0  0  0
   38.9574   25.2354   29.6128 H   0  0  0  0  0  0  0  0  0  0  0  0
   38.8277   23.4575   29.6830 H   0  0  0  0  0  0  0  0  0  0  0  0
  1  2  1  0
  1  9  1  0
  3  2  2  0
  4  5  1  0
  4  3  1  0
  5  1  2  0
  6 13  1  0
  6  7  2  0
  8  7  1  0
  9  8  2  0
 10  9  1  0
 10  6  1  0
 12 11  2  0
 13 12  1  0
 14 15  1  0
 14 13  2  0
 15 16  2  0
 16 11  1  0
 17  4  1  0
 18 17  1  0
 19 20  1  0
 19 17  1  0
 20 21  1  0
 22 21  2  0
 23 22  1  0
 24 23  2  0
 24 20  1  0
 25 24  1  0
  2 26  1  0
  3 27  1  0
  7 28  1  0
 10 29  1  0
 11 30  1  0
 12 31  1  0
 15 32  1  0
 17 33  1  1
 18 34  1  0
 18 35  1  0
 18 36  1  0
 19 37  1  0
 19 38  1  0
 21 39  1  0
 22 40  1  0
 25 41  1  0
 25 42  1  0
M  ISO  8  26  14  27  14  28  14  29   9  30  14  31  14  32  14  33   8
M  ISO  7  34   8  35   8  36   8  37   8  38   8  39  14  40  14
M  END
>  <minimizedAffinity>  (1) 
-5.10797501

>  <minimizedRMSD>  (1) 
0.576040983

$$$$
