
     RDKit          3D

 37 40  0  0  1  0  0  0  0  0999 V2000
   37.3770   26.7160   34.1810 C   0  0  1  0  0  0  0  0  0  0  0  0
   38.3980   25.6360   34.0950 C   0  0  0  0  0  0  0  0  0  0  0  0
   39.0720   25.6070   35.4620 C   0  0  1  0  0  0  0  0  0  0  0  0
   38.3170   26.5540   36.3290 C   0  0  0  0  0  0  0  0  0  0  0  0
   37.9490   27.6110   35.2860 C   0  0  0  0  0  0  0  0  0  0  0  0
   39.3600   24.2820   35.9650 C   0  0  0  0  0  0  0  0  0  0  0  0
   38.3890   23.3690   36.4160 C   0  0  0  0  0  0  0  0  0  0  0  0
   38.9380   22.2060   36.8070 N   0  0  0  0  0  0  0  0  0  0  0  0
   40.2710   22.2930   36.6370 C   0  0  0  0  0  0  0  0  0  0  0  0
   41.2740   21.3820   36.8900 C   0  0  0  0  0  0  0  0  0  0  0  0
   42.5800   21.7360   36.6260 C   0  0  0  0  0  0  0  0  0  0  0  0
   42.8440   22.9870   36.1190 C   0  0  0  0  0  0  0  0  0  0  0  0
   41.8080   23.8640   35.8820 C   0  0  0  0  0  0  0  0  0  0  0  0
   40.4980   23.5460   36.1310 C   0  0  0  0  0  0  0  0  0  0  0  0
   35.9510   28.1310   32.6750 C   0  0  0  0  0  0  0  0  0  0  0  0
   37.1350   27.4400   32.9360 C   0  0  0  0  0  0  0  0  0  0  0  0
   38.1420   27.4360   31.9330 C   0  0  0  0  0  0  0  0  0  0  0  0
   37.9100   28.1000   30.7790 N   0  0  0  0  0  0  0  0  0  0  0  0
   36.7410   28.7620   30.5680 C   0  0  0  0  0  0  0  0  0  0  0  0
   35.7670   28.7750   31.5150 N   0  0  0  0  0  0  0  0  0  0  0  0
   36.3737   26.3182   34.3936 H   0  0  0  0  0  0  0  0  0  0  0  0
   37.9186   24.6692   33.8816 H   0  0  0  0  0  0  0  0  0  0  0  0
   39.1206   25.8194   33.2862 H   0  0  0  0  0  0  0  0  0  0  0  0
   40.1098   25.9687   35.4161 H   0  0  0  0  0  0  0  0  0  0  0  0
   37.4253   26.0848   36.7702 H   0  0  0  0  0  0  0  0  0  0  0  0
   38.8685   26.9304   37.2032 H   0  0  0  0  0  0  0  0  0  0  0  0
   38.8326   28.1684   34.9419 H   0  0  0  0  0  0  0  0  0  0  0  0
   37.2651   28.3942   35.6450 H   0  0  0  0  0  0  0  0  0  0  0  0
   37.3101   23.5815   36.4451 H   0  0  0  0  0  0  0  0  0  0  0  0
   38.4276   21.3898   37.1732 H   0  0  0  0  0  0  0  0  0  0  0  0
   41.0361   20.3879   37.2963 H   0  0  0  0  0  0  0  0  0  0  0  0
   43.3995   21.0278   36.8182 H   0  0  0  0  0  0  0  0  0  0  0  0
   43.8801   23.2868   35.9032 H   0  0  0  0  0  0  0  0  0  0  0  0
   42.0416   24.8595   35.4766 H   0  0  0  0  0  0  0  0  0  0  0  0
   35.1555   28.1471   33.4346 H   0  0  0  0  0  0  0  0  0  0  0  0
   39.0910   26.9032   32.0928 H   0  0  0  0  0  0  0  0  0  0  0  0
   36.5820   29.2938   29.6183 H   0  0  0  0  0  0  0  0  0  0  0  0
  1  5  1  0
  2  1  1  0
  2  3  1  0
  3  6  1  0
  3  4  1  0
  5  4  1  0
  6 14  1  0
  6  7  2  0
  7  8  1  0
  9  8  1  0
  9 10  2  0
 11 10  1  0
 12 11  2  0
 13 12  1  0
 13 14  2  0
 14  9  1  0
 15 16  2  0
 16  1  1  0
 17 16  1  0
 18 17  2  0
 19 18  1  0
 19 20  2  0
 20 15  1  0
  1 21  1  1
  2 22  1  0
  2 23  1  0
  3 24  1  6
  4 25  1  0
  4 26  1  0
  5 27  1  0
  5 28  1  0
  7 29  1  0
  8 30  1  0
 10 31  1  0
 11 32  1  0
 12 33  1  0
 13 34  1  0
 15 35  1  0
 17 36  1  0
 19 37  1  0
M  ISO  8  21  13  22  13  23  13  24  13  25  13  26  13  27  13  28  13
M  ISO  8  29  14  30   9  31  14  32  14  33  14  34  14  35  14  36  14
M  ISO  1  37  14
M  END
>  <minimizedAffinity>  (1) 
-5.68022394

>  <minimizedRMSD>  (1) 
5.03219366

$$$$
