
     RDKit          3D

 33 35  0  0  1  0  0  0  0  0999 V2000
   39.7590   23.6600   35.9210 C   0  0  1  0  0  0  0  0  0  0  0  0
   41.2500   23.6100   35.8750 C   0  0  0  0  0  0  0  0  0  0  0  0
   41.6630   22.6910   37.0250 C   0  0  1  0  0  0  0  0  0  0  0  0
   40.3820   22.0280   37.4560 C   0  0  0  0  0  0  0  0  0  0  0  0
   39.4700   23.2540   37.3650 C   0  0  0  0  0  0  0  0  0  0  0  0
   37.8040   25.2400   35.7220 C   0  0  0  0  0  0  0  0  0  0  0  0
   39.1540   24.9330   35.5450 C   0  0  0  0  0  0  0  0  0  0  0  0
   39.9870   25.9070   34.9550 C   0  0  0  0  0  0  0  0  0  0  0  0
   39.4530   27.1030   34.5810 N   0  0  0  0  0  0  0  0  0  0  0  0
   38.1300   27.3570   34.7740 C   0  0  0  0  0  0  0  0  0  0  0  0
   37.3340   26.4340   35.3360 N   0  0  0  0  0  0  0  0  0  0  0  0
   42.7640   21.8110   36.6980 C   0  0  0  0  0  0  0  0  0  0  0  0
   42.6680   20.4840   37.1320 C   0  0  0  0  0  0  0  0  0  0  0  0
   43.6560   19.5420   36.8830 C   0  0  0  0  0  0  0  0  0  0  0  0
   44.7720   19.9800   36.1680 C   0  0  0  0  0  0  0  0  0  0  0  0
   44.8640   21.3010   35.7390 C   0  0  0  0  0  0  0  0  0  0  0  0
   43.8660   22.2130   36.0010 C   0  0  0  0  0  0  0  0  0  0  0  0
   39.3050   23.0010   35.1663 H   0  0  0  0  0  0  0  0  0  0  0  0
   41.5915   23.1997   34.9132 H   0  0  0  0  0  0  0  0  0  0  0  0
   41.6953   24.6111   35.9722 H   0  0  0  0  0  0  0  0  0  0  0  0
   42.1035   23.2384   37.8713 H   0  0  0  0  0  0  0  0  0  0  0  0
   40.0745   21.2273   36.7673 H   0  0  0  0  0  0  0  0  0  0  0  0
   40.4065   21.5143   38.4284 H   0  0  0  0  0  0  0  0  0  0  0  0
   39.7603   24.0380   38.0799 H   0  0  0  0  0  0  0  0  0  0  0  0
   38.4112   23.0747   37.6032 H   0  0  0  0  0  0  0  0  0  0  0  0
   37.1267   24.5027   36.1778 H   0  0  0  0  0  0  0  0  0  0  0  0
   41.0565   25.7027   34.7987 H   0  0  0  0  0  0  0  0  0  0  0  0
   37.7098   28.3261   34.4671 H   0  0  0  0  0  0  0  0  0  0  0  0
   41.7735   20.1753   37.6930 H   0  0  0  0  0  0  0  0  0  0  0  0
   43.5644   18.5027   37.2314 H   0  0  0  0  0  0  0  0  0  0  0  0
   45.5857   19.2752   35.9417 H   0  0  0  0  0  0  0  0  0  0  0  0
   45.7537   21.6236   35.1782 H   0  0  0  0  0  0  0  0  0  0  0  0
   43.9561   23.2525   35.6528 H   0  0  0  0  0  0  0  0  0  0  0  0
  1  5  1  0
  2  1  1  0
  2  3  1  0
  3  4  1  0
  5  4  1  0
  7  6  2  0
  7  1  1  0
  8  7  1  0
  9 10  1  0
  9  8  2  0
 10 11  2  0
 11  6  1  0
 12  3  1  0
 12 13  2  0
 14 13  1  0
 15 14  2  0
 16 17  2  0
 16 15  1  0
 17 12  1  0
  1 18  1  6
  2 19  1  0
  2 20  1  0
  3 21  1  1
  4 22  1  0
  4 23  1  0
  5 24  1  0
  5 25  1  0
  6 26  1  0
  8 27  1  0
 10 28  1  0
 13 29  1  0
 14 30  1  0
 15 31  1  0
 16 32  1  0
 17 33  1  0
M  ISO  8  18  13  19  13  20  13  21  13  22  13  23  13  24  13  25  13
M  ISO  8  26  14  27  14  28  14  29  14  30  14  31  14  32  14  33  14
M  END
>  <minimizedAffinity>  (1) 
-4.49945116

>  <minimizedRMSD>  (1) 
0.894014478

$$$$
