
     RDKit          3D

 33 35  0  0  1  0  0  0  0  0999 V2000
   39.8420   23.6190   35.9050 C   0  0  1  0  0  0  0  0  0  0  0  0
   41.3300   23.6950   36.0260 C   0  0  0  0  0  0  0  0  0  0  0  0
   41.7100   22.7180   37.1170 C   0  0  1  0  0  0  0  0  0  0  0  0
   40.4120   22.0340   37.5180 C   0  0  0  0  0  0  0  0  0  0  0  0
   39.4550   23.2060   37.3190 C   0  0  0  0  0  0  0  0  0  0  0  0
   37.8500   25.1450   35.6180 C   0  0  0  0  0  0  0  0  0  0  0  0
   39.2170   24.8850   35.4930 C   0  0  0  0  0  0  0  0  0  0  0  0
   40.0340   25.9030   34.9280 C   0  0  0  0  0  0  0  0  0  0  0  0
   39.4550   27.0590   34.5450 N   0  0  0  0  0  0  0  0  0  0  0  0
   38.1210   27.2800   34.6820 C   0  0  0  0  0  0  0  0  0  0  0  0
   37.3560   26.3140   35.2160 N   0  0  0  0  0  0  0  0  0  0  0  0
   42.7550   21.7740   36.7160 C   0  0  0  0  0  0  0  0  0  0  0  0
   43.8250   22.1920   35.9500 C   0  0  0  0  0  0  0  0  0  0  0  0
   44.8080   21.2750   35.5800 C   0  0  0  0  0  0  0  0  0  0  0  0
   44.6610   19.9800   36.0030 C   0  0  0  0  0  0  0  0  0  0  0  0
   43.6300   19.4940   36.7620 C   0  0  0  0  0  0  0  0  0  0  0  0
   42.6700   20.4370   37.1110 C   0  0  0  0  0  0  0  0  0  0  0  0
   39.5011   22.9288   35.1192 H   0  0  0  0  0  0  0  0  0  0  0  0
   41.8058   23.4109   35.0758 H   0  0  0  0  0  0  0  0  0  0  0  0
   41.6632   24.7157   36.2651 H   0  0  0  0  0  0  0  0  0  0  0  0
   42.1660   23.2415   37.9702 H   0  0  0  0  0  0  0  0  0  0  0  0
   40.1707   21.1875   36.8583 H   0  0  0  0  0  0  0  0  0  0  0  0
   40.4050   21.5818   38.5207 H   0  0  0  0  0  0  0  0  0  0  0  0
   39.6382   24.0117   38.0452 H   0  0  0  0  0  0  0  0  0  0  0  0
   38.3905   22.9666   37.4590 H   0  0  0  0  0  0  0  0  0  0  0  0
   37.1822   24.3842   36.0484 H   0  0  0  0  0  0  0  0  0  0  0  0
   41.1165   25.7503   34.8059 H   0  0  0  0  0  0  0  0  0  0  0  0
   37.6758   28.2333   34.3611 H   0  0  0  0  0  0  0  0  0  0  0  0
   43.9015   23.2427   35.6334 H   0  0  0  0  0  0  0  0  0  0  0  0
   45.6710   21.5804   34.9701 H   0  0  0  0  0  0  0  0  0  0  0  0
   45.4427   19.2654   35.7057 H   0  0  0  0  0  0  0  0  0  0  0  0
   43.5664   18.4403   37.0712 H   0  0  0  0  0  0  0  0  0  0  0  0
   41.8117   20.1184   37.7208 H   0  0  0  0  0  0  0  0  0  0  0  0
  1  2  1  0
  1  5  1  0
  2  3  1  0
  3  4  1  0
  5  4  1  0
  7  6  2  0
  7  1  1  0
  8  7  1  0
  9 10  1  0
  9  8  2  0
 10 11  2  0
 11  6  1  0
 12 17  1  0
 12  3  1  0
 13 12  2  0
 14 13  1  0
 14 15  2  0
 15 16  1  0
 16 17  2  0
  1 18  1  6
  2 19  1  0
  2 20  1  0
  3 21  1  1
  4 22  1  0
  4 23  1  0
  5 24  1  0
  5 25  1  0
  6 26  1  0
  8 27  1  0
 10 28  1  0
 13 29  1  0
 14 30  1  0
 15 31  1  0
 16 32  1  0
 17 33  1  0
M  ISO  8  18  13  19  13  20  13  21  13  22  13  23  13  24  13  25  13
M  ISO  8  26  14  27  14  28  14  29  14  30  14  31  14  32  14  33  14
M  END
>  <minimizedAffinity>  (1) 
-4.34633017

>  <minimizedRMSD>  (1) 
0.789181828

$$$$
