
     RDKit          3D

 39 42  0  0  1  0  0  0  0  0999 V2000
   37.2620   27.2480   34.0740 C   0  0  1  0  0  0  0  0  0  0  0  0
   38.5140   26.5180   33.7620 C   0  0  0  0  0  0  0  0  0  0  0  0
   39.3010   26.4410   35.0710 C   0  0  1  0  0  0  0  0  0  0  0  0
   38.2910   26.8920   36.1280 C   0  0  0  0  0  0  0  0  0  0  0  0
   37.6390   28.0300   35.3330 C   0  0  0  0  0  0  0  0  0  0  0  0
   39.8340   25.0970   35.3110 C   0  0  0  0  0  0  0  0  0  0  0  0
   39.1240   23.9940   35.6990 C   0  0  0  0  0  0  0  0  0  0  0  0
   39.6290   22.7320   35.9300 C   0  0  0  0  0  0  0  0  0  0  0  0
   40.9780   22.5350   35.7610 C   0  0  0  0  0  0  0  0  0  0  0  0
   41.7560   23.6030   35.3700 C   0  0  0  0  0  0  0  0  0  0  0  0
   43.1010   23.3330   35.2170 C   0  0  0  0  0  0  0  0  0  0  0  0
   43.9490   24.3460   34.8270 C   0  0  0  0  0  0  0  0  0  0  0  0
   43.4380   25.6070   34.5950 C   0  0  0  0  0  0  0  0  0  0  0  0
   42.0960   25.8220   34.7620 C   0  0  0  0  0  0  0  0  0  0  0  0
   41.1850   24.8620   35.1500 C   0  0  0  0  0  0  0  0  0  0  0  0
   35.5830   28.8790   33.1430 C   0  0  0  0  0  0  0  0  0  0  0  0
   36.7310   28.0970   33.0040 C   0  0  0  0  0  0  0  0  0  0  0  0
   37.4180   28.1130   31.7700 C   0  0  0  0  0  0  0  0  0  0  0  0
   36.9370   28.8860   30.7750 N   0  0  0  0  0  0  0  0  0  0  0  0
   35.8170   29.6400   30.9330 C   0  0  0  0  0  0  0  0  0  0  0  0
   35.1530   29.6280   32.1150 N   0  0  0  0  0  0  0  0  0  0  0  0
   36.4183   26.5554   34.2098 H   0  0  0  0  0  0  0  0  0  0  0  0
   38.2844   25.5067   33.3952 H   0  0  0  0  0  0  0  0  0  0  0  0
   39.0909   27.0291   32.9771 H   0  0  0  0  0  0  0  0  0  0  0  0
   40.2000   27.0749   35.0725 H   0  0  0  0  0  0  0  0  0  0  0  0
   37.5734   26.0984   36.3833 H   0  0  0  0  0  0  0  0  0  0  0  0
   38.7093   27.1669   37.1075 H   0  0  0  0  0  0  0  0  0  0  0  0
   38.3479   28.8432   35.1179 H   0  0  0  0  0  0  0  0  0  0  0  0
   36.8098   28.5480   35.8372 H   0  0  0  0  0  0  0  0  0  0  0  0
   38.0414   24.1273   35.8410 H   0  0  0  0  0  0  0  0  0  0  0  0
   38.9710   21.9070   36.2405 H   0  0  0  0  0  0  0  0  0  0  0  0
   41.4274   21.5460   35.9341 H   0  0  0  0  0  0  0  0  0  0  0  0
   43.4908   22.3215   35.4042 H   0  0  0  0  0  0  0  0  0  0  0  0
   45.0244   24.1516   34.7015 H   0  0  0  0  0  0  0  0  0  0  0  0
   44.0995   26.4277   34.2804 H   0  0  0  0  0  0  0  0  0  0  0  0
   41.7160   26.8367   34.5724 H   0  0  0  0  0  0  0  0  0  0  0  0
   35.0309   28.8816   34.0944 H   0  0  0  0  0  0  0  0  0  0  0  0
   38.3252   27.5084   31.6237 H   0  0  0  0  0  0  0  0  0  0  0  0
   35.4494   30.2598   30.1019 H   0  0  0  0  0  0  0  0  0  0  0  0
  1  5  1  0
  2  1  1  0
  2  3  1  0
  3  6  1  0
  3  4  1  0
  5  4  1  0
  6  7  2  0
  7  8  1  0
  9  8  2  0
 10  9  1  0
 11 10  2  0
 12 11  1  0
 13 14  1  0
 13 12  2  0
 14 15  2  0
 15  6  1  0
 15 10  1  0
 17 16  2  0
 17  1  1  0
 18 17  1  0
 19 20  1  0
 19 18  2  0
 20 21  2  0
 21 16  1  0
  1 22  1  1
  2 23  1  0
  2 24  1  0
  3 25  1  6
  4 26  1  0
  4 27  1  0
  5 28  1  0
  5 29  1  0
  7 30  1  0
  8 31  1  0
  9 32  1  0
 11 33  1  0
 12 34  1  0
 13 35  1  0
 14 36  1  0
 16 37  1  0
 18 38  1  0
 20 39  1  0
M  ISO  8  22  13  23  13  24  13  25  13  26  13  27  13  28  13  29  13
M  ISO  8  30  14  31  14  32  14  33  14  34  14  35  14  36  14  37  14
M  ISO  2  38  14  39  14
M  END
>  <minimizedAffinity>  (1) 
-5.19481611

>  <minimizedRMSD>  (1) 
5.70808125

$$$$
