
     RDKit          3D

 30 32  0  0  1  0  0  0  0  0999 V2000
   39.9000   23.6180   35.8740 C   0  0  1  0  0  0  0  0  0  0  0  0
   41.3920   23.6490   35.8620 C   0  0  0  0  0  0  0  0  0  0  0  0
   41.8310   22.6790   36.9600 C   0  0  1  0  0  0  0  0  0  0  0  0
   40.5640   21.9530   37.3480 C   0  0  0  0  0  0  0  0  0  0  0  0
   39.6090   23.1490   37.3020 C   0  0  0  0  0  0  0  0  0  0  0  0
   37.8830   25.1380   35.7450 C   0  0  0  0  0  0  0  0  0  0  0  0
   39.2410   24.8850   35.5440 C   0  0  0  0  0  0  0  0  0  0  0  0
   40.0380   25.9150   34.9740 C   0  0  0  0  0  0  0  0  0  0  0  0
   39.4470   27.0850   34.6550 N   0  0  0  0  0  0  0  0  0  0  0  0
   38.1200   27.2930   34.8680 C   0  0  0  0  0  0  0  0  0  0  0  0
   37.3710   26.3190   35.4060 N   0  0  0  0  0  0  0  0  0  0  0  0
   42.9190   21.8770   36.5730 C   0  0  0  0  0  0  0  0  0  0  0  0
   44.0970   22.2200   35.9610 C   0  0  0  0  0  0  0  0  0  0  0  0
   45.0640   21.3080   35.6490 C   0  0  0  0  0  0  0  0  0  0  0  0
   44.7170   19.9020   36.0370 C   0  0  0  0  0  0  0  0  0  0  0  0
   43.0050   20.1470   36.8090 S   0  0  0  0  0  0  0  0  0  0  0  0
   39.4945   22.9662   35.0862 H   0  0  0  0  0  0  0  0  0  0  0  0
   41.7752   23.3215   34.8843 H   0  0  0  0  0  0  0  0  0  0  0  0
   41.7800   24.6636   36.0355 H   0  0  0  0  0  0  0  0  0  0  0  0
   42.2533   23.1793   37.8440 H   0  0  0  0  0  0  0  0  0  0  0  0
   40.2911   21.1740   36.6209 H   0  0  0  0  0  0  0  0  0  0  0  0
   40.5973   21.3986   38.2975 H   0  0  0  0  0  0  0  0  0  0  0  0
   39.8663   23.9136   38.0498 H   0  0  0  0  0  0  0  0  0  0  0  0
   38.5552   22.9273   37.5262 H   0  0  0  0  0  0  0  0  0  0  0  0
   37.2371   24.3627   36.1828 H   0  0  0  0  0  0  0  0  0  0  0  0
   41.1127   25.7614   34.7970 H   0  0  0  0  0  0  0  0  0  0  0  0
   37.6625   28.2568   34.6000 H   0  0  0  0  0  0  0  0  0  0  0  0
   44.2707   23.2769   35.7102 H   0  0  0  0  0  0  0  0  0  0  0  0
   46.0102   21.5797   35.1583 H   0  0  0  0  0  0  0  0  0  0  0  0
   45.2994   18.9778   35.9081 H   0  0  0  0  0  0  0  0  0  0  0  0
  1  5  1  0
  2  1  1  0
  2  3  1  0
  3  4  1  0
  5  4  1  0
  7  6  2  0
  7  1  1  0
  8  7  1  0
  9 10  1  0
  9  8  2  0
 10 11  2  0
 11  6  1  0
 12 16  1  0
 12  3  1  0
 13 12  2  0
 14 13  1  0
 14 15  2  0
 15 16  1  0
  1 17  1  6
  2 18  1  0
  2 19  1  0
  3 20  1  1
  4 21  1  0
  4 22  1  0
  5 23  1  0
  5 24  1  0
  6 25  1  0
  8 26  1  0
 10 27  1  0
 13 28  1  0
 14 29  1  0
 15 30  1  0
M  ISO  8  17  13  18  13  19  13  20  13  21  13  22  13  23  13  24  13
M  ISO  6  25  14  26  14  27  14  28  14  29  14  30  14
M  END
>  <minimizedAffinity>  (1) 
-4.01498604

>  <minimizedRMSD>  (1) 
0.540647447

$$$$
