
     RDKit          3D

 30 32  0  0  1  0  0  0  0  0999 V2000
   41.9150   24.0620   34.8790 C   0  0  1  0  0  0  0  0  0  0  0  0
   41.3510   22.8680   35.5700 C   0  0  0  0  0  0  0  0  0  0  0  0
   39.8420   22.9430   35.3450 C   0  0  2  0  0  0  0  0  0  0  0  0
   39.6230   24.1090   34.4210 C   0  0  0  0  0  0  0  0  0  0  0  0
   40.7400   25.0310   34.8960 C   0  0  0  0  0  0  0  0  0  0  0  0
   43.8270   25.7140   34.9800 C   0  0  0  0  0  0  0  0  0  0  0  0
   43.1190   24.6270   35.4960 C   0  0  0  0  0  0  0  0  0  0  0  0
   43.6040   24.0220   36.6880 C   0  0  0  0  0  0  0  0  0  0  0  0
   44.7230   24.5240   37.2680 N   0  0  0  0  0  0  0  0  0  0  0  0
   45.3800   25.5860   36.7300 C   0  0  0  0  0  0  0  0  0  0  0  0
   44.9140   26.1520   35.6010 N   0  0  0  0  0  0  0  0  0  0  0  0
   39.2060   23.2840   36.6020 N   0  0  0  0  0  0  0  0  0  0  0  0
   38.0810   23.9650   36.8180 N   0  0  0  0  0  0  0  0  0  0  0  0
   37.8250   24.0710   38.1140 C   0  0  0  0  0  0  0  0  0  0  0  0
   38.8280   23.4300   38.8070 C   0  0  0  0  0  0  0  0  0  0  0  0
   39.6820   22.9450   37.8160 C   0  0  0  0  0  0  0  0  0  0  0  0
   42.2842   23.8144   33.8728 H   0  0  0  0  0  0  0  0  0  0  0  0
   41.7592   21.9436   35.1355 H   0  0  0  0  0  0  0  0  0  0  0  0
   41.6046   22.8575   36.6403 H   0  0  0  0  0  0  0  0  0  0  0  0
   39.4447   21.9960   34.9510 H   0  0  0  0  0  0  0  0  0  0  0  0
   38.6307   24.5622   34.5625 H   0  0  0  0  0  0  0  0  0  0  0  0
   39.6470   23.8636   33.3490 H   0  0  0  0  0  0  0  0  0  0  0  0
   40.5461   25.4185   35.9071 H   0  0  0  0  0  0  0  0  0  0  0  0
   40.8803   25.9370   34.2881 H   0  0  0  0  0  0  0  0  0  0  0  0
   43.4834   26.2070   34.0587 H   0  0  0  0  0  0  0  0  0  0  0  0
   43.0811   23.1621   37.1320 H   0  0  0  0  0  0  0  0  0  0  0  0
   46.2859   25.9799   37.2139 H   0  0  0  0  0  0  0  0  0  0  0  0
   36.9597   24.5832   38.5599 H   0  0  0  0  0  0  0  0  0  0  0  0
   38.9323   23.3242   39.8969 H   0  0  0  0  0  0  0  0  0  0  0  0
   40.6037   22.3729   37.9981 H   0  0  0  0  0  0  0  0  0  0  0  0
  1  5  1  0
  1  7  1  0
  1  2  1  0
  3  2  1  0
  3 12  1  0
  4  5  1  0
  4  3  1  0
  6  7  2  0
  6 11  1  0
  7  8  1  0
  8  9  2  0
 10  9  1  0
 11 10  2  0
 12 13  1  0
 12 16  1  0
 13 14  2  0
 14 15  1  0
 16 15  2  0
  1 17  1  6
  2 18  1  0
  2 19  1  0
  3 20  1  6
  4 21  1  0
  4 22  1  0
  5 23  1  0
  5 24  1  0
  6 25  1  0
  8 26  1  0
 10 27  1  0
 14 28  1  0
 15 29  1  0
 16 30  1  0
M  ISO  8  17  13  18  13  19  13  20  13  21  13  22  13  23  13  24  13
M  ISO  6  25  14  26  14  27  14  28  14  29  14  30  14
M  END
>  <minimizedAffinity>  (1) 
-4.16665363

>  <minimizedRMSD>  (1) 
4.78103399

$$$$
