
     RDKit          3D

 52 55  0  0  1  0  0  0  0  0999 V2000
   37.8560   21.5990   31.5510 N   0  0  0  0  0  0  0  0  0  0  0  0
   37.7270   22.7190   30.6580 C   0  0  0  0  0  0  0  0  0  0  0  0
   39.1320   22.9730   30.1170 C   0  0  0  0  0  0  0  0  0  0  0  0
   39.4240   21.8200   29.1950 C   0  0  0  0  0  0  0  0  0  0  0  0
   38.6060   20.6160   29.5540 C   0  0  0  0  0  0  0  0  0  0  0  0
   38.6240   20.4600   31.0840 C   0  0  1  0  0  0  0  0  0  0  0  0
   39.8410   22.7280   37.4330 C   0  0  0  0  0  0  0  0  0  0  0  0
   39.1610   23.4150   38.4240 C   0  0  0  0  0  0  0  0  0  0  0  0
   37.7930   23.5500   38.3080 C   0  0  0  0  0  0  0  0  0  0  0  0
   37.1640   23.0010   37.2230 N   0  0  0  0  0  0  0  0  0  0  0  0
   37.8510   22.3410   36.2810 C   0  0  0  0  0  0  0  0  0  0  0  0
   39.1920   22.2070   36.3910 N   0  0  0  0  0  0  0  0  0  0  0  0
   37.2090   21.7690   35.1560 N   0  0  0  0  0  0  0  0  0  0  0  0
   37.8190   21.9870   33.9920 C   0  0  0  0  0  0  0  0  0  0  0  0
   37.2980   21.4700   32.8410 C   0  0  0  0  0  0  0  0  0  0  0  0
   36.1270   20.7370   33.0080 C   0  0  0  0  0  0  0  0  0  0  0  0
   35.4440   20.1420   31.9170 N   0  0  0  0  0  0  0  0  0  0  0  0
   35.5250   20.5280   34.1940 N   0  0  0  0  0  0  0  0  0  0  0  0
   36.0800   21.0590   35.3080 C   0  0  0  0  0  0  0  0  0  0  0  0
   35.6160   20.9320   36.4560 O   0  0  0  0  0  0  0  0  0  0  0  0
   40.0050   20.2680   31.4570 C   0  0  0  0  0  0  0  0  0  0  0  0
   41.1210   20.8390   30.6480 C   0  0  0  0  0  0  0  0  0  0  0  0
   42.3540   20.8840   31.5740 C   0  0  0  0  0  0  0  0  0  0  0  0
   42.2550   22.1980   32.3520 C   0  0  0  0  0  0  0  0  0  0  0  0
   40.7740   22.4000   32.5810 C   0  0  0  0  0  0  0  0  0  0  0  0
   40.1800   21.0010   32.8130 C   0  0  0  0  0  0  0  0  0  0  0  0
   37.0364   22.4781   29.8364 H   0  0  0  0  0  0  0  0  0  0  0  0
   37.3203   23.6040   31.1693 H   0  0  0  0  0  0  0  0  0  0  0  0
   39.1651   23.9240   29.5652 H   0  0  0  0  0  0  0  0  0  0  0  0
   39.8734   23.0454   30.9264 H   0  0  0  0  0  0  0  0  0  0  0  0
   40.4911   21.5634   29.2687 H   0  0  0  0  0  0  0  0  0  0  0  0
   39.1667   22.1217   28.1689 H   0  0  0  0  0  0  0  0  0  0  0  0
   37.5714   20.7517   29.2059 H   0  0  0  0  0  0  0  0  0  0  0  0
   39.0234   19.7175   29.0760 H   0  0  0  0  0  0  0  0  0  0  0  0
   38.1451   19.5923   31.5613 H   0  0  0  0  0  0  0  0  0  0  0  0
   40.9322   22.6102   37.5061 H   0  0  0  0  0  0  0  0  0  0  0  0
   39.6985   23.8429   39.2831 H   0  0  0  0  0  0  0  0  0  0  0  0
   37.2173   24.0897   39.0744 H   0  0  0  0  0  0  0  0  0  0  0  0
   38.7425   22.5836   33.9583 H   0  0  0  0  0  0  0  0  0  0  0  0
   34.5795   19.6066   32.0808 H   0  0  0  0  0  0  0  0  0  0  0  0
   35.8124   20.2452   30.9607 H   0  0  0  0  0  0  0  0  0  0  0  0
   40.1111   19.1761   31.3759 H   0  0  0  0  0  0  0  0  0  0  0  0
   41.3238   20.2001   29.7758 H   0  0  0  0  0  0  0  0  0  0  0  0
   40.8682   21.8417   30.2728 H   0  0  0  0  0  0  0  0  0  0  0  0
   42.3426   20.0291   32.2661 H   0  0  0  0  0  0  0  0  0  0  0  0
   43.2899   20.8280   30.9988 H   0  0  0  0  0  0  0  0  0  0  0  0
   42.7886   22.1219   33.3109 H   0  0  0  0  0  0  0  0  0  0  0  0
   42.7096   23.0386   31.8073 H   0  0  0  0  0  0  0  0  0  0  0  0
   40.6080   23.0357   33.4632 H   0  0  0  0  0  0  0  0  0  0  0  0
   40.3005   22.8987   31.7225 H   0  0  0  0  0  0  0  0  0  0  0  0
   39.2004   21.0979   33.3039 H   0  0  0  0  0  0  0  0  0  0  0  0
   40.8615   20.4205   33.4522 H   0  0  0  0  0  0  0  0  0  0  0  0
  1 15  1  0
  2  1  1  0
  3  2  1  0
  4  5  1  0
  4  3  1  0
  5  6  1  0
  6 21  1  0
  6  1  1  0
  7  8  2  0
  9  8  1  0
 10  9  2  0
 11 12  2  0
 11 10  1  0
 12  7  1  0
 13 19  1  0
 13 11  1  0
 14 13  1  0
 15 16  1  0
 15 14  2  0
 16 18  2  0
 17 16  1  0
 18 19  1  0
 19 20  2  0
 21 26  1  0
 22 21  1  0
 22 23  1  0
 23 24  1  0
 24 25  1  0
 25 26  1  0
  2 27  1  0
  2 28  1  0
  3 29  1  0
  3 30  1  0
  4 31  1  0
  4 32  1  0
  5 33  1  0
  5 34  1  0
  6 35  1  6
  7 36  1  0
  8 37  1  0
  9 38  1  0
 14 39  1  0
 17 40  1  0
 17 41  1  0
 21 42  1  0
 22 43  1  0
 22 44  1  0
 23 45  1  0
 23 46  1  0
 24 47  1  0
 24 48  1  0
 25 49  1  0
 25 50  1  0
 26 51  1  0
 26 52  1  0
M  ISO  8  27  13  28  13  29  13  30  13  31  13  32  13  33  13  34  13
M  ISO  8  35  13  36  14  37  14  38  14  39  14  42  13  43  13  44  13
M  ISO  8  45  13  46  13  47  13  48  13  49  13  50  13  51  13  52  13
M  END
>  <minimizedAffinity>  (1) 
-5.19513178

>  <minimizedRMSD>  (1) 
0.177723438

$$$$
