
     RDKit          3D

 30 32  0  0  1  0  0  0  0  0999 V2000
   38.3120   24.1990   35.0550 C   0  0  1  0  0  0  0  0  0  0  0  0
   39.5740   23.7610   34.3880 C   0  0  0  0  0  0  0  0  0  0  0  0
   40.3280   22.9380   35.4270 C   0  0  2  0  0  0  0  0  0  0  0  0
   39.4090   22.8730   36.6350 C   0  0  0  0  0  0  0  0  0  0  0  0
   38.7210   24.2180   36.5270 C   0  0  0  0  0  0  0  0  0  0  0  0
   37.6800   26.5910   35.3880 C   0  0  0  0  0  0  0  0  0  0  0  0
   37.7860   25.4670   34.5710 C   0  0  0  0  0  0  0  0  0  0  0  0
   37.3450   25.5590   33.2420 C   0  0  0  0  0  0  0  0  0  0  0  0
   36.8290   26.7450   32.8080 N   0  0  0  0  0  0  0  0  0  0  0  0
   36.7380   27.8260   33.6320 C   0  0  0  0  0  0  0  0  0  0  0  0
   37.1650   27.7400   34.9200 N   0  0  0  0  0  0  0  0  0  0  0  0
   41.6040   23.5070   35.7530 N   0  0  0  0  0  0  0  0  0  0  0  0
   42.0610   24.5990   35.1020 C   0  0  0  0  0  0  0  0  0  0  0  0
   43.3060   24.8710   35.6670 C   0  0  0  0  0  0  0  0  0  0  0  0
   43.5860   23.9590   36.6370 N   0  0  0  0  0  0  0  0  0  0  0  0
   42.5350   23.1490   36.6630 C   0  0  0  0  0  0  0  0  0  0  0  0
   37.4625   23.5319   34.8468 H   0  0  0  0  0  0  0  0  0  0  0  0
   39.3470   23.1470   33.5040 H   0  0  0  0  0  0  0  0  0  0  0  0
   40.1684   24.6194   34.0419 H   0  0  0  0  0  0  0  0  0  0  0  0
   40.5639   21.9342   35.0439 H   0  0  0  0  0  0  0  0  0  0  0  0
   38.6923   22.0422   36.5565 H   0  0  0  0  0  0  0  0  0  0  0  0
   39.9203   22.6938   37.5923 H   0  0  0  0  0  0  0  0  0  0  0  0
   39.4104   25.0464   36.7470 H   0  0  0  0  0  0  0  0  0  0  0  0
   37.8911   24.3683   37.2332 H   0  0  0  0  0  0  0  0  0  0  0  0
   38.0232   26.5365   36.4317 H   0  0  0  0  0  0  0  0  0  0  0  0
   37.4138   24.6944   32.5655 H   0  0  0  0  0  0  0  0  0  0  0  0
   36.3183   28.7702   33.2546 H   0  0  0  0  0  0  0  0  0  0  0  0
   41.5578   25.1551   34.2973 H   0  0  0  0  0  0  0  0  0  0  0  0
   43.9650   25.7008   35.3720 H   0  0  0  0  0  0  0  0  0  0  0  0
   42.4346   22.2904   37.3432 H   0  0  0  0  0  0  0  0  0  0  0  0
  1  5  1  0
  2  1  1  0
  2  3  1  0
  3 12  1  0
  3  4  1  0
  5  4  1  0
  7  1  1  0
  7  6  2  0
  8  7  1  0
  9  8  2  0
  9 10  1  0
 10 11  2  0
 11  6  1  0
 12 16  1  0
 13 14  2  0
 13 12  1  0
 14 15  1  0
 15 16  2  0
  1 17  1  1
  2 18  1  0
  2 19  1  0
  3 20  1  6
  4 21  1  0
  4 22  1  0
  5 23  1  0
  5 24  1  0
  6 25  1  0
  8 26  1  0
 10 27  1  0
 13 28  1  0
 14 29  1  0
 16 30  1  0
M  ISO  8  17  13  18  13  19  13  20  13  21  13  22  13  23  13  24  13
M  ISO  6  25  14  26  14  27  14  28  14  29  14  30  14
M  END
>  <minimizedAffinity>  (1) 
-3.80331135

>  <minimizedRMSD>  (1) 
2.69198346

$$$$
