
     RDKit          3D

 29 31  0  0  1  0  0  0  0  0999 V2000
   39.9630   23.5770   35.8890 C   0  0  1  0  0  0  0  0  0  0  0  0
   41.4520   23.6520   35.9340 C   0  0  0  0  0  0  0  0  0  0  0  0
   41.8880   22.6530   36.9960 C   0  0  1  0  0  0  0  0  0  0  0  0
   40.6240   21.9700   37.4510 C   0  0  0  0  0  0  0  0  0  0  0  0
   39.6440   23.1380   37.3200 C   0  0  0  0  0  0  0  0  0  0  0  0
   37.9390   25.0530   35.6810 C   0  0  0  0  0  0  0  0  0  0  0  0
   39.3090   24.8300   35.5180 C   0  0  0  0  0  0  0  0  0  0  0  0
   40.1000   25.8700   34.9530 C   0  0  0  0  0  0  0  0  0  0  0  0
   39.4920   27.0330   34.5980 N   0  0  0  0  0  0  0  0  0  0  0  0
   38.1560   27.2030   34.7760 C   0  0  0  0  0  0  0  0  0  0  0  0
   37.3990   26.2280   35.3090 N   0  0  0  0  0  0  0  0  0  0  0  0
   42.8880   21.7360   36.4870 N   0  0  0  0  0  0  0  0  0  0  0  0
   42.9100   20.3810   36.6100 C   0  0  0  0  0  0  0  0  0  0  0  0
   44.0140   19.8680   35.9990 N   0  0  0  0  0  0  0  0  0  0  0  0
   44.6670   20.9550   35.4990 C   0  0  0  0  0  0  0  0  0  0  0  0
   43.9790   22.0670   35.8000 N   0  0  0  0  0  0  0  0  0  0  0  0
   39.5881   22.8969   35.1099 H   0  0  0  0  0  0  0  0  0  0  0  0
   41.8784   23.3820   34.9566 H   0  0  0  0  0  0  0  0  0  0  0  0
   41.7982   24.6691   36.1699 H   0  0  0  0  0  0  0  0  0  0  0  0
   42.3838   23.1424   37.8473 H   0  0  0  0  0  0  0  0  0  0  0  0
   40.3520   21.1306   36.7942 H   0  0  0  0  0  0  0  0  0  0  0  0
   40.6736   21.5104   38.4492 H   0  0  0  0  0  0  0  0  0  0  0  0
   39.8543   23.9338   38.0497 H   0  0  0  0  0  0  0  0  0  0  0  0
   38.5896   22.8876   37.5086 H   0  0  0  0  0  0  0  0  0  0  0  0
   37.3018   24.2676   36.1136 H   0  0  0  0  0  0  0  0  0  0  0  0
   41.1818   25.7353   34.8065 H   0  0  0  0  0  0  0  0  0  0  0  0
   37.6865   28.1526   34.4796 H   0  0  0  0  0  0  0  0  0  0  0  0
   42.1451   19.7848   37.1290 H   0  0  0  0  0  0  0  0  0  0  0  0
   45.6115   20.9252   34.9360 H   0  0  0  0  0  0  0  0  0  0  0  0
  1  2  1  0
  1  5  1  0
  2  3  1  0
  3  4  1  0
  5  4  1  0
  7  6  2  0
  7  1  1  0
  8  7  1  0
  9 10  1  0
  9  8  2  0
 10 11  2  0
 11  6  1  0
 12 13  1  0
 12  3  1  0
 14 13  2  0
 15 16  2  0
 15 14  1  0
 16 12  1  0
  1 17  1  6
  2 18  1  0
  2 19  1  0
  3 20  1  1
  4 21  1  0
  4 22  1  0
  5 23  1  0
  5 24  1  0
  6 25  1  0
  8 26  1  0
 10 27  1  0
 13 28  1  0
 15 29  1  0
M  ISO  8  17  13  18  13  19  13  20  13  21  13  22  13  23  13  24  13
M  ISO  5  25  14  26  14  27  14  28  14  29  14
M  END
>  <minimizedAffinity>  (1) 
-3.67492843

>  <minimizedRMSD>  (1) 
0.648464918

$$$$
