
     RDKit          3D

 40 43  0  0  1  0  0  0  0  0999 V2000
   40.4880   24.0970   35.1960 C   0  0  1  0  0  0  0  0  0  0  0  0
   41.8790   24.5680   35.3160 C   0  0  0  0  0  0  0  0  0  0  0  0
   42.6420   23.4400   36.0380 C   0  0  1  0  0  0  0  0  0  0  0  0
   41.6720   22.3140   36.1720 C   0  0  0  0  0  0  0  0  0  0  0  0
   40.3830   23.1110   36.3840 C   0  0  0  0  0  0  0  0  0  0  0  0
   38.0960   24.8360   35.3250 C   0  0  0  0  0  0  0  0  0  0  0  0
   39.4590   25.1150   35.2380 C   0  0  0  0  0  0  0  0  0  0  0  0
   39.8500   26.4700   35.1700 C   0  0  0  0  0  0  0  0  0  0  0  0
   38.9030   27.4490   35.1900 N   0  0  0  0  0  0  0  0  0  0  0  0
   37.5730   27.1290   35.2760 C   0  0  0  0  0  0  0  0  0  0  0  0
   37.1950   25.8310   35.3420 N   0  0  0  0  0  0  0  0  0  0  0  0
   43.8950   23.1120   35.3270 C   0  0  0  0  0  0  0  0  0  0  0  0
   43.9250   22.3890   34.1540 C   0  0  0  0  0  0  0  0  0  0  0  0
   45.2410   22.3180   33.8240 N   0  0  0  0  0  0  0  0  0  0  0  0
   45.9400   22.9920   34.7970 C   0  0  0  0  0  0  0  0  0  0  0  0
   45.0930   23.4990   35.7550 N   0  0  0  0  0  0  0  0  0  0  0  0
   45.5130   24.2420   36.8850 C   0  0  0  0  0  0  0  0  0  0  0  0
   46.7490   24.1370   37.4870 C   0  0  0  0  0  0  0  0  0  0  0  0
   47.0340   24.9230   38.5880 C   0  0  0  0  0  0  0  0  0  0  0  0
   46.1070   25.8080   39.0950 C   0  0  0  0  0  0  0  0  0  0  0  0
   44.8750   25.9240   38.5090 C   0  0  0  0  0  0  0  0  0  0  0  0
   44.5910   25.1480   37.4200 C   0  0  0  0  0  0  0  0  0  0  0  0
   40.3009   23.6613   34.2034 H   0  0  0  0  0  0  0  0  0  0  0  0
   42.3106   24.7462   34.3200 H   0  0  0  0  0  0  0  0  0  0  0  0
   41.9394   25.5169   35.8691 H   0  0  0  0  0  0  0  0  0  0  0  0
   42.9888   23.7258   37.0420 H   0  0  0  0  0  0  0  0  0  0  0  0
   41.6288   21.6996   35.2606 H   0  0  0  0  0  0  0  0  0  0  0  0
   41.9070   21.5867   36.9631 H   0  0  0  0  0  0  0  0  0  0  0  0
   40.3795   23.6344   37.3515 H   0  0  0  0  0  0  0  0  0  0  0  0
   39.4622   22.5099   36.4111 H   0  0  0  0  0  0  0  0  0  0  0  0
   37.7558   23.7914   35.3802 H   0  0  0  0  0  0  0  0  0  0  0  0
   40.9156   26.7342   35.1011 H   0  0  0  0  0  0  0  0  0  0  0  0
   36.8144   27.9254   35.2913 H   0  0  0  0  0  0  0  0  0  0  0  0
   43.0716   21.9633   33.6058 H   0  0  0  0  0  0  0  0  0  0  0  0
   47.0336   23.1104   34.8081 H   0  0  0  0  0  0  0  0  0  0  0  0
   47.5002   23.4354   37.0954 H   0  0  0  0  0  0  0  0  0  0  0  0
   48.0199   24.8405   39.0688 H   0  0  0  0  0  0  0  0  0  0  0  0
   46.3575   26.4225   39.9723 H   0  0  0  0  0  0  0  0  0  0  0  0
   44.1287   26.6275   38.9065 H   0  0  0  0  0  0  0  0  0  0  0  0
   43.6019   25.2392   36.9474 H   0  0  0  0  0  0  0  0  0  0  0  0
  1  7  1  0
  1  2  1  0
  1  5  1  0
  2  3  1  0
  3  4  1  0
  4  5  1  0
  6 11  2  0
  7  6  1  0
  8  9  1  0
  8  7  2  0
  9 10  2  0
 10 11  1  0
 12 16  1  0
 12  3  1  0
 13 12  2  0
 14 13  1  0
 14 15  2  0
 15 16  1  0
 16 17  1  0
 17 22  1  0
 17 18  2  0
 18 19  1  0
 19 20  2  0
 21 20  1  0
 22 21  2  0
  1 23  1  6
  2 24  1  0
  2 25  1  0
  3 26  1  1
  4 27  1  0
  4 28  1  0
  5 29  1  0
  5 30  1  0
  6 31  1  0
  8 32  1  0
 10 33  1  0
 13 34  1  0
 15 35  1  0
 18 36  1  0
 19 37  1  0
 20 38  1  0
 21 39  1  0
 22 40  1  0
M  ISO  8  23  13  24  13  25  13  26  13  27  13  28  13  29  13  30  13
M  ISO  8  31  14  32  14  33  14  34  14  35  14  36  14  37  14  38  14
M  ISO  2  39  14  40  14
M  END
>  <minimizedAffinity>  (1) 
-5.27452278

>  <minimizedRMSD>  (1) 
2.22045135

$$$$
