
     RDKit          3D

 46 49  0  0  1  0  0  0  0  0999 V2000
   39.9970   23.6960   35.7780 C   0  0  1  0  0  0  0  0  0  0  0  0
   41.4590   23.8580   35.8090 C   0  0  0  0  0  0  0  0  0  0  0  0
   41.9570   22.8630   36.8790 C   0  0  1  0  0  0  0  0  0  0  0  0
   40.7640   22.0570   37.2790 C   0  0  0  0  0  0  0  0  0  0  0  0
   39.6840   23.1360   37.1820 C   0  0  0  0  0  0  0  0  0  0  0  0
   37.8650   24.9960   35.6450 C   0  0  0  0  0  0  0  0  0  0  0  0
   39.2410   24.8950   35.4860 C   0  0  0  0  0  0  0  0  0  0  0  0
   39.9130   26.0210   34.9970 C   0  0  0  0  0  0  0  0  0  0  0  0
   39.2180   27.1560   34.6980 N   0  0  0  0  0  0  0  0  0  0  0  0
   37.8780   27.2170   34.8670 C   0  0  0  0  0  0  0  0  0  0  0  0
   37.2180   26.1320   35.3400 N   0  0  0  0  0  0  0  0  0  0  0  0
   43.1050   22.0800   36.3890 C   0  0  0  0  0  0  0  0  0  0  0  0
   43.0530   20.7270   36.1410 C   0  0  0  0  0  0  0  0  0  0  0  0
   44.3060   20.4150   35.7030 N   0  0  0  0  0  0  0  0  0  0  0  0
   45.0500   21.5750   35.7070 C   0  0  0  0  0  0  0  0  0  0  0  0
   44.2910   22.6350   36.1420 N   0  0  0  0  0  0  0  0  0  0  0  0
   44.8480   23.9420   36.2340 C   0  0  0  0  0  0  0  0  0  0  0  0
   46.3610   23.9740   36.1800 C   0  0  0  0  0  0  0  0  0  0  0  0
   46.9940   24.3030   37.5110 C   0  0  0  0  0  0  0  0  0  0  0  0
   46.6850   25.7290   37.8550 C   0  0  0  0  0  0  0  0  0  0  0  0
   45.1770   25.8970   37.7110 C   0  0  0  0  0  0  0  0  0  0  0  0
   44.4860   24.5730   37.5880 C   0  0  0  0  0  0  0  0  0  0  0  0
   39.6915   23.0409   34.9488 H   0  0  0  0  0  0  0  0  0  0  0  0
   41.8941   23.6180   34.8276 H   0  0  0  0  0  0  0  0  0  0  0  0
   41.7519   24.8921   36.0430 H   0  0  0  0  0  0  0  0  0  0  0  0
   42.3594   23.3648   37.7713 H   0  0  0  0  0  0  0  0  0  0  0  0
   40.5778   21.2266   36.5821 H   0  0  0  0  0  0  0  0  0  0  0  0
   40.8420   21.5602   38.2573 H   0  0  0  0  0  0  0  0  0  0  0  0
   39.7997   23.9019   37.9630 H   0  0  0  0  0  0  0  0  0  0  0  0
   38.6536   22.7766   37.3203 H   0  0  0  0  0  0  0  0  0  0  0  0
   37.2979   24.1338   36.0258 H   0  0  0  0  0  0  0  0  0  0  0  0
   41.0032   25.9907   34.8536 H   0  0  0  0  0  0  0  0  0  0  0  0
   37.3288   28.1383   34.6230 H   0  0  0  0  0  0  0  0  0  0  0  0
   42.1948   20.0506   36.2675 H   0  0  0  0  0  0  0  0  0  0  0  0
   46.1052   21.6431   35.4040 H   0  0  0  0  0  0  0  0  0  0  0  0
   44.4352   24.4812   35.3686 H   0  0  0  0  0  0  0  0  0  0  0  0
   46.7208   22.9864   35.8557 H   0  0  0  0  0  0  0  0  0  0  0  0
   46.6475   24.7683   35.4750 H   0  0  0  0  0  0  0  0  0  0  0  0
   46.5871   23.6390   38.2879 H   0  0  0  0  0  0  0  0  0  0  0  0
   48.0832   24.1610   37.4515 H   0  0  0  0  0  0  0  0  0  0  0  0
   46.9936   25.9452   38.8885 H   0  0  0  0  0  0  0  0  0  0  0  0
   47.2254   26.4218   37.1933 H   0  0  0  0  0  0  0  0  0  0  0  0
   44.7896   26.4214   38.5970 H   0  0  0  0  0  0  0  0  0  0  0  0
   44.9800   26.4753   36.7963 H   0  0  0  0  0  0  0  0  0  0  0  0
   43.3973   24.7185   37.6475 H   0  0  0  0  0  0  0  0  0  0  0  0
   44.8073   23.9095   38.4044 H   0  0  0  0  0  0  0  0  0  0  0  0
  1  2  1  0
  1  5  1  0
  2  3  1  0
  3  4  1  0
  5  4  1  0
  7  6  2  0
  7  1  1  0
  8  7  1  0
  9 10  1  0
  9  8  2  0
 10 11  2  0
 11  6  1  0
 12  3  1  0
 13 12  2  0
 14 15  2  0
 14 13  1  0
 15 16  1  0
 16 17  1  0
 16 12  1  0
 17 22  1  0
 18 17  1  0
 18 19  1  0
 19 20  1  0
 21 20  1  0
 22 21  1  0
  1 23  1  6
  2 24  1  0
  2 25  1  0
  3 26  1  1
  4 27  1  0
  4 28  1  0
  5 29  1  0
  5 30  1  0
  6 31  1  0
  8 32  1  0
 10 33  1  0
 13 34  1  0
 15 35  1  0
 17 36  1  0
 18 37  1  0
 18 38  1  0
 19 39  1  0
 19 40  1  0
 20 41  1  0
 20 42  1  0
 21 43  1  0
 21 44  1  0
 22 45  1  0
 22 46  1  0
M  ISO  8  23  13  24  13  25  13  26  13  27  13  28  13  29  13  30  13
M  ISO  8  31  14  32  14  33  14  34  14  35  14  36  13  37  13  38  13
M  ISO  8  39  13  40  13  41  13  42  13  43  13  44  13  45  13  46  13
M  END
>  <minimizedAffinity>  (1) 
-5.11862183

>  <minimizedRMSD>  (1) 
1.23442996

$$$$
