
     RDKit          3D

 43 46  0  0  1  0  0  0  0  0999 V2000
   37.9450   22.7820   31.3150 N   0  0  0  0  0  0  0  0  0  0  0  0
   37.5040   23.9080   30.5140 C   0  0  0  0  0  0  0  0  0  0  0  0
   38.7740   24.6660   30.1290 C   0  0  0  0  0  0  0  0  0  0  0  0
   39.4780   23.7900   29.1130 C   0  0  0  0  0  0  0  0  0  0  0  0
   39.1110   22.3450   29.2850 C   0  0  0  0  0  0  0  0  0  0  0  0
   39.0790   22.0640   30.7790 C   0  0  2  0  0  0  0  0  0  0  0  0
   39.9090   22.7780   37.3260 C   0  0  0  0  0  0  0  0  0  0  0  0
   39.1620   23.1810   38.4430 C   0  0  0  0  0  0  0  0  0  0  0  0
   37.7890   23.2150   38.3280 C   0  0  0  0  0  0  0  0  0  0  0  0
   37.2110   22.8570   37.1390 N   0  0  0  0  0  0  0  0  0  0  0  0
   37.9570   22.4770   36.0900 C   0  0  0  0  0  0  0  0  0  0  0  0
   39.3080   22.4380   36.1900 N   0  0  0  0  0  0  0  0  0  0  0  0
   37.3720   22.1050   34.8620 N   0  0  0  0  0  0  0  0  0  0  0  0
   37.9560   22.6390   33.7720 C   0  0  0  0  0  0  0  0  0  0  0  0
   37.4200   22.3040   32.5320 C   0  0  0  0  0  0  0  0  0  0  0  0
   36.3360   21.4560   32.5270 C   0  0  0  0  0  0  0  0  0  0  0  0
   35.7070   21.0600   31.3280 N   0  0  0  0  0  0  0  0  0  0  0  0
   35.7950   20.9540   33.6360 N   0  0  0  0  0  0  0  0  0  0  0  0
   36.3100   21.2730   34.8470 C   0  0  0  0  0  0  0  0  0  0  0  0
   35.8720   20.8530   35.9330 O   0  0  0  0  0  0  0  0  0  0  0  0
   39.2160   20.6700   31.1130 C   0  0  0  0  0  0  0  0  0  0  0  0
   38.7610   19.6750   30.2320 C   0  0  0  0  0  0  0  0  0  0  0  0
   38.9880   18.4430   30.7190 N   0  0  0  0  0  0  0  0  0  0  0  0
   39.5870   18.5830   31.9130 C   0  0  0  0  0  0  0  0  0  0  0  0
   39.6990   19.9070   32.1000 N   0  0  0  0  0  0  0  0  0  0  0  0
   36.9799   23.5558   29.6133 H   0  0  0  0  0  0  0  0  0  0  0  0
   36.8014   24.5486   31.0672 H   0  0  0  0  0  0  0  0  0  0  0  0
   38.5204   25.6404   29.6860 H   0  0  0  0  0  0  0  0  0  0  0  0
   39.4097   24.8667   31.0040 H   0  0  0  0  0  0  0  0  0  0  0  0
   40.5653   23.9001   29.2384 H   0  0  0  0  0  0  0  0  0  0  0  0
   39.1658   24.1082   28.1074 H   0  0  0  0  0  0  0  0  0  0  0  0
   38.1219   22.1523   28.8440 H   0  0  0  0  0  0  0  0  0  0  0  0
   39.8405   21.6942   28.7808 H   0  0  0  0  0  0  0  0  0  0  0  0
   39.9752   22.4481   31.2881 H   0  0  0  0  0  0  0  0  0  0  0  0
   41.0065   22.7429   37.3910 H   0  0  0  0  0  0  0  0  0  0  0  0
   39.6580   23.4619   39.3838 H   0  0  0  0  0  0  0  0  0  0  0  0
   37.1658   23.5255   39.1796 H   0  0  0  0  0  0  0  0  0  0  0  0
   38.8214   23.3125   33.8584 H   0  0  0  0  0  0  0  0  0  0  0  0
   34.8973   20.4240   31.3569 H   0  0  0  0  0  0  0  0  0  0  0  0
   36.0574   21.4069   30.4237 H   0  0  0  0  0  0  0  0  0  0  0  0
   38.2791   19.8787   29.2644 H   0  0  0  0  0  0  0  0  0  0  0  0
   39.9157   17.7829   32.5926 H   0  0  0  0  0  0  0  0  0  0  0  0
   40.1278   20.3086   32.9460 H   0  0  0  0  0  0  0  0  0  0  0  0
  1 15  1  0
  2  1  1  0
  3  2  1  0
  4  5  1  0
  4  3  1  0
  5  6  1  0
  6 21  1  0
  6  1  1  0
  7  8  2  0
  9  8  1  0
 10  9  2  0
 11 12  2  0
 11 10  1  0
 12  7  1  0
 13 11  1  0
 14 13  1  0
 15 14  2  0
 16 15  1  0
 16 18  2  0
 17 16  1  0
 18 19  1  0
 19 13  1  0
 19 20  2  0
 21 25  1  0
 22 23  1  0
 22 21  2  0
 23 24  2  0
 24 25  1  0
  2 26  1  0
  2 27  1  0
  3 28  1  0
  3 29  1  0
  4 30  1  0
  4 31  1  0
  5 32  1  0
  5 33  1  0
  6 34  1  1
  7 35  1  0
  8 36  1  0
  9 37  1  0
 14 38  1  0
 17 39  1  0
 17 40  1  0
 22 41  1  0
 24 42  1  0
 25 43  1  0
M  ISO  8  26  13  27  13  28  13  29  13  30  13  31  13  32  13  33  13
M  ISO  8  34  13  35  14  36  14  37  14  38  14  41  14  42  14  43   9
M  END
>  <minimizedAffinity>  (1) 
-5.1392684

>  <minimizedRMSD>  (1) 
1.24591792

$$$$
