
     RDKit          3D

 37 40  0  0  1  0  0  0  0  0999 V2000
   39.9550   23.6630   35.8350 C   0  0  1  0  0  0  0  0  0  0  0  0
   41.4240   23.7760   35.8480 C   0  0  0  0  0  0  0  0  0  0  0  0
   41.8910   22.7610   36.9170 C   0  0  1  0  0  0  0  0  0  0  0  0
   40.6750   22.0180   37.3510 C   0  0  0  0  0  0  0  0  0  0  0  0
   39.6460   23.1530   37.2640 C   0  0  0  0  0  0  0  0  0  0  0  0
   37.8610   25.0270   35.6670 C   0  0  0  0  0  0  0  0  0  0  0  0
   39.2320   24.8770   35.5170 C   0  0  0  0  0  0  0  0  0  0  0  0
   39.9500   25.9800   35.0100 C   0  0  0  0  0  0  0  0  0  0  0  0
   39.2900   27.1280   34.6910 N   0  0  0  0  0  0  0  0  0  0  0  0
   37.9350   27.2200   34.8600 C   0  0  0  0  0  0  0  0  0  0  0  0
   37.2340   26.1510   35.3520 N   0  0  0  0  0  0  0  0  0  0  0  0
   43.0080   21.9490   36.4330 C   0  0  0  0  0  0  0  0  0  0  0  0
   42.9080   20.5940   36.2110 C   0  0  0  0  0  0  0  0  0  0  0  0
   44.1460   20.2340   35.7660 N   0  0  0  0  0  0  0  0  0  0  0  0
   44.9290   21.3640   35.7360 C   0  0  0  0  0  0  0  0  0  0  0  0
   44.2090   22.4610   36.1600 N   0  0  0  0  0  0  0  0  0  0  0  0
   44.6510   23.7830   36.2700 C   0  0  0  0  0  0  0  0  0  0  0  0
   44.9030   24.5630   37.3360 C   0  0  0  0  0  0  0  0  0  0  0  0
   45.3310   25.8340   37.1950 C   0  0  0  0  0  0  0  0  0  0  0  0
   45.4940   26.2830   35.8430 C   0  0  0  0  0  0  0  0  0  0  0  0
   45.0010   24.7820   34.7900 S   0  0  0  0  0  0  0  0  0  0  0  0
   39.6164   22.9983   35.0266 H   0  0  0  0  0  0  0  0  0  0  0  0
   41.8407   23.5198   34.8627 H   0  0  0  0  0  0  0  0  0  0  0  0
   41.7589   24.7992   36.0738 H   0  0  0  0  0  0  0  0  0  0  0  0
   42.3228   23.2442   37.8058 H   0  0  0  0  0  0  0  0  0  0  0  0
   40.4331   21.1905   36.6678 H   0  0  0  0  0  0  0  0  0  0  0  0
   40.7501   21.5259   38.3319 H   0  0  0  0  0  0  0  0  0  0  0  0
   39.8234   23.9279   38.0243 H   0  0  0  0  0  0  0  0  0  0  0  0
   38.6020   22.8553   37.4411 H   0  0  0  0  0  0  0  0  0  0  0  0
   37.2744   24.1840   36.0609 H   0  0  0  0  0  0  0  0  0  0  0  0
   41.0394   25.9134   34.8727 H   0  0  0  0  0  0  0  0  0  0  0  0
   37.4096   28.1511   34.6011 H   0  0  0  0  0  0  0  0  0  0  0  0
   42.0296   19.9486   36.3589 H   0  0  0  0  0  0  0  0  0  0  0  0
   45.9818   21.3893   35.4184 H   0  0  0  0  0  0  0  0  0  0  0  0
   44.7566   24.1547   38.3468 H   0  0  0  0  0  0  0  0  0  0  0  0
   45.5408   26.4823   38.0585 H   0  0  0  0  0  0  0  0  0  0  0  0
   45.8284   27.2716   35.4952 H   0  0  0  0  0  0  0  0  0  0  0  0
  1  2  1  0
  1  5  1  0
  2  3  1  0
  3  4  1  0
  5  4  1  0
  7  6  2  0
  7  1  1  0
  8  7  1  0
  9 10  1  0
  9  8  2  0
 10 11  2  0
 11  6  1  0
 12  3  1  0
 13 12  2  0
 14 13  1  0
 15 14  2  0
 15 16  1  0
 16 17  1  0
 16 12  1  0
 17 18  2  0
 19 18  1  0
 20 19  2  0
 21 20  1  0
 21 17  1  0
  1 22  1  6
  2 23  1  0
  2 24  1  0
  3 25  1  1
  4 26  1  0
  4 27  1  0
  5 28  1  0
  5 29  1  0
  6 30  1  0
  8 31  1  0
 10 32  1  0
 13 33  1  0
 15 34  1  0
 18 35  1  0
 19 36  1  0
 20 37  1  0
M  ISO  8  22  13  23  13  24  13  25  13  26  13  27  13  28  13  29  13
M  ISO  8  30  14  31  14  32  14  33  14  34  14  35  14  36  14  37  14
M  END
>  <minimizedAffinity>  (1) 
-4.77894306

>  <minimizedRMSD>  (1) 
0.662589312

$$$$
