
     RDKit          3D

 45 48  0  0  1  0  0  0  0  0999 V2000
   39.9270   23.6550   35.8600 C   0  0  1  0  0  0  0  0  0  0  0  0
   41.3950   23.7840   35.7630 C   0  0  0  0  0  0  0  0  0  0  0  0
   41.9580   22.8500   36.8490 C   0  0  1  0  0  0  0  0  0  0  0  0
   40.7800   22.1350   37.4320 C   0  0  0  0  0  0  0  0  0  0  0  0
   39.7450   23.2640   37.3500 C   0  0  0  0  0  0  0  0  0  0  0  0
   37.8090   24.9880   35.6990 C   0  0  0  0  0  0  0  0  0  0  0  0
   39.1790   24.8530   35.5240 C   0  0  0  0  0  0  0  0  0  0  0  0
   39.8720   25.9520   34.9670 C   0  0  0  0  0  0  0  0  0  0  0  0
   39.1940   27.0910   34.6260 N   0  0  0  0  0  0  0  0  0  0  0  0
   37.8400   27.1670   34.8210 C   0  0  0  0  0  0  0  0  0  0  0  0
   37.1650   26.1010   35.3610 N   0  0  0  0  0  0  0  0  0  0  0  0
   43.0210   21.9770   36.3250 C   0  0  0  0  0  0  0  0  0  0  0  0
   42.8400   20.6450   36.0290 C   0  0  0  0  0  0  0  0  0  0  0  0
   44.0540   20.2350   35.5710 N   0  0  0  0  0  0  0  0  0  0  0  0
   44.9070   21.3130   35.6060 C   0  0  0  0  0  0  0  0  0  0  0  0
   44.2530   22.4190   36.0860 N   0  0  0  0  0  0  0  0  0  0  0  0
   45.3220   26.3330   36.3090 N   0  0  0  0  0  0  0  0  0  0  0  0
   44.4550   25.8970   35.2490 C   0  0  0  0  0  0  0  0  0  0  0  0
   44.6730   24.4520   34.9250 C   0  0  0  0  0  0  0  0  0  0  0  0
   44.9390   23.6600   36.2150 C   0  0  0  0  0  0  0  0  0  0  0  0
   44.2670   24.4570   37.3320 C   0  0  0  0  0  0  0  0  0  0  0  0
   44.9770   25.7480   37.5930 C   0  0  0  0  0  0  0  0  0  0  0  0
   39.5308   22.9310   35.1328 H   0  0  0  0  0  0  0  0  0  0  0  0
   41.7442   23.4719   34.7677 H   0  0  0  0  0  0  0  0  0  0  0  0
   41.7254   24.8236   35.9050 H   0  0  0  0  0  0  0  0  0  0  0  0
   42.4714   23.4029   37.6495 H   0  0  0  0  0  0  0  0  0  0  0  0
   40.4873   21.2632   36.8285 H   0  0  0  0  0  0  0  0  0  0  0  0
   40.9352   21.7092   38.4343 H   0  0  0  0  0  0  0  0  0  0  0  0
   39.9882   24.0961   38.0271 H   0  0  0  0  0  0  0  0  0  0  0  0
   38.7215   22.9888   37.6445 H   0  0  0  0  0  0  0  0  0  0  0  0
   37.2399   24.1508   36.1294 H   0  0  0  0  0  0  0  0  0  0  0  0
   40.9587   25.8916   34.8073 H   0  0  0  0  0  0  0  0  0  0  0  0
   37.2945   28.0815   34.5450 H   0  0  0  0  0  0  0  0  0  0  0  0
   41.9227   20.0478   36.1379 H   0  0  0  0  0  0  0  0  0  0  0  0
   45.9616   21.2915   35.2941 H   0  0  0  0  0  0  0  0  0  0  0  0
   45.2580   27.3581   36.3863 H   0  0  0  0  0  0  0  0  0  0  0  0
   43.4096   26.0404   35.5598 H   0  0  0  0  0  0  0  0  0  0  0  0
   44.6801   26.4911   34.3510 H   0  0  0  0  0  0  0  0  0  0  0  0
   43.7771   24.0505   34.4289 H   0  0  0  0  0  0  0  0  0  0  0  0
   45.5420   24.3581   34.2572 H   0  0  0  0  0  0  0  0  0  0  0  0
   46.0095   23.4983   36.4095 H   0  0  0  0  0  0  0  0  0  0  0  0
   43.2286   24.6735   37.0408 H   0  0  0  0  0  0  0  0  0  0  0  0
   44.3003   23.8546   38.2518 H   0  0  0  0  0  0  0  0  0  0  0  0
   45.8905   25.5612   38.1766 H   0  0  0  0  0  0  0  0  0  0  0  0
   44.3330   26.4315   38.1658 H   0  0  0  0  0  0  0  0  0  0  0  0
  1  5  1  0
  2  1  1  0
  2  3  1  0
  3  4  1  0
  5  4  1  0
  7  6  2  0
  7  1  1  0
  8  7  1  0
  9 10  1  0
  9  8  2  0
 10 11  2  0
 11  6  1  0
 12  3  1  0
 13 12  2  0
 14 15  2  0
 14 13  1  0
 15 16  1  0
 16 20  1  0
 16 12  1  0
 17 22  1  0
 18 17  1  0
 19 18  1  0
 19 20  1  0
 20 21  1  0
 21 22  1  0
  1 23  1  6
  2 24  1  0
  2 25  1  0
  3 26  1  1
  4 27  1  0
  4 28  1  0
  5 29  1  0
  5 30  1  0
  6 31  1  0
  8 32  1  0
 10 33  1  0
 13 34  1  0
 15 35  1  0
 17 36  1  0
 18 37  1  0
 18 38  1  0
 19 39  1  0
 19 40  1  0
 20 41  1  0
 21 42  1  0
 21 43  1  0
 22 44  1  0
 22 45  1  0
M  ISO  8  23  13  24  13  25  13  26  13  27  13  28  13  29  13  30  13
M  ISO  8  31  14  32  14  33  14  34  14  35  14  36   5  37  13  38  13
M  ISO  7  39  13  40  13  41  13  42  13  43  13  44  13  45  13
M  END
>  <minimizedAffinity>  (1) 
-4.80120659

>  <minimizedRMSD>  (1) 
0.718647718

$$$$
