
     RDKit          3D

 38 41  0  0  1  0  0  0  0  0999 V2000
   40.0500   23.7000   35.7040 C   0  0  1  0  0  0  0  0  0  0  0  0
   41.5110   23.8730   35.6750 C   0  0  0  0  0  0  0  0  0  0  0  0
   42.0640   22.8280   36.6710 C   0  0  1  0  0  0  0  0  0  0  0  0
   40.8930   21.9870   37.0670 C   0  0  0  0  0  0  0  0  0  0  0  0
   39.8140   23.0760   37.1020 C   0  0  0  0  0  0  0  0  0  0  0  0
   37.8880   24.9600   35.6680 C   0  0  0  0  0  0  0  0  0  0  0  0
   39.2630   24.8980   35.5070 C   0  0  0  0  0  0  0  0  0  0  0  0
   39.9100   26.0680   35.1080 C   0  0  0  0  0  0  0  0  0  0  0  0
   39.2090   27.2220   34.8890 N   0  0  0  0  0  0  0  0  0  0  0  0
   37.8550   27.2330   35.0600 C   0  0  0  0  0  0  0  0  0  0  0  0
   37.2160   26.1000   35.4470 N   0  0  0  0  0  0  0  0  0  0  0  0
   43.1920   22.0810   36.0820 C   0  0  0  0  0  0  0  0  0  0  0  0
   43.0550   20.8820   35.4200 C   0  0  0  0  0  0  0  0  0  0  0  0
   44.3180   20.5550   35.0370 N   0  0  0  0  0  0  0  0  0  0  0  0
   45.1550   21.5560   35.4750 C   0  0  0  0  0  0  0  0  0  0  0  0
   44.4510   22.5290   36.1400 N   0  0  0  0  0  0  0  0  0  0  0  0
   45.0080   23.6970   36.7190 C   0  0  0  0  0  0  0  0  0  0  0  0
   46.4000   23.7480   36.6200 C   0  0  0  0  0  0  0  0  0  0  0  0
   47.1160   24.8120   37.1290 C   0  0  0  0  0  0  0  0  0  0  0  0
   46.4630   25.8160   37.7270 N   0  0  0  0  0  0  0  0  0  0  0  0
   45.1170   25.7510   37.8150 C   0  0  0  0  0  0  0  0  0  0  0  0
   44.3980   24.7240   37.3270 N   0  0  0  0  0  0  0  0  0  0  0  0
   39.7135   23.0842   34.8569 H   0  0  0  0  0  0  0  0  0  0  0  0
   41.9014   23.6860   34.6637 H   0  0  0  0  0  0  0  0  0  0  0  0
   41.8088   24.8966   35.9463 H   0  0  0  0  0  0  0  0  0  0  0  0
   42.5000   23.2829   37.5727 H   0  0  0  0  0  0  0  0  0  0  0  0
   40.6713   21.2110   36.3195 H   0  0  0  0  0  0  0  0  0  0  0  0
   41.0162   21.4140   37.9979 H   0  0  0  0  0  0  0  0  0  0  0  0
   39.9864   23.8009   37.9112 H   0  0  0  0  0  0  0  0  0  0  0  0
   38.7908   22.7207   37.2937 H   0  0  0  0  0  0  0  0  0  0  0  0
   37.3387   24.0602   35.9820 H   0  0  0  0  0  0  0  0  0  0  0  0
   41.0010   26.0623   34.9673 H   0  0  0  0  0  0  0  0  0  0  0  0
   37.2838   28.1566   34.8848 H   0  0  0  0  0  0  0  0  0  0  0  0
   42.1298   20.3147   35.2407 H   0  0  0  0  0  0  0  0  0  0  0  0
   46.2430   21.5740   35.3137 H   0  0  0  0  0  0  0  0  0  0  0  0
   46.9361   22.9239   36.1266 H   0  0  0  0  0  0  0  0  0  0  0  0
   48.2125   24.8350   37.0442 H   0  0  0  0  0  0  0  0  0  0  0  0
   44.5835   26.5765   38.3089 H   0  0  0  0  0  0  0  0  0  0  0  0
  1  5  1  0
  2  1  1  0
  2  3  1  0
  3  4  1  0
  4  5  1  0
  7  6  2  0
  7  1  1  0
  8  7  1  0
  9 10  1  0
  9  8  2  0
 10 11  2  0
 11  6  1  0
 12 16  1  0
 12  3  1  0
 13 12  2  0
 14 13  1  0
 14 15  2  0
 15 16  1  0
 16 17  1  0
 17 22  1  0
 18 17  2  0
 18 19  1  0
 19 20  2  0
 20 21  1  0
 22 21  2  0
  1 23  1  6
  2 24  1  0
  2 25  1  0
  3 26  1  1
  4 27  1  0
  4 28  1  0
  5 29  1  0
  5 30  1  0
  6 31  1  0
  8 32  1  0
 10 33  1  0
 13 34  1  0
 15 35  1  0
 18 36  1  0
 19 37  1  0
 21 38  1  0
M  ISO  8  23  13  24  13  25  13  26  13  27  13  28  13  29  13  30  13
M  ISO  8  31  14  32  14  33  14  34  14  35  14  36  14  37  14  38  14
M  END
>  <minimizedAffinity>  (1) 
-4.76388168

>  <minimizedRMSD>  (1) 
1.26263797

$$$$
