
     RDKit          3D

 43 46  0  0  1  0  0  0  0  0999 V2000
   39.8840   22.7650   37.3140 C   0  0  0  0  0  0  0  0  0  0  0  0
   39.1480   23.1680   38.4230 C   0  0  0  0  0  0  0  0  0  0  0  0
   37.7670   23.2030   38.3220 C   0  0  0  0  0  0  0  0  0  0  0  0
   37.1970   22.8410   37.1390 N   0  0  0  0  0  0  0  0  0  0  0  0
   37.9270   22.4560   36.0820 C   0  0  0  0  0  0  0  0  0  0  0  0
   39.2760   22.4200   36.1780 N   0  0  0  0  0  0  0  0  0  0  0  0
   37.3320   22.0810   34.8560 N   0  0  0  0  0  0  0  0  0  0  0  0
   37.9280   22.6060   33.7720 C   0  0  0  0  0  0  0  0  0  0  0  0
   37.3900   22.2760   32.5330 C   0  0  0  0  0  0  0  0  0  0  0  0
   36.2960   21.4430   32.5260 C   0  0  0  0  0  0  0  0  0  0  0  0
   35.6450   21.0480   31.3430 N   0  0  0  0  0  0  0  0  0  0  0  0
   35.7340   20.9430   33.6390 N   0  0  0  0  0  0  0  0  0  0  0  0
   36.2620   21.2660   34.8490 C   0  0  0  0  0  0  0  0  0  0  0  0
   35.8200   20.8570   35.9370 O   0  0  0  0  0  0  0  0  0  0  0  0
   37.9120   22.7360   31.3000 N   0  0  0  0  0  0  0  0  0  0  0  0
   37.4800   23.8760   30.5130 C   0  0  0  0  0  0  0  0  0  0  0  0
   38.7780   24.6020   30.1230 C   0  0  0  0  0  0  0  0  0  0  0  0
   39.4410   23.7140   29.0890 C   0  0  0  0  0  0  0  0  0  0  0  0
   39.0280   22.2820   29.2580 C   0  0  0  0  0  0  0  0  0  0  0  0
   39.0170   21.9730   30.7520 C   0  0  2  0  0  0  0  0  0  0  0  0
   39.1590   20.6240   31.0070 C   0  0  0  0  0  0  0  0  0  0  0  0
   39.7480   19.8300   31.9420 C   0  0  0  0  0  0  0  0  0  0  0  0
   39.7220   18.4760   31.9630 C   0  0  0  0  0  0  0  0  0  0  0  0
   38.9610   17.8900   30.8260 C   0  0  0  0  0  0  0  0  0  0  0  0
   38.3490   19.3640   29.8250 S   0  0  0  0  0  0  0  0  0  0  0  0
   40.9818   22.7303   37.3744 H   0  0  0  0  0  0  0  0  0  0  0  0
   39.6510   23.4525   39.3590 H   0  0  0  0  0  0  0  0  0  0  0  0
   37.1466   23.5151   39.1751 H   0  0  0  0  0  0  0  0  0  0  0  0
   38.8025   23.2673   33.8609 H   0  0  0  0  0  0  0  0  0  0  0  0
   34.8284   20.4219   31.3889 H   0  0  0  0  0  0  0  0  0  0  0  0
   35.9849   21.3849   30.4310 H   0  0  0  0  0  0  0  0  0  0  0  0
   36.9378   23.5436   29.6155 H   0  0  0  0  0  0  0  0  0  0  0  0
   36.7925   24.5282   31.0715 H   0  0  0  0  0  0  0  0  0  0  0  0
   38.5526   25.5897   29.6944 H   0  0  0  0  0  0  0  0  0  0  0  0
   39.4287   24.7724   30.9934 H   0  0  0  0  0  0  0  0  0  0  0  0
   40.5329   23.7879   29.1999 H   0  0  0  0  0  0  0  0  0  0  0  0
   39.1287   24.0507   28.0894 H   0  0  0  0  0  0  0  0  0  0  0  0
   38.0231   22.1302   28.8371 H   0  0  0  0  0  0  0  0  0  0  0  0
   39.7282   21.6156   28.7330 H   0  0  0  0  0  0  0  0  0  0  0  0
   39.8993   22.3098   31.3160 H   0  0  0  0  0  0  0  0  0  0  0  0
   40.2943   20.3329   32.7536 H   0  0  0  0  0  0  0  0  0  0  0  0
   40.2127   17.8717   32.7402 H   0  0  0  0  0  0  0  0  0  0  0  0
   38.7920   16.8237   30.6151 H   0  0  0  0  0  0  0  0  0  0  0  0
  1  2  2  0
  3  2  1  0
  4  3  2  0
  5  6  2  0
  5  4  1  0
  6  1  1  0
  7  5  1  0
  8  7  1  0
  9  8  2  0
 10  9  1  0
 10 12  2  0
 11 10  1  0
 12 13  1  0
 13  7  1  0
 13 14  2  0
 15  9  1  0
 16 15  1  0
 17 16  1  0
 18 19  1  0
 18 17  1  0
 19 20  1  0
 20 21  1  0
 20 15  1  0
 21 22  2  0
 22 23  1  0
 24 23  2  0
 25 24  1  0
 25 21  1  0
  1 26  1  0
  2 27  1  0
  3 28  1  0
  8 29  1  0
 11 30  1  0
 11 31  1  0
 16 32  1  0
 16 33  1  0
 17 34  1  0
 17 35  1  0
 18 36  1  0
 18 37  1  0
 19 38  1  0
 19 39  1  0
 20 40  1  1
 22 41  1  0
 23 42  1  0
 24 43  1  0
M  ISO  8  26  14  27  14  28  14  29  14  32  13  33  13  34  13  35  13
M  ISO  8  36  13  37  13  38  13  39  13  40  13  41  14  42  14  43  14
M  END
>  <minimizedAffinity>  (1) 
-5.13630772

>  <minimizedRMSD>  (1) 
1.19963264

$$$$
