
     RDKit          3D

 37 40  0  0  1  0  0  0  0  0999 V2000
   39.9630   23.7020   35.8070 C   0  0  1  0  0  0  0  0  0  0  0  0
   41.4240   23.8580   35.8670 C   0  0  0  0  0  0  0  0  0  0  0  0
   41.8990   22.8230   36.9080 C   0  0  1  0  0  0  0  0  0  0  0  0
   40.6970   22.0120   37.2660 C   0  0  0  0  0  0  0  0  0  0  0  0
   39.6280   23.1030   37.1900 C   0  0  0  0  0  0  0  0  0  0  0  0
   37.8250   25.0050   35.6780 C   0  0  0  0  0  0  0  0  0  0  0  0
   39.2110   24.9100   35.5310 C   0  0  0  0  0  0  0  0  0  0  0  0
   39.9080   26.0500   35.0770 C   0  0  0  0  0  0  0  0  0  0  0  0
   39.2170   27.1860   34.8020 N   0  0  0  0  0  0  0  0  0  0  0  0
   37.8640   27.2420   34.9580 C   0  0  0  0  0  0  0  0  0  0  0  0
   37.1850   26.1470   35.3950 N   0  0  0  0  0  0  0  0  0  0  0  0
   43.0400   22.0500   36.4220 C   0  0  0  0  0  0  0  0  0  0  0  0
   42.9990   20.7090   36.1110 C   0  0  0  0  0  0  0  0  0  0  0  0
   44.2560   20.4080   35.6950 N   0  0  0  0  0  0  0  0  0  0  0  0
   45.0120   21.5580   35.7650 C   0  0  0  0  0  0  0  0  0  0  0  0
   44.2520   22.6110   36.2250 N   0  0  0  0  0  0  0  0  0  0  0  0
   44.6940   23.9250   36.4200 C   0  0  0  0  0  0  0  0  0  0  0  0
   45.0210   24.7010   35.3160 C   0  0  0  0  0  0  0  0  0  0  0  0
   45.4100   25.9030   35.7510 N   0  0  0  0  0  0  0  0  0  0  0  0
   45.3220   25.8570   37.0960 C   0  0  0  0  0  0  0  0  0  0  0  0
   44.8870   24.6620   37.5280 N   0  0  0  0  0  0  0  0  0  0  0  0
   39.6686   23.0720   34.9547 H   0  0  0  0  0  0  0  0  0  0  0  0
   41.8746   23.6520   34.8849 H   0  0  0  0  0  0  0  0  0  0  0  0
   41.7172   24.8819   36.1420 H   0  0  0  0  0  0  0  0  0  0  0  0
   42.2926   23.2988   37.8183 H   0  0  0  0  0  0  0  0  0  0  0  0
   40.5140   21.2063   36.5399 H   0  0  0  0  0  0  0  0  0  0  0  0
   40.7584   21.4814   38.2276 H   0  0  0  0  0  0  0  0  0  0  0  0
   39.7414   23.8438   37.9952 H   0  0  0  0  0  0  0  0  0  0  0  0
   38.5928   22.7494   37.3059 H   0  0  0  0  0  0  0  0  0  0  0  0
   37.2537   24.1333   36.0296 H   0  0  0  0  0  0  0  0  0  0  0  0
   40.9999   26.0186   34.9472 H   0  0  0  0  0  0  0  0  0  0  0  0
   37.3216   28.1716   34.7308 H   0  0  0  0  0  0  0  0  0  0  0  0
   42.1365   20.0302   36.1837 H   0  0  0  0  0  0  0  0  0  0  0  0
   46.0753   21.6258   35.4914 H   0  0  0  0  0  0  0  0  0  0  0  0
   44.9688   24.3814   34.2647 H   0  0  0  0  0  0  0  0  0  0  0  0
   45.5759   26.6970   37.7593 H   0  0  0  0  0  0  0  0  0  0  0  0
   44.7334   24.3709   38.5040 H   0  0  0  0  0  0  0  0  0  0  0  0
  1  2  1  0
  1  5  1  0
  2  3  1  0
  3  4  1  0
  5  4  1  0
  7  6  2  0
  7  1  1  0
  8  7  1  0
  9 10  1  0
  9  8  2  0
 10 11  2  0
 11  6  1  0
 12  3  1  0
 13 12  2  0
 14 15  2  0
 14 13  1  0
 15 16  1  0
 16 17  1  0
 16 12  1  0
 17 21  1  0
 18 19  1  0
 18 17  2  0
 19 20  2  0
 20 21  1  0
  1 22  1  6
  2 23  1  0
  2 24  1  0
  3 25  1  1
  4 26  1  0
  4 27  1  0
  5 28  1  0
  5 29  1  0
  6 30  1  0
  8 31  1  0
 10 32  1  0
 13 33  1  0
 15 34  1  0
 18 35  1  0
 20 36  1  0
 21 37  1  0
M  ISO  8  22  13  23  13  24  13  25  13  26  13  27  13  28  13  29  13
M  ISO  8  30  14  31  14  32  14  33  14  34  14  35  14  36  14  37   9
M  END
>  <minimizedAffinity>  (1) 
-4.56509781

>  <minimizedRMSD>  (1) 
0.892020047

$$$$
