
     RDKit          3D

 39 41  0  0  1  0  0  0  0  0999 V2000
   39.9540   23.6270   35.8530 C   0  0  1  0  0  0  0  0  0  0  0  0
   41.4250   23.7510   35.8940 C   0  0  0  0  0  0  0  0  0  0  0  0
   41.8830   22.7500   36.9630 C   0  0  1  0  0  0  0  0  0  0  0  0
   40.6510   22.0180   37.3970 C   0  0  0  0  0  0  0  0  0  0  0  0
   39.6520   23.1800   37.3060 C   0  0  0  0  0  0  0  0  0  0  0  0
   37.8780   25.0210   35.6580 C   0  0  0  0  0  0  0  0  0  0  0  0
   39.2470   24.8480   35.5080 C   0  0  0  0  0  0  0  0  0  0  0  0
   39.9760   25.9280   34.9690 C   0  0  0  0  0  0  0  0  0  0  0  0
   39.3370   27.0830   34.6170 N   0  0  0  0  0  0  0  0  0  0  0  0
   37.9830   27.1980   34.7870 C   0  0  0  0  0  0  0  0  0  0  0  0
   37.2700   26.1510   35.3110 N   0  0  0  0  0  0  0  0  0  0  0  0
   42.9860   21.9040   36.4890 C   0  0  0  0  0  0  0  0  0  0  0  0
   42.9410   20.5310   36.5060 C   0  0  0  0  0  0  0  0  0  0  0  0
   44.1430   20.1390   35.9830 N   0  0  0  0  0  0  0  0  0  0  0  0
   44.8480   21.2830   35.6780 C   0  0  0  0  0  0  0  0  0  0  0  0
   44.1180   22.4020   35.9960 N   0  0  0  0  0  0  0  0  0  0  0  0
   44.6390   23.7080   35.7740 C   0  0  0  0  0  0  0  0  0  0  0  0
   45.9820   23.6070   35.0500 C   0  0  0  0  0  0  0  0  0  0  0  0
   44.9700   24.3390   37.1310 C   0  0  0  0  0  0  0  0  0  0  0  0
   39.6137   22.9385   35.0655 H   0  0  0  0  0  0  0  0  0  0  0  0
   41.8609   23.4978   34.9163 H   0  0  0  0  0  0  0  0  0  0  0  0
   41.7449   24.7772   36.1275 H   0  0  0  0  0  0  0  0  0  0  0  0
   42.3275   23.2453   37.8389 H   0  0  0  0  0  0  0  0  0  0  0  0
   40.3944   21.1962   36.7123 H   0  0  0  0  0  0  0  0  0  0  0  0
   40.7126   21.5164   38.3741 H   0  0  0  0  0  0  0  0  0  0  0  0
   39.8696   23.9723   38.0374 H   0  0  0  0  0  0  0  0  0  0  0  0
   38.6032   22.9270   37.5204 H   0  0  0  0  0  0  0  0  0  0  0  0
   37.2786   24.1989   36.0763 H   0  0  0  0  0  0  0  0  0  0  0  0
   41.0638   25.8401   34.8314 H   0  0  0  0  0  0  0  0  0  0  0  0
   37.4688   28.1283   34.5038 H   0  0  0  0  0  0  0  0  0  0  0  0
   42.1210   19.8895   36.8611 H   0  0  0  0  0  0  0  0  0  0  0  0
   45.8569   21.2979   35.2400 H   0  0  0  0  0  0  0  0  0  0  0  0
   43.9015   24.2871   35.1990 H   0  0  0  0  0  0  0  0  0  0  0  0
   46.7937   23.5460   35.7899 H   0  0  0  0  0  0  0  0  0  0  0  0
   45.9919   22.7056   34.4197 H   0  0  0  0  0  0  0  0  0  0  0  0
   46.1266   24.4968   34.4197 H   0  0  0  0  0  0  0  0  0  0  0  0
   44.6226   23.6768   37.9378 H   0  0  0  0  0  0  0  0  0  0  0  0
   46.0578   24.4793   37.2146 H   0  0  0  0  0  0  0  0  0  0  0  0
   44.4671   25.3137   37.2146 H   0  0  0  0  0  0  0  0  0  0  0  0
  1  2  1  0
  1  5  1  0
  2  3  1  0
  3  4  1  0
  5  4  1  0
  7  6  2  0
  7  1  1  0
  8  7  1  0
  9 10  1  0
  9  8  2  0
 10 11  2  0
 11  6  1  0
 12 13  2  0
 12  3  1  0
 14 13  1  0
 15 14  2  0
 15 16  1  0
 16 12  1  0
 17 16  1  0
 17 19  1  0
 18 17  1  0
  1 20  1  6
  2 21  1  0
  2 22  1  0
  3 23  1  1
  4 24  1  0
  4 25  1  0
  5 26  1  0
  5 27  1  0
  6 28  1  0
  8 29  1  0
 10 30  1  0
 13 31  1  0
 15 32  1  0
 17 33  1  0
 18 34  1  0
 18 35  1  0
 18 36  1  0
 19 37  1  0
 19 38  1  0
 19 39  1  0
M  ISO  8  20  13  21  13  22  13  23  13  24  13  25  13  26  13  27  13
M  ISO  8  28  14  29  14  30  14  31  14  32  14  33   8  34   8  35   8
M  ISO  4  36   8  37   8  38   8  39   8
M  END
>  <minimizedAffinity>  (1) 
-4.13521814

>  <minimizedRMSD>  (1) 
0.239779875

$$$$
