
     RDKit          3D

 46 49  0  0  1  0  0  0  0  0999 V2000
   37.9990   22.9320   31.2440 N   0  0  0  0  0  0  0  0  0  0  0  0
   37.5270   24.0560   30.4540 C   0  0  0  0  0  0  0  0  0  0  0  0
   38.7680   24.8650   30.0990 C   0  0  0  0  0  0  0  0  0  0  0  0
   39.5220   24.0440   29.0870 C   0  0  0  0  0  0  0  0  0  0  0  0
   39.2080   22.5770   29.2200 C   0  0  0  0  0  0  0  0  0  0  0  0
   39.1430   22.2340   30.6960 C   0  0  2  0  0  0  0  0  0  0  0  0
   39.9860   22.6970   37.2440 C   0  0  0  0  0  0  0  0  0  0  0  0
   39.2590   23.0820   38.3670 C   0  0  0  0  0  0  0  0  0  0  0  0
   37.8660   23.1560   38.2680 C   0  0  0  0  0  0  0  0  0  0  0  0
   37.2810   22.8450   37.0690 N   0  0  0  0  0  0  0  0  0  0  0  0
   38.0210   22.4770   36.0050 C   0  0  0  0  0  0  0  0  0  0  0  0
   39.3700   22.4050   36.0990 N   0  0  0  0  0  0  0  0  0  0  0  0
   37.4170   22.1540   34.7670 N   0  0  0  0  0  0  0  0  0  0  0  0
   38.0160   22.7210   33.7030 C   0  0  0  0  0  0  0  0  0  0  0  0
   37.4880   22.4430   32.4540 C   0  0  0  0  0  0  0  0  0  0  0  0
   36.3800   21.6000   32.4180 C   0  0  0  0  0  0  0  0  0  0  0  0
   35.7350   21.2310   31.2200 N   0  0  0  0  0  0  0  0  0  0  0  0
   35.8280   21.0650   33.5190 N   0  0  0  0  0  0  0  0  0  0  0  0
   36.3540   21.3430   34.7350 C   0  0  0  0  0  0  0  0  0  0  0  0
   35.9100   20.8940   35.8070 O   0  0  0  0  0  0  0  0  0  0  0  0
   39.1600   20.7960   30.9310 C   0  0  0  0  0  0  0  0  0  0  0  0
   38.5240   19.9990   29.9650 C   0  0  0  0  0  0  0  0  0  0  0  0
   38.4550   18.6380   29.9980 C   0  0  0  0  0  0  0  0  0  0  0  0
   39.0390   17.9480   31.0390 C   0  0  0  0  0  0  0  0  0  0  0  0
   39.6830   18.6690   32.0240 C   0  0  0  0  0  0  0  0  0  0  0  0
   39.7060   20.0400   31.9130 C   0  0  0  0  0  0  0  0  0  0  0  0
   37.0281   23.6995   29.5407 H   0  0  0  0  0  0  0  0  0  0  0  0
   36.7946   24.6611   31.0085 H   0  0  0  0  0  0  0  0  0  0  0  0
   38.4813   25.8352   29.6672 H   0  0  0  0  0  0  0  0  0  0  0  0
   39.3819   25.0727   30.9878 H   0  0  0  0  0  0  0  0  0  0  0  0
   40.6012   24.1934   29.2385 H   0  0  0  0  0  0  0  0  0  0  0  0
   39.2178   24.3717   28.0820 H   0  0  0  0  0  0  0  0  0  0  0  0
   38.2400   22.3596   28.7450 H   0  0  0  0  0  0  0  0  0  0  0  0
   39.9867   21.9772   28.7262 H   0  0  0  0  0  0  0  0  0  0  0  0
   40.0440   22.5752   31.2268 H   0  0  0  0  0  0  0  0  0  0  0  0
   41.0826   22.6330   37.3025 H   0  0  0  0  0  0  0  0  0  0  0  0
   39.7690   23.3227   39.3114 H   0  0  0  0  0  0  0  0  0  0  0  0
   37.2550   23.4566   39.1319 H   0  0  0  0  0  0  0  0  0  0  0  0
   38.8898   23.3787   33.8214 H   0  0  0  0  0  0  0  0  0  0  0  0
   34.9182   20.6041   31.2468 H   0  0  0  0  0  0  0  0  0  0  0  0
   36.0805   21.5883   30.3179 H   0  0  0  0  0  0  0  0  0  0  0  0
   38.0454   20.5119   29.1177 H   0  0  0  0  0  0  0  0  0  0  0  0
   37.9352   18.0921   29.1969 H   0  0  0  0  0  0  0  0  0  0  0  0
   38.9928   16.8499   31.0834 H   0  0  0  0  0  0  0  0  0  0  0  0
   40.1641   18.1620   32.8734 H   0  0  0  0  0  0  0  0  0  0  0  0
   40.2277   20.5847   32.7137 H   0  0  0  0  0  0  0  0  0  0  0  0
  1 15  1  0
  2  1  1  0
  3  2  1  0
  4  5  1  0
  4  3  1  0
  5  6  1  0
  6 21  1  0
  6  1  1  0
  7  8  2  0
  9  8  1  0
 10  9  2  0
 11 12  2  0
 11 10  1  0
 12  7  1  0
 13 11  1  0
 14 13  1  0
 15 14  2  0
 16 15  1  0
 16 18  2  0
 17 16  1  0
 18 19  1  0
 19 13  1  0
 19 20  2  0
 21 26  2  0
 22 23  2  0
 22 21  1  0
 23 24  1  0
 24 25  2  0
 26 25  1  0
  2 27  1  0
  2 28  1  0
  3 29  1  0
  3 30  1  0
  4 31  1  0
  4 32  1  0
  5 33  1  0
  5 34  1  0
  6 35  1  1
  7 36  1  0
  8 37  1  0
  9 38  1  0
 14 39  1  0
 17 40  1  0
 17 41  1  0
 22 42  1  0
 23 43  1  0
 24 44  1  0
 25 45  1  0
 26 46  1  0
M  ISO  8  27  13  28  13  29  13  30  13  31  13  32  13  33  13  34  13
M  ISO  8  35  13  36  14  37  14  38  14  39  14  42  14  43  14  44  14
M  ISO  2  45  14  46  14
M  END
>  <minimizedAffinity>  (1) 
-5.1307416

>  <minimizedRMSD>  (1) 
1.47532368

$$$$
