
     RDKit          3D

 46 49  0  0  1  0  0  0  0  0999 V2000
   39.9560   23.6450   35.8490 C   0  0  1  0  0  0  0  0  0  0  0  0
   41.4150   23.7310   35.8530 C   0  0  0  0  0  0  0  0  0  0  0  0
   41.8770   22.7470   36.9590 C   0  0  1  0  0  0  0  0  0  0  0  0
   40.6370   22.0240   37.3710 C   0  0  0  0  0  0  0  0  0  0  0  0
   39.6710   23.2360   37.3380 C   0  0  0  0  0  0  0  0  0  0  0  0
   37.8740   25.0170   35.6480 C   0  0  0  0  0  0  0  0  0  0  0  0
   39.2390   24.8460   35.4960 C   0  0  0  0  0  0  0  0  0  0  0  0
   39.9690   25.9240   34.9350 C   0  0  0  0  0  0  0  0  0  0  0  0
   39.3330   27.0770   34.5670 N   0  0  0  0  0  0  0  0  0  0  0  0
   37.9790   27.1870   34.7430 C   0  0  0  0  0  0  0  0  0  0  0  0
   37.2710   26.1450   35.2850 N   0  0  0  0  0  0  0  0  0  0  0  0
   42.9810   21.9200   36.4930 C   0  0  0  0  0  0  0  0  0  0  0  0
   42.9200   20.5350   36.5000 C   0  0  0  0  0  0  0  0  0  0  0  0
   44.1230   20.1320   35.9860 N   0  0  0  0  0  0  0  0  0  0  0  0
   44.8390   21.2770   35.6990 C   0  0  0  0  0  0  0  0  0  0  0  0
   44.1120   22.4070   36.0200 N   0  0  0  0  0  0  0  0  0  0  0  0
   44.6620   23.6830   35.8030 C   0  0  2  0  0  0  0  0  0  0  0  0
   46.0980   23.5900   35.2710 C   0  0  0  0  0  0  0  0  0  0  0  0
   44.7380   24.4350   37.1160 C   0  0  0  0  0  0  0  0  0  0  0  0
   46.1260   24.6240   37.6440 C   0  0  0  0  0  0  0  0  0  0  0  0
   46.6520   25.9860   37.9380 C   0  0  0  0  0  0  0  0  0  0  0  0
   46.1510   25.2260   39.0810 C   0  0  0  0  0  0  0  0  0  0  0  0
   39.6041   22.9507   35.0717 H   0  0  0  0  0  0  0  0  0  0  0  0
   41.8218   23.4316   34.8758 H   0  0  0  0  0  0  0  0  0  0  0  0
   41.7660   24.7562   36.0419 H   0  0  0  0  0  0  0  0  0  0  0  0
   42.3097   23.2354   37.8446 H   0  0  0  0  0  0  0  0  0  0  0  0
   40.3509   21.2416   36.6526 H   0  0  0  0  0  0  0  0  0  0  0  0
   40.6898   21.4701   38.3199 H   0  0  0  0  0  0  0  0  0  0  0  0
   39.9528   24.0218   38.0544 H   0  0  0  0  0  0  0  0  0  0  0  0
   38.6225   23.0453   37.6105 H   0  0  0  0  0  0  0  0  0  0  0  0
   37.2746   24.2014   36.0788 H   0  0  0  0  0  0  0  0  0  0  0  0
   41.0561   25.8321   34.7946 H   0  0  0  0  0  0  0  0  0  0  0  0
   37.4595   28.1112   34.4496 H   0  0  0  0  0  0  0  0  0  0  0  0
   42.0892   19.9006   36.8426 H   0  0  0  0  0  0  0  0  0  0  0  0
   45.8526   21.2880   35.2719 H   0  0  0  0  0  0  0  0  0  0  0  0
   44.0174   24.1939   35.0726 H   0  0  0  0  0  0  0  0  0  0  0  0
   46.8001   23.5445   36.1166 H   0  0  0  0  0  0  0  0  0  0  0  0
   46.2037   22.6831   34.6575 H   0  0  0  0  0  0  0  0  0  0  0  0
   46.3198   24.4757   34.6575 H   0  0  0  0  0  0  0  0  0  0  0  0
   44.2879   25.4280   36.9697 H   0  0  0  0  0  0  0  0  0  0  0  0
   44.2018   23.8246   37.8575 H   0  0  0  0  0  0  0  0  0  0  0  0
   46.5325   23.7682   37.0852 H   0  0  0  0  0  0  0  0  0  0  0  0
   47.7315   26.1780   37.8494 H   0  0  0  0  0  0  0  0  0  0  0  0
   46.4257   26.9854   37.5381 H   0  0  0  0  0  0  0  0  0  0  0  0
   45.2125   25.5216   39.5728 H   0  0  0  0  0  0  0  0  0  0  0  0
   46.5583   24.9144   40.0541 H   0  0  0  0  0  0  0  0  0  0  0  0
  1  2  1  0
  1  5  1  0
  2  3  1  0
  3  4  1  0
  5  4  1  0
  7  6  2  0
  7  1  1  0
  8  7  1  0
  9 10  1  0
  9  8  2  0
 10 11  2  0
 11  6  1  0
 12 13  2  0
 12  3  1  0
 14 13  1  0
 15 14  2  0
 15 16  1  0
 16 12  1  0
 17 16  1  0
 17 19  1  0
 18 17  1  0
 19 20  1  0
 20 21  1  0
 20 22  1  0
 21 22  1  0
  1 23  1  6
  2 24  1  0
  2 25  1  0
  3 26  1  1
  4 27  1  0
  4 28  1  0
  5 29  1  0
  5 30  1  0
  6 31  1  0
  8 32  1  0
 10 33  1  0
 13 34  1  0
 15 35  1  0
 17 36  1  6
 18 37  1  0
 18 38  1  0
 18 39  1  0
 19 40  1  0
 19 41  1  0
 20 42  1  0
 21 43  1  0
 21 44  1  0
 22 45  1  0
 22 46  1  0
M  ISO  8  23  13  24  13  25  13  26  13  27  13  28  13  29  13  30  13
M  ISO  8  31  14  32  14  33  14  34  14  35  14  36   8  37   8  38   8
M  ISO  8  39   8  40   8  41   8  42  13  43  13  44  13  45  13  46  13
M  END
>  <minimizedAffinity>  (1) 
-4.8365798

>  <minimizedRMSD>  (1) 
1.02329743

$$$$
