
     RDKit          3D

 43 46  0  0  1  0  0  0  0  0999 V2000
   39.8670   22.7470   37.4610 C   0  0  0  0  0  0  0  0  0  0  0  0
   39.1810   23.3190   38.5240 C   0  0  0  0  0  0  0  0  0  0  0  0
   37.8020   23.4130   38.4370 C   0  0  0  0  0  0  0  0  0  0  0  0
   37.1820   22.9420   37.3140 N   0  0  0  0  0  0  0  0  0  0  0  0
   37.8880   22.3870   36.2930 C   0  0  0  0  0  0  0  0  0  0  0  0
   39.2170   22.2990   36.3830 N   0  0  0  0  0  0  0  0  0  0  0  0
   37.2380   21.8980   35.1300 N   0  0  0  0  0  0  0  0  0  0  0  0
   37.8180   22.2700   33.9800 C   0  0  0  0  0  0  0  0  0  0  0  0
   37.2600   21.8460   32.7990 C   0  0  0  0  0  0  0  0  0  0  0  0
   36.1240   21.0570   32.9130 C   0  0  0  0  0  0  0  0  0  0  0  0
   35.4390   20.5450   31.7800 N   0  0  0  0  0  0  0  0  0  0  0  0
   35.5800   20.7100   34.0900 N   0  0  0  0  0  0  0  0  0  0  0  0
   36.1460   21.1390   35.2380 C   0  0  0  0  0  0  0  0  0  0  0  0
   35.7130   20.8700   36.3770 O   0  0  0  0  0  0  0  0  0  0  0  0
   37.7590   22.1580   31.5150 N   0  0  0  0  0  0  0  0  0  0  0  0
   37.3160   23.1230   30.5680 C   0  0  0  0  0  0  0  0  0  0  0  0
   38.5820   23.8350   30.0820 C   0  0  0  0  0  0  0  0  0  0  0  0
   39.3120   22.8220   29.2100 C   0  0  0  0  0  0  0  0  0  0  0  0
   38.9580   21.4000   29.5940 C   0  0  0  0  0  0  0  0  0  0  0  0
   38.9190   21.3550   31.1010 C   0  0  2  0  0  0  0  0  0  0  0  0
   38.8840   19.9720   31.6660 C   0  0  0  0  0  0  0  0  0  0  0  0
   40.2480   19.4450   32.0820 C   0  0  0  0  0  0  0  0  0  0  0  0
   39.4600   18.8020   30.9570 C   0  0  0  0  0  0  0  0  0  0  0  0
   40.9627   22.6613   37.5070 H   0  0  0  0  0  0  0  0  0  0  0  0
   39.7179   23.6873   39.4106 H   0  0  0  0  0  0  0  0  0  0  0  0
   37.2174   23.8580   39.2557 H   0  0  0  0  0  0  0  0  0  0  0  0
   38.7197   22.9001   33.9823 H   0  0  0  0  0  0  0  0  0  0  0  0
   34.5988   19.9627   31.9059 H   0  0  0  0  0  0  0  0  0  0  0  0
   35.7822   20.7558   30.8320 H   0  0  0  0  0  0  0  0  0  0  0  0
   36.8061   22.6299   29.7273 H   0  0  0  0  0  0  0  0  0  0  0  0
   36.5974   23.8280   31.0113 H   0  0  0  0  0  0  0  0  0  0  0  0
   38.3194   24.7279   29.4956 H   0  0  0  0  0  0  0  0  0  0  0  0
   39.2063   24.1741   30.9218 H   0  0  0  0  0  0  0  0  0  0  0  0
   40.3963   22.9646   29.3282 H   0  0  0  0  0  0  0  0  0  0  0  0
   39.0069   22.9831   28.1655 H   0  0  0  0  0  0  0  0  0  0  0  0
   37.9750   21.1293   29.1811 H   0  0  0  0  0  0  0  0  0  0  0  0
   39.6953   20.6874   29.1958 H   0  0  0  0  0  0  0  0  0  0  0  0
   39.8541   21.7705   31.5047 H   0  0  0  0  0  0  0  0  0  0  0  0
   37.8895   20.1311   32.1084 H   0  0  0  0  0  0  0  0  0  0  0  0
   41.1567   20.0243   31.8613 H   0  0  0  0  0  0  0  0  0  0  0  0
   40.7041   19.0981   33.0209 H   0  0  0  0  0  0  0  0  0  0  0  0
   39.0186   17.8044   31.0982 H   0  0  0  0  0  0  0  0  0  0  0  0
   39.6707   18.5635   29.9040 H   0  0  0  0  0  0  0  0  0  0  0  0
  1  2  2  0
  3  2  1  0
  4  3  2  0
  5  6  2  0
  5  4  1  0
  6  1  1  0
  7 13  1  0
  7  5  1  0
  8  7  1  0
  9 10  1  0
  9  8  2  0
 10 12  2  0
 11 10  1  0
 12 13  1  0
 13 14  2  0
 15  9  1  0
 16 15  1  0
 17 16  1  0
 18 19  1  0
 18 17  1  0
 19 20  1  0
 20 15  1  0
 20 21  1  0
 21 22  1  0
 23 21  1  0
 23 22  1  0
  1 24  1  0
  2 25  1  0
  3 26  1  0
  8 27  1  0
 11 28  1  0
 11 29  1  0
 16 30  1  0
 16 31  1  0
 17 32  1  0
 17 33  1  0
 18 34  1  0
 18 35  1  0
 19 36  1  0
 19 37  1  0
 20 38  1  1
 21 39  1  0
 22 40  1  0
 22 41  1  0
 23 42  1  0
 23 43  1  0
M  ISO  8  24  14  25  14  26  14  27  14  30  13  31  13  32  13  33  13
M  ISO  8  34  13  35  13  36  13  37  13  38  13  39  13  40  13  41  13
M  ISO  2  42  13  43  13
M  END
>  <minimizedAffinity>  (1) 
-5.08701086

>  <minimizedRMSD>  (1) 
0.737658381

$$$$
