
     RDKit          3D

 28 30  0  0  0  0  0  0  0  0999 V2000
   37.2990   21.8720   34.9820 C   0  0  0  0  0  0  0  0  0  0  0  0
   36.1950   21.0480   35.1060 C   0  0  0  0  0  0  0  0  0  0  0  0
   35.6390   20.6340   33.9050 C   0  0  0  0  0  0  0  0  0  0  0  0
   36.1110   20.9860   32.6960 N   0  0  0  0  0  0  0  0  0  0  0  0
   37.1980   21.7980   32.6190 C   0  0  0  0  0  0  0  0  0  0  0  0
   37.7770   22.2300   33.7720 N   0  0  0  0  0  0  0  0  0  0  0  0
   37.8470   22.2830   31.4500 N   0  0  0  0  0  0  0  0  0  0  0  0
   38.7380   21.6230   30.6930 C   0  0  0  0  0  0  0  0  0  0  0  0
   39.2720   22.2660   29.5770 C   0  0  0  0  0  0  0  0  0  0  0  0
   38.9130   23.5550   29.2300 C   0  0  0  0  0  0  0  0  0  0  0  0
   39.3830   24.1440   28.2310 O   0  0  0  0  0  0  0  0  0  0  0  0
   38.0270   24.1870   29.9970 N   0  0  0  0  0  0  0  0  0  0  0  0
   37.5200   23.5540   31.0710 C   0  0  0  0  0  0  0  0  0  0  0  0
   36.6770   24.2280   31.7560 O   0  0  0  0  0  0  0  0  0  0  0  0
   39.8750   22.7090   37.4670 C   0  0  0  0  0  0  0  0  0  0  0  0
   39.1310   23.3360   38.4830 C   0  0  0  0  0  0  0  0  0  0  0  0
   37.7610   23.4530   38.2810 C   0  0  0  0  0  0  0  0  0  0  0  0
   37.1970   22.9680   37.1370 N   0  0  0  0  0  0  0  0  0  0  0  0
   37.9690   22.3730   36.1940 C   0  0  0  0  0  0  0  0  0  0  0  0
   39.2820   22.2430   36.3510 N   0  0  0  0  0  0  0  0  0  0  0  0
   35.7892   20.7444   36.0823 H   0  0  0  0  0  0  0  0  0  0  0  0
   34.7575   19.9771   33.9436 H   0  0  0  0  0  0  0  0  0  0  0  0
   39.0404   20.5965   30.9479 H   0  0  0  0  0  0  0  0  0  0  0  0
   40.0023   21.7304   28.9527 H   0  0  0  0  0  0  0  0  0  0  0  0
   37.7334   25.1481   29.7713 H   0  0  0  0  0  0  0  0  0  0  0  0
   40.9628   22.5970   37.5863 H   0  0  0  0  0  0  0  0  0  0  0  0
   39.6119   23.7165   39.3962 H   0  0  0  0  0  0  0  0  0  0  0  0
   37.1317   23.9363   39.0428 H   0  0  0  0  0  0  0  0  0  0  0  0
  1  2  2  0
  1 19  1  0
  3  2  1  0
  4  3  2  0
  5  4  1  0
  5  6  2  0
  6  1  1  0
  7  5  1  0
  8  7  1  0
  9  8  2  0
 10  9  1  0
 10 12  1  0
 11 10  2  0
 12 13  1  0
 13  7  1  0
 13 14  2  0
 15 16  2  0
 17 16  1  0
 18 17  2  0
 19 20  2  0
 19 18  1  0
 20 15  1  0
  2 21  1  0
  3 22  1  0
  8 23  1  0
  9 24  1  0
 12 25  1  0
 15 26  1  0
 16 27  1  0
 17 28  1  0
M  ISO  8  21  14  22  14  23  14  24  14  25   9  26  14  27  14  28  14
M  END
>  <minimizedAffinity>  (1) 
-5.27728367

>  <minimizedRMSD>  (1) 
0.433330983

$$$$
