
     RDKit          3D

 42 45  0  0  1  0  0  0  0  0999 V2000
   38.0270   23.0230   31.2620 N   0  0  0  0  0  0  0  0  0  0  0  0
   37.5530   24.1450   30.4860 C   0  0  0  0  0  0  0  0  0  0  0  0
   38.7770   24.9860   30.1550 C   0  0  0  0  0  0  0  0  0  0  0  0
   39.5540   24.1780   29.1220 C   0  0  0  0  0  0  0  0  0  0  0  0
   39.2630   22.6920   29.2560 C   0  0  0  0  0  0  0  0  0  0  0  0
   39.2070   22.3770   30.7230 C   0  0  2  0  0  0  0  0  0  0  0  0
   39.9330   22.8030   37.2920 C   0  0  0  0  0  0  0  0  0  0  0  0
   39.1670   23.1620   38.4110 C   0  0  0  0  0  0  0  0  0  0  0  0
   37.7840   23.1800   38.2780 C   0  0  0  0  0  0  0  0  0  0  0  0
   37.2460   22.8490   37.0720 N   0  0  0  0  0  0  0  0  0  0  0  0
   38.0150   22.5100   36.0190 C   0  0  0  0  0  0  0  0  0  0  0  0
   39.3520   22.4880   36.1310 N   0  0  0  0  0  0  0  0  0  0  0  0
   37.4340   22.1680   34.7670 N   0  0  0  0  0  0  0  0  0  0  0  0
   38.0150   22.7540   33.7140 C   0  0  0  0  0  0  0  0  0  0  0  0
   37.5140   22.4790   32.4450 C   0  0  0  0  0  0  0  0  0  0  0  0
   36.4510   21.6140   32.3960 C   0  0  0  0  0  0  0  0  0  0  0  0
   35.8360   21.2400   31.1830 N   0  0  0  0  0  0  0  0  0  0  0  0
   35.8990   21.0480   33.4860 N   0  0  0  0  0  0  0  0  0  0  0  0
   36.3950   21.3230   34.7120 C   0  0  0  0  0  0  0  0  0  0  0  0
   35.9530   20.8490   35.7770 O   0  0  0  0  0  0  0  0  0  0  0  0
   39.3020   20.9360   31.0130 C   0  0  0  0  0  0  0  0  0  0  0  0
   40.2980   20.4620   31.8950 C   0  0  0  0  0  0  0  0  0  0  0  0
   40.0770   18.7300   31.9710 S   0  0  0  0  0  0  0  0  0  0  0  0
   38.6090   18.8210   30.7610 C   0  0  0  0  0  0  0  0  0  0  0  0
   38.5950   19.9270   30.5860 N   0  0  0  0  0  0  0  0  0  0  0  0
   37.0724   23.7923   29.5615 H   0  0  0  0  0  0  0  0  0  0  0  0
   36.8068   24.7293   31.0444 H   0  0  0  0  0  0  0  0  0  0  0  0
   38.4751   25.9574   29.7364 H   0  0  0  0  0  0  0  0  0  0  0  0
   39.3821   25.1983   31.0487 H   0  0  0  0  0  0  0  0  0  0  0  0
   40.6308   24.3477   29.2694 H   0  0  0  0  0  0  0  0  0  0  0  0
   39.2442   24.5050   28.1185 H   0  0  0  0  0  0  0  0  0  0  0  0
   38.2990   22.4533   28.7829 H   0  0  0  0  0  0  0  0  0  0  0  0
   40.0437   22.0966   28.7600 H   0  0  0  0  0  0  0  0  0  0  0  0
   40.0953   22.7794   31.2320 H   0  0  0  0  0  0  0  0  0  0  0  0
   41.0299   22.7805   37.3718 H   0  0  0  0  0  0  0  0  0  0  0  0
   39.6472   23.4217   39.3660 H   0  0  0  0  0  0  0  0  0  0  0  0
   37.1398   23.4549   39.1262 H   0  0  0  0  0  0  0  0  0  0  0  0
   38.8675   23.4362   33.8478 H   0  0  0  0  0  0  0  0  0  0  0  0
   35.0394   20.5871   31.1894 H   0  0  0  0  0  0  0  0  0  0  0  0
   36.1835   21.6197   30.2909 H   0  0  0  0  0  0  0  0  0  0  0  0
   41.0554   21.0589   32.4242 H   0  0  0  0  0  0  0  0  0  0  0  0
   37.9670   18.0252   30.3554 H   0  0  0  0  0  0  0  0  0  0  0  0
  1 15  1  0
  2  1  1  0
  3  2  1  0
  4  5  1  0
  4  3  1  0
  5  6  1  0
  6 21  1  0
  6  1  1  0
  7  8  2  0
  9  8  1  0
 10  9  2  0
 11 12  2  0
 11 10  1  0
 12  7  1  0
 13 11  1  0
 14 13  1  0
 15 14  2  0
 16 15  1  0
 16 18  2  0
 17 16  1  0
 18 19  1  0
 19 13  1  0
 19 20  2  0
 21 22  2  0
 22 23  1  0
 24 23  1  0
 25 24  2  0
 25 21  1  0
  2 26  1  0
  2 27  1  0
  3 28  1  0
  3 29  1  0
  4 30  1  0
  4 31  1  0
  5 32  1  0
  5 33  1  0
  6 34  1  1
  7 35  1  0
  8 36  1  0
  9 37  1  0
 14 38  1  0
 17 39  1  0
 17 40  1  0
 22 41  1  0
 24 42  1  0
M  ISO  8  26  13  27  13  28  13  29  13  30  13  31  13  32  13  33  13
M  ISO  7  34  13  35  14  36  14  37  14  38  14  41  14  42  14
M  END
>  <minimizedAffinity>  (1) 
-4.98609924

>  <minimizedRMSD>  (1) 
1.56902361

$$$$
