
     RDKit          3D

 25 27  0  0  0  0  0  0  0  0999 V2000
   37.3350   21.9180   35.0590 C   0  0  0  0  0  0  0  0  0  0  0  0
   36.2280   21.0720   35.2200 C   0  0  0  0  0  0  0  0  0  0  0  0
   35.6550   20.6500   34.0260 C   0  0  0  0  0  0  0  0  0  0  0  0
   36.0970   21.0000   32.8030 N   0  0  0  0  0  0  0  0  0  0  0  0
   37.1720   21.8210   32.6970 C   0  0  0  0  0  0  0  0  0  0  0  0
   37.7560   22.2520   33.8440 N   0  0  0  0  0  0  0  0  0  0  0  0
   37.7760   22.2940   31.5000 N   0  0  0  0  0  0  0  0  0  0  0  0
   38.5480   21.8090   30.5040 C   0  0  0  0  0  0  0  0  0  0  0  0
   38.7760   22.8550   29.6210 C   0  0  0  0  0  0  0  0  0  0  0  0
   38.1600   23.9700   30.0550 N   0  0  0  0  0  0  0  0  0  0  0  0
   37.5500   23.6060   31.2110 C   0  0  0  0  0  0  0  0  0  0  0  0
   39.9240   22.6830   37.5370 C   0  0  0  0  0  0  0  0  0  0  0  0
   39.2010   23.3600   38.5390 C   0  0  0  0  0  0  0  0  0  0  0  0
   37.8380   23.5360   38.3370 C   0  0  0  0  0  0  0  0  0  0  0  0
   37.2760   23.0520   37.1920 N   0  0  0  0  0  0  0  0  0  0  0  0
   38.0030   22.4120   36.2600 C   0  0  0  0  0  0  0  0  0  0  0  0
   39.3280   22.2200   36.4180 N   0  0  0  0  0  0  0  0  0  0  0  0
   35.8462   20.7686   36.2060 H   0  0  0  0  0  0  0  0  0  0  0  0
   34.7809   19.9848   34.0840 H   0  0  0  0  0  0  0  0  0  0  0  0
   38.9248   20.7798   30.4103 H   0  0  0  0  0  0  0  0  0  0  0  0
   39.3734   22.7832   28.7002 H   0  0  0  0  0  0  0  0  0  0  0  0
   36.9495   24.2839   31.8353 H   0  0  0  0  0  0  0  0  0  0  0  0
   41.0047   22.5274   37.6704 H   0  0  0  0  0  0  0  0  0  0  0  0
   39.6969   23.7348   39.4465 H   0  0  0  0  0  0  0  0  0  0  0  0
   37.2232   24.0560   39.0864 H   0  0  0  0  0  0  0  0  0  0  0  0
  1  2  2  0
  1 16  1  0
  3  2  1  0
  4  3  2  0
  5  4  1  0
  5  6  2  0
  6  1  1  0
  7  5  1  0
  8  7  1  0
  9 10  1  0
  9  8  2  0
 10 11  2  0
 11  7  1  0
 12 13  2  0
 14 13  1  0
 15 14  2  0
 16 17  2  0
 16 15  1  0
 17 12  1  0
  2 18  1  0
  3 19  1  0
  8 20  1  0
  9 21  1  0
 11 22  1  0
 12 23  1  0
 13 24  1  0
 14 25  1  0
M  ISO  8  18  14  19  14  20  14  21  14  22  14  23  14  24  14  25  14
M  END
>  <minimizedAffinity>  (1) 
-4.47821856

>  <minimizedRMSD>  (1) 
0.335742384

$$$$
