
     RDKit          3D

 25 27  0  0  0  0  0  0  0  0999 V2000
   37.5870   22.2330   34.8270 C   0  0  0  0  0  0  0  0  0  0  0  0
   36.5940   21.2460   34.7740 C   0  0  0  0  0  0  0  0  0  0  0  0
   36.1000   20.9600   33.5240 C   0  0  0  0  0  0  0  0  0  0  0  0
   36.5300   21.5800   32.3990 N   0  0  0  0  0  0  0  0  0  0  0  0
   37.4930   22.5300   32.4950 C   0  0  0  0  0  0  0  0  0  0  0  0
   38.0170   22.8510   33.7090 N   0  0  0  0  0  0  0  0  0  0  0  0
   39.9540   22.6530   37.5940 C   0  0  0  0  0  0  0  0  0  0  0  0
   39.1770   23.2640   38.5930 C   0  0  0  0  0  0  0  0  0  0  0  0
   37.8430   23.5170   38.2810 C   0  0  0  0  0  0  0  0  0  0  0  0
   37.3710   23.1650   37.0470 N   0  0  0  0  0  0  0  0  0  0  0  0
   38.1510   22.5820   36.1210 C   0  0  0  0  0  0  0  0  0  0  0  0
   39.4350   22.3330   36.4060 N   0  0  0  0  0  0  0  0  0  0  0  0
   37.9340   23.1790   31.2650 C   0  0  0  0  0  0  0  0  0  0  0  0
   38.9050   22.6090   30.4520 C   0  0  0  0  0  0  0  0  0  0  0  0
   39.1320   23.4360   29.3510 C   0  0  0  0  0  0  0  0  0  0  0  0
   38.2810   24.4860   29.5430 N   0  0  0  0  0  0  0  0  0  0  0  0
   37.5900   24.3220   30.6600 N   0  0  0  0  0  0  0  0  0  0  0  0
   36.2323   20.7320   35.6768 H   0  0  0  0  0  0  0  0  0  0  0  0
   35.3185   20.1913   33.4326 H   0  0  0  0  0  0  0  0  0  0  0  0
   41.0130   22.4335   37.7951 H   0  0  0  0  0  0  0  0  0  0  0  0
   39.6011   23.5293   39.5727 H   0  0  0  0  0  0  0  0  0  0  0  0
   37.1787   23.9933   39.0171 H   0  0  0  0  0  0  0  0  0  0  0  0
   39.4157   21.6542   30.6457 H   0  0  0  0  0  0  0  0  0  0  0  0
   39.8349   23.2781   28.5197 H   0  0  0  0  0  0  0  0  0  0  0  0
   38.1895   25.2920   28.9083 H   0  0  0  0  0  0  0  0  0  0  0  0
  1 11  1  0
  2  1  2  0
  3  2  1  0
  4  5  1  0
  4  3  2  0
  5  6  2  0
  6  1  1  0
  7  8  2  0
  9  8  1  0
 10  9  2  0
 11 12  2  0
 11 10  1  0
 12  7  1  0
 13  5  1  0
 14 13  1  0
 15 16  1  0
 15 14  2  0
 16 17  1  0
 17 13  2  0
  2 18  1  0
  3 19  1  0
  7 20  1  0
  8 21  1  0
  9 22  1  0
 14 23  1  0
 15 24  1  0
 16 25  1  0
M  ISO  8  18  14  19  14  20  14  21  14  22  14  23  14  24  14  25   9
M  END
>  <minimizedAffinity>  (1) 
-4.38106632

>  <minimizedRMSD>  (1) 
0.919671714

$$$$
