
     RDKit          3D

 20 21  0  0  0  0  0  0  0  0999 V2000
   37.1940   21.8330   34.9340 C   0  0  0  0  0  0  0  0  0  0  0  0
   36.1550   20.9400   35.1320 C   0  0  0  0  0  0  0  0  0  0  0  0
   35.5130   20.5310   33.9780 C   0  0  0  0  0  0  0  0  0  0  0  0
   35.8450   20.9480   32.7350 N   0  0  0  0  0  0  0  0  0  0  0  0
   36.8770   21.8300   32.5880 C   0  0  0  0  0  0  0  0  0  0  0  0
   37.5330   22.2560   33.7020 N   0  0  0  0  0  0  0  0  0  0  0  0
   37.2740   22.3060   31.3130 N   0  0  0  0  0  0  0  0  0  0  0  0
   39.9480   22.6240   37.2390 C   0  0  0  0  0  0  0  0  0  0  0  0
   39.2860   23.2830   38.2970 C   0  0  0  0  0  0  0  0  0  0  0  0
   37.9010   23.4350   38.1810 C   0  0  0  0  0  0  0  0  0  0  0  0
   37.2380   22.9540   37.0750 N   0  0  0  0  0  0  0  0  0  0  0  0
   37.9420   22.3300   36.0960 C   0  0  0  0  0  0  0  0  0  0  0  0
   39.2580   22.1770   36.1900 N   0  0  0  0  0  0  0  0  0  0  0  0
   35.8627   20.5833   36.1307 H   0  0  0  0  0  0  0  0  0  0  0  0
   34.6787   19.8209   34.0771 H   0  0  0  0  0  0  0  0  0  0  0  0
   38.0563   22.9711   31.2323 H   0  0  0  0  0  0  0  0  0  0  0  0
   36.7801   21.9867   30.4674 H   0  0  0  0  0  0  0  0  0  0  0  0
   41.0376   22.4788   37.2803 H   0  0  0  0  0  0  0  0  0  0  0  0
   39.8346   23.6598   39.1728 H   0  0  0  0  0  0  0  0  0  0  0  0
   37.3379   23.9420   38.9784 H   0  0  0  0  0  0  0  0  0  0  0  0
  1  2  2  0
  1 12  1  0
  3  2  1  0
  4  3  2  0
  5  4  1  0
  5  6  2  0
  6  1  1  0
  7  5  1  0
  8  9  2  0
 10  9  1  0
 11 10  2  0
 12 13  2  0
 12 11  1  0
 13  8  1  0
  2 14  1  0
  3 15  1  0
  7 16  1  0
  7 17  1  0
  8 18  1  0
  9 19  1  0
 10 20  1  0
M  ISO  5  14  14  15  14  18  14  19  14  20  14
M  END
>  <minimizedAffinity>  (1) 
-3.93306375

>  <minimizedRMSD>  (1) 
0.0224699769

$$$$
