
     RDKit          3D

 33 35  0  0  0  0  0  0  0  0999 V2000
   37.2500   21.9330   34.8350 C   0  0  0  0  0  0  0  0  0  0  0  0
   36.3370   20.8990   35.0060 C   0  0  0  0  0  0  0  0  0  0  0  0
   35.5650   20.5840   33.9110 C   0  0  0  0  0  0  0  0  0  0  0  0
   35.6700   21.2270   32.7340 N   0  0  0  0  0  0  0  0  0  0  0  0
   36.5870   22.2510   32.5990 C   0  0  0  0  0  0  0  0  0  0  0  0
   37.3540   22.5720   33.6650 N   0  0  0  0  0  0  0  0  0  0  0  0
   40.1970   22.3490   36.9860 C   0  0  0  0  0  0  0  0  0  0  0  0
   39.6740   23.0410   38.1030 C   0  0  0  0  0  0  0  0  0  0  0  0
   38.3100   23.3470   38.0780 C   0  0  0  0  0  0  0  0  0  0  0  0
   37.5690   22.9670   37.0000 N   0  0  0  0  0  0  0  0  0  0  0  0
   38.0930   22.3100   35.9550 C   0  0  0  0  0  0  0  0  0  0  0  0
   39.3950   22.0150   35.9700 N   0  0  0  0  0  0  0  0  0  0  0  0
   36.7120   22.9620   31.3150 C   0  0  0  0  0  0  0  0  0  0  0  0
   35.6360   24.0280   31.2220 C   0  0  0  0  0  0  0  0  0  0  0  0
   36.1100   25.3540   31.6190 C   0  0  0  0  0  0  0  0  0  0  0  0
   35.8170   26.4440   30.8080 C   0  0  0  0  0  0  0  0  0  0  0  0
   36.2070   27.7530   31.0670 C   0  0  0  0  0  0  0  0  0  0  0  0
   36.9360   27.9820   32.2170 C   0  0  0  0  0  0  0  0  0  0  0  0
   37.2300   26.8970   33.0320 C   0  0  0  0  0  0  0  0  0  0  0  0
   36.8270   25.6610   32.7250 N   0  0  0  0  0  0  0  0  0  0  0  0
   36.2372   20.3633   35.9615 H   0  0  0  0  0  0  0  0  0  0  0  0
   34.8299   19.7708   34.0022 H   0  0  0  0  0  0  0  0  0  0  0  0
   41.2645   22.0854   36.9532 H   0  0  0  0  0  0  0  0  0  0  0  0
   40.3115   23.3256   38.9530 H   0  0  0  0  0  0  0  0  0  0  0  0
   37.8427   23.8859   38.9154 H   0  0  0  0  0  0  0  0  0  0  0  0
   37.7033   23.4347   31.2523 H   0  0  0  0  0  0  0  0  0  0  0  0
   36.5941   22.2479   30.4867 H   0  0  0  0  0  0  0  0  0  0  0  0
   35.2820   24.0791   30.1818 H   0  0  0  0  0  0  0  0  0  0  0  0
   34.8309   23.7447   31.9159 H   0  0  0  0  0  0  0  0  0  0  0  0
   35.2338   26.2573   29.8942 H   0  0  0  0  0  0  0  0  0  0  0  0
   35.9452   28.5737   30.3829 H   0  0  0  0  0  0  0  0  0  0  0  0
   37.2742   28.9951   32.4800 H   0  0  0  0  0  0  0  0  0  0  0  0
   37.8090   27.0592   33.9531 H   0  0  0  0  0  0  0  0  0  0  0  0
  1  2  2  0
  1 11  1  0
  3  2  1  0
  4  3  2  0
  5  4  1  0
  5  6  2  0
  6  1  1  0
  7  8  2  0
  9  8  1  0
 10  9  2  0
 11 12  2  0
 11 10  1  0
 12  7  1  0
 13  5  1  0
 14 13  1  0
 14 15  1  0
 15 20  2  0
 16 17  2  0
 16 15  1  0
 17 18  1  0
 18 19  2  0
 20 19  1  0
  2 21  1  0
  3 22  1  0
  7 23  1  0
  8 24  1  0
  9 25  1  0
 13 26  1  0
 13 27  1  0
 14 28  1  0
 14 29  1  0
 16 30  1  0
 17 31  1  0
 18 32  1  0
 19 33  1  0
M  ISO  8  21  14  22  14  23  14  24  14  25  14  26   8  27   8  28   8
M  ISO  5  29   8  30  14  31  14  32  14  33  14
M  END
>  <minimizedAffinity>  (1) 
-5.0691967

>  <minimizedRMSD>  (1) 
0.824309647

$$$$
