
     RDKit          3D

 40 43  0  0  0  0  0  0  0  0999 V2000
   37.2690   21.9750   34.8000 C   0  0  0  0  0  0  0  0  0  0  0  0
   36.3540   20.9220   34.9400 C   0  0  0  0  0  0  0  0  0  0  0  0
   35.5870   20.6430   33.8400 C   0  0  0  0  0  0  0  0  0  0  0  0
   35.6870   21.3260   32.6800 N   0  0  0  0  0  0  0  0  0  0  0  0
   36.5980   22.3530   32.5810 C   0  0  0  0  0  0  0  0  0  0  0  0
   37.3660   22.6450   33.6580 N   0  0  0  0  0  0  0  0  0  0  0  0
   40.1920   22.3000   36.9880 C   0  0  0  0  0  0  0  0  0  0  0  0
   39.6780   23.0040   38.1040 C   0  0  0  0  0  0  0  0  0  0  0  0
   38.3380   23.3420   38.0640 C   0  0  0  0  0  0  0  0  0  0  0  0
   37.5890   22.9890   36.9720 N   0  0  0  0  0  0  0  0  0  0  0  0
   38.1120   22.3220   35.9310 C   0  0  0  0  0  0  0  0  0  0  0  0
   39.3920   22.0020   35.9770 N   0  0  0  0  0  0  0  0  0  0  0  0
   36.7190   23.1130   31.2990 C   0  0  0  0  0  0  0  0  0  0  0  0
   36.5330   24.5770   31.5890 C   0  0  0  0  0  0  0  0  0  0  0  0
   37.7870   25.3310   31.7360 C   0  0  0  0  0  0  0  0  0  0  0  0
   38.6040   25.5070   30.6300 C   0  0  0  0  0  0  0  0  0  0  0  0
   39.7840   26.2180   30.6640 C   0  0  0  0  0  0  0  0  0  0  0  0
   40.2150   26.8050   31.8530 C   0  0  0  0  0  0  0  0  0  0  0  0
   39.4200   26.6430   32.9660 C   0  0  0  0  0  0  0  0  0  0  0  0
   39.8120   27.2010   34.1650 C   0  0  0  0  0  0  0  0  0  0  0  0
   39.0400   27.0530   35.3170 C   0  0  0  0  0  0  0  0  0  0  0  0
   37.8460   26.3260   35.2510 C   0  0  0  0  0  0  0  0  0  0  0  0
   37.5010   25.7890   34.0290 C   0  0  0  0  0  0  0  0  0  0  0  0
   38.2440   25.9240   32.8950 C   0  0  0  0  0  0  0  0  0  0  0  0
   36.2578   20.3539   35.8771 H   0  0  0  0  0  0  0  0  0  0  0  0
   34.8554   19.8241   33.9049 H   0  0  0  0  0  0  0  0  0  0  0  0
   41.2507   22.0025   36.9617 H   0  0  0  0  0  0  0  0  0  0  0  0
   40.3142   23.2691   38.9613 H   0  0  0  0  0  0  0  0  0  0  0  0
   37.8777   23.8887   38.9002 H   0  0  0  0  0  0  0  0  0  0  0  0
   35.9465   22.7741   30.5931 H   0  0  0  0  0  0  0  0  0  0  0  0
   37.7097   22.9415   30.8528 H   0  0  0  0  0  0  0  0  0  0  0  0
   35.9592   25.0213   30.7624 H   0  0  0  0  0  0  0  0  0  0  0  0
   36.0123   24.6420   32.5558 H   0  0  0  0  0  0  0  0  0  0  0  0
   38.2944   25.0557   29.6758 H   0  0  0  0  0  0  0  0  0  0  0  0
   40.3876   26.3227   29.7504 H   0  0  0  0  0  0  0  0  0  0  0  0
   41.1542   27.3757   31.9003 H   0  0  0  0  0  0  0  0  0  0  0  0
   40.7503   27.7730   34.2134 H   0  0  0  0  0  0  0  0  0  0  0  0
   39.3658   27.5025   36.2666 H   0  0  0  0  0  0  0  0  0  0  0  0
   37.2092   26.1887   36.1374 H   0  0  0  0  0  0  0  0  0  0  0  0
   36.5652   25.2143   33.9654 H   0  0  0  0  0  0  0  0  0  0  0  0
  1  2  2  0
  1 11  1  0
  3  2  1  0
  4  3  2  0
  5  4  1  0
  5  6  2  0
  6  1  1  0
  7  8  2  0
  9  8  1  0
 10  9  2  0
 11 12  2  0
 11 10  1  0
 12  7  1  0
 13 14  1  0
 13  5  1  0
 14 15  1  0
 15 24  2  0
 16 17  2  0
 16 15  1  0
 17 18  1  0
 18 19  2  0
 19 20  1  0
 20 21  2  0
 22 21  1  0
 23 22  2  0
 24 19  1  0
 24 23  1  0
  2 25  1  0
  3 26  1  0
  7 27  1  0
  8 28  1  0
  9 29  1  0
 13 30  1  0
 13 31  1  0
 14 32  1  0
 14 33  1  0
 16 34  1  0
 17 35  1  0
 18 36  1  0
 20 37  1  0
 21 38  1  0
 22 39  1  0
 23 40  1  0
M  ISO  8  25  14  26  14  27  14  28  14  29  14  30   8  31   8  32   8
M  ISO  8  33   8  34  14  35  14  36  14  37  14  38  14  39  14  40  14
M  END
>  <minimizedAffinity>  (1) 
-5.7511797

>  <minimizedRMSD>  (1) 
2.650635

$$$$
