
     RDKit          3D

 25 26  0  0  0  0  0  0  0  0999 V2000
   37.1910   21.9230   34.9040 C   0  0  0  0  0  0  0  0  0  0  0  0
   36.2180   20.9350   35.0870 C   0  0  0  0  0  0  0  0  0  0  0  0
   35.5410   20.5570   33.9490 C   0  0  0  0  0  0  0  0  0  0  0  0
   35.7840   21.0880   32.7290 N   0  0  0  0  0  0  0  0  0  0  0  0
   36.7580   22.0640   32.6010 C   0  0  0  0  0  0  0  0  0  0  0  0
   37.4340   22.4500   33.7080 N   0  0  0  0  0  0  0  0  0  0  0  0
   39.9640   22.5860   37.2270 C   0  0  0  0  0  0  0  0  0  0  0  0
   39.3190   23.2430   38.3060 C   0  0  0  0  0  0  0  0  0  0  0  0
   37.9550   23.4360   38.2000 C   0  0  0  0  0  0  0  0  0  0  0  0
   37.3030   22.9920   37.0780 N   0  0  0  0  0  0  0  0  0  0  0  0
   37.9460   22.3720   36.0710 C   0  0  0  0  0  0  0  0  0  0  0  0
   39.2520   22.1860   36.1720 N   0  0  0  0  0  0  0  0  0  0  0  0
   37.0210   22.6420   31.2730 C   0  0  0  0  0  0  0  0  0  0  0  0
   36.0800   23.8230   31.0500 C   0  0  0  0  0  0  0  0  0  0  0  0
   36.3600   24.7310   32.0870 O   0  0  0  0  0  0  0  0  0  0  0  0
   36.0082   20.4909   36.0713 H   0  0  0  0  0  0  0  0  0  0  0  0
   34.7632   19.7841   34.0366 H   0  0  0  0  0  0  0  0  0  0  0  0
   41.0488   22.4067   37.2600 H   0  0  0  0  0  0  0  0  0  0  0  0
   39.8802   23.5839   39.1885 H   0  0  0  0  0  0  0  0  0  0  0  0
   37.3992   23.9392   39.0050 H   0  0  0  0  0  0  0  0  0  0  0  0
   38.0643   22.9867   31.2208 H   0  0  0  0  0  0  0  0  0  0  0  0
   36.8530   21.8811   30.4966 H   0  0  0  0  0  0  0  0  0  0  0  0
   36.2715   24.2870   30.0712 H   0  0  0  0  0  0  0  0  0  0  0  0
   35.0255   23.5100   31.0568 H   0  0  0  0  0  0  0  0  0  0  0  0
   36.2229   24.2864   32.9609 H   0  0  0  0  0  0  0  0  0  0  0  0
  1  2  2  0
  1 11  1  0
  3  2  1  0
  4  3  2  0
  5  4  1  0
  5  6  2  0
  6  1  1  0
  7  8  2  0
  9  8  1  0
 10  9  2  0
 11 12  2  0
 11 10  1  0
 12  7  1  0
 13  5  1  0
 14 13  1  0
 14 15  1  0
  2 16  1  0
  3 17  1  0
  7 18  1  0
  8 19  1  0
  9 20  1  0
 13 21  1  0
 13 22  1  0
 14 23  1  0
 14 24  1  0
 15 25  1  0
M  ISO  8  16  14  17  14  18  14  19  14  20  14  21   8  22   8  23   8
M  ISO  2  24   8  25   3
M  END
>  <minimizedAffinity>  (1) 
-4.10347319

>  <minimizedRMSD>  (1) 
0.0608810186

$$$$
