
     RDKit          3D

 40 43  0  0  0  0  0  0  0  0999 V2000
   36.9090   22.8160   31.1210 C   0  0  0  0  0  0  0  0  0  0  0  0
   37.1960   21.9500   34.7240 C   0  0  0  0  0  0  0  0  0  0  0  0
   36.2390   20.9390   34.8770 C   0  0  0  0  0  0  0  0  0  0  0  0
   35.5270   20.5840   33.7530 C   0  0  0  0  0  0  0  0  0  0  0  0
   35.7170   21.1560   32.5630 N   0  0  0  0  0  0  0  0  0  0  0  0
   36.6620   22.1470   32.4310 C   0  0  0  0  0  0  0  0  0  0  0  0
   37.3850   22.5230   33.5310 N   0  0  0  0  0  0  0  0  0  0  0  0
   40.0110   22.4770   37.0030 C   0  0  0  0  0  0  0  0  0  0  0  0
   39.4180   23.1470   38.0970 C   0  0  0  0  0  0  0  0  0  0  0  0
   38.0520   23.3920   38.0000 C   0  0  0  0  0  0  0  0  0  0  0  0
   37.3690   22.9880   36.8890 N   0  0  0  0  0  0  0  0  0  0  0  0
   37.9670   22.3570   35.8760 C   0  0  0  0  0  0  0  0  0  0  0  0
   39.2650   22.1160   35.9530 N   0  0  0  0  0  0  0  0  0  0  0  0
   36.0330   24.0710   31.0640 C   0  0  0  0  0  0  0  0  0  0  0  0
   36.9180   25.1950   30.9990 N   0  0  0  0  0  0  0  0  0  0  0  0
   36.7350   26.2520   31.9420 C   0  0  0  0  0  0  0  0  0  0  0  0
   35.9120   27.3480   31.8440 C   0  0  0  0  0  0  0  0  0  0  0  0
   36.0250   28.1100   32.9410 N   0  0  0  0  0  0  0  0  0  0  0  0
   36.9110   27.5600   33.7930 C   0  0  0  0  0  0  0  0  0  0  0  0
   37.4200   27.8750   35.0340 C   0  0  0  0  0  0  0  0  0  0  0  0
   38.3560   27.0450   35.6410 C   0  0  0  0  0  0  0  0  0  0  0  0
   38.7780   25.9110   35.0130 C   0  0  0  0  0  0  0  0  0  0  0  0
   38.3060   25.5430   33.7740 C   0  0  0  0  0  0  0  0  0  0  0  0
   37.3680   26.3890   33.1820 C   0  0  0  0  0  0  0  0  0  0  0  0
   37.9696   23.0958   31.0378 H   0  0  0  0  0  0  0  0  0  0  0  0
   36.6632   22.1377   30.2907 H   0  0  0  0  0  0  0  0  0  0  0  0
   36.0646   20.4521   35.8478 H   0  0  0  0  0  0  0  0  0  0  0  0
   34.7674   19.7932   33.8404 H   0  0  0  0  0  0  0  0  0  0  0  0
   41.0877   22.2520   37.0150 H   0  0  0  0  0  0  0  0  0  0  0  0
   40.0033   23.4571   38.9752 H   0  0  0  0  0  0  0  0  0  0  0  0
   37.5244   23.9091   38.8150 H   0  0  0  0  0  0  0  0  0  0  0  0
   35.3907   24.0435   30.1714 H   0  0  0  0  0  0  0  0  0  0  0  0
   35.3801   24.1352   31.9470 H   0  0  0  0  0  0  0  0  0  0  0  0
   37.6656   25.2399   30.2919 H   0  0  0  0  0  0  0  0  0  0  0  0
   35.2556   27.5682   30.9892 H   0  0  0  0  0  0  0  0  0  0  0  0
   35.5103   28.9865   33.1076 H   0  0  0  0  0  0  0  0  0  0  0  0
   37.0841   28.7880   35.5474 H   0  0  0  0  0  0  0  0  0  0  0  0
   38.7575   27.3044   36.6317 H   0  0  0  0  0  0  0  0  0  0  0  0
   39.5193   25.2699   35.5125 H   0  0  0  0  0  0  0  0  0  0  0  0
   38.6516   24.6260   33.2744 H   0  0  0  0  0  0  0  0  0  0  0  0
  1  6  1  0
  2  3  2  0
  2 12  1  0
  4  3  1  0
  5  4  2  0
  6  5  1  0
  6  7  2  0
  7  2  1  0
  8  9  2  0
 10  9  1  0
 11 10  2  0
 12 13  2  0
 12 11  1  0
 13  8  1  0
 14  1  1  0
 15 14  1  0
 15 16  1  0
 16 24  1  0
 17 16  2  0
 17 18  1  0
 18 19  1  0
 19 20  2  0
 20 21  1  0
 22 21  2  0
 23 22  1  0
 24 23  2  0
 24 19  1  0
  1 25  1  0
  1 26  1  0
  3 27  1  0
  4 28  1  0
  8 29  1  0
  9 30  1  0
 10 31  1  0
 14 32  1  0
 14 33  1  0
 15 34  1  0
 17 35  1  0
 18 36  1  0
 20 37  1  0
 21 38  1  0
 22 39  1  0
 23 40  1  0
M  ISO  8  25   8  26   8  27  14  28  14  29  14  30  14  31  14  32   8
M  ISO  7  33   8  35  14  36   9  37  14  38  14  39  14  40  14
M  END
>  <minimizedAffinity>  (1) 
-5.88152409

>  <minimizedRMSD>  (1) 
2.22018242

$$$$
