
     RDKit          3D

 33 35  0  0  0  0  0  0  0  0999 V2000
   37.1770   21.8950   35.0280 C   0  0  0  0  0  0  0  0  0  0  0  0
   36.1950   20.9190   35.2510 C   0  0  0  0  0  0  0  0  0  0  0  0
   35.5050   20.5040   34.1330 C   0  0  0  0  0  0  0  0  0  0  0  0
   35.7390   20.9860   32.8980 N   0  0  0  0  0  0  0  0  0  0  0  0
   36.7120   21.9450   32.7190 C   0  0  0  0  0  0  0  0  0  0  0  0
   37.3990   22.3630   33.8100 N   0  0  0  0  0  0  0  0  0  0  0  0
   39.9850   22.6290   37.2760 C   0  0  0  0  0  0  0  0  0  0  0  0
   39.3620   23.3070   38.3460 C   0  0  0  0  0  0  0  0  0  0  0  0
   37.9810   23.4950   38.2660 C   0  0  0  0  0  0  0  0  0  0  0  0
   37.3140   23.0180   37.1650 N   0  0  0  0  0  0  0  0  0  0  0  0
   37.9450   22.3790   36.1710 C   0  0  0  0  0  0  0  0  0  0  0  0
   39.2560   22.2020   36.2530 N   0  0  0  0  0  0  0  0  0  0  0  0
   37.0040   22.5060   31.3750 C   0  0  0  0  0  0  0  0  0  0  0  0
   35.9460   23.5470   31.0560 C   0  0  0  0  0  0  0  0  0  0  0  0
   36.6110   24.7340   30.6220 N   0  0  0  0  0  0  0  0  0  0  0  0
   36.5010   26.0430   31.0930 C   0  0  0  0  0  0  0  0  0  0  0  0
   36.6910   26.5170   32.3980 C   0  0  0  0  0  0  0  0  0  0  0  0
   36.4870   27.8450   32.3890 N   0  0  0  0  0  0  0  0  0  0  0  0
   36.1800   28.2100   31.1440 C   0  0  0  0  0  0  0  0  0  0  0  0
   36.1890   27.1290   30.3640 N   0  0  0  0  0  0  0  0  0  0  0  0
   35.9893   20.5118   36.2520 H   0  0  0  0  0  0  0  0  0  0  0  0
   34.7232   19.7400   34.2558 H   0  0  0  0  0  0  0  0  0  0  0  0
   41.0711   22.4553   37.2903 H   0  0  0  0  0  0  0  0  0  0  0  0
   39.9408   23.6721   39.2072 H   0  0  0  0  0  0  0  0  0  0  0  0
   37.4382   24.0149   39.0691 H   0  0  0  0  0  0  0  0  0  0  0  0
   37.9993   22.9744   31.3751 H   0  0  0  0  0  0  0  0  0  0  0  0
   36.9917   21.7073   30.6188 H   0  0  0  0  0  0  0  0  0  0  0  0
   35.2860   23.1760   30.2581 H   0  0  0  0  0  0  0  0  0  0  0  0
   35.3346   23.7555   31.9463 H   0  0  0  0  0  0  0  0  0  0  0  0
   37.2722   24.6042   29.8430 H   0  0  0  0  0  0  0  0  0  0  0  0
   36.9596   25.9093   33.2747 H   0  0  0  0  0  0  0  0  0  0  0  0
   35.9560   29.2353   30.8144 H   0  0  0  0  0  0  0  0  0  0  0  0
   35.9872   27.1260   29.3540 H   0  0  0  0  0  0  0  0  0  0  0  0
  1  2  2  0
  1 11  1  0
  3  2  1  0
  4  3  2  0
  5  4  1  0
  5  6  2  0
  6  1  1  0
  7  8  2  0
  9  8  1  0
 10  9  2  0
 11 12  2  0
 11 10  1  0
 12  7  1  0
 13  5  1  0
 14 13  1  0
 15 14  1  0
 15 16  1  0
 16 17  2  0
 18 17  1  0
 19 18  2  0
 20 16  1  0
 20 19  1  0
  2 21  1  0
  3 22  1  0
  7 23  1  0
  8 24  1  0
  9 25  1  0
 13 26  1  0
 13 27  1  0
 14 28  1  0
 14 29  1  0
 15 30  1  0
 17 31  1  0
 19 32  1  0
 20 33  1  0
M  ISO  8  21  14  22  14  23  14  24  14  25  14  26   8  27   8  28   8
M  ISO  4  29   8  31  14  32  14  33   9
M  END
>  <minimizedAffinity>  (1) 
-5.13530779

>  <minimizedRMSD>  (1) 
2.04423809

$$$$
