
     RDKit          3D

 31 33  0  0  0  0  0  0  0  0999 V2000
   37.1800   21.9260   34.8000 C   0  0  0  0  0  0  0  0  0  0  0  0
   36.2410   20.8850   34.9860 C   0  0  0  0  0  0  0  0  0  0  0  0
   35.5120   20.5250   33.8800 C   0  0  0  0  0  0  0  0  0  0  0  0
   35.6580   21.1080   32.6730 N   0  0  0  0  0  0  0  0  0  0  0  0
   36.5780   22.1140   32.5240 C   0  0  0  0  0  0  0  0  0  0  0  0
   37.3210   22.4960   33.6120 N   0  0  0  0  0  0  0  0  0  0  0  0
   40.0370   22.4750   37.0190 C   0  0  0  0  0  0  0  0  0  0  0  0
   39.4660   23.1580   38.1200 C   0  0  0  0  0  0  0  0  0  0  0  0
   38.1000   23.4030   38.0490 C   0  0  0  0  0  0  0  0  0  0  0  0
   37.3920   22.9840   36.9480 N   0  0  0  0  0  0  0  0  0  0  0  0
   37.9750   22.3430   35.9350 C   0  0  0  0  0  0  0  0  0  0  0  0
   39.2670   22.1130   36.0060 N   0  0  0  0  0  0  0  0  0  0  0  0
   36.7840   22.7970   31.2150 C   0  0  0  0  0  0  0  0  0  0  0  0
   35.6650   23.8200   31.0430 C   0  0  0  0  0  0  0  0  0  0  0  0
   36.2840   25.0740   30.7050 N   0  0  0  0  0  0  0  0  0  0  0  0
   36.4070   26.0950   31.6590 C   0  0  0  0  0  0  0  0  0  0  0  0
   35.8850   27.3360   31.5770 N   0  0  0  0  0  0  0  0  0  0  0  0
   36.1670   28.0450   32.6030 O   0  0  0  0  0  0  0  0  0  0  0  0
   36.8860   27.2860   33.3920 C   0  0  0  0  0  0  0  0  0  0  0  0
   37.0570   26.0560   32.8330 N   0  0  0  0  0  0  0  0  0  0  0  0
   36.1029   20.3926   35.9599 H   0  0  0  0  0  0  0  0  0  0  0  0
   34.7704   19.7193   33.9838 H   0  0  0  0  0  0  0  0  0  0  0  0
   41.1130   22.2470   37.0060 H   0  0  0  0  0  0  0  0  0  0  0  0
   40.0695   23.4766   38.9827 H   0  0  0  0  0  0  0  0  0  0  0  0
   37.5886   23.9289   38.8687 H   0  0  0  0  0  0  0  0  0  0  0  0
   37.7599   23.3046   31.2070 H   0  0  0  0  0  0  0  0  0  0  0  0
   36.7671   22.0663   30.3929 H   0  0  0  0  0  0  0  0  0  0  0  0
   34.9868   23.5048   30.2363 H   0  0  0  0  0  0  0  0  0  0  0  0
   35.0745   23.9121   31.9665 H   0  0  0  0  0  0  0  0  0  0  0  0
   36.6413   25.2239   29.7507 H   0  0  0  0  0  0  0  0  0  0  0  0
   37.2929   27.5971   34.3655 H   0  0  0  0  0  0  0  0  0  0  0  0
  1  2  2  0
  1 11  1  0
  3  2  1  0
  4  3  2  0
  5  4  1  0
  5  6  2  0
  6  1  1  0
  7  8  2  0
  9  8  1  0
 10  9  2  0
 11 12  2  0
 11 10  1  0
 12  7  1  0
 13  5  1  0
 14 13  1  0
 15 14  1  0
 15 16  1  0
 16 20  1  0
 17 16  2  0
 17 18  1  0
 18 19  1  0
 20 19  2  0
  2 21  1  0
  3 22  1  0
  7 23  1  0
  8 24  1  0
  9 25  1  0
 13 26  1  0
 13 27  1  0
 14 28  1  0
 14 29  1  0
 15 30  1  0
 19 31  1  0
M  ISO  8  21  14  22  14  23  14  24  14  25  14  26   8  27   8  28   8
M  ISO  2  29   8  31  14
M  END
>  <minimizedAffinity>  (1) 
-5.13782072

>  <minimizedRMSD>  (1) 
2.07836246

$$$$
