
     RDKit          3D

 34 36  0  0  0  0  0  0  0  0999 V2000
   37.1540   21.8820   35.0070 C   0  0  0  0  0  0  0  0  0  0  0  0
   36.1840   20.8890   35.2290 C   0  0  0  0  0  0  0  0  0  0  0  0
   35.4840   20.4810   34.1070 C   0  0  0  0  0  0  0  0  0  0  0  0
   35.6880   20.9750   32.8870 N   0  0  0  0  0  0  0  0  0  0  0  0
   36.6440   21.9440   32.7010 C   0  0  0  0  0  0  0  0  0  0  0  0
   37.3610   22.3750   33.7860 N   0  0  0  0  0  0  0  0  0  0  0  0
   39.9760   22.6040   37.2260 C   0  0  0  0  0  0  0  0  0  0  0  0
   39.3630   23.2890   38.3060 C   0  0  0  0  0  0  0  0  0  0  0  0
   37.9830   23.4750   38.2210 C   0  0  0  0  0  0  0  0  0  0  0  0
   37.2980   23.0010   37.1260 N   0  0  0  0  0  0  0  0  0  0  0  0
   37.9230   22.3570   36.1280 C   0  0  0  0  0  0  0  0  0  0  0  0
   39.2310   22.1760   36.1990 N   0  0  0  0  0  0  0  0  0  0  0  0
   36.9080   22.5170   31.3480 C   0  0  0  0  0  0  0  0  0  0  0  0
   35.7830   23.4690   31.0070 C   0  0  0  0  0  0  0  0  0  0  0  0
   36.3940   24.7600   30.7740 N   0  0  0  0  0  0  0  0  0  0  0  0
   37.3000   25.6620   31.3540 C   0  0  0  0  0  0  0  0  0  0  0  0
   37.0360   26.0490   32.6790 C   0  0  0  0  0  0  0  0  0  0  0  0
   37.8760   26.9190   33.3440 C   0  0  0  0  0  0  0  0  0  0  0  0
   38.9360   27.3750   32.6900 N   0  0  0  0  0  0  0  0  0  0  0  0
   39.2170   27.0250   31.4240 C   0  0  0  0  0  0  0  0  0  0  0  0
   38.4000   26.1720   30.7630 N   0  0  0  0  0  0  0  0  0  0  0  0
   35.9943   20.4653   36.2262 H   0  0  0  0  0  0  0  0  0  0  0  0
   34.7150   19.7041   34.2298 H   0  0  0  0  0  0  0  0  0  0  0  0
   41.0613   22.4247   37.2320 H   0  0  0  0  0  0  0  0  0  0  0  0
   39.9448   23.6543   39.1651 H   0  0  0  0  0  0  0  0  0  0  0  0
   37.4452   23.9981   39.0255 H   0  0  0  0  0  0  0  0  0  0  0  0
   37.8650   23.0593   31.3541 H   0  0  0  0  0  0  0  0  0  0  0  0
   36.9631   21.7123   30.6000 H   0  0  0  0  0  0  0  0  0  0  0  0
   35.2578   23.1283   30.1025 H   0  0  0  0  0  0  0  0  0  0  0  0
   35.0441   23.5194   31.8203 H   0  0  0  0  0  0  0  0  0  0  0  0
   36.0482   25.1468   29.8842 H   0  0  0  0  0  0  0  0  0  0  0  0
   36.1477   25.6531   33.1931 H   0  0  0  0  0  0  0  0  0  0  0  0
   37.6733   27.2239   34.3813 H   0  0  0  0  0  0  0  0  0  0  0  0
   40.1095   27.4309   30.9253 H   0  0  0  0  0  0  0  0  0  0  0  0
  1  2  2  0
  1 11  1  0
  3  2  1  0
  4  3  2  0
  5  4  1  0
  5  6  2  0
  6  1  1  0
  7  8  2  0
  9  8  1  0
 10  9  2  0
 11 12  2  0
 11 10  1  0
 12  7  1  0
 13  5  1  0
 14 13  1  0
 15 14  1  0
 15 16  1  0
 16 17  2  0
 17 18  1  0
 19 18  2  0
 20 19  1  0
 21 16  1  0
 21 20  2  0
  2 22  1  0
  3 23  1  0
  7 24  1  0
  8 25  1  0
  9 26  1  0
 13 27  1  0
 13 28  1  0
 14 29  1  0
 14 30  1  0
 15 31  1  0
 17 32  1  0
 18 33  1  0
 20 34  1  0
M  ISO  8  22  14  23  14  24  14  25  14  26  14  27   8  28   8  29   8
M  ISO  4  30   8  32  14  33  14  34  14
M  END
>  <minimizedAffinity>  (1) 
-4.84846306

>  <minimizedRMSD>  (1) 
1.21008635

$$$$
