
     RDKit          3D

 31 34  0  0  0  0  0  0  0  0999 V2000
   37.5430   22.6960   34.0910 C   0  0  0  0  0  0  0  0  0  0  0  0
   37.0060   21.4670   34.4420 C   0  0  0  0  0  0  0  0  0  0  0  0
   37.0630   21.4590   35.8060 N   0  0  0  0  0  0  0  0  0  0  0  0
   37.5980   22.6090   36.1950 C   0  0  0  0  0  0  0  0  0  0  0  0
   37.9220   23.4320   35.1530 N   0  0  0  0  0  0  0  0  0  0  0  0
   38.4990   24.7140   35.1540 C   0  0  0  0  0  0  0  0  0  0  0  0
   37.6340   25.6900   35.5370 N   0  0  0  0  0  0  0  0  0  0  0  0
   38.0510   26.9840   35.5870 C   0  0  0  0  0  0  0  0  0  0  0  0
   39.3090   27.3120   35.2590 N   0  0  0  0  0  0  0  0  0  0  0  0
   40.1850   26.3890   34.8790 C   0  0  0  0  0  0  0  0  0  0  0  0
   41.4910   26.6900   34.5340 C   0  0  0  0  0  0  0  0  0  0  0  0
   42.3310   25.6660   34.1510 C   0  0  0  0  0  0  0  0  0  0  0  0
   41.9130   24.3430   34.0980 C   0  0  0  0  0  0  0  0  0  0  0  0
   40.5990   24.0180   34.4420 C   0  0  0  0  0  0  0  0  0  0  0  0
   39.8000   25.0720   34.8180 C   0  0  0  0  0  0  0  0  0  0  0  0
   37.6980   23.1780   32.7200 C   0  0  0  0  0  0  0  0  0  0  0  0
   38.6430   22.5950   31.8710 C   0  0  0  0  0  0  0  0  0  0  0  0
   38.7720   23.0760   30.5590 C   0  0  0  0  0  0  0  0  0  0  0  0
   37.9500   24.1050   30.1930 N   0  0  0  0  0  0  0  0  0  0  0  0
   37.0520   24.6470   31.0260 C   0  0  0  0  0  0  0  0  0  0  0  0
   36.9330   24.1820   32.2810 N   0  0  0  0  0  0  0  0  0  0  0  0
   36.6227   20.6803   33.7756 H   0  0  0  0  0  0  0  0  0  0  0  0
   37.7641   22.8735   37.2497 H   0  0  0  0  0  0  0  0  0  0  0  0
   37.3481   27.7701   35.9001 H   0  0  0  0  0  0  0  0  0  0  0  0
   41.8527   27.7284   34.5648 H   0  0  0  0  0  0  0  0  0  0  0  0
   43.3692   25.9056   33.8777 H   0  0  0  0  0  0  0  0  0  0  0  0
   42.6137   23.5543   33.7864 H   0  0  0  0  0  0  0  0  0  0  0  0
   40.2265   22.9834   34.4139 H   0  0  0  0  0  0  0  0  0  0  0  0
   39.2774   21.7698   32.2267 H   0  0  0  0  0  0  0  0  0  0  0  0
   39.5012   22.6448   29.8573 H   0  0  0  0  0  0  0  0  0  0  0  0
   36.4118   25.4730   30.6826 H   0  0  0  0  0  0  0  0  0  0  0  0
  1  2  2  0
  1  5  1  0
  2  3  1  0
  3  4  2  0
  5  6  1  0
  5  4  1  0
  6  7  2  0
  7  8  1  0
  9  8  2  0
 10  9  1  0
 11 10  2  0
 12 11  1  0
 13 12  2  0
 13 14  1  0
 14 15  2  0
 15 10  1  0
 15  6  1  0
 16  1  1  0
 17 16  2  0
 18 17  1  0
 19 18  2  0
 19 20  1  0
 20 21  2  0
 21 16  1  0
  2 22  1  0
  4 23  1  0
  8 24  1  0
 11 25  1  0
 12 26  1  0
 13 27  1  0
 14 28  1  0
 17 29  1  0
 18 30  1  0
 20 31  1  0
M  ISO  8  22  14  23  14  24  14  25  14  26  14  27  14  28  14  29  14
M  ISO  2  30  14  31  14
M  END
>  <minimizedAffinity>  (1) 
-4.53007841

>  <minimizedRMSD>  (1) 
6.79467297

$$$$
