
     RDKit          3D

 29 30  0  0  0  0  0  0  0  0999 V2000
   37.2080   21.9090   35.0530 C   0  0  0  0  0  0  0  0  0  0  0  0
   36.2250   20.9450   35.2510 C   0  0  0  0  0  0  0  0  0  0  0  0
   35.5280   20.5260   34.1310 C   0  0  0  0  0  0  0  0  0  0  0  0
   35.7660   21.0100   32.9060 N   0  0  0  0  0  0  0  0  0  0  0  0
   36.7570   21.9730   32.7380 C   0  0  0  0  0  0  0  0  0  0  0  0
   37.4470   22.3910   33.8290 N   0  0  0  0  0  0  0  0  0  0  0  0
   39.9950   22.6190   37.3210 C   0  0  0  0  0  0  0  0  0  0  0  0
   39.3510   23.3190   38.3860 C   0  0  0  0  0  0  0  0  0  0  0  0
   37.9630   23.5200   38.2820 C   0  0  0  0  0  0  0  0  0  0  0  0
   37.3320   23.0380   37.1770 N   0  0  0  0  0  0  0  0  0  0  0  0
   37.9740   22.3820   36.1880 C   0  0  0  0  0  0  0  0  0  0  0  0
   39.2640   22.1980   36.2930 N   0  0  0  0  0  0  0  0  0  0  0  0
   37.0180   22.5210   31.3840 C   0  0  0  0  0  0  0  0  0  0  0  0
   35.9070   23.5050   31.0500 C   0  0  0  0  0  0  0  0  0  0  0  0
   36.5280   24.7260   30.6010 N   0  0  0  0  0  0  0  0  0  0  0  0
   35.7160   25.7910   31.2380 C   0  0  0  0  0  0  0  0  0  0  0  0
   35.9070   26.9750   30.4860 F   0  0  0  0  0  0  0  0  0  0  0  0
   36.2150   26.0330   32.4820 F   0  0  0  0  0  0  0  0  0  0  0  0
   34.3660   25.5200   31.1780 F   0  0  0  0  0  0  0  0  0  0  0  0
   36.0119   20.5354   36.2494 H   0  0  0  0  0  0  0  0  0  0  0  0
   34.7452   19.7628   34.2528 H   0  0  0  0  0  0  0  0  0  0  0  0
   41.0784   22.4310   37.3505 H   0  0  0  0  0  0  0  0  0  0  0  0
   39.9183   23.6866   39.2538 H   0  0  0  0  0  0  0  0  0  0  0  0
   37.4055   24.0497   39.0685 H   0  0  0  0  0  0  0  0  0  0  0  0
   37.9893   23.0371   31.3716 H   0  0  0  0  0  0  0  0  0  0  0  0
   37.0432   21.7088   30.6426 H   0  0  0  0  0  0  0  0  0  0  0  0
   35.2684   23.0941   30.2542 H   0  0  0  0  0  0  0  0  0  0  0  0
   35.2783   23.6928   31.9329 H   0  0  0  0  0  0  0  0  0  0  0  0
   37.5082   24.7755   30.9134 H   0  0  0  0  0  0  0  0  0  0  0  0
  1  2  2  0
  1 11  1  0
  3  2  1  0
  4  3  2  0
  5  4  1  0
  5  6  2  0
  6  1  1  0
  7  8  2  0
  9  8  1  0
 10  9  2  0
 11 12  2  0
 11 10  1  0
 12  7  1  0
 13  5  1  0
 14 13  1  0
 15 14  1  0
 15 16  1  0
 16 18  1  0
 17 16  1  0
 19 16  1  0
  2 20  1  0
  3 21  1  0
  7 22  1  0
  8 23  1  0
  9 24  1  0
 13 25  1  0
 13 26  1  0
 14 27  1  0
 14 28  1  0
 15 29  1  0
M  ISO  8  20  14  21  14  22  14  23  14  24  14  25   8  26   8  27   8
M  ISO  2  28   8  29   5
M  END
>  <minimizedAffinity>  (1) 
-4.93653584

>  <minimizedRMSD>  (1) 
0.802566111

$$$$
