
     RDKit          3D

 49 52  0  0  1  0  0  0  0  0999 V2000
   36.1230   23.4560   31.0060 C   0  0  0  0  0  0  0  0  0  0  0  0
   37.1500   22.3950   31.3940 C   0  0  0  0  0  0  0  0  0  0  0  0
   37.2200   21.9030   35.0800 C   0  0  0  0  0  0  0  0  0  0  0  0
   36.1980   20.9480   35.2990 C   0  0  0  0  0  0  0  0  0  0  0  0
   35.5310   20.5150   34.1730 C   0  0  0  0  0  0  0  0  0  0  0  0
   35.8090   20.9530   32.9350 N   0  0  0  0  0  0  0  0  0  0  0  0
   36.8050   21.8790   32.7440 C   0  0  0  0  0  0  0  0  0  0  0  0
   37.4800   22.3240   33.8460 N   0  0  0  0  0  0  0  0  0  0  0  0
   39.9710   22.6520   37.3580 C   0  0  0  0  0  0  0  0  0  0  0  0
   39.3080   23.3510   38.4220 C   0  0  0  0  0  0  0  0  0  0  0  0
   37.9290   23.5340   38.3040 C   0  0  0  0  0  0  0  0  0  0  0  0
   37.3220   23.0350   37.1890 N   0  0  0  0  0  0  0  0  0  0  0  0
   37.9500   22.3920   36.2170 C   0  0  0  0  0  0  0  0  0  0  0  0
   39.2510   22.2190   36.3280 N   0  0  0  0  0  0  0  0  0  0  0  0
   36.8630   24.6200   30.6000 N   0  0  0  0  0  0  0  0  0  0  0  0
   36.1700   25.8800   30.8460 C   0  0  1  0  0  0  0  0  0  0  0  0
   34.7360   25.4930   31.2150 C   0  0  0  0  0  0  0  0  0  0  0  0
   36.7990   26.5030   32.0470 C   0  0  0  0  0  0  0  0  0  0  0  0
   36.4520   27.8970   32.3170 C   0  0  0  0  0  0  0  0  0  0  0  0
   35.8990   28.2060   33.5270 N   0  0  0  0  0  0  0  0  0  0  0  0
   35.5500   29.4880   33.8270 C   0  0  0  0  0  0  0  0  0  0  0  0
   35.7120   30.5310   32.9930 N   0  0  0  0  0  0  0  0  0  0  0  0
   36.2600   30.2710   31.7740 C   0  0  0  0  0  0  0  0  0  0  0  0
   36.4520   31.2940   30.8810 C   0  0  0  0  0  0  0  0  0  0  0  0
   37.0040   31.0820   29.6430 C   0  0  0  0  0  0  0  0  0  0  0  0
   37.3510   29.7690   29.3590 C   0  0  0  0  0  0  0  0  0  0  0  0
   37.1700   28.7180   30.2370 C   0  0  0  0  0  0  0  0  0  0  0  0
   36.6200   28.9610   31.4600 C   0  0  0  0  0  0  0  0  0  0  0  0
   35.4999   23.0942   30.1748 H   0  0  0  0  0  0  0  0  0  0  0  0
   35.4551   23.6865   31.8491 H   0  0  0  0  0  0  0  0  0  0  0  0
   37.1272   21.5718   30.6647 H   0  0  0  0  0  0  0  0  0  0  0  0
   38.1594   22.8320   31.4033 H   0  0  0  0  0  0  0  0  0  0  0  0
   35.9518   20.5751   36.3041 H   0  0  0  0  0  0  0  0  0  0  0  0
   34.7292   19.7719   34.2954 H   0  0  0  0  0  0  0  0  0  0  0  0
   41.0565   22.4776   37.3944 H   0  0  0  0  0  0  0  0  0  0  0  0
   39.8633   23.7268   39.2940 H   0  0  0  0  0  0  0  0  0  0  0  0
   37.3541   24.0603   39.0802 H   0  0  0  0  0  0  0  0  0  0  0  0
   37.0532   24.5469   29.5904 H   0  0  0  0  0  0  0  0  0  0  0  0
   36.2096   26.5650   29.9862 H   0  0  0  0  0  0  0  0  0  0  0  0
   34.6339   25.4654   32.3099 H   0  0  0  0  0  0  0  0  0  0  0  0
   34.0377   26.2348   30.8002 H   0  0  0  0  0  0  0  0  0  0  0  0
   34.5057   24.5006   30.8002 H   0  0  0  0  0  0  0  0  0  0  0  0
   36.5036   25.9093   32.9246 H   0  0  0  0  0  0  0  0  0  0  0  0
   37.8794   26.5072   31.8401 H   0  0  0  0  0  0  0  0  0  0  0  0
   35.1072   29.6830   34.8149 H   0  0  0  0  0  0  0  0  0  0  0  0
   36.1548   32.3141   31.1656 H   0  0  0  0  0  0  0  0  0  0  0  0
   37.1611   31.8989   28.9233 H   0  0  0  0  0  0  0  0  0  0  0  0
   37.7965   29.5522   28.3769 H   0  0  0  0  0  0  0  0  0  0  0  0
   37.4662   27.6975   29.9525 H   0  0  0  0  0  0  0  0  0  0  0  0
  1  2  1  0
  2  7  1  0
  3  4  2  0
  3 13  1  0
  5  4  1  0
  6  5  2  0
  7  6  1  0
  7  8  2  0
  8  3  1  0
  9 10  2  0
 11 10  1  0
 12 11  2  0
 13 14  2  0
 13 12  1  0
 14  9  1  0
 15 16  1  0
 15  1  1  0
 16 17  1  0
 16 18  1  0
 18 19  1  0
 19 20  2  0
 20 21  1  0
 22 21  2  0
 23 22  1  0
 24 23  2  0
 25 24  1  0
 26 25  2  0
 26 27  1  0
 27 28  2  0
 28 23  1  0
 28 19  1  0
  1 29  1  0
  1 30  1  0
  2 31  1  0
  2 32  1  0
  4 33  1  0
  5 34  1  0
  9 35  1  0
 10 36  1  0
 11 37  1  0
 15 38  1  0
 16 39  1  6
 17 40  1  0
 17 41  1  0
 17 42  1  0
 18 43  1  0
 18 44  1  0
 21 45  1  0
 24 46  1  0
 25 47  1  0
 26 48  1  0
 27 49  1  0
M  ISO  8  29   8  30   8  31   8  32   8  33  14  34  14  35  14  36  14
M  ISO  8  37  14  38   5  39   8  40   8  41   8  42   8  43   8  44   8
M  ISO  5  45  14  46  14  47  14  48  14  49  14
M  END
>  <minimizedAffinity>  (1) 
-5.87441397

>  <minimizedRMSD>  (1) 
1.52043259

$$$$
