
     RDKit          3D

 48 50  0  0  1  0  0  0  0  0999 V2000
   36.5270   22.9550   30.7950 C   0  0  0  0  0  0  0  0  0  0  0  0
   37.5750   22.0530   31.4610 C   0  0  0  0  0  0  0  0  0  0  0  0
   37.3180   21.9000   35.1600 C   0  0  0  0  0  0  0  0  0  0  0  0
   36.2070   21.0430   35.3730 C   0  0  0  0  0  0  0  0  0  0  0  0
   35.5970   20.5570   34.2410 C   0  0  0  0  0  0  0  0  0  0  0  0
   36.0100   20.8610   32.9920 N   0  0  0  0  0  0  0  0  0  0  0  0
   37.0800   21.6870   32.8130 C   0  0  0  0  0  0  0  0  0  0  0  0
   37.7070   22.1860   33.9240 N   0  0  0  0  0  0  0  0  0  0  0  0
   39.9450   22.7410   37.5530 C   0  0  0  0  0  0  0  0  0  0  0  0
   39.2410   23.4800   38.5420 C   0  0  0  0  0  0  0  0  0  0  0  0
   37.8700   23.6630   38.3450 C   0  0  0  0  0  0  0  0  0  0  0  0
   37.2910   23.1230   37.2180 N   0  0  0  0  0  0  0  0  0  0  0  0
   37.9910   22.4340   36.3120 C   0  0  0  0  0  0  0  0  0  0  0  0
   39.2750   22.2740   36.5160 N   0  0  0  0  0  0  0  0  0  0  0  0
   37.1660   24.1880   30.5190 N   0  0  0  0  0  0  0  0  0  0  0  0
   36.4900   25.3720   31.0230 C   0  0  1  0  0  0  0  0  0  0  0  0
   35.0260   24.9910   31.0960 C   0  0  0  0  0  0  0  0  0  0  0  0
   37.0040   25.6200   32.4100 C   0  0  0  0  0  0  0  0  0  0  0  0
   36.6660   26.9230   32.9430 N   0  0  0  0  0  0  0  0  0  0  0  0
   36.1860   28.0220   32.3390 C   0  0  0  0  0  0  0  0  0  0  0  0
   35.9310   29.1600   33.0600 C   0  0  0  0  0  0  0  0  0  0  0  0
   35.4060   30.3110   32.3030 C   0  0  0  0  0  0  0  0  0  0  0  0
   36.1560   29.2220   34.4240 C   0  0  0  0  0  0  0  0  0  0  0  0
   35.9140   30.2890   35.0740 O   0  0  0  0  0  0  0  0  0  0  0  0
   36.6320   28.1240   35.0030 N   0  0  0  0  0  0  0  0  0  0  0  0
   36.8830   27.0020   34.2900 C   0  0  0  0  0  0  0  0  0  0  0  0
   37.3350   26.0390   34.9980 O   0  0  0  0  0  0  0  0  0  0  0  0
   36.1703   22.4958   29.8613 H   0  0  0  0  0  0  0  0  0  0  0  0
   35.6559   23.0995   31.4510 H   0  0  0  0  0  0  0  0  0  0  0  0
   37.7206   21.1439   30.8590 H   0  0  0  0  0  0  0  0  0  0  0  0
   38.5369   22.5810   31.5384 H   0  0  0  0  0  0  0  0  0  0  0  0
   35.8554   20.7834   36.3825 H   0  0  0  0  0  0  0  0  0  0  0  0
   34.7312   19.8887   34.3583 H   0  0  0  0  0  0  0  0  0  0  0  0
   41.0260   22.5619   37.6497 H   0  0  0  0  0  0  0  0  0  0  0  0
   39.7535   23.8903   39.4246 H   0  0  0  0  0  0  0  0  0  0  0  0
   37.2670   24.2253   39.0731 H   0  0  0  0  0  0  0  0  0  0  0  0
   38.1068   24.1580   30.9372 H   0  0  0  0  0  0  0  0  0  0  0  0
   36.6476   26.2658   30.4016 H   0  0  0  0  0  0  0  0  0  0  0  0
   34.7199   24.9114   32.1496 H   0  0  0  0  0  0  0  0  0  0  0  0
   34.4212   25.7617   30.5957 H   0  0  0  0  0  0  0  0  0  0  0  0
   34.8736   24.0233   30.5957 H   0  0  0  0  0  0  0  0  0  0  0  0
   36.5813   24.8541   33.0768 H   0  0  0  0  0  0  0  0  0  0  0  0
   38.1017   25.5762   32.3533 H   0  0  0  0  0  0  0  0  0  0  0  0
   35.9956   28.0092   31.2557 H   0  0  0  0  0  0  0  0  0  0  0  0
   35.0544   31.0818   33.0047 H   0  0  0  0  0  0  0  0  0  0  0  0
   36.2031   30.7277   31.6698 H   0  0  0  0  0  0  0  0  0  0  0  0
   34.5688   29.9823   31.6698 H   0  0  0  0  0  0  0  0  0  0  0  0
   36.8137   28.1276   36.0168 H   0  0  0  0  0  0  0  0  0  0  0  0
  1  2  1  0
  2  7  1  0
  3  4  2  0
  3 13  1  0
  5  4  1  0
  6  5  2  0
  7  6  1  0
  7  8  2  0
  8  3  1  0
  9 10  2  0
 11 10  1  0
 12 11  2  0
 13 14  2  0
 13 12  1  0
 14  9  1  0
 15  1  1  0
 15 16  1  0
 16 17  1  0
 16 18  1  0
 18 19  1  0
 19 26  1  0
 20 19  1  0
 20 21  2  0
 21 23  1  0
 22 21  1  0
 23 25  1  0
 23 24  2  0
 26 27  2  0
 26 25  1  0
  1 28  1  0
  1 29  1  0
  2 30  1  0
  2 31  1  0
  4 32  1  0
  5 33  1  0
  9 34  1  0
 10 35  1  0
 11 36  1  0
 15 37  1  0
 16 38  1  6
 17 39  1  0
 17 40  1  0
 17 41  1  0
 18 42  1  0
 18 43  1  0
 20 44  1  0
 22 45  1  0
 22 46  1  0
 22 47  1  0
 25 48  1  0
M  ISO  8  28   8  29   8  30   8  31   8  32  14  33  14  34  14  35  14
M  ISO  8  36  14  37   5  38   8  39   8  40   8  41   8  42   8  43   8
M  ISO  5  44  14  45   8  46   8  47   8  48   9
M  END
>  <minimizedAffinity>  (1) 
-5.65790272

>  <minimizedRMSD>  (1) 
1.08568013

$$$$
