
     RDKit          3D

 45 47  0  0  1  0  0  0  0  0999 V2000
   36.1720   23.5310   31.0100 C   0  0  0  0  0  0  0  0  0  0  0  0
   37.1860   22.4450   31.3840 C   0  0  0  0  0  0  0  0  0  0  0  0
   37.2400   21.9200   35.0570 C   0  0  0  0  0  0  0  0  0  0  0  0
   36.2090   20.9680   35.2620 C   0  0  0  0  0  0  0  0  0  0  0  0
   35.5440   20.5500   34.1390 C   0  0  0  0  0  0  0  0  0  0  0  0
   35.8310   21.0000   32.8940 N   0  0  0  0  0  0  0  0  0  0  0  0
   36.8360   21.9220   32.7370 C   0  0  0  0  0  0  0  0  0  0  0  0
   37.5260   22.3650   33.8350 N   0  0  0  0  0  0  0  0  0  0  0  0
   39.9650   22.6500   37.3850 C   0  0  0  0  0  0  0  0  0  0  0  0
   39.3010   23.3480   38.4370 C   0  0  0  0  0  0  0  0  0  0  0  0
   37.9080   23.5460   38.3020 C   0  0  0  0  0  0  0  0  0  0  0  0
   37.3170   23.0510   37.1740 N   0  0  0  0  0  0  0  0  0  0  0  0
   37.9770   22.3990   36.2060 C   0  0  0  0  0  0  0  0  0  0  0  0
   39.2560   22.2230   36.3410 N   0  0  0  0  0  0  0  0  0  0  0  0
   36.9200   24.7090   30.7260 N   0  0  0  0  0  0  0  0  0  0  0  0
   36.1980   25.9590   30.9390 C   0  0  1  0  0  0  0  0  0  0  0  0
   34.7440   25.5740   31.0470 C   0  0  0  0  0  0  0  0  0  0  0  0
   36.6780   26.5160   32.2390 C   0  0  0  0  0  0  0  0  0  0  0  0
   36.3200   27.9060   32.5140 C   0  0  0  0  0  0  0  0  0  0  0  0
   36.1340   28.9540   31.6390 C   0  0  0  0  0  0  0  0  0  0  0  0
   35.7960   30.2020   32.1130 C   0  0  0  0  0  0  0  0  0  0  0  0
   35.6290   30.4750   33.4550 C   0  0  0  0  0  0  0  0  0  0  0  0
   35.8090   29.4450   34.3460 C   0  0  0  0  0  0  0  0  0  0  0  0
   36.1470   28.1940   33.8730 C   0  0  0  0  0  0  0  0  0  0  0  0
   35.5973   23.2240   30.1237 H   0  0  0  0  0  0  0  0  0  0  0  0
   35.4574   23.7037   31.8282 H   0  0  0  0  0  0  0  0  0  0  0  0
   37.1451   21.6287   30.6478 H   0  0  0  0  0  0  0  0  0  0  0  0
   38.2034   22.8632   31.3912 H   0  0  0  0  0  0  0  0  0  0  0  0
   35.9580   20.5876   36.2631 H   0  0  0  0  0  0  0  0  0  0  0  0
   34.7366   19.8119   34.2544 H   0  0  0  0  0  0  0  0  0  0  0  0
   41.0485   22.4667   37.4351 H   0  0  0  0  0  0  0  0  0  0  0  0
   39.8498   23.7166   39.3162 H   0  0  0  0  0  0  0  0  0  0  0  0
   37.3257   24.0750   39.0708 H   0  0  0  0  0  0  0  0  0  0  0  0
   37.2129   24.6724   29.7392 H   0  0  0  0  0  0  0  0  0  0  0  0
   36.3465   26.7005   30.1402 H   0  0  0  0  0  0  0  0  0  0  0  0
   34.4623   25.4994   32.1077 H   0  0  0  0  0  0  0  0  0  0  0  0
   34.1247   26.3391   30.5560 H   0  0  0  0  0  0  0  0  0  0  0  0
   34.5845   24.6027   30.5560 H   0  0  0  0  0  0  0  0  0  0  0  0
   36.2601   25.8954   33.0454 H   0  0  0  0  0  0  0  0  0  0  0  0
   37.7763   26.4998   32.1800 H   0  0  0  0  0  0  0  0  0  0  0  0
   36.2560   28.7932   30.5577 H   0  0  0  0  0  0  0  0  0  0  0  0
   35.6527   31.0178   31.3892 H   0  0  0  0  0  0  0  0  0  0  0  0
   35.3605   31.4843   33.8002 H   0  0  0  0  0  0  0  0  0  0  0  0
   35.6849   29.6160   35.4255 H   0  0  0  0  0  0  0  0  0  0  0  0
   36.2878   27.3813   34.6008 H   0  0  0  0  0  0  0  0  0  0  0  0
  1  2  1  0
  2  7  1  0
  3  4  2  0
  3 13  1  0
  5  4  1  0
  6  5  2  0
  7  6  1  0
  7  8  2  0
  8  3  1  0
  9 10  2  0
 11 10  1  0
 12 11  2  0
 13 14  2  0
 13 12  1  0
 14  9  1  0
 15 16  1  0
 15  1  1  0
 16 17  1  0
 16 18  1  0
 18 19  1  0
 19 24  2  0
 20 21  2  0
 20 19  1  0
 21 22  1  0
 22 23  2  0
 24 23  1  0
  1 25  1  0
  1 26  1  0
  2 27  1  0
  2 28  1  0
  4 29  1  0
  5 30  1  0
  9 31  1  0
 10 32  1  0
 11 33  1  0
 15 34  1  0
 16 35  1  6
 17 36  1  0
 17 37  1  0
 17 38  1  0
 18 39  1  0
 18 40  1  0
 20 41  1  0
 21 42  1  0
 22 43  1  0
 23 44  1  0
 24 45  1  0
M  ISO  8  25   8  26   8  27   8  28   8  29  14  30  14  31  14  32  14
M  ISO  8  33  14  34   5  35   8  36   8  37   8  38   8  39   8  40   8
M  ISO  5  41  14  42  14  43  14  44  14  45  14
M  END
>  <minimizedAffinity>  (1) 
-5.53649235

>  <minimizedRMSD>  (1) 
1.04312968

$$$$
