
     RDKit          3D

 48 51  0  0  1  0  0  0  0  0999 V2000
   36.0860   23.4790   31.0210 C   0  0  0  0  0  0  0  0  0  0  0  0
   37.1470   22.4410   31.3980 C   0  0  0  0  0  0  0  0  0  0  0  0
   37.2180   21.9060   35.0770 C   0  0  0  0  0  0  0  0  0  0  0  0
   36.2060   20.9460   35.2890 C   0  0  0  0  0  0  0  0  0  0  0  0
   35.5430   20.5250   34.1680 C   0  0  0  0  0  0  0  0  0  0  0  0
   35.8150   20.9760   32.9250 N   0  0  0  0  0  0  0  0  0  0  0  0
   36.8090   21.9120   32.7470 C   0  0  0  0  0  0  0  0  0  0  0  0
   37.4900   22.3540   33.8470 N   0  0  0  0  0  0  0  0  0  0  0  0
   39.9760   22.6530   37.3710 C   0  0  0  0  0  0  0  0  0  0  0  0
   39.3160   23.3490   38.4260 C   0  0  0  0  0  0  0  0  0  0  0  0
   37.9290   23.5370   38.3030 C   0  0  0  0  0  0  0  0  0  0  0  0
   37.3110   23.0450   37.1940 N   0  0  0  0  0  0  0  0  0  0  0  0
   37.9580   22.3950   36.2220 C   0  0  0  0  0  0  0  0  0  0  0  0
   39.2510   22.2240   36.3430 N   0  0  0  0  0  0  0  0  0  0  0  0
   36.7880   24.6860   30.7390 N   0  0  0  0  0  0  0  0  0  0  0  0
   35.9510   25.8800   30.7190 C   0  0  1  0  0  0  0  0  0  0  0  0
   34.5340   25.3950   30.9440 C   0  0  0  0  0  0  0  0  0  0  0  0
   36.3500   26.7240   31.9200 C   0  0  0  0  0  0  0  0  0  0  0  0
   36.2910   28.1280   31.6560 N   0  0  0  0  0  0  0  0  0  0  0  0
   36.4790   28.8080   30.5090 C   0  0  0  0  0  0  0  0  0  0  0  0
   36.3250   30.1420   30.7160 N   0  0  0  0  0  0  0  0  0  0  0  0
   36.0340   30.3540   32.0040 C   0  0  0  0  0  0  0  0  0  0  0  0
   35.7750   31.4540   32.7980 C   0  0  0  0  0  0  0  0  0  0  0  0
   35.5080   31.3030   34.1130 N   0  0  0  0  0  0  0  0  0  0  0  0
   35.4940   30.0540   34.6640 C   0  0  0  0  0  0  0  0  0  0  0  0
   35.7450   28.9630   33.9050 N   0  0  0  0  0  0  0  0  0  0  0  0
   36.0160   29.0990   32.5760 C   0  0  0  0  0  0  0  0  0  0  0  0
   35.8000   32.7390   32.1810 N   0  0  0  0  0  0  0  0  0  0  0  0
   35.5275   23.1472   30.1333 H   0  0  0  0  0  0  0  0  0  0  0  0
   35.3592   23.6206   31.8345 H   0  0  0  0  0  0  0  0  0  0  0  0
   37.1459   21.6217   30.6640 H   0  0  0  0  0  0  0  0  0  0  0  0
   38.1468   22.8997   31.4054 H   0  0  0  0  0  0  0  0  0  0  0  0
   35.9653   20.5607   36.2908 H   0  0  0  0  0  0  0  0  0  0  0  0
   34.7444   19.7779   34.2865 H   0  0  0  0  0  0  0  0  0  0  0  0
   41.0609   22.4751   37.4071 H   0  0  0  0  0  0  0  0  0  0  0  0
   39.8696   23.7232   39.2998 H   0  0  0  0  0  0  0  0  0  0  0  0
   37.3587   24.0665   39.0804 H   0  0  0  0  0  0  0  0  0  0  0  0
   37.5128   24.8129   31.4598 H   0  0  0  0  0  0  0  0  0  0  0  0
   36.0485   26.4531   29.7852 H   0  0  0  0  0  0  0  0  0  0  0  0
   34.3367   25.3275   32.0241 H   0  0  0  0  0  0  0  0  0  0  0  0
   33.8272   26.1024   30.4857 H   0  0  0  0  0  0  0  0  0  0  0  0
   34.4089   24.4029   30.4857 H   0  0  0  0  0  0  0  0  0  0  0  0
   35.6689   26.4942   32.7526 H   0  0  0  0  0  0  0  0  0  0  0  0
   37.3934   26.4772   32.1656 H   0  0  0  0  0  0  0  0  0  0  0  0
   36.7231   28.3479   29.5401 H   0  0  0  0  0  0  0  0  0  0  0  0
   35.2765   29.9338   35.7356 H   0  0  0  0  0  0  0  0  0  0  0  0
   35.6118   33.5828   32.7408 H   0  0  0  0  0  0  0  0  0  0  0  0
   36.0063   32.8235   31.1754 H   0  0  0  0  0  0  0  0  0  0  0  0
  1  2  1  0
  2  7  1  0
  3  4  2  0
  3 13  1  0
  5  4  1  0
  6  5  2  0
  7  6  1  0
  7  8  2  0
  8  3  1  0
  9 10  2  0
 11 10  1  0
 12 11  2  0
 13 14  2  0
 13 12  1  0
 14  9  1  0
 15  1  1  0
 16 15  1  0
 16 17  1  0
 16 18  1  0
 19 18  1  0
 19 27  1  0
 20 21  2  0
 20 19  1  0
 21 22  1  0
 22 27  2  0
 22 23  1  0
 23 24  2  0
 24 25  1  0
 26 25  2  0
 27 26  1  0
 28 23  1  0
  1 29  1  0
  1 30  1  0
  2 31  1  0
  2 32  1  0
  4 33  1  0
  5 34  1  0
  9 35  1  0
 10 36  1  0
 11 37  1  0
 15 38  1  0
 16 39  1  6
 17 40  1  0
 17 41  1  0
 17 42  1  0
 18 43  1  0
 18 44  1  0
 20 45  1  0
 25 46  1  0
 28 47  1  0
 28 48  1  0
M  ISO  8  29   8  30   8  31   8  32   8  33  14  34  14  35  14  36  14
M  ISO  8  37  14  38   5  39   8  40   8  41   8  42   8  43   8  44   8
M  ISO  2  45  14  46  14
M  END
>  <minimizedAffinity>  (1) 
-5.71946335

>  <minimizedRMSD>  (1) 
2.05636764

$$$$
