
     RDKit          3D

 48 50  0  0  1  0  0  0  0  0999 V2000
   37.0840   22.4110   31.2140 C   0  0  0  0  0  0  0  0  0  0  0  0
   37.1510   21.8470   34.8910 C   0  0  0  0  0  0  0  0  0  0  0  0
   36.1430   20.8690   35.0820 C   0  0  0  0  0  0  0  0  0  0  0  0
   35.4940   20.4530   33.9460 C   0  0  0  0  0  0  0  0  0  0  0  0
   35.7750   20.9260   32.7200 N   0  0  0  0  0  0  0  0  0  0  0  0
   36.7490   21.8680   32.5590 C   0  0  0  0  0  0  0  0  0  0  0  0
   37.4190   22.3080   33.6650 N   0  0  0  0  0  0  0  0  0  0  0  0
   39.8850   22.6550   37.1760 C   0  0  0  0  0  0  0  0  0  0  0  0
   39.2060   23.2570   38.2690 C   0  0  0  0  0  0  0  0  0  0  0  0
   37.8130   23.3670   38.1860 C   0  0  0  0  0  0  0  0  0  0  0  0
   37.2160   22.8870   37.0550 N   0  0  0  0  0  0  0  0  0  0  0  0
   37.8710   22.3270   36.0430 C   0  0  0  0  0  0  0  0  0  0  0  0
   39.1750   22.2350   36.1470 N   0  0  0  0  0  0  0  0  0  0  0  0
   36.2650   23.6910   31.0010 C   0  0  0  0  0  0  0  0  0  0  0  0
   37.1940   24.6990   30.6210 N   0  0  0  0  0  0  0  0  0  0  0  0
   37.0380   25.9620   31.2980 C   0  0  1  0  0  0  0  0  0  0  0  0
   35.5420   26.2950   31.1910 C   0  0  0  0  0  0  0  0  0  0  0  0
   37.3190   25.7330   32.7570 C   0  0  0  0  0  0  0  0  0  0  0  0
   37.7970   26.9830   33.3160 N   0  0  0  0  0  0  0  0  0  0  0  0
   39.2450   27.0080   33.4150 C   0  0  0  0  0  0  0  0  0  0  0  0
   39.7250   26.7830   34.8410 C   0  0  0  0  0  0  0  0  0  0  0  0
   38.9870   25.7010   35.3620 O   0  0  0  0  0  0  0  0  0  0  0  0
   37.6470   26.0540   35.5050 C   0  0  0  0  0  0  0  0  0  0  0  0
   37.2720   27.2250   34.6480 C   0  0  0  0  0  0  0  0  0  0  0  0
   38.1581   22.6423   31.1619 H   0  0  0  0  0  0  0  0  0  0  0  0
   36.8473   21.6721   30.4342 H   0  0  0  0  0  0  0  0  0  0  0  0
   35.8965   20.4690   36.0766 H   0  0  0  0  0  0  0  0  0  0  0  0
   34.7039   19.6940   34.0444 H   0  0  0  0  0  0  0  0  0  0  0  0
   40.9791   22.5416   37.1877 H   0  0  0  0  0  0  0  0  0  0  0  0
   39.7551   23.6235   39.1489 H   0  0  0  0  0  0  0  0  0  0  0  0
   37.2242   23.8206   38.9969 H   0  0  0  0  0  0  0  0  0  0  0  0
   35.5206   23.5393   30.2055 H   0  0  0  0  0  0  0  0  0  0  0  0
   35.7186   23.9732   31.9130 H   0  0  0  0  0  0  0  0  0  0  0  0
   38.1427   24.3480   30.8153 H   0  0  0  0  0  0  0  0  0  0  0  0
   37.6913   26.7435   30.8829 H   0  0  0  0  0  0  0  0  0  0  0  0
   35.1145   26.3902   32.2000 H   0  0  0  0  0  0  0  0  0  0  0  0
   35.4154   27.2433   30.6482 H   0  0  0  0  0  0  0  0  0  0  0  0
   35.0251   25.4899   30.6482 H   0  0  0  0  0  0  0  0  0  0  0  0
   36.3982   25.4206   33.2712 H   0  0  0  0  0  0  0  0  0  0  0  0
   38.0720   24.9413   32.8845 H   0  0  0  0  0  0  0  0  0  0  0  0
   39.6582   26.2164   32.7726 H   0  0  0  0  0  0  0  0  0  0  0  0
   39.5894   28.0024   33.0946 H   0  0  0  0  0  0  0  0  0  0  0  0
   40.7986   26.5435   34.8442 H   0  0  0  0  0  0  0  0  0  0  0  0
   39.5772   27.6867   35.4505 H   0  0  0  0  0  0  0  0  0  0  0  0
   37.0226   25.1939   35.2215 H   0  0  0  0  0  0  0  0  0  0  0  0
   37.4848   26.3400   36.5547 H   0  0  0  0  0  0  0  0  0  0  0  0
   37.7082   28.1465   35.0610 H   0  0  0  0  0  0  0  0  0  0  0  0
   36.1790   27.3445   34.6156 H   0  0  0  0  0  0  0  0  0  0  0  0
  1  6  1  0
  2  3  2  0
  2 12  1  0
  4  3  1  0
  5  4  2  0
  6  5  1  0
  6  7  2  0
  7  2  1  0
  8  9  2  0
 10  9  1  0
 11 10  2  0
 12 13  2  0
 12 11  1  0
 13  8  1  0
 14  1  1  0
 15 14  1  0
 15 16  1  0
 16 18  1  0
 17 16  1  0
 18 19  1  0
 19 20  1  0
 19 24  1  0
 20 21  1  0
 21 22  1  0
 22 23  1  0
 24 23  1  0
  1 25  1  0
  1 26  1  0
  3 27  1  0
  4 28  1  0
  8 29  1  0
  9 30  1  0
 10 31  1  0
 14 32  1  0
 14 33  1  0
 15 34  1  0
 16 35  1  6
 17 36  1  0
 17 37  1  0
 17 38  1  0
 18 39  1  0
 18 40  1  0
 20 41  1  0
 20 42  1  0
 21 43  1  0
 21 44  1  0
 23 45  1  0
 23 46  1  0
 24 47  1  0
 24 48  1  0
M  ISO  8  25   8  26   8  27  14  28  14  29  14  30  14  31  14  32   8
M  ISO  8  33   8  34   5  35   8  36   8  37   8  38   8  39   8  40   8
M  ISO  8  41  13  42  13  43  13  44  13  45  13  46  13  47  13  48  13
M  END
>  <minimizedAffinity>  (1) 
-5.30213356

>  <minimizedRMSD>  (1) 
1.2905643

$$$$
