
     RDKit          3D

 42 44  0  0  1  0  0  0  0  0999 V2000
   37.3880   22.1530   31.4250 C   0  0  0  0  0  0  0  0  0  0  0  0
   37.2640   21.8820   35.1250 C   0  0  0  0  0  0  0  0  0  0  0  0
   36.1830   20.9950   35.3450 C   0  0  0  0  0  0  0  0  0  0  0  0
   35.5500   20.5340   34.2130 C   0  0  0  0  0  0  0  0  0  0  0  0
   35.9090   20.8840   32.9710 N   0  0  0  0  0  0  0  0  0  0  0  0
   36.9630   21.7470   32.7790 C   0  0  0  0  0  0  0  0  0  0  0  0
   37.6090   22.2190   33.8850 N   0  0  0  0  0  0  0  0  0  0  0  0
   39.9400   22.7170   37.4680 C   0  0  0  0  0  0  0  0  0  0  0  0
   39.2570   23.4320   38.4820 C   0  0  0  0  0  0  0  0  0  0  0  0
   37.8770   23.6090   38.3280 C   0  0  0  0  0  0  0  0  0  0  0  0
   37.3090   23.0710   37.2040 N   0  0  0  0  0  0  0  0  0  0  0  0
   37.9730   22.4040   36.2680 C   0  0  0  0  0  0  0  0  0  0  0  0
   39.2570   22.2500   36.4290 N   0  0  0  0  0  0  0  0  0  0  0  0
   36.3460   23.1380   30.8730 C   0  0  0  0  0  0  0  0  0  0  0  0
   37.0420   24.3420   30.5590 N   0  0  0  0  0  0  0  0  0  0  0  0
   36.4040   25.5560   31.0250 C   0  0  1  0  0  0  0  0  0  0  0  0
   34.8990   25.2510   31.0130 C   0  0  0  0  0  0  0  0  0  0  0  0
   36.7980   25.7480   32.4690 C   0  0  0  0  0  0  0  0  0  0  0  0
   36.5060   27.0790   32.9650 N   0  0  0  0  0  0  0  0  0  0  0  0
   36.7380   27.3350   34.2700 C   0  0  0  0  0  0  0  0  0  0  0  0
   36.4000   28.6390   34.5400 C   0  0  0  0  0  0  0  0  0  0  0  0
   35.9580   29.1760   33.3760 N   0  0  0  0  0  0  0  0  0  0  0  0
   36.0290   28.2250   32.4440 C   0  0  0  0  0  0  0  0  0  0  0  0
   38.3728   22.6406   31.4738 H   0  0  0  0  0  0  0  0  0  0  0  0
   37.4650   21.2728   30.7698 H   0  0  0  0  0  0  0  0  0  0  0  0
   35.8691   20.6936   36.3553 H   0  0  0  0  0  0  0  0  0  0  0  0
   34.7043   19.8413   34.3349 H   0  0  0  0  0  0  0  0  0  0  0  0
   41.0249   22.5502   37.5402 H   0  0  0  0  0  0  0  0  0  0  0  0
   39.7903   23.8327   39.3567 H   0  0  0  0  0  0  0  0  0  0  0  0
   37.2783   24.1534   39.0731 H   0  0  0  0  0  0  0  0  0  0  0  0
   35.8768   22.7249   29.9679 H   0  0  0  0  0  0  0  0  0  0  0  0
   35.5497   23.3232   31.6090 H   0  0  0  0  0  0  0  0  0  0  0  0
   37.9788   24.2898   30.9838 H   0  0  0  0  0  0  0  0  0  0  0  0
   36.6728   26.4340   30.4194 H   0  0  0  0  0  0  0  0  0  0  0  0
   34.5317   25.1766   32.0472 H   0  0  0  0  0  0  0  0  0  0  0  0
   34.3652   26.0592   30.4916 H   0  0  0  0  0  0  0  0  0  0  0  0
   34.7220   24.2987   30.4916 H   0  0  0  0  0  0  0  0  0  0  0  0
   36.2494   25.0176   33.0819 H   0  0  0  0  0  0  0  0  0  0  0  0
   37.8866   25.6046   32.5343 H   0  0  0  0  0  0  0  0  0  0  0  0
   37.1344   26.6145   35.0006 H   0  0  0  0  0  0  0  0  0  0  0  0
   36.4737   29.1486   35.5120 H   0  0  0  0  0  0  0  0  0  0  0  0
   35.7373   28.3588   31.3919 H   0  0  0  0  0  0  0  0  0  0  0  0
  1  6  1  0
  2  3  2  0
  2 12  1  0
  4  3  1  0
  5  4  2  0
  6  5  1  0
  6  7  2  0
  7  2  1  0
  8  9  2  0
 10  9  1  0
 11 10  2  0
 12 13  2  0
 12 11  1  0
 13  8  1  0
 14  1  1  0
 15 14  1  0
 15 16  1  0
 16 18  1  0
 17 16  1  0
 18 19  1  0
 19 20  1  0
 20 21  2  0
 22 21  1  0
 23 19  1  0
 23 22  2  0
  1 24  1  0
  1 25  1  0
  3 26  1  0
  4 27  1  0
  8 28  1  0
  9 29  1  0
 10 30  1  0
 14 31  1  0
 14 32  1  0
 15 33  1  0
 16 34  1  6
 17 35  1  0
 17 36  1  0
 17 37  1  0
 18 38  1  0
 18 39  1  0
 20 40  1  0
 21 41  1  0
 23 42  1  0
M  ISO  8  24   8  25   8  26  14  27  14  28  14  29  14  30  14  31   8
M  ISO  8  32   8  33   5  34   8  35   8  36   8  37   8  38   8  39   8
M  ISO  3  40  14  41  14  42  14
M  END
>  <minimizedAffinity>  (1) 
-5.04489183

>  <minimizedRMSD>  (1) 
0.348945647

$$$$
