
     RDKit          3D

 45 47  0  0  1  0  0  0  0  0999 V2000
   36.1130   23.2740   31.0700 C   0  0  0  0  0  0  0  0  0  0  0  0
   37.1780   22.3580   31.5970 C   0  0  0  0  0  0  0  0  0  0  0  0
   37.2790   21.9590   35.2520 C   0  0  0  0  0  0  0  0  0  0  0  0
   36.2580   21.0050   35.5040 C   0  0  0  0  0  0  0  0  0  0  0  0
   35.5800   20.5390   34.4050 C   0  0  0  0  0  0  0  0  0  0  0  0
   35.8480   20.9490   33.1430 N   0  0  0  0  0  0  0  0  0  0  0  0
   36.8380   21.8690   32.9410 C   0  0  0  0  0  0  0  0  0  0  0  0
   37.5330   22.3530   34.0110 N   0  0  0  0  0  0  0  0  0  0  0  0
   39.9890   22.6930   37.5720 C   0  0  0  0  0  0  0  0  0  0  0  0
   39.3770   23.5010   38.5280 C   0  0  0  0  0  0  0  0  0  0  0  0
   38.0420   23.7770   38.3460 C   0  0  0  0  0  0  0  0  0  0  0  0
   37.4100   23.2520   37.2560 N   0  0  0  0  0  0  0  0  0  0  0  0
   38.0220   22.4840   36.3640 C   0  0  0  0  0  0  0  0  0  0  0  0
   39.2850   22.2370   36.5570 N   0  0  0  0  0  0  0  0  0  0  0  0
   36.2660   24.5540   31.5680 N   0  0  0  0  0  0  0  0  0  0  0  0
   35.7900   25.6770   30.8480 C   0  0  1  0  0  0  0  0  0  0  0  0
   34.3000   25.4140   30.5890 C   0  0  0  0  0  0  0  0  0  0  0  0
   35.8660   26.8440   31.7760 C   0  0  0  0  0  0  0  0  0  0  0  0
   37.2060   26.9130   32.3930 C   0  0  0  0  0  0  0  0  0  0  0  0
   38.4530   27.2510   31.9650 C   0  0  0  0  0  0  0  0  0  0  0  0
   39.2790   27.1430   33.1000 C   0  0  0  0  0  0  0  0  0  0  0  0
   38.4910   26.7450   34.1650 N   0  0  0  0  0  0  0  0  0  0  0  0
   37.2390   26.6010   33.7320 N   0  0  0  0  0  0  0  0  0  0  0  0
   39.4490   26.7730   35.2570 C   0  0  0  0  0  0  0  0  0  0  0  0
   40.7370   27.0740   34.8330 F   0  0  0  0  0  0  0  0  0  0  0  0
   39.0170   27.3620   36.3820 F   0  0  0  0  0  0  0  0  0  0  0  0
   39.7150   25.4250   35.7300 F   0  0  0  0  0  0  0  0  0  0  0  0
   35.1272   22.8879   31.3685 H   0  0  0  0  0  0  0  0  0  0  0  0
   36.1973   23.3134   29.9739 H   0  0  0  0  0  0  0  0  0  0  0  0
   37.2814   21.4990   30.9177 H   0  0  0  0  0  0  0  0  0  0  0  0
   38.1224   22.9188   31.6578 H   0  0  0  0  0  0  0  0  0  0  0  0
   36.0237   20.6591   36.5216 H   0  0  0  0  0  0  0  0  0  0  0  0
   34.7816   19.7978   34.5570 H   0  0  0  0  0  0  0  0  0  0  0  0
   41.0549   22.4373   37.6647 H   0  0  0  0  0  0  0  0  0  0  0  0
   39.9354   23.8994   39.3879 H   0  0  0  0  0  0  0  0  0  0  0  0
   37.4955   24.4071   39.0632 H   0  0  0  0  0  0  0  0  0  0  0  0
   35.7938   24.5709   32.4832 H   0  0  0  0  0  0  0  0  0  0  0  0
   36.3536   25.8532   29.9199 H   0  0  0  0  0  0  0  0  0  0  0  0
   33.7718   25.3208   31.5494 H   0  0  0  0  0  0  0  0  0  0  0  0
   33.8741   26.2509   30.0160 H   0  0  0  0  0  0  0  0  0  0  0  0
   34.1864   24.4819   30.0160 H   0  0  0  0  0  0  0  0  0  0  0  0
   35.6761   27.7698   31.2131 H   0  0  0  0  0  0  0  0  0  0  0  0
   35.1104   26.7261   32.5666 H   0  0  0  0  0  0  0  0  0  0  0  0
   38.7520   27.5459   30.9483 H   0  0  0  0  0  0  0  0  0  0  0  0
   40.3606   27.3404   33.1339 H   0  0  0  0  0  0  0  0  0  0  0  0
  1 15  1  0
  1  2  1  0
  2  7  1  0
  3  4  2  0
  3 13  1  0
  5  4  1  0
  6  5  2  0
  7  6  1  0
  7  8  2  0
  8  3  1  0
  9 10  2  0
 11 10  1  0
 12 11  2  0
 13 14  2  0
 13 12  1  0
 14  9  1  0
 16 15  1  0
 16 18  1  0
 17 16  1  0
 18 19  1  0
 19 23  2  0
 20 19  1  0
 20 21  2  0
 21 22  1  0
 22 24  1  0
 23 22  1  0
 24 27  1  0
 24 26  1  0
 25 24  1  0
  1 28  1  0
  1 29  1  0
  2 30  1  0
  2 31  1  0
  4 32  1  0
  5 33  1  0
  9 34  1  0
 10 35  1  0
 11 36  1  0
 15 37  1  0
 16 38  1  6
 17 39  1  0
 17 40  1  0
 17 41  1  0
 18 42  1  0
 18 43  1  0
 20 44  1  0
 21 45  1  0
M  ISO  8  28   8  29   8  30   8  31   8  32  14  33  14  34  14  35  14
M  ISO  8  36  14  37   5  38   8  39   8  40   8  41   8  42   8  43   8
M  ISO  2  44  14  45  14
M  END
>  <minimizedAffinity>  (1) 
-5.67631483

>  <minimizedRMSD>  (1) 
1.46691489

$$$$
