
     RDKit          3D

 47 50  0  0  1  0  0  0  0  0999 V2000
   36.7440   26.5410   30.6600 N   0  0  0  0  0  0  0  0  0  0  0  0
   35.5870   26.1220   31.2840 C   0  0  0  0  0  0  0  0  0  0  0  0
   35.1850   24.7470   30.8420 C   0  0  0  0  0  0  0  0  0  0  0  0
   37.9060   23.0950   32.7070 C   0  0  0  0  0  0  0  0  0  0  0  0
   37.3460   21.8390   33.0520 C   0  0  0  0  0  0  0  0  0  0  0  0
   36.0610   21.6120   32.6310 C   0  0  0  0  0  0  0  0  0  0  0  0
   35.3440   22.5150   31.9270 N   0  0  0  0  0  0  0  0  0  0  0  0
   35.9180   23.7190   31.6100 C   0  0  0  0  0  0  0  0  0  0  0  0
   37.1930   23.9750   32.0130 N   0  0  0  0  0  0  0  0  0  0  0  0
   41.2850   24.4630   32.8150 C   0  0  0  0  0  0  0  0  0  0  0  0
   41.8150   23.8970   33.9820 C   0  0  0  0  0  0  0  0  0  0  0  0
   40.9870   23.0550   34.7060 C   0  0  0  0  0  0  0  0  0  0  0  0
   39.7230   22.8360   34.2380 N   0  0  0  0  0  0  0  0  0  0  0  0
   39.2530   23.3900   33.1250 C   0  0  0  0  0  0  0  0  0  0  0  0
   40.0450   24.1760   32.4620 N   0  0  0  0  0  0  0  0  0  0  0  0
   37.7660   27.2080   31.3670 C   0  0  1  0  0  0  0  0  0  0  0  0
   38.0640   28.4630   30.5410 C   0  0  0  0  0  0  0  0  0  0  0  0
   37.1660   27.6760   32.6560 C   0  0  0  0  0  0  0  0  0  0  0  0
   37.8740   27.0600   33.7880 C   0  0  0  0  0  0  0  0  0  0  0  0
   39.1640   27.1070   34.2790 C   0  0  0  0  0  0  0  0  0  0  0  0
   39.1570   26.3010   35.4280 C   0  0  0  0  0  0  0  0  0  0  0  0
   37.8780   25.8090   35.5790 N   0  0  0  0  0  0  0  0  0  0  0  0
   37.1290   26.2590   34.6050 N   0  0  0  0  0  0  0  0  0  0  0  0
   37.9150   25.0770   36.7810 C   0  0  0  0  0  0  0  0  0  0  0  0
   38.0820   25.2270   38.0880 N   0  0  0  0  0  0  0  0  0  0  0  0
   37.9790   24.0810   38.6890 O   0  0  0  0  0  0  0  0  0  0  0  0
   37.7450   23.1770   37.7790 C   0  0  0  0  0  0  0  0  0  0  0  0
   37.6970   23.7710   36.5500 N   0  0  0  0  0  0  0  0  0  0  0  0
   37.1752   25.6988   30.2529 H   0  0  0  0  0  0  0  0  0  0  0  0
   35.7518   26.1128   32.3715 H   0  0  0  0  0  0  0  0  0  0  0  0
   34.7799   26.8187   31.0133 H   0  0  0  0  0  0  0  0  0  0  0  0
   34.1047   24.6168   31.0031 H   0  0  0  0  0  0  0  0  0  0  0  0
   35.4270   24.6324   29.7751 H   0  0  0  0  0  0  0  0  0  0  0  0
   37.9106   21.0889   33.6252 H   0  0  0  0  0  0  0  0  0  0  0  0
   35.5914   20.6485   32.8783 H   0  0  0  0  0  0  0  0  0  0  0  0
   41.8955   25.1396   32.1990 H   0  0  0  0  0  0  0  0  0  0  0  0
   42.8431   24.1118   34.3088 H   0  0  0  0  0  0  0  0  0  0  0  0
   41.3379   22.5761   35.6321 H   0  0  0  0  0  0  0  0  0  0  0  0
   38.6529   26.5801   31.5379 H   0  0  0  0  0  0  0  0  0  0  0  0
   38.2645   29.3076   31.2166 H   0  0  0  0  0  0  0  0  0  0  0  0
   38.9446   28.2839   29.9066 H   0  0  0  0  0  0  0  0  0  0  0  0
   37.1969   28.6989   29.9066 H   0  0  0  0  0  0  0  0  0  0  0  0
   37.2528   28.7705   32.7230 H   0  0  0  0  0  0  0  0  0  0  0  0
   36.1056   27.3854   32.6895 H   0  0  0  0  0  0  0  0  0  0  0  0
   40.0170   27.6596   33.8583 H   0  0  0  0  0  0  0  0  0  0  0  0
   40.0144   26.0990   36.0869 H   0  0  0  0  0  0  0  0  0  0  0  0
   37.6076   22.1027   37.9712 H   0  0  0  0  0  0  0  0  0  0  0  0
  1  2  1  0
  1 16  1  0
  3  2  1  0
  3  8  1  0
  4  5  2  0
  4 14  1  0
  6  5  1  0
  7  6  2  0
  8  7  1  0
  8  9  2  0
  9  4  1  0
 10 11  2  0
 11 12  1  0
 13 12  2  0
 14 13  1  0
 15 10  1  0
 15 14  2  0
 16 18  1  0
 17 16  1  0
 18 19  1  0
 19 20  1  0
 19 23  2  0
 20 21  2  0
 21 22  1  0
 22 24  1  0
 23 22  1  0
 24 25  2  0
 25 26  1  0
 27 26  1  0
 28 24  1  0
 28 27  2  0
  1 29  1  0
  2 30  1  0
  2 31  1  0
  3 32  1  0
  3 33  1  0
  5 34  1  0
  6 35  1  0
 10 36  1  0
 11 37  1  0
 12 38  1  0
 16 39  1  1
 17 40  1  0
 17 41  1  0
 17 42  1  0
 18 43  1  0
 18 44  1  0
 20 45  1  0
 21 46  1  0
 27 47  1  0
M  ISO  8  29   5  30   8  31   8  32   8  33   8  34  14  35  14  36  14
M  ISO  8  37  14  38  14  39   8  40   8  41   8  42   8  43   8  44   8
M  ISO  3  45  14  46  14  47  14
M  END
>  <minimizedAffinity>  (1) 
-5.13932657

>  <minimizedRMSD>  (1) 
2.64518547

$$$$
