
     RDKit          3D

 57 60  0  0  1  0  0  0  0  0999 V2000
   36.7240   25.3330   30.7430 N   0  0  0  0  0  0  0  0  0  0  0  0
   36.8260   23.9740   30.9920 C   0  0  0  0  0  0  0  0  0  0  0  0
   35.4950   23.3900   31.3490 C   0  0  0  0  0  0  0  0  0  0  0  0
   36.1040   19.7660   31.1510 C   0  0  0  0  0  0  0  0  0  0  0  0
   35.9020   19.3300   32.4880 C   0  0  0  0  0  0  0  0  0  0  0  0
   35.5650   20.3000   33.3990 C   0  0  0  0  0  0  0  0  0  0  0  0
   35.4260   21.6060   33.0690 N   0  0  0  0  0  0  0  0  0  0  0  0
   35.6280   21.9870   31.7730 C   0  0  0  0  0  0  0  0  0  0  0  0
   35.9650   21.0500   30.8420 N   0  0  0  0  0  0  0  0  0  0  0  0
   36.8680   18.2110   27.9480 C   0  0  0  0  0  0  0  0  0  0  0  0
   37.1250   16.8870   28.2910 C   0  0  0  0  0  0  0  0  0  0  0  0
   37.0330   16.5610   29.6250 C   0  0  0  0  0  0  0  0  0  0  0  0
   36.7000   17.5420   30.5160 N   0  0  0  0  0  0  0  0  0  0  0  0
   36.4610   18.7960   30.1540 C   0  0  0  0  0  0  0  0  0  0  0  0
   36.5550   19.0760   28.8890 N   0  0  0  0  0  0  0  0  0  0  0  0
   37.6660   26.2390   31.2880 C   0  0  1  0  0  0  0  0  0  0  0  0
   37.2270   27.6180   30.8050 C   0  0  0  0  0  0  0  0  0  0  0  0
   37.4830   26.2140   32.7680 C   0  0  0  0  0  0  0  0  0  0  0  0
   38.8070   26.2340   33.4320 C   0  0  0  0  0  0  0  0  0  0  0  0
   39.3870   26.9700   34.4330 C   0  0  0  0  0  0  0  0  0  0  0  0
   40.6640   26.4100   34.5970 C   0  0  0  0  0  0  0  0  0  0  0  0
   40.8010   25.3660   33.7000 N   0  0  0  0  0  0  0  0  0  0  0  0
   39.6840   25.2670   32.9970 N   0  0  0  0  0  0  0  0  0  0  0  0
   42.9230   23.4050   36.6510 N   0  0  0  0  0  0  0  0  0  0  0  0
   41.6710   23.1840   35.9330 C   0  0  0  0  0  0  0  0  0  0  0  0
   41.8650   23.2910   34.4450 C   0  0  0  0  0  0  0  0  0  0  0  0
   42.0760   24.7560   34.0000 C   0  0  0  0  0  0  0  0  0  0  0  0
   42.7230   25.3390   35.3040 C   0  0  0  0  0  0  0  0  0  0  0  0
   43.7090   24.3400   35.8370 C   0  0  0  0  0  0  0  0  0  0  0  0
   36.7618   25.4487   29.7202 H   0  0  0  0  0  0  0  0  0  0  0  0
   37.2088   23.4715   30.0915 H   0  0  0  0  0  0  0  0  0  0  0  0
   37.5115   23.8246   31.8392 H   0  0  0  0  0  0  0  0  0  0  0  0
   35.0556   23.9736   32.1714 H   0  0  0  0  0  0  0  0  0  0  0  0
   34.8480   23.4263   30.4601 H   0  0  0  0  0  0  0  0  0  0  0  0
   36.0096   18.2741   32.7770 H   0  0  0  0  0  0  0  0  0  0  0  0
   35.4003   20.0028   34.4452 H   0  0  0  0  0  0  0  0  0  0  0  0
   36.9261   18.5322   26.8976 H   0  0  0  0  0  0  0  0  0  0  0  0
   37.3892   16.1363   27.5316 H   0  0  0  0  0  0  0  0  0  0  0  0
   37.2234   15.5329   29.9665 H   0  0  0  0  0  0  0  0  0  0  0  0
   38.7026   26.0007   31.0077 H   0  0  0  0  0  0  0  0  0  0  0  0
   37.0219   28.2623   31.6727 H   0  0  0  0  0  0  0  0  0  0  0  0
   38.0271   28.0654   30.1970 H   0  0  0  0  0  0  0  0  0  0  0  0
   36.3155   27.5205   30.1970 H   0  0  0  0  0  0  0  0  0  0  0  0
   36.9033   27.0952   33.0803 H   0  0  0  0  0  0  0  0  0  0  0  0
   36.9441   25.2988   33.0544 H   0  0  0  0  0  0  0  0  0  0  0  0
   38.9483   27.8137   34.9860 H   0  0  0  0  0  0  0  0  0  0  0  0
   41.4259   26.7446   35.3164 H   0  0  0  0  0  0  0  0  0  0  0  0
   42.7347   23.8117   37.5784 H   0  0  0  0  0  0  0  0  0  0  0  0
   41.2932   22.1792   36.1733 H   0  0  0  0  0  0  0  0  0  0  0  0
   40.9523   23.9562   36.2447 H   0  0  0  0  0  0  0  0  0  0  0  0
   42.7472   22.7004   34.1571 H   0  0  0  0  0  0  0  0  0  0  0  0
   40.9580   22.9103   33.9526 H   0  0  0  0  0  0  0  0  0  0  0  0
   42.6791   24.9091   33.0929 H   0  0  0  0  0  0  0  0  0  0  0  0
   43.2396   26.2820   35.0718 H   0  0  0  0  0  0  0  0  0  0  0  0
   41.9436   25.5354   36.0550 H   0  0  0  0  0  0  0  0  0  0  0  0
   44.2020   23.8082   35.0099 H   0  0  0  0  0  0  0  0  0  0  0  0
   44.5018   24.8249   36.4256 H   0  0  0  0  0  0  0  0  0  0  0  0
  1  2  1  0
  1 16  1  0
  2  3  1  0
  3  8  1  0
  4  5  2  0
  5  6  1  0
  7  6  2  0
  8  7  1  0
  9  4  1  0
  9  8  2  0
 10 11  2  0
 10 15  1  0
 11 12  1  0
 12 13  2  0
 14 13  1  0
 14  4  1  0
 15 14  2  0
 16 18  1  0
 17 16  1  0
 18 19  1  0
 19 20  1  0
 20 21  2  0
 22 27  1  0
 22 21  1  0
 23 19  2  0
 23 22  1  0
 25 24  1  0
 26 25  1  0
 27 26  1  0
 27 28  1  0
 28 29  1  0
 29 24  1  0
  1 30  1  0
  2 31  1  0
  2 32  1  0
  3 33  1  0
  3 34  1  0
  5 35  1  0
  6 36  1  0
 10 37  1  0
 11 38  1  0
 12 39  1  0
 16 40  1  1
 17 41  1  0
 17 42  1  0
 17 43  1  0
 18 44  1  0
 18 45  1  0
 20 46  1  0
 21 47  1  0
 24 48  1  0
 25 49  1  0
 25 50  1  0
 26 51  1  0
 26 52  1  0
 27 53  1  0
 28 54  1  0
 28 55  1  0
 29 56  1  0
 29 57  1  0
M  ISO  8  30   5  31   8  32   8  33   8  34   8  35  14  36  14  37  14
M  ISO  8  38  14  39  14  40   8  41   8  42   8  43   8  44   8  45   8
M  ISO  8  46  14  47  14  48   5  49  13  50  13  51  13  52  13  53  13
M  ISO  4  54  13  55  13  56  13  57  13
M  END
>  <minimizedAffinity>  (1) 
-4.88845015

>  <minimizedRMSD>  (1) 
5.45627117

$$$$
