
     RDKit          3D

 48 50  0  0  1  0  0  0  0  0999 V2000
   36.6150   23.9250   31.1690 C   0  0  0  0  0  0  0  0  0  0  0  0
   37.0710   22.5000   31.2680 C   0  0  0  0  0  0  0  0  0  0  0  0
   37.1950   21.8920   34.8970 C   0  0  0  0  0  0  0  0  0  0  0  0
   36.1850   20.9110   35.0950 C   0  0  0  0  0  0  0  0  0  0  0  0
   35.5110   20.5030   33.9730 C   0  0  0  0  0  0  0  0  0  0  0  0
   35.7660   20.9870   32.7380 N   0  0  0  0  0  0  0  0  0  0  0  0
   36.7450   21.9320   32.5880 C   0  0  0  0  0  0  0  0  0  0  0  0
   37.4380   22.3630   33.6800 N   0  0  0  0  0  0  0  0  0  0  0  0
   39.9180   22.6020   37.2080 C   0  0  0  0  0  0  0  0  0  0  0  0
   39.2840   23.2660   38.2550 C   0  0  0  0  0  0  0  0  0  0  0  0
   37.9220   23.4570   38.1350 C   0  0  0  0  0  0  0  0  0  0  0  0
   37.2930   22.9900   37.0150 N   0  0  0  0  0  0  0  0  0  0  0  0
   37.9330   22.3610   36.0370 C   0  0  0  0  0  0  0  0  0  0  0  0
   39.2140   22.1920   36.1730 N   0  0  0  0  0  0  0  0  0  0  0  0
   37.3610   24.6260   30.2460 N   0  0  0  0  0  0  0  0  0  0  0  0
   38.7690   24.7320   30.3730 C   0  0  1  0  0  0  0  0  0  0  0  0
   39.3430   24.1700   29.0690 C   0  0  0  0  0  0  0  0  0  0  0  0
   39.0890   26.1880   30.3950 C   0  0  0  0  0  0  0  0  0  0  0  0
   39.6780   26.5530   31.7000 C   0  0  0  0  0  0  0  0  0  0  0  0
   40.8340   27.1750   32.1110 C   0  0  0  0  0  0  0  0  0  0  0  0
   40.7350   27.2360   33.5110 C   0  0  0  0  0  0  0  0  0  0  0  0
   39.5300   26.6530   33.8820 N   0  0  0  0  0  0  0  0  0  0  0  0
   38.9040   26.2410   32.7960 N   0  0  0  0  0  0  0  0  0  0  0  0
   39.5140   26.8690   35.3060 C   0  0  0  0  0  0  0  0  0  0  0  0
   38.1190   27.4620   35.7200 C   0  0  0  0  0  0  0  0  0  0  0  0
   35.5583   23.9428   30.8638 H   0  0  0  0  0  0  0  0  0  0  0  0
   36.7437   24.4001   32.1527 H   0  0  0  0  0  0  0  0  0  0  0  0
   36.5710   21.9072   30.4878 H   0  0  0  0  0  0  0  0  0  0  0  0
   38.1624   22.4710   31.1337 H   0  0  0  0  0  0  0  0  0  0  0  0
   35.9575   20.5030   36.0909 H   0  0  0  0  0  0  0  0  0  0  0  0
   34.7231   19.7435   34.0841 H   0  0  0  0  0  0  0  0  0  0  0  0
   41.0023   22.4206   37.2451 H   0  0  0  0  0  0  0  0  0  0  0  0
   39.8411   23.6209   39.1346 H   0  0  0  0  0  0  0  0  0  0  0  0
   37.3554   23.9738   38.9236 H   0  0  0  0  0  0  0  0  0  0  0  0
   36.9941   25.5884   30.2434 H   0  0  0  0  0  0  0  0  0  0  0  0
   39.1575   24.2174   31.2642 H   0  0  0  0  0  0  0  0  0  0  0  0
   40.1113   23.4177   29.3008 H   0  0  0  0  0  0  0  0  0  0  0  0
   38.5366   23.7026   28.4848 H   0  0  0  0  0  0  0  0  0  0  0  0
   39.7933   24.9861   28.4848 H   0  0  0  0  0  0  0  0  0  0  0  0
   39.8075   26.4158   29.5939 H   0  0  0  0  0  0  0  0  0  0  0  0
   38.1651   26.7646   30.2403 H   0  0  0  0  0  0  0  0  0  0  0  0
   41.6566   27.5441   31.4808 H   0  0  0  0  0  0  0  0  0  0  0  0
   41.4808   27.6694   34.1936 H   0  0  0  0  0  0  0  0  0  0  0  0
   39.6768   25.9132   35.8255 H   0  0  0  0  0  0  0  0  0  0  0  0
   40.3129   27.5724   35.5833 H   0  0  0  0  0  0  0  0  0  0  0  0
   38.0449   27.4935   36.8171 H   0  0  0  0  0  0  0  0  0  0  0  0
   38.0191   28.4804   35.3164 H   0  0  0  0  0  0  0  0  0  0  0  0
   37.3164   26.8273   35.3164 H   0  0  0  0  0  0  0  0  0  0  0  0
  1  2  1  0
  2  7  1  0
  3  4  2  0
  3 13  1  0
  5  4  1  0
  6  5  2  0
  7  6  1  0
  7  8  2  0
  8  3  1  0
  9 10  2  0
 11 10  1  0
 12 11  2  0
 13 14  2  0
 13 12  1  0
 14  9  1  0
 15 16  1  0
 15  1  1  0
 16 18  1  0
 17 16  1  0
 18 19  1  0
 19 20  1  0
 19 23  2  0
 20 21  2  0
 21 22  1  0
 22 24  1  0
 23 22  1  0
 24 25  1  0
  1 26  1  0
  1 27  1  0
  2 28  1  0
  2 29  1  0
  4 30  1  0
  5 31  1  0
  9 32  1  0
 10 33  1  0
 11 34  1  0
 15 35  1  0
 16 36  1  1
 17 37  1  0
 17 38  1  0
 17 39  1  0
 18 40  1  0
 18 41  1  0
 20 42  1  0
 21 43  1  0
 24 44  1  0
 24 45  1  0
 25 46  1  0
 25 47  1  0
 25 48  1  0
M  ISO  8  26   8  27   8  28   8  29   8  30  14  31  14  32  14  33  14
M  ISO  8  34  14  35   5  36   8  37   8  38   8  39   8  40   8  41   8
M  ISO  7  42  14  43  14  44   8  45   8  46   8  47   8  48   8
M  END
>  <minimizedAffinity>  (1) 
-5.1651783

>  <minimizedRMSD>  (1) 
1.76666522

$$$$
