
     RDKit          3D

 30 32  0  0  0  0  0  0  0  0999 V2000
   41.1070   21.9190   36.1440 C   0  0  0  0  0  0  0  0  0  0  0  0
   40.6650   22.3060   37.4130 C   0  0  0  0  0  0  0  0  0  0  0  0
   39.4270   22.9210   37.4710 C   0  0  0  0  0  0  0  0  0  0  0  0
   38.6940   23.1250   36.3150 N   0  0  0  0  0  0  0  0  0  0  0  0
   39.1820   22.7260   35.1280 C   0  0  0  0  0  0  0  0  0  0  0  0
   40.3680   22.1330   35.0430 N   0  0  0  0  0  0  0  0  0  0  0  0
   38.3580   22.9710   33.9480 C   0  0  0  0  0  0  0  0  0  0  0  0
   38.5470   23.9830   33.0290 C   0  0  0  0  0  0  0  0  0  0  0  0
   37.5980   23.8890   32.0880 N   0  0  0  0  0  0  0  0  0  0  0  0
   36.8160   22.8390   32.3960 C   0  0  0  0  0  0  0  0  0  0  0  0
   35.7030   22.2750   31.7970 C   0  0  0  0  0  0  0  0  0  0  0  0
   35.0230   21.1730   32.2740 C   0  0  0  0  0  0  0  0  0  0  0  0
   35.4930   20.5800   33.4510 C   0  0  0  0  0  0  0  0  0  0  0  0
   36.6140   21.1170   34.0880 C   0  0  0  0  0  0  0  0  0  0  0  0
   37.2530   22.2240   33.5610 C   0  0  0  0  0  0  0  0  0  0  0  0
   38.8710   23.3700   38.7780 C   0  0  0  0  0  0  0  0  0  0  0  0
   37.8660   24.4760   38.4430 C   0  0  0  0  0  0  0  0  0  0  0  0
   42.0855   21.4264   36.0449 H   0  0  0  0  0  0  0  0  0  0  0  0
   41.2686   22.1310   38.3158 H   0  0  0  0  0  0  0  0  0  0  0  0
   39.3439   24.7405   33.0633 H   0  0  0  0  0  0  0  0  0  0  0  0
   37.4871   24.5101   31.2739 H   0  0  0  0  0  0  0  0  0  0  0  0
   35.3328   22.7400   30.8714 H   0  0  0  0  0  0  0  0  0  0  0  0
   34.1429   20.7750   31.7477 H   0  0  0  0  0  0  0  0  0  0  0  0
   34.9845   19.6994   33.8705 H   0  0  0  0  0  0  0  0  0  0  0  0
   36.9903   20.6569   35.0136 H   0  0  0  0  0  0  0  0  0  0  0  0
   38.3671   22.5354   39.2875 H   0  0  0  0  0  0  0  0  0  0  0  0
   39.6612   23.7304   39.4530 H   0  0  0  0  0  0  0  0  0  0  0  0
   37.4728   24.9087   39.3748 H   0  0  0  0  0  0  0  0  0  0  0  0
   38.3664   25.2609   37.8568 H   0  0  0  0  0  0  0  0  0  0  0  0
   37.0370   24.0528   37.8568 H   0  0  0  0  0  0  0  0  0  0  0  0
  1  2  2  0
  2  3  1  0
  3 16  1  0
  4  3  2  0
  5  4  1  0
  6  5  2  0
  6  1  1  0
  7  5  1  0
  8  7  2  0
  9 10  1  0
  9  8  1  0
 10 15  2  0
 11 12  2  0
 11 10  1  0
 12 13  1  0
 13 14  2  0
 15  7  1  0
 15 14  1  0
 17 16  1  0
  1 18  1  0
  2 19  1  0
  8 20  1  0
  9 21  1  0
 11 22  1  0
 12 23  1  0
 13 24  1  0
 14 25  1  0
 16 26  1  0
 16 27  1  0
 17 28  1  0
 17 29  1  0
 17 30  1  0
M  ISO  8  18  14  19  14  20  14  21   9  22  14  23  14  24  14  25  14
M  ISO  5  26   8  27   8  28   8  29   8  30   8
M  END
>  <minimizedAffinity>  (1) 
-5.02561665

>  <minimizedRMSD>  (1) 
2.80943942

$$$$
