
     RDKit          3D

 26 27  0  0  0  0  0  0  0  0999 V2000
   40.2520   23.2810   34.9660 C   0  0  0  0  0  0  0  0  0  0  0  0
   39.6050   23.2920   36.2180 C   0  0  0  0  0  0  0  0  0  0  0  0
   38.4880   24.1000   36.3380 C   0  0  0  0  0  0  0  0  0  0  0  0
   38.0420   24.8550   35.2670 N   0  0  0  0  0  0  0  0  0  0  0  0
   38.7250   24.7870   34.0890 C   0  0  0  0  0  0  0  0  0  0  0  0
   39.8010   24.0220   33.9380 N   0  0  0  0  0  0  0  0  0  0  0  0
   38.0980   25.6420   33.1170 N   0  0  0  0  0  0  0  0  0  0  0  0
   38.4540   26.9390   33.0520 C   0  0  0  0  0  0  0  0  0  0  0  0
   37.7970   27.6980   32.0800 C   0  0  0  0  0  0  0  0  0  0  0  0
   36.8650   27.0810   31.2870 C   0  0  0  0  0  0  0  0  0  0  0  0
   36.2640   27.7680   30.4010 O   0  0  0  0  0  0  0  0  0  0  0  0
   36.5430   25.7780   31.3920 N   0  0  0  0  0  0  0  0  0  0  0  0
   37.1810   25.0450   32.3340 C   0  0  0  0  0  0  0  0  0  0  0  0
   36.9000   23.8220   32.4550 O   0  0  0  0  0  0  0  0  0  0  0  0
   37.7620   24.1520   37.6420 C   0  0  0  0  0  0  0  0  0  0  0  0
   38.6610   23.4410   38.6590 C   0  0  0  0  0  0  0  0  0  0  0  0
   41.1445   22.6533   34.8266 H   0  0  0  0  0  0  0  0  0  0  0  0
   39.9708   22.6866   37.0604 H   0  0  0  0  0  0  0  0  0  0  0  0
   39.2124   27.3727   33.7204 H   0  0  0  0  0  0  0  0  0  0  0  0
   38.0229   28.7672   31.9541 H   0  0  0  0  0  0  0  0  0  0  0  0
   35.8350   25.3533   30.7762 H   0  0  0  0  0  0  0  0  0  0  0  0
   37.5954   25.1964   37.9445 H   0  0  0  0  0  0  0  0  0  0  0  0
   36.7759   23.6697   37.5718 H   0  0  0  0  0  0  0  0  0  0  0  0
   38.3362   23.6978   39.6781 H   0  0  0  0  0  0  0  0  0  0  0  0
   38.5889   22.3529   38.5145 H   0  0  0  0  0  0  0  0  0  0  0  0
   39.7032   23.7618   38.5145 H   0  0  0  0  0  0  0  0  0  0  0  0
  1  2  2  0
  2  3  1  0
  3 15  1  0
  4  3  2  0
  5  4  1  0
  6  5  2  0
  6  1  1  0
  7  5  1  0
  8  7  1  0
  9  8  2  0
 10 12  1  0
 10  9  1  0
 11 10  2  0
 12 13  1  0
 13 14  2  0
 13  7  1  0
 15 16  1  0
  1 17  1  0
  2 18  1  0
  8 19  1  0
  9 20  1  0
 12 21  1  0
 15 22  1  0
 15 23  1  0
 16 24  1  0
 16 25  1  0
 16 26  1  0
M  ISO  8  17  14  18  14  19  14  20  14  21   9  22   8  23   8  24   8
M  ISO  2  25   8  26   8
M  END
>  <minimizedAffinity>  (1) 
-4.27153683

>  <minimizedRMSD>  (1) 
4.39112663

$$$$
