
     RDKit          3D

 23 24  0  0  0  0  0  0  0  0999 V2000
   40.8090   22.1500   37.4580 C   0  0  0  0  0  0  0  0  0  0  0  0
   39.7060   22.9090   37.9180 C   0  0  0  0  0  0  0  0  0  0  0  0
   38.7440   23.2960   37.0020 C   0  0  0  0  0  0  0  0  0  0  0  0
   38.8980   22.9310   35.6980 N   0  0  0  0  0  0  0  0  0  0  0  0
   39.9660   22.2040   35.2900 C   0  0  0  0  0  0  0  0  0  0  0  0
   40.9070   21.8150   36.1430 N   0  0  0  0  0  0  0  0  0  0  0  0
   40.0550   21.8630   33.9120 N   0  0  0  0  0  0  0  0  0  0  0  0
   41.1460   21.8630   33.1290 C   0  0  0  0  0  0  0  0  0  0  0  0
   40.8170   21.4720   31.8590 C   0  0  0  0  0  0  0  0  0  0  0  0
   39.4920   21.2280   31.8780 N   0  0  0  0  0  0  0  0  0  0  0  0
   39.0390   21.4680   33.1260 C   0  0  0  0  0  0  0  0  0  0  0  0
   37.5890   24.0930   37.4880 C   0  0  0  0  0  0  0  0  0  0  0  0
   37.9890   24.6730   38.8450 C   0  0  0  0  0  0  0  0  0  0  0  0
   41.5885   21.8304   38.1653 H   0  0  0  0  0  0  0  0  0  0  0  0
   39.6159   23.1847   38.9791 H   0  0  0  0  0  0  0  0  0  0  0  0
   42.1583   22.1376   33.4604 H   0  0  0  0  0  0  0  0  0  0  0  0
   41.4958   21.3765   30.9987 H   0  0  0  0  0  0  0  0  0  0  0  0
   37.9942   21.3570   33.4515 H   0  0  0  0  0  0  0  0  0  0  0  0
   37.3654   24.9051   36.7806 H   0  0  0  0  0  0  0  0  0  0  0  0
   36.6886   23.4674   37.5772 H   0  0  0  0  0  0  0  0  0  0  0  0
   37.5624   24.0544   39.6483 H   0  0  0  0  0  0  0  0  0  0  0  0
   39.0856   24.6810   38.9315 H   0  0  0  0  0  0  0  0  0  0  0  0
   37.6068   25.7008   38.9315 H   0  0  0  0  0  0  0  0  0  0  0  0
  1  2  2  0
  3 12  1  0
  3  2  1  0
  4  3  2  0
  5  4  1  0
  5  6  2  0
  6  1  1  0
  7  5  1  0
  8  7  1  0
  9 10  1  0
  9  8  2  0
 10 11  2  0
 11  7  1  0
 12 13  1  0
  1 14  1  0
  2 15  1  0
  8 16  1  0
  9 17  1  0
 11 18  1  0
 12 19  1  0
 12 20  1  0
 13 21  1  0
 13 22  1  0
 13 23  1  0
M  ISO  8  14  14  15  14  16  14  17  14  18  14  19   8  20   8  21   8
M  ISO  2  22   8  23   8
M  END
>  <minimizedAffinity>  (1) 
-3.33326197

>  <minimizedRMSD>  (1) 
0.548642397

$$$$
