
     RDKit          3D

 29 30  0  0  0  0  0  0  0  0999 V2000
   40.7750   22.2150   37.3890 C   0  0  0  0  0  0  0  0  0  0  0  0
   39.7140   22.9450   37.9360 C   0  0  0  0  0  0  0  0  0  0  0  0
   38.6680   23.2650   37.0840 C   0  0  0  0  0  0  0  0  0  0  0  0
   38.7150   22.8640   35.7750 N   0  0  0  0  0  0  0  0  0  0  0  0
   39.7700   22.1570   35.2970 C   0  0  0  0  0  0  0  0  0  0  0  0
   40.7930   21.8350   36.1000 N   0  0  0  0  0  0  0  0  0  0  0  0
   39.7470   21.7750   33.9270 N   0  0  0  0  0  0  0  0  0  0  0  0
   38.4340   21.5470   33.3240 C   0  0  0  0  0  0  0  0  0  0  0  0
   38.5690   20.9810   31.9270 C   0  0  0  0  0  0  0  0  0  0  0  0
   39.7220   20.1680   31.8390 O   0  0  0  0  0  0  0  0  0  0  0  0
   40.8020   21.0290   31.8550 C   0  0  0  0  0  0  0  0  0  0  0  0
   40.9830   21.6370   33.2250 C   0  0  0  0  0  0  0  0  0  0  0  0
   37.5150   24.0400   37.6130 C   0  0  0  0  0  0  0  0  0  0  0  0
   37.9980   24.7230   38.8850 C   0  0  0  0  0  0  0  0  0  0  0  0
   41.6225   21.9431   38.0354 H   0  0  0  0  0  0  0  0  0  0  0  0
   39.7099   23.2507   38.9926 H   0  0  0  0  0  0  0  0  0  0  0  0
   37.8707   20.8366   33.9469 H   0  0  0  0  0  0  0  0  0  0  0  0
   37.9051   22.5095   33.2623 H   0  0  0  0  0  0  0  0  0  0  0  0
   37.6800   20.3773   31.6921 H   0  0  0  0  0  0  0  0  0  0  0  0
   38.6595   21.8109   31.2107 H   0  0  0  0  0  0  0  0  0  0  0  0
   41.7112   20.4720   31.5847 H   0  0  0  0  0  0  0  0  0  0  0  0
   40.6190   21.8375   31.1319 H   0  0  0  0  0  0  0  0  0  0  0  0
   41.6527   20.9915   33.8123 H   0  0  0  0  0  0  0  0  0  0  0  0
   41.4073   22.6431   33.0920 H   0  0  0  0  0  0  0  0  0  0  0  0
   37.1931   24.7916   36.8772 H   0  0  0  0  0  0  0  0  0  0  0  0
   36.6556   23.3842   37.8163 H   0  0  0  0  0  0  0  0  0  0  0  0
   37.6140   24.1800   39.7612 H   0  0  0  0  0  0  0  0  0  0  0  0
   39.0978   24.7227   38.9064 H   0  0  0  0  0  0  0  0  0  0  0  0
   37.6312   25.7598   38.9064 H   0  0  0  0  0  0  0  0  0  0  0  0
  1  2  2  0
  3 13  1  0
  3  2  1  0
  4  3  2  0
  5  4  1  0
  5  6  2  0
  6  1  1  0
  7  5  1  0
  8  7  1  0
  9  8  1  0
 10 11  1  0
 10  9  1  0
 11 12  1  0
 12  7  1  0
 13 14  1  0
  1 15  1  0
  2 16  1  0
  8 17  1  0
  8 18  1  0
  9 19  1  0
  9 20  1  0
 11 21  1  0
 11 22  1  0
 12 23  1  0
 12 24  1  0
 13 25  1  0
 13 26  1  0
 14 27  1  0
 14 28  1  0
 14 29  1  0
M  ISO  8  15  14  16  14  17  13  18  13  19  13  20  13  21  13  22  13
M  ISO  7  23  13  24  13  25   8  26   8  27   8  28   8  29   8
M  END
>  <minimizedAffinity>  (1) 
-3.45843291

>  <minimizedRMSD>  (1) 
0.824252963

$$$$
