
     RDKit          3D

 26 27  0  0  0  0  0  0  0  0999 V2000
   40.9010   22.2970   37.2390 C   0  0  0  0  0  0  0  0  0  0  0  0
   39.7950   22.8440   37.8990 C   0  0  0  0  0  0  0  0  0  0  0  0
   38.6020   23.0780   37.2400 C   0  0  0  0  0  0  0  0  0  0  0  0
   38.5590   22.7500   35.9170 N   0  0  0  0  0  0  0  0  0  0  0  0
   39.6250   22.2250   35.2900 C   0  0  0  0  0  0  0  0  0  0  0  0
   40.7660   22.0050   35.9350 N   0  0  0  0  0  0  0  0  0  0  0  0
   39.4940   21.9010   33.8700 C   0  0  0  0  0  0  0  0  0  0  0  0
   40.6190   21.8500   33.0700 C   0  0  0  0  0  0  0  0  0  0  0  0
   40.4950   21.5410   31.7150 C   0  0  0  0  0  0  0  0  0  0  0  0
   39.2350   21.2920   31.2070 C   0  0  0  0  0  0  0  0  0  0  0  0
   38.0820   21.3350   31.9820 C   0  0  0  0  0  0  0  0  0  0  0  0
   38.2550   21.6450   33.3180 C   0  0  0  0  0  0  0  0  0  0  0  0
   37.4650   23.6610   37.9970 C   0  0  0  0  0  0  0  0  0  0  0  0
   38.0260   24.8020   38.8200 C   0  0  0  0  0  0  0  0  0  0  0  0
   41.8471   22.1128   37.7691 H   0  0  0  0  0  0  0  0  0  0  0  0
   39.8765   23.0937   38.9672 H   0  0  0  0  0  0  0  0  0  0  0  0
   41.6108   22.0526   33.5004 H   0  0  0  0  0  0  0  0  0  0  0  0
   41.3816   21.4967   31.0654 H   0  0  0  0  0  0  0  0  0  0  0  0
   39.1395   21.0481   30.1386 H   0  0  0  0  0  0  0  0  0  0  0  0
   37.0879   21.1337   31.5562 H   0  0  0  0  0  0  0  0  0  0  0  0
   37.3687   21.6895   33.9680 H   0  0  0  0  0  0  0  0  0  0  0  0
   36.6998   24.0363   37.3015 H   0  0  0  0  0  0  0  0  0  0  0  0
   36.9911   22.9056   38.6411 H   0  0  0  0  0  0  0  0  0  0  0  0
   37.9132   24.5725   39.8899 H   0  0  0  0  0  0  0  0  0  0  0  0
   39.0921   24.9348   38.5839 H   0  0  0  0  0  0  0  0  0  0  0  0
   37.4801   25.7274   38.5839 H   0  0  0  0  0  0  0  0  0  0  0  0
  1  2  2  0
  3  2  1  0
  3 13  1  0
  4  3  2  0
  5  4  1  0
  5  6  2  0
  6  1  1  0
  7  5  1  0
  8  7  2  0
  9  8  1  0
 10  9  2  0
 10 11  1  0
 11 12  2  0
 12  7  1  0
 13 14  1  0
  1 15  1  0
  2 16  1  0
  8 17  1  0
  9 18  1  0
 10 19  1  0
 11 20  1  0
 12 21  1  0
 13 22  1  0
 13 23  1  0
 14 24  1  0
 14 25  1  0
 14 26  1  0
M  ISO  8  15  14  16  14  17  14  18  14  19  14  20  14  21  14  22   8
M  ISO  4  23   8  24   8  25   8  26   8
M  END
>  <minimizedAffinity>  (1) 
-3.27103901

>  <minimizedRMSD>  (1) 
1.24800611

$$$$
