
     RDKit          3D

 21 22  0  0  0  0  0  0  0  0999 V2000
   40.8140   22.1410   37.4420 C   0  0  0  0  0  0  0  0  0  0  0  0
   39.7100   22.8810   37.8820 C   0  0  0  0  0  0  0  0  0  0  0  0
   38.7370   23.3020   36.9910 C   0  0  0  0  0  0  0  0  0  0  0  0
   38.9030   22.9680   35.6810 N   0  0  0  0  0  0  0  0  0  0  0  0
   39.9720   22.2540   35.2730 C   0  0  0  0  0  0  0  0  0  0  0  0
   40.9070   21.8500   36.1300 N   0  0  0  0  0  0  0  0  0  0  0  0
   40.1460   21.8980   33.8690 C   0  0  0  0  0  0  0  0  0  0  0  0
   38.9970   21.4480   33.3040 N   0  0  0  0  0  0  0  0  0  0  0  0
   39.2290   21.1470   32.0460 O   0  0  0  0  0  0  0  0  0  0  0  0
   40.4870   21.3820   31.7610 C   0  0  0  0  0  0  0  0  0  0  0  0
   41.0780   21.8540   32.8970 N   0  0  0  0  0  0  0  0  0  0  0  0
   37.5840   24.0840   37.4990 C   0  0  0  0  0  0  0  0  0  0  0  0
   37.9980   24.6660   38.8490 C   0  0  0  0  0  0  0  0  0  0  0  0
   41.5862   21.8056   38.1499 H   0  0  0  0  0  0  0  0  0  0  0  0
   39.6142   23.1312   38.9489 H   0  0  0  0  0  0  0  0  0  0  0  0
   40.9752   21.2275   30.7875 H   0  0  0  0  0  0  0  0  0  0  0  0
   37.3392   24.8950   36.7973 H   0  0  0  0  0  0  0  0  0  0  0  0
   36.6934   23.4469   37.6031 H   0  0  0  0  0  0  0  0  0  0  0  0
   37.5660   24.0587   39.6581 H   0  0  0  0  0  0  0  0  0  0  0  0
   39.0949   24.6586   38.9306 H   0  0  0  0  0  0  0  0  0  0  0  0
   37.6312   25.6998   38.9306 H   0  0  0  0  0  0  0  0  0  0  0  0
  1  2  2  0
  3 12  1  0
  3  2  1  0
  4  3  2  0
  5  4  1  0
  5  6  2  0
  6  1  1  0
  7  5  1  0
  8  7  2  0
  9  8  1  0
 10  9  1  0
 10 11  2  0
 11  7  1  0
 12 13  1  0
  1 14  1  0
  2 15  1  0
 10 16  1  0
 12 17  1  0
 12 18  1  0
 13 19  1  0
 13 20  1  0
 13 21  1  0
M  ISO  8  14  14  15  14  16  14  17   8  18   8  19   8  20   8  21   8
M  END
>  <minimizedAffinity>  (1) 
-3.16840601

>  <minimizedRMSD>  (1) 
0.558988214

$$$$
