
     RDKit          3D

 23 24  0  0  0  0  0  0  0  0999 V2000
   40.8060   22.1660   37.4320 C   0  0  0  0  0  0  0  0  0  0  0  0
   39.7090   22.9030   37.8940 C   0  0  0  0  0  0  0  0  0  0  0  0
   38.7200   23.2960   37.0090 C   0  0  0  0  0  0  0  0  0  0  0  0
   38.8540   22.9380   35.6850 N   0  0  0  0  0  0  0  0  0  0  0  0
   39.9250   22.2270   35.2820 C   0  0  0  0  0  0  0  0  0  0  0  0
   40.8770   21.8500   36.1280 N   0  0  0  0  0  0  0  0  0  0  0  0
   40.0270   21.8680   33.8600 C   0  0  0  0  0  0  0  0  0  0  0  0
   38.9810   21.4720   33.0480 C   0  0  0  0  0  0  0  0  0  0  0  0
   39.4970   21.2340   31.8100 N   0  0  0  0  0  0  0  0  0  0  0  0
   40.7980   21.4850   31.9060 C   0  0  0  0  0  0  0  0  0  0  0  0
   41.1620   21.8750   33.1430 N   0  0  0  0  0  0  0  0  0  0  0  0
   37.5700   24.0780   37.5340 C   0  0  0  0  0  0  0  0  0  0  0  0
   38.0050   24.6690   38.8550 C   0  0  0  0  0  0  0  0  0  0  0  0
   41.5984   21.8502   38.1266 H   0  0  0  0  0  0  0  0  0  0  0  0
   39.6332   23.1693   38.9586 H   0  0  0  0  0  0  0  0  0  0  0  0
   37.9273   21.3683   33.3462 H   0  0  0  0  0  0  0  0  0  0  0  0
   41.5017   21.3852   31.0665 H   0  0  0  0  0  0  0  0  0  0  0  0
   42.1068   22.1246   33.4684 H   0  0  0  0  0  0  0  0  0  0  0  0
   37.3057   24.8805   36.8297 H   0  0  0  0  0  0  0  0  0  0  0  0
   36.6851   23.4373   37.6626 H   0  0  0  0  0  0  0  0  0  0  0  0
   37.5731   24.0823   39.6792 H   0  0  0  0  0  0  0  0  0  0  0  0
   39.1026   24.6451   38.9237 H   0  0  0  0  0  0  0  0  0  0  0  0
   37.6559   25.7099   38.9237 H   0  0  0  0  0  0  0  0  0  0  0  0
  1  2  2  0
  3 12  1  0
  3  2  1  0
  4  3  2  0
  5  4  1  0
  5  6  2  0
  6  1  1  0
  7  5  1  0
  8  7  2  0
  9 10  2  0
  9  8  1  0
 10 11  1  0
 11  7  1  0
 12 13  1  0
  1 14  1  0
  2 15  1  0
  8 16  1  0
 10 17  1  0
 11 18  1  0
 12 19  1  0
 12 20  1  0
 13 21  1  0
 13 22  1  0
 13 23  1  0
M  ISO  8  14  14  15  14  16  14  17  14  18   9  19   8  20   8  21   8
M  ISO  2  22   8  23   8
M  END
>  <minimizedAffinity>  (1) 
-3.14761114

>  <minimizedRMSD>  (1) 
0.58406049

$$$$
