
     RDKit          3D

 19 19  0  0  0  0  0  0  0  0999 V2000
   40.8080   22.1430   37.4560 C   0  0  0  0  0  0  0  0  0  0  0  0
   39.7200   22.8850   37.9390 C   0  0  0  0  0  0  0  0  0  0  0  0
   38.7710   23.2910   37.0160 C   0  0  0  0  0  0  0  0  0  0  0  0
   38.9280   22.9630   35.7000 N   0  0  0  0  0  0  0  0  0  0  0  0
   40.0030   22.2420   35.2850 C   0  0  0  0  0  0  0  0  0  0  0  0
   40.9340   21.8340   36.1470 N   0  0  0  0  0  0  0  0  0  0  0  0
   40.1580   21.8940   33.8560 C   0  0  0  0  0  0  0  0  0  0  0  0
   41.2250   21.0490   33.6500 F   0  0  0  0  0  0  0  0  0  0  0  0
   40.2730   23.0270   33.0800 F   0  0  0  0  0  0  0  0  0  0  0  0
   39.0210   21.2260   33.4080 F   0  0  0  0  0  0  0  0  0  0  0  0
   37.6060   24.0780   37.4870 C   0  0  0  0  0  0  0  0  0  0  0  0
   37.9790   24.6640   38.8340 C   0  0  0  0  0  0  0  0  0  0  0  0
   41.5797   21.8034   38.1625 H   0  0  0  0  0  0  0  0  0  0  0  0
   39.6247   23.1339   39.0062 H   0  0  0  0  0  0  0  0  0  0  0  0
   37.3823   24.8848   36.7735 H   0  0  0  0  0  0  0  0  0  0  0  0
   36.7122   23.4423   37.5707 H   0  0  0  0  0  0  0  0  0  0  0  0
   37.5743   24.0282   39.6352 H   0  0  0  0  0  0  0  0  0  0  0  0
   39.0744   24.7123   38.9222 H   0  0  0  0  0  0  0  0  0  0  0  0
   37.5590   25.6768   38.9222 H   0  0  0  0  0  0  0  0  0  0  0  0
  1  2  2  0
  3 11  1  0
  3  2  1  0
  4  3  2  0
  5  4  1  0
  5  6  2  0
  6  1  1  0
  7  5  1  0
  8  7  1  0
  9  7  1  0
 10  7  1  0
 11 12  1  0
  1 13  1  0
  2 14  1  0
 11 15  1  0
 11 16  1  0
 12 17  1  0
 12 18  1  0
 12 19  1  0
M  ISO  7  13  14  14  14  15   8  16   8  17   8  18   8  19   8
M  END
>  <minimizedAffinity>  (1) 
-3.14445996

>  <minimizedRMSD>  (1) 
0.627651751

$$$$
