
     RDKit          3D

 17 17  0  0  0  0  0  0  0  0999 V2000
   40.8850   22.0340   37.4880 C   0  0  0  0  0  0  0  0  0  0  0  0
   39.7790   22.8330   37.8420 C   0  0  0  0  0  0  0  0  0  0  0  0
   38.9580   23.3120   36.8350 C   0  0  0  0  0  0  0  0  0  0  0  0
   39.2520   22.9880   35.5440 N   0  0  0  0  0  0  0  0  0  0  0  0
   40.3220   22.2180   35.2470 C   0  0  0  0  0  0  0  0  0  0  0  0
   41.1270   21.7470   36.1970 N   0  0  0  0  0  0  0  0  0  0  0  0
   37.7870   24.1570   37.1950 C   0  0  0  0  0  0  0  0  0  0  0  0
   37.9300   24.4770   38.6630 C   0  0  0  0  0  0  0  0  0  0  0  0
   40.4700   21.9910   33.8810 O   0  0  0  0  0  0  0  0  0  0  0  0
   41.5523   21.6440   38.2706 H   0  0  0  0  0  0  0  0  0  0  0  0
   39.5725   23.0710   38.8959 H   0  0  0  0  0  0  0  0  0  0  0  0
   37.7889   25.0831   36.6015 H   0  0  0  0  0  0  0  0  0  0  0  0
   36.8402   23.6359   36.9901 H   0  0  0  0  0  0  0  0  0  0  0  0
   37.5532   23.6338   39.2605 H   0  0  0  0  0  0  0  0  0  0  0  0
   38.9905   24.6488   38.8992 H   0  0  0  0  0  0  0  0  0  0  0  0
   37.3505   25.3817   38.8992 H   0  0  0  0  0  0  0  0  0  0  0  0
   41.2219   21.4388   33.5496 H   0  0  0  0  0  0  0  0  0  0  0  0
  1  2  2  0
  3  7  1  0
  3  2  1  0
  4  3  2  0
  5  4  1  0
  5  6  2  0
  6  1  1  0
  7  8  1  0
  9  5  1  0
  1 10  1  0
  2 11  1  0
  7 12  1  0
  7 13  1  0
  8 14  1  0
  8 15  1  0
  8 16  1  0
  9 17  1  0
M  ISO  8  10  14  11  14  12   8  13   8  14   8  15   8  16   8  17   3
M  END
>  <minimizedAffinity>  (1) 
-2.95498633

>  <minimizedRMSD>  (1) 
0.0524917729

$$$$
