
     RDKit          3D

 48 53  0  0  0  0  0  0  0  0999 V2000
   37.4190   27.4030   34.4210 N   0  0  0  0  0  0  0  0  0  0  0  0
   36.3870   28.2720   34.5900 C   0  0  0  0  0  0  0  0  0  0  0  0
   36.0460   28.8130   33.4030 N   0  0  0  0  0  0  0  0  0  0  0  0
   36.8470   28.3050   32.4460 C   0  0  0  0  0  0  0  0  0  0  0  0
   36.9860   28.4560   31.0940 C   0  0  0  0  0  0  0  0  0  0  0  0
   37.9290   27.7750   30.3800 N   0  0  0  0  0  0  0  0  0  0  0  0
   38.7330   26.9310   31.0710 C   0  0  0  0  0  0  0  0  0  0  0  0
   38.6360   26.7460   32.3980 N   0  0  0  0  0  0  0  0  0  0  0  0
   37.6860   27.4370   33.0990 C   0  0  0  0  0  0  0  0  0  0  0  0
   39.6870   26.2600   30.2530 N   0  0  0  0  0  0  0  0  0  0  0  0
   40.4640   25.1660   30.3960 C   0  0  0  0  0  0  0  0  0  0  0  0
   41.1970   24.9650   29.3050 N   0  0  0  0  0  0  0  0  0  0  0  0
   40.9040   25.9360   28.4300 C   0  0  0  0  0  0  0  0  0  0  0  0
   41.3900   26.1800   27.1520 C   0  0  0  0  0  0  0  0  0  0  0  0
   42.2610   25.4110   26.6370 O   0  0  0  0  0  0  0  0  0  0  0  0
   40.9560   27.2250   26.4330 N   0  0  0  0  0  0  0  0  0  0  0  0
   40.0320   28.0040   27.0340 C   0  0  0  0  0  0  0  0  0  0  0  0
   39.5170   29.1270   26.3570 N   0  0  0  0  0  0  0  0  0  0  0  0
   39.5350   27.8070   28.2650 N   0  0  0  0  0  0  0  0  0  0  0  0
   39.9510   26.7580   29.0220 C   0  0  0  0  0  0  0  0  0  0  0  0
   38.1020   26.5960   35.4500 C   0  0  0  0  0  0  0  0  0  0  0  0
   37.5900   25.1600   35.3240 C   0  0  0  0  0  0  0  0  0  0  0  0
   38.5350   23.7260   38.6950 C   0  0  0  0  0  0  0  0  0  0  0  0
   37.9010   24.4440   37.6900 C   0  0  0  0  0  0  0  0  0  0  0  0
   38.3060   24.3710   36.3480 C   0  0  0  0  0  0  0  0  0  0  0  0
   39.3640   23.5510   36.0730 N   0  0  0  0  0  0  0  0  0  0  0  0
   39.9550   22.8650   37.1000 C   0  0  0  0  0  0  0  0  0  0  0  0
   39.5780   22.9280   38.3710 N   0  0  0  0  0  0  0  0  0  0  0  0
   41.0650   22.0030   36.8090 C   0  0  0  0  0  0  0  0  0  0  0  0
   41.9340   21.1750   37.3900 C   0  0  0  0  0  0  0  0  0  0  0  0
   42.8890   20.5080   36.7580 C   0  0  0  0  0  0  0  0  0  0  0  0
   42.9170   20.7540   35.3400 C   0  0  0  0  0  0  0  0  0  0  0  0
   41.5150   21.9590   35.0870 S   0  0  0  0  0  0  0  0  0  0  0  0
   35.9028   28.4996   35.5511 H   0  0  0  0  0  0  0  0  0  0  0  0
   36.3158   29.1491   30.5645 H   0  0  0  0  0  0  0  0  0  0  0  0
   40.4877   24.5282   31.2919 H   0  0  0  0  0  0  0  0  0  0  0  0
   41.3049   27.4206   25.4839 H   0  0  0  0  0  0  0  0  0  0  0  0
   38.8118   29.7240   26.8121 H   0  0  0  0  0  0  0  0  0  0  0  0
   39.8457   29.3510   25.4069 H   0  0  0  0  0  0  0  0  0  0  0  0
   39.1896   26.6225   35.2872 H   0  0  0  0  0  0  0  0  0  0  0  0
   37.8952   26.9940   36.4544 H   0  0  0  0  0  0  0  0  0  0  0  0
   36.5057   25.1252   35.5062 H   0  0  0  0  0  0  0  0  0  0  0  0
   37.7685   24.7598   34.3150 H   0  0  0  0  0  0  0  0  0  0  0  0
   38.1946   23.8048   39.7380 H   0  0  0  0  0  0  0  0  0  0  0  0
   37.0524   25.0921   37.9544 H   0  0  0  0  0  0  0  0  0  0  0  0
   41.8518   21.0348   38.4779 H   0  0  0  0  0  0  0  0  0  0  0  0
   43.5918   19.8323   37.2674 H   0  0  0  0  0  0  0  0  0  0  0  0
   43.6000   20.3332   34.5873 H   0  0  0  0  0  0  0  0  0  0  0  0
  1  2  1  0
  1 21  1  0
  3  2  2  0
  4  9  2  0
  4  3  1  0
  5  4  1  0
  6  7  1  0
  6  5  2  0
  7  8  2  0
  8  9  1  0
  9  1  1  0
 10 11  1  0
 10  7  1  0
 12 11  2  0
 13 20  2  0
 13 12  1  0
 14 13  1  0
 15 14  2  0
 16 17  1  0
 16 14  1  0
 17 19  2  0
 18 17  1  0
 19 20  1  0
 20 10  1  0
 22 21  1  0
 22 25  1  0
 24 23  2  0
 25 24  1  0
 26 25  2  0
 26 27  1  0
 27 28  2  0
 28 23  1  0
 29 27  1  0
 29 30  2  0
 31 30  1  0
 32 31  2  0
 33 32  1  0
 33 29  1  0
  2 34  1  0
  5 35  1  0
 11 36  1  0
 16 37  1  0
 18 38  1  0
 18 39  1  0
 21 40  1  0
 21 41  1  0
 22 42  1  0
 22 43  1  0
 23 44  1  0
 24 45  1  0
 30 46  1  0
 31 47  1  0
 32 48  1  0
M  ISO  8  34  14  35  14  36  14  37   9  40   8  41   8  42   8  43   8
M  ISO  5  44  14  45  14  46  14  47  14  48  14
M  END
>  <minimizedAffinity>  (1) 
-6.16573095

>  <minimizedRMSD>  (1) 
1.48703182

$$$$
