
     RDKit          3D

 48 53  0  0  0  0  0  0  0  0999 V2000
   37.8590   26.8050   35.4560 C   0  0  0  0  0  0  0  0  0  0  0  0
   37.1320   27.6220   34.4740 N   0  0  0  0  0  0  0  0  0  0  0  0
   36.2650   28.6300   34.7170 C   0  0  0  0  0  0  0  0  0  0  0  0
   35.8050   29.1330   33.5450 N   0  0  0  0  0  0  0  0  0  0  0  0
   36.3720   28.4550   32.5280 C   0  0  0  0  0  0  0  0  0  0  0  0
   36.3280   28.4740   31.1550 C   0  0  0  0  0  0  0  0  0  0  0  0
   37.0550   27.6130   30.3860 N   0  0  0  0  0  0  0  0  0  0  0  0
   37.8400   26.7230   31.0240 C   0  0  0  0  0  0  0  0  0  0  0  0
   37.9140   26.6680   32.3560 N   0  0  0  0  0  0  0  0  0  0  0  0
   37.1980   27.5150   33.1310 C   0  0  0  0  0  0  0  0  0  0  0  0
   38.6370   25.7820   30.2390 C   0  0  0  0  0  0  0  0  0  0  0  0
   39.6460   26.0790   29.3210 C   0  0  0  0  0  0  0  0  0  0  0  0
   40.1570   24.9580   28.7920 N   0  0  0  0  0  0  0  0  0  0  0  0
   39.4860   23.9480   29.3650 C   0  0  0  0  0  0  0  0  0  0  0  0
   39.6580   22.5990   29.1390 C   0  0  0  0  0  0  0  0  0  0  0  0
   38.8570   21.7230   29.8390 C   0  0  0  0  0  0  0  0  0  0  0  0
   37.8860   22.1220   30.7560 C   0  0  0  0  0  0  0  0  0  0  0  0
   37.7600   23.5040   30.9400 C   0  0  0  0  0  0  0  0  0  0  0  0
   38.5470   24.4060   30.2560 C   0  0  0  0  0  0  0  0  0  0  0  0
   37.6470   25.3340   35.0890 C   0  0  0  0  0  0  0  0  0  0  0  0
   38.2620   23.9230   38.5430 C   0  0  0  0  0  0  0  0  0  0  0  0
   37.7400   24.6430   37.4840 C   0  0  0  0  0  0  0  0  0  0  0  0
   38.2480   24.5370   36.1800 C   0  0  0  0  0  0  0  0  0  0  0  0
   39.3000   23.6790   36.0010 N   0  0  0  0  0  0  0  0  0  0  0  0
   39.7730   22.9950   37.0790 C   0  0  0  0  0  0  0  0  0  0  0  0
   39.2970   23.0890   38.3200 N   0  0  0  0  0  0  0  0  0  0  0  0
   40.8800   22.0870   36.8880 C   0  0  0  0  0  0  0  0  0  0  0  0
   41.6780   21.2550   37.5680 C   0  0  0  0  0  0  0  0  0  0  0  0
   42.6470   20.5420   37.0080 C   0  0  0  0  0  0  0  0  0  0  0  0
   42.7750   20.7280   35.6140 C   0  0  0  0  0  0  0  0  0  0  0  0
   41.4340   21.9690   35.2010 S   0  0  0  0  0  0  0  0  0  0  0  0
   38.9314   27.0478   35.4243 H   0  0  0  0  0  0  0  0  0  0  0  0
   37.4882   27.0049   36.4721 H   0  0  0  0  0  0  0  0  0  0  0  0
   35.9759   28.9885   35.7159 H   0  0  0  0  0  0  0  0  0  0  0  0
   35.6819   29.2117   30.6566 H   0  0  0  0  0  0  0  0  0  0  0  0
   39.9774   27.0964   29.0659 H   0  0  0  0  0  0  0  0  0  0  0  0
   40.9086   24.8872   28.0913 H   0  0  0  0  0  0  0  0  0  0  0  0
   40.4097   22.2340   28.4236 H   0  0  0  0  0  0  0  0  0  0  0  0
   38.9918   20.6454   29.6638 H   0  0  0  0  0  0  0  0  0  0  0  0
   37.2601   21.3987   31.2992 H   0  0  0  0  0  0  0  0  0  0  0  0
   37.0108   23.8815   31.6515 H   0  0  0  0  0  0  0  0  0  0  0  0
   36.5724   25.1144   35.0058 H   0  0  0  0  0  0  0  0  0  0  0  0
   38.1109   25.0953   34.1206 H   0  0  0  0  0  0  0  0  0  0  0  0
   37.8387   24.0294   39.5527 H   0  0  0  0  0  0  0  0  0  0  0  0
   36.8961   25.3234   37.6704 H   0  0  0  0  0  0  0  0  0  0  0  0
   41.5218   21.1567   38.6524 H   0  0  0  0  0  0  0  0  0  0  0  0
   43.2958   19.8634   37.5812 H   0  0  0  0  0  0  0  0  0  0  0  0
   43.4946   20.2544   34.9300 H   0  0  0  0  0  0  0  0  0  0  0  0
  2  3  1  0
  2  1  1  0
  4  3  2  0
  5 10  2  0
  5  4  1  0
  6  5  1  0
  7  8  1  0
  7  6  2  0
  8  9  2  0
  9 10  1  0
 10  2  1  0
 11 19  1  0
 11  8  1  0
 12 11  2  0
 13 12  1  0
 13 14  1  0
 14 19  2  0
 15 14  1  0
 15 16  2  0
 16 17  1  0
 17 18  2  0
 19 18  1  0
 20  1  1  0
 20 23  1  0
 22 21  2  0
 23 22  1  0
 24 23  2  0
 24 25  1  0
 25 26  2  0
 26 21  1  0
 27 25  1  0
 27 28  2  0
 29 28  1  0
 30 29  2  0
 31 30  1  0
 31 27  1  0
  1 32  1  0
  1 33  1  0
  3 34  1  0
  6 35  1  0
 12 36  1  0
 13 37  1  0
 15 38  1  0
 16 39  1  0
 17 40  1  0
 18 41  1  0
 20 42  1  0
 20 43  1  0
 21 44  1  0
 22 45  1  0
 28 46  1  0
 29 47  1  0
 30 48  1  0
M  ISO  8  32   8  33   8  34  14  35  14  36  14  37   9  38  14  39  14
M  ISO  8  40  14  41  14  42   8  43   8  44  14  45  14  46  14  47  14
M  ISO  1  48  14
M  END
>  <minimizedAffinity>  (1) 
-6.05599451

>  <minimizedRMSD>  (1) 
2.28815913

$$$$
