
     RDKit          3D

 42 46  0  0  0  0  0  0  0  0999 V2000
   38.3880   26.6320   34.6750 C   0  0  0  0  0  0  0  0  0  0  0  0
   37.4270   27.4970   33.9530 N   0  0  0  0  0  0  0  0  0  0  0  0
   36.3690   28.1660   34.4730 C   0  0  0  0  0  0  0  0  0  0  0  0
   35.7380   28.8450   33.4950 N   0  0  0  0  0  0  0  0  0  0  0  0
   36.3690   28.6320   32.3380 C   0  0  0  0  0  0  0  0  0  0  0  0
   36.2280   29.0240   31.0240 C   0  0  0  0  0  0  0  0  0  0  0  0
   37.0750   28.6140   30.0430 N   0  0  0  0  0  0  0  0  0  0  0  0
   38.0750   27.7990   30.3950 C   0  0  0  0  0  0  0  0  0  0  0  0
   38.2850   27.3670   31.6600 N   0  0  0  0  0  0  0  0  0  0  0  0
   37.4210   27.7920   32.6340 C   0  0  0  0  0  0  0  0  0  0  0  0
   38.9950   27.3490   29.3550 C   0  0  0  0  0  0  0  0  0  0  0  0
   39.8590   26.2850   29.5430 C   0  0  0  0  0  0  0  0  0  0  0  0
   40.6850   25.9330   28.5120 C   0  0  0  0  0  0  0  0  0  0  0  0
   40.6540   26.6030   27.3540 N   0  0  0  0  0  0  0  0  0  0  0  0
   39.8150   27.6450   27.1580 C   0  0  0  0  0  0  0  0  0  0  0  0
   39.0080   27.9910   28.1580 N   0  0  0  0  0  0  0  0  0  0  0  0
   37.8990   25.1870   34.5270 C   0  0  0  0  0  0  0  0  0  0  0  0
   38.1780   23.9840   38.1010 C   0  0  0  0  0  0  0  0  0  0  0  0
   37.7650   24.6410   36.9500 C   0  0  0  0  0  0  0  0  0  0  0  0
   38.3940   24.4550   35.7090 C   0  0  0  0  0  0  0  0  0  0  0  0
   39.4460   23.5870   35.6840 N   0  0  0  0  0  0  0  0  0  0  0  0
   39.8120   22.9660   36.8470 C   0  0  0  0  0  0  0  0  0  0  0  0
   39.2260   23.1350   38.0230 N   0  0  0  0  0  0  0  0  0  0  0  0
   40.9270   22.0470   36.8130 C   0  0  0  0  0  0  0  0  0  0  0  0
   41.6510   21.2430   37.5970 C   0  0  0  0  0  0  0  0  0  0  0  0
   42.6690   20.5050   37.1710 C   0  0  0  0  0  0  0  0  0  0  0  0
   42.9430   20.6330   35.7900 C   0  0  0  0  0  0  0  0  0  0  0  0
   41.6580   21.8530   35.2040 S   0  0  0  0  0  0  0  0  0  0  0  0
   39.3916   26.7367   34.2371 H   0  0  0  0  0  0  0  0  0  0  0  0
   38.4480   26.9166   35.7358 H   0  0  0  0  0  0  0  0  0  0  0  0
   36.0710   28.1561   35.5318 H   0  0  0  0  0  0  0  0  0  0  0  0
   35.3976   29.6949   30.7589 H   0  0  0  0  0  0  0  0  0  0  0  0
   39.8808   25.7369   30.4965 H   0  0  0  0  0  0  0  0  0  0  0  0
   41.3818   25.0909   28.6355 H   0  0  0  0  0  0  0  0  0  0  0  0
   39.8000   28.1894   26.2023 H   0  0  0  0  0  0  0  0  0  0  0  0
   36.7998   25.1590   34.4953 H   0  0  0  0  0  0  0  0  0  0  0  0
   38.2690   24.7349   33.5949 H   0  0  0  0  0  0  0  0  0  0  0  0
   37.6620   24.1514   39.0579 H   0  0  0  0  0  0  0  0  0  0  0  0
   36.9127   25.3335   37.0128 H   0  0  0  0  0  0  0  0  0  0  0  0
   41.3867   21.1891   38.6634 H   0  0  0  0  0  0  0  0  0  0  0  0
   43.2501   19.8494   37.8362 H   0  0  0  0  0  0  0  0  0  0  0  0
   43.7264   20.1330   35.2015 H   0  0  0  0  0  0  0  0  0  0  0  0
  2  3  1  0
  2  1  1  0
  4  3  2  0
  5 10  2  0
  5  4  1  0
  6  5  1  0
  7  8  1  0
  7  6  2  0
  8  9  2  0
  9 10  1  0
 10  2  1  0
 11 12  2  0
 11  8  1  0
 13 12  1  0
 14 13  2  0
 15 14  1  0
 15 16  2  0
 16 11  1  0
 17  1  1  0
 17 20  1  0
 19 18  2  0
 20 19  1  0
 21 20  2  0
 21 22  1  0
 22 23  2  0
 23 18  1  0
 24 22  1  0
 24 25  2  0
 26 25  1  0
 27 26  2  0
 28 27  1  0
 28 24  1  0
  1 29  1  0
  1 30  1  0
  3 31  1  0
  6 32  1  0
 12 33  1  0
 13 34  1  0
 15 35  1  0
 17 36  1  0
 17 37  1  0
 18 38  1  0
 19 39  1  0
 25 40  1  0
 26 41  1  0
 27 42  1  0
M  ISO  8  29   8  30   8  31  14  32  14  33  14  34  14  35  14  36   8
M  ISO  6  37   8  38  14  39  14  40  14  41  14  42  14
M  END
>  <minimizedAffinity>  (1) 
-5.55977488

>  <minimizedRMSD>  (1) 
1.73813248

$$$$
