
     RDKit          3D

 44 48  0  0  0  0  0  0  0  0999 V2000
   38.4460   26.5990   34.6030 C   0  0  0  0  0  0  0  0  0  0  0  0
   37.4390   27.4860   33.9860 N   0  0  0  0  0  0  0  0  0  0  0  0
   36.3980   28.1120   34.5880 C   0  0  0  0  0  0  0  0  0  0  0  0
   35.7140   28.8310   33.6660 N   0  0  0  0  0  0  0  0  0  0  0  0
   36.2970   28.6790   32.4740 C   0  0  0  0  0  0  0  0  0  0  0  0
   36.0930   29.1270   31.1970 C   0  0  0  0  0  0  0  0  0  0  0  0
   36.8980   28.7790   30.1540 N   0  0  0  0  0  0  0  0  0  0  0  0
   37.9200   27.9650   30.4170 C   0  0  0  0  0  0  0  0  0  0  0  0
   38.1930   27.4750   31.6480 N   0  0  0  0  0  0  0  0  0  0  0  0
   37.3780   27.8350   32.6750 C   0  0  0  0  0  0  0  0  0  0  0  0
   38.8140   27.5630   29.3170 C   0  0  0  0  0  0  0  0  0  0  0  0
   39.5800   26.4250   29.4060 C   0  0  0  0  0  0  0  0  0  0  0  0
   40.4350   25.9880   28.4220 C   0  0  0  0  0  0  0  0  0  0  0  0
   40.5240   26.7550   27.2670 C   0  0  0  0  0  0  0  0  0  0  0  0
   39.7800   27.8980   27.1330 C   0  0  0  0  0  0  0  0  0  0  0  0
   38.9210   28.3150   28.1500 C   0  0  0  0  0  0  0  0  0  0  0  0
   37.9380   25.1640   34.4610 C   0  0  0  0  0  0  0  0  0  0  0  0
   38.1720   23.9640   38.0350 C   0  0  0  0  0  0  0  0  0  0  0  0
   37.7690   24.6180   36.8900 C   0  0  0  0  0  0  0  0  0  0  0  0
   38.4160   24.4340   35.6550 C   0  0  0  0  0  0  0  0  0  0  0  0
   39.4730   23.5670   35.6440 N   0  0  0  0  0  0  0  0  0  0  0  0
   39.8270   22.9460   36.8120 C   0  0  0  0  0  0  0  0  0  0  0  0
   39.2170   23.1200   37.9800 N   0  0  0  0  0  0  0  0  0  0  0  0
   40.9420   22.0350   36.7840 C   0  0  0  0  0  0  0  0  0  0  0  0
   41.6500   21.2330   37.6050 C   0  0  0  0  0  0  0  0  0  0  0  0
   42.6770   20.4920   37.2050 C   0  0  0  0  0  0  0  0  0  0  0  0
   42.9770   20.6150   35.7980 C   0  0  0  0  0  0  0  0  0  0  0  0
   41.6950   21.8290   35.2080 S   0  0  0  0  0  0  0  0  0  0  0  0
   39.4111   26.7092   34.0868 H   0  0  0  0  0  0  0  0  0  0  0  0
   38.5938   26.8561   35.6623 H   0  0  0  0  0  0  0  0  0  0  0  0
   36.1481   28.0464   35.6572 H   0  0  0  0  0  0  0  0  0  0  0  0
   35.2423   29.7971   31.0042 H   0  0  0  0  0  0  0  0  0  0  0  0
   39.5039   25.8247   30.3246 H   0  0  0  0  0  0  0  0  0  0  0  0
   41.0251   25.0678   28.5443 H   0  0  0  0  0  0  0  0  0  0  0  0
   41.1964   26.4426   26.4544 H   0  0  0  0  0  0  0  0  0  0  0  0
   39.8611   28.4941   26.2121 H   0  0  0  0  0  0  0  0  0  0  0  0
   38.3300   29.2350   28.0304 H   0  0  0  0  0  0  0  0  0  0  0  0
   36.8388   25.1513   34.4216 H   0  0  0  0  0  0  0  0  0  0  0  0
   38.3065   24.6995   33.5345 H   0  0  0  0  0  0  0  0  0  0  0  0
   37.6432   24.1313   38.9849 H   0  0  0  0  0  0  0  0  0  0  0  0
   36.9129   25.3066   36.9444 H   0  0  0  0  0  0  0  0  0  0  0  0
   41.3607   21.1901   38.6654 H   0  0  0  0  0  0  0  0  0  0  0  0
   43.2480   19.8426   37.8848 H   0  0  0  0  0  0  0  0  0  0  0  0
   43.7672   20.1153   35.2184 H   0  0  0  0  0  0  0  0  0  0  0  0
  2  3  1  0
  2  1  1  0
  4  3  2  0
  5 10  2  0
  5  4  1  0
  6  5  1  0
  7  8  1  0
  7  6  2  0
  8  9  2  0
  9 10  1  0
 10  2  1  0
 11 12  2  0
 11  8  1  0
 13 12  1  0
 14 13  2  0
 15 14  1  0
 15 16  2  0
 16 11  1  0
 17  1  1  0
 17 20  1  0
 19 18  2  0
 20 19  1  0
 21 20  2  0
 21 22  1  0
 22 23  2  0
 23 18  1  0
 24 22  1  0
 24 25  2  0
 26 25  1  0
 27 26  2  0
 28 27  1  0
 28 24  1  0
  1 29  1  0
  1 30  1  0
  3 31  1  0
  6 32  1  0
 12 33  1  0
 13 34  1  0
 14 35  1  0
 15 36  1  0
 16 37  1  0
 17 38  1  0
 17 39  1  0
 18 40  1  0
 19 41  1  0
 25 42  1  0
 26 43  1  0
 27 44  1  0
M  ISO  8  29   8  30   8  31  14  32  14  33  14  34  14  35  14  36  14
M  ISO  8  37  14  38   8  39   8  40  14  41  14  42  14  43  14  44  14
M  END
>  <minimizedAffinity>  (1) 
-5.57309389

>  <minimizedRMSD>  (1) 
1.92735565

$$$$
