
     RDKit          3D

 42 46  0  0  0  0  0  0  0  0999 V2000
   38.3480   26.6330   34.6520 C   0  0  0  0  0  0  0  0  0  0  0  0
   37.4060   27.5040   33.9400 N   0  0  0  0  0  0  0  0  0  0  0  0
   36.3540   28.1740   34.4700 C   0  0  0  0  0  0  0  0  0  0  0  0
   35.7260   28.8680   33.5010 N   0  0  0  0  0  0  0  0  0  0  0  0
   36.3640   28.6560   32.3320 C   0  0  0  0  0  0  0  0  0  0  0  0
   36.2180   29.0670   31.0200 C   0  0  0  0  0  0  0  0  0  0  0  0
   37.0730   28.6510   30.0310 N   0  0  0  0  0  0  0  0  0  0  0  0
   38.0680   27.8220   30.3890 C   0  0  0  0  0  0  0  0  0  0  0  0
   38.2460   27.3980   31.6490 N   0  0  0  0  0  0  0  0  0  0  0  0
   37.4080   27.8020   32.6320 C   0  0  0  0  0  0  0  0  0  0  0  0
   38.9860   27.3730   29.3290 C   0  0  0  0  0  0  0  0  0  0  0  0
   39.8420   26.2970   29.5800 C   0  0  0  0  0  0  0  0  0  0  0  0
   40.6720   25.9440   28.5240 C   0  0  0  0  0  0  0  0  0  0  0  0
   40.6570   26.5900   27.3440 N   0  0  0  0  0  0  0  0  0  0  0  0
   39.8110   27.6200   27.1590 C   0  0  0  0  0  0  0  0  0  0  0  0
   38.9650   28.0280   28.1440 N   0  0  0  0  0  0  0  0  0  0  0  0
   37.9060   25.1840   34.4770 C   0  0  0  0  0  0  0  0  0  0  0  0
   38.1630   23.9680   38.0500 C   0  0  0  0  0  0  0  0  0  0  0  0
   37.7550   24.6270   36.9000 C   0  0  0  0  0  0  0  0  0  0  0  0
   38.3930   24.4510   35.6620 C   0  0  0  0  0  0  0  0  0  0  0  0
   39.4550   23.5830   35.6430 N   0  0  0  0  0  0  0  0  0  0  0  0
   39.8130   22.9620   36.8100 C   0  0  0  0  0  0  0  0  0  0  0  0
   39.2090   23.1300   37.9760 N   0  0  0  0  0  0  0  0  0  0  0  0
   40.9330   22.0490   36.7660 C   0  0  0  0  0  0  0  0  0  0  0  0
   41.6460   21.2480   37.6000 C   0  0  0  0  0  0  0  0  0  0  0  0
   42.6640   20.5130   37.1690 C   0  0  0  0  0  0  0  0  0  0  0  0
   42.9500   20.6240   35.7820 C   0  0  0  0  0  0  0  0  0  0  0  0
   41.6640   21.8420   35.1740 S   0  0  0  0  0  0  0  0  0  0  0  0
   39.3584   26.7640   34.2373 H   0  0  0  0  0  0  0  0  0  0  0  0
   38.3626   26.8928   35.7208 H   0  0  0  0  0  0  0  0  0  0  0  0
   36.0581   28.1542   35.5293 H   0  0  0  0  0  0  0  0  0  0  0  0
   35.3928   29.7469   30.7618 H   0  0  0  0  0  0  0  0  0  0  0  0
   39.8572   25.7680   30.5443 H   0  0  0  0  0  0  0  0  0  0  0  0
   41.3689   25.1034   28.6576 H   0  0  0  0  0  0  0  0  0  0  0  0
   39.8030   28.1432   26.1914 H   0  0  0  0  0  0  0  0  0  0  0  0
   36.8091   25.1258   34.4185 H   0  0  0  0  0  0  0  0  0  0  0  0
   38.3111   24.7539   33.5491 H   0  0  0  0  0  0  0  0  0  0  0  0
   37.6397   24.1289   39.0041 H   0  0  0  0  0  0  0  0  0  0  0  0
   36.8982   25.3143   36.9602 H   0  0  0  0  0  0  0  0  0  0  0  0
   41.3715   21.2072   38.6644 H   0  0  0  0  0  0  0  0  0  0  0  0
   43.2457   19.8632   37.8393 H   0  0  0  0  0  0  0  0  0  0  0  0
   43.7369   20.1169   35.2045 H   0  0  0  0  0  0  0  0  0  0  0  0
  2  3  1  0
  2  1  1  0
  4  3  2  0
  5 10  2  0
  5  4  1  0
  6  5  1  0
  7  8  1  0
  7  6  2  0
  8  9  2  0
  9 10  1  0
 10  2  1  0
 11 12  2  0
 11  8  1  0
 13 12  1  0
 14 13  2  0
 15 14  1  0
 15 16  2  0
 16 11  1  0
 17  1  1  0
 17 20  1  0
 19 18  2  0
 20 19  1  0
 21 20  2  0
 21 22  1  0
 22 23  2  0
 23 18  1  0
 24 22  1  0
 24 25  2  0
 26 25  1  0
 27 26  2  0
 28 27  1  0
 28 24  1  0
  1 29  1  0
  1 30  1  0
  3 31  1  0
  6 32  1  0
 12 33  1  0
 13 34  1  0
 15 35  1  0
 17 36  1  0
 17 37  1  0
 18 38  1  0
 19 39  1  0
 25 40  1  0
 26 41  1  0
 27 42  1  0
M  ISO  8  29   8  30   8  31  14  32  14  33  14  34  14  35  14  36   8
M  ISO  6  37   8  38  14  39  14  40  14  41  14  42  14
M  END
>  <minimizedAffinity>  (1) 
-5.53859329

>  <minimizedRMSD>  (1) 
1.76469946

$$$$
