
     RDKit          3D

 50 54  0  0  0  0  0  0  0  0999 V2000
   38.4130   26.6140   34.6840 C   0  0  0  0  0  0  0  0  0  0  0  0
   37.4190   27.4960   34.0560 N   0  0  0  0  0  0  0  0  0  0  0  0
   36.3260   28.0400   34.6280 C   0  0  0  0  0  0  0  0  0  0  0  0
   35.6590   28.7950   33.7180 N   0  0  0  0  0  0  0  0  0  0  0  0
   36.3200   28.7410   32.5520 C   0  0  0  0  0  0  0  0  0  0  0  0
   36.1720   29.2690   31.2790 C   0  0  0  0  0  0  0  0  0  0  0  0
   37.0530   29.0140   30.2740 N   0  0  0  0  0  0  0  0  0  0  0  0
   38.1070   28.2080   30.5570 C   0  0  0  0  0  0  0  0  0  0  0  0
   38.2850   27.6800   31.7710 N   0  0  0  0  0  0  0  0  0  0  0  0
   37.4140   27.9290   32.7740 C   0  0  0  0  0  0  0  0  0  0  0  0
   39.0580   27.9390   29.4520 C   0  0  0  0  0  0  0  0  0  0  0  0
   39.4170   26.5030   29.2710 C   0  0  0  0  0  0  0  0  0  0  0  0
   40.5750   26.4680   28.2770 C   0  0  0  0  0  0  0  0  0  0  0  0
   40.1700   27.1170   26.9900 C   0  0  0  0  0  0  0  0  0  0  0  0
   39.7900   28.5530   27.2310 C   0  0  0  0  0  0  0  0  0  0  0  0
   38.5640   28.5220   28.1370 C   0  0  0  0  0  0  0  0  0  0  0  0
   37.9350   25.1720   34.5220 C   0  0  0  0  0  0  0  0  0  0  0  0
   38.1940   23.9610   38.0920 C   0  0  0  0  0  0  0  0  0  0  0  0
   37.7870   24.6170   36.9510 C   0  0  0  0  0  0  0  0  0  0  0  0
   38.4230   24.4350   35.7110 C   0  0  0  0  0  0  0  0  0  0  0  0
   39.4730   23.5680   35.6890 N   0  0  0  0  0  0  0  0  0  0  0  0
   39.8400   22.9410   36.8480 C   0  0  0  0  0  0  0  0  0  0  0  0
   39.2440   23.1090   38.0190 N   0  0  0  0  0  0  0  0  0  0  0  0
   40.9500   22.0260   36.8220 C   0  0  0  0  0  0  0  0  0  0  0  0
   41.6660   21.2190   37.6130 C   0  0  0  0  0  0  0  0  0  0  0  0
   42.6890   20.4790   37.2030 C   0  0  0  0  0  0  0  0  0  0  0  0
   42.9780   20.6140   35.7980 C   0  0  0  0  0  0  0  0  0  0  0  0
   41.6910   21.8370   35.2210 S   0  0  0  0  0  0  0  0  0  0  0  0
   39.3886   26.7413   34.1920 H   0  0  0  0  0  0  0  0  0  0  0  0
   38.5242   26.8619   35.7499 H   0  0  0  0  0  0  0  0  0  0  0  0
   36.0206   27.8940   35.6746 H   0  0  0  0  0  0  0  0  0  0  0  0
   35.3090   29.9193   31.0733 H   0  0  0  0  0  0  0  0  0  0  0  0
   39.9840   28.4472   29.7591 H   0  0  0  0  0  0  0  0  0  0  0  0
   39.7269   26.0648   30.2312 H   0  0  0  0  0  0  0  0  0  0  0  0
   38.5588   25.9217   28.9028 H   0  0  0  0  0  0  0  0  0  0  0  0
   41.4348   27.0072   28.7013 H   0  0  0  0  0  0  0  0  0  0  0  0
   40.8488   25.4208   28.0809 H   0  0  0  0  0  0  0  0  0  0  0  0
   39.3089   26.5791   26.5667 H   0  0  0  0  0  0  0  0  0  0  0  0
   41.0159   27.0819   26.2877 H   0  0  0  0  0  0  0  0  0  0  0  0
   40.6150   29.0883   27.7239 H   0  0  0  0  0  0  0  0  0  0  0  0
   39.5775   29.0755   26.2866 H   0  0  0  0  0  0  0  0  0  0  0  0
   38.1701   29.5378   28.2886 H   0  0  0  0  0  0  0  0  0  0  0  0
   37.7462   27.9274   27.7038 H   0  0  0  0  0  0  0  0  0  0  0  0
   36.8364   25.1378   34.4773 H   0  0  0  0  0  0  0  0  0  0  0  0
   38.3171   24.7267   33.5915 H   0  0  0  0  0  0  0  0  0  0  0  0
   37.6743   24.1267   39.0472 H   0  0  0  0  0  0  0  0  0  0  0  0
   36.9335   25.3082   37.0127 H   0  0  0  0  0  0  0  0  0  0  0  0
   41.3880   21.1649   38.6759 H   0  0  0  0  0  0  0  0  0  0  0  0
   43.2631   19.8232   37.8741 H   0  0  0  0  0  0  0  0  0  0  0  0
   43.7641   20.1181   35.2097 H   0  0  0  0  0  0  0  0  0  0  0  0
  2  3  1  0
  2  1  1  0
  4  3  2  0
  5 10  2  0
  5  4  1  0
  6  5  1  0
  7  8  1  0
  7  6  2  0
  8  9  2  0
  9 10  1  0
 10  2  1  0
 11  8  1  0
 12 11  1  0
 13 12  1  0
 14 15  1  0
 14 13  1  0
 15 16  1  0
 16 11  1  0
 17  1  1  0
 17 20  1  0
 19 18  2  0
 20 19  1  0
 21 20  2  0
 21 22  1  0
 22 23  2  0
 23 18  1  0
 24 22  1  0
 24 25  2  0
 26 25  1  0
 27 26  2  0
 28 27  1  0
 28 24  1  0
  1 29  1  0
  1 30  1  0
  3 31  1  0
  6 32  1  0
 11 33  1  0
 12 34  1  0
 12 35  1  0
 13 36  1  0
 13 37  1  0
 14 38  1  0
 14 39  1  0
 15 40  1  0
 15 41  1  0
 16 42  1  0
 16 43  1  0
 17 44  1  0
 17 45  1  0
 18 46  1  0
 19 47  1  0
 25 48  1  0
 26 49  1  0
 27 50  1  0
M  ISO  8  29   8  30   8  31  14  32  14  33  13  34  13  35  13  36  13
M  ISO  8  37  13  38  13  39  13  40  13  41  13  42  13  43  13  44   8
M  ISO  6  45   8  46  14  47  14  48  14  49  14  50  14
M  END
>  <minimizedAffinity>  (1) 
-5.53789139

>  <minimizedRMSD>  (1) 
1.88331294

$$$$
