
     RDKit          3D

 39 41  0  0  1  0  0  0  0  0999 V2000
   36.2620   29.6300   32.3040 C   0  0  0  0  0  0  0  0  0  0  0  0
   37.0110   28.6180   31.7640 C   0  0  0  0  0  0  0  0  0  0  0  0
   37.2800   27.5110   32.5650 C   0  0  0  0  0  0  0  0  0  0  0  0
   36.8100   27.4400   33.8510 C   0  0  0  0  0  0  0  0  0  0  0  0
   36.0620   28.4510   34.3920 C   0  0  0  0  0  0  0  0  0  0  0  0
   35.7820   29.5560   33.6180 C   0  0  0  0  0  0  0  0  0  0  0  0
   37.2020   26.1900   34.5350 C   0  0  0  0  0  0  0  0  0  0  0  0
   38.6230   26.1580   34.9690 C   0  0  2  0  0  0  0  0  0  0  0  0
   40.5160   23.2160   36.0580 C   0  0  0  0  0  0  0  0  0  0  0  0
   39.6890   22.6590   37.0920 C   0  0  0  0  0  0  0  0  0  0  0  0
   38.4820   23.3150   37.3940 C   0  0  0  0  0  0  0  0  0  0  0  0
   38.1830   24.4440   36.6770 N   0  0  0  0  0  0  0  0  0  0  0  0
   38.9910   24.9360   35.7100 C   0  0  0  0  0  0  0  0  0  0  0  0
   40.1500   24.3350   35.3960 N   0  0  0  0  0  0  0  0  0  0  0  0
   38.8730   27.3630   35.8920 C   0  0  0  0  0  0  0  0  0  0  0  0
   35.9090   31.0330   31.3180 S   0  0  0  0  0  0  0  0  0  0  0  0
   36.4520   30.7570   29.9260 O   0  0  0  0  0  0  0  0  0  0  0  0
   36.5860   32.2570   31.8500 O   0  0  0  0  0  0  0  0  0  0  0  0
   34.1890   31.3090   31.2360 C   0  0  0  0  0  0  0  0  0  0  0  0
   33.1120   30.6580   31.6900 N   0  0  0  0  0  0  0  0  0  0  0  0
   32.0250   31.2920   31.3560 O   0  0  0  0  0  0  0  0  0  0  0  0
   32.3440   32.3690   30.6820 C   0  0  0  0  0  0  0  0  0  0  0  0
   33.6660   32.3860   30.6040 N   0  0  0  0  0  0  0  0  0  0  0  0
   31.3440   33.2960   30.1640 C   0  0  0  0  0  0  0  0  0  0  0  0
   30.1650   32.8670   30.0030 O   0  0  0  0  0  0  0  0  0  0  0  0
   37.3874   28.6778   30.7321 H   0  0  0  0  0  0  0  0  0  0  0  0
   37.8783   26.6815   32.1600 H   0  0  0  0  0  0  0  0  0  0  0  0
   35.6914   28.3824   35.4254 H   0  0  0  0  0  0  0  0  0  0  0  0
   35.1818   30.3798   34.0317 H   0  0  0  0  0  0  0  0  0  0  0  0
   36.5660   26.0683   35.4242 H   0  0  0  0  0  0  0  0  0  0  0  0
   37.0733   25.3753   33.8072 H   0  0  0  0  0  0  0  0  0  0  0  0
   39.2363   26.1842   34.0562 H   0  0  0  0  0  0  0  0  0  0  0  0
   41.4647   22.7222   35.8006 H   0  0  0  0  0  0  0  0  0  0  0  0
   39.9901   21.7483   37.6306 H   0  0  0  0  0  0  0  0  0  0  0  0
   37.8052   22.9370   38.1744 H   0  0  0  0  0  0  0  0  0  0  0  0
   38.8062   27.0409   36.9417 H   0  0  0  0  0  0  0  0  0  0  0  0
   39.8752   27.7724   35.6972 H   0  0  0  0  0  0  0  0  0  0  0  0
   38.1164   28.1373   35.6972 H   0  0  0  0  0  0  0  0  0  0  0  0
   31.6070   34.3360   29.9209 H   0  0  0  0  0  0  0  0  0  0  0  0
  1  6  1  0
  2  1  2  0
  2  3  1  0
  3  4  2  0
  4  5  1  0
  4  7  1  0
  6  5  2  0
  7  8  1  0
  8 13  1  0
  8 15  1  0
  9 10  2  0
 10 11  1  0
 12 11  2  0
 13 12  1  0
 14 13  2  0
 14  9  1  0
 16 18  2  0
 16  1  1  0
 17 16  2  0
 19 16  1  0
 19 20  2  0
 21 20  1  0
 22 21  1  0
 23 22  2  0
 23 19  1  0
 24 22  1  0
 25 24  2  0
  2 26  1  0
  3 27  1  0
  5 28  1  0
  6 29  1  0
  7 30  1  0
  7 31  1  0
  8 32  1  6
  9 33  1  0
 10 34  1  0
 11 35  1  0
 15 36  1  0
 15 37  1  0
 15 38  1  0
 24 39  1  0
M  ISO  8  26  14  27  14  28  14  29  14  30   8  31   8  32   8  33  14
M  ISO  6  34  14  35  14  36   8  37   8  38   8  39   6
M  END
>  <minimizedAffinity>  (1) 
-4.83764553

>  <minimizedRMSD>  (1) 
0.0949844792

$$$$
