
     RDKit          3D

 46 50  0  0  0  0  0  0  0  0999 V2000
   38.2260   26.6130   35.0130 C   0  0  0  0  0  0  0  0  0  0  0  0
   37.4470   27.4390   34.0770 N   0  0  0  0  0  0  0  0  0  0  0  0
   36.3230   28.1440   34.3310 C   0  0  0  0  0  0  0  0  0  0  0  0
   35.9230   28.7670   33.2090 N   0  0  0  0  0  0  0  0  0  0  0  0
   36.7830   28.4740   32.2090 C   0  0  0  0  0  0  0  0  0  0  0  0
   36.9010   28.7990   30.8810 C   0  0  0  0  0  0  0  0  0  0  0  0
   37.9330   28.3140   30.1190 N   0  0  0  0  0  0  0  0  0  0  0  0
   38.8200   27.5130   30.7190 C   0  0  0  0  0  0  0  0  0  0  0  0
   38.7510   27.1620   32.0160 N   0  0  0  0  0  0  0  0  0  0  0  0
   37.7290   27.6420   32.7780 C   0  0  0  0  0  0  0  0  0  0  0  0
   39.8920   27.0160   29.9060 N   0  0  0  0  0  0  0  0  0  0  0  0
   41.2860   26.9920   30.3310 C   0  0  0  0  0  0  0  0  0  0  0  0
   41.9840   26.2090   29.2410 C   0  0  0  0  0  0  0  0  0  0  0  0
   41.1730   26.6040   28.0090 C   0  0  0  0  0  0  0  0  0  0  0  0
   39.7670   26.4650   28.5510 C   0  0  0  0  0  0  0  0  0  0  0  0
   37.8350   25.1520   34.7950 C   0  0  0  0  0  0  0  0  0  0  0  0
   38.2970   23.8220   38.2970 C   0  0  0  0  0  0  0  0  0  0  0  0
   37.8210   24.5110   37.1960 C   0  0  0  0  0  0  0  0  0  0  0  0
   38.3970   24.3840   35.9230 C   0  0  0  0  0  0  0  0  0  0  0  0
   39.4580   23.5400   35.8210 N   0  0  0  0  0  0  0  0  0  0  0  0
   39.8960   22.8800   36.9270 C   0  0  0  0  0  0  0  0  0  0  0  0
   39.3560   22.9950   38.1430 N   0  0  0  0  0  0  0  0  0  0  0  0
   41.0170   21.9870   36.8230 C   0  0  0  0  0  0  0  0  0  0  0  0
   41.7880   21.1670   37.5460 C   0  0  0  0  0  0  0  0  0  0  0  0
   42.8020   20.4640   37.0590 C   0  0  0  0  0  0  0  0  0  0  0  0
   43.0210   20.6580   35.6460 C   0  0  0  0  0  0  0  0  0  0  0  0
   41.6840   21.8730   35.1860 S   0  0  0  0  0  0  0  0  0  0  0  0
   39.3010   26.7441   34.8202 H   0  0  0  0  0  0  0  0  0  0  0  0
   38.0172   26.9127   36.0506 H   0  0  0  0  0  0  0  0  0  0  0  0
   35.8142   28.1996   35.3046 H   0  0  0  0  0  0  0  0  0  0  0  0
   36.1538   29.4610   30.4190 H   0  0  0  0  0  0  0  0  0  0  0  0
   41.6915   28.0121   30.4013 H   0  0  0  0  0  0  0  0  0  0  0  0
   41.4187   26.5443   31.3270 H   0  0  0  0  0  0  0  0  0  0  0  0
   43.0370   26.5111   29.1417 H   0  0  0  0  0  0  0  0  0  0  0  0
   42.0203   25.1248   29.4231 H   0  0  0  0  0  0  0  0  0  0  0  0
   41.3535   25.9196   27.1670 H   0  0  0  0  0  0  0  0  0  0  0  0
   41.4118   27.5972   27.6010 H   0  0  0  0  0  0  0  0  0  0  0  0
   39.0506   27.0450   27.9507 H   0  0  0  0  0  0  0  0  0  0  0  0
   39.3899   25.4318   28.5312 H   0  0  0  0  0  0  0  0  0  0  0  0
   36.7397   25.0522   34.7781 H   0  0  0  0  0  0  0  0  0  0  0  0
   38.2218   24.7804   33.8346 H   0  0  0  0  0  0  0  0  0  0  0  0
   37.8220   23.9447   39.2815 H   0  0  0  0  0  0  0  0  0  0  0  0
   36.9595   25.1830   37.3232 H   0  0  0  0  0  0  0  0  0  0  0  0
   41.5657   21.0689   38.6188 H   0  0  0  0  0  0  0  0  0  0  0  0
   43.4194   19.7944   37.6758 H   0  0  0  0  0  0  0  0  0  0  0  0
   43.7865   20.2023   35.0007 H   0  0  0  0  0  0  0  0  0  0  0  0
  2  3  1  0
  2  1  1  0
  4  3  2  0
  5 10  2  0
  5  4  1  0
  6  5  1  0
  7  8  1  0
  7  6  2  0
  8  9  2  0
  9 10  1  0
 10  2  1  0
 11 12  1  0
 11  8  1  0
 13 12  1  0
 14 15  1  0
 14 13  1  0
 15 11  1  0
 16  1  1  0
 16 19  1  0
 18 17  2  0
 19 18  1  0
 20 19  2  0
 20 21  1  0
 21 22  2  0
 22 17  1  0
 23 21  1  0
 23 24  2  0
 25 24  1  0
 26 25  2  0
 27 26  1  0
 27 23  1  0
  1 28  1  0
  1 29  1  0
  3 30  1  0
  6 31  1  0
 12 32  1  0
 12 33  1  0
 13 34  1  0
 13 35  1  0
 14 36  1  0
 14 37  1  0
 15 38  1  0
 15 39  1  0
 16 40  1  0
 16 41  1  0
 17 42  1  0
 18 43  1  0
 24 44  1  0
 25 45  1  0
 26 46  1  0
M  ISO  8  28   8  29   8  30  14  31  14  32  13  33  13  34  13  35  13
M  ISO  8  36  13  37  13  38  13  39  13  40   8  41   8  42  14  43  14
M  ISO  3  44  14  45  14  46  14
M  END
>  <minimizedAffinity>  (1) 
-5.39690161

>  <minimizedRMSD>  (1) 
1.03949642

$$$$
