
     RDKit          3D

 43 46  0  0  0  0  0  0  0  0999 V2000
   37.5630   25.3780   35.5960 C   0  0  0  0  0  0  0  0  0  0  0  0
   38.5490   23.6900   38.8370 C   0  0  0  0  0  0  0  0  0  0  0  0
   37.9110   24.4860   37.9050 C   0  0  0  0  0  0  0  0  0  0  0  0
   38.2840   24.5040   36.5520 C   0  0  0  0  0  0  0  0  0  0  0  0
   39.3160   23.6900   36.2020 N   0  0  0  0  0  0  0  0  0  0  0  0
   39.9180   22.9220   37.1500 C   0  0  0  0  0  0  0  0  0  0  0  0
   39.5680   22.9010   38.4370 N   0  0  0  0  0  0  0  0  0  0  0  0
   41.0080   22.0640   36.7750 C   0  0  0  0  0  0  0  0  0  0  0  0
   41.9120   21.2250   37.2850 C   0  0  0  0  0  0  0  0  0  0  0  0
   42.8250   20.5700   36.5790 C   0  0  0  0  0  0  0  0  0  0  0  0
   42.7610   20.8440   35.1650 C   0  0  0  0  0  0  0  0  0  0  0  0
   41.3460   22.0510   35.0460 S   0  0  0  0  0  0  0  0  0  0  0  0
   38.6190   26.1870   34.8650 C   0  0  0  0  0  0  0  0  0  0  0  0
   37.9740   26.9830   33.8150 N   0  0  0  0  0  0  0  0  0  0  0  0
   36.7590   27.5570   33.8530 C   0  0  0  0  0  0  0  0  0  0  0  0
   36.5290   28.2060   32.6910 N   0  0  0  0  0  0  0  0  0  0  0  0
   37.6020   28.0540   31.8880 C   0  0  0  0  0  0  0  0  0  0  0  0
   37.9610   28.4630   30.6260 C   0  0  0  0  0  0  0  0  0  0  0  0
   39.1550   28.1350   30.0740 N   0  0  0  0  0  0  0  0  0  0  0  0
   39.9980   27.3750   30.8290 C   0  0  0  0  0  0  0  0  0  0  0  0
   39.6890   26.9550   32.0640 N   0  0  0  0  0  0  0  0  0  0  0  0
   38.4870   27.2880   32.6100 C   0  0  0  0  0  0  0  0  0  0  0  0
   41.3160   27.0010   30.2450 C   0  0  0  0  0  0  0  0  0  0  0  0
   41.1250   26.7550   28.7540 C   0  0  0  0  0  0  0  0  0  0  0  0
   42.3910   28.0120   30.4700 C   0  0  0  0  0  0  0  0  0  0  0  0
   36.9906   24.7679   34.8817 H   0  0  0  0  0  0  0  0  0  0  0  0
   36.8519   26.0348   36.1184 H   0  0  0  0  0  0  0  0  0  0  0  0
   38.2308   23.6994   39.8899 H   0  0  0  0  0  0  0  0  0  0  0  0
   37.0813   25.1284   38.2351 H   0  0  0  0  0  0  0  0  0  0  0  0
   41.8993   21.0642   38.3731 H   0  0  0  0  0  0  0  0  0  0  0  0
   43.5589   19.8850   37.0287 H   0  0  0  0  0  0  0  0  0  0  0  0
   43.3904   20.4411   34.3578 H   0  0  0  0  0  0  0  0  0  0  0  0
   39.1267   26.8565   35.5750 H   0  0  0  0  0  0  0  0  0  0  0  0
   39.3582   25.5088   34.4138 H   0  0  0  0  0  0  0  0  0  0  0  0
   36.0595   27.5060   34.7004 H   0  0  0  0  0  0  0  0  0  0  0  0
   37.2567   29.0764   30.0449 H   0  0  0  0  0  0  0  0  0  0  0  0
   41.6598   26.0927   30.7615 H   0  0  0  0  0  0  0  0  0  0  0  0
   40.4564   25.8939   28.6071 H   0  0  0  0  0  0  0  0  0  0  0  0
   40.6809   27.6475   28.2891 H   0  0  0  0  0  0  0  0  0  0  0  0
   42.0997   26.5459   28.2891 H   0  0  0  0  0  0  0  0  0  0  0  0
   42.5412   28.1532   31.5505 H   0  0  0  0  0  0  0  0  0  0  0  0
   43.3273   27.6596   30.0126 H   0  0  0  0  0  0  0  0  0  0  0  0
   42.0967   28.9681   30.0126 H   0  0  0  0  0  0  0  0  0  0  0  0
  1  4  1  0
  3  2  2  0
  4  3  1  0
  5  4  2  0
  5  6  1  0
  6  7  2  0
  7  2  1  0
  8  6  1  0
  8  9  2  0
 10  9  1  0
 11 10  2  0
 12 11  1  0
 12  8  1  0
 13  1  1  0
 14 15  1  0
 14 13  1  0
 16 15  2  0
 17 22  2  0
 17 16  1  0
 18 17  1  0
 19 18  2  0
 19 20  1  0
 20 21  2  0
 21 22  1  0
 22 14  1  0
 23 25  1  0
 23 20  1  0
 24 23  1  0
  1 26  1  0
  1 27  1  0
  2 28  1  0
  3 29  1  0
  9 30  1  0
 10 31  1  0
 11 32  1  0
 13 33  1  0
 13 34  1  0
 15 35  1  0
 18 36  1  0
 23 37  1  0
 24 38  1  0
 24 39  1  0
 24 40  1  0
 25 41  1  0
 25 42  1  0
 25 43  1  0
M  ISO  8  26   8  27   8  28  14  29  14  30  14  31  14  32  14  33   8
M  ISO  8  34   8  35  14  36  14  37   8  38   8  39   8  40   8  41   8
M  ISO  2  42   8  43   8
M  END
>  <minimizedAffinity>  (1) 
-4.89115763

>  <minimizedRMSD>  (1) 
0.159163356

$$$$
