
     RDKit          3D

 35 38  0  0  0  0  0  0  0  0999 V2000
   37.6380   25.4390   35.5790 C   0  0  0  0  0  0  0  0  0  0  0  0
   38.5310   23.6760   38.8040 C   0  0  0  0  0  0  0  0  0  0  0  0
   37.9270   24.4960   37.8660 C   0  0  0  0  0  0  0  0  0  0  0  0
   38.3310   24.5380   36.5220 C   0  0  0  0  0  0  0  0  0  0  0  0
   39.3660   23.7170   36.1770 N   0  0  0  0  0  0  0  0  0  0  0  0
   39.9310   22.9250   37.1400 C   0  0  0  0  0  0  0  0  0  0  0  0
   39.5540   22.8820   38.4070 N   0  0  0  0  0  0  0  0  0  0  0  0
   41.0230   22.0630   36.7500 C   0  0  0  0  0  0  0  0  0  0  0  0
   41.9280   21.2160   37.3130 C   0  0  0  0  0  0  0  0  0  0  0  0
   42.8260   20.5690   36.5780 C   0  0  0  0  0  0  0  0  0  0  0  0
   42.7750   20.8180   35.1810 C   0  0  0  0  0  0  0  0  0  0  0  0
   41.3610   22.0350   35.0160 S   0  0  0  0  0  0  0  0  0  0  0  0
   38.7380   26.1890   34.8250 C   0  0  0  0  0  0  0  0  0  0  0  0
   38.0920   26.9880   33.7650 N   0  0  0  0  0  0  0  0  0  0  0  0
   36.8990   27.6220   33.8230 C   0  0  0  0  0  0  0  0  0  0  0  0
   36.6630   28.2460   32.6410 N   0  0  0  0  0  0  0  0  0  0  0  0
   37.6940   28.0170   31.8210 C   0  0  0  0  0  0  0  0  0  0  0  0
   38.0550   28.3530   30.5340 C   0  0  0  0  0  0  0  0  0  0  0  0
   39.2250   27.9470   29.9610 N   0  0  0  0  0  0  0  0  0  0  0  0
   40.0410   27.1880   30.7020 C   0  0  0  0  0  0  0  0  0  0  0  0
   39.7560   26.8200   31.9610 N   0  0  0  0  0  0  0  0  0  0  0  0
   38.5870   27.2310   32.5260 C   0  0  0  0  0  0  0  0  0  0  0  0
   41.2080   26.8130   30.0520 O   0  0  0  0  0  0  0  0  0  0  0  0
   37.0223   24.8572   34.8773 H   0  0  0  0  0  0  0  0  0  0  0  0
   36.9660   26.1328   36.1054 H   0  0  0  0  0  0  0  0  0  0  0  0
   38.1875   23.6695   39.8490 H   0  0  0  0  0  0  0  0  0  0  0  0
   37.0961   25.1414   38.1871 H   0  0  0  0  0  0  0  0  0  0  0  0
   41.9155   21.0637   38.4023 H   0  0  0  0  0  0  0  0  0  0  0  0
   43.5623   19.8839   37.0235 H   0  0  0  0  0  0  0  0  0  0  0  0
   43.4115   20.3981   34.3882 H   0  0  0  0  0  0  0  0  0  0  0  0
   39.2804   26.8516   35.5155 H   0  0  0  0  0  0  0  0  0  0  0  0
   39.4574   25.4805   34.3886 H   0  0  0  0  0  0  0  0  0  0  0  0
   36.2251   27.6307   34.6923 H   0  0  0  0  0  0  0  0  0  0  0  0
   37.3690   28.9766   29.9420 H   0  0  0  0  0  0  0  0  0  0  0  0
   41.8755   26.2501   30.5186 H   0  0  0  0  0  0  0  0  0  0  0  0
  1  4  1  0
  3  2  2  0
  4  3  1  0
  5  4  2  0
  5  6  1  0
  6  7  2  0
  7  2  1  0
  8  6  1  0
  8  9  2  0
 10  9  1  0
 11 10  2  0
 12 11  1  0
 12  8  1  0
 13  1  1  0
 14 15  1  0
 14 13  1  0
 16 15  2  0
 17 22  2  0
 17 16  1  0
 18 17  1  0
 19 18  2  0
 19 20  1  0
 20 21  2  0
 21 22  1  0
 22 14  1  0
 23 20  1  0
  1 24  1  0
  1 25  1  0
  2 26  1  0
  3 27  1  0
  9 28  1  0
 10 29  1  0
 11 30  1  0
 13 31  1  0
 13 32  1  0
 15 33  1  0
 18 34  1  0
 23 35  1  0
M  ISO  8  24   8  25   8  26  14  27  14  28  14  29  14  30  14  31   8
M  ISO  4  32   8  33  14  34  14  35   3
M  END
>  <minimizedAffinity>  (1) 
-4.94008446

>  <minimizedRMSD>  (1) 
0.0276307389

$$$$
