
     RDKit          3D

 46 49  0  0  0  0  0  0  0  0999 V2000
   37.5670   25.3740   35.5960 C   0  0  0  0  0  0  0  0  0  0  0  0
   38.5580   23.6860   38.8250 C   0  0  0  0  0  0  0  0  0  0  0  0
   37.9170   24.4850   37.8940 C   0  0  0  0  0  0  0  0  0  0  0  0
   38.2880   24.5040   36.5390 C   0  0  0  0  0  0  0  0  0  0  0  0
   39.3230   23.6850   36.1930 N   0  0  0  0  0  0  0  0  0  0  0  0
   39.9220   22.9210   37.1320 C   0  0  0  0  0  0  0  0  0  0  0  0
   39.5720   22.9020   38.4150 N   0  0  0  0  0  0  0  0  0  0  0  0
   41.0150   22.0620   36.7500 C   0  0  0  0  0  0  0  0  0  0  0  0
   41.9270   21.2150   37.2990 C   0  0  0  0  0  0  0  0  0  0  0  0
   42.8340   20.5680   36.5780 C   0  0  0  0  0  0  0  0  0  0  0  0
   42.7620   20.8460   35.1680 C   0  0  0  0  0  0  0  0  0  0  0  0
   41.3520   22.0460   35.0270 S   0  0  0  0  0  0  0  0  0  0  0  0
   38.6210   26.1970   34.8620 C   0  0  0  0  0  0  0  0  0  0  0  0
   37.9730   26.9880   33.8180 N   0  0  0  0  0  0  0  0  0  0  0  0
   36.7550   27.5490   33.8650 C   0  0  0  0  0  0  0  0  0  0  0  0
   36.5080   28.2030   32.7010 N   0  0  0  0  0  0  0  0  0  0  0  0
   37.5760   28.0630   31.8970 C   0  0  0  0  0  0  0  0  0  0  0  0
   37.9370   28.4730   30.6310 C   0  0  0  0  0  0  0  0  0  0  0  0
   39.1330   28.1590   30.0690 N   0  0  0  0  0  0  0  0  0  0  0  0
   39.9720   27.4160   30.8120 C   0  0  0  0  0  0  0  0  0  0  0  0
   39.6800   26.9850   32.0520 N   0  0  0  0  0  0  0  0  0  0  0  0
   38.4810   27.3050   32.6010 C   0  0  0  0  0  0  0  0  0  0  0  0
   41.2710   27.1050   30.1380 C   0  0  0  0  0  0  0  0  0  0  0  0
   42.2160   28.2660   30.4450 C   0  0  0  0  0  0  0  0  0  0  0  0
   41.8830   25.8250   30.6040 C   0  0  0  0  0  0  0  0  0  0  0  0
   41.0150   27.1520   28.6530 C   0  0  0  0  0  0  0  0  0  0  0  0
   36.9957   24.7650   34.8799 H   0  0  0  0  0  0  0  0  0  0  0  0
   36.8553   26.0252   36.1247 H   0  0  0  0  0  0  0  0  0  0  0  0
   38.2446   23.6918   39.8794 H   0  0  0  0  0  0  0  0  0  0  0  0
   37.0883   25.1274   38.2266 H   0  0  0  0  0  0  0  0  0  0  0  0
   41.9120   21.0597   38.3879 H   0  0  0  0  0  0  0  0  0  0  0  0
   43.5730   19.8821   37.0179 H   0  0  0  0  0  0  0  0  0  0  0  0
   43.3937   20.4425   34.3629 H   0  0  0  0  0  0  0  0  0  0  0  0
   39.1242   26.8685   35.5732 H   0  0  0  0  0  0  0  0  0  0  0  0
   39.3642   25.5248   34.4082 H   0  0  0  0  0  0  0  0  0  0  0  0
   36.0619   27.4883   34.7170 H   0  0  0  0  0  0  0  0  0  0  0  0
   37.2261   29.0803   30.0515 H   0  0  0  0  0  0  0  0  0  0  0  0
   42.3112   28.3830   31.5346 H   0  0  0  0  0  0  0  0  0  0  0  0
   43.2051   28.0584   30.0107 H   0  0  0  0  0  0  0  0  0  0  0  0
   41.8119   29.1923   30.0107 H   0  0  0  0  0  0  0  0  0  0  0  0
   41.8937   25.8027   31.7037 H   0  0  0  0  0  0  0  0  0  0  0  0
   41.2928   24.9773   30.2258 H   0  0  0  0  0  0  0  0  0  0  0  0
   42.9134   25.7522   30.2258 H   0  0  0  0  0  0  0  0  0  0  0  0
   39.9480   27.3479   28.4709 H   0  0  0  0  0  0  0  0  0  0  0  0
   41.6173   27.9546   28.2023 H   0  0  0  0  0  0  0  0  0  0  0  0
   41.2929   26.1878   28.2023 H   0  0  0  0  0  0  0  0  0  0  0  0
  1  4  1  0
  3  2  2  0
  4  3  1  0
  5  4  2  0
  5  6  1  0
  6  7  2  0
  7  2  1  0
  8  6  1  0
  8  9  2  0
 10  9  1  0
 11 10  2  0
 12 11  1  0
 12  8  1  0
 13  1  1  0
 14 15  1  0
 14 13  1  0
 16 15  2  0
 17 22  2  0
 17 16  1  0
 18 17  1  0
 19 18  2  0
 19 20  1  0
 20 21  2  0
 21 22  1  0
 22 14  1  0
 23 24  1  0
 23 25  1  0
 23 20  1  0
 26 23  1  0
  1 27  1  0
  1 28  1  0
  2 29  1  0
  3 30  1  0
  9 31  1  0
 10 32  1  0
 11 33  1  0
 13 34  1  0
 13 35  1  0
 15 36  1  0
 18 37  1  0
 24 38  1  0
 24 39  1  0
 24 40  1  0
 25 41  1  0
 25 42  1  0
 25 43  1  0
 26 44  1  0
 26 45  1  0
 26 46  1  0
M  ISO  8  27   8  28   8  29  14  30  14  31  14  32  14  33  14  34   8
M  ISO  8  35   8  36  14  37  14  38   8  39   8  40   8  41   8  42   8
M  ISO  4  43   8  44   8  45   8  46   8
M  END
>  <minimizedAffinity>  (1) 
-4.99880171

>  <minimizedRMSD>  (1) 
0.18006812

$$$$
