
     RDKit          3D

 29 30  0  0  0  0  0  0  0  0999 V2000
   38.1540   24.4300   34.6600 C   0  0  0  0  0  0  0  0  0  0  0  0
   38.1930   25.7420   34.2640 C   0  0  0  0  0  0  0  0  0  0  0  0
   37.7780   25.7510   32.9800 N   0  0  0  0  0  0  0  0  0  0  0  0
   37.5100   24.4710   32.6580 C   0  0  0  0  0  0  0  0  0  0  0  0
   37.7300   23.6170   33.6750 N   0  0  0  0  0  0  0  0  0  0  0  0
   38.5230   23.9470   35.9920 C   0  0  0  0  0  0  0  0  0  0  0  0
   39.7660   23.3520   36.2120 C   0  0  0  0  0  0  0  0  0  0  0  0
   40.0750   22.9030   37.5090 C   0  0  0  0  0  0  0  0  0  0  0  0
   39.1370   23.0790   38.4780 N   0  0  0  0  0  0  0  0  0  0  0  0
   37.9420   23.6610   38.2310 C   0  0  0  0  0  0  0  0  0  0  0  0
   37.6430   24.0890   36.9960 N   0  0  0  0  0  0  0  0  0  0  0  0
   37.5340   22.1910   33.6340 C   0  0  0  0  0  0  0  0  0  0  0  0
   36.9960   21.6090   34.9090 C   0  0  0  0  0  0  0  0  0  0  0  0
   36.6380   21.8260   32.4770 C   0  0  0  0  0  0  0  0  0  0  0  0
   38.8890   21.5200   33.3710 C   0  0  0  0  0  0  0  0  0  0  0  0
   38.4994   26.6086   34.8683 H   0  0  0  0  0  0  0  0  0  0  0  0
   37.1491   24.1564   31.6677 H   0  0  0  0  0  0  0  0  0  0  0  0
   40.4878   23.2367   35.3900 H   0  0  0  0  0  0  0  0  0  0  0  0
   41.0411   22.4264   37.7315 H   0  0  0  0  0  0  0  0  0  0  0  0
   37.2129   23.7838   39.0455 H   0  0  0  0  0  0  0  0  0  0  0  0
   37.4625   22.1136   35.7679 H   0  0  0  0  0  0  0  0  0  0  0  0
   35.9061   21.7531   34.9466 H   0  0  0  0  0  0  0  0  0  0  0  0
   37.2252   20.5338   34.9466 H   0  0  0  0  0  0  0  0  0  0  0  0
   35.6834   21.4371   32.8610 H   0  0  0  0  0  0  0  0  0  0  0  0
   36.4497   22.7191   31.8631 H   0  0  0  0  0  0  0  0  0  0  0  0
   37.1274   21.0556   31.8631 H   0  0  0  0  0  0  0  0  0  0  0  0
   39.3720   21.2808   34.3299 H   0  0  0  0  0  0  0  0  0  0  0  0
   38.7345   20.5943   32.7973 H   0  0  0  0  0  0  0  0  0  0  0  0
   39.5317   22.2040   32.7973 H   0  0  0  0  0  0  0  0  0  0  0  0
  1  6  1  0
  2  1  2  0
  3  2  1  0
  4  3  2  0
  4  5  1  0
  5  1  1  0
  6  7  2  0
  6 11  1  0
  7  8  1  0
  8  9  2  0
 10  9  1  0
 11 10  2  0
 12  5  1  0
 12 13  1  0
 14 12  1  0
 15 12  1  0
  2 16  1  0
  4 17  1  0
  7 18  1  0
  8 19  1  0
 10 20  1  0
 13 21  1  0
 13 22  1  0
 13 23  1  0
 14 24  1  0
 14 25  1  0
 14 26  1  0
 15 27  1  0
 15 28  1  0
 15 29  1  0
M  ISO  8  16  14  17  14  18  14  19  14  20  14  21   8  22   8  23   8
M  ISO  6  24   8  25   8  26   8  27   8  28   8  29   8
M  END
>  <minimizedAffinity>  (1) 
-3.7414012

>  <minimizedRMSD>  (1) 
3.38133121

$$$$
