
     RDKit          3D

 13 13  0  0  0  0  0  0  0  0999 V2000
   40.6500   22.4930   37.6080 C   0  0  0  0  0  0  0  0  0  0  0  0
   39.3310   22.9740   37.8230 C   0  0  0  0  0  0  0  0  0  0  0  0
   38.7780   23.7480   36.8130 C   0  0  0  0  0  0  0  0  0  0  0  0
   39.5010   24.0080   35.6860 N   0  0  0  0  0  0  0  0  0  0  0  0
   40.7480   23.5290   35.5290 C   0  0  0  0  0  0  0  0  0  0  0  0
   41.3130   22.7730   36.4960 N   0  0  0  0  0  0  0  0  0  0  0  0
   37.4710   24.2200   37.0360 N   0  0  0  0  0  0  0  0  0  0  0  0
   38.7400   22.6200   39.0160 O   0  0  0  0  0  0  0  0  0  0  0  0
   41.1308   21.8753   38.3808 H   0  0  0  0  0  0  0  0  0  0  0  0
   41.3098   23.7535   34.6103 H   0  0  0  0  0  0  0  0  0  0  0  0
   37.0045   24.8001   36.3241 H   0  0  0  0  0  0  0  0  0  0  0  0
   36.9810   23.9854   37.9111 H   0  0  0  0  0  0  0  0  0  0  0  0
   37.8213   22.9253   39.2231 H   0  0  0  0  0  0  0  0  0  0  0  0
  1  2  2  0
  2  8  1  0
  3  7  1  0
  3  2  1  0
  4  3  2  0
  5  4  1  0
  5  6  2  0
  6  1  1  0
  1  9  1  0
  5 10  1  0
  7 11  1  0
  7 12  1  0
  8 13  1  0
M  ISO  3   9  14  10  14  13   3
M  END
>  <minimizedAffinity>  (1) 
-3.13266754

>  <minimizedRMSD>  (1) 
1.55024719

$$$$
