
     RDKit          3D

 20 21  0  0  0  0  0  0  0  0999 V2000
   38.0330   22.4060   36.3060 C   0  0  0  0  0  0  0  0  0  0  0  0
   39.4150   22.1150   36.4280 C   0  0  0  0  0  0  0  0  0  0  0  0
   40.0810   22.6940   37.5400 C   0  0  0  0  0  0  0  0  0  0  0  0
   39.3720   23.4680   38.3910 N   0  0  0  0  0  0  0  0  0  0  0  0
   38.0640   23.7080   38.2230 C   0  0  0  0  0  0  0  0  0  0  0  0
   37.3710   23.1880   37.1880 N   0  0  0  0  0  0  0  0  0  0  0  0
   37.2980   21.8340   35.1760 C   0  0  0  0  0  0  0  0  0  0  0  0
   37.6790   21.8880   33.8510 C   0  0  0  0  0  0  0  0  0  0  0  0
   36.7070   21.2340   33.1700 N   0  0  0  0  0  0  0  0  0  0  0  0
   35.7980   20.8180   34.0710 C   0  0  0  0  0  0  0  0  0  0  0  0
   36.1450   21.1790   35.3220 N   0  0  0  0  0  0  0  0  0  0  0  0
   35.3670   20.8750   36.5100 C   0  0  0  0  0  0  0  0  0  0  0  0
   39.9412   21.4771   35.7026 H   0  0  0  0  0  0  0  0  0  0  0  0
   41.1538   22.5160   37.7057 H   0  0  0  0  0  0  0  0  0  0  0  0
   37.5404   24.3470   38.9493 H   0  0  0  0  0  0  0  0  0  0  0  0
   38.5807   22.3616   33.4355 H   0  0  0  0  0  0  0  0  0  0  0  0
   34.8875   20.2549   33.8183 H   0  0  0  0  0  0  0  0  0  0  0  0
   35.9608   21.1070   37.4064 H   0  0  0  0  0  0  0  0  0  0  0  0
   34.4486   21.4804   36.5117 H   0  0  0  0  0  0  0  0  0  0  0  0
   35.1023   19.8073   36.5117 H   0  0  0  0  0  0  0  0  0  0  0  0
  1  2  2  0
  1  6  1  0
  2  3  1  0
  3  4  2  0
  5  4  1  0
  6  5  2  0
  7 11  1  0
  7  1  1  0
  8  7  2  0
  9  8  1  0
  9 10  2  0
 10 11  1  0
 11 12  1  0
  2 13  1  0
  3 14  1  0
  5 15  1  0
  8 16  1  0
 10 17  1  0
 12 18  1  0
 12 19  1  0
 12 20  1  0
M  ISO  8  13  14  14  14  15  14  16  14  17  14  18   8  19   8  20   8
M  END
>  <minimizedAffinity>  (1) 
-3.61171436

>  <minimizedRMSD>  (1) 
0.310764372

$$$$
