
     RDKit          3D

 23 23  0  0  0  0  0  0  0  0999 V2000
   40.5690   23.2030   36.0600 C   0  0  0  0  0  0  0  0  0  0  0  0
   39.3860   23.9860   36.1360 C   0  0  0  0  0  0  0  0  0  0  0  0
   39.3940   25.1500   35.3780 C   0  0  0  0  0  0  0  0  0  0  0  0
   40.4960   25.4810   34.6210 N   0  0  0  0  0  0  0  0  0  0  0  0
   41.5860   24.7020   34.5860 C   0  0  0  0  0  0  0  0  0  0  0  0
   41.6380   23.5590   35.3000 N   0  0  0  0  0  0  0  0  0  0  0  0
   38.1330   25.9080   35.3730 C   0  0  0  0  0  0  0  0  0  0  0  0
   37.4900   25.9660   34.0580 C   0  0  0  0  0  0  0  0  0  0  0  0
   38.3740   27.3510   35.9200 C   0  0  0  0  0  0  0  0  0  0  0  0
   38.4260   23.5130   36.9350 O   0  0  0  0  0  0  0  0  0  0  0  0
   38.3000   23.7390   38.2880 C   0  0  0  0  0  0  0  0  0  0  0  0
   37.3170   22.8800   38.8030 F   0  0  0  0  0  0  0  0  0  0  0  0
   37.9230   25.0000   38.5880 F   0  0  0  0  0  0  0  0  0  0  0  0
   39.4650   23.3970   38.9870 F   0  0  0  0  0  0  0  0  0  0  0  0
   40.6219   22.2700   36.6403 H   0  0  0  0  0  0  0  0  0  0  0  0
   42.4470   24.9979   33.9686 H   0  0  0  0  0  0  0  0  0  0  0  0
   37.4396   25.3650   36.0320 H   0  0  0  0  0  0  0  0  0  0  0  0
   36.4019   26.0642   34.1859 H   0  0  0  0  0  0  0  0  0  0  0  0
   37.8733   26.8332   33.5003 H   0  0  0  0  0  0  0  0  0  0  0  0
   37.7120   25.0442   33.5003 H   0  0  0  0  0  0  0  0  0  0  0  0
   38.3707   27.3315   37.0198 H   0  0  0  0  0  0  0  0  0  0  0  0
   39.3464   27.7209   35.5627 H   0  0  0  0  0  0  0  0  0  0  0  0
   37.5746   28.0168   35.5627 H   0  0  0  0  0  0  0  0  0  0  0  0
  1  2  2  0
  2 10  1  0
  3  2  1  0
  4  3  2  0
  5  4  1  0
  5  6  2  0
  6  1  1  0
  7  3  1  0
  7  9  1  0
  8  7  1  0
 10 11  1  0
 11 13  1  0
 11 12  1  0
 11 14  1  0
  1 15  1  0
  5 16  1  0
  7 17  1  0
  8 18  1  0
  8 19  1  0
  8 20  1  0
  9 21  1  0
  9 22  1  0
  9 23  1  0
M  ISO  8  15  14  16  14  17   8  18   8  19   8  20   8  21   8  22   8
M  ISO  1  23   8
M  END
>  <minimizedAffinity>  (1) 
-4.22268438

>  <minimizedRMSD>  (1) 
2.47419119

$$$$
