
     RDKit          3D

 23 23  0  0  0  0  0  0  0  0999 V2000
   37.7760   22.7820   36.3710 C   0  0  0  0  0  0  0  0  0  0  0  0
   39.0720   22.4290   35.9900 C   0  0  0  0  0  0  0  0  0  0  0  0
   40.0610   22.5690   36.9600 C   0  0  0  0  0  0  0  0  0  0  0  0
   39.7410   23.0380   38.2140 N   0  0  0  0  0  0  0  0  0  0  0  0
   38.4730   23.3640   38.5290 C   0  0  0  0  0  0  0  0  0  0  0  0
   37.4830   23.2390   37.6150 N   0  0  0  0  0  0  0  0  0  0  0  0
   41.3890   22.0420   36.5820 C   0  0  0  0  0  0  0  0  0  0  0  0
   41.9060   21.0290   37.4990 C   0  0  0  0  0  0  0  0  0  0  0  0
   42.3720   23.2130   36.3650 C   0  0  0  0  0  0  0  0  0  0  0  0
   39.2330   21.9920   34.7170 O   0  0  0  0  0  0  0  0  0  0  0  0
   38.1920   21.8200   33.8120 C   0  0  0  0  0  0  0  0  0  0  0  0
   36.9629   22.6863   35.6363 H   0  0  0  0  0  0  0  0  0  0  0  0
   38.2400   23.7351   39.5380 H   0  0  0  0  0  0  0  0  0  0  0  0
   41.2714   21.5023   35.6307 H   0  0  0  0  0  0  0  0  0  0  0  0
   41.7398   21.3546   38.5365 H   0  0  0  0  0  0  0  0  0  0  0  0
   41.3837   20.0766   37.3255 H   0  0  0  0  0  0  0  0  0  0  0  0
   42.9837   20.8931   37.3255 H   0  0  0  0  0  0  0  0  0  0  0  0
   42.6991   23.6027   37.3403 H   0  0  0  0  0  0  0  0  0  0  0  0
   43.2465   22.8578   35.8001 H   0  0  0  0  0  0  0  0  0  0  0  0
   41.8707   24.0127   35.8001 H   0  0  0  0  0  0  0  0  0  0  0  0
   37.2512   21.6646   34.3605 H   0  0  0  0  0  0  0  0  0  0  0  0
   38.1041   22.7158   33.1797 H   0  0  0  0  0  0  0  0  0  0  0  0
   38.3969   20.9435   33.1797 H   0  0  0  0  0  0  0  0  0  0  0  0
  1  6  2  0
  2  1  1  0
  2  3  2  0
  3  4  1  0
  4  5  2  0
  6  5  1  0
  7  3  1  0
  7  8  1  0
  9  7  1  0
 10  2  1  0
 11 10  1  0
  1 12  1  0
  5 13  1  0
  7 14  1  0
  8 15  1  0
  8 16  1  0
  8 17  1  0
  9 18  1  0
  9 19  1  0
  9 20  1  0
 11 21  1  0
 11 22  1  0
 11 23  1  0
M  ISO  8  12  14  13  14  14   8  15   8  16   8  17   8  18   8  19   8
M  ISO  4  20   8  21   8  22   8  23   8
M  END
>  <minimizedAffinity>  (1) 
-3.39584851

>  <minimizedRMSD>  (1) 
4.22347307

$$$$
