
     RDKit          3D

 26 27  0  0  0  0  0  0  0  0999 V2000
   41.1060   25.4300   34.0900 C   0  0  0  0  0  0  0  0  0  0  0  0
   41.7020   24.5970   35.0330 C   0  0  0  0  0  0  0  0  0  0  0  0
   43.0300   24.8650   35.3680 C   0  0  0  0  0  0  0  0  0  0  0  0
   43.6790   25.9130   34.7620 N   0  0  0  0  0  0  0  0  0  0  0  0
   43.0470   26.6770   33.8590 C   0  0  0  0  0  0  0  0  0  0  0  0
   41.7540   26.4380   33.5180 N   0  0  0  0  0  0  0  0  0  0  0  0
   43.5990   24.0750   36.4850 C   0  0  0  0  0  0  0  0  0  0  0  0
   44.4800   24.8300   37.3710 C   0  0  0  0  0  0  0  0  0  0  0  0
   44.2500   22.7930   35.9180 C   0  0  0  0  0  0  0  0  0  0  0  0
   40.9630   23.5760   35.5570 O   0  0  0  0  0  0  0  0  0  0  0  0
   39.7700   23.7490   36.2200 C   0  0  0  0  0  0  0  0  0  0  0  0
   40.0890   23.0380   37.4300 C   0  0  0  0  0  0  0  0  0  0  0  0
   38.4760   23.2500   38.3710 S   0  0  0  0  0  0  0  0  0  0  0  0
   37.7120   24.2390   36.9620 C   0  0  0  0  0  0  0  0  0  0  0  0
   38.5700   24.2740   36.1520 N   0  0  0  0  0  0  0  0  0  0  0  0
   40.0587   25.2462   33.8082 H   0  0  0  0  0  0  0  0  0  0  0  0
   43.5851   27.5118   33.3862 H   0  0  0  0  0  0  0  0  0  0  0  0
   42.7703   23.7893   37.1496 H   0  0  0  0  0  0  0  0  0  0  0  0
   44.2233   24.6101   38.4178 H   0  0  0  0  0  0  0  0  0  0  0  0
   45.5247   24.5424   37.1814 H   0  0  0  0  0  0  0  0  0  0  0  0
   44.3558   25.9064   37.1814 H   0  0  0  0  0  0  0  0  0  0  0  0
   44.5767   22.1496   36.7483 H   0  0  0  0  0  0  0  0  0  0  0  0
   43.5175   22.2518   35.3011 H   0  0  0  0  0  0  0  0  0  0  0  0
   45.1191   23.0651   35.3011 H   0  0  0  0  0  0  0  0  0  0  0  0
   41.0138   22.5184   37.7212 H   0  0  0  0  0  0  0  0  0  0  0  0
   36.7055   24.6794   36.9069 H   0  0  0  0  0  0  0  0  0  0  0  0
  1  2  2  0
  2  3  1  0
  2 10  1  0
  3  7  1  0
  4  3  2  0
  5  4  1  0
  6  5  2  0
  6  1  1  0
  7  8  1  0
  9  7  1  0
 10 11  1  0
 11 12  2  0
 12 13  1  0
 14 13  1  0
 15 11  1  0
 15 14  2  0
  1 16  1  0
  5 17  1  0
  7 18  1  0
  8 19  1  0
  8 20  1  0
  8 21  1  0
  9 22  1  0
  9 23  1  0
  9 24  1  0
 12 25  1  0
 14 26  1  0
M  ISO  8  16  14  17  14  18   8  19   8  20   8  21   8  22   8  23   8
M  ISO  3  24   8  25  14  26  14
M  END
>  <minimizedAffinity>  (1) 
-3.44010401

>  <minimizedRMSD>  (1) 
5.06544113

$$$$
