
     RDKit          3D

 27 28  0  0  0  0  0  0  0  0999 V2000
   39.7110   23.0180   38.2330 C   0  0  0  0  0  0  0  0  0  0  0  0
   40.1030   22.9520   36.8950 C   0  0  0  0  0  0  0  0  0  0  0  0
   39.1280   23.1200   35.9260 C   0  0  0  0  0  0  0  0  0  0  0  0
   37.8320   23.3360   36.3150 N   0  0  0  0  0  0  0  0  0  0  0  0
   37.4880   23.3930   37.6190 C   0  0  0  0  0  0  0  0  0  0  0  0
   38.4330   23.2340   38.5830 N   0  0  0  0  0  0  0  0  0  0  0  0
   39.5890   23.2200   34.5230 C   0  0  0  0  0  0  0  0  0  0  0  0
   39.1340   24.4130   33.8200 C   0  0  0  0  0  0  0  0  0  0  0  0
   39.2750   21.9070   33.7880 C   0  0  0  0  0  0  0  0  0  0  0  0
   41.4310   22.7140   36.6270 O   0  0  0  0  0  0  0  0  0  0  0  0
   42.0190   21.4910   36.6670 C   0  0  0  0  0  0  0  0  0  0  0  0
   42.5570   20.9330   35.5130 C   0  0  0  0  0  0  0  0  0  0  0  0
   43.0980   19.7150   35.7520 N   0  0  0  0  0  0  0  0  0  0  0  0
   42.9050   19.4850   37.0800 C   0  0  0  0  0  0  0  0  0  0  0  0
   42.2620   20.5520   37.6110 N   0  0  0  0  0  0  0  0  0  0  0  0
   40.4682   22.8898   39.0205 H   0  0  0  0  0  0  0  0  0  0  0  0
   36.4397   23.5687   37.9024 H   0  0  0  0  0  0  0  0  0  0  0  0
   40.6804   23.3561   34.5396 H   0  0  0  0  0  0  0  0  0  0  0  0
   38.8413   25.1805   34.5516 H   0  0  0  0  0  0  0  0  0  0  0  0
   39.9478   24.7995   33.1889 H   0  0  0  0  0  0  0  0  0  0  0  0
   38.2695   24.1594   33.1889 H   0  0  0  0  0  0  0  0  0  0  0  0
   39.0848   21.1115   34.5235 H   0  0  0  0  0  0  0  0  0  0  0  0
   38.3843   22.0438   33.1572 H   0  0  0  0  0  0  0  0  0  0  0  0
   40.1313   21.6260   33.1572 H   0  0  0  0  0  0  0  0  0  0  0  0
   42.5447   21.4209   34.5272 H   0  0  0  0  0  0  0  0  0  0  0  0
   43.2184   18.5847   37.6288 H   0  0  0  0  0  0  0  0  0  0  0  0
   41.9935   20.6376   38.6017 H   0  0  0  0  0  0  0  0  0  0  0  0
  1  6  2  0
  2  1  1  0
  3  4  1  0
  3  2  2  0
  4  5  2  0
  5  6  1  0
  7  3  1  0
  8  7  1  0
  9  7  1  0
 10 11  1  0
 10  2  1  0
 11 15  1  0
 12 13  1  0
 12 11  2  0
 13 14  2  0
 14 15  1  0
  1 16  1  0
  5 17  1  0
  7 18  1  0
  8 19  1  0
  8 20  1  0
  8 21  1  0
  9 22  1  0
  9 23  1  0
  9 24  1  0
 12 25  1  0
 14 26  1  0
 15 27  1  0
M  ISO  8  16  14  17  14  18   8  19   8  20   8  21   8  22   8  23   8
M  ISO  4  24   8  25  14  26  14  27   9
M  END
>  <minimizedAffinity>  (1) 
-3.47144628

>  <minimizedRMSD>  (1) 
3.88928533

$$$$
