
     RDKit          3D

 23 23  0  0  0  0  0  0  0  0999 V2000
   40.5030   22.1910   37.4540 C   0  0  0  0  0  0  0  0  0  0  0  0
   40.1890   23.2480   36.6050 C   0  0  0  0  0  0  0  0  0  0  0  0
   41.1040   23.6170   35.6280 C   0  0  0  0  0  0  0  0  0  0  0  0
   42.2900   22.9200   35.5440 N   0  0  0  0  0  0  0  0  0  0  0  0
   42.5410   21.9190   36.3790 C   0  0  0  0  0  0  0  0  0  0  0  0
   41.6590   21.5450   37.3340 N   0  0  0  0  0  0  0  0  0  0  0  0
   40.6680   24.6430   34.6490 C   0  0  0  0  0  0  0  0  0  0  0  0
   40.5520   24.1430   33.2830 C   0  0  0  0  0  0  0  0  0  0  0  0
   41.6220   25.8600   34.7540 C   0  0  0  0  0  0  0  0  0  0  0  0
   38.9730   23.8850   36.7960 O   0  0  0  0  0  0  0  0  0  0  0  0
   37.9310   23.1770   37.3500 C   0  0  0  0  0  0  0  0  0  0  0  0
   37.5720   23.3920   38.5380 O   0  0  0  0  0  0  0  0  0  0  0  0
   37.1510   22.1780   36.7330 O   0  0  0  0  0  0  0  0  0  0  0  0
   39.7876   21.8868   38.2323 H   0  0  0  0  0  0  0  0  0  0  0  0
   43.4945   21.3776   36.2917 H   0  0  0  0  0  0  0  0  0  0  0  0
   39.6436   24.9503   34.9063 H   0  0  0  0  0  0  0  0  0  0  0  0
   40.3035   23.0717   33.3046 H   0  0  0  0  0  0  0  0  0  0  0  0
   39.7576   24.6932   32.7574 H   0  0  0  0  0  0  0  0  0  0  0  0
   41.5075   24.2872   32.7574 H   0  0  0  0  0  0  0  0  0  0  0  0
   41.8043   26.0926   35.8135 H   0  0  0  0  0  0  0  0  0  0  0  0
   42.5762   25.6215   34.2615 H   0  0  0  0  0  0  0  0  0  0  0  0
   41.1625   26.7297   34.2615 H   0  0  0  0  0  0  0  0  0  0  0  0
   36.4227   21.7365   37.2377 H   0  0  0  0  0  0  0  0  0  0  0  0
  2 10  1  0
  2  1  2  0
  3  2  1  0
  4  3  2  0
  4  5  1  0
  5  6  2  0
  6  1  1  0
  7  9  1  0
  7  3  1  0
  8  7  1  0
 10 11  1  0
 11 12  2  0
 13 11  1  0
  1 14  1  0
  5 15  1  0
  7 16  1  0
  8 17  1  0
  8 18  1  0
  8 19  1  0
  9 20  1  0
  9 21  1  0
  9 22  1  0
 13 23  1  0
M  ISO  8  14  14  15  14  16   8  17   8  18   8  19   8  20   8  21   8
M  ISO  2  22   8  23   3
M  END
>  <minimizedAffinity>  (1) 
-3.26487422

>  <minimizedRMSD>  (1) 
2.67471576

$$$$
