
     RDKit          3D

 24 24  0  0  0  0  0  0  0  0999 V2000
   40.3430   22.2110   37.0680 C   0  0  0  0  0  0  0  0  0  0  0  0
   39.6490   23.1920   36.3660 C   0  0  0  0  0  0  0  0  0  0  0  0
   40.4120   24.1010   35.6310 C   0  0  0  0  0  0  0  0  0  0  0  0
   41.7830   23.9950   35.6310 N   0  0  0  0  0  0  0  0  0  0  0  0
   42.3970   23.0330   36.3230 C   0  0  0  0  0  0  0  0  0  0  0  0
   41.6840   22.1300   37.0490 N   0  0  0  0  0  0  0  0  0  0  0  0
   39.6450   25.0380   34.7780 C   0  0  0  0  0  0  0  0  0  0  0  0
   39.5260   24.6140   33.3870 C   0  0  0  0  0  0  0  0  0  0  0  0
   40.2220   26.4620   34.9160 C   0  0  0  0  0  0  0  0  0  0  0  0
   38.2770   23.2000   36.4560 O   0  0  0  0  0  0  0  0  0  0  0  0
   37.5300   22.1920   35.8700 C   0  0  0  0  0  0  0  0  0  0  0  0
   36.5630   21.5140   36.6530 N   0  0  0  0  0  0  0  0  0  0  0  0
   37.6320   21.8110   34.6740 O   0  0  0  0  0  0  0  0  0  0  0  0
   39.7745   21.4772   37.6583 H   0  0  0  0  0  0  0  0  0  0  0  0
   43.4950   22.9694   36.3061 H   0  0  0  0  0  0  0  0  0  0  0  0
   38.6085   25.0382   35.1464 H   0  0  0  0  0  0  0  0  0  0  0  0
   39.2289   23.5555   33.3505 H   0  0  0  0  0  0  0  0  0  0  0  0
   38.7649   25.2261   32.8809 H   0  0  0  0  0  0  0  0  0  0  0  0
   40.4944   24.7407   32.8809 H   0  0  0  0  0  0  0  0  0  0  0  0
   40.3243   26.7145   35.9817 H   0  0  0  0  0  0  0  0  0  0  0  0
   41.2090   26.5062   34.4323 H   0  0  0  0  0  0  0  0  0  0  0  0
   39.5442   27.1807   34.4323 H   0  0  0  0  0  0  0  0  0  0  0  0
   35.9976   20.7614   36.2350 H   0  0  0  0  0  0  0  0  0  0  0  0
   36.4255   21.7738   37.6402 H   0  0  0  0  0  0  0  0  0  0  0  0
  2 10  1  0
  2  1  2  0
  3  2  1  0
  4  3  2  0
  4  5  1  0
  5  6  2  0
  6  1  1  0
  7  9  1  0
  7  3  1  0
  8  7  1  0
 11 10  1  0
 11 12  1  0
 13 11  2  0
  1 14  1  0
  5 15  1  0
  7 16  1  0
  8 17  1  0
  8 18  1  0
  8 19  1  0
  9 20  1  0
  9 21  1  0
  9 22  1  0
 12 23  1  0
 12 24  1  0
M  ISO  8  14  14  15  14  16   8  17   8  18   8  19   8  20   8  21   8
M  ISO  1  22   8
M  END
>  <minimizedAffinity>  (1) 
-3.25657988

>  <minimizedRMSD>  (1) 
2.51577044

$$$$
