
     RDKit          3D

 49 53  0  0  1  0  0  0  0  0999 V2000
   36.2250   20.3990   32.1220 N   0  0  0  0  0  0  0  0  0  0  0  0
   36.2580   20.9710   30.9260 C   0  0  0  0  0  0  0  0  0  0  0  0
   36.8020   22.2050   30.9370 N   0  0  0  0  0  0  0  0  0  0  0  0
   37.1500   22.4650   32.2130 C   0  0  0  0  0  0  0  0  0  0  0  0
   37.7300   23.5540   32.8960 C   0  0  0  0  0  0  0  0  0  0  0  0
   37.8640   23.3520   34.2310 N   0  0  0  0  0  0  0  0  0  0  0  0
   37.4940   22.2450   34.8670 C   0  0  0  0  0  0  0  0  0  0  0  0
   36.9580   21.2320   34.2410 N   0  0  0  0  0  0  0  0  0  0  0  0
   36.7790   21.3340   32.9050 C   0  0  0  0  0  0  0  0  0  0  0  0
   37.7520   22.6880   36.1780 C   0  0  0  0  0  0  0  0  0  0  0  0
   37.9830   23.0680   37.3100 N   0  0  0  0  0  0  0  0  0  0  0  0
   38.1330   23.4690   38.4580 C   0  0  0  0  0  0  0  0  0  0  0  0
   39.4490   23.2290   38.4260 N   0  0  0  0  0  0  0  0  0  0  0  0
   40.0540   22.7160   37.3290 C   0  0  0  0  0  0  0  0  0  0  0  0
   41.4590   22.5470   37.4630 C   0  0  0  0  0  0  0  0  0  0  0  0
   42.0840   22.0560   36.3520 C   0  0  0  0  0  0  0  0  0  0  0  0
   41.4840   21.7260   35.1580 C   0  0  0  0  0  0  0  0  0  0  0  0
   40.1260   21.9610   35.2290 C   0  0  0  0  0  0  0  0  0  0  0  0
   39.2010   22.4530   36.2190 C   0  0  0  0  0  0  0  0  0  0  0  0
   38.0140   24.5540   32.0220 O   0  0  0  0  0  0  0  0  0  0  0  0
   36.3760   26.0380   31.2310 C   0  0  0  0  0  0  0  0  0  0  0  0
   37.5360   25.7910   32.0250 C   0  0  0  0  0  0  0  0  0  0  0  0
   38.0340   26.8880   32.7080 C   0  0  0  0  0  0  0  0  0  0  0  0
   37.4110   28.1200   32.5880 N   0  0  0  0  0  0  0  0  0  0  0  0
   36.3180   28.2890   31.8210 C   0  0  0  0  0  0  0  0  0  0  0  0
   35.7980   27.2490   31.1400 N   0  0  0  0  0  0  0  0  0  0  0  0
   39.1410   26.6370   33.6470 C   0  0  0  0  0  0  0  0  0  0  0  0
   38.9820   27.1520   34.9760 C   0  0  0  0  0  0  0  0  0  0  0  0
   40.4640   27.2380   32.9250 C   0  0  0  0  0  0  0  0  0  0  0  0
   35.8644   19.4702   32.3830 H   0  0  0  0  0  0  0  0  0  0  0  0
   35.8788   20.4864   30.0142 H   0  0  0  0  0  0  0  0  0  0  0  0
   37.5762   21.6702   36.5565 H   0  0  0  0  0  0  0  0  0  0  0  0
   38.4175   22.1646   37.5467 H   0  0  0  0  0  0  0  0  0  0  0  0
   37.8825   24.5320   38.5892 H   0  0  0  0  0  0  0  0  0  0  0  0
   37.5268   23.0290   39.2635 H   0  0  0  0  0  0  0  0  0  0  0  0
   40.0172   23.4403   39.2587 H   0  0  0  0  0  0  0  0  0  0  0  0
   42.0004   22.7923   38.3886 H   0  0  0  0  0  0  0  0  0  0  0  0
   43.1723   21.9102   36.4180 H   0  0  0  0  0  0  0  0  0  0  0  0
   42.0102   21.3324   34.2759 H   0  0  0  0  0  0  0  0  0  0  0  0
   39.6183   21.7073   34.2867 H   0  0  0  0  0  0  0  0  0  0  0  0
   35.9355   25.2014   30.6689 H   0  0  0  0  0  0  0  0  0  0  0  0
   35.8471   29.2805   31.7497 H   0  0  0  0  0  0  0  0  0  0  0  0
   39.1975   25.5545   33.8343 H   0  0  0  0  0  0  0  0  0  0  0  0
   39.2249   26.3654   35.7055 H   0  0  0  0  0  0  0  0  0  0  0  0
   39.6578   28.0078   35.1209 H   0  0  0  0  0  0  0  0  0  0  0  0
   37.9414   27.4779   35.1209 H   0  0  0  0  0  0  0  0  0  0  0  0
   41.1831   27.5647   33.6906 H   0  0  0  0  0  0  0  0  0  0  0  0
   40.9244   26.4607   32.2975 H   0  0  0  0  0  0  0  0  0  0  0  0
   40.1814   28.0961   32.2975 H   0  0  0  0  0  0  0  0  0  0  0  0
  1  9  1  0
  2  3  2  0
  2  1  1  0
  3  4  1  0
  4  5  1  0
  4  9  2  0
  5  6  2  0
  6  7  1  0
  8  7  2  0
  9  8  1  0
 10  7  1  0
 10 19  1  0
 10 11  1  0
 11 12  1  0
 13 12  1  0
 14 15  2  0
 14 13  1  0
 16 15  1  0
 17 18  1  0
 17 16  2  0
 18 19  2  0
 19 14  1  0
 20 22  1  0
 20  5  1  0
 21 22  2  0
 22 23  1  0
 23 27  1  0
 24 23  2  0
 25 24  1  0
 26 21  1  0
 26 25  2  0
 27 28  1  0
 29 27  1  0
  1 30  1  0
  2 31  1  0
 10 32  1  0
 11 33  1  0
 12 34  1  0
 12 35  1  0
 13 36  1  0
 15 37  1  0
 16 38  1  0
 17 39  1  0
 18 40  1  0
 21 41  1  0
 25 42  1  0
 27 43  1  0
 28 44  1  0
 28 45  1  0
 28 46  1  0
 29 47  1  0
 29 48  1  0
 29 49  1  0
M  ISO  8  30   9  31  14  32  13  33   5  34  13  35  13  37  14  38  14
M  ISO  8  39  14  40  14  41  14  42  14  43   8  44   8  45   8  46   8
M  ISO  3  47   8  48   8  49   8
M  END
>  <minimizedAffinity>  (1) 
-6.07726908

>  <minimizedRMSD>  (1) 
3.8701725

$$$$
