
     RDKit          3D

 38 41  0  0  0  0  0  0  0  0999 V2000
   37.3940   27.3020   33.7670 C   0  0  0  0  0  0  0  0  0  0  0  0
   38.6500   26.7890   33.3600 C   0  0  0  0  0  0  0  0  0  0  0  0
   39.6340   26.7230   34.3250 C   0  0  0  0  0  0  0  0  0  0  0  0
   39.3520   27.1550   35.6130 N   0  0  0  0  0  0  0  0  0  0  0  0
   38.1400   27.6360   35.9500 C   0  0  0  0  0  0  0  0  0  0  0  0
   37.1630   27.7080   35.0290 N   0  0  0  0  0  0  0  0  0  0  0  0
   40.8960   26.0640   33.9560 C   0  0  0  0  0  0  0  0  0  0  0  0
   41.4370   25.1410   34.9060 C   0  0  0  0  0  0  0  0  0  0  0  0
   41.9410   27.2720   33.6580 C   0  0  0  0  0  0  0  0  0  0  0  0
   38.7630   26.4240   32.0790 O   0  0  0  0  0  0  0  0  0  0  0  0
   39.4000   24.0830   28.2640 N   0  0  0  0  0  0  0  0  0  0  0  0
   40.0370   25.2550   28.3220 C   0  0  0  0  0  0  0  0  0  0  0  0
   39.8220   25.9150   29.4670 N   0  0  0  0  0  0  0  0  0  0  0  0
   38.9870   25.1400   30.2290 C   0  0  0  0  0  0  0  0  0  0  0  0
   38.3980   25.2520   31.5050 C   0  0  0  0  0  0  0  0  0  0  0  0
   37.6380   24.2030   31.8330 N   0  0  0  0  0  0  0  0  0  0  0  0
   37.4340   23.1490   31.0680 C   0  0  0  0  0  0  0  0  0  0  0  0
   37.9780   23.0330   29.8740 N   0  0  0  0  0  0  0  0  0  0  0  0
   38.7720   24.0420   29.4360 C   0  0  0  0  0  0  0  0  0  0  0  0
   36.5340   22.1140   31.6970 C   0  0  0  0  0  0  0  0  0  0  0  0
   35.4570   21.4220   31.3690 C   0  0  0  0  0  0  0  0  0  0  0  0
   34.9410   20.5610   32.2560 C   0  0  0  0  0  0  0  0  0  0  0  0
   35.6400   20.4670   33.5480 C   0  0  0  0  0  0  0  0  0  0  0  0
   37.0500   21.7110   33.3070 S   0  0  0  0  0  0  0  0  0  0  0  0
   36.5819   27.3707   33.0282 H   0  0  0  0  0  0  0  0  0  0  0  0
   37.9491   27.9705   36.9804 H   0  0  0  0  0  0  0  0  0  0  0  0
   40.7025   25.4159   33.0885 H   0  0  0  0  0  0  0  0  0  0  0  0
   41.2274   25.4985   35.9249 H   0  0  0  0  0  0  0  0  0  0  0  0
   40.9749   24.1533   34.7617 H   0  0  0  0  0  0  0  0  0  0  0  0
   42.5246   25.0616   34.7617 H   0  0  0  0  0  0  0  0  0  0  0  0
   42.3013   27.6884   34.6103 H   0  0  0  0  0  0  0  0  0  0  0  0
   42.7939   26.8851   33.0810 H   0  0  0  0  0  0  0  0  0  0  0  0
   41.4353   28.0603   33.0810 H   0  0  0  0  0  0  0  0  0  0  0  0
   39.3959   23.3872   27.5046 H   0  0  0  0  0  0  0  0  0  0  0  0
   40.6737   25.6393   27.5115 H   0  0  0  0  0  0  0  0  0  0  0  0
   34.9907   21.5513   30.3812 H   0  0  0  0  0  0  0  0  0  0  0  0
   34.0476   19.9596   32.0321 H   0  0  0  0  0  0  0  0  0  0  0  0
   35.4062   19.8409   34.4217 H   0  0  0  0  0  0  0  0  0  0  0  0
  1  6  2  0
  2  1  1  0
  2  3  2  0
  3  4  1  0
  4  5  2  0
  6  5  1  0
  7  3  1  0
  7  8  1  0
  9  7  1  0
 10  2  1  0
 11 12  1  0
 11 19  1  0
 12 13  2  0
 13 14  1  0
 14 15  2  0
 15 16  1  0
 15 10  1  0
 17 20  1  0
 17 16  2  0
 18 17  1  0
 19 18  2  0
 19 14  1  0
 20 24  1  0
 21 20  2  0
 21 22  1  0
 22 23  2  0
 24 23  1  0
  1 25  1  0
  5 26  1  0
  7 27  1  0
  8 28  1  0
  8 29  1  0
  8 30  1  0
  9 31  1  0
  9 32  1  0
  9 33  1  0
 11 34  1  0
 12 35  1  0
 21 36  1  0
 22 37  1  0
 23 38  1  0
M  ISO  8  25  14  26  14  27   8  28   8  29   8  30   8  31   8  32   8
M  ISO  6  33   8  34   9  35  14  36  14  37  14  38  14
M  END
>  <minimizedAffinity>  (1) 
-4.74838638

>  <minimizedRMSD>  (1) 
4.60681343

$$$$
