
     RDKit          3D

 36 39  0  0  0  0  0  0  0  0999 V2000
   36.5620   27.8180   32.1990 C   0  0  0  0  0  0  0  0  0  0  0  0
   37.5400   27.0230   32.8500 C   0  0  0  0  0  0  0  0  0  0  0  0
   37.6180   27.1450   34.2230 C   0  0  0  0  0  0  0  0  0  0  0  0
   36.7600   28.0170   34.8760 N   0  0  0  0  0  0  0  0  0  0  0  0
   35.8480   28.7500   34.2100 C   0  0  0  0  0  0  0  0  0  0  0  0
   35.7450   28.6540   32.8780 N   0  0  0  0  0  0  0  0  0  0  0  0
   38.5310   26.2310   34.9280 C   0  0  0  0  0  0  0  0  0  0  0  0
   38.1410   25.8300   36.2440 C   0  0  0  0  0  0  0  0  0  0  0  0
   39.9730   26.9910   34.9340 C   0  0  0  0  0  0  0  0  0  0  0  0
   38.2920   26.2410   32.0720 O   0  0  0  0  0  0  0  0  0  0  0  0
   39.3900   23.4580   28.6940 N   0  0  0  0  0  0  0  0  0  0  0  0
   39.9760   24.6460   28.6490 C   0  0  0  0  0  0  0  0  0  0  0  0
   39.6230   25.4470   29.6690 N   0  0  0  0  0  0  0  0  0  0  0  0
   38.7520   24.7490   30.4400 C   0  0  0  0  0  0  0  0  0  0  0  0
   38.0270   24.9880   31.6330 C   0  0  0  0  0  0  0  0  0  0  0  0
   37.2780   23.9620   32.0310 N   0  0  0  0  0  0  0  0  0  0  0  0
   37.1730   22.7940   31.4150 C   0  0  0  0  0  0  0  0  0  0  0  0
   37.8410   22.5470   30.2960 N   0  0  0  0  0  0  0  0  0  0  0  0
   38.6430   23.5390   29.8010 C   0  0  0  0  0  0  0  0  0  0  0  0
   36.2910   21.8000   32.0260 C   0  0  0  0  0  0  0  0  0  0  0  0
   36.2410   21.3610   33.3170 N   0  0  0  0  0  0  0  0  0  0  0  0
   35.3080   20.4650   33.4490 O   0  0  0  0  0  0  0  0  0  0  0  0
   34.7080   20.2700   32.2890 C   0  0  0  0  0  0  0  0  0  0  0  0
   35.3070   21.0890   31.4010 N   0  0  0  0  0  0  0  0  0  0  0  0
   36.4652   27.7520   31.1053 H   0  0  0  0  0  0  0  0  0  0  0  0
   35.1841   29.4312   34.7625 H   0  0  0  0  0  0  0  0  0  0  0  0
   38.5411   25.2678   34.3968 H   0  0  0  0  0  0  0  0  0  0  0  0
   38.7064   26.4114   36.9871 H   0  0  0  0  0  0  0  0  0  0  0  0
   37.0644   26.0113   36.3786 H   0  0  0  0  0  0  0  0  0  0  0  0
   38.3521   24.7589   36.3786 H   0  0  0  0  0  0  0  0  0  0  0  0
   40.2940   27.1602   35.9724 H   0  0  0  0  0  0  0  0  0  0  0  0
   40.7178   26.3683   34.4168 H   0  0  0  0  0  0  0  0  0  0  0  0
   39.8803   27.9574   34.4168 H   0  0  0  0  0  0  0  0  0  0  0  0
   39.4859   22.6686   28.0394 H   0  0  0  0  0  0  0  0  0  0  0  0
   40.6792   24.9457   27.8580 H   0  0  0  0  0  0  0  0  0  0  0  0
   33.8802   19.5745   32.0864 H   0  0  0  0  0  0  0  0  0  0  0  0
  1  2  2  0
  1  6  1  0
  2  3  1  0
  3  4  2  0
  3  7  1  0
  5  4  1  0
  6  5  2  0
  7  9  1  0
  7  8  1  0
 10  2  1  0
 11 19  1  0
 12 11  1  0
 12 13  2  0
 13 14  1  0
 14 15  2  0
 15 16  1  0
 15 10  1  0
 17 20  1  0
 17 16  2  0
 18 17  1  0
 19 18  2  0
 19 14  1  0
 20 21  2  0
 21 22  1  0
 23 22  1  0
 24 20  1  0
 24 23  2  0
  1 25  1  0
  5 26  1  0
  7 27  1  0
  8 28  1  0
  8 29  1  0
  8 30  1  0
  9 31  1  0
  9 32  1  0
  9 33  1  0
 11 34  1  0
 12 35  1  0
 23 36  1  0
M  ISO  8  25  14  26  14  27   8  28   8  29   8  30   8  31   8  32   8
M  ISO  4  33   8  34   9  35  14  36  14
M  END
>  <minimizedAffinity>  (1) 
-4.79119444

>  <minimizedRMSD>  (1) 
4.25607157

$$$$
