
     RDKit          3D

 40 43  0  0  1  0  0  0  0  0999 V2000
   40.3260   23.5880   34.8520 O   0  0  0  0  0  0  0  0  0  0  0  0
   41.9080   20.1240   32.4380 N   0  0  0  0  0  0  0  0  0  0  0  0
   42.8340   20.8070   33.0810 C   0  0  0  0  0  0  0  0  0  0  0  0
   42.3220   21.8340   33.7920 N   0  0  0  0  0  0  0  0  0  0  0  0
   40.9670   21.8210   33.6000 C   0  0  0  0  0  0  0  0  0  0  0  0
   39.8790   22.6090   34.0440 C   0  0  0  0  0  0  0  0  0  0  0  0
   38.7090   22.2010   33.5690 N   0  0  0  0  0  0  0  0  0  0  0  0
   38.5190   21.1780   32.7650 C   0  0  0  0  0  0  0  0  0  0  0  0
   39.5210   20.4270   32.3380 N   0  0  0  0  0  0  0  0  0  0  0  0
   40.7730   20.7550   32.7640 C   0  0  0  0  0  0  0  0  0  0  0  0
   37.1560   20.8770   32.3530 C   0  0  0  0  0  0  0  0  0  0  0  0
   36.6830   20.3970   31.1340 C   0  0  0  0  0  0  0  0  0  0  0  0
   35.3250   20.3190   31.3530 C   0  0  0  0  0  0  0  0  0  0  0  0
   34.9850   20.7110   32.5870 N   0  0  0  0  0  0  0  0  0  0  0  0
   36.1050   21.0420   33.1690 N   0  0  0  0  0  0  0  0  0  0  0  0
   39.9490   25.8740   34.5930 C   0  0  0  0  0  0  0  0  0  0  0  0
   39.6820   24.6760   35.2820 C   0  0  0  0  0  0  0  0  0  0  0  0
   38.7930   24.7410   36.3270 C   0  0  0  0  0  0  0  0  0  0  0  0
   38.2110   25.9520   36.6600 N   0  0  0  0  0  0  0  0  0  0  0  0
   38.5000   27.0800   35.9680 C   0  0  0  0  0  0  0  0  0  0  0  0
   39.3630   27.0420   34.9400 N   0  0  0  0  0  0  0  0  0  0  0  0
   38.4140   23.4860   36.9960 C   0  0  2  0  0  0  0  0  0  0  0  0
   37.1610   22.9180   36.6540 C   0  0  0  0  0  0  0  0  0  0  0  0
   38.5090   23.8070   38.5990 C   0  0  0  0  0  0  0  0  0  0  0  0
   38.2970   22.5680   39.2740 N   0  0  0  0  0  0  0  0  0  0  0  0
   42.0287   19.3014   31.8300 H   0  0  0  0  0  0  0  0  0  0  0  0
   43.9067   20.5664   33.0425 H   0  0  0  0  0  0  0  0  0  0  0  0
   37.2502   20.1441   30.2261 H   0  0  0  0  0  0  0  0  0  0  0  0
   34.6021   19.9737   30.5992 H   0  0  0  0  0  0  0  0  0  0  0  0
   34.0385   20.7443   32.9919 H   0  0  0  0  0  0  0  0  0  0  0  0
   40.6540   25.8596   33.7488 H   0  0  0  0  0  0  0  0  0  0  0  0
   38.0255   28.0316   36.2495 H   0  0  0  0  0  0  0  0  0  0  0  0
   39.1031   22.7003   36.6528 H   0  0  0  0  0  0  0  0  0  0  0  0
   36.6090   22.6678   37.5720 H   0  0  0  0  0  0  0  0  0  0  0  0
   36.5800   23.6408   36.0623 H   0  0  0  0  0  0  0  0  0  0  0  0
   37.3217   22.0047   36.0623 H   0  0  0  0  0  0  0  0  0  0  0  0
   39.5019   24.2100   38.8476 H   0  0  0  0  0  0  0  0  0  0  0  0
   37.7618   24.5563   38.8994 H   0  0  0  0  0  0  0  0  0  0  0  0
   38.3235   22.7227   40.2920 H   0  0  0  0  0  0  0  0  0  0  0  0
   37.3783   22.1853   39.0087 H   0  0  0  0  0  0  0  0  0  0  0  0
  1 17  1  0
  2 10  1  0
  2  3  1  0
  3  4  2  0
  5  4  1  0
  5  6  2  0
  6  1  1  0
  7  6  1  0
  8  7  2  0
  9 10  2  0
  9  8  1  0
 10  5  1  0
 11  8  1  0
 11 15  2  0
 12 13  2  0
 12 11  1  0
 13 14  1  0
 14 15  1  0
 16 21  2  0
 16 17  1  0
 17 18  2  0
 18 19  1  0
 18 22  1  0
 20 19  2  0
 21 20  1  0
 22 24  1  0
 23 22  1  0
 24 25  1  0
  2 26  1  0
  3 27  1  0
 12 28  1  0
 13 29  1  0
 14 30  1  0
 16 31  1  0
 20 32  1  0
 22 33  1  1
 23 34  1  0
 23 35  1  0
 23 36  1  0
 24 37  1  0
 24 38  1  0
 25 39  1  0
 25 40  1  0
M  ISO  8  26   9  27  14  28  14  29  14  30   9  31  14  32  14  33   8
M  ISO  7  34   8  35   8  36   8  37   8  38   8  39   5  40   5
M  END
>  <minimizedAffinity>  (1) 
-4.6347065

>  <minimizedRMSD>  (1) 
0.463449597

$$$$
