
     RDKit          3D

 25 26  0  0  1  0  0  0  0  0999 V2000
   41.1250   21.6590   37.3430 C   0  0  0  0  0  0  0  0  0  0  0  0
   40.1500   22.4580   36.7210 C   0  0  0  0  0  0  0  0  0  0  0  0
   40.6380   23.4180   35.8070 C   0  0  0  0  0  0  0  0  0  0  0  0
   41.9960   23.5350   35.5640 N   0  0  0  0  0  0  0  0  0  0  0  0
   42.8690   22.7130   36.2180 C   0  0  0  0  0  0  0  0  0  0  0  0
   42.4350   21.7920   37.0910 N   0  0  0  0  0  0  0  0  0  0  0  0
   39.7780   24.2960   35.1020 N   0  0  0  0  0  0  0  0  0  0  0  0
   39.6710   25.7420   35.0960 C   0  0  0  0  0  0  0  0  0  0  0  0
   38.1580   25.8710   35.1140 C   0  0  2  0  0  0  0  0  0  0  0  0
   37.8490   25.0060   33.8960 C   0  0  0  0  0  0  0  0  0  0  0  0
   38.7620   23.8320   34.1780 C   0  0  0  0  0  0  0  0  0  0  0  0
   37.6950   27.2870   34.9300 C   0  0  0  0  0  0  0  0  0  0  0  0
   38.2460   28.1470   35.8350 F   0  0  0  0  0  0  0  0  0  0  0  0
   38.0170   27.6410   33.6300 F   0  0  0  0  0  0  0  0  0  0  0  0
   36.3270   27.2940   34.9970 F   0  0  0  0  0  0  0  0  0  0  0  0
   40.8005   20.8948   38.0646 H   0  0  0  0  0  0  0  0  0  0  0  0
   39.0766   22.3431   36.9323 H   0  0  0  0  0  0  0  0  0  0  0  0
   43.9478   22.8081   36.0252 H   0  0  0  0  0  0  0  0  0  0  0  0
   40.1336   26.1931   35.9862 H   0  0  0  0  0  0  0  0  0  0  0  0
   40.1782   26.2494   34.2622 H   0  0  0  0  0  0  0  0  0  0  0  0
   37.6687   25.5773   36.0544 H   0  0  0  0  0  0  0  0  0  0  0  0
   38.1126   25.5132   32.9562 H   0  0  0  0  0  0  0  0  0  0  0  0
   36.7875   24.7496   33.7637 H   0  0  0  0  0  0  0  0  0  0  0  0
   38.1893   23.0082   34.6291 H   0  0  0  0  0  0  0  0  0  0  0  0
   39.2180   23.4581   33.2494 H   0  0  0  0  0  0  0  0  0  0  0  0
  2  1  2  0
  3  2  1  0
  4  3  2  0
  4  5  1  0
  5  6  2  0
  6  1  1  0
  7  3  1  0
  8  7  1  0
  8  9  1  0
 10 11  1  0
 10  9  1  0
 11  7  1  0
 12 15  1  0
 12  9  1  0
 12 13  1  0
 14 12  1  0
  1 16  1  0
  2 17  1  0
  5 18  1  0
  8 19  1  0
  8 20  1  0
  9 21  1  1
 10 22  1  0
 10 23  1  0
 11 24  1  0
 11 25  1  0
M  ISO  8  16  14  17  14  18  14  19  13  20  13  21  13  22  13  23  13
M  ISO  2  24  13  25  13
M  END
>  <minimizedAffinity>  (1) 
-3.94530964

>  <minimizedRMSD>  (1) 
1.74655676

$$$$
