
     RDKit          3D

 29 31  0  0  1  0  0  0  0  0999 V2000
   38.0300   23.4550   38.1600 C   0  0  0  0  0  0  0  0  0  0  0  0
   37.3850   23.1260   36.9520 C   0  0  0  0  0  0  0  0  0  0  0  0
   38.1990   22.4890   35.9890 C   0  0  0  0  0  0  0  0  0  0  0  0
   39.5100   22.2330   36.2600 N   0  0  0  0  0  0  0  0  0  0  0  0
   40.0680   22.5800   37.4530 C   0  0  0  0  0  0  0  0  0  0  0  0
   39.3230   23.1900   38.3970 N   0  0  0  0  0  0  0  0  0  0  0  0
   37.6930   22.1000   34.7200 N   0  0  0  0  0  0  0  0  0  0  0  0
   38.0890   22.5140   33.3720 C   0  0  0  0  0  0  0  0  0  0  0  0
   36.7080   22.6850   32.7650 C   0  0  2  0  0  0  0  0  0  0  0  0
   36.1310   21.3230   33.1090 C   0  0  0  0  0  0  0  0  0  0  0  0
   36.6150   21.1550   34.5470 C   0  0  0  0  0  0  0  0  0  0  0  0
   36.7290   22.9470   31.2880 C   0  0  0  0  0  0  0  0  0  0  0  0
   37.5380   24.0400   30.7570 C   0  0  0  0  0  0  0  0  0  0  0  0
   36.0240   24.2600   30.9090 C   0  0  0  0  0  0  0  0  0  0  0  0
   37.4449   23.9533   38.9470 H   0  0  0  0  0  0  0  0  0  0  0  0
   36.3231   23.3491   36.7712 H   0  0  0  0  0  0  0  0  0  0  0  0
   41.1286   22.3622   37.6468 H   0  0  0  0  0  0  0  0  0  0  0  0
   38.6566   23.4562   33.3793 H   0  0  0  0  0  0  0  0  0  0  0  0
   38.7585   21.8217   32.8405 H   0  0  0  0  0  0  0  0  0  0  0  0
   36.1431   23.5524   33.1372 H   0  0  0  0  0  0  0  0  0  0  0  0
   35.0326   21.3233   33.0501 H   0  0  0  0  0  0  0  0  0  0  0  0
   36.4405   20.5152   32.4296 H   0  0  0  0  0  0  0  0  0  0  0  0
   35.7994   21.3730   35.2522 H   0  0  0  0  0  0  0  0  0  0  0  0
   36.9488   20.1249   34.7408 H   0  0  0  0  0  0  0  0  0  0  0  0
   36.6682   21.8846   31.0095 H   0  0  0  0  0  0  0  0  0  0  0  0
   37.9785   23.9544   29.7527 H   0  0  0  0  0  0  0  0  0  0  0  0
   38.4311   24.5762   31.1103 H   0  0  0  0  0  0  0  0  0  0  0  0
   35.6319   24.9293   31.6890 H   0  0  0  0  0  0  0  0  0  0  0  0
   35.1923   24.5573   30.2534 H   0  0  0  0  0  0  0  0  0  0  0  0
  1  6  2  0
  2  1  1  0
  3  4  1  0
  3  2  2  0
  4  5  2  0
  5  6  1  0
  7  3  1  0
  8  7  1  0
  9 10  1  0
  9  8  1  0
 10 11  1  0
 11  7  1  0
 12  9  1  0
 13 14  1  0
 13 12  1  0
 14 12  1  0
  1 15  1  0
  2 16  1  0
  5 17  1  0
  8 18  1  0
  8 19  1  0
  9 20  1  1
 10 21  1  0
 10 22  1  0
 11 23  1  0
 11 24  1  0
 12 25  1  0
 13 26  1  0
 13 27  1  0
 14 28  1  0
 14 29  1  0
M  ISO  8  15  14  16  14  17  14  18  13  19  13  20  13  21  13  22  13
M  ISO  7  23  13  24  13  25  13  26  13  27  13  28  13  29  13
M  END
>  <minimizedAffinity>  (1) 
-4.08029556

>  <minimizedRMSD>  (1) 
4.99538565

$$$$
