
     RDKit          3D

 38 41  0  0  1  0  0  0  0  0999 V2000
   38.1630   22.9790   34.7830 N   0  0  0  0  0  0  0  0  0  0  0  0
   38.5260   23.7370   33.5970 C   0  0  0  0  0  0  0  0  0  0  0  0
   37.2000   23.7120   32.8550 C   0  0  2  0  0  0  0  0  0  0  0  0
   37.0590   22.1550   32.8450 C   0  0  0  0  0  0  0  0  0  0  0  0
   37.4580   21.8420   34.2750 C   0  0  0  0  0  0  0  0  0  0  0  0
   37.9080   24.1500   38.2920 C   0  0  0  0  0  0  0  0  0  0  0  0
   37.5430   24.0060   36.9400 C   0  0  0  0  0  0  0  0  0  0  0  0
   38.4020   23.2200   36.1590 C   0  0  0  0  0  0  0  0  0  0  0  0
   39.5150   22.6500   36.7230 N   0  0  0  0  0  0  0  0  0  0  0  0
   39.8020   22.8380   38.0440 C   0  0  0  0  0  0  0  0  0  0  0  0
   39.0080   23.5780   38.8170 N   0  0  0  0  0  0  0  0  0  0  0  0
   37.1340   24.2820   31.5300 C   0  0  0  0  0  0  0  0  0  0  0  0
   37.2330   23.5200   30.5970 O   0  0  0  0  0  0  0  0  0  0  0  0
   36.9510   25.6690   31.1360 C   0  0  0  0  0  0  0  0  0  0  0  0
   35.8440   26.4650   31.0590 C   0  0  0  0  0  0  0  0  0  0  0  0
   36.1070   27.7010   30.6350 N   0  0  0  0  0  0  0  0  0  0  0  0
   37.4290   27.7520   30.4160 C   0  0  0  0  0  0  0  0  0  0  0  0
   38.2160   28.8050   29.9670 C   0  0  0  0  0  0  0  0  0  0  0  0
   39.5750   28.6370   29.8100 C   0  0  0  0  0  0  0  0  0  0  0  0
   40.1530   27.4180   30.0990 C   0  0  0  0  0  0  0  0  0  0  0  0
   39.3330   26.4020   30.5410 C   0  0  0  0  0  0  0  0  0  0  0  0
   37.9660   26.5150   30.7170 C   0  0  0  0  0  0  0  0  0  0  0  0
   38.8355   24.7627   33.8464 H   0  0  0  0  0  0  0  0  0  0  0  0
   39.3811   23.3358   33.0333 H   0  0  0  0  0  0  0  0  0  0  0  0
   36.4183   24.3325   33.3175 H   0  0  0  0  0  0  0  0  0  0  0  0
   36.0268   21.8405   32.6316 H   0  0  0  0  0  0  0  0  0  0  0  0
   37.6552   21.6419   32.0760 H   0  0  0  0  0  0  0  0  0  0  0  0
   36.5607   21.6540   34.8828 H   0  0  0  0  0  0  0  0  0  0  0  0
   38.0922   20.9440   34.3128 H   0  0  0  0  0  0  0  0  0  0  0  0
   37.2664   24.7564   38.9482 H   0  0  0  0  0  0  0  0  0  0  0  0
   36.6419   24.4796   36.5232 H   0  0  0  0  0  0  0  0  0  0  0  0
   40.7002   22.3727   38.4761 H   0  0  0  0  0  0  0  0  0  0  0  0
   34.8332   26.1196   31.3215 H   0  0  0  0  0  0  0  0  0  0  0  0
   35.4294   28.4652   30.5020 H   0  0  0  0  0  0  0  0  0  0  0  0
   37.7532   29.7758   29.7361 H   0  0  0  0  0  0  0  0  0  0  0  0
   40.1968   29.4722   29.4554 H   0  0  0  0  0  0  0  0  0  0  0  0
   41.2353   27.2617   29.9803 H   0  0  0  0  0  0  0  0  0  0  0  0
   39.7991   25.4323   30.7700 H   0  0  0  0  0  0  0  0  0  0  0  0
  1  8  1  0
  2  1  1  0
  3  2  1  0
  4  3  1  0
  4  5  1  0
  5  1  1  0
  6 11  2  0
  7  6  1  0
  8  9  1  0
  8  7  2  0
  9 10  2  0
 10 11  1  0
 12  3  1  0
 13 12  2  0
 14 12  1  0
 15 14  2  0
 16 15  1  0
 17 16  1  0
 17 22  2  0
 18 17  1  0
 19 18  2  0
 19 20  1  0
 20 21  2  0
 21 22  1  0
 22 14  1  0
  2 23  1  0
  2 24  1  0
  3 25  1  1
  4 26  1  0
  4 27  1  0
  5 28  1  0
  5 29  1  0
  6 30  1  0
  7 31  1  0
 10 32  1  0
 15 33  1  0
 16 34  1  0
 18 35  1  0
 19 36  1  0
 20 37  1  0
 21 38  1  0
M  ISO  8  23  13  24  13  25  13  26  13  27  13  28  13  29  13  30  14
M  ISO  8  31  14  32  14  33  14  34   9  35  14  36  14  37  14  38  14
M  END
>  <minimizedAffinity>  (1) 
-5.05664492

>  <minimizedRMSD>  (1) 
4.4694953

$$$$
