
     RDKit          3D

 33 35  0  0  1  0  0  0  0  0999 V2000
   38.4130   24.2840   34.7170 N   0  0  0  0  0  0  0  0  0  0  0  0
   38.6600   25.5140   33.9870 C   0  0  0  0  0  0  0  0  0  0  0  0
   37.3460   25.6290   33.2160 C   0  0  2  0  0  0  0  0  0  0  0  0
   37.4510   24.2190   32.5450 C   0  0  0  0  0  0  0  0  0  0  0  0
   37.8970   23.3890   33.7290 C   0  0  0  0  0  0  0  0  0  0  0  0
   38.0780   24.0290   38.4070 C   0  0  0  0  0  0  0  0  0  0  0  0
   37.7700   24.4440   37.0930 C   0  0  0  0  0  0  0  0  0  0  0  0
   38.6060   23.9520   36.0810 C   0  0  0  0  0  0  0  0  0  0  0  0
   39.6330   23.1310   36.4190 N   0  0  0  0  0  0  0  0  0  0  0  0
   39.8990   22.7570   37.6860 C   0  0  0  0  0  0  0  0  0  0  0  0
   39.1180   23.2100   38.6650 N   0  0  0  0  0  0  0  0  0  0  0  0
   37.2410   26.6850   32.2320 C   0  0  0  0  0  0  0  0  0  0  0  0
   37.7010   26.4710   31.1490 O   0  0  0  0  0  0  0  0  0  0  0  0
   36.5800   27.9400   32.5900 C   0  0  0  0  0  0  0  0  0  0  0  0
   36.3710   28.2280   33.9200 C   0  0  0  0  0  0  0  0  0  0  0  0
   35.7580   29.3850   34.3430 C   0  0  0  0  0  0  0  0  0  0  0  0
   35.3200   30.3190   33.4270 C   0  0  0  0  0  0  0  0  0  0  0  0
   35.5460   30.0010   32.0880 C   0  0  0  0  0  0  0  0  0  0  0  0
   36.1440   28.8680   31.7070 N   0  0  0  0  0  0  0  0  0  0  0  0
   38.8129   26.3675   34.6639 H   0  0  0  0  0  0  0  0  0  0  0  0
   39.5660   25.5102   33.3632 H   0  0  0  0  0  0  0  0  0  0  0  0
   36.4717   25.8812   33.8340 H   0  0  0  0  0  0  0  0  0  0  0  0
   36.4801   23.8811   32.1537 H   0  0  0  0  0  0  0  0  0  0  0  0
   38.1191   24.1728   31.6724 H   0  0  0  0  0  0  0  0  0  0  0  0
   37.0421   22.8310   34.1388 H   0  0  0  0  0  0  0  0  0  0  0  0
   38.6676   22.6656   33.4242 H   0  0  0  0  0  0  0  0  0  0  0  0
   37.4541   24.3825   39.2411 H   0  0  0  0  0  0  0  0  0  0  0  0
   36.9245   25.1134   36.8764 H   0  0  0  0  0  0  0  0  0  0  0  0
   40.7453   22.0901   37.9074 H   0  0  0  0  0  0  0  0  0  0  0  0
   36.7080   27.5032   34.6757 H   0  0  0  0  0  0  0  0  0  0  0  0
   35.6163   29.5664   35.4186 H   0  0  0  0  0  0  0  0  0  0  0  0
   34.8252   31.2527   33.7325 H   0  0  0  0  0  0  0  0  0  0  0  0
   35.2189   30.7112   31.3143 H   0  0  0  0  0  0  0  0  0  0  0  0
  1  8  1  0
  2  1  1  0
  3  2  1  0
  4  3  1  0
  4  5  1  0
  5  1  1  0
  6 11  2  0
  7  6  1  0
  8  9  1  0
  8  7  2  0
  9 10  2  0
 10 11  1  0
 12 14  1  0
 12  3  1  0
 13 12  2  0
 14 15  2  0
 15 16  1  0
 17 16  2  0
 18 17  1  0
 19 18  2  0
 19 14  1  0
  2 20  1  0
  2 21  1  0
  3 22  1  1
  4 23  1  0
  4 24  1  0
  5 25  1  0
  5 26  1  0
  6 27  1  0
  7 28  1  0
 10 29  1  0
 15 30  1  0
 16 31  1  0
 17 32  1  0
 18 33  1  0
M  ISO  8  20  13  21  13  22  13  23  13  24  13  25  13  26  13  27  14
M  ISO  6  28  14  29  14  30  14  31  14  32  14  33  14
M  END
>  <minimizedAffinity>  (1) 
-4.84248257

>  <minimizedRMSD>  (1) 
3.98496342

$$$$
