
     RDKit          3D

 31 33  0  0  1  0  0  0  0  0999 V2000
   38.2770   21.6240   33.0360 N   0  0  0  0  0  0  0  0  0  0  0  0
   38.0410   22.0960   34.3840 C   0  0  0  0  0  0  0  0  0  0  0  0
   38.3630   23.5790   34.2060 C   0  0  2  0  0  0  0  0  0  0  0  0
   39.8100   23.3450   33.6540 C   0  0  0  0  0  0  0  0  0  0  0  0
   39.5370   22.2020   32.6880 C   0  0  0  0  0  0  0  0  0  0  0  0
   36.9940   19.7490   30.1100 C   0  0  0  0  0  0  0  0  0  0  0  0
   37.8450   20.6130   30.8240 C   0  0  0  0  0  0  0  0  0  0  0  0
   37.5250   20.7910   32.1770 C   0  0  0  0  0  0  0  0  0  0  0  0
   36.4510   20.1380   32.6900 N   0  0  0  0  0  0  0  0  0  0  0  0
   35.6630   19.3170   31.9620 C   0  0  0  0  0  0  0  0  0  0  0  0
   35.9380   19.1250   30.6720 N   0  0  0  0  0  0  0  0  0  0  0  0
   38.3580   24.4200   35.3820 C   0  0  0  0  0  0  0  0  0  0  0  0
   38.1010   25.5730   35.2140 O   0  0  0  0  0  0  0  0  0  0  0  0
   38.6500   23.8300   36.6850 C   0  0  0  0  0  0  0  0  0  0  0  0
   37.7680   23.9680   37.7560 C   0  0  0  0  0  0  0  0  0  0  0  0
   38.2950   23.3090   38.8730 C   0  0  0  0  0  0  0  0  0  0  0  0
   39.4780   22.7960   38.4300 N   0  0  0  0  0  0  0  0  0  0  0  0
   39.6690   23.1130   37.1420 N   0  0  0  0  0  0  0  0  0  0  0  0
   36.9975   21.9393   34.6946 H   0  0  0  0  0  0  0  0  0  0  0  0
   38.6261   21.5851   35.1629 H   0  0  0  0  0  0  0  0  0  0  0  0
   37.6276   24.1368   33.6076 H   0  0  0  0  0  0  0  0  0  0  0  0
   40.1990   24.2341   33.1362 H   0  0  0  0  0  0  0  0  0  0  0  0
   40.5717   23.1354   34.4194 H   0  0  0  0  0  0  0  0  0  0  0  0
   40.3309   21.4451   32.7706 H   0  0  0  0  0  0  0  0  0  0  0  0
   39.5157   22.5724   31.6525 H   0  0  0  0  0  0  0  0  0  0  0  0
   37.1994   19.5742   29.0436 H   0  0  0  0  0  0  0  0  0  0  0  0
   38.7029   21.1145   30.3524 H   0  0  0  0  0  0  0  0  0  0  0  0
   34.8040   18.8126   32.4286 H   0  0  0  0  0  0  0  0  0  0  0  0
   36.8105   24.5087   37.7277 H   0  0  0  0  0  0  0  0  0  0  0  0
   37.8554   23.2244   39.8778 H   0  0  0  0  0  0  0  0  0  0  0  0
   40.1315   22.2437   39.0034 H   0  0  0  0  0  0  0  0  0  0  0  0
  1  2  1  0
  3  2  1  0
  3 12  1  0
  4  3  1  0
  5  1  1  0
  5  4  1  0
  6 11  2  0
  6  7  1  0
  7  8  2  0
  8  9  1  0
  8  1  1  0
 10  9  2  0
 11 10  1  0
 12 14  1  0
 13 12  2  0
 14 18  2  0
 14 15  1  0
 15 16  2  0
 17 16  1  0
 18 17  1  0
  2 19  1  0
  2 20  1  0
  3 21  1  6
  4 22  1  0
  4 23  1  0
  5 24  1  0
  5 25  1  0
  6 26  1  0
  7 27  1  0
 10 28  1  0
 15 29  1  0
 16 30  1  0
 17 31  1  0
M  ISO  8  19  13  20  13  21  13  22  13  23  13  24  13  25  13  26  14
M  ISO  5  27  14  28  14  29  14  30  14  31   9
M  END
>  <minimizedAffinity>  (1) 
-4.3249836

>  <minimizedRMSD>  (1) 
6.52252388

$$$$
