
     RDKit          3D

 38 41  0  0  1  0  0  0  0  0999 V2000
   38.5060   25.3440   35.1010 N   0  0  0  0  0  0  0  0  0  0  0  0
   39.2810   25.2760   33.8750 C   0  0  0  0  0  0  0  0  0  0  0  0
   39.5600   26.7620   33.6590 C   0  0  2  0  0  0  0  0  0  0  0  0
   38.0420   27.1730   33.6530 C   0  0  0  0  0  0  0  0  0  0  0  0
   37.5410   26.3540   34.8260 C   0  0  0  0  0  0  0  0  0  0  0  0
   38.0050   24.1320   38.5670 C   0  0  0  0  0  0  0  0  0  0  0  0
   37.8000   24.9310   37.4330 C   0  0  0  0  0  0  0  0  0  0  0  0
   38.5970   24.6310   36.3220 C   0  0  0  0  0  0  0  0  0  0  0  0
   39.5120   23.6040   36.3890 N   0  0  0  0  0  0  0  0  0  0  0  0
   39.6550   22.8690   37.5310 C   0  0  0  0  0  0  0  0  0  0  0  0
   38.9070   23.1360   38.6020 N   0  0  0  0  0  0  0  0  0  0  0  0
   40.2420   27.1850   32.4570 C   0  0  0  0  0  0  0  0  0  0  0  0
   39.5510   27.3270   31.4960 O   0  0  0  0  0  0  0  0  0  0  0  0
   41.7080   27.3900   32.6030 C   0  0  0  0  0  0  0  0  0  0  0  0
   42.4280   26.9170   33.6330 N   0  0  0  0  0  0  0  0  0  0  0  0
   43.7230   27.0670   33.8090 C   0  0  0  0  0  0  0  0  0  0  0  0
   44.4680   27.7440   32.9190 N   0  0  0  0  0  0  0  0  0  0  0  0
   43.8370   28.2680   31.8360 C   0  0  0  0  0  0  0  0  0  0  0  0
   44.5930   28.9540   30.9290 C   0  0  0  0  0  0  0  0  0  0  0  0
   44.0120   29.5030   29.8090 C   0  0  0  0  0  0  0  0  0  0  0  0
   42.6380   29.3330   29.6380 C   0  0  0  0  0  0  0  0  0  0  0  0
   41.9450   28.6290   30.5970 C   0  0  0  0  0  0  0  0  0  0  0  0
   42.4790   28.0700   31.7180 C   0  0  0  0  0  0  0  0  0  0  0  0
   40.2091   24.7011   34.0094 H   0  0  0  0  0  0  0  0  0  0  0  0
   38.7801   24.7706   33.0361 H   0  0  0  0  0  0  0  0  0  0  0  0
   40.2645   27.1986   34.3823 H   0  0  0  0  0  0  0  0  0  0  0  0
   37.9108   28.2518   33.8231 H   0  0  0  0  0  0  0  0  0  0  0  0
   37.5171   26.9906   32.7037 H   0  0  0  0  0  0  0  0  0  0  0  0
   37.4162   27.0009   35.7069 H   0  0  0  0  0  0  0  0  0  0  0  0
   36.5686   25.8987   34.5868 H   0  0  0  0  0  0  0  0  0  0  0  0
   37.4022   24.3286   39.4659 H   0  0  0  0  0  0  0  0  0  0  0  0
   37.0586   25.7434   37.4174 H   0  0  0  0  0  0  0  0  0  0  0  0
   40.3911   22.0524   37.5675 H   0  0  0  0  0  0  0  0  0  0  0  0
   44.2031   26.6318   34.6979 H   0  0  0  0  0  0  0  0  0  0  0  0
   45.6744   29.0685   31.0950 H   0  0  0  0  0  0  0  0  0  0  0  0
   44.6115   30.0579   29.0724 H   0  0  0  0  0  0  0  0  0  0  0  0
   42.1221   29.7502   28.7606 H   0  0  0  0  0  0  0  0  0  0  0  0
   40.8625   28.5071   30.4439 H   0  0  0  0  0  0  0  0  0  0  0  0
  1  8  1  0
  2  1  1  0
  3  2  1  0
  4  3  1  0
  4  5  1  0
  5  1  1  0
  6 11  2  0
  7  6  1  0
  8  9  1  0
  8  7  2  0
  9 10  2  0
 10 11  1  0
 12 14  1  0
 12  3  1  0
 13 12  2  0
 14 15  2  0
 15 16  1  0
 17 16  2  0
 18 17  1  0
 19 18  2  0
 20 19  1  0
 21 20  2  0
 21 22  1  0
 22 23  2  0
 23 18  1  0
 23 14  1  0
  2 24  1  0
  2 25  1  0
  3 26  1  1
  4 27  1  0
  4 28  1  0
  5 29  1  0
  5 30  1  0
  6 31  1  0
  7 32  1  0
 10 33  1  0
 16 34  1  0
 19 35  1  0
 20 36  1  0
 21 37  1  0
 22 38  1  0
M  ISO  8  24  13  25  13  26  13  27  13  28  13  29  13  30  13  31  14
M  ISO  7  32  14  33  14  34  14  35  14  36  14  37  14  38  14
M  END
>  <minimizedAffinity>  (1) 
-4.52059269

>  <minimizedRMSD>  (1) 
1.13947058

$$$$
