
     RDKit          3D

 30 32  0  0  1  0  0  0  0  0999 V2000
   37.9970   25.4200   35.0950 N   0  0  0  0  0  0  0  0  0  0  0  0
   38.1010   25.3920   33.6440 C   0  0  0  0  0  0  0  0  0  0  0  0
   38.4560   26.8320   33.3600 C   0  0  2  0  0  0  0  0  0  0  0  0
   37.1820   27.4140   34.0930 C   0  0  0  0  0  0  0  0  0  0  0  0
   37.1900   26.5580   35.3440 C   0  0  0  0  0  0  0  0  0  0  0  0
   38.5500   23.4960   38.2130 C   0  0  0  0  0  0  0  0  0  0  0  0
   37.9140   24.3950   37.3300 C   0  0  0  0  0  0  0  0  0  0  0  0
   38.5290   24.5600   36.0820 C   0  0  0  0  0  0  0  0  0  0  0  0
   39.6810   23.8690   35.7780 N   0  0  0  0  0  0  0  0  0  0  0  0
   40.2410   23.0190   36.6720 C   0  0  0  0  0  0  0  0  0  0  0  0
   39.6800   22.8320   37.8850 N   0  0  0  0  0  0  0  0  0  0  0  0
   38.5770   27.3260   32.0120 C   0  0  0  0  0  0  0  0  0  0  0  0
   37.7820   28.1710   31.7070 O   0  0  0  0  0  0  0  0  0  0  0  0
   39.5490   26.9490   30.9550 C   0  0  0  0  0  0  0  0  0  0  0  0
   40.8400   27.4450   31.1160 C   0  0  0  0  0  0  0  0  0  0  0  0
   41.6120   26.6840   29.6220 S   0  0  0  0  0  0  0  0  0  0  0  0
   40.1920   25.8870   29.0660 C   0  0  0  0  0  0  0  0  0  0  0  0
   39.1350   26.1610   29.9550 N   0  0  0  0  0  0  0  0  0  0  0  0
   38.8922   24.7058   33.3077 H   0  0  0  0  0  0  0  0  0  0  0  0
   37.1972   25.0348   33.1286 H   0  0  0  0  0  0  0  0  0  0  0  0
   39.4808   27.0917   33.6640 H   0  0  0  0  0  0  0  0  0  0  0  0
   37.2976   28.4824   34.3277 H   0  0  0  0  0  0  0  0  0  0  0  0
   36.2509   27.3749   33.5087 H   0  0  0  0  0  0  0  0  0  0  0  0
   36.1645   26.2419   35.5858 H   0  0  0  0  0  0  0  0  0  0  0  0
   37.5905   27.1300   36.1940 H   0  0  0  0  0  0  0  0  0  0  0  0
   38.1085   23.3296   39.2067 H   0  0  0  0  0  0  0  0  0  0  0  0
   36.9940   24.9319   37.6043 H   0  0  0  0  0  0  0  0  0  0  0  0
   41.1606   22.4768   36.4069 H   0  0  0  0  0  0  0  0  0  0  0  0
   41.2687   28.0924   31.8952 H   0  0  0  0  0  0  0  0  0  0  0  0
   40.1214   25.2641   28.1621 H   0  0  0  0  0  0  0  0  0  0  0  0
  1  5  1  0
  1  8  1  0
  2  1  1  0
  3  2  1  0
  3  4  1  0
  4  5  1  0
  7  6  2  0
  8  7  1  0
  9  8  2  0
  9 10  1  0
 10 11  2  0
 11  6  1  0
 12  3  1  0
 13 12  2  0
 14 15  2  0
 14 12  1  0
 16 15  1  0
 17 16  1  0
 17 18  2  0
 18 14  1  0
  2 19  1  0
  2 20  1  0
  3 21  1  1
  4 22  1  0
  4 23  1  0
  5 24  1  0
  5 25  1  0
  6 26  1  0
  7 27  1  0
 10 28  1  0
 15 29  1  0
 17 30  1  0
M  ISO  8  19  13  20  13  21  13  22  13  23  13  24  13  25  13  26  14
M  ISO  4  27  14  28  14  29  14  30  14
M  END
>  <minimizedAffinity>  (1) 
-4.06301022

>  <minimizedRMSD>  (1) 
2.50346231

$$$$
