
     RDKit          3D

 26 27  0  0  1  0  0  0  0  0999 V2000
   39.0660   25.2870   34.9870 N   0  0  0  0  0  0  0  0  0  0  0  0
   40.1900   25.4140   34.0720 C   0  0  0  0  0  0  0  0  0  0  0  0
   40.1030   26.9120   33.7780 C   0  0  2  0  0  0  0  0  0  0  0  0
   38.6340   26.8480   33.2530 C   0  0  0  0  0  0  0  0  0  0  0  0
   38.0260   26.0800   34.4070 C   0  0  0  0  0  0  0  0  0  0  0  0
   37.9410   24.1310   38.3130 C   0  0  0  0  0  0  0  0  0  0  0  0
   37.9600   24.9210   37.1520 C   0  0  0  0  0  0  0  0  0  0  0  0
   38.9500   24.5640   36.1950 C   0  0  0  0  0  0  0  0  0  0  0  0
   39.7990   23.5220   36.4270 N   0  0  0  0  0  0  0  0  0  0  0  0
   39.7050   22.8100   37.5860 C   0  0  0  0  0  0  0  0  0  0  0  0
   38.7850   23.1130   38.5170 N   0  0  0  0  0  0  0  0  0  0  0  0
   41.0240   27.4060   32.7600 C   0  0  0  0  0  0  0  0  0  0  0  0
   40.5710   27.3750   31.6390 O   0  0  0  0  0  0  0  0  0  0  0  0
   42.3180   27.8670   33.1450 N   0  0  0  0  0  0  0  0  0  0  0  0
   41.1426   25.1439   34.5512 H   0  0  0  0  0  0  0  0  0  0  0  0
   40.1530   24.7592   33.1889 H   0  0  0  0  0  0  0  0  0  0  0  0
   40.3529   27.5864   34.6103 H   0  0  0  0  0  0  0  0  0  0  0  0
   38.1894   27.8476   33.1385 H   0  0  0  0  0  0  0  0  0  0  0  0
   38.4986   26.4044   32.2556 H   0  0  0  0  0  0  0  0  0  0  0  0
   37.6250   26.7799   35.1549 H   0  0  0  0  0  0  0  0  0  0  0  0
   37.2000   25.4429   34.0579 H   0  0  0  0  0  0  0  0  0  0  0  0
   37.1976   24.3598   39.0909 H   0  0  0  0  0  0  0  0  0  0  0  0
   37.2603   25.7550   36.9942 H   0  0  0  0  0  0  0  0  0  0  0  0
   40.3953   21.9719   37.7621 H   0  0  0  0  0  0  0  0  0  0  0  0
   42.9733   28.2171   32.4316 H   0  0  0  0  0  0  0  0  0  0  0  0
   42.5970   27.8498   34.1364 H   0  0  0  0  0  0  0  0  0  0  0  0
  1  8  1  0
  2  1  1  0
  3  2  1  0
  4  3  1  0
  4  5  1  0
  5  1  1  0
  6 11  2  0
  7  6  1  0
  8  9  1  0
  8  7  2  0
  9 10  2  0
 10 11  1  0
 12 14  1  0
 12  3  1  0
 13 12  2  0
  2 15  1  0
  2 16  1  0
  3 17  1  1
  4 18  1  0
  4 19  1  0
  5 20  1  0
  5 21  1  0
  6 22  1  0
  7 23  1  0
 10 24  1  0
 14 25  1  0
 14 26  1  0
M  ISO  8  15  13  16  13  17  13  18  13  19  13  20  13  21  13  22  14
M  ISO  2  23  14  24  14
M  END
>  <minimizedAffinity>  (1) 
-3.77593493

>  <minimizedRMSD>  (1) 
0.896602929

$$$$
