
     RDKit          3D

 31 33  0  0  1  0  0  0  0  0999 V2000
   38.6420   25.2060   35.0050 N   0  0  0  0  0  0  0  0  0  0  0  0
   39.5700   25.2510   33.8950 C   0  0  0  0  0  0  0  0  0  0  0  0
   39.5980   26.7560   33.6330 C   0  0  2  0  0  0  0  0  0  0  0  0
   38.0450   26.8670   33.4020 C   0  0  0  0  0  0  0  0  0  0  0  0
   37.5570   26.0320   34.5720 C   0  0  0  0  0  0  0  0  0  0  0  0
   37.9900   24.1190   38.4890 C   0  0  0  0  0  0  0  0  0  0  0  0
   37.8290   24.8760   37.3130 C   0  0  0  0  0  0  0  0  0  0  0  0
   38.6850   24.5440   36.2520 C   0  0  0  0  0  0  0  0  0  0  0  0
   39.6090   23.5330   36.3970 N   0  0  0  0  0  0  0  0  0  0  0  0
   39.7100   22.8410   37.5670 C   0  0  0  0  0  0  0  0  0  0  0  0
   38.9120   23.1320   38.5950 N   0  0  0  0  0  0  0  0  0  0  0  0
   40.3410   27.2460   32.4950 C   0  0  0  0  0  0  0  0  0  0  0  0
   39.7200   27.4220   31.4990 O   0  0  0  0  0  0  0  0  0  0  0  0
   43.8360   27.6810   33.3180 N   0  0  0  0  0  0  0  0  0  0  0  0
   42.5970   27.2950   33.6480 N   0  0  0  0  0  0  0  0  0  0  0  0
   41.7740   27.5130   32.5940 C   0  0  0  0  0  0  0  0  0  0  0  0
   42.5580   28.0540   31.5900 C   0  0  0  0  0  0  0  0  0  0  0  0
   43.8470   28.1570   32.0490 C   0  0  0  0  0  0  0  0  0  0  0  0
   40.5617   24.8671   34.1763 H   0  0  0  0  0  0  0  0  0  0  0  0
   39.2862   24.6353   33.0288 H   0  0  0  0  0  0  0  0  0  0  0  0
   40.1005   27.3451   34.4143 H   0  0  0  0  0  0  0  0  0  0  0  0
   37.6940   27.9075   33.4659 H   0  0  0  0  0  0  0  0  0  0  0  0
   37.6941   26.5372   32.4130 H   0  0  0  0  0  0  0  0  0  0  0  0
   37.2373   26.6901   35.3934 H   0  0  0  0  0  0  0  0  0  0  0  0
   36.7002   25.4120   34.2696 H   0  0  0  0  0  0  0  0  0  0  0  0
   37.3442   24.3366   39.3525 H   0  0  0  0  0  0  0  0  0  0  0  0
   37.0796   25.6770   37.2311 H   0  0  0  0  0  0  0  0  0  0  0  0
   40.4547   22.0372   37.6638 H   0  0  0  0  0  0  0  0  0  0  0  0
   44.6579   27.6246   33.9362 H   0  0  0  0  0  0  0  0  0  0  0  0
   42.2066   28.3517   30.5911 H   0  0  0  0  0  0  0  0  0  0  0  0
   44.7151   28.5475   31.4977 H   0  0  0  0  0  0  0  0  0  0  0  0
  1  8  1  0
  2  1  1  0
  3  2  1  0
  4  3  1  0
  4  5  1  0
  5  1  1  0
  6 11  2  0
  7  6  1  0
  8  9  1  0
  8  7  2  0
  9 10  2  0
 10 11  1  0
 12 16  1  0
 12  3  1  0
 13 12  2  0
 14 15  1  0
 16 15  2  0
 17 18  2  0
 17 16  1  0
 18 14  1  0
  2 19  1  0
  2 20  1  0
  3 21  1  1
  4 22  1  0
  4 23  1  0
  5 24  1  0
  5 25  1  0
  6 26  1  0
  7 27  1  0
 10 28  1  0
 14 29  1  0
 17 30  1  0
 18 31  1  0
M  ISO  8  19  13  20  13  21  13  22  13  23  13  24  13  25  13  26  14
M  ISO  5  27  14  28  14  29   9  30  14  31  14
M  END
>  <minimizedAffinity>  (1) 
-4.13849115

>  <minimizedRMSD>  (1) 
0.761528909

$$$$
