
     RDKit          3D

 29 31  0  0  1  0  0  0  0  0999 V2000
   38.1290   25.3710   35.0780 N   0  0  0  0  0  0  0  0  0  0  0  0
   38.4010   25.3980   33.6540 C   0  0  0  0  0  0  0  0  0  0  0  0
   38.6200   26.8950   33.4580 C   0  0  2  0  0  0  0  0  0  0  0  0
   37.2220   27.3030   34.0350 C   0  0  0  0  0  0  0  0  0  0  0  0
   37.2140   26.4540   35.2870 C   0  0  0  0  0  0  0  0  0  0  0  0
   38.5430   23.5100   38.2450 C   0  0  0  0  0  0  0  0  0  0  0  0
   37.9440   24.3950   37.3320 C   0  0  0  0  0  0  0  0  0  0  0  0
   38.6040   24.5170   36.1030 C   0  0  0  0  0  0  0  0  0  0  0  0
   39.7360   23.8020   35.8800 N   0  0  0  0  0  0  0  0  0  0  0  0
   40.2730   22.9620   36.7920 C   0  0  0  0  0  0  0  0  0  0  0  0
   39.6680   22.8250   37.9710 N   0  0  0  0  0  0  0  0  0  0  0  0
   38.8100   27.3750   32.1060 C   0  0  0  0  0  0  0  0  0  0  0  0
   37.8920   27.9620   31.6010 O   0  0  0  0  0  0  0  0  0  0  0  0
   40.0920   27.1280   31.4500 C   0  0  0  0  0  0  0  0  0  0  0  0
   41.3560   27.4820   31.7630 N   0  0  0  0  0  0  0  0  0  0  0  0
   42.1410   27.0180   30.8570 O   0  0  0  0  0  0  0  0  0  0  0  0
   41.4980   26.3580   29.9300 C   0  0  0  0  0  0  0  0  0  0  0  0
   40.2090   26.4270   30.3010 N   0  0  0  0  0  0  0  0  0  0  0  0
   39.2991   24.8165   33.3983 H   0  0  0  0  0  0  0  0  0  0  0  0
   37.6158   24.9567   33.0226 H   0  0  0  0  0  0  0  0  0  0  0  0
   39.5435   27.2922   33.9045 H   0  0  0  0  0  0  0  0  0  0  0  0
   37.1709   28.3771   34.2667 H   0  0  0  0  0  0  0  0  0  0  0  0
   36.3705   27.1463   33.3564 H   0  0  0  0  0  0  0  0  0  0  0  0
   36.2025   26.0616   35.4684 H   0  0  0  0  0  0  0  0  0  0  0  0
   37.5124   27.0504   36.1618 H   0  0  0  0  0  0  0  0  0  0  0  0
   38.0703   23.3711   39.2285 H   0  0  0  0  0  0  0  0  0  0  0  0
   37.0241   24.9511   37.5658 H   0  0  0  0  0  0  0  0  0  0  0  0
   41.1922   22.4019   36.5653 H   0  0  0  0  0  0  0  0  0  0  0  0
   41.9182   25.8582   29.0447 H   0  0  0  0  0  0  0  0  0  0  0  0
  1  5  1  0
  1  8  1  0
  2  1  1  0
  3  2  1  0
  3  4  1  0
  4  5  1  0
  7  6  2  0
  8  7  1  0
  9  8  2  0
  9 10  1  0
 10 11  2  0
 11  6  1  0
 12  3  1  0
 13 12  2  0
 14 15  2  0
 14 12  1  0
 16 15  1  0
 17 18  2  0
 17 16  1  0
 18 14  1  0
  2 19  1  0
  2 20  1  0
  3 21  1  1
  4 22  1  0
  4 23  1  0
  5 24  1  0
  5 25  1  0
  6 26  1  0
  7 27  1  0
 10 28  1  0
 17 29  1  0
M  ISO  8  19  13  20  13  21  13  22  13  23  13  24  13  25  13  26  14
M  ISO  3  27  14  28  14  29  14
M  END
>  <minimizedAffinity>  (1) 
-3.97537804

>  <minimizedRMSD>  (1) 
2.0813117

$$$$
