
     RDKit          3D

 31 33  0  0  1  0  0  0  0  0999 V2000
   39.6700   25.2400   35.0140 N   0  0  0  0  0  0  0  0  0  0  0  0
   40.9540   25.3050   34.3400 C   0  0  0  0  0  0  0  0  0  0  0  0
   41.0670   26.8120   34.1350 C   0  0  2  0  0  0  0  0  0  0  0  0
   39.7130   26.9410   33.3520 C   0  0  0  0  0  0  0  0  0  0  0  0
   38.8200   26.0940   34.2410 C   0  0  0  0  0  0  0  0  0  0  0  0
   37.7640   24.0710   37.9790 C   0  0  0  0  0  0  0  0  0  0  0  0
   38.0810   24.8660   36.8570 C   0  0  0  0  0  0  0  0  0  0  0  0
   39.2530   24.5300   36.1630 C   0  0  0  0  0  0  0  0  0  0  0  0
   40.0080   23.4820   36.5930 N   0  0  0  0  0  0  0  0  0  0  0  0
   39.6680   22.7470   37.6720 C   0  0  0  0  0  0  0  0  0  0  0  0
   38.5540   23.0390   38.3600 N   0  0  0  0  0  0  0  0  0  0  0  0
   42.1840   27.3160   33.3750 C   0  0  0  0  0  0  0  0  0  0  0  0
   41.9310   27.9110   32.3480 O   0  0  0  0  0  0  0  0  0  0  0  0
   43.6100   27.2380   33.6470 C   0  0  0  0  0  0  0  0  0  0  0  0
   44.6010   26.6260   32.8890 C   0  0  0  0  0  0  0  0  0  0  0  0
   45.7970   26.7560   33.4710 N   0  0  0  0  0  0  0  0  0  0  0  0
   45.6300   27.4390   34.5950 C   0  0  0  0  0  0  0  0  0  0  0  0
   44.3190   27.7140   34.6760 N   0  0  0  0  0  0  0  0  0  0  0  0
   41.7669   24.9164   34.9711 H   0  0  0  0  0  0  0  0  0  0  0  0
   41.0267   24.7048   33.4210 H   0  0  0  0  0  0  0  0  0  0  0  0
   41.2348   27.3876   35.0572 H   0  0  0  0  0  0  0  0  0  0  0  0
   39.3679   27.9842   33.3003 H   0  0  0  0  0  0  0  0  0  0  0  0
   39.7528   26.6279   32.2983 H   0  0  0  0  0  0  0  0  0  0  0  0
   38.2310   26.7411   34.9076 H   0  0  0  0  0  0  0  0  0  0  0  0
   38.1207   25.4995   33.6347 H   0  0  0  0  0  0  0  0  0  0  0  0
   36.8551   24.2944   38.5570 H   0  0  0  0  0  0  0  0  0  0  0  0
   37.4427   25.7051   36.5431 H   0  0  0  0  0  0  0  0  0  0  0  0
   40.3048   21.9075   37.9879 H   0  0  0  0  0  0  0  0  0  0  0  0
   44.4245   26.1041   31.9369 H   0  0  0  0  0  0  0  0  0  0  0  0
   46.4099   27.7233   35.3167 H   0  0  0  0  0  0  0  0  0  0  0  0
   43.8995   28.2408   35.4554 H   0  0  0  0  0  0  0  0  0  0  0  0
  1  8  1  0
  2  1  1  0
  3  2  1  0
  4  3  1  0
  4  5  1  0
  5  1  1  0
  6 11  2  0
  7  6  1  0
  8  9  1  0
  8  7  2  0
  9 10  2  0
 10 11  1  0
 12 14  1  0
 12  3  1  0
 13 12  2  0
 14 18  1  0
 15 16  1  0
 15 14  2  0
 16 17  2  0
 17 18  1  0
  2 19  1  0
  2 20  1  0
  3 21  1  1
  4 22  1  0
  4 23  1  0
  5 24  1  0
  5 25  1  0
  6 26  1  0
  7 27  1  0
 10 28  1  0
 15 29  1  0
 17 30  1  0
 18 31  1  0
M  ISO  8  19  13  20  13  21  13  22  13  23  13  24  13  25  13  26  14
M  ISO  5  27  14  28  14  29  14  30  14  31   9
M  END
>  <minimizedAffinity>  (1) 
-4.25144672

>  <minimizedRMSD>  (1) 
2.1260848

$$$$
