
     RDKit          3D

 44 46  0  0  1  0  0  0  0  0999 V2000
   38.1410   27.1380   32.0390 C   0  0  0  0  0  0  0  0  0  0  0  0
   37.4340   28.0970   31.8380 O   0  0  0  0  0  0  0  0  0  0  0  0
   37.9480   25.3980   35.2380 N   0  0  0  0  0  0  0  0  0  0  0  0
   37.7280   25.3540   33.8040 C   0  0  0  0  0  0  0  0  0  0  0  0
   38.2670   26.7710   33.4420 C   0  0  2  0  0  0  0  0  0  0  0  0
   37.3390   27.5400   34.3920 C   0  0  0  0  0  0  0  0  0  0  0  0
   37.3900   26.6470   35.6200 C   0  0  0  0  0  0  0  0  0  0  0  0
   38.7970   23.3800   38.2350 C   0  0  0  0  0  0  0  0  0  0  0  0
   38.1020   24.3090   37.4600 C   0  0  0  0  0  0  0  0  0  0  0  0
   38.5540   24.4880   36.1450 C   0  0  0  0  0  0  0  0  0  0  0  0
   39.6240   23.7660   35.6970 N   0  0  0  0  0  0  0  0  0  0  0  0
   40.2660   22.8720   36.4960 C   0  0  0  0  0  0  0  0  0  0  0  0
   39.8560   22.6810   37.7520 N   0  0  0  0  0  0  0  0  0  0  0  0
   38.8340   26.3870   30.9590 C   0  0  2  0  0  0  0  0  0  0  0  0
   40.2080   25.9070   31.3870 C   0  0  0  0  0  0  0  0  0  0  0  0
   41.0430   27.1470   31.2990 C   0  0  0  0  0  0  0  0  0  0  0  0
   40.3680   28.0440   30.2920 C   0  0  0  0  0  0  0  0  0  0  0  0
   39.1520   27.3100   29.8000 C   0  0  1  0  0  0  0  0  0  0  0  0
   39.2440   26.7160   28.5330 N   0  0  0  0  0  0  0  0  0  0  0  0
   39.7160   27.3920   27.3470 C   0  0  0  0  0  0  0  0  0  0  0  0
   39.1920   28.5630   27.1610 N   0  0  0  0  0  0  0  0  0  0  0  0
   40.6840   26.7520   26.4900 N   0  0  0  0  0  0  0  0  0  0  0  0
   39.3990   29.1910   26.3810 H   0  0  0  0  0  0  0  0  0  0  0  0
   38.3081   24.5542   33.3204 H   0  0  0  0  0  0  0  0  0  0  0  0
   36.6969   25.1403   33.4860 H   0  0  0  0  0  0  0  0  0  0  0  0
   39.3486   26.9336   33.5593 H   0  0  0  0  0  0  0  0  0  0  0  0
   37.7242   28.5476   34.6073 H   0  0  0  0  0  0  0  0  0  0  0  0
   36.3274   27.7170   33.9980 H   0  0  0  0  0  0  0  0  0  0  0  0
   36.3738   26.4961   36.0131 H   0  0  0  0  0  0  0  0  0  0  0  0
   38.0046   27.1138   36.4038 H   0  0  0  0  0  0  0  0  0  0  0  0
   38.4759   23.2080   39.2729 H   0  0  0  0  0  0  0  0  0  0  0  0
   37.2450   24.8711   37.8595 H   0  0  0  0  0  0  0  0  0  0  0  0
   41.1246   22.3053   36.1066 H   0  0  0  0  0  0  0  0  0  0  0  0
   38.1582   25.5569   30.7055 H   0  0  0  0  0  0  0  0  0  0  0  0
   40.1875   25.5168   32.4153 H   0  0  0  0  0  0  0  0  0  0  0  0
   40.5908   25.0828   30.7672 H   0  0  0  0  0  0  0  0  0  0  0  0
   41.0909   27.6438   32.2792 H   0  0  0  0  0  0  0  0  0  0  0  0
   42.0743   26.9128   30.9964 H   0  0  0  0  0  0  0  0  0  0  0  0
   40.0719   28.9908   30.7673 H   0  0  0  0  0  0  0  0  0  0  0  0
   41.0469   28.2834   29.4603 H   0  0  0  0  0  0  0  0  0  0  0  0
   38.3208   27.9907   29.5641 H   0  0  0  0  0  0  0  0  0  0  0  0
   38.9556   25.7314   28.4420 H   0  0  0  0  0  0  0  0  0  0  0  0
   41.0210   27.2335   25.6441 H   0  0  0  0  0  0  0  0  0  0  0  0
   41.0382   25.8135   26.7240 H   0  0  0  0  0  0  0  0  0  0  0  0
  1  5  1  0
  2  1  2  0
  3  7  1  0
  3 10  1  0
  4  3  1  0
  5  4  1  0
  5  6  1  0
  6  7  1  0
  9  8  2  0
 10  9  1  0
 11 10  2  0
 11 12  1  0
 12 13  2  0
 13  8  1  0
 14 15  1  0
 14  1  1  0
 16 15  1  0
 17 16  1  0
 18 17  1  0
 18 14  1  0
 19 18  1  0
 20 19  1  0
 21 20  2  0
 22 20  1  0
 23 21  1  0
  4 24  1  0
  4 25  1  0
  5 26  1  1
  6 27  1  0
  6 28  1  0
  7 29  1  0
  7 30  1  0
  8 31  1  0
  9 32  1  0
 12 33  1  0
 14 34  1  6
 15 35  1  0
 15 36  1  0
 16 37  1  0
 16 38  1  0
 17 39  1  0
 17 40  1  0
 18 41  1  6
 19 42  1  0
 22 43  1  0
 22 44  1  0
M  ISO  8  24  13  25  13  26  13  27  13  28  13  29  13  30  13  31  14
M  ISO  8  32  14  33  14  34  13  35  13  36  13  37  13  38  13  39  13
M  ISO  2  40  13  41  13
M  END
>  <minimizedAffinity>  (1) 
-5.00702477

>  <minimizedRMSD>  (1) 
1.17319059

$$$$
