
     RDKit          3D

 50 53  0  0  1  0  0  0  0  0999 V2000
   38.4600   27.0710   31.8900 C   0  0  0  0  0  0  0  0  0  0  0  0
   37.7230   27.9780   31.5770 O   0  0  0  0  0  0  0  0  0  0  0  0
   37.9510   25.3850   35.0810 N   0  0  0  0  0  0  0  0  0  0  0  0
   37.9250   25.2960   33.6300 C   0  0  0  0  0  0  0  0  0  0  0  0
   38.4130   26.7350   33.3020 C   0  0  2  0  0  0  0  0  0  0  0  0
   37.3350   27.4690   34.1100 C   0  0  0  0  0  0  0  0  0  0  0  0
   37.2760   26.6030   35.3580 C   0  0  0  0  0  0  0  0  0  0  0  0
   38.5210   23.4770   38.2140 C   0  0  0  0  0  0  0  0  0  0  0  0
   37.8850   24.3460   37.3300 C   0  0  0  0  0  0  0  0  0  0  0  0
   38.4870   24.5300   36.0840 C   0  0  0  0  0  0  0  0  0  0  0  0
   39.6490   23.8640   35.7930 N   0  0  0  0  0  0  0  0  0  0  0  0
   40.2220   23.0270   36.6990 C   0  0  0  0  0  0  0  0  0  0  0  0
   39.6730   22.8330   37.8880 N   0  0  0  0  0  0  0  0  0  0  0  0
   39.3390   26.3570   30.9320 C   0  0  2  0  0  0  0  0  0  0  0  0
   40.7580   26.2470   31.4550 C   0  0  0  0  0  0  0  0  0  0  0  0
   41.3320   27.6050   31.2230 C   0  0  0  0  0  0  0  0  0  0  0  0
   40.5400   28.2070   30.0880 C   0  0  0  0  0  0  0  0  0  0  0  0
   39.5150   27.1810   29.6730 C   0  0  1  0  0  0  0  0  0  0  0  0
   40.3870   25.3040   25.9270 C   0  0  0  0  0  0  0  0  0  0  0  0
   40.4240   26.6710   26.1000 C   0  0  0  0  0  0  0  0  0  0  0  0
   40.1270   27.2320   27.3480 C   0  0  0  0  0  0  0  0  0  0  0  0
   39.7840   26.4480   28.4610 C   0  0  0  0  0  0  0  0  0  0  0  0
   39.7700   25.1140   28.2110 C   0  0  0  0  0  0  0  0  0  0  0  0
   40.0520   24.5100   27.0040 C   0  0  0  0  0  0  0  0  0  0  0  0
   40.7420   24.5320   24.4130 S   0  0  0  0  0  0  0  0  0  0  0  0
   39.8460   23.3240   24.1770 O   0  0  0  0  0  0  0  0  0  0  0  0
   42.1860   24.1380   24.2990 O   0  0  0  0  0  0  0  0  0  0  0  0
   38.6143   24.5278   33.2495 H   0  0  0  0  0  0  0  0  0  0  0  0
   36.9611   25.0058   33.1865 H   0  0  0  0  0  0  0  0  0  0  0  0
   39.4595   26.9645   33.5515 H   0  0  0  0  0  0  0  0  0  0  0  0
   37.6378   28.4998   34.3464 H   0  0  0  0  0  0  0  0  0  0  0  0
   36.3732   27.5827   33.5885 H   0  0  0  0  0  0  0  0  0  0  0  0
   36.2277   26.3972   35.6200 H   0  0  0  0  0  0  0  0  0  0  0  0
   37.7531   27.1197   36.2038 H   0  0  0  0  0  0  0  0  0  0  0  0
   38.0774   23.3068   39.2061 H   0  0  0  0  0  0  0  0  0  0  0  0
   36.9525   24.8627   37.6011 H   0  0  0  0  0  0  0  0  0  0  0  0
   41.1545   22.5040   36.4403 H   0  0  0  0  0  0  0  0  0  0  0  0
   38.8666   25.3773   30.7678 H   0  0  0  0  0  0  0  0  0  0  0  0
   40.7621   25.9982   32.5265 H   0  0  0  0  0  0  0  0  0  0  0  0
   41.3333   25.4524   30.9573 H   0  0  0  0  0  0  0  0  0  0  0  0
   41.2308   28.2218   32.1282 H   0  0  0  0  0  0  0  0  0  0  0  0
   42.4037   27.5518   30.9808 H   0  0  0  0  0  0  0  0  0  0  0  0
   40.0392   29.1272   30.4232 H   0  0  0  0  0  0  0  0  0  0  0  0
   41.1974   28.4683   29.2457 H   0  0  0  0  0  0  0  0  0  0  0  0
   38.5758   27.6471   29.3405 H   0  0  0  0  0  0  0  0  0  0  0  0
   40.6878   27.3235   25.2546 H   0  0  0  0  0  0  0  0  0  0  0  0
   40.1637   28.3256   27.4604 H   0  0  0  0  0  0  0  0  0  0  0  0
   39.5091   24.4525   29.0503 H   0  0  0  0  0  0  0  0  0  0  0  0
   40.0106   23.4155   26.9019 H   0  0  0  0  0  0  0  0  0  0  0  0
   40.4853   25.4607   23.4390 H   0  0  0  0  0  0  0  0  0  0  0  0
  1  5  1  0
  2  1  2  0
  3  7  1  0
  3 10  1  0
  4  3  1  0
  5  4  1  0
  5  6  1  0
  6  7  1  0
  9  8  2  0
 10  9  1  0
 11 10  2  0
 11 12  1  0
 12 13  2  0
 13  8  1  0
 14 15  1  0
 14  1  1  0
 16 15  1  0
 17 16  1  0
 18 17  1  0
 18 14  1  0
 19 20  2  0
 19 24  1  0
 20 21  1  0
 21 22  2  0
 22 18  1  0
 23 22  1  0
 24 23  2  0
 25 19  1  0
 26 25  2  0
 27 25  2  0
  4 28  1  0
  4 29  1  0
  5 30  1  1
  6 31  1  0
  6 32  1  0
  7 33  1  0
  7 34  1  0
  8 35  1  0
  9 36  1  0
 12 37  1  0
 14 38  1  6
 15 39  1  0
 15 40  1  0
 16 41  1  0
 16 42  1  0
 17 43  1  0
 17 44  1  0
 18 45  1  6
 20 46  1  0
 21 47  1  0
 23 48  1  0
 24 49  1  0
 25 50  1  0
M  ISO  8  28  13  29  13  30  13  31  13  32  13  33  13  34  13  35  14
M  ISO  8  36  14  37  14  38  13  39  13  40  13  41  13  42  13  43  13
M  ISO  7  44  13  45  13  46  14  47  14  48  14  49  14  50  11
M  END
>  <minimizedAffinity>  (1) 
-5.04142809

>  <minimizedRMSD>  (1) 
0.192730665

$$$$
