
     RDKit          3D

 46 49  0  0  1  0  0  0  0  0999 V2000
   38.3830   27.1100   32.1600 C   0  0  0  0  0  0  0  0  0  0  0  0
   37.7030   28.0760   31.9080 O   0  0  0  0  0  0  0  0  0  0  0  0
   38.0200   25.4220   35.3710 N   0  0  0  0  0  0  0  0  0  0  0  0
   37.8820   25.3470   33.9230 C   0  0  0  0  0  0  0  0  0  0  0  0
   38.4250   26.7590   33.5710 C   0  0  2  0  0  0  0  0  0  0  0  0
   37.4440   27.5380   34.4580 C   0  0  0  0  0  0  0  0  0  0  0  0
   37.4450   26.6740   35.7070 C   0  0  0  0  0  0  0  0  0  0  0  0
   38.7090   23.4340   38.4320 C   0  0  0  0  0  0  0  0  0  0  0  0
   38.0600   24.3630   37.6050 C   0  0  0  0  0  0  0  0  0  0  0  0
   38.5810   24.5160   36.3160 C   0  0  0  0  0  0  0  0  0  0  0  0
   39.6720   23.7760   35.9200 N   0  0  0  0  0  0  0  0  0  0  0  0
   40.2480   22.8930   36.7780 C   0  0  0  0  0  0  0  0  0  0  0  0
   39.7830   22.7200   38.0060 N   0  0  0  0  0  0  0  0  0  0  0  0
   39.1220   26.3350   31.1340 C   0  0  2  0  0  0  0  0  0  0  0  0
   40.5960   26.2010   31.4560 C   0  0  0  0  0  0  0  0  0  0  0  0
   41.1510   27.5410   31.0890 C   0  0  0  0  0  0  0  0  0  0  0  0
   40.2180   28.1320   30.0590 C   0  0  0  0  0  0  0  0  0  0  0  0
   39.1510   27.0910   29.8090 C   0  0  1  0  0  0  0  0  0  0  0  0
   39.4940   26.1330   28.7390 C   0  0  0  0  0  0  0  0  0  0  0  0
   40.0400   26.3690   27.4950 C   0  0  0  0  0  0  0  0  0  0  0  0
   40.3160   25.3510   26.6080 C   0  0  0  0  0  0  0  0  0  0  0  0
   40.0580   24.0320   26.9190 C   0  0  0  0  0  0  0  0  0  0  0  0
   39.5110   23.8290   28.1690 C   0  0  0  0  0  0  0  0  0  0  0  0
   39.2430   24.8230   29.0350 N   0  0  0  0  0  0  0  0  0  0  0  0
   38.4972   24.5454   33.4883 H   0  0  0  0  0  0  0  0  0  0  0  0
   36.8741   25.1142   33.5490 H   0  0  0  0  0  0  0  0  0  0  0  0
   39.4978   26.9280   33.7455 H   0  0  0  0  0  0  0  0  0  0  0  0
   37.8076   28.5546   34.6683 H   0  0  0  0  0  0  0  0  0  0  0  0
   36.4507   27.6938   34.0119 H   0  0  0  0  0  0  0  0  0  0  0  0
   36.4139   26.5285   36.0615 H   0  0  0  0  0  0  0  0  0  0  0  0
   38.0234   27.1586   36.5074 H   0  0  0  0  0  0  0  0  0  0  0  0
   38.3371   23.2793   39.4556 H   0  0  0  0  0  0  0  0  0  0  0  0
   37.1894   24.9393   37.9512 H   0  0  0  0  0  0  0  0  0  0  0  0
   41.1191   22.3095   36.4453 H   0  0  0  0  0  0  0  0  0  0  0  0
   38.6062   25.3641   31.0964 H   0  0  0  0  0  0  0  0  0  0  0  0
   40.7484   25.9905   32.5249 H   0  0  0  0  0  0  0  0  0  0  0  0
   41.0806   25.3723   30.9189 H   0  0  0  0  0  0  0  0  0  0  0  0
   41.1945   28.1890   31.9768 H   0  0  0  0  0  0  0  0  0  0  0  0
   42.1722   27.4498   30.6906 H   0  0  0  0  0  0  0  0  0  0  0  0
   39.7647   29.0581   30.4421 H   0  0  0  0  0  0  0  0  0  0  0  0
   40.7537   28.3870   29.1327 H   0  0  0  0  0  0  0  0  0  0  0  0
   38.2073   27.5587   29.4916 H   0  0  0  0  0  0  0  0  0  0  0  0
   40.2629   27.4052   27.2005 H   0  0  0  0  0  0  0  0  0  0  0  0
   40.7525   25.5961   25.6285 H   0  0  0  0  0  0  0  0  0  0  0  0
   40.2718   23.2064   26.2243 H   0  0  0  0  0  0  0  0  0  0  0  0
   39.2813   22.7975   28.4745 H   0  0  0  0  0  0  0  0  0  0  0  0
  1  5  1  0
  2  1  2  0
  3  7  1  0
  3 10  1  0
  4  3  1  0
  5  4  1  0
  5  6  1  0
  6  7  1  0
  9  8  2  0
 10  9  1  0
 11 10  2  0
 11 12  1  0
 12 13  2  0
 13  8  1  0
 14 15  1  0
 14  1  1  0
 16 15  1  0
 17 16  1  0
 18 17  1  0
 18 14  1  0
 19 24  1  0
 19 18  1  0
 20 19  2  0
 21 22  2  0
 21 20  1  0
 22 23  1  0
 23 24  2  0
  4 25  1  0
  4 26  1  0
  5 27  1  1
  6 28  1  0
  6 29  1  0
  7 30  1  0
  7 31  1  0
  8 32  1  0
  9 33  1  0
 12 34  1  0
 14 35  1  6
 15 36  1  0
 15 37  1  0
 16 38  1  0
 16 39  1  0
 17 40  1  0
 17 41  1  0
 18 42  1  6
 20 43  1  0
 21 44  1  0
 22 45  1  0
 23 46  1  0
M  ISO  8  25  13  26  13  27  13  28  13  29  13  30  13  31  13  32  14
M  ISO  8  33  14  34  14  35  13  36  13  37  13  38  13  39  13  40  13
M  ISO  6  41  13  42  13  43  14  44  14  45  14  46  14
M  END
>  <minimizedAffinity>  (1) 
-4.90857601

>  <minimizedRMSD>  (1) 
0.459227532

$$$$
