
     RDKit          3D

 47 50  0  0  1  0  0  0  0  0999 V2000
   38.3190   27.1780   31.9240 C   0  0  0  0  0  0  0  0  0  0  0  0
   37.6320   28.1370   31.6730 O   0  0  0  0  0  0  0  0  0  0  0  0
   37.9460   25.4250   35.1060 N   0  0  0  0  0  0  0  0  0  0  0  0
   37.8330   25.3760   33.6560 C   0  0  0  0  0  0  0  0  0  0  0  0
   38.3300   26.8030   33.3220 C   0  0  2  0  0  0  0  0  0  0  0  0
   37.2950   27.5340   34.1930 C   0  0  0  0  0  0  0  0  0  0  0  0
   37.3260   26.6710   35.4360 C   0  0  0  0  0  0  0  0  0  0  0  0
   38.6220   23.4620   38.1750 C   0  0  0  0  0  0  0  0  0  0  0  0
   37.9690   24.3680   37.3380 C   0  0  0  0  0  0  0  0  0  0  0  0
   38.4960   24.5470   36.0630 C   0  0  0  0  0  0  0  0  0  0  0  0
   39.6080   23.8430   35.6880 N   0  0  0  0  0  0  0  0  0  0  0  0
   40.2070   22.9710   36.5450 C   0  0  0  0  0  0  0  0  0  0  0  0
   39.7230   22.7820   37.7650 N   0  0  0  0  0  0  0  0  0  0  0  0
   39.0950   26.4330   30.8960 C   0  0  2  0  0  0  0  0  0  0  0  0
   40.5520   26.2700   31.2930 C   0  0  0  0  0  0  0  0  0  0  0  0
   41.1400   27.6200   31.0110 C   0  0  0  0  0  0  0  0  0  0  0  0
   40.2830   28.2570   29.9780 C   0  0  0  0  0  0  0  0  0  0  0  0
   39.1940   27.2250   29.6140 C   0  0  1  0  0  0  0  0  0  0  0  0
   39.6240   26.4410   28.4710 C   0  0  0  0  0  0  0  0  0  0  0  0
   39.7590   25.0950   28.2120 C   0  0  0  0  0  0  0  0  0  0  0  0
   40.2220   24.6120   27.0090 C   0  0  0  0  0  0  0  0  0  0  0  0
   40.5780   25.4640   25.9860 C   0  0  0  0  0  0  0  0  0  0  0  0
   40.4600   26.8220   26.1970 C   0  0  0  0  0  0  0  0  0  0  0  0
   39.9870   27.3030   27.4260 C   0  0  0  0  0  0  0  0  0  0  0  0
   38.4802   24.6016   33.2184 H   0  0  0  0  0  0  0  0  0  0  0  0
   36.8352   25.1215   33.2691 H   0  0  0  0  0  0  0  0  0  0  0  0
   39.3941   27.0023   33.5169 H   0  0  0  0  0  0  0  0  0  0  0  0
   37.6024   28.5680   34.4082 H   0  0  0  0  0  0  0  0  0  0  0  0
   36.3016   27.6418   33.7332 H   0  0  0  0  0  0  0  0  0  0  0  0
   36.2999   26.4929   35.7902 H   0  0  0  0  0  0  0  0  0  0  0  0
   37.8929   27.1757   36.2321 H   0  0  0  0  0  0  0  0  0  0  0  0
   38.2353   23.2950   39.1911 H   0  0  0  0  0  0  0  0  0  0  0  0
   37.0762   24.9169   37.6720 H   0  0  0  0  0  0  0  0  0  0  0  0
   41.1013   22.4178   36.2222 H   0  0  0  0  0  0  0  0  0  0  0  0
   38.5687   25.4732   30.7879 H   0  0  0  0  0  0  0  0  0  0  0  0
   40.6437   26.0153   32.3592 H   0  0  0  0  0  0  0  0  0  0  0  0
   41.0578   25.4584   30.7495 H   0  0  0  0  0  0  0  0  0  0  0  0
   41.1447   28.2293   31.9268 H   0  0  0  0  0  0  0  0  0  0  0  0
   42.1789   27.5315   30.6606 H   0  0  0  0  0  0  0  0  0  0  0  0
   39.8211   29.1714   30.3786 H   0  0  0  0  0  0  0  0  0  0  0  0
   40.8717   28.5425   29.0937 H   0  0  0  0  0  0  0  0  0  0  0  0
   38.2217   27.6365   29.3054 H   0  0  0  0  0  0  0  0  0  0  0  0
   39.4856   24.3765   28.9988 H   0  0  0  0  0  0  0  0  0  0  0  0
   40.3095   23.5255   26.8614 H   0  0  0  0  0  0  0  0  0  0  0  0
   40.9465   25.0715   25.0267 H   0  0  0  0  0  0  0  0  0  0  0  0
   40.7372   27.5281   25.4004 H   0  0  0  0  0  0  0  0  0  0  0  0
   39.8979   28.3892   27.5751 H   0  0  0  0  0  0  0  0  0  0  0  0
  1  5  1  0
  2  1  2  0
  3  7  1  0
  3 10  1  0
  4  3  1  0
  5  4  1  0
  5  6  1  0
  6  7  1  0
  9  8  2  0
 10  9  1  0
 11 10  2  0
 11 12  1  0
 12 13  2  0
 13  8  1  0
 14 15  1  0
 14  1  1  0
 16 15  1  0
 17 16  1  0
 18 17  1  0
 18 14  1  0
 19 18  1  0
 20 19  2  0
 21 20  1  0
 22 23  1  0
 22 21  2  0
 23 24  2  0
 24 19  1  0
  4 25  1  0
  4 26  1  0
  5 27  1  1
  6 28  1  0
  6 29  1  0
  7 30  1  0
  7 31  1  0
  8 32  1  0
  9 33  1  0
 12 34  1  0
 14 35  1  6
 15 36  1  0
 15 37  1  0
 16 38  1  0
 16 39  1  0
 17 40  1  0
 17 41  1  0
 18 42  1  6
 20 43  1  0
 21 44  1  0
 22 45  1  0
 23 46  1  0
 24 47  1  0
M  ISO  8  25  13  26  13  27  13  28  13  29  13  30  13  31  13  32  14
M  ISO  8  33  14  34  14  35  13  36  13  37  13  38  13  39  13  40  13
M  ISO  7  41  13  42  13  43  14  44  14  45  14  46  14  47  14
M  END
>  <minimizedAffinity>  (1) 
-4.98020935

>  <minimizedRMSD>  (1) 
0.56395328

$$$$
