
     RDKit          3D

 51 54  0  0  1  0  0  0  0  0999 V2000
   38.3670   26.4310   31.7880 C   0  0  0  0  0  0  0  0  0  0  0  0
   37.4140   27.0550   31.3830 O   0  0  0  0  0  0  0  0  0  0  0  0
   37.9830   25.1050   35.1600 N   0  0  0  0  0  0  0  0  0  0  0  0
   37.8610   24.8720   33.7300 C   0  0  0  0  0  0  0  0  0  0  0  0
   38.3810   26.2430   33.2250 C   0  0  2  0  0  0  0  0  0  0  0  0
   37.3730   27.1040   34.0040 C   0  0  0  0  0  0  0  0  0  0  0  0
   37.3840   26.4000   35.3500 C   0  0  0  0  0  0  0  0  0  0  0  0
   38.6450   23.5310   38.4540 C   0  0  0  0  0  0  0  0  0  0  0  0
   37.9860   24.3340   37.5140 C   0  0  0  0  0  0  0  0  0  0  0  0
   38.5270   24.3490   36.2240 C   0  0  0  0  0  0  0  0  0  0  0  0
   39.6390   23.6040   35.9500 N   0  0  0  0  0  0  0  0  0  0  0  0
   40.2340   22.8430   36.9090 C   0  0  0  0  0  0  0  0  0  0  0  0
   39.7450   22.8080   38.1390 N   0  0  0  0  0  0  0  0  0  0  0  0
   39.4330   25.9000   30.9100 C   0  0  2  0  0  0  0  0  0  0  0  0
   40.8120   26.2660   31.4200 C   0  0  0  0  0  0  0  0  0  0  0  0
   40.9760   27.6880   31.0110 C   0  0  0  0  0  0  0  0  0  0  0  0
   40.0580   27.9070   29.8320 C   0  0  0  0  0  0  0  0  0  0  0  0
   39.3890   26.5620   29.5590 C   0  0  1  0  0  0  0  0  0  0  0  0
   39.7980   25.8800   28.4370 N   0  0  0  0  0  0  0  0  0  0  0  0
   40.3900   26.4960   27.3280 C   0  0  0  0  0  0  0  0  0  0  0  0
   40.5980   25.5060   26.1970 C   0  0  0  0  0  0  0  0  0  0  0  0
   39.7440   24.3780   26.2510 N   0  0  0  0  0  0  0  0  0  0  0  0
   39.5890   23.7110   27.4880 C   0  0  0  0  0  0  0  0  0  0  0  0
   40.2230   24.5150   28.5980 C   0  0  0  0  0  0  0  0  0  0  0  0
   38.4941   24.0388   33.3909 H   0  0  0  0  0  0  0  0  0  0  0  0
   36.8596   24.5833   33.3781 H   0  0  0  0  0  0  0  0  0  0  0  0
   39.4479   26.4503   33.3948 H   0  0  0  0  0  0  0  0  0  0  0  0
   37.7114   28.1472   34.0892 H   0  0  0  0  0  0  0  0  0  0  0  0
   36.3802   27.1808   33.5365 H   0  0  0  0  0  0  0  0  0  0  0  0
   36.3551   26.2862   35.7220 H   0  0  0  0  0  0  0  0  0  0  0  0
   37.9544   26.9847   36.0867 H   0  0  0  0  0  0  0  0  0  0  0  0
   38.2557   23.4866   39.4818 H   0  0  0  0  0  0  0  0  0  0  0  0
   37.0928   24.9202   37.7758 H   0  0  0  0  0  0  0  0  0  0  0  0
   41.1281   22.2525   36.6602 H   0  0  0  0  0  0  0  0  0  0  0  0
   39.2654   24.8134   30.8762 H   0  0  0  0  0  0  0  0  0  0  0  0
   40.8650   26.1643   32.5140 H   0  0  0  0  0  0  0  0  0  0  0  0
   41.6013   25.6139   31.0177 H   0  0  0  0  0  0  0  0  0  0  0  0
   40.6960   28.3557   31.8391 H   0  0  0  0  0  0  0  0  0  0  0  0
   42.0210   27.9063   30.7458 H   0  0  0  0  0  0  0  0  0  0  0  0
   39.3010   28.6675   30.0740 H   0  0  0  0  0  0  0  0  0  0  0  0
   40.6130   28.2651   28.9523 H   0  0  0  0  0  0  0  0  0  0  0  0
   38.3502   26.6365   29.2051 H   0  0  0  0  0  0  0  0  0  0  0  0
   39.7369   27.3089   26.9778 H   0  0  0  0  0  0  0  0  0  0  0  0
   41.3712   26.8903   27.6309 H   0  0  0  0  0  0  0  0  0  0  0  0
   41.6392   25.1530   26.2342 H   0  0  0  0  0  0  0  0  0  0  0  0
   40.3623   26.0375   25.2632 H   0  0  0  0  0  0  0  0  0  0  0  0
   38.8084   24.6898   25.9538 H   0  0  0  0  0  0  0  0  0  0  0  0
   38.5172   23.5822   27.6994 H   0  0  0  0  0  0  0  0  0  0  0  0
   40.0815   22.7291   27.4301 H   0  0  0  0  0  0  0  0  0  0  0  0
   41.3190   24.4518   28.5293 H   0  0  0  0  0  0  0  0  0  0  0  0
   39.9190   24.1269   29.5813 H   0  0  0  0  0  0  0  0  0  0  0  0
  1  5  1  0
  2  1  2  0
  3  7  1  0
  3 10  1  0
  4  3  1  0
  5  4  1  0
  5  6  1  0
  6  7  1  0
  9  8  2  0
 10  9  1  0
 11 10  2  0
 11 12  1  0
 12 13  2  0
 13  8  1  0
 14 15  1  0
 14  1  1  0
 16 15  1  0
 17 16  1  0
 18 17  1  0
 18 14  1  0
 19 24  1  0
 19 18  1  0
 20 19  1  0
 21 22  1  0
 21 20  1  0
 22 23  1  0
 23 24  1  0
  4 25  1  0
  4 26  1  0
  5 27  1  1
  6 28  1  0
  6 29  1  0
  7 30  1  0
  7 31  1  0
  8 32  1  0
  9 33  1  0
 12 34  1  0
 14 35  1  6
 15 36  1  0
 15 37  1  0
 16 38  1  0
 16 39  1  0
 17 40  1  0
 17 41  1  0
 18 42  1  6
 20 43  1  0
 20 44  1  0
 21 45  1  0
 21 46  1  0
 22 47  1  0
 23 48  1  0
 23 49  1  0
 24 50  1  0
 24 51  1  0
M  ISO  8  25  13  26  13  27  13  28  13  29  13  30  13  31  13  32  14
M  ISO  8  33  14  34  14  35  13  36  13  37  13  38  13  39  13  40  13
M  ISO  8  41  13  42  13  43  13  44  13  45  13  46  13  47   5  48  13
M  ISO  3  49  13  50  13  51  13
M  END
>  <minimizedAffinity>  (1) 
-4.8397212

>  <minimizedRMSD>  (1) 
0.551979899

$$$$
