
     RDKit          3D

 50 53  0  0  1  0  0  0  0  0999 V2000
   37.9950   25.2630   35.1090 N   0  0  0  0  0  0  0  0  0  0  0  0
   37.9810   25.0930   33.6630 C   0  0  0  0  0  0  0  0  0  0  0  0
   38.4850   26.5070   33.2680 C   0  0  2  0  0  0  0  0  0  0  0  0
   37.3820   27.2780   34.0100 C   0  0  0  0  0  0  0  0  0  0  0  0
   37.3440   26.5290   35.3220 C   0  0  0  0  0  0  0  0  0  0  0  0
   38.4940   23.5210   38.3460 C   0  0  0  0  0  0  0  0  0  0  0  0
   37.8690   24.3690   37.4200 C   0  0  0  0  0  0  0  0  0  0  0  0
   38.4970   24.4550   36.1660 C   0  0  0  0  0  0  0  0  0  0  0  0
   39.6400   23.7440   35.9110 N   0  0  0  0  0  0  0  0  0  0  0  0
   40.1830   22.9430   36.8710 C   0  0  0  0  0  0  0  0  0  0  0  0
   39.6180   22.8330   38.0690 N   0  0  0  0  0  0  0  0  0  0  0  0
   38.5600   26.7770   31.8430 C   0  0  0  0  0  0  0  0  0  0  0  0
   37.7410   27.5700   31.4470 O   0  0  0  0  0  0  0  0  0  0  0  0
   39.5610   26.1300   30.9700 C   0  0  2  0  0  0  0  0  0  0  0  0
   40.9670   26.2060   31.5350 C   0  0  0  0  0  0  0  0  0  0  0  0
   41.3730   27.6230   31.2460 C   0  0  0  0  0  0  0  0  0  0  0  0
   40.5580   28.0710   30.0590 C   0  0  0  0  0  0  0  0  0  0  0  0
   39.7040   26.8690   29.6540 C   0  0  1  0  0  0  0  0  0  0  0  0
   40.3490   26.0510   28.5920 C   0  0  0  0  0  0  0  0  0  0  0  0
   39.6340   24.7190   28.5390 C   0  0  0  0  0  0  0  0  0  0  0  0
   39.8090   24.2580   27.1180 C   0  0  0  0  0  0  0  0  0  0  0  0
   40.2680   25.4510   26.3210 C   0  0  0  0  0  0  0  0  0  0  0  0
   39.9810   26.6240   27.2390 C   0  0  0  0  0  0  0  0  0  0  0  0
   38.6668   24.2995   33.3311 H   0  0  0  0  0  0  0  0  0  0  0  0
   37.0201   24.7856   33.2246 H   0  0  0  0  0  0  0  0  0  0  0  0
   39.5284   26.7422   33.5249 H   0  0  0  0  0  0  0  0  0  0  0  0
   37.6539   28.3340   34.1548 H   0  0  0  0  0  0  0  0  0  0  0  0
   36.4188   27.3163   33.4802 H   0  0  0  0  0  0  0  0  0  0  0  0
   36.3015   26.3688   35.6343 H   0  0  0  0  0  0  0  0  0  0  0  0
   37.8518   27.1008   36.1127 H   0  0  0  0  0  0  0  0  0  0  0  0
   38.0454   23.4129   39.3445 H   0  0  0  0  0  0  0  0  0  0  0  0
   36.9518   24.9274   37.6587 H   0  0  0  0  0  0  0  0  0  0  0  0
   41.1018   22.3796   36.6511 H   0  0  0  0  0  0  0  0  0  0  0  0
   39.1972   25.0968   30.8691 H   0  0  0  0  0  0  0  0  0  0  0  0
   40.9693   26.0072   32.6169 H   0  0  0  0  0  0  0  0  0  0  0  0
   41.6498   25.4625   31.0981 H   0  0  0  0  0  0  0  0  0  0  0  0
   41.1614   28.2632   32.1151 H   0  0  0  0  0  0  0  0  0  0  0  0
   42.4506   27.6920   31.0362 H   0  0  0  0  0  0  0  0  0  0  0  0
   39.9156   28.9201   30.3354 H   0  0  0  0  0  0  0  0  0  0  0  0
   41.2019   28.4039   29.2316 H   0  0  0  0  0  0  0  0  0  0  0  0
   38.7378   27.1394   29.2030 H   0  0  0  0  0  0  0  0  0  0  0  0
   41.4294   26.0062   28.7936 H   0  0  0  0  0  0  0  0  0  0  0  0
   40.0903   24.0040   29.2394 H   0  0  0  0  0  0  0  0  0  0  0  0
   38.5754   24.7991   28.8269 H   0  0  0  0  0  0  0  0  0  0  0  0
   40.5635   23.4589   27.0703 H   0  0  0  0  0  0  0  0  0  0  0  0
   38.8666   23.8570   26.7167 H   0  0  0  0  0  0  0  0  0  0  0  0
   41.3424   25.3827   26.0949 H   0  0  0  0  0  0  0  0  0  0  0  0
   39.7622   25.5356   25.3479 H   0  0  0  0  0  0  0  0  0  0  0  0
   40.6071   27.4928   26.9875 H   0  0  0  0  0  0  0  0  0  0  0  0
   38.9481   26.9972   27.1777 H   0  0  0  0  0  0  0  0  0  0  0  0
  1  5  1  0
  1  8  1  0
  2  1  1  0
  3  2  1  0
  3  4  1  0
  4  5  1  0
  7  6  2  0
  8  7  1  0
  9  8  2  0
  9 10  1  0
 10 11  2  0
 11  6  1  0
 12  3  1  0
 13 12  2  0
 14 15  1  0
 14 12  1  0
 16 15  1  0
 17 16  1  0
 18 17  1  0
 18 14  1  0
 19 18  1  0
 20 19  1  0
 21 20  1  0
 22 21  1  0
 22 23  1  0
 23 19  1  0
  2 24  1  0
  2 25  1  0
  3 26  1  1
  4 27  1  0
  4 28  1  0
  5 29  1  0
  5 30  1  0
  6 31  1  0
  7 32  1  0
 10 33  1  0
 14 34  1  6
 15 35  1  0
 15 36  1  0
 16 37  1  0
 16 38  1  0
 17 39  1  0
 17 40  1  0
 18 41  1  6
 19 42  1  0
 20 43  1  0
 20 44  1  0
 21 45  1  0
 21 46  1  0
 22 47  1  0
 22 48  1  0
 23 49  1  0
 23 50  1  0
M  ISO  8  24  13  25  13  26  13  27  13  28  13  29  13  30  13  31  14
M  ISO  8  32  14  33  14  34  13  35  13  36  13  37  13  38  13  39  13
M  ISO  8  40  13  41  13  42  13  43  13  44  13  45  13  46  13  47  13
M  ISO  3  48  13  49  13  50  13
M  END
>  <minimizedAffinity>  (1) 
-4.90532064

>  <minimizedRMSD>  (1) 
0.445213348

$$$$
