
     RDKit          3D

 45 48  0  0  1  0  0  0  0  0999 V2000
   38.4280   27.1710   31.9490 C   0  0  0  0  0  0  0  0  0  0  0  0
   37.7440   28.1290   31.6780 O   0  0  0  0  0  0  0  0  0  0  0  0
   37.9640   25.3880   35.0960 N   0  0  0  0  0  0  0  0  0  0  0  0
   37.9130   25.3540   33.6520 C   0  0  0  0  0  0  0  0  0  0  0  0
   38.4060   26.8020   33.3560 C   0  0  2  0  0  0  0  0  0  0  0  0
   37.3230   27.5030   34.1840 C   0  0  0  0  0  0  0  0  0  0  0  0
   37.2850   26.6160   35.4140 C   0  0  0  0  0  0  0  0  0  0  0  0
   38.5830   23.4400   38.1920 C   0  0  0  0  0  0  0  0  0  0  0  0
   37.9200   24.3260   37.3370 C   0  0  0  0  0  0  0  0  0  0  0  0
   38.4960   24.5320   36.0780 C   0  0  0  0  0  0  0  0  0  0  0  0
   39.6560   23.8640   35.7580 N   0  0  0  0  0  0  0  0  0  0  0  0
   40.2540   23.0140   36.6350 C   0  0  0  0  0  0  0  0  0  0  0  0
   39.7180   22.8070   37.8400 N   0  0  0  0  0  0  0  0  0  0  0  0
   39.2280   26.4330   30.9480 C   0  0  2  0  0  0  0  0  0  0  0  0
   40.6780   26.2740   31.3620 C   0  0  0  0  0  0  0  0  0  0  0  0
   41.2610   27.6300   31.0840 C   0  0  0  0  0  0  0  0  0  0  0  0
   40.4070   28.2560   30.0110 C   0  0  0  0  0  0  0  0  0  0  0  0
   39.3440   27.2180   29.6570 C   0  0  1  0  0  0  0  0  0  0  0  0
   39.6930   26.3760   28.5170 C   0  0  0  0  0  0  0  0  0  0  0  0
   40.1340   27.0860   27.3980 C   0  0  0  0  0  0  0  0  0  0  0  0
   40.5070   26.4300   26.2300 C   0  0  0  0  0  0  0  0  0  0  0  0
   40.4140   25.0980   26.2560 N   0  0  0  0  0  0  0  0  0  0  0  0
   39.9850   24.4190   27.3460 C   0  0  0  0  0  0  0  0  0  0  0  0
   39.6210   25.0460   28.4830 N   0  0  0  0  0  0  0  0  0  0  0  0
   38.5895   24.5944   33.2333 H   0  0  0  0  0  0  0  0  0  0  0  0
   36.9369   25.0891   33.2194 H   0  0  0  0  0  0  0  0  0  0  0  0
   39.4537   27.0291   33.6024 H   0  0  0  0  0  0  0  0  0  0  0  0
   37.6113   28.5339   34.4373 H   0  0  0  0  0  0  0  0  0  0  0  0
   36.3561   27.6105   33.6706 H   0  0  0  0  0  0  0  0  0  0  0  0
   36.2414   26.4051   35.6904 H   0  0  0  0  0  0  0  0  0  0  0  0
   37.7757   27.1162   36.2619 H   0  0  0  0  0  0  0  0  0  0  0  0
   38.1610   23.2530   39.1905 H   0  0  0  0  0  0  0  0  0  0  0  0
   36.9928   24.8352   37.6386 H   0  0  0  0  0  0  0  0  0  0  0  0
   41.1817   22.4957   36.3508 H   0  0  0  0  0  0  0  0  0  0  0  0
   38.7083   25.4691   30.8444 H   0  0  0  0  0  0  0  0  0  0  0  0
   40.7586   26.0205   32.4294 H   0  0  0  0  0  0  0  0  0  0  0  0
   41.1943   25.4630   30.8275 H   0  0  0  0  0  0  0  0  0  0  0  0
   41.2382   28.2466   31.9947 H   0  0  0  0  0  0  0  0  0  0  0  0
   42.3094   27.5516   30.7603 H   0  0  0  0  0  0  0  0  0  0  0  0
   39.9333   29.1746   30.3875 H   0  0  0  0  0  0  0  0  0  0  0  0
   41.0062   28.5339   29.1314 H   0  0  0  0  0  0  0  0  0  0  0  0
   38.4001   27.6745   29.3243 H   0  0  0  0  0  0  0  0  0  0  0  0
   40.1872   28.1839   27.4414 H   0  0  0  0  0  0  0  0  0  0  0  0
   40.8568   26.9742   25.3403 H   0  0  0  0  0  0  0  0  0  0  0  0
   39.9317   23.3211   27.3027 H   0  0  0  0  0  0  0  0  0  0  0  0
  1  5  1  0
  2  1  2  0
  3  7  1  0
  3 10  1  0
  4  3  1  0
  5  4  1  0
  5  6  1  0
  6  7  1  0
  9  8  2  0
 10  9  1  0
 11 10  2  0
 11 12  1  0
 12 13  2  0
 13  8  1  0
 14 15  1  0
 14  1  1  0
 16 15  1  0
 17 16  1  0
 18 17  1  0
 18 14  1  0
 19 18  1  0
 20 19  2  0
 21 22  2  0
 21 20  1  0
 22 23  1  0
 23 24  2  0
 24 19  1  0
  4 25  1  0
  4 26  1  0
  5 27  1  1
  6 28  1  0
  6 29  1  0
  7 30  1  0
  7 31  1  0
  8 32  1  0
  9 33  1  0
 12 34  1  0
 14 35  1  6
 15 36  1  0
 15 37  1  0
 16 38  1  0
 16 39  1  0
 17 40  1  0
 17 41  1  0
 18 42  1  6
 20 43  1  0
 21 44  1  0
 23 45  1  0
M  ISO  8  25  13  26  13  27  13  28  13  29  13  30  13  31  13  32  14
M  ISO  8  33  14  34  14  35  13  36  13  37  13  38  13  39  13  40  13
M  ISO  5  41  13  42  13  43  14  44  14  45  14
M  END
>  <minimizedAffinity>  (1) 
-4.88832664

>  <minimizedRMSD>  (1) 
0.586244583

$$$$
