
     RDKit          3D

 44 47  0  0  1  0  0  0  0  0999 V2000
   38.4150   27.1600   31.9530 C   0  0  0  0  0  0  0  0  0  0  0  0
   37.7200   28.1100   31.6780 O   0  0  0  0  0  0  0  0  0  0  0  0
   37.9490   25.3870   35.1040 N   0  0  0  0  0  0  0  0  0  0  0  0
   37.9040   25.3480   33.6650 C   0  0  0  0  0  0  0  0  0  0  0  0
   38.3900   26.7910   33.3570 C   0  0  2  0  0  0  0  0  0  0  0  0
   37.3150   27.5070   34.1910 C   0  0  0  0  0  0  0  0  0  0  0  0
   37.2600   26.6110   35.4110 C   0  0  0  0  0  0  0  0  0  0  0  0
   38.5600   23.4410   38.2060 C   0  0  0  0  0  0  0  0  0  0  0  0
   37.8960   24.3220   37.3420 C   0  0  0  0  0  0  0  0  0  0  0  0
   38.4890   24.5290   36.0900 C   0  0  0  0  0  0  0  0  0  0  0  0
   39.6520   23.8790   35.7820 N   0  0  0  0  0  0  0  0  0  0  0  0
   40.2570   23.0320   36.6580 C   0  0  0  0  0  0  0  0  0  0  0  0
   39.7050   22.8210   37.8640 N   0  0  0  0  0  0  0  0  0  0  0  0
   39.2260   26.4260   30.9600 C   0  0  2  0  0  0  0  0  0  0  0  0
   40.6780   26.2780   31.3900 C   0  0  0  0  0  0  0  0  0  0  0  0
   41.2500   27.6370   31.1200 C   0  0  0  0  0  0  0  0  0  0  0  0
   40.4060   28.2490   30.0310 C   0  0  0  0  0  0  0  0  0  0  0  0
   39.3550   27.2060   29.6690 C   0  0  1  0  0  0  0  0  0  0  0  0
   39.7200   26.3720   28.5250 C   0  0  0  0  0  0  0  0  0  0  0  0
   40.1570   26.9050   27.3180 C   0  0  0  0  0  0  0  0  0  0  0  0
   40.3980   25.7980   26.5040 C   0  0  0  0  0  0  0  0  0  0  0  0
   40.1160   24.6770   27.2010 N   0  0  0  0  0  0  0  0  0  0  0  0
   39.7100   25.0450   28.4160 N   0  0  0  0  0  0  0  0  0  0  0  0
   38.5848   24.5885   33.2531 H   0  0  0  0  0  0  0  0  0  0  0  0
   36.9287   25.0791   33.2331 H   0  0  0  0  0  0  0  0  0  0  0  0
   39.4408   27.0118   33.5960 H   0  0  0  0  0  0  0  0  0  0  0  0
   37.6212   28.5304   34.4536 H   0  0  0  0  0  0  0  0  0  0  0  0
   36.3511   27.6370   33.6772 H   0  0  0  0  0  0  0  0  0  0  0  0
   36.2122   26.3940   35.6661 H   0  0  0  0  0  0  0  0  0  0  0  0
   37.7361   27.1089   36.2685 H   0  0  0  0  0  0  0  0  0  0  0  0
   38.1299   23.2490   39.2001 H   0  0  0  0  0  0  0  0  0  0  0  0
   36.9606   24.8234   37.6311 H   0  0  0  0  0  0  0  0  0  0  0  0
   41.1920   22.5234   36.3804 H   0  0  0  0  0  0  0  0  0  0  0  0
   38.7087   25.4612   30.8525 H   0  0  0  0  0  0  0  0  0  0  0  0
   40.7501   26.0237   32.4578 H   0  0  0  0  0  0  0  0  0  0  0  0
   41.2069   25.4721   30.8602 H   0  0  0  0  0  0  0  0  0  0  0  0
   41.2048   28.2555   32.0285 H   0  0  0  0  0  0  0  0  0  0  0  0
   42.3049   27.5708   30.8154 H   0  0  0  0  0  0  0  0  0  0  0  0
   39.9220   29.1674   30.3946 H   0  0  0  0  0  0  0  0  0  0  0  0
   41.0162   28.5224   29.1575 H   0  0  0  0  0  0  0  0  0  0  0  0
   38.4086   27.6509   29.3279 H   0  0  0  0  0  0  0  0  0  0  0  0
   40.2848   27.9669   27.0610 H   0  0  0  0  0  0  0  0  0  0  0  0
   40.7584   25.8329   25.4653 H   0  0  0  0  0  0  0  0  0  0  0  0
   40.1996   23.7102   26.8557 H   0  0  0  0  0  0  0  0  0  0  0  0
  1  5  1  0
  2  1  2  0
  3  7  1  0
  3 10  1  0
  4  3  1  0
  5  4  1  0
  5  6  1  0
  6  7  1  0
  9  8  2  0
 10  9  1  0
 11 10  2  0
 11 12  1  0
 12 13  2  0
 13  8  1  0
 14 15  1  0
 14  1  1  0
 16 15  1  0
 17 16  1  0
 18 17  1  0
 18 14  1  0
 19 18  1  0
 20 19  1  0
 21 22  1  0
 21 20  2  0
 22 23  1  0
 23 19  2  0
  4 24  1  0
  4 25  1  0
  5 26  1  1
  6 27  1  0
  6 28  1  0
  7 29  1  0
  7 30  1  0
  8 31  1  0
  9 32  1  0
 12 33  1  0
 14 34  1  6
 15 35  1  0
 15 36  1  0
 16 37  1  0
 16 38  1  0
 17 39  1  0
 17 40  1  0
 18 41  1  6
 20 42  1  0
 21 43  1  0
 22 44  1  0
M  ISO  8  24  13  25  13  26  13  27  13  28  13  29  13  30  13  31  14
M  ISO  8  32  14  33  14  34  13  35  13  36  13  37  13  38  13  39  13
M  ISO  5  40  13  41  13  42  14  43  14  44   9
M  END
>  <minimizedAffinity>  (1) 
-4.78307867

>  <minimizedRMSD>  (1) 
0.238378868

$$$$
