
     RDKit          3D

 44 47  0  0  1  0  0  0  0  0999 V2000
   38.3820   27.1210   31.7360 C   0  0  0  0  0  0  0  0  0  0  0  0
   37.6660   28.0370   31.4180 O   0  0  0  0  0  0  0  0  0  0  0  0
   37.8690   25.4590   34.9410 N   0  0  0  0  0  0  0  0  0  0  0  0
   37.8070   25.3840   33.5020 C   0  0  0  0  0  0  0  0  0  0  0  0
   38.3480   26.7980   33.1520 C   0  0  2  0  0  0  0  0  0  0  0  0
   37.3030   27.5730   33.9680 C   0  0  0  0  0  0  0  0  0  0  0  0
   37.2530   26.7230   35.2260 C   0  0  0  0  0  0  0  0  0  0  0  0
   38.4160   23.5860   38.0970 C   0  0  0  0  0  0  0  0  0  0  0  0
   37.7860   24.4720   37.2150 C   0  0  0  0  0  0  0  0  0  0  0  0
   38.3640   24.6140   35.9550 C   0  0  0  0  0  0  0  0  0  0  0  0
   39.5010   23.8930   35.6450 N   0  0  0  0  0  0  0  0  0  0  0  0
   40.0640   23.0460   36.5500 C   0  0  0  0  0  0  0  0  0  0  0  0
   39.5330   22.8950   37.7520 N   0  0  0  0  0  0  0  0  0  0  0  0
   39.2270   26.3870   30.7770 C   0  0  2  0  0  0  0  0  0  0  0  0
   40.3370   25.5990   31.4550 C   0  0  0  0  0  0  0  0  0  0  0  0
   41.3450   26.6630   31.7890 C   0  0  0  0  0  0  0  0  0  0  0  0
   41.1250   27.7960   30.8150 C   0  0  0  0  0  0  0  0  0  0  0  0
   40.0200   27.2990   29.8770 C   0  0  2  0  0  0  0  0  0  0  0  0
   39.2840   28.3610   29.2790 N   0  0  0  0  0  0  0  0  0  0  0  0
   38.1700   28.3670   28.5380 N   0  0  0  0  0  0  0  0  0  0  0  0
   37.8900   29.6450   28.2200 C   0  0  0  0  0  0  0  0  0  0  0  0
   38.8510   30.4690   28.7730 C   0  0  0  0  0  0  0  0  0  0  0  0
   39.7250   29.6350   29.4400 C   0  0  0  0  0  0  0  0  0  0  0  0
   38.4521   24.5870   33.1038 H   0  0  0  0  0  0  0  0  0  0  0  0
   36.8173   25.1437   33.0864 H   0  0  0  0  0  0  0  0  0  0  0  0
   39.4064   26.9907   33.3816 H   0  0  0  0  0  0  0  0  0  0  0  0
   37.6349   28.5993   34.1836 H   0  0  0  0  0  0  0  0  0  0  0  0
   36.3340   27.7069   33.4649 H   0  0  0  0  0  0  0  0  0  0  0  0
   36.2069   26.5671   35.5281 H   0  0  0  0  0  0  0  0  0  0  0  0
   37.7856   27.2277   36.0455 H   0  0  0  0  0  0  0  0  0  0  0  0
   37.9924   23.4449   39.1023 H   0  0  0  0  0  0  0  0  0  0  0  0
   36.8810   25.0276   37.5019 H   0  0  0  0  0  0  0  0  0  0  0  0
   40.9688   22.4820   36.2791 H   0  0  0  0  0  0  0  0  0  0  0  0
   38.4967   25.7613   30.2431 H   0  0  0  0  0  0  0  0  0  0  0  0
   39.9705   25.1009   32.3647 H   0  0  0  0  0  0  0  0  0  0  0  0
   40.7457   24.7939   30.8267 H   0  0  0  0  0  0  0  0  0  0  0  0
   41.1952   27.0159   32.8200 H   0  0  0  0  0  0  0  0  0  0  0  0
   42.3704   26.2720   31.7135 H   0  0  0  0  0  0  0  0  0  0  0  0
   40.8036   28.7050   31.3446 H   0  0  0  0  0  0  0  0  0  0  0  0
   42.0439   28.0589   30.2704 H   0  0  0  0  0  0  0  0  0  0  0  0
   40.3848   26.7723   28.9828 H   0  0  0  0  0  0  0  0  0  0  0  0
   37.0333   29.9794   27.6165 H   0  0  0  0  0  0  0  0  0  0  0  0
   38.9079   31.5649   28.6972 H   0  0  0  0  0  0  0  0  0  0  0  0
   40.6184   29.9464   30.0012 H   0  0  0  0  0  0  0  0  0  0  0  0
  1  5  1  0
  2  1  2  0
  3  7  1  0
  3 10  1  0
  4  3  1  0
  5  4  1  0
  5  6  1  0
  6  7  1  0
  9  8  2  0
 10  9  1  0
 11 10  2  0
 11 12  1  0
 12 13  2  0
 13  8  1  0
 14 15  1  0
 14  1  1  0
 15 16  1  0
 17 16  1  0
 18 14  1  0
 18 17  1  0
 19 23  1  0
 19 18  1  0
 20 19  1  0
 21 20  2  0
 21 22  1  0
 22 23  2  0
  4 24  1  0
  4 25  1  0
  5 26  1  1
  6 27  1  0
  6 28  1  0
  7 29  1  0
  7 30  1  0
  8 31  1  0
  9 32  1  0
 12 33  1  0
 14 34  1  6
 15 35  1  0
 15 36  1  0
 16 37  1  0
 16 38  1  0
 17 39  1  0
 17 40  1  0
 18 41  1  6
 21 42  1  0
 22 43  1  0
 23 44  1  0
M  ISO  8  24  13  25  13  26  13  27  13  28  13  29  13  30  13  31  14
M  ISO  8  32  14  33  14  34  13  35  13  36  13  37  13  38  13  39  13
M  ISO  5  40  13  41  13  42  14  43  14  44  14
M  END
>  <minimizedAffinity>  (1) 
-4.77434778

>  <minimizedRMSD>  (1) 
1.00679624

$$$$
