
     RDKit          3D

 39 41  0  0  1  0  0  0  0  0999 V2000
   37.9220   25.3570   35.0610 N   0  0  0  0  0  0  0  0  0  0  0  0
   37.8530   25.2360   33.6120 C   0  0  0  0  0  0  0  0  0  0  0  0
   38.3490   26.6570   33.2420 C   0  0  2  0  0  0  0  0  0  0  0  0
   37.2990   27.4250   34.0610 C   0  0  0  0  0  0  0  0  0  0  0  0
   37.2750   26.6100   35.3370 C   0  0  0  0  0  0  0  0  0  0  0  0
   38.5330   23.5050   38.2170 C   0  0  0  0  0  0  0  0  0  0  0  0
   37.8770   24.3700   37.3370 C   0  0  0  0  0  0  0  0  0  0  0  0
   38.4650   24.5170   36.0720 C   0  0  0  0  0  0  0  0  0  0  0  0
   39.6110   23.8330   35.7640 N   0  0  0  0  0  0  0  0  0  0  0  0
   40.1920   23.0070   36.6770 C   0  0  0  0  0  0  0  0  0  0  0  0
   39.6590   22.8450   37.8850 N   0  0  0  0  0  0  0  0  0  0  0  0
   38.3640   26.9720   31.8240 C   0  0  0  0  0  0  0  0  0  0  0  0
   37.5780   27.8310   31.5000 O   0  0  0  0  0  0  0  0  0  0  0  0
   39.2680   26.2930   30.8750 C   0  0  2  0  0  0  0  0  0  0  0  0
   40.6880   26.1670   31.4050 C   0  0  0  0  0  0  0  0  0  0  0  0
   41.2430   27.5480   31.2180 C   0  0  0  0  0  0  0  0  0  0  0  0
   40.4620   28.1780   30.0930 C   0  0  0  0  0  0  0  0  0  0  0  0
   39.4660   27.1220   29.6230 C   0  0  1  0  0  0  0  0  0  0  0  0
   39.9390   26.3580   28.4760 C   0  0  0  0  0  0  0  0  0  0  0  0
   39.7140   26.6850   27.3430 O   0  0  0  0  0  0  0  0  0  0  0  0
   38.5210   24.4505   33.2289 H   0  0  0  0  0  0  0  0  0  0  0  0
   36.8737   24.9488   33.2016 H   0  0  0  0  0  0  0  0  0  0  0  0
   39.4059   26.8703   33.4599 H   0  0  0  0  0  0  0  0  0  0  0  0
   37.6135   28.4620   34.2499 H   0  0  0  0  0  0  0  0  0  0  0  0
   36.3211   27.5225   33.5668 H   0  0  0  0  0  0  0  0  0  0  0  0
   36.2355   26.4348   35.6513 H   0  0  0  0  0  0  0  0  0  0  0  0
   37.7932   27.1435   36.1475 H   0  0  0  0  0  0  0  0  0  0  0  0
   38.1122   23.3571   39.2225 H   0  0  0  0  0  0  0  0  0  0  0  0
   36.9567   24.9025   37.6188 H   0  0  0  0  0  0  0  0  0  0  0  0
   41.1132   22.4671   36.4126 H   0  0  0  0  0  0  0  0  0  0  0  0
   38.7910   25.3172   30.7011 H   0  0  0  0  0  0  0  0  0  0  0  0
   40.6894   25.8810   32.4672 H   0  0  0  0  0  0  0  0  0  0  0  0
   41.2747   25.3913   30.8912 H   0  0  0  0  0  0  0  0  0  0  0  0
   41.1198   28.1345   32.1404 H   0  0  0  0  0  0  0  0  0  0  0  0
   42.3175   27.5152   30.9849 H   0  0  0  0  0  0  0  0  0  0  0  0
   39.9298   29.0713   30.4517 H   0  0  0  0  0  0  0  0  0  0  0  0
   41.1242   28.4969   29.2746 H   0  0  0  0  0  0  0  0  0  0  0  0
   38.5260   27.5434   29.2372 H   0  0  0  0  0  0  0  0  0  0  0  0
   40.5258   25.4450   28.6554 H   0  0  0  0  0  0  0  0  0  0  0  0
  1  5  1  0
  1  8  1  0
  2  1  1  0
  3  2  1  0
  3  4  1  0
  4  5  1  0
  7  6  2  0
  8  7  1  0
  9  8  2  0
  9 10  1  0
 10 11  2  0
 11  6  1  0
 12  3  1  0
 13 12  2  0
 14 15  1  0
 14 12  1  0
 16 15  1  0
 17 16  1  0
 18 17  1  0
 18 14  1  0
 19 18  1  0
 20 19  2  0
  2 21  1  0
  2 22  1  0
  3 23  1  1
  4 24  1  0
  4 25  1  0
  5 26  1  0
  5 27  1  0
  6 28  1  0
  7 29  1  0
 10 30  1  0
 14 31  1  6
 15 32  1  0
 15 33  1  0
 16 34  1  0
 16 35  1  0
 17 36  1  0
 17 37  1  0
 18 38  1  6
 19 39  1  0
M  ISO  8  21  13  22  13  23  13  24  13  25  13  26  13  27  13  28  14
M  ISO  8  29  14  30  14  31  13  32  13  33  13  34  13  35  13  36  13
M  ISO  3  37  13  38  13  39   6
M  END
>  <minimizedAffinity>  (1) 
-4.4549346

>  <minimizedRMSD>  (1) 
0.167768955

$$$$
