
     RDKit          3D

 30 32  0  0  0  0  0  0  0  0999 V2000
   38.2240   25.8120   35.6550 C   0  0  0  0  0  0  0  0  0  0  0  0
   38.2990   27.0970   36.1790 C   0  0  0  0  0  0  0  0  0  0  0  0
   37.7040   27.9490   35.2610 C   0  0  0  0  0  0  0  0  0  0  0  0
   37.3020   27.1310   34.2300 C   0  0  0  0  0  0  0  0  0  0  0  0
   37.6170   25.8840   34.4830 O   0  0  0  0  0  0  0  0  0  0  0  0
   38.2760   24.2370   37.6120 C   0  0  0  0  0  0  0  0  0  0  0  0
   38.7560   24.6560   36.3620 C   0  0  0  0  0  0  0  0  0  0  0  0
   39.7850   23.9170   35.7960 C   0  0  0  0  0  0  0  0  0  0  0  0
   40.2870   22.8280   36.4590 N   0  0  0  0  0  0  0  0  0  0  0  0
   39.7860   22.4650   37.6700 C   0  0  0  0  0  0  0  0  0  0  0  0
   38.7770   23.1730   38.2490 N   0  0  0  0  0  0  0  0  0  0  0  0
   36.6030   27.5330   32.9740 C   0  0  0  0  0  0  0  0  0  0  0  0
   35.9180   28.8630   33.1680 C   0  0  0  0  0  0  0  0  0  0  0  0
   35.6260   29.2320   31.7130 C   0  0  0  0  0  0  0  0  0  0  0  0
   36.8530   28.7510   30.9540 C   0  0  0  0  0  0  0  0  0  0  0  0
   37.5550   27.7680   31.8490 C   0  0  0  0  0  0  0  0  0  0  0  0
   38.7466   27.3844   37.1418 H   0  0  0  0  0  0  0  0  0  0  0  0
   37.5805   29.0392   35.3396 H   0  0  0  0  0  0  0  0  0  0  0  0
   37.4596   24.8030   38.0844 H   0  0  0  0  0  0  0  0  0  0  0  0
   40.1968   24.2047   34.8174 H   0  0  0  0  0  0  0  0  0  0  0  0
   40.2011   21.5882   38.1886 H   0  0  0  0  0  0  0  0  0  0  0  0
   35.9077   26.7124   32.7434 H   0  0  0  0  0  0  0  0  0  0  0  0
   34.9939   28.7633   33.7563 H   0  0  0  0  0  0  0  0  0  0  0  0
   36.5061   29.6081   33.7238 H   0  0  0  0  0  0  0  0  0  0  0  0
   34.7202   28.7208   31.3549 H   0  0  0  0  0  0  0  0  0  0  0  0
   35.4425   30.3083   31.5795 H   0  0  0  0  0  0  0  0  0  0  0  0
   36.5513   28.2618   30.0161 H   0  0  0  0  0  0  0  0  0  0  0  0
   37.5130   29.5918   30.6942 H   0  0  0  0  0  0  0  0  0  0  0  0
   37.7588   26.8304   31.3110 H   0  0  0  0  0  0  0  0  0  0  0  0
   38.5276   28.1445   32.1986 H   0  0  0  0  0  0  0  0  0  0  0  0
  1  2  2  0
  1  7  1  0
  3  2  1  0
  4  5  1  0
  4  3  2  0
  5  1  1  0
  6 11  2  0
  7  6  1  0
  8  7  2  0
  8  9  1  0
  9 10  2  0
 10 11  1  0
 12 13  1  0
 12  4  1  0
 14 13  1  0
 15 14  1  0
 15 16  1  0
 16 12  1  0
  2 17  1  0
  3 18  1  0
  6 19  1  0
  8 20  1  0
 10 21  1  0
 12 22  1  0
 13 23  1  0
 13 24  1  0
 14 25  1  0
 14 26  1  0
 15 27  1  0
 15 28  1  0
 16 29  1  0
 16 30  1  0
M  ISO  8  17  14  18  14  19  14  20  14  21  14  22  13  23  13  24  13
M  ISO  6  25  13  26  13  27  13  28  13  29  13  30  13
M  END
>  <minimizedAffinity>  (1) 
-4.70280266

>  <minimizedRMSD>  (1) 
0.817824662

$$$$
