
     RDKit          3D

 30 32  0  0  0  0  0  0  0  0999 V2000
   38.1080   25.8350   35.6040 C   0  0  0  0  0  0  0  0  0  0  0  0
   38.2330   27.1420   36.0450 C   0  0  0  0  0  0  0  0  0  0  0  0
   37.6020   27.9580   35.1340 C   0  0  0  0  0  0  0  0  0  0  0  0
   37.1270   27.1110   34.1830 C   0  0  0  0  0  0  0  0  0  0  0  0
   37.4310   25.8510   34.4680 O   0  0  0  0  0  0  0  0  0  0  0  0
   38.1650   24.3020   37.5950 C   0  0  0  0  0  0  0  0  0  0  0  0
   38.6660   24.7040   36.3360 C   0  0  0  0  0  0  0  0  0  0  0  0
   39.7200   23.9830   35.7980 C   0  0  0  0  0  0  0  0  0  0  0  0
   40.2370   22.9250   36.4860 N   0  0  0  0  0  0  0  0  0  0  0  0
   39.7310   22.5650   37.6970 C   0  0  0  0  0  0  0  0  0  0  0  0
   38.7060   23.2560   38.2320 N   0  0  0  0  0  0  0  0  0  0  0  0
   36.3950   27.4690   33.0180 N   0  0  0  0  0  0  0  0  0  0  0  0
   35.6110   28.6740   32.8140 C   0  0  0  0  0  0  0  0  0  0  0  0
   36.0130   29.3960   31.5490 C   0  0  0  0  0  0  0  0  0  0  0  0
   36.9830   28.6930   30.8350 O   0  0  0  0  0  0  0  0  0  0  0  0
   36.4890   27.4250   30.5890 C   0  0  0  0  0  0  0  0  0  0  0  0
   36.3640   26.6070   31.8530 C   0  0  0  0  0  0  0  0  0  0  0  0
   38.7459   27.4698   36.9613 H   0  0  0  0  0  0  0  0  0  0  0  0
   37.5038   29.0531   35.1680 H   0  0  0  0  0  0  0  0  0  0  0  0
   37.3283   24.8500   38.0528 H   0  0  0  0  0  0  0  0  0  0  0  0
   40.1381   24.2629   34.8198 H   0  0  0  0  0  0  0  0  0  0  0  0
   40.1594   21.7092   38.2393 H   0  0  0  0  0  0  0  0  0  0  0  0
   34.5479   28.4000   32.7454 H   0  0  0  0  0  0  0  0  0  0  0  0
   35.7909   29.3477   33.6647 H   0  0  0  0  0  0  0  0  0  0  0  0
   35.1242   29.5210   30.9131 H   0  0  0  0  0  0  0  0  0  0  0  0
   36.4377   30.3702   31.8327 H   0  0  0  0  0  0  0  0  0  0  0  0
   35.4954   27.5155   30.1257 H   0  0  0  0  0  0  0  0  0  0  0  0
   37.1960   26.9103   29.9218 H   0  0  0  0  0  0  0  0  0  0  0  0
   35.4123   26.0557   31.8353 H   0  0  0  0  0  0  0  0  0  0  0  0
   37.2076   25.9032   31.9074 H   0  0  0  0  0  0  0  0  0  0  0  0
  1  2  2  0
  1  7  1  0
  3  2  1  0
  4  5  1  0
  4  3  2  0
  5  1  1  0
  6 11  2  0
  7  6  1  0
  8  7  2  0
  8  9  1  0
  9 10  2  0
 10 11  1  0
 12  4  1  0
 13 12  1  0
 14 13  1  0
 15 14  1  0
 16 15  1  0
 16 17  1  0
 17 12  1  0
  2 18  1  0
  3 19  1  0
  6 20  1  0
  8 21  1  0
 10 22  1  0
 13 23  1  0
 13 24  1  0
 14 25  1  0
 14 26  1  0
 16 27  1  0
 16 28  1  0
 17 29  1  0
 17 30  1  0
M  ISO  8  18  14  19  14  20  14  21  14  22  14  23  13  24  13  25  13
M  ISO  5  26  13  27  13  28  13  29  13  30  13
M  END
>  <minimizedAffinity>  (1) 
-4.67425203

>  <minimizedRMSD>  (1) 
1.18897557

$$$$
