
     RDKit          3D

 24 26  0  0  0  0  0  0  0  0999 V2000
   38.1470   25.6840   35.3740 C   0  0  0  0  0  0  0  0  0  0  0  0
   37.8790   26.9670   35.8110 C   0  0  0  0  0  0  0  0  0  0  0  0
   37.3770   27.6740   34.7300 C   0  0  0  0  0  0  0  0  0  0  0  0
   37.3660   26.7880   33.6980 C   0  0  0  0  0  0  0  0  0  0  0  0
   37.8270   25.6080   34.0940 O   0  0  0  0  0  0  0  0  0  0  0  0
   38.1330   24.3540   37.5070 C   0  0  0  0  0  0  0  0  0  0  0  0
   38.6900   24.6560   36.2440 C   0  0  0  0  0  0  0  0  0  0  0  0
   39.7960   23.9210   35.8460 C   0  0  0  0  0  0  0  0  0  0  0  0
   40.3040   22.9460   36.6720 N   0  0  0  0  0  0  0  0  0  0  0  0
   39.7350   22.6970   37.8720 C   0  0  0  0  0  0  0  0  0  0  0  0
   38.6430   23.4040   38.2940 N   0  0  0  0  0  0  0  0  0  0  0  0
   36.9190   27.0540   32.3260 C   0  0  0  0  0  0  0  0  0  0  0  0
   37.1940   28.1840   31.5930 C   0  0  0  0  0  0  0  0  0  0  0  0
   36.6030   28.0680   30.3510 C   0  0  0  0  0  0  0  0  0  0  0  0
   35.9880   26.8740   30.3680 N   0  0  0  0  0  0  0  0  0  0  0  0
   36.1770   26.2810   31.5310 N   0  0  0  0  0  0  0  0  0  0  0  0
   38.0351   27.3553   36.8283 H   0  0  0  0  0  0  0  0  0  0  0  0
   37.0562   28.7260   34.7107 H   0  0  0  0  0  0  0  0  0  0  0  0
   37.2537   24.9180   37.8517 H   0  0  0  0  0  0  0  0  0  0  0  0
   40.2664   24.1174   34.8712 H   0  0  0  0  0  0  0  0  0  0  0  0
   40.1565   21.9138   38.5193 H   0  0  0  0  0  0  0  0  0  0  0  0
   37.7888   29.0418   31.9401 H   0  0  0  0  0  0  0  0  0  0  0  0
   36.6298   28.7955   29.5263 H   0  0  0  0  0  0  0  0  0  0  0  0
   35.4469   26.4785   29.5858 H   0  0  0  0  0  0  0  0  0  0  0  0
  1  2  2  0
  1  7  1  0
  3  2  1  0
  4  5  1  0
  4  3  2  0
  5  1  1  0
  6 11  2  0
  7  6  1  0
  8  7  2  0
  8  9  1  0
  9 10  2  0
 10 11  1  0
 12  4  1  0
 13 12  1  0
 14 15  1  0
 14 13  2  0
 15 16  1  0
 16 12  2  0
  2 17  1  0
  3 18  1  0
  6 19  1  0
  8 20  1  0
 10 21  1  0
 13 22  1  0
 14 23  1  0
 15 24  1  0
M  ISO  8  17  14  18  14  19  14  20  14  21  14  22  14  23  14  24   9
M  END
>  <minimizedAffinity>  (1) 
-4.81712341

>  <minimizedRMSD>  (1) 
0.943791151

$$$$
