
     RDKit          3D

 23 25  0  0  0  0  0  0  0  0999 V2000
   38.2700   25.7090   35.5950 C   0  0  0  0  0  0  0  0  0  0  0  0
   38.1870   26.9970   36.1040 C   0  0  0  0  0  0  0  0  0  0  0  0
   37.6250   27.7840   35.1150 C   0  0  0  0  0  0  0  0  0  0  0  0
   37.3940   26.9530   34.0660 C   0  0  0  0  0  0  0  0  0  0  0  0
   37.7840   25.7340   34.3780 O   0  0  0  0  0  0  0  0  0  0  0  0
   38.3090   24.2160   37.6240 C   0  0  0  0  0  0  0  0  0  0  0  0
   38.8180   24.5980   36.3660 C   0  0  0  0  0  0  0  0  0  0  0  0
   39.8890   23.8810   35.8460 C   0  0  0  0  0  0  0  0  0  0  0  0
   40.4080   22.8370   36.5660 N   0  0  0  0  0  0  0  0  0  0  0  0
   39.8820   22.5050   37.7730 C   0  0  0  0  0  0  0  0  0  0  0  0
   38.8320   23.1960   38.3020 N   0  0  0  0  0  0  0  0  0  0  0  0
   36.8520   27.0670   32.7540 N   0  0  0  0  0  0  0  0  0  0  0  0
   36.2840   26.2640   31.8360 C   0  0  0  0  0  0  0  0  0  0  0  0
   35.9690   26.9910   30.7490 N   0  0  0  0  0  0  0  0  0  0  0  0
   36.3330   28.2550   30.9700 C   0  0  0  0  0  0  0  0  0  0  0  0
   36.8780   28.2910   32.2160 N   0  0  0  0  0  0  0  0  0  0  0  0
   38.5069   27.3288   37.1028 H   0  0  0  0  0  0  0  0  0  0  0  0
   37.4095   28.8614   35.1674 H   0  0  0  0  0  0  0  0  0  0  0  0
   37.4628   24.7717   38.0542 H   0  0  0  0  0  0  0  0  0  0  0  0
   40.3151   24.1485   34.8678 H   0  0  0  0  0  0  0  0  0  0  0  0
   40.3111   21.6624   38.3350 H   0  0  0  0  0  0  0  0  0  0  0  0
   36.1057   25.1851   31.9553 H   0  0  0  0  0  0  0  0  0  0  0  0
   36.2154   29.1031   30.2794 H   0  0  0  0  0  0  0  0  0  0  0  0
  1  2  2  0
  1  7  1  0
  3  2  1  0
  4  5  1  0
  4  3  2  0
  5  1  1  0
  6 11  2  0
  7  6  1  0
  8  7  2  0
  8  9  1  0
  9 10  2  0
 10 11  1  0
 12  4  1  0
 13 12  1  0
 14 15  1  0
 14 13  2  0
 15 16  2  0
 16 12  1  0
  2 17  1  0
  3 18  1  0
  6 19  1  0
  8 20  1  0
 10 21  1  0
 13 22  1  0
 15 23  1  0
M  ISO  7  17  14  18  14  19  14  20  14  21  14  22  14  23  14
M  END
>  <minimizedAffinity>  (1) 
-4.47076845

>  <minimizedRMSD>  (1) 
0.443989068

$$$$
