
     RDKit          3D

 31 33  0  0  0  0  0  0  0  0999 V2000
   38.3620   25.7470   35.4590 C   0  0  0  0  0  0  0  0  0  0  0  0
   38.0630   26.9790   36.0100 C   0  0  0  0  0  0  0  0  0  0  0  0
   37.6370   27.7890   34.9770 C   0  0  0  0  0  0  0  0  0  0  0  0
   37.7000   27.0030   33.8560 C   0  0  0  0  0  0  0  0  0  0  0  0
   38.1350   25.7940   34.1660 O   0  0  0  0  0  0  0  0  0  0  0  0
   38.2620   24.2870   37.5180 C   0  0  0  0  0  0  0  0  0  0  0  0
   38.8480   24.6330   36.2790 C   0  0  0  0  0  0  0  0  0  0  0  0
   39.9340   23.8800   35.8250 C   0  0  0  0  0  0  0  0  0  0  0  0
   40.3690   22.8370   36.6170 N   0  0  0  0  0  0  0  0  0  0  0  0
   39.7810   22.5390   37.7910 C   0  0  0  0  0  0  0  0  0  0  0  0
   38.7320   23.2620   38.2400 N   0  0  0  0  0  0  0  0  0  0  0  0
   37.3130   27.5540   32.5980 N   0  0  0  0  0  0  0  0  0  0  0  0
   35.9750   28.0060   32.2560 C   0  0  0  0  0  0  0  0  0  0  0  0
   36.0600   28.8630   31.0090 C   0  0  0  0  0  0  0  0  0  0  0  0
   36.5520   28.0630   29.9020 N   0  0  0  0  0  0  0  0  0  0  0  0
   37.7240   27.2930   30.2310 C   0  0  0  0  0  0  0  0  0  0  0  0
   38.3310   27.7080   31.5500 C   0  0  0  0  0  0  0  0  0  0  0  0
   38.1484   27.2602   37.0700 H   0  0  0  0  0  0  0  0  0  0  0  0
   37.3160   28.8393   35.0398 H   0  0  0  0  0  0  0  0  0  0  0  0
   37.4074   24.8683   37.8945 H   0  0  0  0  0  0  0  0  0  0  0  0
   40.4256   24.1109   34.8684 H   0  0  0  0  0  0  0  0  0  0  0  0
   40.1588   21.6979   38.3908 H   0  0  0  0  0  0  0  0  0  0  0  0
   35.3274   27.1374   32.0657 H   0  0  0  0  0  0  0  0  0  0  0  0
   35.5513   28.5902   33.0862 H   0  0  0  0  0  0  0  0  0  0  0  0
   35.0611   29.2528   30.7637 H   0  0  0  0  0  0  0  0  0  0  0  0
   36.7484   29.7021   31.1881 H   0  0  0  0  0  0  0  0  0  0  0  0
   36.7837   28.6933   29.1210 H   0  0  0  0  0  0  0  0  0  0  0  0
   37.4445   26.2307   30.2889 H   0  0  0  0  0  0  0  0  0  0  0  0
   38.4736   27.4690   29.4455 H   0  0  0  0  0  0  0  0  0  0  0  0
   39.1976   27.0698   31.7773 H   0  0  0  0  0  0  0  0  0  0  0  0
   38.6658   28.7546   31.4993 H   0  0  0  0  0  0  0  0  0  0  0  0
  1  2  2  0
  1  7  1  0
  3  2  1  0
  4  5  1  0
  4  3  2  0
  5  1  1  0
  6 11  2  0
  7  6  1  0
  8  7  2  0
  8  9  1  0
  9 10  2  0
 10 11  1  0
 12  4  1  0
 13 12  1  0
 14 13  1  0
 15 16  1  0
 15 14  1  0
 16 17  1  0
 17 12  1  0
  2 18  1  0
  3 19  1  0
  6 20  1  0
  8 21  1  0
 10 22  1  0
 13 23  1  0
 13 24  1  0
 14 25  1  0
 14 26  1  0
 15 27  1  0
 16 28  1  0
 16 29  1  0
 17 30  1  0
 17 31  1  0
M  ISO  8  18  14  19  14  20  14  21  14  22  14  23  13  24  13  25  13
M  ISO  6  26  13  27   5  28  13  29  13  30  13  31  13
M  END
>  <minimizedAffinity>  (1) 
-4.65438747

>  <minimizedRMSD>  (1) 
0.904430151

$$$$
