
     RDKit          3D

 25 27  0  0  0  0  0  0  0  0999 V2000
   38.4980   25.7540   35.4640 C   0  0  0  0  0  0  0  0  0  0  0  0
   38.2190   26.9550   36.1320 C   0  0  0  0  0  0  0  0  0  0  0  0
   37.7330   27.8420   35.1870 C   0  0  0  0  0  0  0  0  0  0  0  0
   37.7410   27.1480   34.0070 C   0  0  0  0  0  0  0  0  0  0  0  0
   38.1920   25.9390   34.2090 O   0  0  0  0  0  0  0  0  0  0  0  0
   38.4800   24.1060   37.3580 C   0  0  0  0  0  0  0  0  0  0  0  0
   39.0310   24.5920   36.1730 C   0  0  0  0  0  0  0  0  0  0  0  0
   40.1440   23.9440   35.6360 C   0  0  0  0  0  0  0  0  0  0  0  0
   40.6460   22.8470   36.3080 N   0  0  0  0  0  0  0  0  0  0  0  0
   40.0720   22.4100   37.4620 C   0  0  0  0  0  0  0  0  0  0  0  0
   38.9940   23.0430   37.9780 N   0  0  0  0  0  0  0  0  0  0  0  0
   37.3090   27.6700   32.6990 C   0  0  0  0  0  0  0  0  0  0  0  0
   36.2700   28.5750   32.6280 C   0  0  0  0  0  0  0  0  0  0  0  0
   35.9280   29.0150   31.3680 C   0  0  0  0  0  0  0  0  0  0  0  0
   36.5370   28.6230   30.2210 N   0  0  0  0  0  0  0  0  0  0  0  0
   37.5540   27.7310   30.3530 C   0  0  0  0  0  0  0  0  0  0  0  0
   37.9380   27.2590   31.5740 N   0  0  0  0  0  0  0  0  0  0  0  0
   38.3598   27.1545   37.2045 H   0  0  0  0  0  0  0  0  0  0  0  0
   37.4099   28.8809   35.3492 H   0  0  0  0  0  0  0  0  0  0  0  0
   37.6030   24.6099   37.7905 H   0  0  0  0  0  0  0  0  0  0  0  0
   40.6085   24.2971   34.7035 H   0  0  0  0  0  0  0  0  0  0  0  0
   40.4888   21.5336   37.9799 H   0  0  0  0  0  0  0  0  0  0  0  0
   35.7436   28.9259   33.5279 H   0  0  0  0  0  0  0  0  0  0  0  0
   35.1015   29.7362   31.2862 H   0  0  0  0  0  0  0  0  0  0  0  0
   38.0806   27.3810   29.4529 H   0  0  0  0  0  0  0  0  0  0  0  0
  1  2  2  0
  1  7  1  0
  3  2  1  0
  4  5  1  0
  4  3  2  0
  5  1  1  0
  6 11  2  0
  7  6  1  0
  8  7  2  0
  8  9  1  0
  9 10  2  0
 10 11  1  0
 12  4  1  0
 13 12  2  0
 14 13  1  0
 15 16  1  0
 15 14  2  0
 16 17  2  0
 17 12  1  0
  2 18  1  0
  3 19  1  0
  6 20  1  0
  8 21  1  0
 10 22  1  0
 13 23  1  0
 14 24  1  0
 16 25  1  0
M  ISO  8  18  14  19  14  20  14  21  14  22  14  23  14  24  14  25  14
M  END
>  <minimizedAffinity>  (1) 
-4.49241018

>  <minimizedRMSD>  (1) 
1.01399863

$$$$
