
     RDKit          3D

 20 21  0  0  0  0  0  0  0  0999 V2000
   38.0760   25.7100   35.4480 C   0  0  0  0  0  0  0  0  0  0  0  0
   37.9930   27.0320   35.8470 C   0  0  0  0  0  0  0  0  0  0  0  0
   37.4030   27.7260   34.8090 C   0  0  0  0  0  0  0  0  0  0  0  0
   37.1570   26.7950   33.8340 C   0  0  0  0  0  0  0  0  0  0  0  0
   37.5640   25.6190   34.2390 O   0  0  0  0  0  0  0  0  0  0  0  0
   38.1290   24.3410   37.5670 C   0  0  0  0  0  0  0  0  0  0  0  0
   38.6520   24.6660   36.2950 C   0  0  0  0  0  0  0  0  0  0  0  0
   39.7560   23.9540   35.8530 C   0  0  0  0  0  0  0  0  0  0  0  0
   40.2920   22.9750   36.6540 N   0  0  0  0  0  0  0  0  0  0  0  0
   39.7540   22.7020   37.8630 C   0  0  0  0  0  0  0  0  0  0  0  0
   38.6730   23.3880   38.3140 N   0  0  0  0  0  0  0  0  0  0  0  0
   36.5300   26.9570   32.4780 C   0  0  0  0  0  0  0  0  0  0  0  0
   37.4480   27.3740   31.5390 F   0  0  0  0  0  0  0  0  0  0  0  0
   35.9760   25.7560   32.0530 F   0  0  0  0  0  0  0  0  0  0  0  0
   35.5650   27.9560   32.5370 F   0  0  0  0  0  0  0  0  0  0  0  0
   38.3318   27.4500   36.8064 H   0  0  0  0  0  0  0  0  0  0  0  0
   37.1775   28.8020   34.7725 H   0  0  0  0  0  0  0  0  0  0  0  0
   37.2535   24.8888   37.9457 H   0  0  0  0  0  0  0  0  0  0  0  0
   40.1990   24.1709   34.8698 H   0  0  0  0  0  0  0  0  0  0  0  0
   40.1975   21.9141   38.4895 H   0  0  0  0  0  0  0  0  0  0  0  0
  1  2  2  0
  1  7  1  0
  3  2  1  0
  4  5  1  0
  4  3  2  0
  5  1  1  0
  6 11  2  0
  7  6  1  0
  8  7  2  0
  8  9  1  0
  9 10  2  0
 10 11  1  0
 12 15  1  0
 12  4  1  0
 13 12  1  0
 14 12  1  0
  2 16  1  0
  3 17  1  0
  6 18  1  0
  8 19  1  0
 10 20  1  0
M  ISO  5  16  14  17  14  18  14  19  14  20  14
M  END
>  <minimizedAffinity>  (1) 
-4.26831722

>  <minimizedRMSD>  (1) 
0.480925232

$$$$
