
     RDKit          3D

 24 26  0  0  0  0  0  0  0  0999 V2000
   38.1430   25.7760   35.5610 C   0  0  0  0  0  0  0  0  0  0  0  0
   38.1380   27.0820   36.0300 C   0  0  0  0  0  0  0  0  0  0  0  0
   37.5340   27.8710   35.0700 C   0  0  0  0  0  0  0  0  0  0  0  0
   37.2020   27.0150   34.0660 C   0  0  0  0  0  0  0  0  0  0  0  0
   37.5670   25.7880   34.3730 O   0  0  0  0  0  0  0  0  0  0  0  0
   38.1970   24.2920   37.5810 C   0  0  0  0  0  0  0  0  0  0  0  0
   38.7030   24.6720   36.3170 C   0  0  0  0  0  0  0  0  0  0  0  0
   39.7690   23.9490   35.8050 C   0  0  0  0  0  0  0  0  0  0  0  0
   40.2860   22.9090   36.5310 N   0  0  0  0  0  0  0  0  0  0  0  0
   39.7640   22.5790   37.7480 C   0  0  0  0  0  0  0  0  0  0  0  0
   38.7200   23.2740   38.2680 N   0  0  0  0  0  0  0  0  0  0  0  0
   36.5210   27.3430   32.7770 C   0  0  0  0  0  0  0  0  0  0  0  0
   37.3800   27.8670   31.6450 C   0  0  0  0  0  0  0  0  0  0  0  0
   36.4250   28.7720   32.3180 C   0  0  0  0  0  0  0  0  0  0  0  0
   38.5423   27.4271   36.9931 H   0  0  0  0  0  0  0  0  0  0  0  0
   37.3594   28.9563   35.1090 H   0  0  0  0  0  0  0  0  0  0  0  0
   37.3508   24.8493   38.0093 H   0  0  0  0  0  0  0  0  0  0  0  0
   40.1958   24.2080   34.8248 H   0  0  0  0  0  0  0  0  0  0  0  0
   40.1942   21.7399   38.3144 H   0  0  0  0  0  0  0  0  0  0  0  0
   35.7956   26.5287   32.9207 H   0  0  0  0  0  0  0  0  0  0  0  0
   37.1897   27.5369   30.6131 H   0  0  0  0  0  0  0  0  0  0  0  0
   38.4602   27.8933   31.4387 H   0  0  0  0  0  0  0  0  0  0  0  0
   36.7992   29.5803   32.9635 H   0  0  0  0  0  0  0  0  0  0  0  0
   35.6037   29.4193   31.9766 H   0  0  0  0  0  0  0  0  0  0  0  0
  1  2  2  0
  1  7  1  0
  3  2  1  0
  4  5  1  0
  4  3  2  0
  5  1  1  0
  6 11  2  0
  7  6  1  0
  8  7  2  0
  8  9  1  0
  9 10  2  0
 10 11  1  0
 12  4  1  0
 13 14  1  0
 13 12  1  0
 14 12  1  0
  2 15  1  0
  3 16  1  0
  6 17  1  0
  8 18  1  0
 10 19  1  0
 12 20  1  0
 13 21  1  0
 13 22  1  0
 14 23  1  0
 14 24  1  0
M  ISO  8  15  14  16  14  17  14  18  14  19  14  20  13  21  13  22  13
M  ISO  2  23  13  24  13
M  END
>  <minimizedAffinity>  (1) 
-4.18410301

>  <minimizedRMSD>  (1) 
0.63607949

$$$$
