
     RDKit          3D

 40 43  0  0  1  0  0  0  0  0999 V2000
   39.1860   24.0270   35.3520 C   0  0  1  0  0  0  0  0  0  0  0  0
   38.3520   24.4810   36.5020 C   0  0  0  0  0  0  0  0  0  0  0  0
   38.4170   23.3180   37.4530 C   0  0  0  0  0  0  0  0  0  0  0  0
   39.8570   22.8810   37.3650 C   0  0  0  0  0  0  0  0  0  0  0  0
   40.2940   23.1890   35.9800 C   0  0  2  0  0  0  0  0  0  0  0  0
   41.5720   23.9040   35.9050 N   0  0  0  0  0  0  0  0  0  0  0  0
   42.6400   23.3780   36.5470 C   0  0  0  0  0  0  0  0  0  0  0  0
   43.8660   24.0060   36.5120 C   0  0  0  0  0  0  0  0  0  0  0  0
   44.0120   25.1970   35.8060 C   0  0  0  0  0  0  0  0  0  0  0  0
   45.1110   25.8400   35.7240 O   0  0  0  0  0  0  0  0  0  0  0  0
   42.9040   25.6640   35.1890 N   0  0  0  0  0  0  0  0  0  0  0  0
   41.7140   25.0610   35.2200 C   0  0  0  0  0  0  0  0  0  0  0  0
   40.7150   25.5420   34.6260 O   0  0  0  0  0  0  0  0  0  0  0  0
   37.8020   23.7480   33.3120 C   0  0  0  0  0  0  0  0  0  0  0  0
   37.1430   22.7570   32.6170 C   0  0  0  0  0  0  0  0  0  0  0  0
   37.3720   21.6230   33.3350 N   0  0  0  0  0  0  0  0  0  0  0  0
   38.1280   21.9730   34.3880 C   0  0  0  0  0  0  0  0  0  0  0  0
   38.4140   23.2760   34.4050 N   0  0  0  0  0  0  0  0  0  0  0  0
   37.8530   25.1680   32.9310 C   0  0  0  0  0  0  0  0  0  0  0  0
   38.7320   25.5770   31.9030 C   0  0  0  0  0  0  0  0  0  0  0  0
   38.7490   26.9440   31.5710 C   0  0  0  0  0  0  0  0  0  0  0  0
   37.9280   27.7790   32.2520 N   0  0  0  0  0  0  0  0  0  0  0  0
   37.1130   27.3440   33.2180 C   0  0  0  0  0  0  0  0  0  0  0  0
   37.0510   26.0370   33.5850 N   0  0  0  0  0  0  0  0  0  0  0  0
   39.5934   24.8720   34.7776 H   0  0  0  0  0  0  0  0  0  0  0  0
   38.7718   25.3889   36.9597 H   0  0  0  0  0  0  0  0  0  0  0  0
   37.3241   24.7447   36.2122 H   0  0  0  0  0  0  0  0  0  0  0  0
   38.1615   23.6305   38.4763 H   0  0  0  0  0  0  0  0  0  0  0  0
   37.7068   22.5161   37.2029 H   0  0  0  0  0  0  0  0  0  0  0  0
   40.4697   23.4352   38.0913 H   0  0  0  0  0  0  0  0  0  0  0  0
   39.9681   21.8109   37.5940 H   0  0  0  0  0  0  0  0  0  0  0  0
   40.4644   22.2433   35.4446 H   0  0  0  0  0  0  0  0  0  0  0  0
   42.5284   22.4363   37.1045 H   0  0  0  0  0  0  0  0  0  0  0  0
   44.7260   23.5680   37.0398 H   0  0  0  0  0  0  0  0  0  0  0  0
   42.9834   26.5440   34.6596 H   0  0  0  0  0  0  0  0  0  0  0  0
   36.5615   22.8594   31.6889 H   0  0  0  0  0  0  0  0  0  0  0  0
   38.4739   21.2627   35.1534 H   0  0  0  0  0  0  0  0  0  0  0  0
   39.3779   24.8546   31.3825 H   0  0  0  0  0  0  0  0  0  0  0  0
   39.4113   27.3247   30.7795 H   0  0  0  0  0  0  0  0  0  0  0  0
   36.4689   28.0706   33.7349 H   0  0  0  0  0  0  0  0  0  0  0  0
  1  5  1  0
  1  2  1  0
  2  3  1  0
  4  3  1  0
  5  4  1  0
  6  5  1  0
  6  7  1  0
  8  7  2  0
  9  8  1  0
 10  9  2  0
 11 12  1  0
 11  9  1  0
 12  6  1  0
 13 12  2  0
 14 18  1  0
 15 14  2  0
 15 16  1  0
 16 17  2  0
 17 18  1  0
 18  1  1  0
 19 14  1  0
 19 24  1  0
 20 19  2  0
 21 20  1  0
 21 22  2  0
 22 23  1  0
 23 24  2  0
  1 25  1  6
  2 26  1  0
  2 27  1  0
  3 28  1  0
  3 29  1  0
  4 30  1  0
  4 31  1  0
  5 32  1  6
  7 33  1  0
  8 34  1  0
 11 35  1  0
 15 36  1  0
 17 37  1  0
 20 38  1  0
 21 39  1  0
 23 40  1  0
M  ISO  8  25  13  26  13  27  13  28  13  29  13  30  13  31  13  32  13
M  ISO  8  33  14  34  14  35   9  36  14  37  14  38  14  39  14  40  14
M  END
>  <minimizedAffinity>  (1) 
-5.35174751

>  <minimizedRMSD>  (1) 
1.03303051

$$$$
