
     RDKit          3D

 39 43  0  0  0  0  0  0  0  0999 V2000
   37.1910   27.7090   32.9400 C   0  0  0  0  0  0  0  0  0  0  0  0
   35.9920   28.3460   32.8760 C   0  0  0  0  0  0  0  0  0  0  0  0
   35.5150   28.8850   31.7110 C   0  0  0  0  0  0  0  0  0  0  0  0
   36.2440   28.7850   30.6050 N   0  0  0  0  0  0  0  0  0  0  0  0
   37.4510   28.1520   30.6360 C   0  0  0  0  0  0  0  0  0  0  0  0
   37.8870   27.6360   31.7940 N   0  0  0  0  0  0  0  0  0  0  0  0
   38.4490   27.8910   29.5750 C   0  0  0  0  0  0  0  0  0  0  0  0
   39.1700   26.7630   29.4740 N   0  0  0  0  0  0  0  0  0  0  0  0
   40.0520   26.5880   28.4940 C   0  0  0  0  0  0  0  0  0  0  0  0
   40.3200   27.4770   27.5260 N   0  0  0  0  0  0  0  0  0  0  0  0
   39.6290   28.6330   27.5670 C   0  0  0  0  0  0  0  0  0  0  0  0
   39.8960   29.5470   26.5780 C   0  0  0  0  0  0  0  0  0  0  0  0
   39.2230   30.7430   26.5650 C   0  0  0  0  0  0  0  0  0  0  0  0
   38.2810   30.9830   27.5720 C   0  0  0  0  0  0  0  0  0  0  0  0
   38.0760   30.0100   28.5270 C   0  0  0  0  0  0  0  0  0  0  0  0
   38.7180   28.8110   28.5840 C   0  0  0  0  0  0  0  0  0  0  0  0
   38.5700   25.6790   35.5170 C   0  0  0  0  0  0  0  0  0  0  0  0
   38.3330   26.8520   36.2590 C   0  0  0  0  0  0  0  0  0  0  0  0
   37.7770   27.7720   35.3660 C   0  0  0  0  0  0  0  0  0  0  0  0
   37.7070   27.1380   34.1790 C   0  0  0  0  0  0  0  0  0  0  0  0
   38.1800   25.9090   34.2930 O   0  0  0  0  0  0  0  0  0  0  0  0
   38.6330   23.9270   37.3220 C   0  0  0  0  0  0  0  0  0  0  0  0
   39.1520   24.4990   36.1360 C   0  0  0  0  0  0  0  0  0  0  0  0
   40.2540   23.9090   35.5470 C   0  0  0  0  0  0  0  0  0  0  0  0
   40.8120   22.7930   36.1270 N   0  0  0  0  0  0  0  0  0  0  0  0
   40.2780   22.2750   37.2740 C   0  0  0  0  0  0  0  0  0  0  0  0
   39.1970   22.8400   37.8640 N   0  0  0  0  0  0  0  0  0  0  0  0
   35.3852   28.4313   33.7895 H   0  0  0  0  0  0  0  0  0  0  0  0
   34.5403   29.3944   31.6913 H   0  0  0  0  0  0  0  0  0  0  0  0
   40.6062   25.6380   28.4759 H   0  0  0  0  0  0  0  0  0  0  0  0
   40.6431   29.3226   25.8025 H   0  0  0  0  0  0  0  0  0  0  0  0
   39.4186   31.4928   25.7842 H   0  0  0  0  0  0  0  0  0  0  0  0
   37.7168   31.9269   27.6008 H   0  0  0  0  0  0  0  0  0  0  0  0
   37.3311   30.2202   29.3086 H   0  0  0  0  0  0  0  0  0  0  0  0
   38.5432   27.0120   37.3268 H   0  0  0  0  0  0  0  0  0  0  0  0
   37.4613   28.8023   35.5868 H   0  0  0  0  0  0  0  0  0  0  0  0
   37.7551   24.3811   37.8048 H   0  0  0  0  0  0  0  0  0  0  0  0
   40.6809   24.3274   34.6236 H   0  0  0  0  0  0  0  0  0  0  0  0
   40.7347   21.3825   37.7265 H   0  0  0  0  0  0  0  0  0  0  0  0
  1 20  1  0
  2  1  2  0
  3  2  1  0
  4  5  1  0
  4  3  2  0
  5  6  2  0
  6  1  1  0
  7  5  1  0
  8  7  2  0
  9  8  1  0
 10 11  1  0
 10  9  2  0
 11 16  2  0
 12 11  1  0
 13 12  2  0
 13 14  1  0
 14 15  2  0
 15 16  1  0
 16  7  1  0
 17 23  1  0
 17 18  2  0
 19 18  1  0
 20 21  1  0
 20 19  2  0
 21 17  1  0
 22 27  2  0
 23 22  1  0
 24 25  1  0
 24 23  2  0
 25 26  2  0
 26 27  1  0
  2 28  1  0
  3 29  1  0
  9 30  1  0
 12 31  1  0
 13 32  1  0
 14 33  1  0
 15 34  1  0
 18 35  1  0
 19 36  1  0
 22 37  1  0
 24 38  1  0
 26 39  1  0
M  ISO  8  28  14  29  14  30  14  31  14  32  14  33  14  34  14  35  14
M  ISO  4  36  14  37  14  38  14  39  14
M  END
>  <minimizedAffinity>  (1) 
-5.58608723

>  <minimizedRMSD>  (1) 
1.1451267

$$$$
