
     RDKit          3D

 37 40  0  0  0  0  0  0  0  0999 V2000
   38.5740   25.6670   35.4780 C   0  0  0  0  0  0  0  0  0  0  0  0
   38.3700   26.7910   36.2960 C   0  0  0  0  0  0  0  0  0  0  0  0
   37.7890   27.7600   35.4710 C   0  0  0  0  0  0  0  0  0  0  0  0
   37.6800   27.1810   34.2390 C   0  0  0  0  0  0  0  0  0  0  0  0
   38.1480   25.9460   34.2630 O   0  0  0  0  0  0  0  0  0  0  0  0
   37.1270   27.8280   33.0650 C   0  0  0  0  0  0  0  0  0  0  0  0
   35.9360   28.4980   33.0840 C   0  0  0  0  0  0  0  0  0  0  0  0
   35.3970   29.1170   31.9840 C   0  0  0  0  0  0  0  0  0  0  0  0
   36.0790   29.0560   30.8370 N   0  0  0  0  0  0  0  0  0  0  0  0
   37.2670   28.3940   30.7880 C   0  0  0  0  0  0  0  0  0  0  0  0
   37.7840   27.7930   31.8760 N   0  0  0  0  0  0  0  0  0  0  0  0
   38.0000   28.3280   29.5570 N   0  0  0  0  0  0  0  0  0  0  0  0
   37.7740   29.1570   28.3640 C   0  0  0  0  0  0  0  0  0  0  0  0
   39.1760   29.3360   27.8550 C   0  0  0  0  0  0  0  0  0  0  0  0
   39.7120   27.9110   28.0150 C   0  0  0  0  0  0  0  0  0  0  0  0
   39.1050   27.4070   29.2930 C   0  0  0  0  0  0  0  0  0  0  0  0
   38.7090   23.8140   37.1690 C   0  0  0  0  0  0  0  0  0  0  0  0
   39.1700   24.4510   36.0100 C   0  0  0  0  0  0  0  0  0  0  0  0
   40.2550   23.8870   35.3350 C   0  0  0  0  0  0  0  0  0  0  0  0
   40.8360   22.7370   35.8180 N   0  0  0  0  0  0  0  0  0  0  0  0
   40.3490   22.1630   36.9450 C   0  0  0  0  0  0  0  0  0  0  0  0
   39.3080   22.6920   37.6030 N   0  0  0  0  0  0  0  0  0  0  0  0
   38.6161   26.8888   37.3637 H   0  0  0  0  0  0  0  0  0  0  0  0
   37.4833   28.7776   35.7557 H   0  0  0  0  0  0  0  0  0  0  0  0
   35.3795   28.5436   34.0318 H   0  0  0  0  0  0  0  0  0  0  0  0
   34.4346   29.6462   32.0449 H   0  0  0  0  0  0  0  0  0  0  0  0
   37.1422   28.6384   27.6279 H   0  0  0  0  0  0  0  0  0  0  0  0
   37.2460   30.1005   28.5665 H   0  0  0  0  0  0  0  0  0  0  0  0
   39.7419   30.0543   28.4664 H   0  0  0  0  0  0  0  0  0  0  0  0
   39.2461   29.7414   26.8348 H   0  0  0  0  0  0  0  0  0  0  0  0
   39.4016   27.2839   27.1662 H   0  0  0  0  0  0  0  0  0  0  0  0
   40.8114   27.8843   28.0417 H   0  0  0  0  0  0  0  0  0  0  0  0
   38.7340   26.3789   29.1691 H   0  0  0  0  0  0  0  0  0  0  0  0
   39.8311   27.3747   30.1186 H   0  0  0  0  0  0  0  0  0  0  0  0
   37.8564   24.2322   37.7242 H   0  0  0  0  0  0  0  0  0  0  0  0
   40.6434   24.3602   34.4211 H   0  0  0  0  0  0  0  0  0  0  0  0
   40.8176   21.2443   37.3275 H   0  0  0  0  0  0  0  0  0  0  0  0
  1 18  1  0
  1  2  2  0
  3  2  1  0
  4  5  1  0
  4  3  2  0
  5  1  1  0
  6  7  2  0
  6  4  1  0
  8  7  1  0
  9  8  2  0
 10  9  1  0
 10 11  2  0
 11  6  1  0
 12 10  1  0
 13 12  1  0
 14 15  1  0
 14 13  1  0
 15 16  1  0
 16 12  1  0
 17 22  2  0
 18 17  1  0
 19 20  1  0
 19 18  2  0
 20 21  2  0
 21 22  1  0
  2 23  1  0
  3 24  1  0
  7 25  1  0
  8 26  1  0
 13 27  1  0
 13 28  1  0
 14 29  1  0
 14 30  1  0
 15 31  1  0
 15 32  1  0
 16 33  1  0
 16 34  1  0
 17 35  1  0
 19 36  1  0
 21 37  1  0
M  ISO  8  23  14  24  14  25  14  26  14  27  13  28  13  29  13  30  13
M  ISO  7  31  13  32  13  33  13  34  13  35  14  36  14  37  14
M  END
>  <minimizedAffinity>  (1) 
-5.31418848

>  <minimizedRMSD>  (1) 
0.846377194

$$$$
