
     RDKit          3D

 32 35  0  0  0  0  0  0  0  0999 V2000
   38.5770   25.6730   35.5220 C   0  0  0  0  0  0  0  0  0  0  0  0
   38.3020   26.8380   36.2600 C   0  0  0  0  0  0  0  0  0  0  0  0
   37.7690   27.7510   35.3450 C   0  0  0  0  0  0  0  0  0  0  0  0
   37.7540   27.1020   34.1450 C   0  0  0  0  0  0  0  0  0  0  0  0
   38.2280   25.8950   34.2700 O   0  0  0  0  0  0  0  0  0  0  0  0
   37.2720   27.6830   32.8920 C   0  0  0  0  0  0  0  0  0  0  0  0
   36.0840   28.3490   32.8140 C   0  0  0  0  0  0  0  0  0  0  0  0
   35.6260   28.9000   31.6300 C   0  0  0  0  0  0  0  0  0  0  0  0
   36.3790   28.7730   30.5280 N   0  0  0  0  0  0  0  0  0  0  0  0
   37.5560   28.1120   30.6070 C   0  0  0  0  0  0  0  0  0  0  0  0
   38.0210   27.5660   31.7570 N   0  0  0  0  0  0  0  0  0  0  0  0
   38.4380   27.9160   29.4920 N   0  0  0  0  0  0  0  0  0  0  0  0
   39.4470   27.0470   29.2430 C   0  0  0  0  0  0  0  0  0  0  0  0
   39.9680   27.3000   27.9990 C   0  0  0  0  0  0  0  0  0  0  0  0
   39.2790   28.3440   27.4550 N   0  0  0  0  0  0  0  0  0  0  0  0
   38.3530   28.7010   28.3830 C   0  0  0  0  0  0  0  0  0  0  0  0
   38.6400   23.9230   37.3260 C   0  0  0  0  0  0  0  0  0  0  0  0
   39.1490   24.4910   36.1510 C   0  0  0  0  0  0  0  0  0  0  0  0
   40.2480   23.8820   35.5850 C   0  0  0  0  0  0  0  0  0  0  0  0
   40.7970   22.7690   36.1650 N   0  0  0  0  0  0  0  0  0  0  0  0
   40.2630   22.2620   37.3010 C   0  0  0  0  0  0  0  0  0  0  0  0
   39.1980   22.8430   37.8630 N   0  0  0  0  0  0  0  0  0  0  0  0
   38.4713   26.9980   37.3351 H   0  0  0  0  0  0  0  0  0  0  0  0
   37.4322   28.7779   35.5498 H   0  0  0  0  0  0  0  0  0  0  0  0
   35.4705   28.4513   33.7212 H   0  0  0  0  0  0  0  0  0  0  0  0
   34.6636   29.4314   31.5938 H   0  0  0  0  0  0  0  0  0  0  0  0
   39.7943   26.2616   29.9304 H   0  0  0  0  0  0  0  0  0  0  0  0
   40.7970   26.7556   27.5233 H   0  0  0  0  0  0  0  0  0  0  0  0
   37.6283   29.5186   28.2548 H   0  0  0  0  0  0  0  0  0  0  0  0
   37.7644   24.3782   37.8120 H   0  0  0  0  0  0  0  0  0  0  0  0
   40.6865   24.2916   34.6631 H   0  0  0  0  0  0  0  0  0  0  0  0
   40.7072   21.3683   37.7636 H   0  0  0  0  0  0  0  0  0  0  0  0
  1 18  1  0
  1  2  2  0
  3  2  1  0
  4  5  1  0
  4  3  2  0
  5  1  1  0
  6  4  1  0
  7  6  2  0
  8  7  1  0
  9 10  1  0
  9  8  2  0
 10 11  2  0
 11  6  1  0
 12 10  1  0
 13 12  1  0
 14 13  2  0
 15 14  1  0
 15 16  2  0
 16 12  1  0
 17 22  2  0
 18 17  1  0
 19 18  2  0
 19 20  1  0
 20 21  2  0
 21 22  1  0
  2 23  1  0
  3 24  1  0
  7 25  1  0
  8 26  1  0
 13 27  1  0
 14 28  1  0
 16 29  1  0
 17 30  1  0
 19 31  1  0
 21 32  1  0
M  ISO  8  23  14  24  14  25  14  26  14  27  14  28  14  29  14  30  14
M  ISO  2  31  14  32  14
M  END
>  <minimizedAffinity>  (1) 
-5.34136105

>  <minimizedRMSD>  (1) 
0.769804716

$$$$
