
     RDKit          3D

 33 36  0  0  0  0  0  0  0  0999 V2000
   38.5690   25.6740   35.5480 C   0  0  0  0  0  0  0  0  0  0  0  0
   38.3380   26.8270   36.3190 C   0  0  0  0  0  0  0  0  0  0  0  0
   37.7870   27.7650   35.4380 C   0  0  0  0  0  0  0  0  0  0  0  0
   37.7210   27.1390   34.2280 C   0  0  0  0  0  0  0  0  0  0  0  0
   38.1860   25.9200   34.3310 O   0  0  0  0  0  0  0  0  0  0  0  0
   38.6480   23.8870   37.3250 C   0  0  0  0  0  0  0  0  0  0  0  0
   39.1490   24.4770   36.1560 C   0  0  0  0  0  0  0  0  0  0  0  0
   40.2480   23.8870   35.5540 C   0  0  0  0  0  0  0  0  0  0  0  0
   40.8090   22.7680   36.1010 N   0  0  0  0  0  0  0  0  0  0  0  0
   40.2940   22.2290   37.2330 C   0  0  0  0  0  0  0  0  0  0  0  0
   39.2310   22.7890   37.8250 N   0  0  0  0  0  0  0  0  0  0  0  0
   37.2090   27.7400   33.0040 C   0  0  0  0  0  0  0  0  0  0  0  0
   35.9850   28.3390   32.9460 C   0  0  0  0  0  0  0  0  0  0  0  0
   35.4910   28.9110   31.7920 C   0  0  0  0  0  0  0  0  0  0  0  0
   36.2460   28.8720   30.6880 N   0  0  0  0  0  0  0  0  0  0  0  0
   37.4680   28.2770   30.7330 C   0  0  0  0  0  0  0  0  0  0  0  0
   37.9320   27.7260   31.8660 N   0  0  0  0  0  0  0  0  0  0  0  0
   38.3000   28.2310   29.5330 C   0  0  0  0  0  0  0  0  0  0  0  0
   38.2640   29.3000   28.6370 C   0  0  0  0  0  0  0  0  0  0  0  0
   39.0370   29.2660   27.5110 C   0  0  0  0  0  0  0  0  0  0  0  0
   39.8160   28.2040   27.2910 N   0  0  0  0  0  0  0  0  0  0  0  0
   39.8340   27.1710   28.1790 C   0  0  0  0  0  0  0  0  0  0  0  0
   39.0910   27.1840   29.2790 N   0  0  0  0  0  0  0  0  0  0  0  0
   38.5466   26.9634   37.3904 H   0  0  0  0  0  0  0  0  0  0  0  0
   37.4728   28.7927   35.6727 H   0  0  0  0  0  0  0  0  0  0  0  0
   37.7759   24.3257   37.8320 H   0  0  0  0  0  0  0  0  0  0  0  0
   40.6694   24.3198   34.6347 H   0  0  0  0  0  0  0  0  0  0  0  0
   40.7511   21.3277   37.6674 H   0  0  0  0  0  0  0  0  0  0  0  0
   35.3672   28.3671   33.8557 H   0  0  0  0  0  0  0  0  0  0  0  0
   34.4998   29.3879   31.7797 H   0  0  0  0  0  0  0  0  0  0  0  0
   37.6161   30.1663   28.8363 H   0  0  0  0  0  0  0  0  0  0  0  0
   39.0179   30.1016   26.7958 H   0  0  0  0  0  0  0  0  0  0  0  0
   40.4808   26.3039   27.9794 H   0  0  0  0  0  0  0  0  0  0  0  0
  1  7  1  0
  1  2  2  0
  3  2  1  0
  4  5  1  0
  4  3  2  0
  5  1  1  0
  6 11  2  0
  7  6  1  0
  8  9  1  0
  8  7  2  0
  9 10  2  0
 10 11  1  0
 12  4  1  0
 13 12  2  0
 14 13  1  0
 15 16  1  0
 15 14  2  0
 16 17  2  0
 17 12  1  0
 18 16  1  0
 19 18  2  0
 20 19  1  0
 21 20  2  0
 21 22  1  0
 22 23  2  0
 23 18  1  0
  2 24  1  0
  3 25  1  0
  6 26  1  0
  8 27  1  0
 10 28  1  0
 13 29  1  0
 14 30  1  0
 19 31  1  0
 20 32  1  0
 22 33  1  0
M  ISO  8  24  14  25  14  26  14  27  14  28  14  29  14  30  14  31  14
M  ISO  2  32  14  33  14
M  END
>  <minimizedAffinity>  (1) 
-5.1351366

>  <minimizedRMSD>  (1) 
1.00828636

$$$$
