
     RDKit          3D

 28 30  0  0  0  0  0  0  0  0999 V2000
   38.5880   25.6780   35.4830 C   0  0  0  0  0  0  0  0  0  0  0  0
   38.3600   26.8110   36.2860 C   0  0  0  0  0  0  0  0  0  0  0  0
   37.7910   27.7660   35.4440 C   0  0  0  0  0  0  0  0  0  0  0  0
   37.7080   27.1840   34.2250 C   0  0  0  0  0  0  0  0  0  0  0  0
   38.1860   25.9520   34.2800 O   0  0  0  0  0  0  0  0  0  0  0  0
   38.6960   23.8390   37.1930 C   0  0  0  0  0  0  0  0  0  0  0  0
   39.1790   24.4820   36.0490 C   0  0  0  0  0  0  0  0  0  0  0  0
   40.2950   23.9240   35.4440 C   0  0  0  0  0  0  0  0  0  0  0  0
   40.8850   22.8010   35.9490 N   0  0  0  0  0  0  0  0  0  0  0  0
   40.3550   22.2210   37.0800 C   0  0  0  0  0  0  0  0  0  0  0  0
   39.2800   22.7380   37.6840 N   0  0  0  0  0  0  0  0  0  0  0  0
   37.1770   27.7950   33.0120 C   0  0  0  0  0  0  0  0  0  0  0  0
   35.9460   28.3840   32.9890 C   0  0  0  0  0  0  0  0  0  0  0  0
   35.4230   28.9680   31.8510 C   0  0  0  0  0  0  0  0  0  0  0  0
   36.1710   28.9450   30.7340 N   0  0  0  0  0  0  0  0  0  0  0  0
   37.3810   28.3700   30.7430 C   0  0  0  0  0  0  0  0  0  0  0  0
   37.8960   27.8000   31.8480 N   0  0  0  0  0  0  0  0  0  0  0  0
   38.1940   28.3570   29.4920 C   0  0  0  0  0  0  0  0  0  0  0  0
   37.4200   28.6180   28.4000 F   0  0  0  0  0  0  0  0  0  0  0  0
   39.1600   29.3700   29.5330 F   0  0  0  0  0  0  0  0  0  0  0  0
   38.7920   27.1250   29.2770 F   0  0  0  0  0  0  0  0  0  0  0  0
   38.5844   26.9207   37.3573 H   0  0  0  0  0  0  0  0  0  0  0  0
   37.4744   28.7840   35.7151 H   0  0  0  0  0  0  0  0  0  0  0  0
   37.8121   24.2486   37.7038 H   0  0  0  0  0  0  0  0  0  0  0  0
   40.7123   24.3943   34.5414 H   0  0  0  0  0  0  0  0  0  0  0  0
   40.8244   21.3163   37.4938 H   0  0  0  0  0  0  0  0  0  0  0  0
   35.3472   28.3942   33.9117 H   0  0  0  0  0  0  0  0  0  0  0  0
   34.4276   29.4362   31.8587 H   0  0  0  0  0  0  0  0  0  0  0  0
  1  7  1  0
  1  2  2  0
  3  2  1  0
  4  5  1  0
  4  3  2  0
  5  1  1  0
  6 11  2  0
  7  6  1  0
  8  9  1  0
  8  7  2  0
  9 10  2  0
 10 11  1  0
 12  4  1  0
 13 12  2  0
 14 13  1  0
 15 16  1  0
 15 14  2  0
 16 17  2  0
 17 12  1  0
 18 20  1  0
 18 16  1  0
 19 18  1  0
 21 18  1  0
  2 22  1  0
  3 23  1  0
  6 24  1  0
  8 25  1  0
 10 26  1  0
 13 27  1  0
 14 28  1  0
M  ISO  7  22  14  23  14  24  14  25  14  26  14  27  14  28  14
M  END
>  <minimizedAffinity>  (1) 
-4.96791744

>  <minimizedRMSD>  (1) 
0.725529075

$$$$
