
     RDKit          3D

 32 35  0  0  0  0  0  0  0  0999 V2000
   38.5620   25.6800   35.5740 C   0  0  0  0  0  0  0  0  0  0  0  0
   38.3240   26.8320   36.3140 C   0  0  0  0  0  0  0  0  0  0  0  0
   37.7810   27.7630   35.4340 C   0  0  0  0  0  0  0  0  0  0  0  0
   37.7220   27.1310   34.2230 C   0  0  0  0  0  0  0  0  0  0  0  0
   38.1870   25.9210   34.3530 O   0  0  0  0  0  0  0  0  0  0  0  0
   38.6250   23.9130   37.3740 C   0  0  0  0  0  0  0  0  0  0  0  0
   39.1380   24.4840   36.1890 C   0  0  0  0  0  0  0  0  0  0  0  0
   40.2400   23.8860   35.5730 C   0  0  0  0  0  0  0  0  0  0  0  0
   40.7930   22.7660   36.1330 N   0  0  0  0  0  0  0  0  0  0  0  0
   40.2640   22.2420   37.2880 C   0  0  0  0  0  0  0  0  0  0  0  0
   39.2100   22.8130   37.8770 N   0  0  0  0  0  0  0  0  0  0  0  0
   37.2230   27.7150   32.9980 C   0  0  0  0  0  0  0  0  0  0  0  0
   36.0190   28.3500   32.9190 C   0  0  0  0  0  0  0  0  0  0  0  0
   35.5140   28.9200   31.7770 C   0  0  0  0  0  0  0  0  0  0  0  0
   36.2700   28.8390   30.6650 N   0  0  0  0  0  0  0  0  0  0  0  0
   37.4580   28.2160   30.7320 C   0  0  0  0  0  0  0  0  0  0  0  0
   37.9640   27.6520   31.8490 N   0  0  0  0  0  0  0  0  0  0  0  0
   38.3780   28.0680   29.5580 C   0  0  0  0  0  0  0  0  0  0  0  0
   39.3200   27.2060   29.2410 C   0  0  0  0  0  0  0  0  0  0  0  0
   40.0030   27.3390   28.0650 C   0  0  0  0  0  0  0  0  0  0  0  0
   39.6500   28.4040   27.2610 C   0  0  0  0  0  0  0  0  0  0  0  0
   38.2750   29.2190   28.2780 S   0  0  0  0  0  0  0  0  0  0  0  0
   38.5254   26.9790   37.3854 H   0  0  0  0  0  0  0  0  0  0  0  0
   37.4655   28.7913   35.6642 H   0  0  0  0  0  0  0  0  0  0  0  0
   37.7575   24.3629   37.8790 H   0  0  0  0  0  0  0  0  0  0  0  0
   40.6586   24.3103   34.6485 H   0  0  0  0  0  0  0  0  0  0  0  0
   40.7138   21.3420   37.7325 H   0  0  0  0  0  0  0  0  0  0  0  0
   35.4105   28.4096   33.8334 H   0  0  0  0  0  0  0  0  0  0  0  0
   34.5348   29.4210   31.7702 H   0  0  0  0  0  0  0  0  0  0  0  0
   39.5581   26.3770   29.9237 H   0  0  0  0  0  0  0  0  0  0  0  0
   40.7944   26.6328   27.7736 H   0  0  0  0  0  0  0  0  0  0  0  0
   40.0600   28.7018   26.2847 H   0  0  0  0  0  0  0  0  0  0  0  0
  1  7  1  0
  1  2  2  0
  3  2  1  0
  4  5  1  0
  4  3  2  0
  5  1  1  0
  6 11  2  0
  7  6  1  0
  8  9  1  0
  8  7  2  0
  9 10  2  0
 10 11  1  0
 12  4  1  0
 13 12  2  0
 14 13  1  0
 15 16  1  0
 15 14  2  0
 16 17  2  0
 17 12  1  0
 18 16  1  0
 19 18  2  0
 20 19  1  0
 21 20  2  0
 21 22  1  0
 22 18  1  0
  2 23  1  0
  3 24  1  0
  6 25  1  0
  8 26  1  0
 10 27  1  0
 13 28  1  0
 14 29  1  0
 19 30  1  0
 20 31  1  0
 21 32  1  0
M  ISO  8  23  14  24  14  25  14  26  14  27  14  28  14  29  14  30  14
M  ISO  2  31  14  32  14
M  END
>  <minimizedAffinity>  (1) 
-5.0703764

>  <minimizedRMSD>  (1) 
0.904206455

$$$$
