
     RDKit          3D

 28 30  0  0  0  0  0  0  0  0999 V2000
   38.5540   25.6900   35.4800 C   0  0  0  0  0  0  0  0  0  0  0  0
   38.3700   26.8090   36.2990 C   0  0  0  0  0  0  0  0  0  0  0  0
   37.7870   27.7850   35.4910 C   0  0  0  0  0  0  0  0  0  0  0  0
   37.6540   27.2160   34.2580 C   0  0  0  0  0  0  0  0  0  0  0  0
   38.1110   25.9870   34.2760 O   0  0  0  0  0  0  0  0  0  0  0  0
   38.6980   23.8310   37.1790 C   0  0  0  0  0  0  0  0  0  0  0  0
   39.1480   24.4600   35.9940 C   0  0  0  0  0  0  0  0  0  0  0  0
   40.1930   23.8820   35.2980 C   0  0  0  0  0  0  0  0  0  0  0  0
   40.7710   22.7230   35.7610 N   0  0  0  0  0  0  0  0  0  0  0  0
   40.3070   22.1550   36.9000 C   0  0  0  0  0  0  0  0  0  0  0  0
   39.2830   22.7010   37.6030 N   0  0  0  0  0  0  0  0  0  0  0  0
   37.0850   27.8680   33.0760 C   0  0  0  0  0  0  0  0  0  0  0  0
   35.8620   28.5070   33.1420 C   0  0  0  0  0  0  0  0  0  0  0  0
   35.3280   29.1240   32.0200 C   0  0  0  0  0  0  0  0  0  0  0  0
   36.0130   29.0940   30.8710 N   0  0  0  0  0  0  0  0  0  0  0  0
   37.1990   28.4690   30.8280 C   0  0  0  0  0  0  0  0  0  0  0  0
   37.7440   27.8600   31.9000 N   0  0  0  0  0  0  0  0  0  0  0  0
   37.9920   28.4010   29.6070 C   0  0  0  0  0  0  0  0  0  0  0  0
   39.2420   28.4040   29.5570 O   0  0  0  0  0  0  0  0  0  0  0  0
   37.5150   28.3230   28.3200 O   0  0  0  0  0  0  0  0  0  0  0  0
   38.6318   26.9005   37.3635 H   0  0  0  0  0  0  0  0  0  0  0  0
   37.4947   28.8034   35.7868 H   0  0  0  0  0  0  0  0  0  0  0  0
   37.8680   24.2690   37.7527 H   0  0  0  0  0  0  0  0  0  0  0  0
   40.5626   24.3492   34.3733 H   0  0  0  0  0  0  0  0  0  0  0  0
   40.7724   21.2273   37.2643 H   0  0  0  0  0  0  0  0  0  0  0  0
   35.3072   28.5268   34.0916 H   0  0  0  0  0  0  0  0  0  0  0  0
   34.3536   29.6315   32.0743 H   0  0  0  0  0  0  0  0  0  0  0  0
   38.1473   28.2813   27.5594 H   0  0  0  0  0  0  0  0  0  0  0  0
  1  7  1  0
  1  2  2  0
  3  2  1  0
  4  5  1  0
  4  3  2  0
  5  1  1  0
  6 11  2  0
  7  6  1  0
  8  9  1  0
  8  7  2  0
  9 10  2  0
 10 11  1  0
 12 13  2  0
 12  4  1  0
 14 13  1  0
 15 14  2  0
 16 15  1  0
 16 17  2  0
 17 12  1  0
 18 16  1  0
 19 18  2  0
 20 18  1  0
  2 21  1  0
  3 22  1  0
  6 23  1  0
  8 24  1  0
 10 25  1  0
 13 26  1  0
 14 27  1  0
 20 28  1  0
M  ISO  8  21  14  22  14  23  14  24  14  25  14  26  14  27  14  28   3
M  END
>  <minimizedAffinity>  (1) 
-5.00093985

>  <minimizedRMSD>  (1) 
0.726284444

$$$$
