
     RDKit          3D

 45 49  0  0  0  0  0  0  0  0999 V2000
   36.6180   28.2200   33.2730 C   0  0  0  0  0  0  0  0  0  0  0  0
   35.4960   28.9780   33.5300 C   0  0  0  0  0  0  0  0  0  0  0  0
   34.8450   29.7000   32.5530 C   0  0  0  0  0  0  0  0  0  0  0  0
   35.3190   29.6660   31.3060 N   0  0  0  0  0  0  0  0  0  0  0  0
   36.4140   28.9270   31.0540 C   0  0  0  0  0  0  0  0  0  0  0  0
   37.0620   28.2160   31.9950 N   0  0  0  0  0  0  0  0  0  0  0  0
   38.2220   25.8320   35.3380 C   0  0  0  0  0  0  0  0  0  0  0  0
   38.3140   26.9420   36.1850 C   0  0  0  0  0  0  0  0  0  0  0  0
   37.7090   27.9980   35.4960 C   0  0  0  0  0  0  0  0  0  0  0  0
   37.2970   27.4660   34.2990 C   0  0  0  0  0  0  0  0  0  0  0  0
   37.6090   26.1960   34.2300 O   0  0  0  0  0  0  0  0  0  0  0  0
   38.6360   23.9970   37.0020 C   0  0  0  0  0  0  0  0  0  0  0  0
   38.7520   24.5440   35.7320 C   0  0  0  0  0  0  0  0  0  0  0  0
   39.4360   23.7780   34.7760 C   0  0  0  0  0  0  0  0  0  0  0  0
   39.9460   22.5500   35.1340 N   0  0  0  0  0  0  0  0  0  0  0  0
   39.7910   22.0860   36.3940 C   0  0  0  0  0  0  0  0  0  0  0  0
   39.1380   22.8120   37.3170 N   0  0  0  0  0  0  0  0  0  0  0  0
   36.9850   28.8540   29.6730 C   0  0  0  0  0  0  0  0  0  0  0  0
   38.4650   29.1510   29.7850 C   0  0  0  0  0  0  0  0  0  0  0  0
   39.2000   27.9820   29.2670 C   0  0  0  0  0  0  0  0  0  0  0  0
   39.2470   27.6390   27.9570 N   0  0  0  0  0  0  0  0  0  0  0  0
   39.9210   26.5970   27.4680 C   0  0  0  0  0  0  0  0  0  0  0  0
   40.6290   25.7900   28.2960 N   0  0  0  0  0  0  0  0  0  0  0  0
   40.6390   26.0590   29.6310 C   0  0  0  0  0  0  0  0  0  0  0  0
   41.3750   25.1910   30.4080 C   0  0  0  0  0  0  0  0  0  0  0  0
   41.3850   25.4530   31.7740 C   0  0  0  0  0  0  0  0  0  0  0  0
   40.6900   26.5260   32.2890 C   0  0  0  0  0  0  0  0  0  0  0  0
   39.9800   27.3410   31.4300 C   0  0  0  0  0  0  0  0  0  0  0  0
   39.9250   27.1470   30.0860 C   0  0  0  0  0  0  0  0  0  0  0  0
   35.1039   29.0080   34.5573 H   0  0  0  0  0  0  0  0  0  0  0  0
   33.9513   30.2933   32.7966 H   0  0  0  0  0  0  0  0  0  0  0  0
   38.7684   26.9768   37.1862 H   0  0  0  0  0  0  0  0  0  0  0  0
   37.5886   29.0358   35.8403 H   0  0  0  0  0  0  0  0  0  0  0  0
   38.1065   24.5697   37.7777 H   0  0  0  0  0  0  0  0  0  0  0  0
   39.5636   24.1547   33.7504 H   0  0  0  0  0  0  0  0  0  0  0  0
   40.2038   21.1036   36.6667 H   0  0  0  0  0  0  0  0  0  0  0  0
   36.4992   29.5979   29.0244 H   0  0  0  0  0  0  0  0  0  0  0  0
   36.8182   27.8596   29.2333 H   0  0  0  0  0  0  0  0  0  0  0  0
   38.7137   30.0427   29.1909 H   0  0  0  0  0  0  0  0  0  0  0  0
   38.7398   29.3444   30.8324 H   0  0  0  0  0  0  0  0  0  0  0  0
   39.9023   26.3914   26.3875 H   0  0  0  0  0  0  0  0  0  0  0  0
   41.9222   24.3413   29.9737 H   0  0  0  0  0  0  0  0  0  0  0  0
   41.9533   24.7972   32.4500 H   0  0  0  0  0  0  0  0  0  0  0  0
   40.7008   26.7303   33.3698 H   0  0  0  0  0  0  0  0  0  0  0  0
   39.4295   28.1927   31.8561 H   0  0  0  0  0  0  0  0  0  0  0  0
  1  2  2  0
  1 10  1  0
  3  2  1  0
  4  3  2  0
  5  4  1  0
  5  6  2  0
  6  1  1  0
  7 13  1  0
  7  8  2  0
  9  8  1  0
 10  9  2  0
 11 10  1  0
 11  7  1  0
 12 17  2  0
 13 12  1  0
 14 15  1  0
 14 13  2  0
 15 16  2  0
 16 17  1  0
 18 19  1  0
 18  5  1  0
 20 19  1  0
 20 29  1  0
 21 20  2  0
 22 21  1  0
 22 23  2  0
 23 24  1  0
 24 29  2  0
 24 25  1  0
 25 26  2  0
 26 27  1  0
 28 27  2  0
 29 28  1  0
  2 30  1  0
  3 31  1  0
  8 32  1  0
  9 33  1  0
 12 34  1  0
 14 35  1  0
 16 36  1  0
 18 37  1  0
 18 38  1  0
 19 39  1  0
 19 40  1  0
 22 41  1  0
 25 42  1  0
 26 43  1  0
 27 44  1  0
 28 45  1  0
M  ISO  8  30  14  31  14  32  14  33  14  34  14  35  14  36  14  37   8
M  ISO  8  38   8  39   8  40   8  41  14  42  14  43  14  44  14  45  14
M  END
>  <minimizedAffinity>  (1) 
-5.38463926

>  <minimizedRMSD>  (1) 
2.6492517

$$$$
