
     RDKit          3D

 44 47  0  0  0  0  0  0  0  0999 V2000
   36.7230   28.0620   33.3860 C   0  0  0  0  0  0  0  0  0  0  0  0
   35.6240   28.8460   33.6580 C   0  0  0  0  0  0  0  0  0  0  0  0
   34.9490   29.5370   32.6790 C   0  0  0  0  0  0  0  0  0  0  0  0
   35.3880   29.4370   31.4060 N   0  0  0  0  0  0  0  0  0  0  0  0
   36.4560   28.6740   31.1530 C   0  0  0  0  0  0  0  0  0  0  0  0
   37.1390   27.9840   32.0950 N   0  0  0  0  0  0  0  0  0  0  0  0
   38.4050   25.7310   35.4670 C   0  0  0  0  0  0  0  0  0  0  0  0
   38.4600   26.8500   36.3170 C   0  0  0  0  0  0  0  0  0  0  0  0
   37.8210   27.8760   35.6190 C   0  0  0  0  0  0  0  0  0  0  0  0
   37.4290   27.3370   34.4240 C   0  0  0  0  0  0  0  0  0  0  0  0
   37.7860   26.0890   34.3740 O   0  0  0  0  0  0  0  0  0  0  0  0
   38.7340   23.8480   37.1000 C   0  0  0  0  0  0  0  0  0  0  0  0
   38.9850   24.4630   35.8790 C   0  0  0  0  0  0  0  0  0  0  0  0
   39.8500   23.8140   34.9970 C   0  0  0  0  0  0  0  0  0  0  0  0
   40.4070   22.6150   35.3680 N   0  0  0  0  0  0  0  0  0  0  0  0
   40.1160   22.0660   36.5890 C   0  0  0  0  0  0  0  0  0  0  0  0
   39.2900   22.6860   37.4300 N   0  0  0  0  0  0  0  0  0  0  0  0
   36.9660   28.5400   29.7710 C   0  0  0  0  0  0  0  0  0  0  0  0
   37.2060   29.9550   29.2280 C   0  0  0  0  0  0  0  0  0  0  0  0
   38.1710   29.9030   28.1420 N   0  0  0  0  0  0  0  0  0  0  0  0
   39.1410   28.9720   28.1120 C   0  0  0  0  0  0  0  0  0  0  0  0
   40.0700   28.9100   27.0820 C   0  0  0  0  0  0  0  0  0  0  0  0
   41.1550   27.8960   27.0120 C   0  0  0  0  0  0  0  0  0  0  0  0
   39.9740   29.8420   26.0730 C   0  0  0  0  0  0  0  0  0  0  0  0
   40.7860   29.8450   25.1030 O   0  0  0  0  0  0  0  0  0  0  0  0
   38.9990   30.7970   26.0810 N   0  0  0  0  0  0  0  0  0  0  0  0
   38.1650   30.7640   27.1130 C   0  0  0  0  0  0  0  0  0  0  0  0
   37.2580   31.6620   27.1090 O   0  0  0  0  0  0  0  0  0  0  0  0
   35.2727   28.9225   34.6976 H   0  0  0  0  0  0  0  0  0  0  0  0
   34.0737   30.1554   32.9268 H   0  0  0  0  0  0  0  0  0  0  0  0
   38.9108   26.9050   37.3189 H   0  0  0  0  0  0  0  0  0  0  0  0
   37.6641   28.9097   35.9608 H   0  0  0  0  0  0  0  0  0  0  0  0
   38.0554   24.3370   37.8144 H   0  0  0  0  0  0  0  0  0  0  0  0
   40.0826   24.2571   34.0174 H   0  0  0  0  0  0  0  0  0  0  0  0
   40.5681   21.1055   36.8771 H   0  0  0  0  0  0  0  0  0  0  0  0
   37.9088   27.9733   29.7720 H   0  0  0  0  0  0  0  0  0  0  0  0
   36.2422   28.0014   29.1417 H   0  0  0  0  0  0  0  0  0  0  0  0
   36.2578   30.3700   28.8557 H   0  0  0  0  0  0  0  0  0  0  0  0
   37.5964   30.5942   30.0336 H   0  0  0  0  0  0  0  0  0  0  0  0
   39.2002   28.2372   28.9284 H   0  0  0  0  0  0  0  0  0  0  0  0
   41.4583   27.6126   28.0307 H   0  0  0  0  0  0  0  0  0  0  0  0
   40.7915   27.0064   26.4768 H   0  0  0  0  0  0  0  0  0  0  0  0
   42.0180   28.3188   26.4768 H   0  0  0  0  0  0  0  0  0  0  0  0
   38.9156   31.4997   25.3326 H   0  0  0  0  0  0  0  0  0  0  0  0
  1  2  2  0
  1 10  1  0
  3  2  1  0
  4  3  2  0
  5  4  1  0
  5  6  2  0
  6  1  1  0
  7 13  1  0
  7  8  2  0
  9  8  1  0
 10  9  2  0
 11 10  1  0
 11  7  1  0
 12 17  2  0
 13 12  1  0
 14 15  1  0
 14 13  2  0
 15 16  2  0
 16 17  1  0
 18  5  1  0
 19 18  1  0
 20 19  1  0
 21 20  1  0
 22 21  2  0
 23 22  1  0
 24 26  1  0
 24 22  1  0
 25 24  2  0
 26 27  1  0
 27 20  1  0
 28 27  2  0
  2 29  1  0
  3 30  1  0
  8 31  1  0
  9 32  1  0
 12 33  1  0
 14 34  1  0
 16 35  1  0
 18 36  1  0
 18 37  1  0
 19 38  1  0
 19 39  1  0
 21 40  1  0
 23 41  1  0
 23 42  1  0
 23 43  1  0
 26 44  1  0
M  ISO  8  29  14  30  14  31  14  32  14  33  14  34  14  35  14  36   8
M  ISO  8  37   8  38   8  39   8  40  14  41   8  42   8  43   8  44   9
M  END
>  <minimizedAffinity>  (1) 
-5.31916285

>  <minimizedRMSD>  (1) 
1.05125737

$$$$
