
     RDKit          3D

 44 48  0  0  0  0  0  0  0  0999 V2000
   36.7200   28.1390   33.2530 C   0  0  0  0  0  0  0  0  0  0  0  0
   35.5870   28.8910   33.5330 C   0  0  0  0  0  0  0  0  0  0  0  0
   34.9200   29.6120   32.5620 C   0  0  0  0  0  0  0  0  0  0  0  0
   35.3910   29.5810   31.3080 N   0  0  0  0  0  0  0  0  0  0  0  0
   36.4810   28.8540   31.0470 C   0  0  0  0  0  0  0  0  0  0  0  0
   37.1620   28.1360   31.9640 N   0  0  0  0  0  0  0  0  0  0  0  0
   38.3850   25.7480   35.2710 C   0  0  0  0  0  0  0  0  0  0  0  0
   38.3880   26.8220   36.1700 C   0  0  0  0  0  0  0  0  0  0  0  0
   37.7480   27.8670   35.4980 C   0  0  0  0  0  0  0  0  0  0  0  0
   37.4030   27.3920   34.2760 C   0  0  0  0  0  0  0  0  0  0  0  0
   37.7910   26.1470   34.1750 O   0  0  0  0  0  0  0  0  0  0  0  0
   38.8560   23.8870   36.8860 C   0  0  0  0  0  0  0  0  0  0  0  0
   38.9730   24.4730   35.6280 C   0  0  0  0  0  0  0  0  0  0  0  0
   39.7020   23.7770   34.6700 C   0  0  0  0  0  0  0  0  0  0  0  0
   40.2660   22.5680   34.9910 N   0  0  0  0  0  0  0  0  0  0  0  0
   40.1110   22.0490   36.2510 C   0  0  0  0  0  0  0  0  0  0  0  0
   39.4080   22.7130   37.1870 N   0  0  0  0  0  0  0  0  0  0  0  0
   37.0470   28.7850   29.6600 C   0  0  0  0  0  0  0  0  0  0  0  0
   38.5750   28.8200   29.8140 C   0  0  0  0  0  0  0  0  0  0  0  0
   39.1130   27.7380   29.0370 N   0  0  0  0  0  0  0  0  0  0  0  0
   39.3700   27.7130   27.7250 C   0  0  0  0  0  0  0  0  0  0  0  0
   39.8740   26.5260   27.3400 N   0  0  0  0  0  0  0  0  0  0  0  0
   39.9400   25.7660   28.4520 C   0  0  0  0  0  0  0  0  0  0  0  0
   40.3620   24.4760   28.6980 C   0  0  0  0  0  0  0  0  0  0  0  0
   40.3030   23.9840   29.9610 N   0  0  0  0  0  0  0  0  0  0  0  0
   39.8360   24.7440   30.9760 C   0  0  0  0  0  0  0  0  0  0  0  0
   39.4180   26.0070   30.7610 N   0  0  0  0  0  0  0  0  0  0  0  0
   39.4660   26.5270   29.5020 C   0  0  0  0  0  0  0  0  0  0  0  0
   40.8620   23.6510   27.6350 N   0  0  0  0  0  0  0  0  0  0  0  0
   35.2070   28.9134   34.5650 H   0  0  0  0  0  0  0  0  0  0  0  0
   34.0233   30.1979   32.8122 H   0  0  0  0  0  0  0  0  0  0  0  0
   38.8051   26.8393   37.1877 H   0  0  0  0  0  0  0  0  0  0  0  0
   37.5605   28.8792   35.8856 H   0  0  0  0  0  0  0  0  0  0  0  0
   38.2842   24.4156   37.6629 H   0  0  0  0  0  0  0  0  0  0  0  0
   39.8260   24.1937   33.6596 H   0  0  0  0  0  0  0  0  0  0  0  0
   40.5664   21.0790   36.4994 H   0  0  0  0  0  0  0  0  0  0  0  0
   36.7045   29.6451   29.0659 H   0  0  0  0  0  0  0  0  0  0  0  0
   36.7190   27.8729   29.1399 H   0  0  0  0  0  0  0  0  0  0  0  0
   38.9677   29.7789   29.4447 H   0  0  0  0  0  0  0  0  0  0  0  0
   38.8600   28.7163   30.8714 H   0  0  0  0  0  0  0  0  0  0  0  0
   39.1915   28.5584   27.0443 H   0  0  0  0  0  0  0  0  0  0  0  0
   39.7965   24.3257   31.9926 H   0  0  0  0  0  0  0  0  0  0  0  0
   41.1739   22.6894   27.8325 H   0  0  0  0  0  0  0  0  0  0  0  0
   40.9089   24.0206   26.6747 H   0  0  0  0  0  0  0  0  0  0  0  0
  1  2  2  0
  1 10  1  0
  3  2  1  0
  4  3  2  0
  5  4  1  0
  5  6  2  0
  6  1  1  0
  7 13  1  0
  7  8  2  0
  9  8  1  0
 10  9  2  0
 11 10  1  0
 11  7  1  0
 12 17  2  0
 13 12  1  0
 14 15  1  0
 14 13  2  0
 15 16  2  0
 16 17  1  0
 18 19  1  0
 18  5  1  0
 20 28  1  0
 20 19  1  0
 21 20  1  0
 22 21  2  0
 22 23  1  0
 23 24  2  0
 23 28  1  0
 24 25  1  0
 25 26  2  0
 27 26  1  0
 28 27  2  0
 29 24  1  0
  2 30  1  0
  3 31  1  0
  8 32  1  0
  9 33  1  0
 12 34  1  0
 14 35  1  0
 16 36  1  0
 18 37  1  0
 18 38  1  0
 19 39  1  0
 19 40  1  0
 21 41  1  0
 26 42  1  0
 29 43  1  0
 29 44  1  0
M  ISO  8  30  14  31  14  32  14  33  14  34  14  35  14  36  14  37   8
M  ISO  5  38   8  39   8  40   8  41  14  42  14
M  END
>  <minimizedAffinity>  (1) 
-5.21958542

>  <minimizedRMSD>  (1) 
2.47665882

$$$$
