
     RDKit          3D

 44 47  0  0  0  0  0  0  0  0999 V2000
   36.7170   28.0550   33.3930 C   0  0  0  0  0  0  0  0  0  0  0  0
   35.6580   28.8910   33.6570 C   0  0  0  0  0  0  0  0  0  0  0  0
   34.9930   29.5740   32.6730 C   0  0  0  0  0  0  0  0  0  0  0  0
   35.3890   29.4260   31.3940 N   0  0  0  0  0  0  0  0  0  0  0  0
   36.4320   28.6050   31.1350 C   0  0  0  0  0  0  0  0  0  0  0  0
   37.1040   27.9190   32.0870 N   0  0  0  0  0  0  0  0  0  0  0  0
   38.3960   25.7160   35.4650 C   0  0  0  0  0  0  0  0  0  0  0  0
   38.4540   26.8510   36.3140 C   0  0  0  0  0  0  0  0  0  0  0  0
   37.8170   27.8750   35.6170 C   0  0  0  0  0  0  0  0  0  0  0  0
   37.4240   27.3300   34.4290 C   0  0  0  0  0  0  0  0  0  0  0  0
   37.7750   26.0710   34.3710 O   0  0  0  0  0  0  0  0  0  0  0  0
   38.7220   23.8560   37.1190 C   0  0  0  0  0  0  0  0  0  0  0  0
   38.9750   24.4590   35.8930 C   0  0  0  0  0  0  0  0  0  0  0  0
   39.8490   23.8110   35.0070 C   0  0  0  0  0  0  0  0  0  0  0  0
   40.4090   22.6160   35.3980 N   0  0  0  0  0  0  0  0  0  0  0  0
   40.1160   22.0810   36.6190 C   0  0  0  0  0  0  0  0  0  0  0  0
   39.2860   22.6960   37.4580 N   0  0  0  0  0  0  0  0  0  0  0  0
   36.9120   28.4050   29.7390 C   0  0  0  0  0  0  0  0  0  0  0  0
   37.4730   29.7570   29.2770 C   0  0  0  0  0  0  0  0  0  0  0  0
   40.3670   28.9040   26.2000 C   0  0  0  0  0  0  0  0  0  0  0  0
   39.8660   30.1940   26.3700 C   0  0  0  0  0  0  0  0  0  0  0  0
   38.9360   30.4460   27.3640 C   0  0  0  0  0  0  0  0  0  0  0  0
   38.4850   29.4390   28.2080 C   0  0  0  0  0  0  0  0  0  0  0  0
   38.9910   28.1700   28.0250 C   0  0  0  0  0  0  0  0  0  0  0  0
   39.9180   27.9010   27.0390 C   0  0  0  0  0  0  0  0  0  0  0  0
   41.5360   28.7110   24.9100 S   0  0  0  0  0  0  0  0  0  0  0  0
   40.8970   28.4140   23.5950 O   0  0  0  0  0  0  0  0  0  0  0  0
   42.5580   27.6600   25.3090 O   0  0  0  0  0  0  0  0  0  0  0  0
   35.3316   29.0165   34.6999 H   0  0  0  0  0  0  0  0  0  0  0  0
   34.1487   30.2331   32.9235 H   0  0  0  0  0  0  0  0  0  0  0  0
   38.9076   26.9101   37.3144 H   0  0  0  0  0  0  0  0  0  0  0  0
   37.6624   28.9104   35.9547 H   0  0  0  0  0  0  0  0  0  0  0  0
   38.0394   24.3477   37.8277 H   0  0  0  0  0  0  0  0  0  0  0  0
   40.0809   24.2472   34.0242 H   0  0  0  0  0  0  0  0  0  0  0  0
   40.5736   21.1254   36.9145 H   0  0  0  0  0  0  0  0  0  0  0  0
   37.6995   27.6374   29.7136 H   0  0  0  0  0  0  0  0  0  0  0  0
   36.0981   28.0649   29.0818 H   0  0  0  0  0  0  0  0  0  0  0  0
   36.6684   30.3856   28.8677 H   0  0  0  0  0  0  0  0  0  0  0  0
   37.9267   30.3128   30.1108 H   0  0  0  0  0  0  0  0  0  0  0  0
   40.2088   31.0093   25.7160 H   0  0  0  0  0  0  0  0  0  0  0  0
   38.5453   31.4667   27.4883 H   0  0  0  0  0  0  0  0  0  0  0  0
   38.6485   27.3544   28.6789 H   0  0  0  0  0  0  0  0  0  0  0  0
   40.3038   26.8779   26.9192 H   0  0  0  0  0  0  0  0  0  0  0  0
   42.1831   29.9051   24.7300 H   0  0  0  0  0  0  0  0  0  0  0  0
  1  2  2  0
  1 10  1  0
  3  2  1  0
  4  3  2  0
  5  4  1  0
  5  6  2  0
  6  1  1  0
  7 13  1  0
  7  8  2  0
  9  8  1  0
 10  9  2  0
 11 10  1  0
 11  7  1  0
 12 17  2  0
 13 12  1  0
 14 15  1  0
 14 13  2  0
 15 16  2  0
 16 17  1  0
 18  5  1  0
 19 18  1  0
 20 21  2  0
 20 25  1  0
 21 22  1  0
 22 23  2  0
 23 19  1  0
 24 23  1  0
 25 24  2  0
 26 28  2  0
 26 20  1  0
 27 26  2  0
  2 29  1  0
  3 30  1  0
  8 31  1  0
  9 32  1  0
 12 33  1  0
 14 34  1  0
 16 35  1  0
 18 36  1  0
 18 37  1  0
 19 38  1  0
 19 39  1  0
 21 40  1  0
 22 41  1  0
 24 42  1  0
 25 43  1  0
 26 44  1  0
M  ISO  8  29  14  30  14  31  14  32  14  33  14  34  14  35  14  36   8
M  ISO  8  37   8  38   8  39   8  40  14  41  14  42  14  43  14  44  11
M  END
>  <minimizedAffinity>  (1) 
-4.98592901

>  <minimizedRMSD>  (1) 
0.998604655

$$$$
