
     RDKit          3D

 41 44  0  0  1  0  0  0  0  0999 V2000
   39.1650   23.9660   35.2780 C   0  0  1  0  0  0  0  0  0  0  0  0
   38.3680   24.6540   36.3470 C   0  0  0  0  0  0  0  0  0  0  0  0
   38.2410   23.6290   37.4230 C   0  0  0  0  0  0  0  0  0  0  0  0
   39.5680   22.9440   37.4230 C   0  0  0  0  0  0  0  0  0  0  0  0
   40.1020   23.0520   36.0330 C   0  0  2  0  0  0  0  0  0  0  0  0
   41.4890   23.5100   35.9950 N   0  0  0  0  0  0  0  0  0  0  0  0
   41.7560   24.6840   35.4020 C   0  0  0  0  0  0  0  0  0  0  0  0
   43.0380   25.1800   35.3290 C   0  0  0  0  0  0  0  0  0  0  0  0
   44.0470   24.4300   35.8880 C   0  0  0  0  0  0  0  0  0  0  0  0
   45.4080   24.8440   35.8710 N   0  0  0  0  0  0  0  0  0  0  0  0
   43.7840   23.2430   36.4880 N   0  0  0  0  0  0  0  0  0  0  0  0
   42.5020   22.7800   36.5450 C   0  0  0  0  0  0  0  0  0  0  0  0
   42.2260   21.6820   37.0960 O   0  0  0  0  0  0  0  0  0  0  0  0
   37.7210   23.7010   33.2720 C   0  0  0  0  0  0  0  0  0  0  0  0
   36.9480   22.7330   32.6550 C   0  0  0  0  0  0  0  0  0  0  0  0
   37.0690   21.6370   33.4410 N   0  0  0  0  0  0  0  0  0  0  0  0
   37.8780   21.9730   34.4620 C   0  0  0  0  0  0  0  0  0  0  0  0
   38.2960   23.2440   34.3820 N   0  0  0  0  0  0  0  0  0  0  0  0
   37.9090   25.0790   32.7900 C   0  0  0  0  0  0  0  0  0  0  0  0
   38.9610   25.3750   31.9040 C   0  0  0  0  0  0  0  0  0  0  0  0
   39.0570   26.7310   31.4970 C   0  0  0  0  0  0  0  0  0  0  0  0
   38.1700   27.6330   31.9610 N   0  0  0  0  0  0  0  0  0  0  0  0
   37.1890   27.2970   32.8020 C   0  0  0  0  0  0  0  0  0  0  0  0
   37.0330   26.0240   33.2340 N   0  0  0  0  0  0  0  0  0  0  0  0
   39.7214   24.6668   34.6382 H   0  0  0  0  0  0  0  0  0  0  0  0
   38.8975   25.5445   36.7166 H   0  0  0  0  0  0  0  0  0  0  0  0
   37.3918   25.0079   35.9839 H   0  0  0  0  0  0  0  0  0  0  0  0
   38.0457   24.1043   38.3956 H   0  0  0  0  0  0  0  0  0  0  0  0
   37.4048   22.9351   37.2521 H   0  0  0  0  0  0  0  0  0  0  0  0
   40.2500   23.4372   38.1313 H   0  0  0  0  0  0  0  0  0  0  0  0
   39.4723   21.8924   37.7313 H   0  0  0  0  0  0  0  0  0  0  0  0
   40.1354   22.0605   35.5579 H   0  0  0  0  0  0  0  0  0  0  0  0
   40.9304   25.2639   34.9637 H   0  0  0  0  0  0  0  0  0  0  0  0
   43.2485   26.1429   34.8406 H   0  0  0  0  0  0  0  0  0  0  0  0
   46.1320   24.2513   36.3016 H   0  0  0  0  0  0  0  0  0  0  0  0
   45.6693   25.7364   35.4281 H   0  0  0  0  0  0  0  0  0  0  0  0
   36.3632   22.8322   31.7286 H   0  0  0  0  0  0  0  0  0  0  0  0
   38.1638   21.2835   35.2701 H   0  0  0  0  0  0  0  0  0  0  0  0
   39.6631   24.6057   31.5500 H   0  0  0  0  0  0  0  0  0  0  0  0
   39.8526   27.0447   30.8052 H   0  0  0  0  0  0  0  0  0  0  0  0
   36.4917   28.0725   33.1517 H   0  0  0  0  0  0  0  0  0  0  0  0
  1  5  1  0
  1  2  1  0
  2  3  1  0
  4  3  1  0
  5  4  1  0
  6  5  1  0
  6 12  1  0
  7  6  1  0
  8  7  2  0
  8  9  1  0
  9 11  2  0
 10  9  1  0
 11 12  1  0
 12 13  2  0
 14 18  1  0
 15 14  2  0
 15 16  1  0
 16 17  2  0
 18 17  1  0
 18  1  1  0
 19 24  1  0
 19 14  1  0
 20 19  2  0
 21 20  1  0
 21 22  2  0
 22 23  1  0
 23 24  2  0
  1 25  1  6
  2 26  1  0
  2 27  1  0
  3 28  1  0
  3 29  1  0
  4 30  1  0
  4 31  1  0
  5 32  1  6
  7 33  1  0
  8 34  1  0
 10 35  1  0
 10 36  1  0
 15 37  1  0
 17 38  1  0
 20 39  1  0
 21 40  1  0
 23 41  1  0
M  ISO  8  25  13  26  13  27  13  28  13  29  13  30  13  31  13  32  13
M  ISO  7  33  14  34  14  37  14  38  14  39  14  40  14  41  14
M  END
>  <minimizedAffinity>  (1) 
-5.10882139

>  <minimizedRMSD>  (1) 
1.090734

$$$$
