
     RDKit          3D

 37 40  0  0  0  0  0  0  0  0999 V2000
   37.2980   27.6990   32.9960 C   0  0  0  0  0  0  0  0  0  0  0  0
   36.0270   28.2550   32.9040 C   0  0  0  0  0  0  0  0  0  0  0  0
   35.5440   28.8190   31.7330 C   0  0  0  0  0  0  0  0  0  0  0  0
   36.3630   28.8140   30.6590 N   0  0  0  0  0  0  0  0  0  0  0  0
   37.5800   28.2760   30.7620 C   0  0  0  0  0  0  0  0  0  0  0  0
   38.0710   27.7240   31.8850 N   0  0  0  0  0  0  0  0  0  0  0  0
   38.6120   25.6560   35.5850 C   0  0  0  0  0  0  0  0  0  0  0  0
   38.3330   26.8070   36.3310 C   0  0  0  0  0  0  0  0  0  0  0  0
   37.7980   27.7290   35.4370 C   0  0  0  0  0  0  0  0  0  0  0  0
   37.7770   27.1170   34.2290 C   0  0  0  0  0  0  0  0  0  0  0  0
   38.2590   25.9100   34.3540 O   0  0  0  0  0  0  0  0  0  0  0  0
   38.6780   23.8910   37.3640 C   0  0  0  0  0  0  0  0  0  0  0  0
   39.1870   24.4650   36.1850 C   0  0  0  0  0  0  0  0  0  0  0  0
   40.2770   23.8610   35.5870 C   0  0  0  0  0  0  0  0  0  0  0  0
   40.8220   22.7320   36.1540 N   0  0  0  0  0  0  0  0  0  0  0  0
   40.2910   22.2220   37.2890 C   0  0  0  0  0  0  0  0  0  0  0  0
   39.2280   22.7910   37.8960 N   0  0  0  0  0  0  0  0  0  0  0  0
   38.4820   28.2640   29.5910 C   0  0  0  0  0  0  0  0  0  0  0  0
   37.7880   28.9990   28.4420 C   0  0  0  0  0  0  0  0  0  0  0  0
   38.3060   30.3130   28.2280 N   0  0  0  0  0  0  0  0  0  0  0  0
   37.9340   31.0830   27.1750 C   0  0  0  0  0  0  0  0  0  0  0  0
   38.5960   32.2530   27.2660 N   0  0  0  0  0  0  0  0  0  0  0  0
   39.3680   32.2130   28.3600 C   0  0  0  0  0  0  0  0  0  0  0  0
   39.1660   31.0140   28.9240 N   0  0  0  0  0  0  0  0  0  0  0  0
   35.3802   28.2472   33.7937 H   0  0  0  0  0  0  0  0  0  0  0  0
   34.5346   29.2530   31.6808 H   0  0  0  0  0  0  0  0  0  0  0  0
   38.5027   26.9532   37.4080 H   0  0  0  0  0  0  0  0  0  0  0  0
   37.4598   28.7505   35.6655 H   0  0  0  0  0  0  0  0  0  0  0  0
   37.8116   24.3541   37.8589 H   0  0  0  0  0  0  0  0  0  0  0  0
   40.7056   24.2798   34.6646 H   0  0  0  0  0  0  0  0  0  0  0  0
   40.7379   21.3185   37.7295 H   0  0  0  0  0  0  0  0  0  0  0  0
   39.4245   28.7725   29.8423 H   0  0  0  0  0  0  0  0  0  0  0  0
   38.7074   27.2283   29.2970 H   0  0  0  0  0  0  0  0  0  0  0  0
   37.9222   28.4145   27.5198 H   0  0  0  0  0  0  0  0  0  0  0  0
   36.7264   29.1029   28.7106 H   0  0  0  0  0  0  0  0  0  0  0  0
   37.2193   30.8023   26.3873 H   0  0  0  0  0  0  0  0  0  0  0  0
   40.0361   33.0076   28.7238 H   0  0  0  0  0  0  0  0  0  0  0  0
  1 10  1  0
  2  1  2  0
  3  2  1  0
  4  5  1  0
  4  3  2  0
  5  6  2  0
  6  1  1  0
  7 13  1  0
  7  8  2  0
  9  8  1  0
 10 11  1  0
 10  9  2  0
 11  7  1  0
 12 17  2  0
 13 12  1  0
 14 15  1  0
 14 13  2  0
 15 16  2  0
 16 17  1  0
 18  5  1  0
 19 18  1  0
 20 19  1  0
 20 24  1  0
 21 22  2  0
 21 20  1  0
 22 23  1  0
 23 24  2  0
  2 25  1  0
  3 26  1  0
  8 27  1  0
  9 28  1  0
 12 29  1  0
 14 30  1  0
 16 31  1  0
 18 32  1  0
 18 33  1  0
 19 34  1  0
 19 35  1  0
 21 36  1  0
 23 37  1  0
M  ISO  8  25  14  26  14  27  14  28  14  29  14  30  14  31  14  32   8
M  ISO  5  33   8  34   8  35   8  36  14  37  14
M  END
>  <minimizedAffinity>  (1) 
-4.79858923

>  <minimizedRMSD>  (1) 
0.753206491

$$$$
