
     RDKit          3D

 37 40  0  0  1  0  0  0  0  0999 V2000
   38.4360   25.3150   33.6360 C   0  0  1  0  0  0  0  0  0  0  0  0
   39.7620   25.6860   33.0800 C   0  0  0  0  0  0  0  0  0  0  0  0
   39.9860   27.0720   33.6400 C   0  0  0  0  0  0  0  0  0  0  0  0
   39.5080   26.9420   35.0460 C   0  0  0  0  0  0  0  0  0  0  0  0
   38.3950   25.9320   35.0230 C   0  0  2  0  0  0  0  0  0  0  0  0
   36.7050   25.0980   31.8590 C   0  0  0  0  0  0  0  0  0  0  0  0
   35.7180   25.8520   31.2650 C   0  0  0  0  0  0  0  0  0  0  0  0
   35.7760   27.0600   31.8970 N   0  0  0  0  0  0  0  0  0  0  0  0
   36.7600   26.9810   32.8100 C   0  0  0  0  0  0  0  0  0  0  0  0
   37.3560   25.7760   32.8120 N   0  0  0  0  0  0  0  0  0  0  0  0
   37.0400   23.7050   31.5210 C   0  0  0  0  0  0  0  0  0  0  0  0
   36.3090   22.6510   32.0960 C   0  0  0  0  0  0  0  0  0  0  0  0
   36.6850   21.3520   31.7260 C   0  0  0  0  0  0  0  0  0  0  0  0
   37.6950   21.1690   30.8680 N   0  0  0  0  0  0  0  0  0  0  0  0
   38.3700   22.2150   30.3410 C   0  0  0  0  0  0  0  0  0  0  0  0
   38.0580   23.4950   30.6540 N   0  0  0  0  0  0  0  0  0  0  0  0
   38.6870   24.8650   35.9760 C   0  0  0  0  0  0  0  0  0  0  0  0
   39.6960   23.9860   35.8400 C   0  0  0  0  0  0  0  0  0  0  0  0
   40.0180   22.9780   36.6830 C   0  0  0  0  0  0  0  0  0  0  0  0
   39.1120   22.9320   37.8220 C   0  0  0  0  0  0  0  0  0  0  0  0
   37.9120   24.3700   37.5030 S   0  0  0  0  0  0  0  0  0  0  0  0
   38.3096   24.2230   33.6756 H   0  0  0  0  0  0  0  0  0  0  0  0
   40.5429   24.9903   33.4208 H   0  0  0  0  0  0  0  0  0  0  0  0
   39.7983   25.6499   31.9812 H   0  0  0  0  0  0  0  0  0  0  0  0
   41.0511   27.3451   33.6074 H   0  0  0  0  0  0  0  0  0  0  0  0
   39.4659   27.8592   33.0745 H   0  0  0  0  0  0  0  0  0  0  0  0
   40.3249   26.5935   35.6951 H   0  0  0  0  0  0  0  0  0  0  0  0
   39.1619   27.9085   35.4410 H   0  0  0  0  0  0  0  0  0  0  0  0
   37.4286   26.3966   35.2681 H   0  0  0  0  0  0  0  0  0  0  0  0
   35.0339   25.5479   30.4591 H   0  0  0  0  0  0  0  0  0  0  0  0
   37.0445   27.8071   33.4782 H   0  0  0  0  0  0  0  0  0  0  0  0
   35.4843   22.8359   32.8001 H   0  0  0  0  0  0  0  0  0  0  0  0
   36.1504   20.4846   32.1405 H   0  0  0  0  0  0  0  0  0  0  0  0
   39.1946   22.0212   29.6393 H   0  0  0  0  0  0  0  0  0  0  0  0
   40.3278   24.0989   34.9466 H   0  0  0  0  0  0  0  0  0  0  0  0
   40.8562   22.2828   36.5279 H   0  0  0  0  0  0  0  0  0  0  0  0
   39.1204   22.2296   38.6685 H   0  0  0  0  0  0  0  0  0  0  0  0
  1  5  1  0
  2  1  1  0
  2  3  1  0
  3  4  1  0
  5  4  1  0
  5 17  1  0
  6 10  1  0
  7  6  2  0
  7  8  1  0
  8  9  2  0
  9 10  1  0
 10  1  1  0
 11  6  1  0
 11 12  2  0
 13 12  1  0
 14 13  2  0
 15 16  2  0
 15 14  1  0
 16 11  1  0
 17 21  1  0
 18 17  2  0
 18 19  1  0
 19 20  2  0
 21 20  1  0
  1 22  1  1
  2 23  1  0
  2 24  1  0
  3 25  1  0
  3 26  1  0
  4 27  1  0
  4 28  1  0
  5 29  1  1
  7 30  1  0
  9 31  1  0
 12 32  1  0
 13 33  1  0
 15 34  1  0
 18 35  1  0
 19 36  1  0
 20 37  1  0
M  ISO  8  22  13  23  13  24  13  25  13  26  13  27  13  28  13  29  13
M  ISO  8  30  14  31  14  32  14  33  14  34  14  35  14  36  14  37  14
M  END
>  <minimizedAffinity>  (1) 
-4.94747019

>  <minimizedRMSD>  (1) 
4.47081852

$$$$
