
     RDKit          3D

 38 41  0  0  0  0  0  0  0  0999 V2000
   37.7430   25.5190   34.7250 C   0  0  0  0  0  0  0  0  0  0  0  0
   37.9830   25.6590   36.0760 C   0  0  0  0  0  0  0  0  0  0  0  0
   38.3050   24.5910   36.8870 C   0  0  0  0  0  0  0  0  0  0  0  0
   38.3860   23.3740   36.3270 N   0  0  0  0  0  0  0  0  0  0  0  0
   38.1500   23.2440   35.0040 C   0  0  0  0  0  0  0  0  0  0  0  0
   37.8340   24.2690   34.1950 N   0  0  0  0  0  0  0  0  0  0  0  0
   37.3200   27.9330   32.1530 C   0  0  0  0  0  0  0  0  0  0  0  0
   36.5540   28.5500   33.1660 C   0  0  0  0  0  0  0  0  0  0  0  0
   36.6200   27.7040   34.2780 C   0  0  0  0  0  0  0  0  0  0  0  0
   37.4040   26.6470   33.8820 C   0  0  0  0  0  0  0  0  0  0  0  0
   37.7870   26.8140   32.6540 O   0  0  0  0  0  0  0  0  0  0  0  0
   36.8980   29.7640   30.5000 C   0  0  0  0  0  0  0  0  0  0  0  0
   37.4690   28.5420   30.8560 C   0  0  0  0  0  0  0  0  0  0  0  0
   38.2250   27.8870   29.8890 C   0  0  0  0  0  0  0  0  0  0  0  0
   38.3750   28.4590   28.6470 N   0  0  0  0  0  0  0  0  0  0  0  0
   37.7950   29.6480   28.3620 C   0  0  0  0  0  0  0  0  0  0  0  0
   37.0660   30.2890   29.2800 N   0  0  0  0  0  0  0  0  0  0  0  0
   38.2330   21.9130   34.3660 C   0  0  0  0  0  0  0  0  0  0  0  0
   38.0620   22.0990   32.8510 C   0  0  0  0  0  0  0  0  0  0  0  0
   37.1040   21.1610   32.3440 C   0  0  0  0  0  0  0  0  0  0  0  0
   36.9100   20.4430   31.2030 C   0  0  0  0  0  0  0  0  0  0  0  0
   35.8470   19.6110   31.0510 C   0  0  0  0  0  0  0  0  0  0  0  0
   34.9350   19.5430   32.1870 C   0  0  0  0  0  0  0  0  0  0  0  0
   35.6720   20.6880   33.4130 S   0  0  0  0  0  0  0  0  0  0  0  0
   37.9149   26.6613   36.5240 H   0  0  0  0  0  0  0  0  0  0  0  0
   38.4901   24.7326   37.9620 H   0  0  0  0  0  0  0  0  0  0  0  0
   36.0133   29.5053   33.0949 H   0  0  0  0  0  0  0  0  0  0  0  0
   36.1459   27.8529   35.2594 H   0  0  0  0  0  0  0  0  0  0  0  0
   36.2946   30.3099   31.2402 H   0  0  0  0  0  0  0  0  0  0  0  0
   38.6985   26.9204   30.1156 H   0  0  0  0  0  0  0  0  0  0  0  0
   37.9251   30.0915   27.3638 H   0  0  0  0  0  0  0  0  0  0  0  0
   39.2120   21.4583   34.5777 H   0  0  0  0  0  0  0  0  0  0  0  0
   37.4472   21.2517   34.7600 H   0  0  0  0  0  0  0  0  0  0  0  0
   37.7125   23.1219   32.6473 H   0  0  0  0  0  0  0  0  0  0  0  0
   39.0294   21.9282   32.3561 H   0  0  0  0  0  0  0  0  0  0  0  0
   37.6347   20.5396   30.3812 H   0  0  0  0  0  0  0  0  0  0  0  0
   35.6850   19.0276   30.1326 H   0  0  0  0  0  0  0  0  0  0  0  0
   34.0179   18.9436   32.2850 H   0  0  0  0  0  0  0  0  0  0  0  0
  1  2  2  0
  2  3  1  0
  4  3  2  0
  5  4  1  0
  6  1  1  0
  6  5  2  0
  7 11  1  0
  7  8  2  0
  8  9  1  0
 10  9  2  0
 10  1  1  0
 11 10  1  0
 12 13  2  0
 13  7  1  0
 14 13  1  0
 15 14  2  0
 16 15  1  0
 16 17  2  0
 17 12  1  0
 18  5  1  0
 19 18  1  0
 20 19  1  0
 20 24  1  0
 21 20  2  0
 22 21  1  0
 22 23  2  0
 23 24  1  0
  2 25  1  0
  3 26  1  0
  8 27  1  0
  9 28  1  0
 12 29  1  0
 14 30  1  0
 16 31  1  0
 18 32  1  0
 18 33  1  0
 19 34  1  0
 19 35  1  0
 21 36  1  0
 22 37  1  0
 23 38  1  0
M  ISO  8  25  14  26  14  27  14  28  14  29  14  30  14  31  14  32   8
M  ISO  6  33   8  34   8  35   8  36  14  37  14  38  14
M  END
>  <minimizedAffinity>  (1) 
-5.06845522

>  <minimizedRMSD>  (1) 
8.27150249

$$$$
