
     RDKit          3D

 40 43  0  0  0  0  0  0  0  0999 V2000
   37.7380   25.5670   34.7300 C   0  0  0  0  0  0  0  0  0  0  0  0
   37.9210   25.7070   36.0880 C   0  0  0  0  0  0  0  0  0  0  0  0
   38.2500   24.6470   36.9060 C   0  0  0  0  0  0  0  0  0  0  0  0
   38.3930   23.4400   36.3460 N   0  0  0  0  0  0  0  0  0  0  0  0
   38.2120   23.3000   35.0090 C   0  0  0  0  0  0  0  0  0  0  0  0
   37.8910   24.3260   34.1930 N   0  0  0  0  0  0  0  0  0  0  0  0
   37.3050   27.9700   32.1470 C   0  0  0  0  0  0  0  0  0  0  0  0
   36.5310   28.5790   33.1550 C   0  0  0  0  0  0  0  0  0  0  0  0
   36.6010   27.7350   34.2700 C   0  0  0  0  0  0  0  0  0  0  0  0
   37.3920   26.6920   33.8780 C   0  0  0  0  0  0  0  0  0  0  0  0
   37.7820   26.8580   32.6490 O   0  0  0  0  0  0  0  0  0  0  0  0
   36.8870   29.7990   30.4850 C   0  0  0  0  0  0  0  0  0  0  0  0
   37.4560   28.5780   30.8390 C   0  0  0  0  0  0  0  0  0  0  0  0
   38.2170   27.8990   29.8790 C   0  0  0  0  0  0  0  0  0  0  0  0
   38.3590   28.4820   28.6310 N   0  0  0  0  0  0  0  0  0  0  0  0
   37.7880   29.6650   28.3430 C   0  0  0  0  0  0  0  0  0  0  0  0
   37.0610   30.3100   29.2640 N   0  0  0  0  0  0  0  0  0  0  0  0
   38.3650   21.9860   34.3740 C   0  0  0  0  0  0  0  0  0  0  0  0
   38.3710   22.1870   32.8470 C   0  0  0  0  0  0  0  0  0  0  0  0
   37.4210   21.2950   32.2380 C   0  0  0  0  0  0  0  0  0  0  0  0
   37.2310   20.6970   31.0400 C   0  0  0  0  0  0  0  0  0  0  0  0
   36.1920   19.8800   30.7820 C   0  0  0  0  0  0  0  0  0  0  0  0
   35.2870   19.6840   31.8780 C   0  0  0  0  0  0  0  0  0  0  0  0
   35.9890   20.6990   33.2360 S   0  0  0  0  0  0  0  0  0  0  0  0
   34.1410   18.9150   31.9280 N   0  0  0  0  0  0  0  0  0  0  0  0
   37.7999   26.7036   36.5375 H   0  0  0  0  0  0  0  0  0  0  0  0
   38.3909   24.7893   37.9876 H   0  0  0  0  0  0  0  0  0  0  0  0
   35.9811   29.5288   33.0806 H   0  0  0  0  0  0  0  0  0  0  0  0
   36.1226   27.8802   35.2498 H   0  0  0  0  0  0  0  0  0  0  0  0
   36.2853   30.3505   31.2225 H   0  0  0  0  0  0  0  0  0  0  0  0
   38.6876   26.9318   30.1095 H   0  0  0  0  0  0  0  0  0  0  0  0
   37.9191   30.1059   27.3438 H   0  0  0  0  0  0  0  0  0  0  0  0
   39.3122   21.5264   34.6928 H   0  0  0  0  0  0  0  0  0  0  0  0
   37.5368   21.3239   34.6667 H   0  0  0  0  0  0  0  0  0  0  0  0
   38.0982   23.2268   32.6138 H   0  0  0  0  0  0  0  0  0  0  0  0
   39.3761   21.9726   32.4548 H   0  0  0  0  0  0  0  0  0  0  0  0
   37.9597   20.8870   30.2382 H   0  0  0  0  0  0  0  0  0  0  0  0
   36.0478   19.3986   29.8035 H   0  0  0  0  0  0  0  0  0  0  0  0
   33.5873   18.8717   32.7954 H   0  0  0  0  0  0  0  0  0  0  0  0
   33.8400   18.3847   31.0979 H   0  0  0  0  0  0  0  0  0  0  0  0
  1  2  2  0
  2  3  1  0
  4  3  2  0
  5  4  1  0
  6  1  1  0
  6  5  2  0
  7 11  1  0
  7  8  2  0
  8  9  1  0
 10  9  2  0
 10  1  1  0
 11 10  1  0
 12 13  2  0
 13  7  1  0
 14 13  1  0
 15 14  2  0
 16 15  1  0
 16 17  2  0
 17 12  1  0
 18  5  1  0
 19 18  1  0
 20 19  1  0
 20 24  1  0
 21 20  2  0
 22 21  1  0
 22 23  2  0
 23 25  1  0
 23 24  1  0
  2 26  1  0
  3 27  1  0
  8 28  1  0
  9 29  1  0
 12 30  1  0
 14 31  1  0
 16 32  1  0
 18 33  1  0
 18 34  1  0
 19 35  1  0
 19 36  1  0
 21 37  1  0
 22 38  1  0
 25 39  1  0
 25 40  1  0
M  ISO  8  26  14  27  14  28  14  29  14  30  14  31  14  32  14  33   8
M  ISO  5  34   8  35   8  36   8  37  14  38  14
M  END
>  <minimizedAffinity>  (1) 
-5.46037054

>  <minimizedRMSD>  (1) 
0.236226678

$$$$
