
     RDKit          3D

 45 49  0  0  0  0  0  0  0  0999 V2000
   38.0210   25.2970   35.3610 C   0  0  0  0  0  0  0  0  0  0  0  0
   37.7450   25.3350   36.7150 C   0  0  0  0  0  0  0  0  0  0  0  0
   38.1280   24.3450   37.5810 C   0  0  0  0  0  0  0  0  0  0  0  0
   38.8050   23.2900   37.0770 N   0  0  0  0  0  0  0  0  0  0  0  0
   39.0720   23.2590   35.7490 C   0  0  0  0  0  0  0  0  0  0  0  0
   38.7020   24.2210   34.8960 N   0  0  0  0  0  0  0  0  0  0  0  0
   37.4250   27.5260   32.6600 C   0  0  0  0  0  0  0  0  0  0  0  0
   36.6440   28.1630   33.6530 C   0  0  0  0  0  0  0  0  0  0  0  0
   36.7750   27.3890   34.8110 C   0  0  0  0  0  0  0  0  0  0  0  0
   37.6070   26.3550   34.4590 C   0  0  0  0  0  0  0  0  0  0  0  0
   37.9610   26.4660   33.2140 O   0  0  0  0  0  0  0  0  0  0  0  0
   36.7590   29.1290   30.8660 C   0  0  0  0  0  0  0  0  0  0  0  0
   37.5150   28.0630   31.3300 C   0  0  0  0  0  0  0  0  0  0  0  0
   38.4190   27.4890   30.4340 C   0  0  0  0  0  0  0  0  0  0  0  0
   38.5240   27.9850   29.1600 N   0  0  0  0  0  0  0  0  0  0  0  0
   37.7520   29.0350   28.7620 C   0  0  0  0  0  0  0  0  0  0  0  0
   36.8920   29.5840   29.6090 N   0  0  0  0  0  0  0  0  0  0  0  0
   39.8110   22.1160   35.1750 C   0  0  0  0  0  0  0  0  0  0  0  0
   39.9240   22.3430   33.6670 C   0  0  0  0  0  0  0  0  0  0  0  0
   39.2260   21.3000   32.9530 C   0  0  0  0  0  0  0  0  0  0  0  0
   39.5140   20.2180   32.1950 C   0  0  0  0  0  0  0  0  0  0  0  0
   38.5700   19.4150   31.6610 C   0  0  0  0  0  0  0  0  0  0  0  0
   37.2260   19.8060   31.9640 C   0  0  0  0  0  0  0  0  0  0  0  0
   37.3890   21.2850   32.9870 S   0  0  0  0  0  0  0  0  0  0  0  0
   35.9690   19.1790   31.5550 C   0  0  0  0  0  0  0  0  0  0  0  0
   35.1510   18.3950   32.5160 C   0  0  0  0  0  0  0  0  0  0  0  0
   34.7490   19.7880   32.0700 C   0  0  0  0  0  0  0  0  0  0  0  0
   37.1933   26.1986   37.1149 H   0  0  0  0  0  0  0  0  0  0  0  0
   37.8916   24.4071   38.6535 H   0  0  0  0  0  0  0  0  0  0  0  0
   36.0521   29.0830   33.5376 H   0  0  0  0  0  0  0  0  0  0  0  0
   36.3114   27.5698   35.7920 H   0  0  0  0  0  0  0  0  0  0  0  0
   36.0363   29.6115   31.5404 H   0  0  0  0  0  0  0  0  0  0  0  0
   39.0452   26.6413   30.7492 H   0  0  0  0  0  0  0  0  0  0  0  0
   37.8422   29.4271   27.7382 H   0  0  0  0  0  0  0  0  0  0  0  0
   40.8148   22.0574   35.6209 H   0  0  0  0  0  0  0  0  0  0  0  0
   39.2836   21.1735   35.3835 H   0  0  0  0  0  0  0  0  0  0  0  0
   39.4814   23.3172   33.4118 H   0  0  0  0  0  0  0  0  0  0  0  0
   40.9857   22.3266   33.3797 H   0  0  0  0  0  0  0  0  0  0  0  0
   40.5709   19.9804   32.0040 H   0  0  0  0  0  0  0  0  0  0  0  0
   38.8120   18.5358   31.0459 H   0  0  0  0  0  0  0  0  0  0  0  0
   36.3781   18.9323   30.5642 H   0  0  0  0  0  0  0  0  0  0  0  0
   34.5829   17.5171   32.1746 H   0  0  0  0  0  0  0  0  0  0  0  0
   35.3289   17.8958   33.4799 H   0  0  0  0  0  0  0  0  0  0  0  0
   34.8096   20.6304   32.7748 H   0  0  0  0  0  0  0  0  0  0  0  0
   33.8495   20.2314   31.6180 H   0  0  0  0  0  0  0  0  0  0  0  0
  1  2  2  0
  2  3  1  0
  4  3  2  0
  5  4  1  0
  6  1  1  0
  6  5  2  0
  7 11  1  0
  7  8  2  0
  8  9  1  0
 10  9  2  0
 10  1  1  0
 11 10  1  0
 12 13  2  0
 13  7  1  0
 14 13  1  0
 15 14  2  0
 16 15  1  0
 16 17  2  0
 17 12  1  0
 18  5  1  0
 19 18  1  0
 20 24  1  0
 20 19  1  0
 21 20  2  0
 22 23  2  0
 22 21  1  0
 23 24  1  0
 25 23  1  0
 25 27  1  0
 25 26  1  0
 27 26  1  0
  2 28  1  0
  3 29  1  0
  8 30  1  0
  9 31  1  0
 12 32  1  0
 14 33  1  0
 16 34  1  0
 18 35  1  0
 18 36  1  0
 19 37  1  0
 19 38  1  0
 21 39  1  0
 22 40  1  0
 25 41  1  0
 26 42  1  0
 26 43  1  0
 27 44  1  0
 27 45  1  0
M  ISO  8  28  14  29  14  30  14  31  14  32  14  33  14  34  14  35   8
M  ISO  8  36   8  37   8  38   8  39  14  40  14  41  13  42  13  43  13
M  ISO  2  44  13  45  13
M  END
>  <minimizedAffinity>  (1) 
-5.3460803

>  <minimizedRMSD>  (1) 
1.54306459

$$$$
