
     RDKit          3D

 38 41  0  0  1  0  0  0  0  0999 V2000
   39.2640   23.9370   35.2420 C   0  0  1  0  0  0  0  0  0  0  0  0
   38.5070   24.5160   36.3950 C   0  0  0  0  0  0  0  0  0  0  0  0
   38.4640   23.3850   37.3920 C   0  0  0  0  0  0  0  0  0  0  0  0
   39.8300   22.7970   37.2950 C   0  0  0  0  0  0  0  0  0  0  0  0
   40.2710   23.0160   35.8760 C   0  0  2  0  0  0  0  0  0  0  0  0
   37.7560   23.7200   33.2670 C   0  0  0  0  0  0  0  0  0  0  0  0
   36.9940   22.7670   32.6250 C   0  0  0  0  0  0  0  0  0  0  0  0
   37.1780   21.6400   33.3510 N   0  0  0  0  0  0  0  0  0  0  0  0
   38.0110   21.9360   34.3670 C   0  0  0  0  0  0  0  0  0  0  0  0
   38.3860   23.2270   34.3390 N   0  0  0  0  0  0  0  0  0  0  0  0
   37.8870   25.1330   32.8530 C   0  0  0  0  0  0  0  0  0  0  0  0
   38.9100   25.4980   31.9610 C   0  0  0  0  0  0  0  0  0  0  0  0
   38.9780   26.8630   31.6090 C   0  0  0  0  0  0  0  0  0  0  0  0
   38.0890   27.7170   32.1280 N   0  0  0  0  0  0  0  0  0  0  0  0
   37.1240   27.3240   32.9800 C   0  0  0  0  0  0  0  0  0  0  0  0
   37.0030   26.0250   33.3600 N   0  0  0  0  0  0  0  0  0  0  0  0
   41.5910   23.6970   35.8580 C   0  0  0  0  0  0  0  0  0  0  0  0
   42.6270   23.2430   36.6450 C   0  0  0  0  0  0  0  0  0  0  0  0
   43.8450   23.9080   36.5980 C   0  0  0  0  0  0  0  0  0  0  0  0
   44.0470   24.9830   35.8100 N   0  0  0  0  0  0  0  0  0  0  0  0
   43.0260   25.3960   35.0620 C   0  0  0  0  0  0  0  0  0  0  0  0
   41.8310   24.7690   35.0870 N   0  0  0  0  0  0  0  0  0  0  0  0
   39.7449   24.7123   34.6275 H   0  0  0  0  0  0  0  0  0  0  0  0
   39.0322   25.3879   36.8120 H   0  0  0  0  0  0  0  0  0  0  0  0
   37.5068   24.8765   36.1129 H   0  0  0  0  0  0  0  0  0  0  0  0
   38.2669   23.7605   38.4069 H   0  0  0  0  0  0  0  0  0  0  0  0
   37.6646   22.6578   37.1868 H   0  0  0  0  0  0  0  0  0  0  0  0
   40.5150   23.3030   37.9912 H   0  0  0  0  0  0  0  0  0  0  0  0
   39.8303   21.7290   37.5584 H   0  0  0  0  0  0  0  0  0  0  0  0
   40.3480   22.0557   35.3450 H   0  0  0  0  0  0  0  0  0  0  0  0
   36.3752   22.8943   31.7245 H   0  0  0  0  0  0  0  0  0  0  0  0
   38.3433   21.2118   35.1254 H   0  0  0  0  0  0  0  0  0  0  0  0
   39.6193   24.7596   31.5590 H   0  0  0  0  0  0  0  0  0  0  0  0
   39.7534   27.2206   30.9156 H   0  0  0  0  0  0  0  0  0  0  0  0
   36.4190   28.0694   33.3767 H   0  0  0  0  0  0  0  0  0  0  0  0
   42.4915   22.3690   37.2991 H   0  0  0  0  0  0  0  0  0  0  0  0
   44.6730   23.5454   37.2249 H   0  0  0  0  0  0  0  0  0  0  0  0
   43.1596   26.2699   34.4074 H   0  0  0  0  0  0  0  0  0  0  0  0
  1  5  1  0
  1  2  1  0
  2  3  1  0
  4  3  1  0
  5  4  1  0
  6 10  1  0
  7  6  2  0
  7  8  1  0
  8  9  2  0
 10  9  1  0
 10  1  1  0
 11  6  1  0
 11 16  1  0
 12 11  2  0
 13 12  1  0
 13 14  2  0
 14 15  1  0
 15 16  2  0
 17  5  1  0
 17 18  2  0
 19 18  1  0
 20 19  2  0
 21 22  2  0
 21 20  1  0
 22 17  1  0
  1 23  1  6
  2 24  1  0
  2 25  1  0
  3 26  1  0
  3 27  1  0
  4 28  1  0
  4 29  1  0
  5 30  1  6
  7 31  1  0
  9 32  1  0
 12 33  1  0
 13 34  1  0
 15 35  1  0
 18 36  1  0
 19 37  1  0
 21 38  1  0
M  ISO  8  23  13  24  13  25  13  26  13  27  13  28  13  29  13  30  13
M  ISO  8  31  14  32  14  33  14  34  14  35  14  36  14  37  14  38  14
M  END
>  <minimizedAffinity>  (1) 
-4.93520689

>  <minimizedRMSD>  (1) 
1.12065172

$$$$
