
     RDKit          3D

 24 26  0  0  0  0  0  0  0  0999 V2000
   37.5840   22.2440   34.7180 C   0  0  0  0  0  0  0  0  0  0  0  0
   36.6550   21.1970   34.6070 C   0  0  0  0  0  0  0  0  0  0  0  0
   36.2310   21.1580   33.2860 C   0  0  0  0  0  0  0  0  0  0  0  0
   36.9190   22.1760   32.6730 C   0  0  0  0  0  0  0  0  0  0  0  0
   37.6980   22.7830   33.5500 O   0  0  0  0  0  0  0  0  0  0  0  0
   38.2220   22.5460   36.0030 C   0  0  0  0  0  0  0  0  0  0  0  0
   39.5640   22.2880   36.2810 C   0  0  0  0  0  0  0  0  0  0  0  0
   40.0330   22.6300   37.5520 C   0  0  0  0  0  0  0  0  0  0  0  0
   39.1840   23.1910   38.4540 N   0  0  0  0  0  0  0  0  0  0  0  0
   37.8890   23.4250   38.1460 C   0  0  0  0  0  0  0  0  0  0  0  0
   37.4010   23.1080   36.9290 N   0  0  0  0  0  0  0  0  0  0  0  0
   35.2560   20.2080   32.7390 C   0  0  0  0  0  0  0  0  0  0  0  0
   35.3440   18.7540   32.9160 C   0  0  0  0  0  0  0  0  0  0  0  0
   35.8470   19.3390   31.6220 C   0  0  0  0  0  0  0  0  0  0  0  0
   36.3243   20.5307   35.4174 H   0  0  0  0  0  0  0  0  0  0  0  0
   36.8340   22.4458   31.6100 H   0  0  0  0  0  0  0  0  0  0  0  0
   40.2267   21.8335   35.5298 H   0  0  0  0  0  0  0  0  0  0  0  0
   41.0835   22.4464   37.8215 H   0  0  0  0  0  0  0  0  0  0  0  0
   37.2252   23.8792   38.8964 H   0  0  0  0  0  0  0  0  0  0  0  0
   34.4165   20.8963   32.9166 H   0  0  0  0  0  0  0  0  0  0  0  0
   36.0600   18.3362   33.6390 H   0  0  0  0  0  0  0  0  0  0  0  0
   34.6169   17.9684   33.1694 H   0  0  0  0  0  0  0  0  0  0  0  0
   35.2902   19.1811   30.6866 H   0  0  0  0  0  0  0  0  0  0  0  0
   36.7894   19.3123   31.0553 H   0  0  0  0  0  0  0  0  0  0  0  0
  1  6  1  0
  2  1  2  0
  3  2  1  0
  4  3  2  0
  4  5  1  0
  5  1  1  0
  6  7  2  0
  6 11  1  0
  7  8  1  0
  8  9  2  0
 10  9  1  0
 11 10  2  0
 12 13  1  0
 12  3  1  0
 14 12  1  0
 14 13  1  0
  2 15  1  0
  4 16  1  0
  7 17  1  0
  8 18  1  0
 10 19  1  0
 12 20  1  0
 13 21  1  0
 13 22  1  0
 14 23  1  0
 14 24  1  0
M  ISO  8  15  14  16  14  17  14  18  14  19  14  20  13  21  13  22  13
M  ISO  2  23  13  24  13
M  END
>  <minimizedAffinity>  (1) 
-4.32026815

>  <minimizedRMSD>  (1) 
1.02214599

$$$$
