
     RDKit          3D

 29 30  0  0  0  0  0  0  0  0999 V2000
   36.6180   21.3050   34.6500 C   0  0  0  0  0  0  0  0  0  0  0  0
   37.6890   22.1930   34.8230 C   0  0  0  0  0  0  0  0  0  0  0  0
   37.7220   22.5750   36.1440 C   0  0  0  0  0  0  0  0  0  0  0  0
   36.6850   21.9150   36.7140 C   0  0  0  0  0  0  0  0  0  0  0  0
   36.0660   21.1810   35.7990 O   0  0  0  0  0  0  0  0  0  0  0  0
   36.3290   20.7240   33.3380 C   0  0  0  0  0  0  0  0  0  0  0  0
   35.5240   19.6030   33.1570 C   0  0  0  0  0  0  0  0  0  0  0  0
   35.3220   19.1430   31.8640 C   0  0  0  0  0  0  0  0  0  0  0  0
   35.9180   19.8050   30.8340 N   0  0  0  0  0  0  0  0  0  0  0  0
   36.6920   20.8860   31.0450 C   0  0  0  0  0  0  0  0  0  0  0  0
   36.9130   21.3660   32.2890 N   0  0  0  0  0  0  0  0  0  0  0  0
   38.6590   23.5000   36.8440 C   0  0  0  0  0  0  0  0  0  0  0  0
   39.1320   24.5920   35.9100 C   0  0  0  0  0  0  0  0  0  0  0  0
   39.8660   22.7590   37.3360 C   0  0  0  0  0  0  0  0  0  0  0  0
   37.9060   24.0650   38.0300 C   0  0  0  0  0  0  0  0  0  0  0  0
   38.3832   22.5267   34.0377 H   0  0  0  0  0  0  0  0  0  0  0  0
   36.3998   21.9783   37.7745 H   0  0  0  0  0  0  0  0  0  0  0  0
   35.0606   19.0956   34.0160 H   0  0  0  0  0  0  0  0  0  0  0  0
   34.6928   18.2609   31.6744 H   0  0  0  0  0  0  0  0  0  0  0  0
   37.1556   21.3907   30.1845 H   0  0  0  0  0  0  0  0  0  0  0  0
   39.5011   25.4442   36.4994 H   0  0  0  0  0  0  0  0  0  0  0  0
   39.9435   24.2059   35.2757 H   0  0  0  0  0  0  0  0  0  0  0  0
   38.2952   24.9199   35.2757 H   0  0  0  0  0  0  0  0  0  0  0  0
   39.8711   22.7558   38.4360 H   0  0  0  0  0  0  0  0  0  0  0  0
   39.8363   21.7233   36.9665 H   0  0  0  0  0  0  0  0  0  0  0  0
   40.7761   23.2542   36.9665 H   0  0  0  0  0  0  0  0  0  0  0  0
   38.3734   23.7143   38.9620 H   0  0  0  0  0  0  0  0  0  0  0  0
   37.9378   25.1640   37.9948 H   0  0  0  0  0  0  0  0  0  0  0  0
   36.8598   23.7272   37.9948 H   0  0  0  0  0  0  0  0  0  0  0  0
  1  2  2  0
  1  5  1  0
  2  3  1  0
  3  4  2  0
  3 12  1  0
  5  4  1  0
  6  1  1  0
  7  6  2  0
  8  7  1  0
  9 10  1  0
  9  8  2  0
 10 11  2  0
 11  6  1  0
 12 14  1  0
 12 15  1  0
 13 12  1  0
  2 16  1  0
  4 17  1  0
  7 18  1  0
  8 19  1  0
 10 20  1  0
 13 21  1  0
 13 22  1  0
 13 23  1  0
 14 24  1  0
 14 25  1  0
 14 26  1  0
 15 27  1  0
 15 28  1  0
 15 29  1  0
M  ISO  8  16  14  17  14  18  14  19  14  20  14  21   8  22   8  23   8
M  ISO  6  24   8  25   8  26   8  27   8  28   8  29   8
M  END
>  <minimizedAffinity>  (1) 
-4.00254631

>  <minimizedRMSD>  (1) 
5.96908474

$$$$
