
     RDKit          3D

 37 40  0  0  1  0  0  0  0  0999 V2000
   39.1830   23.9390   35.3020 C   0  0  1  0  0  0  0  0  0  0  0  0
   38.4020   24.6140   36.3920 C   0  0  0  0  0  0  0  0  0  0  0  0
   38.2610   23.5300   37.4370 C   0  0  0  0  0  0  0  0  0  0  0  0
   39.6090   22.8880   37.4290 C   0  0  0  0  0  0  0  0  0  0  0  0
   40.1310   23.0160   36.0250 C   0  0  2  0  0  0  0  0  0  0  0  0
   37.7270   23.7240   33.3110 C   0  0  0  0  0  0  0  0  0  0  0  0
   36.9510   22.7680   32.6620 C   0  0  0  0  0  0  0  0  0  0  0  0
   37.0980   21.6440   33.4230 N   0  0  0  0  0  0  0  0  0  0  0  0
   37.9120   21.9560   34.4420 C   0  0  0  0  0  0  0  0  0  0  0  0
   38.3190   23.2440   34.3990 N   0  0  0  0  0  0  0  0  0  0  0  0
   37.8890   25.1140   32.8660 C   0  0  0  0  0  0  0  0  0  0  0  0
   38.9210   25.4490   31.9780 C   0  0  0  0  0  0  0  0  0  0  0  0
   38.9960   26.8090   31.6060 C   0  0  0  0  0  0  0  0  0  0  0  0
   38.1080   27.6900   32.1040 N   0  0  0  0  0  0  0  0  0  0  0  0
   37.1420   27.3220   32.9480 C   0  0  0  0  0  0  0  0  0  0  0  0
   37.0120   26.0320   33.3460 N   0  0  0  0  0  0  0  0  0  0  0  0
   41.5320   23.4840   36.0380 C   0  0  0  0  0  0  0  0  0  0  0  0
   42.5780   22.8640   36.6860 C   0  0  0  0  0  0  0  0  0  0  0  0
   43.7040   23.6290   36.4390 C   0  0  0  0  0  0  0  0  0  0  0  0
   43.2930   24.6700   35.6580 C   0  0  0  0  0  0  0  0  0  0  0  0
   42.0290   24.5600   35.4410 O   0  0  0  0  0  0  0  0  0  0  0  0
   39.7294   24.6539   34.6692 H   0  0  0  0  0  0  0  0  0  0  0  0
   38.9504   25.4793   36.7926 H   0  0  0  0  0  0  0  0  0  0  0  0
   37.4353   25.0107   36.0483 H   0  0  0  0  0  0  0  0  0  0  0  0
   38.0315   23.9581   38.4240 H   0  0  0  0  0  0  0  0  0  0  0  0
   37.4416   22.8265   37.2280 H   0  0  0  0  0  0  0  0  0  0  0  0
   40.2798   23.4026   38.1328 H   0  0  0  0  0  0  0  0  0  0  0  0
   39.5509   21.8341   37.7386 H   0  0  0  0  0  0  0  0  0  0  0  0
   40.1624   22.0521   35.4959 H   0  0  0  0  0  0  0  0  0  0  0  0
   36.3553   22.8901   31.7453 H   0  0  0  0  0  0  0  0  0  0  0  0
   38.2142   21.2442   35.2243 H   0  0  0  0  0  0  0  0  0  0  0  0
   39.6284   24.6988   31.5949 H   0  0  0  0  0  0  0  0  0  0  0  0
   39.7782   27.1480   30.9109 H   0  0  0  0  0  0  0  0  0  0  0  0
   36.4389   28.0781   33.3275 H   0  0  0  0  0  0  0  0  0  0  0  0
   42.5277   21.9414   37.2829 H   0  0  0  0  0  0  0  0  0  0  0  0
   44.7253   23.4368   36.7996 H   0  0  0  0  0  0  0  0  0  0  0  0
   43.9385   25.4742   35.2753 H   0  0  0  0  0  0  0  0  0  0  0  0
  1  5  1  0
  1  2  1  0
  2  3  1  0
  4  3  1  0
  5 17  1  0
  5  4  1  0
  6 10  1  0
  7  6  2  0
  7  8  1  0
  8  9  2  0
 10  9  1  0
 10  1  1  0
 11  6  1  0
 11 16  1  0
 12 11  2  0
 13 12  1  0
 13 14  2  0
 14 15  1  0
 15 16  2  0
 17 18  2  0
 19 18  1  0
 20 19  2  0
 21 20  1  0
 21 17  1  0
  1 22  1  6
  2 23  1  0
  2 24  1  0
  3 25  1  0
  3 26  1  0
  4 27  1  0
  4 28  1  0
  5 29  1  6
  7 30  1  0
  9 31  1  0
 12 32  1  0
 13 33  1  0
 15 34  1  0
 18 35  1  0
 19 36  1  0
 20 37  1  0
M  ISO  8  22  13  23  13  24  13  25  13  26  13  27  13  28  13  29  13
M  ISO  8  30  14  31  14  32  14  33  14  34  14  35  14  36  14  37  14
M  END
>  <minimizedAffinity>  (1) 
-4.89629555

>  <minimizedRMSD>  (1) 
0.930993795

$$$$
