
     RDKit          3D

 19 20  0  0  0  0  0  0  0  0999 V2000
   37.3720   21.9480   34.9770 C   0  0  0  0  0  0  0  0  0  0  0  0
   36.4260   20.9370   35.0360 C   0  0  0  0  0  0  0  0  0  0  0  0
   35.9480   20.7250   33.7560 C   0  0  0  0  0  0  0  0  0  0  0  0
   36.6270   21.6210   32.9800 C   0  0  0  0  0  0  0  0  0  0  0  0
   37.4660   22.3320   33.7400 O   0  0  0  0  0  0  0  0  0  0  0  0
   38.0710   22.4160   36.1640 C   0  0  0  0  0  0  0  0  0  0  0  0
   39.4470   22.2870   36.3780 C   0  0  0  0  0  0  0  0  0  0  0  0
   39.9940   22.7740   37.5540 C   0  0  0  0  0  0  0  0  0  0  0  0
   39.1550   23.3700   38.4690 N   0  0  0  0  0  0  0  0  0  0  0  0
   37.8330   23.4840   38.2410 C   0  0  0  0  0  0  0  0  0  0  0  0
   37.2970   23.0130   37.1040 N   0  0  0  0  0  0  0  0  0  0  0  0
   34.9590   19.7730   33.3540 N   0  0  0  0  0  0  0  0  0  0  0  0
   36.1109   20.3981   35.9417 H   0  0  0  0  0  0  0  0  0  0  0  0
   36.5022   21.7396   31.8936 H   0  0  0  0  0  0  0  0  0  0  0  0
   40.0861   21.8056   35.6231 H   0  0  0  0  0  0  0  0  0  0  0  0
   41.0725   22.6867   37.7521 H   0  0  0  0  0  0  0  0  0  0  0  0
   37.1884   23.9659   38.9908 H   0  0  0  0  0  0  0  0  0  0  0  0
   34.6811   19.7058   32.3645 H   0  0  0  0  0  0  0  0  0  0  0  0
   34.5248   19.1547   34.0540 H   0  0  0  0  0  0  0  0  0  0  0  0
  1  2  2  0
  1  6  1  0
  3  2  1  0
  4  5  1  0
  4  3  2  0
  5  1  1  0
  6  7  2  0
  6 11  1  0
  7  8  1  0
  8  9  2  0
 10  9  1  0
 11 10  2  0
 12  3  1  0
  2 13  1  0
  4 14  1  0
  7 15  1  0
  8 16  1  0
 10 17  1  0
 12 18  1  0
 12 19  1  0
M  ISO  5  13  14  14  14  15  14  16  14  17  14
M  END
>  <minimizedAffinity>  (1) 
-3.47026563

>  <minimizedRMSD>  (1) 
0.341330051

$$$$
