
     RDKit          3D

 36 39  0  0  0  0  0  0  0  0999 V2000
   35.6110   22.3590   30.9630 C   0  0  0  0  0  0  0  0  0  0  0  0
   36.9540   25.3620   32.6370 C   0  0  0  0  0  0  0  0  0  0  0  0
   36.9350   23.9950   32.4400 C   0  0  0  0  0  0  0  0  0  0  0  0
   35.9970   23.6800   31.5040 C   0  0  0  0  0  0  0  0  0  0  0  0
   35.4570   24.9010   31.1460 C   0  0  0  0  0  0  0  0  0  0  0  0
   36.0530   25.8810   31.8440 O   0  0  0  0  0  0  0  0  0  0  0  0
   37.8520   26.0060   33.5780 C   0  0  0  0  0  0  0  0  0  0  0  0
   39.1540   26.3900   33.3060 C   0  0  0  0  0  0  0  0  0  0  0  0
   39.9170   26.9960   34.2800 C   0  0  0  0  0  0  0  0  0  0  0  0
   39.3620   27.2020   35.4900 N   0  0  0  0  0  0  0  0  0  0  0  0
   38.0760   26.8210   35.7530 C   0  0  0  0  0  0  0  0  0  0  0  0
   37.3430   26.2330   34.8020 N   0  0  0  0  0  0  0  0  0  0  0  0
   36.7660   21.3510   31.0570 C   0  0  0  0  0  0  0  0  0  0  0  0
   36.2180   20.1450   31.6910 N   0  0  0  0  0  0  0  0  0  0  0  0
   35.5030   20.1240   32.8270 C   0  0  0  0  0  0  0  0  0  0  0  0
   35.1370   18.8610   33.1600 N   0  0  0  0  0  0  0  0  0  0  0  0
   35.6320   18.0570   32.2140 C   0  0  0  0  0  0  0  0  0  0  0  0
   35.6290   16.6980   31.9500 C   0  0  0  0  0  0  0  0  0  0  0  0
   36.2430   16.1870   30.8710 N   0  0  0  0  0  0  0  0  0  0  0  0
   36.8930   16.9810   29.9930 C   0  0  0  0  0  0  0  0  0  0  0  0
   36.8980   18.3010   30.2450 N   0  0  0  0  0  0  0  0  0  0  0  0
   36.3010   18.8520   31.3030 C   0  0  0  0  0  0  0  0  0  0  0  0
   34.9500   15.8450   32.8640 N   0  0  0  0  0  0  0  0  0  0  0  0
   35.3236   22.4754   29.9076 H   0  0  0  0  0  0  0  0  0  0  0  0
   34.7697   21.9753   31.5588 H   0  0  0  0  0  0  0  0  0  0  0  0
   37.5794   23.2709   32.9600 H   0  0  0  0  0  0  0  0  0  0  0  0
   34.6600   25.0476   30.4022 H   0  0  0  0  0  0  0  0  0  0  0  0
   39.5810   26.2106   32.3083 H   0  0  0  0  0  0  0  0  0  0  0  0
   40.9529   27.3038   34.0748 H   0  0  0  0  0  0  0  0  0  0  0  0
   37.6434   26.9984   36.7487 H   0  0  0  0  0  0  0  0  0  0  0  0
   37.1451   21.1130   30.0522 H   0  0  0  0  0  0  0  0  0  0  0  0
   37.6041   21.7604   31.6400 H   0  0  0  0  0  0  0  0  0  0  0  0
   35.2463   21.0183   33.4138 H   0  0  0  0  0  0  0  0  0  0  0  0
   37.3973   16.5646   29.1085 H   0  0  0  0  0  0  0  0  0  0  0  0
   34.9269   14.8284   32.6998 H   0  0  0  0  0  0  0  0  0  0  0  0
   34.4815   16.2440   33.6900 H   0  0  0  0  0  0  0  0  0  0  0  0
  1 13  1  0
  1  4  1  0
  2  7  1  0
  3  2  2  0
  4  3  1  0
  5  4  2  0
  5  6  1  0
  6  2  1  0
  7 12  1  0
  8  7  2  0
  8  9  1  0
  9 10  2  0
 10 11  1  0
 12 11  2  0
 13 14  1  0
 14 15  1  0
 15 16  2  0
 17 16  1  0
 18 17  2  0
 18 23  1  0
 19 18  1  0
 20 21  1  0
 20 19  2  0
 21 22  2  0
 22 14  1  0
 22 17  1  0
  1 24  1  0
  1 25  1  0
  3 26  1  0
  5 27  1  0
  8 28  1  0
  9 29  1  0
 11 30  1  0
 13 31  1  0
 13 32  1  0
 15 33  1  0
 20 34  1  0
 23 35  1  0
 23 36  1  0
M  ISO  8  24   8  25   8  26  14  27  14  28  14  29  14  30  14  31   8
M  ISO  3  32   8  33  14  34  14
M  END
>  <minimizedAffinity>  (1) 
-5.04546547

>  <minimizedRMSD>  (1) 
3.78231359

$$$$
