
     RDKit          3D

 34 36  0  0  0  0  0  0  0  0999 V2000
   37.6120   22.2690   34.7620 C   0  0  0  0  0  0  0  0  0  0  0  0
   36.6120   21.3070   34.6600 C   0  0  0  0  0  0  0  0  0  0  0  0
   36.1850   21.2380   33.3630 C   0  0  0  0  0  0  0  0  0  0  0  0
   36.9520   22.1760   32.7070 C   0  0  0  0  0  0  0  0  0  0  0  0
   37.7940   22.7740   33.5740 O   0  0  0  0  0  0  0  0  0  0  0  0
   38.2540   22.5590   36.0360 C   0  0  0  0  0  0  0  0  0  0  0  0
   39.5870   22.2900   36.3200 C   0  0  0  0  0  0  0  0  0  0  0  0
   40.0840   22.6120   37.5740 C   0  0  0  0  0  0  0  0  0  0  0  0
   39.2480   23.1770   38.4680 N   0  0  0  0  0  0  0  0  0  0  0  0
   37.9560   23.4340   38.1830 C   0  0  0  0  0  0  0  0  0  0  0  0
   37.4680   23.1230   36.9690 N   0  0  0  0  0  0  0  0  0  0  0  0
   35.1500   20.3800   32.7490 C   0  0  0  0  0  0  0  0  0  0  0  0
   35.5390   18.9000   32.7910 C   0  0  0  0  0  0  0  0  0  0  0  0
   36.0610   18.4660   31.5140 N   0  0  0  0  0  0  0  0  0  0  0  0
   36.2650   19.2850   30.4560 C   0  0  0  0  0  0  0  0  0  0  0  0
   36.7760   18.7500   29.2700 C   0  0  0  0  0  0  0  0  0  0  0  0
   37.0490   17.3980   29.2420 C   0  0  0  0  0  0  0  0  0  0  0  0
   37.5700   16.8470   28.0370 N   0  0  0  0  0  0  0  0  0  0  0  0
   36.8390   16.5890   30.3120 N   0  0  0  0  0  0  0  0  0  0  0  0
   36.3390   17.1450   31.4550 C   0  0  0  0  0  0  0  0  0  0  0  0
   36.1710   16.3350   32.4040 O   0  0  0  0  0  0  0  0  0  0  0  0
   36.2261   20.6984   35.4911 H   0  0  0  0  0  0  0  0  0  0  0  0
   36.8870   22.4038   31.6328 H   0  0  0  0  0  0  0  0  0  0  0  0
   40.2378   21.8290   35.5624 H   0  0  0  0  0  0  0  0  0  0  0  0
   41.1342   22.4114   37.8327 H   0  0  0  0  0  0  0  0  0  0  0  0
   37.3042   23.8957   38.9393 H   0  0  0  0  0  0  0  0  0  0  0  0
   35.0132   20.6824   31.7003 H   0  0  0  0  0  0  0  0  0  0  0  0
   34.2191   20.5049   33.3216 H   0  0  0  0  0  0  0  0  0  0  0  0
   36.3081   18.7518   33.5634 H   0  0  0  0  0  0  0  0  0  0  0  0
   34.6416   18.3077   33.0229 H   0  0  0  0  0  0  0  0  0  0  0  0
   36.0318   20.3575   30.5285 H   0  0  0  0  0  0  0  0  0  0  0  0
   36.9543   19.3849   28.3896 H   0  0  0  0  0  0  0  0  0  0  0  0
   37.7850   15.8412   27.9814 H   0  0  0  0  0  0  0  0  0  0  0  0
   37.7319   17.4542   27.2209 H   0  0  0  0  0  0  0  0  0  0  0  0
  1  6  1  0
  2  1  2  0
  3  2  1  0
  4  3  2  0
  4  5  1  0
  5  1  1  0
  6  7  2  0
  6 11  1  0
  7  8  1  0
  8  9  2  0
 10  9  1  0
 11 10  2  0
 12 13  1  0
 12  3  1  0
 14 13  1  0
 15 14  1  0
 16 15  2  0
 17 16  1  0
 17 19  2  0
 18 17  1  0
 19 20  1  0
 20 14  1  0
 20 21  2  0
  2 22  1  0
  4 23  1  0
  7 24  1  0
  8 25  1  0
 10 26  1  0
 12 27  1  0
 12 28  1  0
 13 29  1  0
 13 30  1  0
 15 31  1  0
 16 32  1  0
 18 33  1  0
 18 34  1  0
M  ISO  8  22  14  23  14  24  14  25  14  26  14  27   8  28   8  29   8
M  ISO  3  30   8  31  14  32  14
M  END
>  <minimizedAffinity>  (1) 
-4.81673336

>  <minimizedRMSD>  (1) 
2.50625968

$$$$
