
     RDKit          3D

 30 32  0  0  0  0  0  0  0  0999 V2000
   38.0650   23.8430   34.6190 C   0  0  0  0  0  0  0  0  0  0  0  0
   37.8390   22.8070   33.7210 C   0  0  0  0  0  0  0  0  0  0  0  0
   37.4560   23.3290   32.5060 C   0  0  0  0  0  0  0  0  0  0  0  0
   37.4680   24.6940   32.7290 C   0  0  0  0  0  0  0  0  0  0  0  0
   37.8330   24.9650   33.9940 O   0  0  0  0  0  0  0  0  0  0  0  0
   38.4830   23.5950   35.9900 C   0  0  0  0  0  0  0  0  0  0  0  0
   39.6430   22.9200   36.3550 C   0  0  0  0  0  0  0  0  0  0  0  0
   39.9210   22.7530   37.6950 C   0  0  0  0  0  0  0  0  0  0  0  0
   39.0620   23.2480   38.6170 N   0  0  0  0  0  0  0  0  0  0  0  0
   37.9370   23.9030   38.2500 C   0  0  0  0  0  0  0  0  0  0  0  0
   37.6520   24.0730   36.9440 N   0  0  0  0  0  0  0  0  0  0  0  0
   37.1100   22.6400   31.2510 C   0  0  0  0  0  0  0  0  0  0  0  0
   35.6590   22.1490   31.2690 C   0  0  0  0  0  0  0  0  0  0  0  0
   35.6680   20.7380   31.6640 C   0  0  0  0  0  0  0  0  0  0  0  0
   35.2240   20.0490   32.7230 C   0  0  0  0  0  0  0  0  0  0  0  0
   35.3630   18.7020   32.8450 C   0  0  0  0  0  0  0  0  0  0  0  0
   36.0570   18.0730   31.6850 C   0  0  0  0  0  0  0  0  0  0  0  0
   36.4030   19.5540   30.5880 S   0  0  0  0  0  0  0  0  0  0  0  0
   37.9490   21.7359   33.9460 H   0  0  0  0  0  0  0  0  0  0  0  0
   37.2138   25.4534   31.9749 H   0  0  0  0  0  0  0  0  0  0  0  0
   40.3264   22.5264   35.5882 H   0  0  0  0  0  0  0  0  0  0  0  0
   40.8314   22.2230   38.0118 H   0  0  0  0  0  0  0  0  0  0  0  0
   37.2547   24.2969   39.0176 H   0  0  0  0  0  0  0  0  0  0  0  0
   37.7790   21.7768   31.1196 H   0  0  0  0  0  0  0  0  0  0  0  0
   37.2261   23.3515   30.4202 H   0  0  0  0  0  0  0  0  0  0  0  0
   35.0743   22.7363   31.9923 H   0  0  0  0  0  0  0  0  0  0  0  0
   35.2014   22.2668   30.2757 H   0  0  0  0  0  0  0  0  0  0  0  0
   34.7228   20.5992   33.5330 H   0  0  0  0  0  0  0  0  0  0  0  0
   34.9995   18.1328   33.7133 H   0  0  0  0  0  0  0  0  0  0  0  0
   36.3025   17.0141   31.5163 H   0  0  0  0  0  0  0  0  0  0  0  0
  1  6  1  0
  2  1  2  0
  3  4  2  0
  3  2  1  0
  4  5  1  0
  5  1  1  0
  6  7  2  0
  6 11  1  0
  7  8  1  0
  8  9  2  0
 10  9  1  0
 11 10  2  0
 12 13  1  0
 12  3  1  0
 13 14  1  0
 14 15  2  0
 15 16  1  0
 17 16  2  0
 18 14  1  0
 18 17  1  0
  2 19  1  0
  4 20  1  0
  7 21  1  0
  8 22  1  0
 10 23  1  0
 12 24  1  0
 12 25  1  0
 13 26  1  0
 13 27  1  0
 15 28  1  0
 16 29  1  0
 17 30  1  0
M  ISO  8  19  14  20  14  21  14  22  14  23  14  24   8  25   8  26   8
M  ISO  4  27   8  28  14  29  14  30  14
M  END
>  <minimizedAffinity>  (1) 
-4.7906518

>  <minimizedRMSD>  (1) 
2.44609499

$$$$
