
     RDKit          3D

 33 35  0  0  0  0  0  0  0  0999 V2000
   38.6880   22.1100   34.5800 C   0  0  0  0  0  0  0  0  0  0  0  0
   37.4610   22.1190   33.9300 C   0  0  0  0  0  0  0  0  0  0  0  0
   37.6210   21.7040   32.6450 C   0  0  0  0  0  0  0  0  0  0  0  0
   38.9620   21.4490   32.5410 C   0  0  0  0  0  0  0  0  0  0  0  0
   39.5730   21.7010   33.7140 O   0  0  0  0  0  0  0  0  0  0  0  0
   38.8330   22.5070   35.9710 C   0  0  0  0  0  0  0  0  0  0  0  0
   40.0290   22.3880   36.6940 C   0  0  0  0  0  0  0  0  0  0  0  0
   40.0370   22.8040   38.0220 C   0  0  0  0  0  0  0  0  0  0  0  0
   38.8980   23.3010   38.5540 N   0  0  0  0  0  0  0  0  0  0  0  0
   37.7620   23.4050   37.8360 C   0  0  0  0  0  0  0  0  0  0  0  0
   37.7150   23.0120   36.5480 N   0  0  0  0  0  0  0  0  0  0  0  0
   36.6120   21.5510   31.5820 C   0  0  0  0  0  0  0  0  0  0  0  0
   37.0120   20.4880   30.5450 C   0  0  0  0  0  0  0  0  0  0  0  0
   36.6320   19.2050   31.1220 N   0  0  0  0  0  0  0  0  0  0  0  0
   35.4820   19.2580   31.8220 C   0  0  0  0  0  0  0  0  0  0  0  0
   34.9960   18.1150   32.4270 C   0  0  0  0  0  0  0  0  0  0  0  0
   35.7330   16.9580   32.2780 C   0  0  0  0  0  0  0  0  0  0  0  0
   35.2830   15.9270   32.8320 O   0  0  0  0  0  0  0  0  0  0  0  0
   36.8940   16.9390   31.5630 N   0  0  0  0  0  0  0  0  0  0  0  0
   37.3540   18.0790   30.9740 C   0  0  0  0  0  0  0  0  0  0  0  0
   38.4190   18.1240   30.3020 O   0  0  0  0  0  0  0  0  0  0  0  0
   36.5049   22.4166   34.3853 H   0  0  0  0  0  0  0  0  0  0  0  0
   39.4667   21.0905   31.6317 H   0  0  0  0  0  0  0  0  0  0  0  0
   40.9351   21.9774   36.2246 H   0  0  0  0  0  0  0  0  0  0  0  0
   40.9526   22.7298   38.6272 H   0  0  0  0  0  0  0  0  0  0  0  0
   36.8587   23.8174   38.3092 H   0  0  0  0  0  0  0  0  0  0  0  0
   35.6570   21.2555   32.0409 H   0  0  0  0  0  0  0  0  0  0  0  0
   36.5257   22.5149   31.0591 H   0  0  0  0  0  0  0  0  0  0  0  0
   38.0964   20.5197   30.3632 H   0  0  0  0  0  0  0  0  0  0  0  0
   36.5154   20.6594   29.5785 H   0  0  0  0  0  0  0  0  0  0  0  0
   34.9327   20.2068   31.9114 H   0  0  0  0  0  0  0  0  0  0  0  0
   34.0596   18.1268   33.0040 H   0  0  0  0  0  0  0  0  0  0  0  0
   37.4245   16.0613   31.4678 H   0  0  0  0  0  0  0  0  0  0  0  0
  1  6  1  0
  2  1  2  0
  3  2  1  0
  4  3  2  0
  4  5  1  0
  5  1  1  0
  6 11  1  0
  6  7  2  0
  7  8  1  0
  8  9  2  0
 10  9  1  0
 11 10  2  0
 12  3  1  0
 13 14  1  0
 13 12  1  0
 14 15  1  0
 15 16  2  0
 17 16  1  0
 17 18  2  0
 19 17  1  0
 20 14  1  0
 20 19  1  0
 21 20  2  0
  2 22  1  0
  4 23  1  0
  7 24  1  0
  8 25  1  0
 10 26  1  0
 12 27  1  0
 12 28  1  0
 13 29  1  0
 13 30  1  0
 15 31  1  0
 16 32  1  0
 19 33  1  0
M  ISO  8  22  14  23  14  24  14  25  14  26  14  27   8  28   8  29   8
M  ISO  4  30   8  31  14  32  14  33   9
M  END
>  <minimizedAffinity>  (1) 
-4.4408164

>  <minimizedRMSD>  (1) 
2.82605529

$$$$
