
     RDKit          3D

 36 38  0  0  0  0  0  0  0  0999 V2000
   37.5940   22.2740   34.7620 C   0  0  0  0  0  0  0  0  0  0  0  0
   36.6350   21.2780   34.6370 C   0  0  0  0  0  0  0  0  0  0  0  0
   36.2280   21.2300   33.3160 C   0  0  0  0  0  0  0  0  0  0  0  0
   36.9720   22.2160   32.6980 C   0  0  0  0  0  0  0  0  0  0  0  0
   37.7640   22.8040   33.5950 O   0  0  0  0  0  0  0  0  0  0  0  0
   38.2180   22.5690   36.0420 C   0  0  0  0  0  0  0  0  0  0  0  0
   39.5610   22.3130   36.3450 C   0  0  0  0  0  0  0  0  0  0  0  0
   40.0470   22.6320   37.5890 C   0  0  0  0  0  0  0  0  0  0  0  0
   39.1940   23.1940   38.4990 N   0  0  0  0  0  0  0  0  0  0  0  0
   37.8980   23.4360   38.1930 C   0  0  0  0  0  0  0  0  0  0  0  0
   37.3990   23.1290   36.9750 N   0  0  0  0  0  0  0  0  0  0  0  0
   35.2180   20.3270   32.6980 C   0  0  0  0  0  0  0  0  0  0  0  0
   35.7130   18.8930   32.6380 C   0  0  0  0  0  0  0  0  0  0  0  0
   36.5200   18.7590   31.4940 N   0  0  0  0  0  0  0  0  0  0  0  0
   37.8230   18.2510   31.6110 C   0  0  0  0  0  0  0  0  0  0  0  0
   38.1460   17.4380   30.3740 C   0  0  0  0  0  0  0  0  0  0  0  0
   37.1280   17.4530   29.4290 O   0  0  0  0  0  0  0  0  0  0  0  0
   36.7160   18.7510   29.1230 C   0  0  0  0  0  0  0  0  0  0  0  0
   36.2050   19.5030   30.3370 C   0  0  0  0  0  0  0  0  0  0  0  0
   36.2626   20.6368   35.4495 H   0  0  0  0  0  0  0  0  0  0  0  0
   36.9192   22.4760   31.6305 H   0  0  0  0  0  0  0  0  0  0  0  0
   40.2220   21.8595   35.5917 H   0  0  0  0  0  0  0  0  0  0  0  0
   41.0987   22.4400   37.8481 H   0  0  0  0  0  0  0  0  0  0  0  0
   37.2397   23.8902   38.9483 H   0  0  0  0  0  0  0  0  0  0  0  0
   34.2952   20.3614   33.2957 H   0  0  0  0  0  0  0  0  0  0  0  0
   35.0329   20.6705   31.6695 H   0  0  0  0  0  0  0  0  0  0  0  0
   36.3012   18.6632   33.5387 H   0  0  0  0  0  0  0  0  0  0  0  0
   34.8625   18.1970   32.5892 H   0  0  0  0  0  0  0  0  0  0  0  0
   38.5368   19.0829   31.7028 H   0  0  0  0  0  0  0  0  0  0  0  0
   37.8957   17.6141   32.5049 H   0  0  0  0  0  0  0  0  0  0  0  0
   39.0567   17.8486   29.9136 H   0  0  0  0  0  0  0  0  0  0  0  0
   38.2799   16.3942   30.6942 H   0  0  0  0  0  0  0  0  0  0  0  0
   37.5701   19.3014   28.7016 H   0  0  0  0  0  0  0  0  0  0  0  0
   35.8866   18.6762   28.4044 H   0  0  0  0  0  0  0  0  0  0  0  0
   36.6854   20.4912   30.3899 H   0  0  0  0  0  0  0  0  0  0  0  0
   35.1160   19.6392   30.2632 H   0  0  0  0  0  0  0  0  0  0  0  0
  1  6  1  0
  2  1  2  0
  3  2  1  0
  4  3  2  0
  4  5  1  0
  5  1  1  0
  6  7  2  0
  6 11  1  0
  7  8  1  0
  8  9  2  0
 10  9  1  0
 11 10  2  0
 12  3  1  0
 13 12  1  0
 14 15  1  0
 14 13  1  0
 16 15  1  0
 17 16  1  0
 18 17  1  0
 18 19  1  0
 19 14  1  0
  2 20  1  0
  4 21  1  0
  7 22  1  0
  8 23  1  0
 10 24  1  0
 12 25  1  0
 12 26  1  0
 13 27  1  0
 13 28  1  0
 15 29  1  0
 15 30  1  0
 16 31  1  0
 16 32  1  0
 18 33  1  0
 18 34  1  0
 19 35  1  0
 19 36  1  0
M  ISO  8  20  14  21  14  22  14  23  14  24  14  25   8  26   8  27   8
M  ISO  8  28   8  29  13  30  13  31  13  32  13  33  13  34  13  35  13
M  ISO  1  36  13
M  END
>  <minimizedAffinity>  (1) 
-4.38696575

>  <minimizedRMSD>  (1) 
0.843638003

$$$$
