
     RDKit          3D

 31 33  0  0  0  0  0  0  0  0999 V2000
   38.2660   22.0370   34.6430 C   0  0  0  0  0  0  0  0  0  0  0  0
   36.9400   21.7460   34.3280 C   0  0  0  0  0  0  0  0  0  0  0  0
   36.8440   21.4180   33.0100 C   0  0  0  0  0  0  0  0  0  0  0  0
   38.1360   21.5200   32.5510 C   0  0  0  0  0  0  0  0  0  0  0  0
   38.9590   21.8920   33.5490 O   0  0  0  0  0  0  0  0  0  0  0  0
   38.6770   22.4220   35.9790 C   0  0  0  0  0  0  0  0  0  0  0  0
   39.9460   22.2390   36.5080 C   0  0  0  0  0  0  0  0  0  0  0  0
   40.2010   22.6570   37.8050 C   0  0  0  0  0  0  0  0  0  0  0  0
   39.1960   23.2320   38.5140 N   0  0  0  0  0  0  0  0  0  0  0  0
   37.9620   23.4030   37.9850 C   0  0  0  0  0  0  0  0  0  0  0  0
   37.7190   22.9990   36.7330 N   0  0  0  0  0  0  0  0  0  0  0  0
   35.6850   21.0330   32.1830 C   0  0  0  0  0  0  0  0  0  0  0  0
   35.2350   19.5900   32.4740 C   0  0  0  0  0  0  0  0  0  0  0  0
   35.8810   18.7080   31.4580 C   0  0  0  0  0  0  0  0  0  0  0  0
   36.3770   19.1110   30.2440 C   0  0  0  0  0  0  0  0  0  0  0  0
   36.9550   18.1760   29.3900 C   0  0  0  0  0  0  0  0  0  0  0  0
   37.0310   16.8720   29.7560 N   0  0  0  0  0  0  0  0  0  0  0  0
   36.5380   16.4860   30.9580 C   0  0  0  0  0  0  0  0  0  0  0  0
   35.9740   17.3920   31.7910 N   0  0  0  0  0  0  0  0  0  0  0  0
   36.0990   21.7766   35.0363 H   0  0  0  0  0  0  0  0  0  0  0  0
   38.4521   21.3253   31.5155 H   0  0  0  0  0  0  0  0  0  0  0  0
   40.7386   21.7690   35.9072 H   0  0  0  0  0  0  0  0  0  0  0  0
   41.1979   22.5254   38.2509 H   0  0  0  0  0  0  0  0  0  0  0  0
   37.1643   23.8710   38.5805 H   0  0  0  0  0  0  0  0  0  0  0  0
   35.9616   21.1133   31.1214 H   0  0  0  0  0  0  0  0  0  0  0  0
   34.8510   21.7085   32.4241 H   0  0  0  0  0  0  0  0  0  0  0  0
   35.5518   19.2939   33.4849 H   0  0  0  0  0  0  0  0  0  0  0  0
   34.1395   19.5064   32.4208 H   0  0  0  0  0  0  0  0  0  0  0  0
   36.3182   20.1684   29.9468 H   0  0  0  0  0  0  0  0  0  0  0  0
   37.3515   18.4956   28.4150 H   0  0  0  0  0  0  0  0  0  0  0  0
   36.5965   15.4295   31.2588 H   0  0  0  0  0  0  0  0  0  0  0  0
  1  6  1  0
  2  1  2  0
  3  2  1  0
  4  3  2  0
  4  5  1  0
  5  1  1  0
  6  7  2  0
  6 11  1  0
  7  8  1  0
  8  9  2  0
 10  9  1  0
 11 10  2  0
 12 13  1  0
 12  3  1  0
 14 19  1  0
 14 13  1  0
 15 14  2  0
 16 17  2  0
 16 15  1  0
 17 18  1  0
 18 19  2  0
  2 20  1  0
  4 21  1  0
  7 22  1  0
  8 23  1  0
 10 24  1  0
 12 25  1  0
 12 26  1  0
 13 27  1  0
 13 28  1  0
 15 29  1  0
 16 30  1  0
 18 31  1  0
M  ISO  8  20  14  21  14  22  14  23  14  24  14  25   8  26   8  27   8
M  ISO  4  28   8  29  14  30  14  31  14
M  END
>  <minimizedAffinity>  (1) 
-4.38839149

>  <minimizedRMSD>  (1) 
2.12840724

$$$$
