
     RDKit          3D

 30 32  0  0  0  0  0  0  0  0999 V2000
   38.4500   21.9990   34.4300 C   0  0  0  0  0  0  0  0  0  0  0  0
   37.1800   22.0980   33.8680 C   0  0  0  0  0  0  0  0  0  0  0  0
   37.2400   21.6420   32.5650 C   0  0  0  0  0  0  0  0  0  0  0  0
   38.5460   21.2850   32.3970 C   0  0  0  0  0  0  0  0  0  0  0  0
   39.2240   21.5120   33.5240 O   0  0  0  0  0  0  0  0  0  0  0  0
   38.7110   22.4040   35.7970 C   0  0  0  0  0  0  0  0  0  0  0  0
   39.9280   22.2440   36.4550 C   0  0  0  0  0  0  0  0  0  0  0  0
   40.0600   22.6690   37.7640 C   0  0  0  0  0  0  0  0  0  0  0  0
   38.9910   23.2330   38.3650 N   0  0  0  0  0  0  0  0  0  0  0  0
   37.8130   23.3890   37.7300 C   0  0  0  0  0  0  0  0  0  0  0  0
   37.6820   22.9720   36.4510 N   0  0  0  0  0  0  0  0  0  0  0  0
   36.1170   21.5640   31.5810 C   0  0  0  0  0  0  0  0  0  0  0  0
   35.0270   20.6000   32.0380 C   0  0  0  0  0  0  0  0  0  0  0  0
   35.4800   19.2290   31.9130 N   0  0  0  0  0  0  0  0  0  0  0  0
   35.2580   18.2130   32.7270 N   0  0  0  0  0  0  0  0  0  0  0  0
   35.8440   17.0860   32.2790 C   0  0  0  0  0  0  0  0  0  0  0  0
   36.4860   17.3880   31.1000 C   0  0  0  0  0  0  0  0  0  0  0  0
   36.2430   18.7360   30.8940 C   0  0  0  0  0  0  0  0  0  0  0  0
   36.2803   22.4757   34.3758 H   0  0  0  0  0  0  0  0  0  0  0  0
   38.9754   20.8723   31.4722 H   0  0  0  0  0  0  0  0  0  0  0  0
   40.7803   21.7816   35.9356 H   0  0  0  0  0  0  0  0  0  0  0  0
   41.0121   22.5505   38.3021 H   0  0  0  0  0  0  0  0  0  0  0  0
   36.9621   23.8534   38.2499 H   0  0  0  0  0  0  0  0  0  0  0  0
   36.5141   21.2197   30.6146 H   0  0  0  0  0  0  0  0  0  0  0  0
   35.6712   22.5657   31.4921 H   0  0  0  0  0  0  0  0  0  0  0  0
   34.7793   20.8054   33.0899 H   0  0  0  0  0  0  0  0  0  0  0  0
   34.1380   20.7410   31.4057 H   0  0  0  0  0  0  0  0  0  0  0  0
   35.8146   16.1010   32.7679 H   0  0  0  0  0  0  0  0  0  0  0  0
   37.0662   16.7069   30.4601 H   0  0  0  0  0  0  0  0  0  0  0  0
   36.6097   19.3213   30.0379 H   0  0  0  0  0  0  0  0  0  0  0  0
  1  6  1  0
  2  1  2  0
  3  2  1  0
  4  3  2  0
  4  5  1  0
  5  1  1  0
  6 11  1  0
  6  7  2  0
  7  8  1  0
  8  9  2  0
 10  9  1  0
 11 10  2  0
 12 13  1  0
 12  3  1  0
 14 13  1  0
 14 15  1  0
 16 15  2  0
 17 16  1  0
 18 17  2  0
 18 14  1  0
  2 19  1  0
  4 20  1  0
  7 21  1  0
  8 22  1  0
 10 23  1  0
 12 24  1  0
 12 25  1  0
 13 26  1  0
 13 27  1  0
 16 28  1  0
 17 29  1  0
 18 30  1  0
M  ISO  8  19  14  20  14  21  14  22  14  23  14  24   8  25   8  26   8
M  ISO  4  27   8  28  14  29  14  30  14
M  END
>  <minimizedAffinity>  (1) 
-4.31778622

>  <minimizedRMSD>  (1) 
1.8523165

$$$$
