
     RDKit          3D

 43 46  0  0  1  0  0  0  0  0999 V2000
   39.2210   24.0420   35.4930 C   0  0  1  0  0  0  0  0  0  0  0  0
   38.4160   24.4080   36.7080 C   0  0  0  0  0  0  0  0  0  0  0  0
   38.6120   23.2380   37.6210 C   0  0  0  0  0  0  0  0  0  0  0  0
   40.0470   22.8420   37.4120 C   0  0  0  0  0  0  0  0  0  0  0  0
   40.3830   23.2470   36.0260 C   0  0  2  0  0  0  0  0  0  0  0  0
   37.8490   23.7220   33.4430 C   0  0  0  0  0  0  0  0  0  0  0  0
   37.1510   22.7100   32.7900 C   0  0  0  0  0  0  0  0  0  0  0  0
   37.3200   21.6050   33.5720 N   0  0  0  0  0  0  0  0  0  0  0  0
   38.0770   21.9800   34.6120 C   0  0  0  0  0  0  0  0  0  0  0  0
   38.4210   23.2800   34.5640 N   0  0  0  0  0  0  0  0  0  0  0  0
   37.9630   25.1100   32.9830 C   0  0  0  0  0  0  0  0  0  0  0  0
   39.0250   25.4720   32.1340 C   0  0  0  0  0  0  0  0  0  0  0  0
   39.0600   26.8240   31.7400 C   0  0  0  0  0  0  0  0  0  0  0  0
   38.1110   27.6720   32.1790 N   0  0  0  0  0  0  0  0  0  0  0  0
   37.1120   27.2710   32.9930 C   0  0  0  0  0  0  0  0  0  0  0  0
   37.0220   25.9880   33.4080 N   0  0  0  0  0  0  0  0  0  0  0  0
   41.6420   23.9320   35.9580 N   0  0  0  0  0  0  0  0  0  0  0  0
   42.7790   23.1000   36.1740 C   0  0  0  0  0  0  0  0  0  0  0  0
   43.8430   24.0390   36.7640 C   0  0  0  0  0  0  0  0  0  0  0  0
   43.9090   25.2160   36.0490 O   0  0  0  0  0  0  0  0  0  0  0  0
   43.2790   25.1690   34.8060 C   0  0  0  0  0  0  0  0  0  0  0  0
   41.7690   24.9440   34.9740 C   0  0  0  0  0  0  0  0  0  0  0  0
   39.5656   24.9223   34.9306 H   0  0  0  0  0  0  0  0  0  0  0  0
   38.7950   25.3330   37.1670 H   0  0  0  0  0  0  0  0  0  0  0  0
   37.3575   24.6008   36.4791 H   0  0  0  0  0  0  0  0  0  0  0  0
   38.4356   23.5264   38.6678 H   0  0  0  0  0  0  0  0  0  0  0  0
   37.9131   22.4158   37.4075 H   0  0  0  0  0  0  0  0  0  0  0  0
   40.6963   23.3632   38.1309 H   0  0  0  0  0  0  0  0  0  0  0  0
   40.1941   21.7625   37.5640 H   0  0  0  0  0  0  0  0  0  0  0  0
   40.5287   22.3657   35.3840 H   0  0  0  0  0  0  0  0  0  0  0  0
   36.5864   22.7849   31.8489 H   0  0  0  0  0  0  0  0  0  0  0  0
   38.3843   21.2982   35.4186 H   0  0  0  0  0  0  0  0  0  0  0  0
   39.7800   24.7454   31.7992 H   0  0  0  0  0  0  0  0  0  0  0  0
   39.8594   27.1854   31.0764 H   0  0  0  0  0  0  0  0  0  0  0  0
   36.3584   28.0007   33.3242 H   0  0  0  0  0  0  0  0  0  0  0  0
   42.5397   22.2920   36.8810 H   0  0  0  0  0  0  0  0  0  0  0  0
   43.1205   22.6134   35.2485 H   0  0  0  0  0  0  0  0  0  0  0  0
   43.5841   24.2659   37.8087 H   0  0  0  0  0  0  0  0  0  0  0  0
   44.8217   23.5396   36.7114 H   0  0  0  0  0  0  0  0  0  0  0  0
   43.7042   24.3436   34.2161 H   0  0  0  0  0  0  0  0  0  0  0  0
   43.4398   26.1272   34.2903 H   0  0  0  0  0  0  0  0  0  0  0  0
   41.2778   25.8694   35.3092 H   0  0  0  0  0  0  0  0  0  0  0  0
   41.2928   24.6524   34.0262 H   0  0  0  0  0  0  0  0  0  0  0  0
  1  5  1  0
  1  2  1  0
  2  3  1  0
  4  3  1  0
  5  4  1  0
  6 10  1  0
  7  6  2  0
  7  8  1  0
  8  9  2  0
 10  9  1  0
 10  1  1  0
 11 16  1  0
 11  6  1  0
 12 11  2  0
 13 12  1  0
 13 14  2  0
 14 15  1  0
 15 16  2  0
 17  5  1  0
 17 18  1  0
 18 19  1  0
 20 19  1  0
 21 22  1  0
 21 20  1  0
 22 17  1  0
  1 23  1  6
  2 24  1  0
  2 25  1  0
  3 26  1  0
  3 27  1  0
  4 28  1  0
  4 29  1  0
  5 30  1  6
  7 31  1  0
  9 32  1  0
 12 33  1  0
 13 34  1  0
 15 35  1  0
 18 36  1  0
 18 37  1  0
 19 38  1  0
 19 39  1  0
 21 40  1  0
 21 41  1  0
 22 42  1  0
 22 43  1  0
M  ISO  8  23  13  24  13  25  13  26  13  27  13  28  13  29  13  30  13
M  ISO  8  31  14  32  14  33  14  34  14  35  14  36  13  37  13  38  13
M  ISO  5  39  13  40  13  41  13  42  13  43  13
M  END
>  <minimizedAffinity>  (1) 
-4.82659817

>  <minimizedRMSD>  (1) 
1.27481961

$$$$
