
     RDKit          3D

 28 30  0  0  0  0  0  0  0  0999 V2000
   37.6440   22.1780   34.7930 C   0  0  0  0  0  0  0  0  0  0  0  0
   36.5910   21.2980   34.6960 C   0  0  0  0  0  0  0  0  0  0  0  0
   36.1860   21.1760   33.3960 C   0  0  0  0  0  0  0  0  0  0  0  0
   37.0500   22.0250   32.7280 C   0  0  0  0  0  0  0  0  0  0  0  0
   37.8980   22.6010   33.5840 O   0  0  0  0  0  0  0  0  0  0  0  0
   38.2820   22.5070   36.0520 C   0  0  0  0  0  0  0  0  0  0  0  0
   39.6110   22.2790   36.3550 C   0  0  0  0  0  0  0  0  0  0  0  0
   40.1080   22.6390   37.5970 C   0  0  0  0  0  0  0  0  0  0  0  0
   39.2620   23.2080   38.4820 N   0  0  0  0  0  0  0  0  0  0  0  0
   37.9590   23.4300   38.1790 C   0  0  0  0  0  0  0  0  0  0  0  0
   37.4620   23.0840   36.9720 N   0  0  0  0  0  0  0  0  0  0  0  0
   35.1150   20.3680   32.7870 C   0  0  0  0  0  0  0  0  0  0  0  0
   35.5040   18.8860   32.7140 C   0  0  0  0  0  0  0  0  0  0  0  0
   36.0770   18.5460   31.4060 C   0  0  0  0  0  0  0  0  0  0  0  0
   36.5490   17.3560   30.9950 N   0  0  0  0  0  0  0  0  0  0  0  0
   36.9810   17.4330   29.7660 O   0  0  0  0  0  0  0  0  0  0  0  0
   36.8090   18.6690   29.3210 C   0  0  0  0  0  0  0  0  0  0  0  0
   36.2430   19.3660   30.3480 N   0  0  0  0  0  0  0  0  0  0  0  0
   36.1381   20.7666   35.5460 H   0  0  0  0  0  0  0  0  0  0  0  0
   37.0400   22.2013   31.6423 H   0  0  0  0  0  0  0  0  0  0  0  0
   40.2733   21.8123   35.6110 H   0  0  0  0  0  0  0  0  0  0  0  0
   41.1632   22.4660   37.8551 H   0  0  0  0  0  0  0  0  0  0  0  0
   37.2993   23.8973   38.9250 H   0  0  0  0  0  0  0  0  0  0  0  0
   34.2023   20.4689   33.3926 H   0  0  0  0  0  0  0  0  0  0  0  0
   34.9465   20.7323   31.7629 H   0  0  0  0  0  0  0  0  0  0  0  0
   36.2468   18.6721   33.4966 H   0  0  0  0  0  0  0  0  0  0  0  0
   34.5963   18.2824   32.8616 H   0  0  0  0  0  0  0  0  0  0  0  0
   37.0699   19.0552   28.3246 H   0  0  0  0  0  0  0  0  0  0  0  0
  1  6  1  0
  2  1  2  0
  3  2  1  0
  4  3  2  0
  4  5  1  0
  5  1  1  0
  6  7  2  0
  6 11  1  0
  7  8  1  0
  8  9  2  0
 10  9  1  0
 11 10  2  0
 12  3  1  0
 13 12  1  0
 14 13  1  0
 15 14  2  0
 16 15  1  0
 17 16  1  0
 17 18  2  0
 18 14  1  0
  2 19  1  0
  4 20  1  0
  7 21  1  0
  8 22  1  0
 10 23  1  0
 12 24  1  0
 12 25  1  0
 13 26  1  0
 13 27  1  0
 17 28  1  0
M  ISO  8  19  14  20  14  21  14  22  14  23  14  24   8  25   8  26   8
M  ISO  2  27   8  28  14
M  END
>  <minimizedAffinity>  (1) 
-4.52861309

>  <minimizedRMSD>  (1) 
0.916661918

$$$$
