
     RDKit          3D

 44 48  0  0  0  0  0  0  0  0999 V2000
   35.1500   20.3410   32.6620 C   0  0  0  0  0  0  0  0  0  0  0  0
   37.5970   22.1510   34.7550 C   0  0  0  0  0  0  0  0  0  0  0  0
   36.5590   21.2650   34.6280 C   0  0  0  0  0  0  0  0  0  0  0  0
   36.1920   21.1490   33.3120 C   0  0  0  0  0  0  0  0  0  0  0  0
   37.0590   22.0030   32.6670 C   0  0  0  0  0  0  0  0  0  0  0  0
   37.8830   22.5860   33.5470 O   0  0  0  0  0  0  0  0  0  0  0  0
   38.2090   22.4870   36.0240 C   0  0  0  0  0  0  0  0  0  0  0  0
   39.5420   22.3020   36.3440 C   0  0  0  0  0  0  0  0  0  0  0  0
   40.0080   22.6650   37.5900 C   0  0  0  0  0  0  0  0  0  0  0  0
   39.1250   23.1990   38.4750 N   0  0  0  0  0  0  0  0  0  0  0  0
   37.8250   23.3750   38.1500 C   0  0  0  0  0  0  0  0  0  0  0  0
   37.3610   23.0250   36.9360 N   0  0  0  0  0  0  0  0  0  0  0  0
   35.4740   18.8350   32.7740 C   0  0  0  0  0  0  0  0  0  0  0  0
   36.1230   18.3300   31.5630 C   0  0  0  0  0  0  0  0  0  0  0  0
   36.3210   17.0760   31.1640 N   0  0  0  0  0  0  0  0  0  0  0  0
   36.9340   17.0420   30.0250 O   0  0  0  0  0  0  0  0  0  0  0  0
   37.1780   18.2560   29.5990 C   0  0  0  0  0  0  0  0  0  0  0  0
   36.6630   19.0430   30.5760 N   0  0  0  0  0  0  0  0  0  0  0  0
   37.8020   18.9120   28.4560 C   0  0  0  0  0  0  0  0  0  0  0  0
   39.0080   19.5800   28.5020 C   0  0  0  0  0  0  0  0  0  0  0  0
   39.5800   20.1890   27.4270 C   0  0  0  0  0  0  0  0  0  0  0  0
   38.9660   20.1700   26.1980 C   0  0  0  0  0  0  0  0  0  0  0  0
   37.7600   19.5180   26.1000 C   0  0  0  0  0  0  0  0  0  0  0  0
   37.1720   19.5160   24.8620 C   0  0  0  0  0  0  0  0  0  0  0  0
   35.9610   18.8860   24.6660 C   0  0  0  0  0  0  0  0  0  0  0  0
   35.3790   18.2680   25.7530 C   0  0  0  0  0  0  0  0  0  0  0  0
   36.0210   18.3030   26.9750 C   0  0  0  0  0  0  0  0  0  0  0  0
   37.2140   18.9110   27.2180 C   0  0  0  0  0  0  0  0  0  0  0  0
   35.0888   20.6186   31.5994 H   0  0  0  0  0  0  0  0  0  0  0  0
   34.1903   20.5334   33.1640 H   0  0  0  0  0  0  0  0  0  0  0  0
   36.0879   20.7245   35.4622 H   0  0  0  0  0  0  0  0  0  0  0  0
   37.0727   22.1811   31.5816 H   0  0  0  0  0  0  0  0  0  0  0  0
   40.2299   21.8655   35.6049 H   0  0  0  0  0  0  0  0  0  0  0  0
   41.0652   22.5263   37.8604 H   0  0  0  0  0  0  0  0  0  0  0  0
   37.1360   23.8107   38.8885 H   0  0  0  0  0  0  0  0  0  0  0  0
   36.1457   18.6775   33.6307 H   0  0  0  0  0  0  0  0  0  0  0  0
   34.5284   18.2896   32.9095 H   0  0  0  0  0  0  0  0  0  0  0  0
   39.5391   19.6232   29.4643 H   0  0  0  0  0  0  0  0  0  0  0  0
   40.5457   20.7026   27.5439 H   0  0  0  0  0  0  0  0  0  0  0  0
   39.4228   20.6586   25.3247 H   0  0  0  0  0  0  0  0  0  0  0  0
   37.6689   20.0198   24.0198 H   0  0  0  0  0  0  0  0  0  0  0  0
   35.4767   18.8767   23.6784 H   0  0  0  0  0  0  0  0  0  0  0  0
   34.4131   17.7524   25.6475 H   0  0  0  0  0  0  0  0  0  0  0  0
   35.5287   17.7990   27.8198 H   0  0  0  0  0  0  0  0  0  0  0  0
  1 13  1  0
  1  4  1  0
  2  7  1  0
  3  2  2  0
  4  3  1  0
  5  4  2  0
  5  6  1  0
  6  2  1  0
  7  8  2  0
  7 12  1  0
  8  9  1  0
  9 10  2  0
 11 10  1  0
 12 11  2  0
 14 13  1  0
 15 14  2  0
 16 15  1  0
 17 16  1  0
 17 18  2  0
 18 14  1  0
 19 20  2  0
 19 17  1  0
 21 20  1  0
 22 21  2  0
 23 22  1  0
 23 28  2  0
 24 23  1  0
 25 24  2  0
 25 26  1  0
 26 27  2  0
 27 28  1  0
 28 19  1  0
  1 29  1  0
  1 30  1  0
  3 31  1  0
  5 32  1  0
  8 33  1  0
  9 34  1  0
 11 35  1  0
 13 36  1  0
 13 37  1  0
 20 38  1  0
 21 39  1  0
 22 40  1  0
 24 41  1  0
 25 42  1  0
 26 43  1  0
 27 44  1  0
M  ISO  8  29   8  30   8  31  14  32  14  33  14  34  14  35  14  36   8
M  ISO  8  37   8  38  14  39  14  40  14  41  14  42  14  43  14  44  14
M  END
>  <minimizedAffinity>  (1) 
-5.77264261

>  <minimizedRMSD>  (1) 
0.934358001

$$$$
