
     RDKit          3D

 42 46  0  0  0  0  0  0  0  0999 V2000
   35.1000   20.3430   32.6140 C   0  0  0  0  0  0  0  0  0  0  0  0
   37.5530   22.1770   34.6760 C   0  0  0  0  0  0  0  0  0  0  0  0
   36.5470   21.2520   34.5540 C   0  0  0  0  0  0  0  0  0  0  0  0
   36.1340   21.1730   33.2460 C   0  0  0  0  0  0  0  0  0  0  0  0
   36.9400   22.0890   32.6100 C   0  0  0  0  0  0  0  0  0  0  0  0
   37.7760   22.6730   33.4800 O   0  0  0  0  0  0  0  0  0  0  0  0
   38.2010   22.4910   35.9370 C   0  0  0  0  0  0  0  0  0  0  0  0
   39.5280   22.2540   36.2360 C   0  0  0  0  0  0  0  0  0  0  0  0
   40.0230   22.6020   37.4780 C   0  0  0  0  0  0  0  0  0  0  0  0
   39.1910   23.1670   38.3720 N   0  0  0  0  0  0  0  0  0  0  0  0
   37.8790   23.4000   38.0720 C   0  0  0  0  0  0  0  0  0  0  0  0
   37.4020   23.0600   36.8640 N   0  0  0  0  0  0  0  0  0  0  0  0
   35.4960   18.8540   32.6240 C   0  0  0  0  0  0  0  0  0  0  0  0
   36.1180   18.4670   31.3520 C   0  0  0  0  0  0  0  0  0  0  0  0
   36.4600   17.2360   30.9530 N   0  0  0  0  0  0  0  0  0  0  0  0
   36.9940   17.2750   29.7540 O   0  0  0  0  0  0  0  0  0  0  0  0
   37.0140   18.5220   29.3390 C   0  0  0  0  0  0  0  0  0  0  0  0
   36.4710   19.2690   30.3290 N   0  0  0  0  0  0  0  0  0  0  0  0
   37.5240   19.0080   28.0620 C   0  0  0  0  0  0  0  0  0  0  0  0
   38.7250   19.6570   27.8950 C   0  0  0  0  0  0  0  0  0  0  0  0
   38.7970   19.9240   26.5800 N   0  0  0  0  0  0  0  0  0  0  0  0
   37.7100   19.4790   25.9120 C   0  0  0  0  0  0  0  0  0  0  0  0
   37.2350   19.4580   24.6270 C   0  0  0  0  0  0  0  0  0  0  0  0
   36.0450   18.9090   24.2550 C   0  0  0  0  0  0  0  0  0  0  0  0
   35.2500   18.3290   25.2230 C   0  0  0  0  0  0  0  0  0  0  0  0
   35.6500   18.3080   26.5320 C   0  0  0  0  0  0  0  0  0  0  0  0
   36.8750   18.8850   26.8520 C   0  0  0  0  0  0  0  0  0  0  0  0
   34.9638   20.6709   31.5729 H   0  0  0  0  0  0  0  0  0  0  0  0
   34.1656   20.4583   33.1829 H   0  0  0  0  0  0  0  0  0  0  0  0
   36.1316   20.6599   35.3828 H   0  0  0  0  0  0  0  0  0  0  0  0
   36.9033   22.3119   31.5334 H   0  0  0  0  0  0  0  0  0  0  0  0
   40.1883   21.7901   35.4885 H   0  0  0  0  0  0  0  0  0  0  0  0
   41.0779   22.4205   37.7314 H   0  0  0  0  0  0  0  0  0  0  0  0
   37.2161   23.8642   38.8170 H   0  0  0  0  0  0  0  0  0  0  0  0
   36.2097   18.6770   33.4421 H   0  0  0  0  0  0  0  0  0  0  0  0
   34.5877   18.2505   32.7681 H   0  0  0  0  0  0  0  0  0  0  0  0
   39.4658   19.9039   28.6697 H   0  0  0  0  0  0  0  0  0  0  0  0
   39.5876   20.4105   26.1338 H   0  0  0  0  0  0  0  0  0  0  0  0
   37.8564   19.9152   23.8429 H   0  0  0  0  0  0  0  0  0  0  0  0
   35.7237   18.9275   23.2031 H   0  0  0  0  0  0  0  0  0  0  0  0
   34.2866   17.8797   24.9400 H   0  0  0  0  0  0  0  0  0  0  0  0
   35.0211   17.8482   27.3085 H   0  0  0  0  0  0  0  0  0  0  0  0
  1 13  1  0
  1  4  1  0
  2  7  1  0
  3  2  2  0
  4  3  1  0
  5  4  2  0
  5  6  1  0
  6  2  1  0
  7  8  2  0
  7 12  1  0
  8  9  1  0
  9 10  2  0
 11 10  1  0
 12 11  2  0
 14 13  1  0
 15 14  2  0
 16 15  1  0
 17 16  1  0
 17 18  2  0
 18 14  1  0
 19 17  1  0
 20 19  2  0
 21 20  1  0
 22 21  1  0
 22 27  2  0
 23 22  1  0
 24 23  2  0
 24 25  1  0
 25 26  2  0
 26 27  1  0
 27 19  1  0
  1 28  1  0
  1 29  1  0
  3 30  1  0
  5 31  1  0
  8 32  1  0
  9 33  1  0
 11 34  1  0
 13 35  1  0
 13 36  1  0
 20 37  1  0
 21 38  1  0
 23 39  1  0
 24 40  1  0
 25 41  1  0
 26 42  1  0
M  ISO  8  28   8  29   8  30  14  31  14  32  14  33  14  34  14  35   8
M  ISO  7  36   8  37  14  38   9  39  14  40  14  41  14  42  14
M  END
>  <minimizedAffinity>  (1) 
-5.63452625

>  <minimizedRMSD>  (1) 
0.894954443

$$$$
