
     RDKit          3D

 38 41  0  0  0  0  0  0  0  0999 V2000
   35.1340   20.3030   32.7800 C   0  0  0  0  0  0  0  0  0  0  0  0
   37.6240   22.1540   34.7930 C   0  0  0  0  0  0  0  0  0  0  0  0
   36.5810   21.2690   34.7010 C   0  0  0  0  0  0  0  0  0  0  0  0
   36.1950   21.1280   33.3880 C   0  0  0  0  0  0  0  0  0  0  0  0
   37.0600   21.9710   32.7190 C   0  0  0  0  0  0  0  0  0  0  0  0
   37.8920   22.5630   33.5780 O   0  0  0  0  0  0  0  0  0  0  0  0
   38.2500   22.5080   36.0590 C   0  0  0  0  0  0  0  0  0  0  0  0
   39.5720   22.3020   36.3650 C   0  0  0  0  0  0  0  0  0  0  0  0
   40.0650   22.6810   37.6120 C   0  0  0  0  0  0  0  0  0  0  0  0
   39.1980   23.2460   38.4860 N   0  0  0  0  0  0  0  0  0  0  0  0
   37.9010   23.4430   38.1740 C   0  0  0  0  0  0  0  0  0  0  0  0
   37.4250   23.0760   36.9660 N   0  0  0  0  0  0  0  0  0  0  0  0
   35.5170   18.8260   32.7710 C   0  0  0  0  0  0  0  0  0  0  0  0
   36.0890   18.4240   31.4780 C   0  0  0  0  0  0  0  0  0  0  0  0
   36.6130   17.2370   31.1390 N   0  0  0  0  0  0  0  0  0  0  0  0
   37.0220   17.2550   29.8980 O   0  0  0  0  0  0  0  0  0  0  0  0
   36.7820   18.4430   29.3880 C   0  0  0  0  0  0  0  0  0  0  0  0
   36.2000   19.1830   30.3620 N   0  0  0  0  0  0  0  0  0  0  0  0
   37.1020   18.8230   28.0400 C   0  0  0  0  0  0  0  0  0  0  0  0
   36.1620   18.6270   27.0490 C   0  0  0  0  0  0  0  0  0  0  0  0
   36.3810   18.9610   25.7280 C   0  0  0  0  0  0  0  0  0  0  0  0
   37.6140   19.5110   25.4490 C   0  0  0  0  0  0  0  0  0  0  0  0
   38.6200   19.7410   26.3920 C   0  0  0  0  0  0  0  0  0  0  0  0
   38.3350   19.3810   27.7140 C   0  0  0  0  0  0  0  0  0  0  0  0
   34.2065   20.4292   33.3578 H   0  0  0  0  0  0  0  0  0  0  0  0
   34.9921   20.6313   31.7398 H   0  0  0  0  0  0  0  0  0  0  0  0
   36.1200   20.7476   35.5528 H   0  0  0  0  0  0  0  0  0  0  0  0
   37.0629   22.1320   31.6308 H   0  0  0  0  0  0  0  0  0  0  0  0
   40.2420   21.8380   35.6262 H   0  0  0  0  0  0  0  0  0  0  0  0
   41.1213   22.5268   37.8774 H   0  0  0  0  0  0  0  0  0  0  0  0
   37.2265   23.9060   38.9093 H   0  0  0  0  0  0  0  0  0  0  0  0
   36.2598   18.6448   33.5619 H   0  0  0  0  0  0  0  0  0  0  0  0
   34.6068   18.2331   32.9442 H   0  0  0  0  0  0  0  0  0  0  0  0
   35.1935   18.1842   27.3246 H   0  0  0  0  0  0  0  0  0  0  0  0
   35.6216   18.7990   24.9488 H   0  0  0  0  0  0  0  0  0  0  0  0
   37.8219   19.7899   24.4055 H   0  0  0  0  0  0  0  0  0  0  0  0
   39.5869   20.1827   26.1092 H   0  0  0  0  0  0  0  0  0  0  0  0
   39.0888   19.5397   28.4992 H   0  0  0  0  0  0  0  0  0  0  0  0
  1  4  1  0
  2  7  1  0
  3  2  2  0
  4  3  1  0
  5  4  2  0
  5  6  1  0
  6  2  1  0
  7  8  2  0
  7 12  1  0
  8  9  1  0
  9 10  2  0
 11 10  1  0
 12 11  2  0
 13  1  1  0
 14 13  1  0
 15 14  2  0
 16 15  1  0
 17 16  1  0
 17 18  2  0
 18 14  1  0
 19 17  1  0
 20 19  2  0
 21 20  1  0
 22 21  2  0
 22 23  1  0
 23 24  2  0
 24 19  1  0
  1 25  1  0
  1 26  1  0
  3 27  1  0
  5 28  1  0
  8 29  1  0
  9 30  1  0
 11 31  1  0
 13 32  1  0
 13 33  1  0
 20 34  1  0
 21 35  1  0
 22 36  1  0
 23 37  1  0
 24 38  1  0
M  ISO  8  25   8  26   8  27  14  28  14  29  14  30  14  31  14  32   8
M  ISO  6  33   8  34  14  35  14  36  14  37  14  38  14
M  END
>  <minimizedAffinity>  (1) 
-5.34571409

>  <minimizedRMSD>  (1) 
0.309289515

$$$$
