
     RDKit          3D

 35 38  0  0  0  0  0  0  0  0999 V2000
   35.0960   20.3860   32.7830 C   0  0  0  0  0  0  0  0  0  0  0  0
   37.6610   22.1540   34.7720 C   0  0  0  0  0  0  0  0  0  0  0  0
   36.5710   21.3120   34.7000 C   0  0  0  0  0  0  0  0  0  0  0  0
   36.1930   21.1710   33.3840 C   0  0  0  0  0  0  0  0  0  0  0  0
   37.1090   21.9650   32.7010 C   0  0  0  0  0  0  0  0  0  0  0  0
   37.9590   22.5290   33.5600 O   0  0  0  0  0  0  0  0  0  0  0  0
   38.2900   22.4960   36.0420 C   0  0  0  0  0  0  0  0  0  0  0  0
   39.6090   22.2790   36.3510 C   0  0  0  0  0  0  0  0  0  0  0  0
   40.0990   22.6490   37.6020 C   0  0  0  0  0  0  0  0  0  0  0  0
   39.2420   23.2120   38.4690 N   0  0  0  0  0  0  0  0  0  0  0  0
   37.9300   23.4270   38.1600 C   0  0  0  0  0  0  0  0  0  0  0  0
   37.4700   23.0660   36.9520 N   0  0  0  0  0  0  0  0  0  0  0  0
   35.4170   18.8830   32.7940 C   0  0  0  0  0  0  0  0  0  0  0  0
   36.0560   18.4570   31.5510 C   0  0  0  0  0  0  0  0  0  0  0  0
   36.6280   17.2710   31.2640 N   0  0  0  0  0  0  0  0  0  0  0  0
   37.0960   17.2640   30.0400 O   0  0  0  0  0  0  0  0  0  0  0  0
   36.8490   18.4340   29.4890 C   0  0  0  0  0  0  0  0  0  0  0  0
   36.1980   19.1920   30.4220 N   0  0  0  0  0  0  0  0  0  0  0  0
   37.2120   18.7980   28.1620 N   0  0  0  0  0  0  0  0  0  0  0  0
   38.2950   19.3080   27.5900 N   0  0  0  0  0  0  0  0  0  0  0  0
   38.0750   19.4490   26.2600 C   0  0  0  0  0  0  0  0  0  0  0  0
   36.7790   19.0010   25.9910 C   0  0  0  0  0  0  0  0  0  0  0  0
   36.2680   18.6010   27.2020 C   0  0  0  0  0  0  0  0  0  0  0  0
   34.9481   20.7137   31.7434 H   0  0  0  0  0  0  0  0  0  0  0  0
   34.1841   20.5517   33.3754 H   0  0  0  0  0  0  0  0  0  0  0  0
   36.0812   20.8294   35.5586 H   0  0  0  0  0  0  0  0  0  0  0  0
   37.1291   22.1070   31.6104 H   0  0  0  0  0  0  0  0  0  0  0  0
   40.2786   21.8138   35.6126 H   0  0  0  0  0  0  0  0  0  0  0  0
   41.1531   22.4852   37.8704 H   0  0  0  0  0  0  0  0  0  0  0  0
   37.2558   23.8919   38.8944 H   0  0  0  0  0  0  0  0  0  0  0  0
   36.0941   18.6694   33.6342 H   0  0  0  0  0  0  0  0  0  0  0  0
   34.4711   18.3315   32.8994 H   0  0  0  0  0  0  0  0  0  0  0  0
   38.7894   19.8455   25.5235 H   0  0  0  0  0  0  0  0  0  0  0  0
   36.2738   18.9742   25.0143 H   0  0  0  0  0  0  0  0  0  0  0  0
   35.2616   18.1893   27.3681 H   0  0  0  0  0  0  0  0  0  0  0  0
  1 13  1  0
  1  4  1  0
  2  7  1  0
  3  2  2  0
  4  3  1  0
  5  4  2  0
  5  6  1  0
  6  2  1  0
  7  8  2  0
  7 12  1  0
  8  9  1  0
  9 10  2  0
 11 10  1  0
 12 11  2  0
 14 13  1  0
 15 14  2  0
 16 15  1  0
 17 16  1  0
 17 18  2  0
 18 14  1  0
 19 17  1  0
 20 19  1  0
 21 20  2  0
 22 21  1  0
 22 23  2  0
 23 19  1  0
  1 24  1  0
  1 25  1  0
  3 26  1  0
  5 27  1  0
  8 28  1  0
  9 29  1  0
 11 30  1  0
 13 31  1  0
 13 32  1  0
 21 33  1  0
 22 34  1  0
 23 35  1  0
M  ISO  8  24   8  25   8  26  14  27  14  28  14  29  14  30  14  31   8
M  ISO  4  32   8  33  14  34  14  35  14
M  END
>  <minimizedAffinity>  (1) 
-5.25853348

>  <minimizedRMSD>  (1) 
0.253328323

$$$$
