
     RDKit          3D

 37 40  0  0  1  0  0  0  0  0999 V2000
   39.1850   23.9780   35.3230 C   0  0  1  0  0  0  0  0  0  0  0  0
   38.3750   24.6310   36.4000 C   0  0  0  0  0  0  0  0  0  0  0  0
   38.2440   23.5610   37.4480 C   0  0  0  0  0  0  0  0  0  0  0  0
   39.5720   22.8960   37.4420 C   0  0  0  0  0  0  0  0  0  0  0  0
   40.1210   23.0500   36.0550 C   0  0  2  0  0  0  0  0  0  0  0  0
   37.7270   23.7300   33.3060 C   0  0  0  0  0  0  0  0  0  0  0  0
   36.9750   22.7650   32.6670 C   0  0  0  0  0  0  0  0  0  0  0  0
   37.1280   21.6500   33.4230 N   0  0  0  0  0  0  0  0  0  0  0  0
   37.9330   21.9720   34.4500 C   0  0  0  0  0  0  0  0  0  0  0  0
   38.3280   23.2580   34.4100 N   0  0  0  0  0  0  0  0  0  0  0  0
   37.8830   25.1250   32.8680 C   0  0  0  0  0  0  0  0  0  0  0  0
   38.9250   25.4690   31.9950 C   0  0  0  0  0  0  0  0  0  0  0  0
   39.0120   26.8320   31.6160 C   0  0  0  0  0  0  0  0  0  0  0  0
   38.1110   27.6990   32.1080 N   0  0  0  0  0  0  0  0  0  0  0  0
   37.1300   27.3230   32.9420 C   0  0  0  0  0  0  0  0  0  0  0  0
   37.0060   26.0380   33.3310 N   0  0  0  0  0  0  0  0  0  0  0  0
   41.4690   23.5510   36.0570 N   0  0  0  0  0  0  0  0  0  0  0  0
   41.7950   24.5970   35.2790 N   0  0  0  0  0  0  0  0  0  0  0  0
   43.1050   24.8870   35.4480 C   0  0  0  0  0  0  0  0  0  0  0  0
   43.6550   24.0020   36.3700 C   0  0  0  0  0  0  0  0  0  0  0  0
   42.5870   23.2040   36.7040 C   0  0  0  0  0  0  0  0  0  0  0  0
   39.7358   24.7054   34.7086 H   0  0  0  0  0  0  0  0  0  0  0  0
   38.8960   25.5122   36.8025 H   0  0  0  0  0  0  0  0  0  0  0  0
   37.4016   24.9948   36.0392 H   0  0  0  0  0  0  0  0  0  0  0  0
   38.0305   24.0012   38.4332 H   0  0  0  0  0  0  0  0  0  0  0  0
   37.4179   22.8640   37.2439 H   0  0  0  0  0  0  0  0  0  0  0  0
   40.2409   23.3772   38.1707 H   0  0  0  0  0  0  0  0  0  0  0  0
   39.4861   21.8351   37.7195 H   0  0  0  0  0  0  0  0  0  0  0  0
   40.1773   22.0721   35.5545 H   0  0  0  0  0  0  0  0  0  0  0  0
   36.3822   22.8761   31.7471 H   0  0  0  0  0  0  0  0  0  0  0  0
   38.2352   21.2637   35.2354 H   0  0  0  0  0  0  0  0  0  0  0  0
   39.6387   24.7191   31.6232 H   0  0  0  0  0  0  0  0  0  0  0  0
   39.8025   27.1737   30.9317 H   0  0  0  0  0  0  0  0  0  0  0  0
   36.4168   28.0734   33.3137 H   0  0  0  0  0  0  0  0  0  0  0  0
   43.6496   25.6948   34.9373 H   0  0  0  0  0  0  0  0  0  0  0  0
   44.6896   23.9531   36.7404 H   0  0  0  0  0  0  0  0  0  0  0  0
   42.6452   22.3733   37.4227 H   0  0  0  0  0  0  0  0  0  0  0  0
  1  5  1  0
  1  2  1  0
  2  3  1  0
  4  3  1  0
  5 17  1  0
  5  4  1  0
  6 10  1  0
  7  6  2  0
  7  8  1  0
  8  9  2  0
 10  9  1  0
 10  1  1  0
 11  6  1  0
 11 16  1  0
 12 11  2  0
 13 12  1  0
 13 14  2  0
 14 15  1  0
 15 16  2  0
 17 21  1  0
 18 19  2  0
 18 17  1  0
 19 20  1  0
 20 21  2  0
  1 22  1  6
  2 23  1  0
  2 24  1  0
  3 25  1  0
  3 26  1  0
  4 27  1  0
  4 28  1  0
  5 29  1  6
  7 30  1  0
  9 31  1  0
 12 32  1  0
 13 33  1  0
 15 34  1  0
 19 35  1  0
 20 36  1  0
 21 37  1  0
M  ISO  8  22  13  23  13  24  13  25  13  26  13  27  13  28  13  29  13
M  ISO  8  30  14  31  14  32  14  33  14  34  14  35  14  36  14  37  14
M  END
>  <minimizedAffinity>  (1) 
-4.76245975

>  <minimizedRMSD>  (1) 
0.968437254

$$$$
