
     RDKit          3D

 41 44  0  0  0  0  0  0  0  0999 V2000
   35.1350   20.3110   32.7780 C   0  0  0  0  0  0  0  0  0  0  0  0
   37.6300   22.1530   34.7900 C   0  0  0  0  0  0  0  0  0  0  0  0
   36.5730   21.2700   34.6960 C   0  0  0  0  0  0  0  0  0  0  0  0
   36.1920   21.1230   33.3980 C   0  0  0  0  0  0  0  0  0  0  0  0
   37.0660   21.9550   32.7140 C   0  0  0  0  0  0  0  0  0  0  0  0
   37.9040   22.5480   33.5760 O   0  0  0  0  0  0  0  0  0  0  0  0
   38.2450   22.5040   36.0510 C   0  0  0  0  0  0  0  0  0  0  0  0
   39.5740   22.3050   36.3700 C   0  0  0  0  0  0  0  0  0  0  0  0
   40.0460   22.6870   37.6140 C   0  0  0  0  0  0  0  0  0  0  0  0
   39.1850   23.2470   38.4890 N   0  0  0  0  0  0  0  0  0  0  0  0
   37.8800   23.4370   38.1620 C   0  0  0  0  0  0  0  0  0  0  0  0
   37.4060   23.0740   36.9590 N   0  0  0  0  0  0  0  0  0  0  0  0
   35.4410   18.8040   32.8820 C   0  0  0  0  0  0  0  0  0  0  0  0
   35.9970   18.2910   31.6250 C   0  0  0  0  0  0  0  0  0  0  0  0
   36.3150   17.0390   31.2880 N   0  0  0  0  0  0  0  0  0  0  0  0
   36.7860   16.9690   30.0790 O   0  0  0  0  0  0  0  0  0  0  0  0
   36.8000   18.1870   29.5590 C   0  0  0  0  0  0  0  0  0  0  0  0
   36.3080   18.9970   30.5300 N   0  0  0  0  0  0  0  0  0  0  0  0
   37.1780   18.7980   28.3270 N   0  0  0  0  0  0  0  0  0  0  0  0
   38.3580   19.6010   28.0520 C   0  0  0  0  0  0  0  0  0  0  0  0
   39.1760   18.8360   27.0450 C   0  0  0  0  0  0  0  0  0  0  0  0
   38.4400   18.1740   26.1030 O   0  0  0  0  0  0  0  0  0  0  0  0
   37.1610   18.6680   25.9010 C   0  0  0  0  0  0  0  0  0  0  0  0
   36.3260   18.6430   27.1610 C   0  0  0  0  0  0  0  0  0  0  0  0
   35.0508   20.5855   31.7161 H   0  0  0  0  0  0  0  0  0  0  0  0
   34.1932   20.5079   33.3111 H   0  0  0  0  0  0  0  0  0  0  0  0
   36.1050   20.7578   35.5496 H   0  0  0  0  0  0  0  0  0  0  0  0
   37.0708   22.1060   31.6244 H   0  0  0  0  0  0  0  0  0  0  0  0
   40.2546   21.8448   35.6385 H   0  0  0  0  0  0  0  0  0  0  0  0
   41.1018   22.5370   37.8838 H   0  0  0  0  0  0  0  0  0  0  0  0
   37.2002   23.8959   38.8950 H   0  0  0  0  0  0  0  0  0  0  0  0
   36.1687   18.6399   33.6904 H   0  0  0  0  0  0  0  0  0  0  0  0
   34.5026   18.2702   33.0931 H   0  0  0  0  0  0  0  0  0  0  0  0
   38.0645   20.5774   27.6391 H   0  0  0  0  0  0  0  0  0  0  0  0
   38.9336   19.7867   28.9708 H   0  0  0  0  0  0  0  0  0  0  0  0
   39.8367   19.5471   26.5275 H   0  0  0  0  0  0  0  0  0  0  0  0
   39.7273   18.0683   27.6078 H   0  0  0  0  0  0  0  0  0  0  0  0
   37.2357   19.7070   25.5477 H   0  0  0  0  0  0  0  0  0  0  0  0
   36.6667   18.0236   25.1591 H   0  0  0  0  0  0  0  0  0  0  0  0
   35.5971   19.4663   27.1309 H   0  0  0  0  0  0  0  0  0  0  0  0
   35.7995   17.6793   27.2251 H   0  0  0  0  0  0  0  0  0  0  0  0
  1 13  1  0
  1  4  1  0
  2  7  1  0
  3  2  2  0
  4  3  1  0
  5  4  2  0
  5  6  1  0
  6  2  1  0
  7  8  2  0
  7 12  1  0
  8  9  1  0
  9 10  2  0
 11 10  1  0
 12 11  2  0
 14 13  1  0
 15 14  2  0
 16 15  1  0
 17 16  1  0
 17 18  2  0
 18 14  1  0
 19 17  1  0
 20 19  1  0
 21 20  1  0
 22 21  1  0
 23 22  1  0
 23 24  1  0
 24 19  1  0
  1 25  1  0
  1 26  1  0
  3 27  1  0
  5 28  1  0
  8 29  1  0
  9 30  1  0
 11 31  1  0
 13 32  1  0
 13 33  1  0
 20 34  1  0
 20 35  1  0
 21 36  1  0
 21 37  1  0
 23 38  1  0
 23 39  1  0
 24 40  1  0
 24 41  1  0
M  ISO  8  25   8  26   8  27  14  28  14  29  14  30  14  31  14  32   8
M  ISO  8  33   8  34  13  35  13  36  13  37  13  38  13  39  13  40  13
M  ISO  1  41  13
M  END
>  <minimizedAffinity>  (1) 
-5.14537859

>  <minimizedRMSD>  (1) 
0.479731947

$$$$
