
     RDKit          3D

 35 38  0  0  0  0  0  0  0  0999 V2000
   35.1160   20.3790   32.8120 C   0  0  0  0  0  0  0  0  0  0  0  0
   37.6770   22.1670   34.8000 C   0  0  0  0  0  0  0  0  0  0  0  0
   36.5930   21.3080   34.7270 C   0  0  0  0  0  0  0  0  0  0  0  0
   36.2100   21.1740   33.4220 C   0  0  0  0  0  0  0  0  0  0  0  0
   37.1120   21.9850   32.7360 C   0  0  0  0  0  0  0  0  0  0  0  0
   37.9590   22.5510   33.5930 O   0  0  0  0  0  0  0  0  0  0  0  0
   38.3110   22.5060   36.0680 C   0  0  0  0  0  0  0  0  0  0  0  0
   39.6320   22.2810   36.3720 C   0  0  0  0  0  0  0  0  0  0  0  0
   40.1370   22.6450   37.6150 C   0  0  0  0  0  0  0  0  0  0  0  0
   39.2910   23.2170   38.4940 N   0  0  0  0  0  0  0  0  0  0  0  0
   37.9960   23.4340   38.1890 C   0  0  0  0  0  0  0  0  0  0  0  0
   37.4820   23.0870   36.9810 N   0  0  0  0  0  0  0  0  0  0  0  0
   35.4560   18.8820   32.8320 C   0  0  0  0  0  0  0  0  0  0  0  0
   36.0330   18.4470   31.5610 C   0  0  0  0  0  0  0  0  0  0  0  0
   36.5230   17.2350   31.2460 N   0  0  0  0  0  0  0  0  0  0  0  0
   36.9520   17.2290   30.0120 O   0  0  0  0  0  0  0  0  0  0  0  0
   36.7650   18.4130   29.4740 C   0  0  0  0  0  0  0  0  0  0  0  0
   36.1930   19.1770   30.4340 N   0  0  0  0  0  0  0  0  0  0  0  0
   37.1230   18.7770   28.1080 C   0  0  0  0  0  0  0  0  0  0  0  0
   36.2790   18.5810   27.0380 C   0  0  0  0  0  0  0  0  0  0  0  0
   36.9830   19.0510   25.9430 C   0  0  0  0  0  0  0  0  0  0  0  0
   38.1980   19.5030   26.3760 C   0  0  0  0  0  0  0  0  0  0  0  0
   38.2380   19.3160   27.6950 O   0  0  0  0  0  0  0  0  0  0  0  0
   34.9720   20.7026   31.7706 H   0  0  0  0  0  0  0  0  0  0  0  0
   34.1958   20.5402   33.3927 H   0  0  0  0  0  0  0  0  0  0  0  0
   36.1154   20.8116   35.5846 H   0  0  0  0  0  0  0  0  0  0  0  0
   37.1226   22.1354   31.6464 H   0  0  0  0  0  0  0  0  0  0  0  0
   40.2927   21.8109   35.6287 H   0  0  0  0  0  0  0  0  0  0  0  0
   41.1923   22.4718   37.8724 H   0  0  0  0  0  0  0  0  0  0  0  0
   37.3398   23.9035   38.9367 H   0  0  0  0  0  0  0  0  0  0  0  0
   36.1802   18.6906   33.6375 H   0  0  0  0  0  0  0  0  0  0  0  0
   34.5261   18.3189   32.9998 H   0  0  0  0  0  0  0  0  0  0  0  0
   35.2684   18.1468   27.0506 H   0  0  0  0  0  0  0  0  0  0  0  0
   36.6259   19.0593   24.9026 H   0  0  0  0  0  0  0  0  0  0  0  0
   38.9930   19.9390   25.7532 H   0  0  0  0  0  0  0  0  0  0  0  0
  1 13  1  0
  1  4  1  0
  2  7  1  0
  3  2  2  0
  4  3  1  0
  5  4  2  0
  5  6  1  0
  6  2  1  0
  7  8  2  0
  7 12  1  0
  8  9  1  0
  9 10  2  0
 11 10  1  0
 12 11  2  0
 14 13  1  0
 15 14  2  0
 16 15  1  0
 17 16  1  0
 17 18  2  0
 18 14  1  0
 19 17  1  0
 20 19  2  0
 21 22  2  0
 21 20  1  0
 22 23  1  0
 23 19  1  0
  1 24  1  0
  1 25  1  0
  3 26  1  0
  5 27  1  0
  8 28  1  0
  9 29  1  0
 11 30  1  0
 13 31  1  0
 13 32  1  0
 20 33  1  0
 21 34  1  0
 22 35  1  0
M  ISO  8  24   8  25   8  26  14  27  14  28  14  29  14  30  14  31   8
M  ISO  4  32   8  33  14  34  14  35  14
M  END
>  <minimizedAffinity>  (1) 
-5.07305527

>  <minimizedRMSD>  (1) 
0.255335599

$$$$
