
     RDKit          3D

 33 36  0  0  0  0  0  0  0  0999 V2000
   35.1330   20.3650   32.8260 C   0  0  0  0  0  0  0  0  0  0  0  0
   37.6710   22.1630   34.8180 C   0  0  0  0  0  0  0  0  0  0  0  0
   36.6110   21.3010   34.7250 C   0  0  0  0  0  0  0  0  0  0  0  0
   36.2140   21.1670   33.4270 C   0  0  0  0  0  0  0  0  0  0  0  0
   37.0930   21.9980   32.7400 C   0  0  0  0  0  0  0  0  0  0  0  0
   37.9410   22.5690   33.6030 O   0  0  0  0  0  0  0  0  0  0  0  0
   38.3090   22.5020   36.0700 C   0  0  0  0  0  0  0  0  0  0  0  0
   39.6400   22.2780   36.3730 C   0  0  0  0  0  0  0  0  0  0  0  0
   40.1460   22.6450   37.6070 C   0  0  0  0  0  0  0  0  0  0  0  0
   39.2950   23.2230   38.4900 N   0  0  0  0  0  0  0  0  0  0  0  0
   37.9920   23.4400   38.1860 C   0  0  0  0  0  0  0  0  0  0  0  0
   37.4920   23.0850   36.9850 N   0  0  0  0  0  0  0  0  0  0  0  0
   35.4640   18.8670   32.8620 C   0  0  0  0  0  0  0  0  0  0  0  0
   36.0580   18.4330   31.5930 C   0  0  0  0  0  0  0  0  0  0  0  0
   36.6320   17.2360   31.3430 N   0  0  0  0  0  0  0  0  0  0  0  0
   37.0520   17.2050   30.0990 O   0  0  0  0  0  0  0  0  0  0  0  0
   36.7710   18.3480   29.5100 C   0  0  0  0  0  0  0  0  0  0  0  0
   36.1510   19.1270   30.4280 N   0  0  0  0  0  0  0  0  0  0  0  0
   37.0550   18.7490   28.1370 C   0  0  0  0  0  0  0  0  0  0  0  0
   38.1560   19.3390   27.6380 N   0  0  0  0  0  0  0  0  0  0  0  0
   38.0400   19.5430   26.3580 O   0  0  0  0  0  0  0  0  0  0  0  0
   36.8600   19.0920   25.9810 C   0  0  0  0  0  0  0  0  0  0  0  0
   36.2300   18.5910   27.0850 N   0  0  0  0  0  0  0  0  0  0  0  0
   34.9949   20.6764   31.7801 H   0  0  0  0  0  0  0  0  0  0  0  0
   34.2135   20.5314   33.4063 H   0  0  0  0  0  0  0  0  0  0  0  0
   36.1444   20.7878   35.5788 H   0  0  0  0  0  0  0  0  0  0  0  0
   37.0911   22.1609   31.6521 H   0  0  0  0  0  0  0  0  0  0  0  0
   40.2989   21.8060   35.6294 H   0  0  0  0  0  0  0  0  0  0  0  0
   41.2020   22.4738   37.8629 H   0  0  0  0  0  0  0  0  0  0  0  0
   37.3331   23.9124   38.9295 H   0  0  0  0  0  0  0  0  0  0  0  0
   36.1764   18.6748   33.6778 H   0  0  0  0  0  0  0  0  0  0  0  0
   34.5329   18.3045   33.0255 H   0  0  0  0  0  0  0  0  0  0  0  0
   36.4545   19.1150   24.9587 H   0  0  0  0  0  0  0  0  0  0  0  0
  1 13  1  0
  1  4  1  0
  2  7  1  0
  3  2  2  0
  4  3  1  0
  5  4  2  0
  5  6  1  0
  6  2  1  0
  7  8  2  0
  7 12  1  0
  8  9  1  0
  9 10  2  0
 11 10  1  0
 12 11  2  0
 14 13  1  0
 15 14  2  0
 16 15  1  0
 17 16  1  0
 17 18  2  0
 18 14  1  0
 19 17  1  0
 20 19  2  0
 21 20  1  0
 22 21  1  0
 22 23  2  0
 23 19  1  0
  1 24  1  0
  1 25  1  0
  3 26  1  0
  5 27  1  0
  8 28  1  0
  9 29  1  0
 11 30  1  0
 13 31  1  0
 13 32  1  0
 22 33  1  0
M  ISO  8  24   8  25   8  26  14  27  14  28  14  29  14  30  14  31   8
M  ISO  2  32   8  33  14
M  END
>  <minimizedAffinity>  (1) 
-4.97124243

>  <minimizedRMSD>  (1) 
0.358813822

$$$$
