
     RDKit          3D

 33 35  0  0  1  0  0  0  0  0999 V2000
   39.0790   23.5530   35.5670 C   0  0  1  0  0  0  0  0  0  0  0  0
   38.5930   24.8510   36.1100 C   0  0  0  0  0  0  0  0  0  0  0  0
   37.6420   24.4320   37.2060 C   0  0  0  0  0  0  0  0  0  0  0  0
   38.3640   23.2870   37.8490 C   0  0  0  0  0  0  0  0  0  0  0  0
   39.1740   22.6410   36.7670 C   0  0  2  0  0  0  0  0  0  0  0  0
   37.9610   23.5660   33.3560 C   0  0  0  0  0  0  0  0  0  0  0  0
   37.0770   22.7940   32.6220 C   0  0  0  0  0  0  0  0  0  0  0  0
   36.7910   21.7390   33.4270 N   0  0  0  0  0  0  0  0  0  0  0  0
   37.4860   21.9120   34.5670 C   0  0  0  0  0  0  0  0  0  0  0  0
   38.2140   23.0350   34.5420 N   0  0  0  0  0  0  0  0  0  0  0  0
   38.5640   24.8320   32.9020 C   0  0  0  0  0  0  0  0  0  0  0  0
   39.9100   24.8400   32.4760 C   0  0  0  0  0  0  0  0  0  0  0  0
   40.4150   26.0960   32.0560 C   0  0  0  0  0  0  0  0  0  0  0  0
   39.6100   27.1680   32.0870 N   0  0  0  0  0  0  0  0  0  0  0  0
   38.3440   27.1060   32.4990 C   0  0  0  0  0  0  0  0  0  0  0  0
   37.7970   25.9420   32.9130 N   0  0  0  0  0  0  0  0  0  0  0  0
   40.5750   22.3850   37.1650 C   0  0  0  0  0  0  0  0  0  0  0  0
   41.5370   23.1200   36.7530 O   0  0  0  0  0  0  0  0  0  0  0  0
   40.9860   21.3680   37.9890 O   0  0  0  0  0  0  0  0  0  0  0  0
   40.0522   23.6567   35.0648 H   0  0  0  0  0  0  0  0  0  0  0  0
   39.4251   25.4453   36.5156 H   0  0  0  0  0  0  0  0  0  0  0  0
   38.1195   25.4873   35.3479 H   0  0  0  0  0  0  0  0  0  0  0  0
   37.4778   25.2501   37.9228 H   0  0  0  0  0  0  0  0  0  0  0  0
   36.6410   24.1646   36.8366 H   0  0  0  0  0  0  0  0  0  0  0  0
   39.0222   23.6535   38.6505 H   0  0  0  0  0  0  0  0  0  0  0  0
   37.6598   22.5735   38.3018 H   0  0  0  0  0  0  0  0  0  0  0  0
   38.7754   21.6415   36.5388 H   0  0  0  0  0  0  0  0  0  0  0  0
   36.6918   22.9916   31.6108 H   0  0  0  0  0  0  0  0  0  0  0  0
   37.4589   21.2143   35.4169 H   0  0  0  0  0  0  0  0  0  0  0  0
   40.5274   23.9296   32.4704 H   0  0  0  0  0  0  0  0  0  0  0  0
   41.4545   26.1902   31.7089 H   0  0  0  0  0  0  0  0  0  0  0  0
   37.7325   28.0204   32.5020 H   0  0  0  0  0  0  0  0  0  0  0  0
   41.9461   21.2651   38.2073 H   0  0  0  0  0  0  0  0  0  0  0  0
  1  2  1  0
  1  5  1  0
  2  3  1  0
  3  4  1  0
  5 17  1  0
  5  4  1  0
  6 10  1  0
  7  6  2  0
  7  8  1  0
  8  9  2  0
 10  9  1  0
 10  1  1  0
 11 16  1  0
 11  6  1  0
 12 11  2  0
 13 14  2  0
 13 12  1  0
 14 15  1  0
 15 16  2  0
 17 19  1  0
 18 17  2  0
  1 20  1  6
  2 21  1  0
  2 22  1  0
  3 23  1  0
  3 24  1  0
  4 25  1  0
  4 26  1  0
  5 27  1  6
  7 28  1  0
  9 29  1  0
 12 30  1  0
 13 31  1  0
 15 32  1  0
 19 33  1  0
M  ISO  8  20  13  21  13  22  13  23  13  24  13  25  13  26  13  27  13
M  ISO  6  28  14  29  14  30  14  31  14  32  14  33   3
M  END
>  <minimizedAffinity>  (1) 
-4.75219202

>  <minimizedRMSD>  (1) 
1.0389955

$$$$
