
     RDKit          3D

 35 38  0  0  0  0  0  0  0  0999 V2000
   37.6490   22.1850   34.7900 C   0  0  0  0  0  0  0  0  0  0  0  0
   36.5940   21.2950   34.6890 C   0  0  0  0  0  0  0  0  0  0  0  0
   36.2100   21.1680   33.3770 C   0  0  0  0  0  0  0  0  0  0  0  0
   37.0850   22.0230   32.7130 C   0  0  0  0  0  0  0  0  0  0  0  0
   37.9100   22.5970   33.5840 O   0  0  0  0  0  0  0  0  0  0  0  0
   38.2680   22.5210   36.0530 C   0  0  0  0  0  0  0  0  0  0  0  0
   39.5860   22.3130   36.3770 C   0  0  0  0  0  0  0  0  0  0  0  0
   40.0560   22.6830   37.6290 C   0  0  0  0  0  0  0  0  0  0  0  0
   39.1950   23.2400   38.4940 N   0  0  0  0  0  0  0  0  0  0  0  0
   37.9020   23.4450   38.1810 C   0  0  0  0  0  0  0  0  0  0  0  0
   37.4250   23.0920   36.9650 N   0  0  0  0  0  0  0  0  0  0  0  0
   35.1560   20.3620   32.7450 C   0  0  0  0  0  0  0  0  0  0  0  0
   35.4700   18.8550   32.8580 C   0  0  0  0  0  0  0  0  0  0  0  0
   36.0650   18.3490   31.6160 C   0  0  0  0  0  0  0  0  0  0  0  0
   36.6960   17.1750   31.4130 N   0  0  0  0  0  0  0  0  0  0  0  0
   37.0950   17.0710   30.1690 O   0  0  0  0  0  0  0  0  0  0  0  0
   36.7430   18.1590   29.5280 C   0  0  0  0  0  0  0  0  0  0  0  0
   36.1030   18.9650   30.4050 N   0  0  0  0  0  0  0  0  0  0  0  0
   36.9140   18.5840   28.1720 C   0  0  0  0  0  0  0  0  0  0  0  0
   36.2560   18.6090   26.9790 C   0  0  0  0  0  0  0  0  0  0  0  0
   36.8690   19.1530   25.8950 C   0  0  0  0  0  0  0  0  0  0  0  0
   38.1640   19.6870   25.9870 C   0  0  0  0  0  0  0  0  0  0  0  0
   38.5720   19.4030   27.7640 S   0  0  0  0  0  0  0  0  0  0  0  0
   36.1311   20.7669   35.5356 H   0  0  0  0  0  0  0  0  0  0  0  0
   37.0929   22.1982   31.6271 H   0  0  0  0  0  0  0  0  0  0  0  0
   40.2677   21.8541   35.6457 H   0  0  0  0  0  0  0  0  0  0  0  0
   41.1087   22.5235   37.9055 H   0  0  0  0  0  0  0  0  0  0  0  0
   37.2278   23.9031   38.9196 H   0  0  0  0  0  0  0  0  0  0  0  0
   35.0825   20.6355   31.6821 H   0  0  0  0  0  0  0  0  0  0  0  0
   34.2051   20.5617   33.2607 H   0  0  0  0  0  0  0  0  0  0  0  0
   36.1758   18.6954   33.6865 H   0  0  0  0  0  0  0  0  0  0  0  0
   34.5307   18.3135   33.0435 H   0  0  0  0  0  0  0  0  0  0  0  0
   35.2409   18.1938   26.8944 H   0  0  0  0  0  0  0  0  0  0  0  0
   36.3419   19.1753   24.9298 H   0  0  0  0  0  0  0  0  0  0  0  0
   38.7772   20.1541   25.2023 H   0  0  0  0  0  0  0  0  0  0  0  0
  1  6  1  0
  2  1  2  0
  3  2  1  0
  4  3  2  0
  4  5  1  0
  5  1  1  0
  6  7  2  0
  6 11  1  0
  7  8  1  0
  8  9  2  0
 10  9  1  0
 11 10  2  0
 12 13  1  0
 12  3  1  0
 14 13  1  0
 15 14  2  0
 16 15  1  0
 17 16  1  0
 17 18  2  0
 18 14  1  0
 19 17  1  0
 20 19  2  0
 21 22  2  0
 21 20  1  0
 22 23  1  0
 23 19  1  0
  2 24  1  0
  4 25  1  0
  7 26  1  0
  8 27  1  0
 10 28  1  0
 12 29  1  0
 12 30  1  0
 13 31  1  0
 13 32  1  0
 20 33  1  0
 21 34  1  0
 22 35  1  0
M  ISO  8  24  14  25  14  26  14  27  14  28  14  29   8  30   8  31   8
M  ISO  4  32   8  33  14  34  14  35  14
M  END
>  <minimizedAffinity>  (1) 
-5.01152229

>  <minimizedRMSD>  (1) 
0.642900109

$$$$
