
     RDKit          3D

 30 32  0  0  0  0  0  0  0  0999 V2000
   37.6740   22.1680   34.8090 C   0  0  0  0  0  0  0  0  0  0  0  0
   36.5900   21.3090   34.7290 C   0  0  0  0  0  0  0  0  0  0  0  0
   36.2020   21.1770   33.4190 C   0  0  0  0  0  0  0  0  0  0  0  0
   37.0920   21.9840   32.7390 C   0  0  0  0  0  0  0  0  0  0  0  0
   37.9460   22.5530   33.5970 O   0  0  0  0  0  0  0  0  0  0  0  0
   38.3090   22.5060   36.0710 C   0  0  0  0  0  0  0  0  0  0  0  0
   39.6360   22.2790   36.3730 C   0  0  0  0  0  0  0  0  0  0  0  0
   40.1360   22.6430   37.6130 C   0  0  0  0  0  0  0  0  0  0  0  0
   39.2860   23.2140   38.4910 N   0  0  0  0  0  0  0  0  0  0  0  0
   37.9890   23.4340   38.1920 C   0  0  0  0  0  0  0  0  0  0  0  0
   37.4800   23.0870   36.9880 N   0  0  0  0  0  0  0  0  0  0  0  0
   35.1140   20.3860   32.8200 C   0  0  0  0  0  0  0  0  0  0  0  0
   35.4420   18.8890   32.8200 C   0  0  0  0  0  0  0  0  0  0  0  0
   36.0340   18.4680   31.5450 C   0  0  0  0  0  0  0  0  0  0  0  0
   36.5140   17.2690   31.2110 N   0  0  0  0  0  0  0  0  0  0  0  0
   36.9640   17.2720   29.9760 O   0  0  0  0  0  0  0  0  0  0  0  0
   36.7890   18.4820   29.4660 C   0  0  0  0  0  0  0  0  0  0  0  0
   36.2100   19.2160   30.4510 N   0  0  0  0  0  0  0  0  0  0  0  0
   37.1400   18.9000   28.1650 N   0  0  0  0  0  0  0  0  0  0  0  0
   36.1130   20.8090   35.5848 H   0  0  0  0  0  0  0  0  0  0  0  0
   37.0980   22.1369   31.6497 H   0  0  0  0  0  0  0  0  0  0  0  0
   40.2968   21.8092   35.6296 H   0  0  0  0  0  0  0  0  0  0  0  0
   41.1911   22.4720   37.8727 H   0  0  0  0  0  0  0  0  0  0  0  0
   37.3340   23.9038   38.9405 H   0  0  0  0  0  0  0  0  0  0  0  0
   34.1927   20.5500   33.3982 H   0  0  0  0  0  0  0  0  0  0  0  0
   34.9849   20.7110   31.7771 H   0  0  0  0  0  0  0  0  0  0  0  0
   36.1545   18.6792   33.6314 H   0  0  0  0  0  0  0  0  0  0  0  0
   34.5057   18.3306   32.9668 H   0  0  0  0  0  0  0  0  0  0  0  0
   36.9585   19.8697   27.8691 H   0  0  0  0  0  0  0  0  0  0  0  0
   37.5778   18.2354   27.5111 H   0  0  0  0  0  0  0  0  0  0  0  0
  1  6  1  0
  2  1  2  0
  3  2  1  0
  4  3  2  0
  4  5  1  0
  5  1  1  0
  6  7  2  0
  6 11  1  0
  7  8  1  0
  8  9  2  0
 10  9  1  0
 11 10  2  0
 12  3  1  0
 13 12  1  0
 14 13  1  0
 15 14  2  0
 16 15  1  0
 17 16  1  0
 17 18  2  0
 18 14  1  0
 19 17  1  0
  2 20  1  0
  4 21  1  0
  7 22  1  0
  8 23  1  0
 10 24  1  0
 12 25  1  0
 12 26  1  0
 13 27  1  0
 13 28  1  0
 19 29  1  0
 19 30  1  0
M  ISO  8  20  14  21  14  22  14  23  14  24  14  25   8  26   8  27   8
M  ISO  1  28   8
M  END
>  <minimizedAffinity>  (1) 
-4.6614027

>  <minimizedRMSD>  (1) 
0.138432756

$$$$
