
     RDKit          3D

 47 50  0  0  0  0  0  0  0  0999 V2000
   35.1170   20.3500   32.8260 C   0  0  0  0  0  0  0  0  0  0  0  0
   37.6600   22.1430   34.8110 C   0  0  0  0  0  0  0  0  0  0  0  0
   36.6060   21.2860   34.7320 C   0  0  0  0  0  0  0  0  0  0  0  0
   36.2040   21.1560   33.4240 C   0  0  0  0  0  0  0  0  0  0  0  0
   37.0850   21.9890   32.7330 C   0  0  0  0  0  0  0  0  0  0  0  0
   37.9330   22.5560   33.5920 O   0  0  0  0  0  0  0  0  0  0  0  0
   38.3130   22.4890   36.0630 C   0  0  0  0  0  0  0  0  0  0  0  0
   39.6430   22.2680   36.3630 C   0  0  0  0  0  0  0  0  0  0  0  0
   40.1350   22.6520   37.6060 C   0  0  0  0  0  0  0  0  0  0  0  0
   39.3050   23.2250   38.4790 N   0  0  0  0  0  0  0  0  0  0  0  0
   37.9960   23.4410   38.1800 C   0  0  0  0  0  0  0  0  0  0  0  0
   37.4960   23.0780   36.9820 N   0  0  0  0  0  0  0  0  0  0  0  0
   35.4560   18.8510   32.8740 C   0  0  0  0  0  0  0  0  0  0  0  0
   36.0580   18.4040   31.6080 C   0  0  0  0  0  0  0  0  0  0  0  0
   36.6260   17.2240   31.3570 N   0  0  0  0  0  0  0  0  0  0  0  0
   37.0510   17.1930   30.1130 O   0  0  0  0  0  0  0  0  0  0  0  0
   36.7800   18.3270   29.5230 C   0  0  0  0  0  0  0  0  0  0  0  0
   36.1560   19.1020   30.4440 N   0  0  0  0  0  0  0  0  0  0  0  0
   37.0750   18.7190   28.1460 C   0  0  0  0  0  0  0  0  0  0  0  0
   36.3210   18.4250   27.0470 C   0  0  0  0  0  0  0  0  0  0  0  0
   37.0140   19.0130   25.9770 C   0  0  0  0  0  0  0  0  0  0  0  0
   38.1110   19.6150   26.4300 N   0  0  0  0  0  0  0  0  0  0  0  0
   38.1220   19.4220   27.7310 N   0  0  0  0  0  0  0  0  0  0  0  0
   39.0640   20.3250   25.6050 C   0  0  0  0  0  0  0  0  0  0  0  0
   40.0200   19.4150   24.8720 C   0  0  0  0  0  0  0  0  0  0  0  0
   38.3730   21.1560   24.5500 C   0  0  0  0  0  0  0  0  0  0  0  0
   39.8620   21.2880   26.4580 C   0  0  0  0  0  0  0  0  0  0  0  0
   34.9774   20.6544   31.7782 H   0  0  0  0  0  0  0  0  0  0  0  0
   34.1952   20.5207   33.4015 H   0  0  0  0  0  0  0  0  0  0  0  0
   36.1439   20.7730   35.5884 H   0  0  0  0  0  0  0  0  0  0  0  0
   37.0806   22.1530   31.6453 H   0  0  0  0  0  0  0  0  0  0  0  0
   40.3069   21.7928   35.6258 H   0  0  0  0  0  0  0  0  0  0  0  0
   41.1911   22.4859   37.8649 H   0  0  0  0  0  0  0  0  0  0  0  0
   37.3389   23.9166   38.9230 H   0  0  0  0  0  0  0  0  0  0  0  0
   36.1666   18.6693   33.6938 H   0  0  0  0  0  0  0  0  0  0  0  0
   34.5257   18.2871   33.0372 H   0  0  0  0  0  0  0  0  0  0  0  0
   35.3810   17.8550   27.0083 H   0  0  0  0  0  0  0  0  0  0  0  0
   36.6981   18.9810   24.9238 H   0  0  0  0  0  0  0  0  0  0  0  0
   40.6169   18.8468   25.6006 H   0  0  0  0  0  0  0  0  0  0  0  0
   39.4506   18.7170   24.2406 H   0  0  0  0  0  0  0  0  0  0  0  0
   40.6891   20.0181   24.2406 H   0  0  0  0  0  0  0  0  0  0  0  0
   37.7421   21.9148   25.0360 H   0  0  0  0  0  0  0  0  0  0  0  0
   39.1274   21.6535   23.9228 H   0  0  0  0  0  0  0  0  0  0  0  0
   37.7462   20.5050   23.9228 H   0  0  0  0  0  0  0  0  0  0  0  0
   39.6824   21.0713   27.5214 H   0  0  0  0  0  0  0  0  0  0  0  0
   40.9333   21.1732   26.2362 H   0  0  0  0  0  0  0  0  0  0  0  0
   39.5501   22.3193   26.2362 H   0  0  0  0  0  0  0  0  0  0  0  0
  1 13  1  0
  1  4  1  0
  2  7  1  0
  3  2  2  0
  4  3  1  0
  5  4  2  0
  5  6  1  0
  6  2  1  0
  7  8  2  0
  7 12  1  0
  8  9  1  0
  9 10  2  0
 11 10  1  0
 12 11  2  0
 14 13  1  0
 15 14  2  0
 16 15  1  0
 17 16  1  0
 17 18  2  0
 18 14  1  0
 19 17  1  0
 20 19  1  0
 21 22  1  0
 21 20  2  0
 22 23  1  0
 23 19  2  0
 24 22  1  0
 24 27  1  0
 25 24  1  0
 26 24  1  0
  1 28  1  0
  1 29  1  0
  3 30  1  0
  5 31  1  0
  8 32  1  0
  9 33  1  0
 11 34  1  0
 13 35  1  0
 13 36  1  0
 20 37  1  0
 21 38  1  0
 25 39  1  0
 25 40  1  0
 25 41  1  0
 26 42  1  0
 26 43  1  0
 26 44  1  0
 27 45  1  0
 27 46  1  0
 27 47  1  0
M  ISO  8  28   8  29   8  30  14  31  14  32  14  33  14  34  14  35   8
M  ISO  8  36   8  37  14  38  14  39   8  40   8  41   8  42   8  43   8
M  ISO  4  44   8  45   8  46   8  47   8
M  END
>  <minimizedAffinity>  (1) 
-5.19943237

>  <minimizedRMSD>  (1) 
0.233977363

$$$$
