
     RDKit          3D

 42 46  0  0  0  0  0  0  0  0999 V2000
   35.1280   20.3630   32.7890 C   0  0  0  0  0  0  0  0  0  0  0  0
   37.6560   22.1610   34.7970 C   0  0  0  0  0  0  0  0  0  0  0  0
   36.6010   21.2940   34.7070 C   0  0  0  0  0  0  0  0  0  0  0  0
   36.2090   21.1710   33.3950 C   0  0  0  0  0  0  0  0  0  0  0  0
   37.0950   22.0170   32.7130 C   0  0  0  0  0  0  0  0  0  0  0  0
   37.9290   22.5770   33.5820 O   0  0  0  0  0  0  0  0  0  0  0  0
   38.2980   22.5000   36.0560 C   0  0  0  0  0  0  0  0  0  0  0  0
   39.6120   22.2880   36.3650 C   0  0  0  0  0  0  0  0  0  0  0  0
   40.1080   22.6610   37.6120 C   0  0  0  0  0  0  0  0  0  0  0  0
   39.2590   23.2250   38.4800 N   0  0  0  0  0  0  0  0  0  0  0  0
   37.9580   23.4350   38.1720 C   0  0  0  0  0  0  0  0  0  0  0  0
   37.4630   23.0780   36.9670 N   0  0  0  0  0  0  0  0  0  0  0  0
   35.4690   18.8690   32.8220 C   0  0  0  0  0  0  0  0  0  0  0  0
   36.0850   18.4370   31.5570 C   0  0  0  0  0  0  0  0  0  0  0  0
   36.7090   17.2760   31.3160 N   0  0  0  0  0  0  0  0  0  0  0  0
   37.1250   17.2580   30.0670 O   0  0  0  0  0  0  0  0  0  0  0  0
   36.7970   18.3770   29.4670 C   0  0  0  0  0  0  0  0  0  0  0  0
   36.1420   19.1250   30.3930 N   0  0  0  0  0  0  0  0  0  0  0  0
   37.0690   18.7580   28.0870 C   0  0  0  0  0  0  0  0  0  0  0  0
   36.2660   18.5110   27.0120 C   0  0  0  0  0  0  0  0  0  0  0  0
   36.9550   19.0670   25.9240 C   0  0  0  0  0  0  0  0  0  0  0  0
   38.0990   19.6070   26.3420 N   0  0  0  0  0  0  0  0  0  0  0  0
   38.1280   19.4020   27.6390 N   0  0  0  0  0  0  0  0  0  0  0  0
   39.0710   20.2720   25.5010 C   0  0  0  0  0  0  0  0  0  0  0  0
   39.9150   21.3760   26.0590 C   0  0  0  0  0  0  0  0  0  0  0  0
   38.8250   21.6980   25.1030 C   0  0  0  0  0  0  0  0  0  0  0  0
   34.9884   20.6764   31.7439 H   0  0  0  0  0  0  0  0  0  0  0  0
   34.2064   20.5232   33.3678 H   0  0  0  0  0  0  0  0  0  0  0  0
   36.1362   20.7734   35.5572 H   0  0  0  0  0  0  0  0  0  0  0  0
   37.0988   22.1901   31.6267 H   0  0  0  0  0  0  0  0  0  0  0  0
   40.2804   21.8212   35.6265 H   0  0  0  0  0  0  0  0  0  0  0  0
   41.1635   22.4974   37.8752 H   0  0  0  0  0  0  0  0  0  0  0  0
   37.2941   23.9032   38.9137 H   0  0  0  0  0  0  0  0  0  0  0  0
   36.1717   18.6792   33.6468 H   0  0  0  0  0  0  0  0  0  0  0  0
   34.5380   18.3017   32.9683 H   0  0  0  0  0  0  0  0  0  0  0  0
   35.2960   17.9923   27.0010 H   0  0  0  0  0  0  0  0  0  0  0  0
   36.6034   19.0585   24.8817 H   0  0  0  0  0  0  0  0  0  0  0  0
   39.2797   19.3300   24.9727 H   0  0  0  0  0  0  0  0  0  0  0  0
   39.8182   21.6595   27.1174 H   0  0  0  0  0  0  0  0  0  0  0  0
   40.9949   21.5808   26.1012 H   0  0  0  0  0  0  0  0  0  0  0  0
   39.0690   22.0341   24.0844 H   0  0  0  0  0  0  0  0  0  0  0  0
   37.9532   22.3687   25.1163 H   0  0  0  0  0  0  0  0  0  0  0  0
  1 13  1  0
  1  4  1  0
  2  7  1  0
  3  2  2  0
  4  3  1  0
  5  4  2  0
  5  6  1  0
  6  2  1  0
  7  8  2  0
  7 12  1  0
  8  9  1  0
  9 10  2  0
 11 10  1  0
 12 11  2  0
 14 13  1  0
 15 14  2  0
 16 15  1  0
 17 16  1  0
 17 18  2  0
 18 14  1  0
 19 17  1  0
 20 19  1  0
 21 22  1  0
 21 20  2  0
 22 23  1  0
 23 19  2  0
 24 25  1  0
 24 22  1  0
 26 24  1  0
 26 25  1  0
  1 27  1  0
  1 28  1  0
  3 29  1  0
  5 30  1  0
  8 31  1  0
  9 32  1  0
 11 33  1  0
 13 34  1  0
 13 35  1  0
 20 36  1  0
 21 37  1  0
 24 38  1  0
 25 39  1  0
 25 40  1  0
 26 41  1  0
 26 42  1  0
M  ISO  8  27   8  28   8  29  14  30  14  31  14  32  14  33  14  34   8
M  ISO  8  35   8  36  14  37  14  38  13  39  13  40  13  41  13  42  13
M  END
>  <minimizedAffinity>  (1) 
-5.17200661

>  <minimizedRMSD>  (1) 
0.399216115

$$$$
