
     RDKit          3D

 33 35  0  0  1  0  0  0  0  0999 V2000
   38.9280   23.5670   35.4030 C   0  0  1  0  0  0  0  0  0  0  0  0
   38.3450   24.7980   35.9900 C   0  0  0  0  0  0  0  0  0  0  0  0
   37.4510   24.2730   37.0840 C   0  0  0  0  0  0  0  0  0  0  0  0
   38.2500   23.1530   37.6780 C   0  0  0  0  0  0  0  0  0  0  0  0
   39.0690   22.5990   36.5700 C   0  0  2  0  0  0  0  0  0  0  0  0
   37.7570   23.6050   33.2090 C   0  0  0  0  0  0  0  0  0  0  0  0
   36.9110   22.8110   32.4470 C   0  0  0  0  0  0  0  0  0  0  0  0
   36.7130   21.6930   33.2020 N   0  0  0  0  0  0  0  0  0  0  0  0
   37.4150   21.8540   34.3320 C   0  0  0  0  0  0  0  0  0  0  0  0
   38.0700   23.0220   34.3700 N   0  0  0  0  0  0  0  0  0  0  0  0
   38.2590   24.9200   32.8170 C   0  0  0  0  0  0  0  0  0  0  0  0
   39.5900   25.0390   32.3390 C   0  0  0  0  0  0  0  0  0  0  0  0
   39.9990   26.3400   31.9820 C   0  0  0  0  0  0  0  0  0  0  0  0
   39.1440   27.3610   32.1060 N   0  0  0  0  0  0  0  0  0  0  0  0
   37.8940   27.2040   32.5620 C   0  0  0  0  0  0  0  0  0  0  0  0
   37.4330   25.9780   32.9260 N   0  0  0  0  0  0  0  0  0  0  0  0
   40.5440   22.5640   36.9580 C   0  0  0  0  0  0  0  0  0  0  0  0
   40.6950   23.0080   38.2660 F   0  0  0  0  0  0  0  0  0  0  0  0
   41.2410   23.4820   36.1700 F   0  0  0  0  0  0  0  0  0  0  0  0
   41.1050   21.3280   36.7880 F   0  0  0  0  0  0  0  0  0  0  0  0
   39.8946   23.7639   34.9163 H   0  0  0  0  0  0  0  0  0  0  0  0
   39.1309   25.4482   36.4018 H   0  0  0  0  0  0  0  0  0  0  0  0
   37.8069   25.4123   35.2531 H   0  0  0  0  0  0  0  0  0  0  0  0
   37.2473   25.0519   37.8336 H   0  0  0  0  0  0  0  0  0  0  0  0
   36.4662   23.9497   36.7157 H   0  0  0  0  0  0  0  0  0  0  0  0
   38.8998   23.5315   38.4808 H   0  0  0  0  0  0  0  0  0  0  0  0
   37.5985   22.3845   38.1194 H   0  0  0  0  0  0  0  0  0  0  0  0
   38.7351   21.5792   36.3279 H   0  0  0  0  0  0  0  0  0  0  0  0
   36.4930   23.0342   31.4543 H   0  0  0  0  0  0  0  0  0  0  0  0
   37.4497   21.1085   35.1401 H   0  0  0  0  0  0  0  0  0  0  0  0
   40.2601   24.1710   32.2525 H   0  0  0  0  0  0  0  0  0  0  0  0
   41.0168   26.5147   31.6031 H   0  0  0  0  0  0  0  0  0  0  0  0
   37.2320   28.0787   32.6429 H   0  0  0  0  0  0  0  0  0  0  0  0
  1  2  1  0
  1  5  1  0
  2  3  1  0
  3  4  1  0
  5 17  1  0
  5  4  1  0
  6 10  1  0
  7  8  1  0
  7  6  2  0
  8  9  2  0
  9 10  1  0
 10  1  1  0
 11 16  1  0
 11  6  1  0
 12 11  2  0
 13 14  2  0
 13 12  1  0
 14 15  1  0
 15 16  2  0
 17 18  1  0
 19 17  1  0
 20 17  1  0
  1 21  1  6
  2 22  1  0
  2 23  1  0
  3 24  1  0
  3 25  1  0
  4 26  1  0
  4 27  1  0
  5 28  1  6
  7 29  1  0
  9 30  1  0
 12 31  1  0
 13 32  1  0
 15 33  1  0
M  ISO  8  21  13  22  13  23  13  24  13  25  13  26  13  27  13  28  13
M  ISO  5  29  14  30  14  31  14  32  14  33  14
M  END
>  <minimizedAffinity>  (1) 
-4.6167078

>  <minimizedRMSD>  (1) 
0.958845735

$$$$
