
     RDKit          3D

 41 44  0  0  0  0  0  0  0  0999 V2000
   35.1380   20.3260   32.7790 C   0  0  0  0  0  0  0  0  0  0  0  0
   37.6300   22.1620   34.7990 C   0  0  0  0  0  0  0  0  0  0  0  0
   36.5830   21.2850   34.6970 C   0  0  0  0  0  0  0  0  0  0  0  0
   36.2020   21.1450   33.3960 C   0  0  0  0  0  0  0  0  0  0  0  0
   37.0820   21.9920   32.7110 C   0  0  0  0  0  0  0  0  0  0  0  0
   37.9070   22.5700   33.5870 O   0  0  0  0  0  0  0  0  0  0  0  0
   38.2490   22.5100   36.0540 C   0  0  0  0  0  0  0  0  0  0  0  0
   39.5790   22.3050   36.3690 C   0  0  0  0  0  0  0  0  0  0  0  0
   40.0620   22.6830   37.6160 C   0  0  0  0  0  0  0  0  0  0  0  0
   39.2130   23.2420   38.4870 N   0  0  0  0  0  0  0  0  0  0  0  0
   37.9050   23.4430   38.1730 C   0  0  0  0  0  0  0  0  0  0  0  0
   37.4250   23.0810   36.9680 N   0  0  0  0  0  0  0  0  0  0  0  0
   35.4980   18.8320   32.8160 C   0  0  0  0  0  0  0  0  0  0  0  0
   36.0580   18.3920   31.5380 C   0  0  0  0  0  0  0  0  0  0  0  0
   36.5820   17.1890   31.2390 N   0  0  0  0  0  0  0  0  0  0  0  0
   36.9770   17.1800   29.9920 O   0  0  0  0  0  0  0  0  0  0  0  0
   36.7420   18.3360   29.4310 C   0  0  0  0  0  0  0  0  0  0  0  0
   36.1630   19.1110   30.3920 N   0  0  0  0  0  0  0  0  0  0  0  0
   37.0260   18.7430   28.0660 C   0  0  0  0  0  0  0  0  0  0  0  0
   36.2300   18.5530   26.9740 C   0  0  0  0  0  0  0  0  0  0  0  0
   36.9160   19.1050   25.9000 C   0  0  0  0  0  0  0  0  0  0  0  0
   38.0840   19.6090   26.3310 N   0  0  0  0  0  0  0  0  0  0  0  0
   38.1030   19.3660   27.6340 N   0  0  0  0  0  0  0  0  0  0  0  0
   39.2030   20.2900   25.7110 C   0  0  0  0  0  0  0  0  0  0  0  0
   38.7800   21.5620   25.0100 C   0  0  0  0  0  0  0  0  0  0  0  0
   35.0059   20.6379   31.7325 H   0  0  0  0  0  0  0  0  0  0  0  0
   34.2081   20.4755   33.3473 H   0  0  0  0  0  0  0  0  0  0  0  0
   36.1150   20.7661   35.5465 H   0  0  0  0  0  0  0  0  0  0  0  0
   37.0919   22.1552   31.6232 H   0  0  0  0  0  0  0  0  0  0  0  0
   40.2543   21.8433   35.6336 H   0  0  0  0  0  0  0  0  0  0  0  0
   41.1180   22.5264   37.8813 H   0  0  0  0  0  0  0  0  0  0  0  0
   37.2327   23.9057   38.9105 H   0  0  0  0  0  0  0  0  0  0  0  0
   36.2391   18.6609   33.6106 H   0  0  0  0  0  0  0  0  0  0  0  0
   34.5809   18.2570   33.0114 H   0  0  0  0  0  0  0  0  0  0  0  0
   35.2457   18.0626   26.9494 H   0  0  0  0  0  0  0  0  0  0  0  0
   36.5589   19.1261   24.8598 H   0  0  0  0  0  0  0  0  0  0  0  0
   39.9393   20.5419   26.4884 H   0  0  0  0  0  0  0  0  0  0  0  0
   39.6330   19.6152   24.9562 H   0  0  0  0  0  0  0  0  0  0  0  0
   38.5258   22.3264   25.7591 H   0  0  0  0  0  0  0  0  0  0  0  0
   39.6056   21.9257   24.3806 H   0  0  0  0  0  0  0  0  0  0  0  0
   37.9010   21.3589   24.3806 H   0  0  0  0  0  0  0  0  0  0  0  0
  1 13  1  0
  1  4  1  0
  2  7  1  0
  3  2  2  0
  4  3  1  0
  5  4  2  0
  5  6  1  0
  6  2  1  0
  7  8  2  0
  7 12  1  0
  8  9  1  0
  9 10  2  0
 11 10  1  0
 12 11  2  0
 14 13  1  0
 15 14  2  0
 16 15  1  0
 17 16  1  0
 17 18  2  0
 18 14  1  0
 19 17  1  0
 20 19  1  0
 21 22  1  0
 21 20  2  0
 22 23  1  0
 23 19  2  0
 24 22  1  0
 25 24  1  0
  1 26  1  0
  1 27  1  0
  3 28  1  0
  5 29  1  0
  8 30  1  0
  9 31  1  0
 11 32  1  0
 13 33  1  0
 13 34  1  0
 20 35  1  0
 21 36  1  0
 24 37  1  0
 24 38  1  0
 25 39  1  0
 25 40  1  0
 25 41  1  0
M  ISO  8  26   8  27   8  28  14  29  14  30  14  31  14  32  14  33   8
M  ISO  8  34   8  35  14  36  14  37   8  38   8  39   8  40   8  41   8
M  END
>  <minimizedAffinity>  (1) 
-5.09085321

>  <minimizedRMSD>  (1) 
0.289317846

$$$$
