
     RDKit          3D

 44 47  0  0  1  0  0  0  0  0999 V2000
   38.9380   23.8740   35.3830 C   0  0  1  0  0  0  0  0  0  0  0  0
   38.1640   24.9010   36.1520 C   0  0  0  0  0  0  0  0  0  0  0  0
   37.5550   24.1150   37.2730 C   0  0  0  0  0  0  0  0  0  0  0  0
   38.6550   23.1600   37.6690 C   0  0  0  0  0  0  0  0  0  0  0  0
   39.4570   22.9410   36.4620 C   0  0  2  0  0  0  0  0  0  0  0  0
   37.7170   23.7080   33.2400 C   0  0  0  0  0  0  0  0  0  0  0  0
   36.9350   22.7970   32.5440 C   0  0  0  0  0  0  0  0  0  0  0  0
   36.8760   21.7010   33.3530 N   0  0  0  0  0  0  0  0  0  0  0  0
   37.5930   21.9820   34.4550 C   0  0  0  0  0  0  0  0  0  0  0  0
   38.1210   23.2070   34.4160 N   0  0  0  0  0  0  0  0  0  0  0  0
   38.0720   25.0510   32.7780 C   0  0  0  0  0  0  0  0  0  0  0  0
   39.3200   25.2350   32.1260 C   0  0  0  0  0  0  0  0  0  0  0  0
   39.6070   26.5480   31.7020 C   0  0  0  0  0  0  0  0  0  0  0  0
   38.7050   27.5300   31.9320 N   0  0  0  0  0  0  0  0  0  0  0  0
   37.5350   27.2910   32.5580 C   0  0  0  0  0  0  0  0  0  0  0  0
   37.1910   26.0570   32.9920 N   0  0  0  0  0  0  0  0  0  0  0  0
   40.8550   23.1330   36.5490 N   0  0  0  0  0  0  0  0  0  0  0  0
   41.4990   23.5660   35.3600 C   0  0  0  0  0  0  0  0  0  0  0  0
   42.3790   22.5800   34.6750 C   0  0  0  0  0  0  0  0  0  0  0  0
   43.1240   21.7090   35.5570 N   0  0  0  0  0  0  0  0  0  0  0  0
   42.2180   21.1130   36.5520 C   0  0  0  0  0  0  0  0  0  0  0  0
   41.6680   22.3110   37.3280 C   0  0  0  0  0  0  0  0  0  0  0  0
   39.7529   24.3062   34.7838 H   0  0  0  0  0  0  0  0  0  0  0  0
   38.8299   25.6863   36.5391 H   0  0  0  0  0  0  0  0  0  0  0  0
   37.4144   25.4207   35.5372 H   0  0  0  0  0  0  0  0  0  0  0  0
   37.2833   24.7722   38.1122 H   0  0  0  0  0  0  0  0  0  0  0  0
   36.6257   23.6029   36.9830 H   0  0  0  0  0  0  0  0  0  0  0  0
   39.2745   23.5999   38.4644 H   0  0  0  0  0  0  0  0  0  0  0  0
   38.2466   22.2152   38.0571 H   0  0  0  0  0  0  0  0  0  0  0  0
   39.3381   21.8674   36.2541 H   0  0  0  0  0  0  0  0  0  0  0  0
   36.4664   22.9297   31.5577 H   0  0  0  0  0  0  0  0  0  0  0  0
   37.7289   21.2823   35.2928 H   0  0  0  0  0  0  0  0  0  0  0  0
   40.0205   24.4029   31.9618 H   0  0  0  0  0  0  0  0  0  0  0  0
   40.5542   26.7721   31.1895 H   0  0  0  0  0  0  0  0  0  0  0  0
   36.8380   28.1262   32.7210 H   0  0  0  0  0  0  0  0  0  0  0  0
   40.7160   23.8643   34.6474 H   0  0  0  0  0  0  0  0  0  0  0  0
   42.1695   24.3788   35.6760 H   0  0  0  0  0  0  0  0  0  0  0  0
   41.7489   21.9522   34.0278 H   0  0  0  0  0  0  0  0  0  0  0  0
   43.1257   23.1676   34.1207 H   0  0  0  0  0  0  0  0  0  0  0  0
   43.5656   20.9600   35.0049 H   0  0  0  0  0  0  0  0  0  0  0  0
   41.4043   20.5622   36.0575 H   0  0  0  0  0  0  0  0  0  0  0  0
   42.7279   20.3883   37.2038 H   0  0  0  0  0  0  0  0  0  0  0  0
   42.5143   22.9062   37.7015 H   0  0  0  0  0  0  0  0  0  0  0  0
   41.0509   21.9181   38.1495 H   0  0  0  0  0  0  0  0  0  0  0  0
  1  2  1  0
  1  5  1  0
  2  3  1  0
  3  4  1  0
  5 17  1  0
  5  4  1  0
  6 10  1  0
  7  6  2  0
  7  8  1  0
  8  9  2  0
 10  9  1  0
 10  1  1  0
 11 16  1  0
 11  6  1  0
 12 11  2  0
 13 14  2  0
 13 12  1  0
 14 15  1  0
 15 16  2  0
 17 22  1  0
 18 17  1  0
 19 18  1  0
 19 20  1  0
 20 21  1  0
 21 22  1  0
  1 23  1  6
  2 24  1  0
  2 25  1  0
  3 26  1  0
  3 27  1  0
  4 28  1  0
  4 29  1  0
  5 30  1  6
  7 31  1  0
  9 32  1  0
 12 33  1  0
 13 34  1  0
 15 35  1  0
 18 36  1  0
 18 37  1  0
 19 38  1  0
 19 39  1  0
 20 40  1  0
 21 41  1  0
 21 42  1  0
 22 43  1  0
 22 44  1  0
M  ISO  8  23  13  24  13  25  13  26  13  27  13  28  13  29  13  30  13
M  ISO  8  31  14  32  14  33  14  34  14  35  14  36  13  37  13  38  13
M  ISO  6  39  13  40   5  41  13  42  13  43  13  44  13
M  END
>  <minimizedAffinity>  (1) 
-4.59170914

>  <minimizedRMSD>  (1) 
1.5657624

$$$$
