
     RDKit          3D

 18 19  0  0  0  0  0  0  0  0999 V2000
   39.8600   22.9100   37.6760 C   0  0  0  0  0  0  0  0  0  0  0  0
   38.9460   23.2770   38.6790 C   0  0  0  0  0  0  0  0  0  0  0  0
   37.7830   23.9590   38.2750 C   0  0  0  0  0  0  0  0  0  0  0  0
   37.6180   24.2210   36.9420 N   0  0  0  0  0  0  0  0  0  0  0  0
   38.5230   23.8500   36.0140 C   0  0  0  0  0  0  0  0  0  0  0  0
   39.6250   23.2030   36.3930 N   0  0  0  0  0  0  0  0  0  0  0  0
   38.2630   24.2140   34.2900 S   0  0  0  0  0  0  0  0  0  0  0  0
   36.5260   27.5640   33.2240 N   0  0  0  0  0  0  0  0  0  0  0  0
   36.9450   26.3320   32.9930 N   0  0  0  0  0  0  0  0  0  0  0  0
   37.5360   25.8310   34.0940 C   0  0  0  0  0  0  0  0  0  0  0  0
   37.4800   26.8060   35.0620 C   0  0  0  0  0  0  0  0  0  0  0  0
   36.8380   27.9050   34.5080 C   0  0  0  0  0  0  0  0  0  0  0  0
   40.7809   22.3746   37.9505 H   0  0  0  0  0  0  0  0  0  0  0  0
   39.1322   23.0407   39.7370 H   0  0  0  0  0  0  0  0  0  0  0  0
   37.0275   24.2728   39.0104 H   0  0  0  0  0  0  0  0  0  0  0  0
   36.0423   28.1688   32.5449 H   0  0  0  0  0  0  0  0  0  0  0  0
   37.8719   26.7292   36.0869 H   0  0  0  0  0  0  0  0  0  0  0  0
   36.6231   28.8621   35.0058 H   0  0  0  0  0  0  0  0  0  0  0  0
  1  2  2  0
  3  2  1  0
  4  3  2  0
  5  6  2  0
  5  4  1  0
  6  1  1  0
  7  5  1  0
  8 12  1  0
  9  8  1  0
  9 10  2  0
 10  7  1  0
 10 11  1  0
 12 11  2  0
  1 13  1  0
  2 14  1  0
  3 15  1  0
  8 16  1  0
 11 17  1  0
 12 18  1  0
M  ISO  6  13  14  14  14  15  14  16   9  17  14  18  14
M  END
>  <minimizedAffinity>  (1) 
-3.65359497

>  <minimizedRMSD>  (1) 
0.960585654

$$$$
