
     RDKit          3D

 18 19  0  0  0  0  0  0  0  0999 V2000
   39.7350   22.7850   37.7910 C   0  0  0  0  0  0  0  0  0  0  0  0
   38.9120   23.3860   38.7520 C   0  0  0  0  0  0  0  0  0  0  0  0
   37.8570   24.1940   38.3120 C   0  0  0  0  0  0  0  0  0  0  0  0
   37.6910   24.3510   36.9590 N   0  0  0  0  0  0  0  0  0  0  0  0
   38.5080   23.7540   36.0590 C   0  0  0  0  0  0  0  0  0  0  0  0
   39.5150   22.9820   36.4840 N   0  0  0  0  0  0  0  0  0  0  0  0
   38.2420   23.9950   34.3210 S   0  0  0  0  0  0  0  0  0  0  0  0
   39.4510   25.3760   33.8720 C   0  0  0  0  0  0  0  0  0  0  0  0
   40.1870   26.2160   34.8120 C   0  0  0  0  0  0  0  0  0  0  0  0
   40.9720   27.1110   34.1890 C   0  0  0  0  0  0  0  0  0  0  0  0
   41.0960   27.2500   32.8140 C   0  0  0  0  0  0  0  0  0  0  0  0
   39.9130   25.9000   32.2430 S   0  0  0  0  0  0  0  0  0  0  0  0
   40.5700   22.1451   38.1124 H   0  0  0  0  0  0  0  0  0  0  0  0
   39.0903   23.2270   39.8257 H   0  0  0  0  0  0  0  0  0  0  0  0
   37.1828   24.6871   39.0278 H   0  0  0  0  0  0  0  0  0  0  0  0
   40.1080   26.1265   35.9055 H   0  0  0  0  0  0  0  0  0  0  0  0
   41.5648   27.7889   34.8206 H   0  0  0  0  0  0  0  0  0  0  0  0
   41.7094   27.9485   32.2259 H   0  0  0  0  0  0  0  0  0  0  0  0
  1  2  2  0
  3  2  1  0
  4  3  2  0
  5  6  2  0
  5  4  1  0
  6  1  1  0
  7  5  1  0
  8  7  1  0
  8  9  2  0
 10  9  1  0
 11 10  2  0
 12 11  1  0
 12  8  1  0
  1 13  1  0
  2 14  1  0
  3 15  1  0
  9 16  1  0
 10 17  1  0
 11 18  1  0
M  ISO  6  13  14  14  14  15  14  16  14  17  14  18  14
M  END
>  <minimizedAffinity>  (1) 
-3.50302625

>  <minimizedRMSD>  (1) 
0.551693439

$$$$
