
     RDKit          3D

 17 18  0  0  0  0  0  0  0  0999 V2000
   40.0090   22.6470   37.6340 C   0  0  0  0  0  0  0  0  0  0  0  0
   38.9840   23.2590   38.3720 C   0  0  0  0  0  0  0  0  0  0  0  0
   37.7420   23.4810   37.7570 C   0  0  0  0  0  0  0  0  0  0  0  0
   37.6070   23.0770   36.4510 N   0  0  0  0  0  0  0  0  0  0  0  0
   38.5980   22.4940   35.7630 C   0  0  0  0  0  0  0  0  0  0  0  0
   39.7810   22.2890   36.3650 N   0  0  0  0  0  0  0  0  0  0  0  0
   38.3700   21.9900   34.0680 S   0  0  0  0  0  0  0  0  0  0  0  0
   37.6090   23.3550   33.2000 C   0  0  0  0  0  0  0  0  0  0  0  0
   36.7400   22.7560   32.2650 C   0  0  0  0  0  0  0  0  0  0  0  0
   35.9410   24.2280   31.3520 S   0  0  0  0  0  0  0  0  0  0  0  0
   36.9900   25.3810   32.4720 C   0  0  0  0  0  0  0  0  0  0  0  0
   37.5610   24.6690   33.1150 N   0  0  0  0  0  0  0  0  0  0  0  0
   40.9909   22.4633   38.0946 H   0  0  0  0  0  0  0  0  0  0  0  0
   39.1515   23.5601   39.4166 H   0  0  0  0  0  0  0  0  0  0  0  0
   36.9117   23.9584   38.2980 H   0  0  0  0  0  0  0  0  0  0  0  0
   36.5629   21.6830   32.0996 H   0  0  0  0  0  0  0  0  0  0  0  0
   37.0211   26.4805   32.4787 H   0  0  0  0  0  0  0  0  0  0  0  0
  1  2  2  0
  3  2  1  0
  4  3  2  0
  5  6  2  0
  5  4  1  0
  6  1  1  0
  7  5  1  0
  8  7  1  0
  9  8  2  0
 10  9  1  0
 10 11  1  0
 11 12  2  0
 12  8  1  0
  1 13  1  0
  2 14  1  0
  3 15  1  0
  9 16  1  0
 11 17  1  0
M  ISO  5  13  14  14  14  15  14  16  14  17  14
M  END
>  <minimizedAffinity>  (1) 
-3.5441165

>  <minimizedRMSD>  (1) 
2.94933534

$$$$
