
     RDKit          3D

 17 17  0  0  0  0  0  0  0  0999 V2000
   39.8820   22.9260   37.4080 C   0  0  0  0  0  0  0  0  0  0  0  0
   39.0730   23.1270   38.5270 C   0  0  0  0  0  0  0  0  0  0  0  0
   37.9350   23.9300   38.4050 C   0  0  0  0  0  0  0  0  0  0  0  0
   37.6800   24.4790   37.1780 N   0  0  0  0  0  0  0  0  0  0  0  0
   38.4770   24.2680   36.1170 C   0  0  0  0  0  0  0  0  0  0  0  0
   39.5660   23.4980   36.2350 N   0  0  0  0  0  0  0  0  0  0  0  0
   38.1150   24.9990   34.5290 S   0  0  0  0  0  0  0  0  0  0  0  0
   37.4340   26.6570   34.9100 C   0  0  0  0  0  0  0  0  0  0  0  0
   38.5370   27.4340   35.6190 C   0  0  0  0  0  0  0  0  0  0  0  0
   40.7811   22.2972   37.4870 H   0  0  0  0  0  0  0  0  0  0  0  0
   39.3267   22.6608   39.4905 H   0  0  0  0  0  0  0  0  0  0  0  0
   37.2705   24.1133   39.2622 H   0  0  0  0  0  0  0  0  0  0  0  0
   37.1461   27.1707   33.9809 H   0  0  0  0  0  0  0  0  0  0  0  0
   36.5370   26.5795   35.5420 H   0  0  0  0  0  0  0  0  0  0  0  0
   38.4079   27.3431   36.7076 H   0  0  0  0  0  0  0  0  0  0  0  0
   39.5168   27.0256   35.3305 H   0  0  0  0  0  0  0  0  0  0  0  0
   38.4823   28.4941   35.3305 H   0  0  0  0  0  0  0  0  0  0  0  0
  1  2  2  0
  3  2  1  0
  4  3  2  0
  5  6  2  0
  5  4  1  0
  6  1  1  0
  7  8  1  0
  7  5  1  0
  8  9  1  0
  1 10  1  0
  2 11  1  0
  3 12  1  0
  8 13  1  0
  8 14  1  0
  9 15  1  0
  9 16  1  0
  9 17  1  0
M  ISO  8  10  14  11  14  12  14  13   8  14   8  15   8  16   8  17   8
M  END
>  <minimizedAffinity>  (1) 
-3.10916209

>  <minimizedRMSD>  (1) 
1.20512891

$$$$
