
     RDKit          3D

 36 38  0  0  1  0  0  0  0  0999 V2000
   37.8950   23.5580   33.5470 C   0  0  0  0  0  0  0  0  0  0  0  0
   37.0670   22.6620   32.8790 C   0  0  0  0  0  0  0  0  0  0  0  0
   36.9430   21.6040   33.7260 N   0  0  0  0  0  0  0  0  0  0  0  0
   37.6680   21.8940   34.8200 C   0  0  0  0  0  0  0  0  0  0  0  0
   38.2650   23.0870   34.7400 N   0  0  0  0  0  0  0  0  0  0  0  0
   39.1110   23.7370   35.6960 C   0  0  1  0  0  0  0  0  0  0  0  0
   38.3980   24.8560   36.4030 C   0  0  0  0  0  0  0  0  0  0  0  0
   37.7190   24.1580   37.5540 C   0  0  0  0  0  0  0  0  0  0  0  0
   38.7470   23.1610   38.0160 C   0  0  0  0  0  0  0  0  0  0  0  0
   39.5450   22.8320   36.8120 C   0  0  2  0  0  0  0  0  0  0  0  0
   41.0160   22.8550   37.0800 C   0  0  0  0  0  0  0  0  0  0  0  0
   41.6380   21.5160   37.2770 C   0  0  0  0  0  0  0  0  0  0  0  0
   38.3250   24.8610   33.0330 C   0  0  0  0  0  0  0  0  0  0  0  0
   39.5620   24.9830   32.3900 C   0  0  0  0  0  0  0  0  0  0  0  0
   39.8940   26.2750   31.9280 C   0  0  0  0  0  0  0  0  0  0  0  0
   39.0400   27.2890   32.1170 N   0  0  0  0  0  0  0  0  0  0  0  0
   37.8640   27.1270   32.7380 C   0  0  0  0  0  0  0  0  0  0  0  0
   37.4800   25.9190   33.2070 N   0  0  0  0  0  0  0  0  0  0  0  0
   36.6123   22.7821   31.8846 H   0  0  0  0  0  0  0  0  0  0  0  0
   37.7599   21.2227   35.6866 H   0  0  0  0  0  0  0  0  0  0  0  0
   39.9651   24.0810   35.0943 H   0  0  0  0  0  0  0  0  0  0  0  0
   39.1108   25.6116   36.7649 H   0  0  0  0  0  0  0  0  0  0  0  0
   37.6963   25.3994   35.7532 H   0  0  0  0  0  0  0  0  0  0  0  0
   37.4735   24.8699   38.3559 H   0  0  0  0  0  0  0  0  0  0  0  0
   36.7657   23.6893   37.2686 H   0  0  0  0  0  0  0  0  0  0  0  0
   39.3879   23.6015   38.7939 H   0  0  0  0  0  0  0  0  0  0  0  0
   38.2809   22.2665   38.4548 H   0  0  0  0  0  0  0  0  0  0  0  0
   39.3524   21.7934   36.5050 H   0  0  0  0  0  0  0  0  0  0  0  0
   41.5115   23.3397   36.2259 H   0  0  0  0  0  0  0  0  0  0  0  0
   41.1489   23.3995   38.0265 H   0  0  0  0  0  0  0  0  0  0  0  0
   41.7333   21.3108   38.3535 H   0  0  0  0  0  0  0  0  0  0  0  0
   41.0055   20.7458   36.8115 H   0  0  0  0  0  0  0  0  0  0  0  0
   42.6346   21.5026   36.8115 H   0  0  0  0  0  0  0  0  0  0  0  0
   40.2351   24.1239   32.2528 H   0  0  0  0  0  0  0  0  0  0  0  0
   40.8512   26.4482   31.4144 H   0  0  0  0  0  0  0  0  0  0  0  0
   37.1987   27.9932   32.8686 H   0  0  0  0  0  0  0  0  0  0  0  0
  1  5  1  0
  2  1  2  0
  2  3  1  0
  3  4  2  0
  5  4  1  0
  5  6  1  0
  6  7  1  0
  6 10  1  0
  7  8  1  0
  8  9  1  0
 10 11  1  0
 10  9  1  0
 11 12  1  0
 13 18  1  0
 13  1  1  0
 14 13  2  0
 15 16  2  0
 15 14  1  0
 16 17  1  0
 17 18  2  0
  2 19  1  0
  4 20  1  0
  6 21  1  6
  7 22  1  0
  7 23  1  0
  8 24  1  0
  8 25  1  0
  9 26  1  0
  9 27  1  0
 10 28  1  6
 11 29  1  0
 11 30  1  0
 12 31  1  0
 12 32  1  0
 12 33  1  0
 14 34  1  0
 15 35  1  0
 17 36  1  0
M  ISO  8  19  14  20  14  21  13  22  13  23  13  24  13  25  13  26  13
M  ISO  8  27  13  28  13  29   8  30   8  31   8  32   8  33   8  34  14
M  ISO  2  35  14  36  14
M  END
>  <minimizedAffinity>  (1) 
-4.48258781

>  <minimizedRMSD>  (1) 
0.475059718

$$$$
