
     RDKit          3D

 37 40  0  0  0  0  0  0  0  0999 V2000
   37.4150   22.0470   33.1220 C   0  0  0  0  0  0  0  0  0  0  0  0
   36.6360   21.1730   33.8380 C   0  0  0  0  0  0  0  0  0  0  0  0
   35.4120   20.7410   33.3880 C   0  0  0  0  0  0  0  0  0  0  0  0
   34.9180   21.1820   32.1730 C   0  0  0  0  0  0  0  0  0  0  0  0
   35.7130   22.0630   31.4600 C   0  0  0  0  0  0  0  0  0  0  0  0
   36.9210   22.4880   31.9090 C   0  0  0  0  0  0  0  0  0  0  0  0
   37.7700   23.4220   31.1590 C   0  0  0  0  0  0  0  0  0  0  0  0
   38.6930   22.9920   30.2270 C   0  0  0  0  0  0  0  0  0  0  0  0
   39.4930   23.8520   29.5180 C   0  0  0  0  0  0  0  0  0  0  0  0
   39.3260   25.1930   29.7880 C   0  0  0  0  0  0  0  0  0  0  0  0
   38.4190   25.6970   30.7100 C   0  0  0  0  0  0  0  0  0  0  0  0
   38.2700   27.0250   30.9610 C   0  0  0  0  0  0  0  0  0  0  0  0
   37.3650   27.5130   31.8790 C   0  0  0  0  0  0  0  0  0  0  0  0
   36.5960   26.5750   32.5520 C   0  0  0  0  0  0  0  0  0  0  0  0
   36.7230   25.2130   32.3200 C   0  0  0  0  0  0  0  0  0  0  0  0
   37.6470   24.7760   31.3860 C   0  0  0  0  0  0  0  0  0  0  0  0
   39.0230   22.6180   33.7110 S   0  0  0  0  0  0  0  0  0  0  0  0
   39.9480   22.6170   37.5670 C   0  0  0  0  0  0  0  0  0  0  0  0
   38.9280   23.3230   38.1840 C   0  0  0  0  0  0  0  0  0  0  0  0
   37.9020   23.8240   37.3740 C   0  0  0  0  0  0  0  0  0  0  0  0
   37.9650   23.5920   36.0270 N   0  0  0  0  0  0  0  0  0  0  0  0
   38.9660   22.9060   35.4590 C   0  0  0  0  0  0  0  0  0  0  0  0
   39.9550   22.4230   36.2440 N   0  0  0  0  0  0  0  0  0  0  0  0
   37.0048   20.8052   34.8069 H   0  0  0  0  0  0  0  0  0  0  0  0
   34.8214   20.0407   33.9969 H   0  0  0  0  0  0  0  0  0  0  0  0
   33.9413   20.8488   31.7922 H   0  0  0  0  0  0  0  0  0  0  0  0
   35.3506   22.4337   30.4898 H   0  0  0  0  0  0  0  0  0  0  0  0
   38.7915   21.9117   30.0446 H   0  0  0  0  0  0  0  0  0  0  0  0
   40.2238   23.4927   28.7785 H   0  0  0  0  0  0  0  0  0  0  0  0
   39.9520   25.9105   29.2372 H   0  0  0  0  0  0  0  0  0  0  0  0
   38.8978   27.7396   30.4085 H   0  0  0  0  0  0  0  0  0  0  0  0
   37.2580   28.5913   32.0683 H   0  0  0  0  0  0  0  0  0  0  0  0
   35.8616   26.9223   33.2937 H   0  0  0  0  0  0  0  0  0  0  0  0
   36.0997   24.4920   32.8692 H   0  0  0  0  0  0  0  0  0  0  0  0
   40.7673   22.2085   38.1768 H   0  0  0  0  0  0  0  0  0  0  0  0
   38.9245   23.4842   39.2721 H   0  0  0  0  0  0  0  0  0  0  0  0
   37.0657   24.3903   37.8097 H   0  0  0  0  0  0  0  0  0  0  0  0
  1 17  1  0
  1  2  2  0
  3  2  1  0
  4  3  2  0
  5  6  2  0
  5  4  1  0
  6  1  1  0
  7 16  1  0
  7  6  1  0
  8  7  2  0
  9 10  2  0
  9  8  1  0
 10 11  1  0
 11 12  1  0
 11 16  2  0
 12 13  2  0
 13 14  1  0
 15 14  2  0
 16 15  1  0
 17 22  1  0
 18 19  2  0
 20 19  1  0
 21 20  2  0
 22 21  1  0
 22 23  2  0
 23 18  1  0
  2 24  1  0
  3 25  1  0
  4 26  1  0
  5 27  1  0
  8 28  1  0
  9 29  1  0
 10 30  1  0
 12 31  1  0
 13 32  1  0
 14 33  1  0
 15 34  1  0
 18 35  1  0
 19 36  1  0
 20 37  1  0
M  ISO  8  24  14  25  14  26  14  27  14  28  14  29  14  30  14  31  14
M  ISO  6  32  14  33  14  34  14  35  14  36  14  37  14
M  END
>  <minimizedAffinity>  (1) 
-5.73847103

>  <minimizedRMSD>  (1) 
0.938268483

$$$$
