
     RDKit          3D

 35 38  0  0  0  0  0  0  0  0999 V2000
   37.4080   22.2220   33.3650 C   0  0  0  0  0  0  0  0  0  0  0  0
   36.7450   21.1450   33.9220 C   0  0  0  0  0  0  0  0  0  0  0  0
   35.5460   20.6770   33.4330 C   0  0  0  0  0  0  0  0  0  0  0  0
   34.9580   21.2940   32.3340 C   0  0  0  0  0  0  0  0  0  0  0  0
   35.6450   22.3670   31.8000 C   0  0  0  0  0  0  0  0  0  0  0  0
   36.8280   22.8410   32.2710 C   0  0  0  0  0  0  0  0  0  0  0  0
   37.4550   23.9560   31.6440 N   0  0  0  0  0  0  0  0  0  0  0  0
   38.1560   23.7930   30.5010 C   0  0  0  0  0  0  0  0  0  0  0  0
   38.6300   25.0140   30.1430 N   0  0  0  0  0  0  0  0  0  0  0  0
   38.2180   25.8900   31.0610 C   0  0  0  0  0  0  0  0  0  0  0  0
   38.3820   27.2560   31.2340 C   0  0  0  0  0  0  0  0  0  0  0  0
   39.0550   27.9330   30.3970 O   0  0  0  0  0  0  0  0  0  0  0  0
   37.8170   27.8470   32.3000 N   0  0  0  0  0  0  0  0  0  0  0  0
   37.0890   27.2050   33.2320 C   0  0  0  0  0  0  0  0  0  0  0  0
   36.5670   27.9950   34.2940 N   0  0  0  0  0  0  0  0  0  0  0  0
   36.9090   25.8720   33.0970 N   0  0  0  0  0  0  0  0  0  0  0  0
   37.4700   25.2470   32.0260 C   0  0  0  0  0  0  0  0  0  0  0  0
   38.9800   22.8440   33.9980 S   0  0  0  0  0  0  0  0  0  0  0  0
   39.7750   22.7920   37.8950 C   0  0  0  0  0  0  0  0  0  0  0  0
   38.7040   23.4560   38.4930 C   0  0  0  0  0  0  0  0  0  0  0  0
   37.7010   23.9350   37.6610 C   0  0  0  0  0  0  0  0  0  0  0  0
   37.7900   23.7500   36.3210 N   0  0  0  0  0  0  0  0  0  0  0  0
   38.8420   23.1010   35.7610 C   0  0  0  0  0  0  0  0  0  0  0  0
   39.8060   22.6410   36.5830 N   0  0  0  0  0  0  0  0  0  0  0  0
   37.1933   20.6413   34.7911 H   0  0  0  0  0  0  0  0  0  0  0  0
   35.0541   19.8168   33.9106 H   0  0  0  0  0  0  0  0  0  0  0  0
   34.0018   20.9479   31.9145 H   0  0  0  0  0  0  0  0  0  0  0  0
   35.2021   22.8745   30.9303 H   0  0  0  0  0  0  0  0  0  0  0  0
   38.3135   22.8477   29.9610 H   0  0  0  0  0  0  0  0  0  0  0  0
   37.9503   28.8622   32.4117 H   0  0  0  0  0  0  0  0  0  0  0  0
   36.0027   27.5543   35.0344 H   0  0  0  0  0  0  0  0  0  0  0  0
   36.7535   29.0076   34.3224 H   0  0  0  0  0  0  0  0  0  0  0  0
   40.5924   22.3948   38.5148 H   0  0  0  0  0  0  0  0  0  0  0  0
   38.6558   23.5950   39.5831 H   0  0  0  0  0  0  0  0  0  0  0  0
   36.8360   24.4635   38.0882 H   0  0  0  0  0  0  0  0  0  0  0  0
  1  2  2  0
  1 18  1  0
  3  2  1  0
  4  3  2  0
  5  6  2  0
  5  4  1  0
  6  1  1  0
  7 17  1  0
  7  6  1  0
  8  7  1  0
  9  8  2  0
  9 10  1  0
 10 11  1  0
 10 17  2  0
 11 13  1  0
 12 11  2  0
 13 14  1  0
 14 15  1  0
 16 14  2  0
 17 16  1  0
 18 23  1  0
 19 20  2  0
 21 20  1  0
 22 21  2  0
 23 22  1  0
 23 24  2  0
 24 19  1  0
  2 25  1  0
  3 26  1  0
  4 27  1  0
  5 28  1  0
  8 29  1  0
 13 30  1  0
 15 31  1  0
 15 32  1  0
 19 33  1  0
 20 34  1  0
 21 35  1  0
M  ISO  8  25  14  26  14  27  14  28  14  29  14  30   9  33  14  34  14
M  ISO  1  35  14
M  END
>  <minimizedAffinity>  (1) 
-5.97136974

>  <minimizedRMSD>  (1) 
1.60638082

$$$$
