
     RDKit          3D

 29 31  0  0  0  0  0  0  0  0999 V2000
   37.3390   22.3750   33.3640 C   0  0  0  0  0  0  0  0  0  0  0  0
   36.7880   21.2720   33.9600 C   0  0  0  0  0  0  0  0  0  0  0  0
   35.6400   20.6520   33.4980 C   0  0  0  0  0  0  0  0  0  0  0  0
   35.0100   21.1650   32.3810 C   0  0  0  0  0  0  0  0  0  0  0  0
   35.5760   22.2760   31.7910 C   0  0  0  0  0  0  0  0  0  0  0  0
   36.7040   22.8870   32.2420 C   0  0  0  0  0  0  0  0  0  0  0  0
   37.3130   24.0610   31.6270 C   0  0  0  0  0  0  0  0  0  0  0  0
   38.2760   23.9990   30.6470 C   0  0  0  0  0  0  0  0  0  0  0  0
   38.8510   25.1090   30.0670 C   0  0  0  0  0  0  0  0  0  0  0  0
   38.4400   26.3160   30.4920 N   0  0  0  0  0  0  0  0  0  0  0  0
   37.5150   26.4170   31.4350 C   0  0  0  0  0  0  0  0  0  0  0  0
   36.9810   25.3300   31.9720 N   0  0  0  0  0  0  0  0  0  0  0  0
   38.8430   23.1640   33.9890 S   0  0  0  0  0  0  0  0  0  0  0  0
   39.7590   22.7700   37.8260 C   0  0  0  0  0  0  0  0  0  0  0  0
   38.7310   23.4150   38.5110 C   0  0  0  0  0  0  0  0  0  0  0  0
   37.7160   23.9930   37.7600 C   0  0  0  0  0  0  0  0  0  0  0  0
   37.7710   23.9050   36.3980 N   0  0  0  0  0  0  0  0  0  0  0  0
   38.7850   23.2710   35.7560 C   0  0  0  0  0  0  0  0  0  0  0  0
   39.7640   22.7130   36.4890 N   0  0  0  0  0  0  0  0  0  0  0  0
   37.2828   20.8579   34.8509 H   0  0  0  0  0  0  0  0  0  0  0  0
   35.2366   19.7666   34.0112 H   0  0  0  0  0  0  0  0  0  0  0  0
   34.0947   20.7065   31.9785 H   0  0  0  0  0  0  0  0  0  0  0  0
   35.0842   22.6937   30.9001 H   0  0  0  0  0  0  0  0  0  0  0  0
   38.6062   23.0065   30.3066 H   0  0  0  0  0  0  0  0  0  0  0  0
   39.6182   25.0108   29.2849 H   0  0  0  0  0  0  0  0  0  0  0  0
   37.1879   27.4108   31.7746 H   0  0  0  0  0  0  0  0  0  0  0  0
   40.5775   22.3013   38.3920 H   0  0  0  0  0  0  0  0  0  0  0  0
   38.7238   23.4646   39.6099 H   0  0  0  0  0  0  0  0  0  0  0  0
   36.8817   24.5130   38.2536 H   0  0  0  0  0  0  0  0  0  0  0  0
  1  2  2  0
  1 13  1  0
  3  2  1  0
  4  3  2  0
  5  6  2  0
  5  4  1  0
  6  1  1  0
  7 12  1  0
  7  6  1  0
  8  7  2  0
  9 10  2  0
  9  8  1  0
 10 11  1  0
 11 12  2  0
 13 18  1  0
 14 15  2  0
 16 15  1  0
 17 16  2  0
 18 17  1  0
 18 19  2  0
 19 14  1  0
  2 20  1  0
  3 21  1  0
  4 22  1  0
  5 23  1  0
  8 24  1  0
  9 25  1  0
 11 26  1  0
 14 27  1  0
 15 28  1  0
 16 29  1  0
M  ISO  8  20  14  21  14  22  14  23  14  24  14  25  14  26  14  27  14
M  ISO  2  28  14  29  14
M  END
>  <minimizedAffinity>  (1) 
-4.99607706

>  <minimizedRMSD>  (1) 
0.613592982

$$$$
