
     RDKit          3D

 34 36  0  0  0  0  0  0  0  0999 V2000
   37.4700   22.7210   33.3020 C   0  0  0  0  0  0  0  0  0  0  0  0
   37.0600   21.4910   33.7480 C   0  0  0  0  0  0  0  0  0  0  0  0
   35.9810   20.8230   33.2110 C   0  0  0  0  0  0  0  0  0  0  0  0
   35.2560   21.3900   32.1730 C   0  0  0  0  0  0  0  0  0  0  0  0
   35.6840   22.6350   31.7320 C   0  0  0  0  0  0  0  0  0  0  0  0
   36.7600   23.3000   32.2690 C   0  0  0  0  0  0  0  0  0  0  0  0
   37.7820   27.1050   30.6020 C   0  0  0  0  0  0  0  0  0  0  0  0
   38.4840   25.9590   30.2420 C   0  0  0  0  0  0  0  0  0  0  0  0
   38.1400   24.7250   30.7920 C   0  0  0  0  0  0  0  0  0  0  0  0
   37.0990   24.6030   31.7080 C   0  0  0  0  0  0  0  0  0  0  0  0
   36.4320   25.7670   32.0350 C   0  0  0  0  0  0  0  0  0  0  0  0
   36.7400   27.0080   31.5130 C   0  0  0  0  0  0  0  0  0  0  0  0
   38.1260   28.7020   29.9750 S   0  0  0  0  0  0  0  0  0  0  0  0
   37.6270   28.7610   28.5410 O   0  0  0  0  0  0  0  0  0  0  0  0
   37.2780   29.6900   30.7280 O   0  0  0  0  0  0  0  0  0  0  0  0
   38.8770   23.5900   34.0020 S   0  0  0  0  0  0  0  0  0  0  0  0
   39.7650   22.7960   37.7900 C   0  0  0  0  0  0  0  0  0  0  0  0
   38.7560   23.3810   38.5410 C   0  0  0  0  0  0  0  0  0  0  0  0
   37.7530   24.0540   37.8480 C   0  0  0  0  0  0  0  0  0  0  0  0
   37.8100   24.1050   36.4790 N   0  0  0  0  0  0  0  0  0  0  0  0
   38.8020   23.5260   35.7890 C   0  0  0  0  0  0  0  0  0  0  0  0
   39.7790   22.8700   36.4690 N   0  0  0  0  0  0  0  0  0  0  0  0
   37.6164   21.0170   34.5700 H   0  0  0  0  0  0  0  0  0  0  0  0
   35.6938   19.8375   33.6064 H   0  0  0  0  0  0  0  0  0  0  0  0
   34.3900   20.8814   31.7242 H   0  0  0  0  0  0  0  0  0  0  0  0
   35.1328   23.1143   30.9095 H   0  0  0  0  0  0  0  0  0  0  0  0
   39.3125   26.0268   29.5216 H   0  0  0  0  0  0  0  0  0  0  0  0
   38.7036   23.8281   30.4956 H   0  0  0  0  0  0  0  0  0  0  0  0
   35.6039   25.7018   32.7561 H   0  0  0  0  0  0  0  0  0  0  0  0
   36.1713   27.9005   31.8131 H   0  0  0  0  0  0  0  0  0  0  0  0
   39.4657   28.9689   30.0793 H   0  0  0  0  0  0  0  0  0  0  0  0
   40.5736   22.2572   38.3055 H   0  0  0  0  0  0  0  0  0  0  0  0
   38.7485   23.3159   39.6390 H   0  0  0  0  0  0  0  0  0  0  0  0
   36.9274   24.5375   38.3907 H   0  0  0  0  0  0  0  0  0  0  0  0
  1  2  2  0
  1 16  1  0
  3  2  1  0
  4  3  2  0
  5  4  1  0
  5  6  2  0
  6  1  1  0
  7 12  2  0
  8  7  1  0
  8  9  2  0
  9 10  1  0
 10 11  2  0
 10  6  1  0
 12 11  1  0
 13  7  1  0
 13 15  2  0
 14 13  2  0
 16 21  1  0
 17 18  2  0
 19 18  1  0
 20 19  2  0
 21 22  2  0
 21 20  1  0
 22 17  1  0
  2 23  1  0
  3 24  1  0
  4 25  1  0
  5 26  1  0
  8 27  1  0
  9 28  1  0
 11 29  1  0
 12 30  1  0
 13 31  1  0
 17 32  1  0
 18 33  1  0
 19 34  1  0
M  ISO  8  23  14  24  14  25  14  26  14  27  14  28  14  29  14  30  14
M  ISO  4  31  11  32  14  33  14  34  14
M  END
>  <minimizedAffinity>  (1) 
-5.25471067

>  <minimizedRMSD>  (1) 
1.38775384

$$$$
