
     RDKit          3D

 26 28  0  0  0  0  0  0  0  0999 V2000
   37.3280   22.3690   33.3680 C   0  0  0  0  0  0  0  0  0  0  0  0
   36.8110   21.2200   33.9190 C   0  0  0  0  0  0  0  0  0  0  0  0
   35.6650   20.6160   33.4570 C   0  0  0  0  0  0  0  0  0  0  0  0
   34.9870   21.1740   32.3880 C   0  0  0  0  0  0  0  0  0  0  0  0
   35.5130   22.3310   31.8360 C   0  0  0  0  0  0  0  0  0  0  0  0
   36.6520   22.9230   32.3050 C   0  0  0  0  0  0  0  0  0  0  0  0
   37.1480   24.1420   31.6730 C   0  0  0  0  0  0  0  0  0  0  0  0
   37.9790   24.2670   30.6450 N   0  0  0  0  0  0  0  0  0  0  0  0
   38.1700   25.5440   30.3880 O   0  0  0  0  0  0  0  0  0  0  0  0
   37.4690   26.2790   31.2430 C   0  0  0  0  0  0  0  0  0  0  0  0
   36.8360   25.3990   32.0380 N   0  0  0  0  0  0  0  0  0  0  0  0
   38.8300   23.1510   33.9830 S   0  0  0  0  0  0  0  0  0  0  0  0
   39.7600   22.7750   37.8280 C   0  0  0  0  0  0  0  0  0  0  0  0
   38.7430   23.4160   38.5140 C   0  0  0  0  0  0  0  0  0  0  0  0
   37.7240   23.9890   37.7550 C   0  0  0  0  0  0  0  0  0  0  0  0
   37.7540   23.9080   36.3890 N   0  0  0  0  0  0  0  0  0  0  0  0
   38.7720   23.2690   35.7540 C   0  0  0  0  0  0  0  0  0  0  0  0
   39.7490   22.7190   36.4950 N   0  0  0  0  0  0  0  0  0  0  0  0
   37.3387   20.7626   34.7689 H   0  0  0  0  0  0  0  0  0  0  0  0
   35.2910   19.6976   33.9331 H   0  0  0  0  0  0  0  0  0  0  0  0
   34.0676   20.7177   31.9923 H   0  0  0  0  0  0  0  0  0  0  0  0
   34.9918   22.7925   30.9843 H   0  0  0  0  0  0  0  0  0  0  0  0
   37.4171   27.3767   31.2908 H   0  0  0  0  0  0  0  0  0  0  0  0
   40.5844   22.3077   38.3866 H   0  0  0  0  0  0  0  0  0  0  0  0
   38.7391   23.4709   39.6126 H   0  0  0  0  0  0  0  0  0  0  0  0
   36.8931   24.5079   38.2554 H   0  0  0  0  0  0  0  0  0  0  0  0
  1  2  2  0
  1 12  1  0
  3  2  1  0
  4  3  2  0
  5  6  2  0
  5  4  1  0
  6  1  1  0
  7 11  1  0
  7  6  1  0
  8  7  2  0
  9  8  1  0
  9 10  1  0
 10 11  2  0
 12 17  1  0
 13 14  2  0
 15 14  1  0
 16 15  2  0
 17 16  1  0
 17 18  2  0
 18 13  1  0
  2 19  1  0
  3 20  1  0
  4 21  1  0
  5 22  1  0
 10 23  1  0
 13 24  1  0
 14 25  1  0
 15 26  1  0
M  ISO  8  19  14  20  14  21  14  22  14  23  14  24  14  25  14  26  14
M  END
>  <minimizedAffinity>  (1) 
-4.8123827

>  <minimizedRMSD>  (1) 
0.487166196

$$$$
