
     RDKit          3D

 28 30  0  0  0  0  0  0  0  0999 V2000
   37.4310   22.4470   33.3500 C   0  0  0  0  0  0  0  0  0  0  0  0
   36.8260   21.3240   33.8850 C   0  0  0  0  0  0  0  0  0  0  0  0
   35.6670   20.7870   33.3810 C   0  0  0  0  0  0  0  0  0  0  0  0
   35.0390   21.3560   32.2900 C   0  0  0  0  0  0  0  0  0  0  0  0
   35.6480   22.4730   31.7620 C   0  0  0  0  0  0  0  0  0  0  0  0
   36.7910   22.9950   32.2680 C   0  0  0  0  0  0  0  0  0  0  0  0
   37.3340   24.1910   31.6070 C   0  0  0  0  0  0  0  0  0  0  0  0
   38.2630   24.3650   30.6660 C   0  0  0  0  0  0  0  0  0  0  0  0
   38.6010   25.5880   30.2070 C   0  0  0  0  0  0  0  0  0  0  0  0
   37.8370   26.6850   30.8590 C   0  0  0  0  0  0  0  0  0  0  0  0
   36.7380   25.7720   32.0450 S   0  0  0  0  0  0  0  0  0  0  0  0
   38.9400   23.1410   34.0130 S   0  0  0  0  0  0  0  0  0  0  0  0
   39.7740   22.7870   37.8760 C   0  0  0  0  0  0  0  0  0  0  0  0
   38.7170   23.4290   38.5340 C   0  0  0  0  0  0  0  0  0  0  0  0
   37.7020   23.9960   37.7430 C   0  0  0  0  0  0  0  0  0  0  0  0
   37.8080   23.8870   36.3780 N   0  0  0  0  0  0  0  0  0  0  0  0
   38.8370   23.2620   35.7830 C   0  0  0  0  0  0  0  0  0  0  0  0
   39.8000   22.7250   36.5460 N   0  0  0  0  0  0  0  0  0  0  0  0
   37.2947   20.8389   34.7539 H   0  0  0  0  0  0  0  0  0  0  0  0
   35.2332   19.8925   33.8519 H   0  0  0  0  0  0  0  0  0  0  0  0
   34.1105   20.9428   31.8692 H   0  0  0  0  0  0  0  0  0  0  0  0
   35.1862   22.9623   30.8918 H   0  0  0  0  0  0  0  0  0  0  0  0
   38.7706   23.4821   30.2502 H   0  0  0  0  0  0  0  0  0  0  0  0
   39.3625   25.7562   29.4312 H   0  0  0  0  0  0  0  0  0  0  0  0
   37.9059   27.7685   30.6824 H   0  0  0  0  0  0  0  0  0  0  0  0
   40.5867   22.3317   38.4610 H   0  0  0  0  0  0  0  0  0  0  0  0
   38.6822   23.4876   39.6319 H   0  0  0  0  0  0  0  0  0  0  0  0
   36.8473   24.5122   38.2044 H   0  0  0  0  0  0  0  0  0  0  0  0
  1  2  2  0
  1 12  1  0
  3  2  1  0
  4  3  2  0
  5  6  2  0
  5  4  1  0
  6  1  1  0
  7 11  1  0
  7  6  1  0
  8  7  2  0
  9  8  1  0
  9 10  2  0
 10 11  1  0
 12 17  1  0
 13 14  2  0
 15 14  1  0
 16 15  2  0
 17 16  1  0
 17 18  2  0
 18 13  1  0
  2 19  1  0
  3 20  1  0
  4 21  1  0
  5 22  1  0
  8 23  1  0
  9 24  1  0
 10 25  1  0
 13 26  1  0
 14 27  1  0
 15 28  1  0
M  ISO  8  19  14  20  14  21  14  22  14  23  14  24  14  25  14  26  14
M  ISO  2  27  14  28  14
M  END
>  <minimizedAffinity>  (1) 
-4.80983019

>  <minimizedRMSD>  (1) 
0.710734069

$$$$
