
     RDKit          3D

 36 38  0  0  0  0  0  0  0  0999 V2000
   37.6890   22.9800   33.2150 C   0  0  0  0  0  0  0  0  0  0  0  0
   37.1870   21.7320   33.4650 C   0  0  0  0  0  0  0  0  0  0  0  0
   36.0540   21.2260   32.8570 C   0  0  0  0  0  0  0  0  0  0  0  0
   35.3770   22.0120   31.9430 C   0  0  0  0  0  0  0  0  0  0  0  0
   35.8860   23.2860   31.6870 C   0  0  0  0  0  0  0  0  0  0  0  0
   37.0080   23.7590   32.3020 C   0  0  0  0  0  0  0  0  0  0  0  0
   37.4250   25.0910   31.9460 N   0  0  0  0  0  0  0  0  0  0  0  0
   38.3820   25.3590   30.8890 C   0  0  0  0  0  0  0  0  0  0  0  0
   38.1230   26.7880   30.4250 C   0  0  0  0  0  0  0  0  0  0  0  0
   38.4330   27.7580   31.5400 C   0  0  0  0  0  0  0  0  0  0  0  0
   37.7970   27.3650   32.8410 C   0  0  0  0  0  0  0  0  0  0  0  0
   36.8670   26.1940   32.6680 C   0  0  0  0  0  0  0  0  0  0  0  0
   39.1590   23.6360   34.0050 S   0  0  0  0  0  0  0  0  0  0  0  0
   39.7520   22.8250   37.8580 C   0  0  0  0  0  0  0  0  0  0  0  0
   38.6990   23.4340   38.5250 C   0  0  0  0  0  0  0  0  0  0  0  0
   37.7640   24.1260   37.7520 C   0  0  0  0  0  0  0  0  0  0  0  0
   37.9260   24.1700   36.3960 N   0  0  0  0  0  0  0  0  0  0  0  0
   38.9620   23.5670   35.7800 C   0  0  0  0  0  0  0  0  0  0  0  0
   39.8670   22.8970   36.5350 N   0  0  0  0  0  0  0  0  0  0  0  0
   37.7149   21.0958   34.1906 H   0  0  0  0  0  0  0  0  0  0  0  0
   35.6963   20.2137   33.0964 H   0  0  0  0  0  0  0  0  0  0  0  0
   34.4713   21.6469   31.4366 H   0  0  0  0  0  0  0  0  0  0  0  0
   35.3645   23.9309   30.9644 H   0  0  0  0  0  0  0  0  0  0  0  0
   39.4086   25.2638   31.2724 H   0  0  0  0  0  0  0  0  0  0  0  0
   38.2706   24.6445   30.0601 H   0  0  0  0  0  0  0  0  0  0  0  0
   38.7637   27.0115   29.5593 H   0  0  0  0  0  0  0  0  0  0  0  0
   37.0648   26.8894   30.1424 H   0  0  0  0  0  0  0  0  0  0  0  0
   39.5235   27.7980   31.6790 H   0  0  0  0  0  0  0  0  0  0  0  0
   38.0241   28.7378   31.2521 H   0  0  0  0  0  0  0  0  0  0  0  0
   38.5863   27.0920   33.5568 H   0  0  0  0  0  0  0  0  0  0  0  0
   37.2115   28.2194   33.2113 H   0  0  0  0  0  0  0  0  0  0  0  0
   35.9745   26.5417   32.1271 H   0  0  0  0  0  0  0  0  0  0  0  0
   36.6419   25.8229   33.6787 H   0  0  0  0  0  0  0  0  0  0  0  0
   40.5072   22.2713   38.4351 H   0  0  0  0  0  0  0  0  0  0  0  0
   38.6042   23.3742   39.6193 H   0  0  0  0  0  0  0  0  0  0  0  0
   36.9092   24.6285   38.2282 H   0  0  0  0  0  0  0  0  0  0  0  0
  1  2  2  0
  1 13  1  0
  3  2  1  0
  4  3  2  0
  5  4  1  0
  5  6  2  0
  6  1  1  0
  7  6  1  0
  7 12  1  0
  8  7  1  0
  9  8  1  0
  9 10  1  0
 10 11  1  0
 12 11  1  0
 13 18  1  0
 14 15  2  0
 16 15  1  0
 17 16  2  0
 18 17  1  0
 18 19  2  0
 19 14  1  0
  2 20  1  0
  3 21  1  0
  4 22  1  0
  5 23  1  0
  8 24  1  0
  8 25  1  0
  9 26  1  0
  9 27  1  0
 10 28  1  0
 10 29  1  0
 11 30  1  0
 11 31  1  0
 12 32  1  0
 12 33  1  0
 14 34  1  0
 15 35  1  0
 16 36  1  0
M  ISO  8  20  14  21  14  22  14  23  14  24  13  25  13  26  13  27  13
M  ISO  8  28  13  29  13  30  13  31  13  32  13  33  13  34  14  35  14
M  ISO  1  36  14
M  END
>  <minimizedAffinity>  (1) 
-4.92761135

>  <minimizedRMSD>  (1) 
1.69296134

$$$$
