
     RDKit          3D

 28 30  0  0  0  0  0  0  0  0999 V2000
   37.5720   23.0690   33.1110 C   0  0  0  0  0  0  0  0  0  0  0  0
   37.2510   21.7460   33.3290 C   0  0  0  0  0  0  0  0  0  0  0  0
   36.1810   21.1090   32.7260 C   0  0  0  0  0  0  0  0  0  0  0  0
   35.3820   21.8250   31.8570 C   0  0  0  0  0  0  0  0  0  0  0  0
   35.7100   23.1430   31.6470 C   0  0  0  0  0  0  0  0  0  0  0  0
   36.7760   23.7800   32.2470 C   0  0  0  0  0  0  0  0  0  0  0  0
   36.9730   25.1790   31.9100 C   0  0  0  0  0  0  0  0  0  0  0  0
   36.7570   26.3660   32.5640 C   0  0  0  0  0  0  0  0  0  0  0  0
   37.1020   27.4340   31.8280 N   0  0  0  0  0  0  0  0  0  0  0  0
   37.5550   26.9680   30.6650 C   0  0  0  0  0  0  0  0  0  0  0  0
   37.4700   25.6370   30.7370 N   0  0  0  0  0  0  0  0  0  0  0  0
   38.9720   23.8340   33.9060 S   0  0  0  0  0  0  0  0  0  0  0  0
   39.7920   22.8050   37.6450 C   0  0  0  0  0  0  0  0  0  0  0  0
   38.7570   23.3780   38.4050 C   0  0  0  0  0  0  0  0  0  0  0  0
   37.7820   24.1050   37.7370 C   0  0  0  0  0  0  0  0  0  0  0  0
   37.8820   24.2200   36.3860 N   0  0  0  0  0  0  0  0  0  0  0  0
   38.8730   23.6680   35.6720 C   0  0  0  0  0  0  0  0  0  0  0  0
   39.8170   22.9670   36.3130 N   0  0  0  0  0  0  0  0  0  0  0  0
   37.8798   21.1653   34.0199 H   0  0  0  0  0  0  0  0  0  0  0  0
   35.9704   20.0499   32.9354 H   0  0  0  0  0  0  0  0  0  0  0  0
   34.5205   21.3608   31.3547 H   0  0  0  0  0  0  0  0  0  0  0  0
   35.0829   23.7266   30.9570 H   0  0  0  0  0  0  0  0  0  0  0  0
   36.3454   26.4347   33.5818 H   0  0  0  0  0  0  0  0  0  0  0  0
   37.9250   27.5608   29.8155 H   0  0  0  0  0  0  0  0  0  0  0  0
   37.7571   25.0144   29.9684 H   0  0  0  0  0  0  0  0  0  0  0  0
   40.5820   22.2234   38.1427 H   0  0  0  0  0  0  0  0  0  0  0  0
   38.7213   23.2535   39.4974 H   0  0  0  0  0  0  0  0  0  0  0  0
   36.9519   24.5749   38.2849 H   0  0  0  0  0  0  0  0  0  0  0  0
  1  2  2  0
  1 12  1  0
  3  2  1  0
  4  3  2  0
  5  4  1  0
  5  6  2  0
  6  1  1  0
  7  6  1  0
  7  8  2  0
  9  8  1  0
 10 11  1  0
 10  9  2  0
 11  7  1  0
 12 17  1  0
 13 14  2  0
 15 14  1  0
 16 15  2  0
 17 18  2  0
 17 16  1  0
 18 13  1  0
  2 19  1  0
  3 20  1  0
  4 21  1  0
  5 22  1  0
  8 23  1  0
 10 24  1  0
 11 25  1  0
 13 26  1  0
 14 27  1  0
 15 28  1  0
M  ISO  8  19  14  20  14  21  14  22  14  23  14  24  14  25   9  26  14
M  ISO  2  27  14  28  14
M  END
>  <minimizedAffinity>  (1) 
-4.80267477

>  <minimizedRMSD>  (1) 
1.50484252

$$$$
