
     RDKit          3D

 30 31  0  0  0  0  0  0  0  0999 V2000
   37.1910   22.5320   33.4060 C   0  0  0  0  0  0  0  0  0  0  0  0
   36.8110   21.3740   34.0510 C   0  0  0  0  0  0  0  0  0  0  0  0
   35.7860   20.5650   33.6050 C   0  0  0  0  0  0  0  0  0  0  0  0
   35.0870   20.9200   32.4460 C   0  0  0  0  0  0  0  0  0  0  0  0
   35.4740   22.0790   31.8080 C   0  0  0  0  0  0  0  0  0  0  0  0
   36.4950   22.8870   32.2490 C   0  0  0  0  0  0  0  0  0  0  0  0
   36.8950   24.1290   31.5470 C   0  0  0  0  0  0  0  0  0  0  0  0
   35.7130   24.9430   31.0600 C   0  0  0  0  0  0  0  0  0  0  0  0
   37.7730   23.7840   30.3850 C   0  0  0  0  0  0  0  0  0  0  0  0
   38.5210   23.5870   33.9790 S   0  0  0  0  0  0  0  0  0  0  0  0
   39.7580   22.7520   37.6640 C   0  0  0  0  0  0  0  0  0  0  0  0
   38.8150   23.3480   38.5130 C   0  0  0  0  0  0  0  0  0  0  0  0
   37.7490   24.0400   37.9120 C   0  0  0  0  0  0  0  0  0  0  0  0
   37.6900   24.0920   36.5450 N   0  0  0  0  0  0  0  0  0  0  0  0
   38.6100   23.5100   35.7660 C   0  0  0  0  0  0  0  0  0  0  0  0
   39.6400   22.8420   36.3480 N   0  0  0  0  0  0  0  0  0  0  0  0
   37.3503   21.0814   34.9640 H   0  0  0  0  0  0  0  0  0  0  0  0
   35.5210   19.6501   34.1551 H   0  0  0  0  0  0  0  0  0  0  0  0
   34.2638   20.3006   32.0604 H   0  0  0  0  0  0  0  0  0  0  0  0
   34.9358   22.3738   30.8951 H   0  0  0  0  0  0  0  0  0  0  0  0
   37.4362   24.7501   32.2759 H   0  0  0  0  0  0  0  0  0  0  0  0
   35.1526   25.3289   31.9243 H   0  0  0  0  0  0  0  0  0  0  0  0
   36.0737   25.7851   30.4511 H   0  0  0  0  0  0  0  0  0  0  0  0
   35.0549   24.3057   30.4511 H   0  0  0  0  0  0  0  0  0  0  0  0
   38.7375   23.4050   30.7540 H   0  0  0  0  0  0  0  0  0  0  0  0
   37.2849   23.0108   29.7735 H   0  0  0  0  0  0  0  0  0  0  0  0
   37.9419   24.6826   29.7735 H   0  0  0  0  0  0  0  0  0  0  0  0
   40.6070   22.2024   38.0965 H   0  0  0  0  0  0  0  0  0  0  0  0
   38.9056   23.2770   39.6070 H   0  0  0  0  0  0  0  0  0  0  0  0
   36.9790   24.5291   38.5267 H   0  0  0  0  0  0  0  0  0  0  0  0
  1 10  1  0
  1  2  2  0
  3  2  1  0
  4  3  2  0
  5  6  2  0
  5  4  1  0
  6  1  1  0
  7  6  1  0
  8  7  1  0
  9  7  1  0
 10 15  1  0
 11 12  2  0
 13 12  1  0
 14 13  2  0
 15 16  2  0
 15 14  1  0
 16 11  1  0
  2 17  1  0
  3 18  1  0
  4 19  1  0
  5 20  1  0
  7 21  1  0
  8 22  1  0
  8 23  1  0
  8 24  1  0
  9 25  1  0
  9 26  1  0
  9 27  1  0
 11 28  1  0
 12 29  1  0
 13 30  1  0
M  ISO  8  17  14  18  14  19  14  20  14  21   8  22   8  23   8  24   8
M  ISO  6  25   8  26   8  27   8  28  14  29  14  30  14
M  END
>  <minimizedAffinity>  (1) 
-4.73578072

>  <minimizedRMSD>  (1) 
0.672872245

$$$$
