
     RDKit          3D

 27 28  0  0  0  0  0  0  0  0999 V2000
   37.1210   22.3550   33.3860 C   0  0  0  0  0  0  0  0  0  0  0  0
   36.6880   21.2800   34.1230 C   0  0  0  0  0  0  0  0  0  0  0  0
   35.6670   20.4570   33.7270 C   0  0  0  0  0  0  0  0  0  0  0  0
   35.0090   20.6850   32.5240 C   0  0  0  0  0  0  0  0  0  0  0  0
   35.4420   21.7650   31.7830 C   0  0  0  0  0  0  0  0  0  0  0  0
   36.4710   22.5850   32.1940 C   0  0  0  0  0  0  0  0  0  0  0  0
   38.4520   23.4350   33.8910 S   0  0  0  0  0  0  0  0  0  0  0  0
   39.8220   22.7270   37.5610 C   0  0  0  0  0  0  0  0  0  0  0  0
   38.8960   23.3230   38.4180 C   0  0  0  0  0  0  0  0  0  0  0  0
   37.8000   23.9670   37.8280 C   0  0  0  0  0  0  0  0  0  0  0  0
   37.6960   23.9820   36.4760 N   0  0  0  0  0  0  0  0  0  0  0  0
   38.6040   23.4000   35.6740 C   0  0  0  0  0  0  0  0  0  0  0  0
   39.6600   22.7770   36.2360 N   0  0  0  0  0  0  0  0  0  0  0  0
   36.8360   23.6880   31.3010 C   0  0  0  0  0  0  0  0  0  0  0  0
   35.7340   24.6790   31.0650 C   0  0  0  0  0  0  0  0  0  0  0  0
   37.1867   21.0690   35.0805 H   0  0  0  0  0  0  0  0  0  0  0  0
   35.3665   19.6119   34.3639 H   0  0  0  0  0  0  0  0  0  0  0  0
   34.1873   20.0390   32.1813 H   0  0  0  0  0  0  0  0  0  0  0  0
   34.9460   21.9806   30.8252 H   0  0  0  0  0  0  0  0  0  0  0  0
   40.6966   22.2094   37.9819 H   0  0  0  0  0  0  0  0  0  0  0  0
   39.0210   23.2888   39.5103 H   0  0  0  0  0  0  0  0  0  0  0  0
   37.0356   24.4530   38.4522 H   0  0  0  0  0  0  0  0  0  0  0  0
   37.6906   24.2212   31.7429 H   0  0  0  0  0  0  0  0  0  0  0  0
   37.0720   23.2394   30.3248 H   0  0  0  0  0  0  0  0  0  0  0  0
   35.3435   25.0302   32.0315 H   0  0  0  0  0  0  0  0  0  0  0  0
   36.1259   25.5344   30.4952 H   0  0  0  0  0  0  0  0  0  0  0  0
   34.9248   24.1988   30.4952 H   0  0  0  0  0  0  0  0  0  0  0  0
  1  7  1  0
  1  2  2  0
  3  2  1  0
  4  3  2  0
  5  6  2  0
  5  4  1  0
  6  1  1  0
  7 12  1  0
  8  9  2  0
 10  9  1  0
 11 10  2  0
 12 13  2  0
 12 11  1  0
 13  8  1  0
 14  6  1  0
 15 14  1  0
  2 16  1  0
  3 17  1  0
  4 18  1  0
  5 19  1  0
  8 20  1  0
  9 21  1  0
 10 22  1  0
 14 23  1  0
 14 24  1  0
 15 25  1  0
 15 26  1  0
 15 27  1  0
M  ISO  8  16  14  17  14  18  14  19  14  20  14  21  14  22  14  23   8
M  ISO  4  24   8  25   8  26   8  27   8
M  END
>  <minimizedAffinity>  (1) 
-4.58069706

>  <minimizedRMSD>  (1) 
0.4423365

$$$$
