
     RDKit          3D

 35 36  0  0  1  0  0  0  0  0999 V2000
   39.8850   22.7080   35.0320 C   0  0  2  0  0  0  0  0  0  0  0  0
   38.2800   24.2920   36.1530 C   0  0  0  0  0  0  0  0  0  0  0  0
   39.2490   23.2740   36.1920 C   0  0  0  0  0  0  0  0  0  0  0  0
   39.5710   22.7610   37.4510 C   0  0  0  0  0  0  0  0  0  0  0  0
   38.9190   23.2630   38.5690 N   0  0  0  0  0  0  0  0  0  0  0  0
   38.0190   24.2530   38.4620 C   0  0  0  0  0  0  0  0  0  0  0  0
   37.6820   24.7570   37.2590 N   0  0  0  0  0  0  0  0  0  0  0  0
   40.5020   21.7140   37.6810 N   0  0  0  0  0  0  0  0  0  0  0  0
   41.2610   23.3690   34.8800 C   0  0  0  0  0  0  0  0  0  0  0  0
   39.0780   22.8950   33.7850 C   0  0  0  0  0  0  0  0  0  0  0  0
   38.0720   21.4310   33.4680 S   0  0  0  0  0  0  0  0  0  0  0  0
   36.3030   21.7670   33.5420 C   0  0  0  0  0  0  0  0  0  0  0  0
   35.6530   21.7220   32.1640 C   0  0  0  0  0  0  0  0  0  0  0  0
   34.8210   20.4530   32.1360 C   0  0  0  0  0  0  0  0  0  0  0  0
   35.5700   19.5930   33.1440 C   0  0  0  0  0  0  0  0  0  0  0  0
   35.6850   20.5900   34.2930 C   0  0  0  0  0  0  0  0  0  0  0  0
   39.9813   21.6217   35.1761 H   0  0  0  0  0  0  0  0  0  0  0  0
   38.0025   24.7225   35.1795 H   0  0  0  0  0  0  0  0  0  0  0  0
   37.5496   24.6589   39.3702 H   0  0  0  0  0  0  0  0  0  0  0  0
   40.6859   21.3901   38.6413 H   0  0  0  0  0  0  0  0  0  0  0  0
   40.9935   21.2783   36.8876 H   0  0  0  0  0  0  0  0  0  0  0  0
   41.6825   23.5715   35.8757 H   0  0  0  0  0  0  0  0  0  0  0  0
   41.9325   22.6952   34.3277 H   0  0  0  0  0  0  0  0  0  0  0  0
   41.1547   24.3143   34.3277 H   0  0  0  0  0  0  0  0  0  0  0  0
   38.4204   23.7686   33.9054 H   0  0  0  0  0  0  0  0  0  0  0  0
   39.7601   23.0523   32.9364 H   0  0  0  0  0  0  0  0  0  0  0  0
   36.1521   22.7572   33.9968 H   0  0  0  0  0  0  0  0  0  0  0  0
   35.0116   22.6031   32.0149 H   0  0  0  0  0  0  0  0  0  0  0  0
   36.4063   21.7280   31.3625 H   0  0  0  0  0  0  0  0  0  0  0  0
   33.7856   20.6415   32.4561 H   0  0  0  0  0  0  0  0  0  0  0  0
   34.7194   19.9991   31.1392 H   0  0  0  0  0  0  0  0  0  0  0  0
   34.9931   18.7015   33.4310 H   0  0  0  0  0  0  0  0  0  0  0  0
   36.5246   19.1791   32.7871 H   0  0  0  0  0  0  0  0  0  0  0  0
   36.3445   20.2211   35.0924 H   0  0  0  0  0  0  0  0  0  0  0  0
   34.7440   20.8109   34.8181 H   0  0  0  0  0  0  0  0  0  0  0  0
  1  3  1  0
  2  3  2  0
  2  7  1  0
  3  4  1  0
  4  8  1  0
  4  5  2  0
  6  5  1  0
  7  6  2  0
  9  1  1  0
 10  1  1  0
 11 12  1  0
 11 10  1  0
 12 16  1  0
 13 12  1  0
 14 13  1  0
 14 15  1  0
 15 16  1  0
  1 17  1  1
  2 18  1  0
  6 19  1  0
  8 20  1  0
  8 21  1  0
  9 22  1  0
  9 23  1  0
  9 24  1  0
 10 25  1  0
 10 26  1  0
 12 27  1  0
 13 28  1  0
 13 29  1  0
 14 30  1  0
 14 31  1  0
 15 32  1  0
 15 33  1  0
 16 34  1  0
 16 35  1  0
M  ISO  8  17   8  18  14  19  14  22   8  23   8  24   8  25   8  26   8
M  ISO  8  27  13  28  13  29  13  30  13  31  13  32  13  33  13  34  13
M  ISO  1  35  13
M  END
>  <minimizedAffinity>  (1) 
-4.65456724

>  <minimizedRMSD>  (1) 
1.04253161

$$$$
