
     RDKit          3D

 29 30  0  0  1  0  0  0  0  0999 V2000
   40.0450   23.0230   35.2300 C   0  0  2  0  0  0  0  0  0  0  0  0
   38.4860   24.6370   36.3900 C   0  0  0  0  0  0  0  0  0  0  0  0
   39.3820   23.5370   36.4080 C   0  0  0  0  0  0  0  0  0  0  0  0
   39.5730   22.8900   37.6170 C   0  0  0  0  0  0  0  0  0  0  0  0
   38.8880   23.3410   38.7350 N   0  0  0  0  0  0  0  0  0  0  0  0
   38.0430   24.3950   38.6690 C   0  0  0  0  0  0  0  0  0  0  0  0
   37.8420   25.0450   37.4940 N   0  0  0  0  0  0  0  0  0  0  0  0
   40.4440   21.7880   37.8140 N   0  0  0  0  0  0  0  0  0  0  0  0
   41.2300   24.0050   34.9400 C   0  0  0  0  0  0  0  0  0  0  0  0
   39.1780   22.9250   34.0440 C   0  0  0  0  0  0  0  0  0  0  0  0
   37.7870   21.8270   34.3320 S   0  0  0  0  0  0  0  0  0  0  0  0
   36.4780   20.4520   30.9040 N   0  0  0  0  0  0  0  0  0  0  0  0
   37.3230   20.4880   31.9310 N   0  0  0  0  0  0  0  0  0  0  0  0
   36.9450   21.4320   32.8130 C   0  0  0  0  0  0  0  0  0  0  0  0
   35.8100   21.9700   32.2500 C   0  0  0  0  0  0  0  0  0  0  0  0
   35.5040   21.3650   31.0530 C   0  0  0  0  0  0  0  0  0  0  0  0
   40.3723   21.9917   35.4283 H   0  0  0  0  0  0  0  0  0  0  0  0
   38.3144   25.1707   35.4436 H   0  0  0  0  0  0  0  0  0  0  0  0
   37.5145   24.7282   39.5743 H   0  0  0  0  0  0  0  0  0  0  0  0
   40.5308   21.3606   38.7471 H   0  0  0  0  0  0  0  0  0  0  0  0
   40.9897   21.4152   37.0240 H   0  0  0  0  0  0  0  0  0  0  0  0
   41.6553   24.3574   35.8913 H   0  0  0  0  0  0  0  0  0  0  0  0
   42.0066   23.4821   34.3625 H   0  0  0  0  0  0  0  0  0  0  0  0
   40.8604   24.8652   34.3625 H   0  0  0  0  0  0  0  0  0  0  0  0
   39.7691   22.5388   33.2005 H   0  0  0  0  0  0  0  0  0  0  0  0
   38.7847   23.9278   33.8212 H   0  0  0  0  0  0  0  0  0  0  0  0
   36.5597   19.8103   30.1024 H   0  0  0  0  0  0  0  0  0  0  0  0
   35.2211   22.7823   32.7009 H   0  0  0  0  0  0  0  0  0  0  0  0
   34.6618   21.5782   30.3782 H   0  0  0  0  0  0  0  0  0  0  0  0
  1  3  1  0
  2  3  2  0
  2  7  1  0
  3  4  1  0
  4  8  1  0
  4  5  2  0
  6  5  1  0
  7  6  2  0
  9  1  1  0
 10 11  1  0
 10  1  1  0
 12 16  1  0
 12 13  1  0
 13 14  2  0
 14 11  1  0
 15 14  1  0
 16 15  2  0
  1 17  1  1
  2 18  1  0
  6 19  1  0
  8 20  1  0
  8 21  1  0
  9 22  1  0
  9 23  1  0
  9 24  1  0
 10 25  1  0
 10 26  1  0
 12 27  1  0
 15 28  1  0
 16 29  1  0
M  ISO  8  17   8  18  14  19  14  22   8  23   8  24   8  25   8  26   8
M  ISO  3  27   9  28  14  29  14
M  END
>  <minimizedAffinity>  (1) 
-4.25905991

>  <minimizedRMSD>  (1) 
2.5735755

$$$$
