
     RDKit          3D

 43 46  0  0  1  0  0  0  0  0999 V2000
   39.7110   23.8170   33.8890 C   0  0  0  0  0  0  0  0  0  0  0  0
   40.2260   23.2990   35.1560 C   0  0  2  0  0  0  0  0  0  0  0  0
   38.5940   24.7840   36.3530 C   0  0  0  0  0  0  0  0  0  0  0  0
   39.4710   23.6660   36.3250 C   0  0  0  0  0  0  0  0  0  0  0  0
   39.5410   22.8970   37.4610 C   0  0  0  0  0  0  0  0  0  0  0  0
   38.7620   23.2520   38.5480 N   0  0  0  0  0  0  0  0  0  0  0  0
   37.9440   24.3170   38.5310 C   0  0  0  0  0  0  0  0  0  0  0  0
   37.8570   25.0930   37.4290 N   0  0  0  0  0  0  0  0  0  0  0  0
   40.3930   21.7640   37.6030 N   0  0  0  0  0  0  0  0  0  0  0  0
   41.6930   23.8300   35.3960 C   0  0  0  0  0  0  0  0  0  0  0  0
   38.1780   23.0140   33.4100 S   0  0  0  0  0  0  0  0  0  0  0  0
   35.6640   24.9000   31.0750 N   0  0  0  0  0  0  0  0  0  0  0  0
   36.2370   23.7840   31.5540 N   0  0  0  0  0  0  0  0  0  0  0  0
   37.1420   24.1240   32.4780 C   0  0  0  0  0  0  0  0  0  0  0  0
   37.0460   25.4830   32.4910 C   0  0  0  0  0  0  0  0  0  0  0  0
   36.1290   25.9970   31.6240 C   0  0  0  0  0  0  0  0  0  0  0  0
   35.9640   27.4140   31.5680 C   0  0  0  0  0  0  0  0  0  0  0  0
   35.0310   28.0520   32.2980 N   0  0  0  0  0  0  0  0  0  0  0  0
   34.7830   29.3430   32.3350 C   0  0  0  0  0  0  0  0  0  0  0  0
   35.4930   30.2030   31.5890 N   0  0  0  0  0  0  0  0  0  0  0  0
   36.4660   29.7030   30.8040 C   0  0  0  0  0  0  0  0  0  0  0  0
   37.2150   30.5430   30.0280 C   0  0  0  0  0  0  0  0  0  0  0  0
   38.2270   30.0610   29.2080 C   0  0  0  0  0  0  0  0  0  0  0  0
   38.4320   28.6880   29.2210 C   0  0  0  0  0  0  0  0  0  0  0  0
   37.6430   27.9060   30.0250 C   0  0  0  0  0  0  0  0  0  0  0  0
   36.6400   28.3370   30.8430 C   0  0  0  0  0  0  0  0  0  0  0  0
   39.5290   24.8967   33.9941 H   0  0  0  0  0  0  0  0  0  0  0  0
   40.4597   23.6148   33.1089 H   0  0  0  0  0  0  0  0  0  0  0  0
   40.1652   22.2065   35.0428 H   0  0  0  0  0  0  0  0  0  0  0  0
   38.5172   25.4193   35.4583 H   0  0  0  0  0  0  0  0  0  0  0  0
   37.3417   24.5585   39.4192 H   0  0  0  0  0  0  0  0  0  0  0  0
   40.3970   21.2298   38.4836 H   0  0  0  0  0  0  0  0  0  0  0  0
   41.0050   21.4791   36.8251 H   0  0  0  0  0  0  0  0  0  0  0  0
   41.8855   23.8997   36.4768 H   0  0  0  0  0  0  0  0  0  0  0  0
   42.4136   23.1357   34.9392 H   0  0  0  0  0  0  0  0  0  0  0  0
   41.8022   24.8247   34.9392 H   0  0  0  0  0  0  0  0  0  0  0  0
   34.9329   24.8952   30.3495 H   0  0  0  0  0  0  0  0  0  0  0  0
   37.6601   26.1152   33.1492 H   0  0  0  0  0  0  0  0  0  0  0  0
   33.9824   29.7230   32.9866 H   0  0  0  0  0  0  0  0  0  0  0  0
   37.0118   31.6238   30.0536 H   0  0  0  0  0  0  0  0  0  0  0  0
   38.8338   30.7314   28.5816 H   0  0  0  0  0  0  0  0  0  0  0  0
   39.2153   28.2344   28.5960 H   0  0  0  0  0  0  0  0  0  0  0  0
   37.8383   26.8236   30.0087 H   0  0  0  0  0  0  0  0  0  0  0  0
  1  2  1  0
  2 10  1  0
  2  4  1  0
  3  8  2  0
  4  3  1  0
  4  5  2  0
  5  9  1  0
  5  6  1  0
  7  6  2  0
  8  7  1  0
 11  1  1  0
 12 13  1  0
 12 16  1  0
 13 14  2  0
 14 15  1  0
 14 11  1  0
 16 15  2  0
 17 16  1  0
 17 18  2  0
 18 19  1  0
 20 19  2  0
 21 26  2  0
 21 20  1  0
 22 21  1  0
 23 24  1  0
 23 22  2  0
 24 25  2  0
 25 26  1  0
 26 17  1  0
  1 27  1  0
  1 28  1  0
  2 29  1  6
  3 30  1  0
  7 31  1  0
  9 32  1  0
  9 33  1  0
 10 34  1  0
 10 35  1  0
 10 36  1  0
 12 37  1  0
 15 38  1  0
 19 39  1  0
 22 40  1  0
 23 41  1  0
 24 42  1  0
 25 43  1  0
M  ISO  8  27   8  28   8  29   8  30  14  31  14  34   8  35   8  36   8
M  ISO  7  37   9  38  14  39  14  40  14  41  14  42  14  43  14
M  END
>  <minimizedAffinity>  (1) 
-5.77137136

>  <minimizedRMSD>  (1) 
4.59313679

$$$$
