
     RDKit          3D

 32 33  0  0  1  0  0  0  0  0999 V2000
   40.6820   23.0510   35.2630 C   0  0  2  0  0  0  0  0  0  0  0  0
   38.8410   24.5390   36.1290 C   0  0  0  0  0  0  0  0  0  0  0  0
   39.7600   23.4720   36.3060 C   0  0  0  0  0  0  0  0  0  0  0  0
   39.7350   22.8020   37.5020 C   0  0  0  0  0  0  0  0  0  0  0  0
   38.8220   23.1940   38.4650 N   0  0  0  0  0  0  0  0  0  0  0  0
   37.9560   24.2240   38.2540 C   0  0  0  0  0  0  0  0  0  0  0  0
   37.9650   24.9020   37.0760 N   0  0  0  0  0  0  0  0  0  0  0  0
   40.5970   21.7320   37.8350 N   0  0  0  0  0  0  0  0  0  0  0  0
   41.9490   23.9800   35.4100 C   0  0  0  0  0  0  0  0  0  0  0  0
   40.1600   23.1440   33.9060 C   0  0  0  0  0  0  0  0  0  0  0  0
   38.8960   21.9040   33.5830 S   0  0  0  0  0  0  0  0  0  0  0  0
   35.5330   22.7720   31.7910 N   0  0  0  0  0  0  0  0  0  0  0  0
   36.3600   21.9570   32.4220 N   0  0  0  0  0  0  0  0  0  0  0  0
   37.5020   22.6180   32.7290 C   0  0  0  0  0  0  0  0  0  0  0  0
   37.2880   23.8780   32.2340 C   0  0  0  0  0  0  0  0  0  0  0  0
   36.0510   23.9910   31.6390 C   0  0  0  0  0  0  0  0  0  0  0  0
   35.4850   25.1740   31.0100 C   0  0  0  0  0  0  0  0  0  0  0  0
   34.2360   25.3180   30.9690 O   0  0  0  0  0  0  0  0  0  0  0  0
   36.3260   26.1260   30.4630 O   0  0  0  0  0  0  0  0  0  0  0  0
   40.8970   21.9810   35.4006 H   0  0  0  0  0  0  0  0  0  0  0  0
   38.8481   25.0898   35.1769 H   0  0  0  0  0  0  0  0  0  0  0  0
   37.2442   24.5092   39.0427 H   0  0  0  0  0  0  0  0  0  0  0  0
   40.5197   21.2756   38.7551 H   0  0  0  0  0  0  0  0  0  0  0  0
   41.3023   21.4089   37.1575 H   0  0  0  0  0  0  0  0  0  0  0  0
   42.1655   24.1387   36.4767 H   0  0  0  0  0  0  0  0  0  0  0  0
   42.8135   23.5001   34.9279 H   0  0  0  0  0  0  0  0  0  0  0  0
   41.7513   24.9487   34.9279 H   0  0  0  0  0  0  0  0  0  0  0  0
   39.7226   24.1429   33.7615 H   0  0  0  0  0  0  0  0  0  0  0  0
   40.9929   22.9695   33.2090 H   0  0  0  0  0  0  0  0  0  0  0  0
   34.5984   22.4978   31.4561 H   0  0  0  0  0  0  0  0  0  0  0  0
   38.0161   24.6996   32.3035 H   0  0  0  0  0  0  0  0  0  0  0  0
   35.9468   26.9334   30.0335 H   0  0  0  0  0  0  0  0  0  0  0  0
  1  9  1  0
  1  3  1  0
  2  3  2  0
  2  7  1  0
  3  4  1  0
  4  8  1  0
  4  5  2  0
  6  5  1  0
  7  6  2  0
 10  1  1  0
 11 10  1  0
 12 13  1  0
 13 14  2  0
 14 11  1  0
 15 14  1  0
 16 12  1  0
 16 15  2  0
 17 16  1  0
 18 17  2  0
 19 17  1  0
  1 20  1  1
  2 21  1  0
  6 22  1  0
  8 23  1  0
  8 24  1  0
  9 25  1  0
  9 26  1  0
  9 27  1  0
 10 28  1  0
 10 29  1  0
 12 30  1  0
 15 31  1  0
 19 32  1  0
M  ISO  8  20   8  21  14  22  14  25   8  26   8  27   8  28   8  29   8
M  ISO  3  30   9  31  14  32   3
M  END
>  <minimizedAffinity>  (1) 
-5.06206846

>  <minimizedRMSD>  (1) 
2.11623311

$$$$
