
     RDKit          3D

 36 38  0  0  1  0  0  0  0  0999 V2000
   40.1180   23.4770   33.9040 C   0  0  0  0  0  0  0  0  0  0  0  0
   40.5450   23.1170   35.2480 C   0  0  2  0  0  0  0  0  0  0  0  0
   38.8110   24.6510   36.1910 C   0  0  0  0  0  0  0  0  0  0  0  0
   39.6840   23.5390   36.3140 C   0  0  0  0  0  0  0  0  0  0  0  0
   39.6390   22.8480   37.4990 C   0  0  0  0  0  0  0  0  0  0  0  0
   38.7750   23.2460   38.4910 N   0  0  0  0  0  0  0  0  0  0  0  0
   37.9550   24.3210   38.3240 C   0  0  0  0  0  0  0  0  0  0  0  0
   37.9720   25.0310   37.1630 N   0  0  0  0  0  0  0  0  0  0  0  0
   40.4700   21.7240   37.7820 N   0  0  0  0  0  0  0  0  0  0  0  0
   41.9640   23.7550   35.5440 C   0  0  0  0  0  0  0  0  0  0  0  0
   38.5440   22.7100   33.4850 S   0  0  0  0  0  0  0  0  0  0  0  0
   35.7800   24.6470   31.5050 N   0  0  0  0  0  0  0  0  0  0  0  0
   36.3440   23.5560   31.9940 N   0  0  0  0  0  0  0  0  0  0  0  0
   37.4650   23.8690   32.6630 C   0  0  0  0  0  0  0  0  0  0  0  0
   37.5460   25.2420   32.5460 C   0  0  0  0  0  0  0  0  0  0  0  0
   36.4900   25.7480   31.8190 C   0  0  0  0  0  0  0  0  0  0  0  0
   36.3110   27.1240   31.5380 N   0  0  0  0  0  0  0  0  0  0  0  0
   36.7480   27.6910   30.4470 N   0  0  0  0  0  0  0  0  0  0  0  0
   36.4460   29.0190   30.4210 C   0  0  0  0  0  0  0  0  0  0  0  0
   35.7780   29.2050   31.6060 C   0  0  0  0  0  0  0  0  0  0  0  0
   35.6830   28.0180   32.3250 C   0  0  0  0  0  0  0  0  0  0  0  0
   40.0104   24.5701   33.8438 H   0  0  0  0  0  0  0  0  0  0  0  0
   40.8769   23.1188   33.1929 H   0  0  0  0  0  0  0  0  0  0  0  0
   40.5426   22.0170   35.2399 H   0  0  0  0  0  0  0  0  0  0  0  0
   38.8241   25.2273   35.2541 H   0  0  0  0  0  0  0  0  0  0  0  0
   37.2732   24.6178   39.1346 H   0  0  0  0  0  0  0  0  0  0  0  0
   40.3937   21.2426   38.6894 H   0  0  0  0  0  0  0  0  0  0  0  0
   41.1465   21.3937   37.0790 H   0  0  0  0  0  0  0  0  0  0  0  0
   42.1157   23.8232   36.6313 H   0  0  0  0  0  0  0  0  0  0  0  0
   42.7492   23.1233   35.1031 H   0  0  0  0  0  0  0  0  0  0  0  0
   42.0126   24.7616   35.1031 H   0  0  0  0  0  0  0  0  0  0  0  0
   34.9094   24.6543   30.9546 H   0  0  0  0  0  0  0  0  0  0  0  0
   38.3511   25.8545   32.9781 H   0  0  0  0  0  0  0  0  0  0  0  0
   36.6798   29.7600   29.6423 H   0  0  0  0  0  0  0  0  0  0  0  0
   35.3702   30.1692   31.9436 H   0  0  0  0  0  0  0  0  0  0  0  0
   35.2082   27.8499   33.3029 H   0  0  0  0  0  0  0  0  0  0  0  0
  1  2  1  0
  2 10  1  0
  2  4  1  0
  3  4  2  0
  3  8  1  0
  4  5  1  0
  5  9  1  0
  5  6  2  0
  7  6  1  0
  8  7  2  0
 11  1  1  0
 12 16  1  0
 12 13  1  0
 13 14  2  0
 14 11  1  0
 15 14  1  0
 16 15  2  0
 17 16  1  0
 17 21  1  0
 18 17  1  0
 19 18  2  0
 19 20  1  0
 20 21  2  0
  1 22  1  0
  1 23  1  0
  2 24  1  6
  3 25  1  0
  7 26  1  0
  9 27  1  0
  9 28  1  0
 10 29  1  0
 10 30  1  0
 10 31  1  0
 12 32  1  0
 15 33  1  0
 19 34  1  0
 20 35  1  0
 21 36  1  0
M  ISO  8  22   8  23   8  24   8  25  14  26  14  29   8  30   8  31   8
M  ISO  5  32   9  33  14  34  14  35  14  36  14
M  END
>  <minimizedAffinity>  (1) 
-5.03057766

>  <minimizedRMSD>  (1) 
3.92158937

$$$$
