
     RDKit          3D

 36 38  0  0  1  0  0  0  0  0999 V2000
   38.8690   25.6860   34.8680 C   0  0  2  0  0  0  0  0  0  0  0  0
   38.0280   25.1700   37.1680 C   0  0  0  0  0  0  0  0  0  0  0  0
   38.8320   24.8510   36.0360 C   0  0  0  0  0  0  0  0  0  0  0  0
   39.5480   23.6820   36.0870 C   0  0  0  0  0  0  0  0  0  0  0  0
   39.4540   22.8860   37.2120 N   0  0  0  0  0  0  0  0  0  0  0  0
   38.6700   23.2290   38.2730 C   0  0  0  0  0  0  0  0  0  0  0  0
   37.9500   24.3840   38.2500 N   0  0  0  0  0  0  0  0  0  0  0  0
   40.4030   23.2360   35.0540 N   0  0  0  0  0  0  0  0  0  0  0  0
   40.0380   26.7300   35.1100 C   0  0  0  0  0  0  0  0  0  0  0  0
   37.6330   26.3850   34.5480 C   0  0  0  0  0  0  0  0  0  0  0  0
   37.3930   26.5600   32.7870 S   0  0  0  0  0  0  0  0  0  0  0  0
   35.1370   23.9930   30.8770 N   0  0  0  0  0  0  0  0  0  0  0  0
   35.5510   25.2350   31.1680 N   0  0  0  0  0  0  0  0  0  0  0  0
   36.5370   25.1630   32.0940 C   0  0  0  0  0  0  0  0  0  0  0  0
   36.6820   23.8180   32.3330 C   0  0  0  0  0  0  0  0  0  0  0  0
   35.8090   23.0740   31.5740 C   0  0  0  0  0  0  0  0  0  0  0  0
   35.6510   21.6250   31.5380 C   0  0  0  0  0  0  0  0  0  0  0  0
   36.4300   20.7760   30.7790 C   0  0  0  0  0  0  0  0  0  0  0  0
   35.9540   19.5340   31.0370 N   0  0  0  0  0  0  0  0  0  0  0  0
   34.9220   19.6110   31.9200 C   0  0  0  0  0  0  0  0  0  0  0  0
   34.7590   20.9000   32.2100 N   0  0  0  0  0  0  0  0  0  0  0  0
   39.0300   25.0349   33.9962 H   0  0  0  0  0  0  0  0  0  0  0  0
   37.4455   26.1030   37.1529 H   0  0  0  0  0  0  0  0  0  0  0  0
   38.6189   22.5694   39.1518 H   0  0  0  0  0  0  0  0  0  0  0  0
   40.9130   22.3469   35.1554 H   0  0  0  0  0  0  0  0  0  0  0  0
   40.5162   23.8001   34.1996 H   0  0  0  0  0  0  0  0  0  0  0  0
   40.1902   26.8660   36.1909 H   0  0  0  0  0  0  0  0  0  0  0  0
   40.9656   26.3542   34.6535 H   0  0  0  0  0  0  0  0  0  0  0  0
   39.7690   27.6940   34.6535 H   0  0  0  0  0  0  0  0  0  0  0  0
   36.7875   25.8190   34.9662 H   0  0  0  0  0  0  0  0  0  0  0  0
   37.6936   27.3938   34.9823 H   0  0  0  0  0  0  0  0  0  0  0  0
   34.3925   23.7751   30.1994 H   0  0  0  0  0  0  0  0  0  0  0  0
   37.4055   23.3898   33.0424 H   0  0  0  0  0  0  0  0  0  0  0  0
   37.2587   21.0487   30.1090 H   0  0  0  0  0  0  0  0  0  0  0  0
   34.3351   18.7700   32.3178 H   0  0  0  0  0  0  0  0  0  0  0  0
   34.0512   21.2786   32.8554 H   0  0  0  0  0  0  0  0  0  0  0  0
  1  9  1  0
  1  3  1  0
  2  7  2  0
  3  4  2  0
  3  2  1  0
  4  5  1  0
  5  6  2  0
  7  6  1  0
  8  4  1  0
 10  1  1  0
 11 10  1  0
 12 13  1  0
 12 16  1  0
 13 14  2  0
 14 15  1  0
 14 11  1  0
 16 15  2  0
 17 16  1  0
 17 21  1  0
 18 19  1  0
 18 17  2  0
 19 20  2  0
 20 21  1  0
  1 22  1  6
  2 23  1  0
  6 24  1  0
  8 25  1  0
  8 26  1  0
  9 27  1  0
  9 28  1  0
  9 29  1  0
 10 30  1  0
 10 31  1  0
 12 32  1  0
 15 33  1  0
 18 34  1  0
 20 35  1  0
 21 36  1  0
M  ISO  8  22   8  23  14  24  14  27   8  28   8  29   8  30   8  31   8
M  ISO  5  32   9  33  14  34  14  35  14  36   9
M  END
>  <minimizedAffinity>  (1) 
-4.9394908

>  <minimizedRMSD>  (1) 
3.17263985

$$$$
