
     RDKit          3D

 31 32  0  0  1  0  0  0  0  0999 V2000
   40.4140   23.0550   35.2400 C   0  0  2  0  0  0  0  0  0  0  0  0
   38.6660   24.5340   36.2460 C   0  0  0  0  0  0  0  0  0  0  0  0
   39.6040   23.4720   36.3500 C   0  0  0  0  0  0  0  0  0  0  0  0
   39.6790   22.8210   37.5550 C   0  0  0  0  0  0  0  0  0  0  0  0
   38.8460   23.2280   38.5820 N   0  0  0  0  0  0  0  0  0  0  0  0
   37.9680   24.2410   38.4430 C   0  0  0  0  0  0  0  0  0  0  0  0
   37.8730   24.9070   37.2600 N   0  0  0  0  0  0  0  0  0  0  0  0
   40.5760   21.7550   37.8220 N   0  0  0  0  0  0  0  0  0  0  0  0
   41.7380   23.9250   35.3080 C   0  0  0  0  0  0  0  0  0  0  0  0
   39.7970   23.1900   33.9260 C   0  0  0  0  0  0  0  0  0  0  0  0
   39.3270   21.6090   33.2380 S   0  0  0  0  0  0  0  0  0  0  0  0
   35.6420   22.2810   32.0960 N   0  0  0  0  0  0  0  0  0  0  0  0
   36.8930   22.6610   32.3900 N   0  0  0  0  0  0  0  0  0  0  0  0
   37.6140   21.5880   32.7580 C   0  0  0  0  0  0  0  0  0  0  0  0
   36.7300   20.5510   32.6690 C   0  0  0  0  0  0  0  0  0  0  0  0
   35.4830   20.9460   32.2550 C   0  0  0  0  0  0  0  0  0  0  0  0
   34.2940   20.1980   32.0340 N   0  0  0  0  0  0  0  0  0  0  0  0
   40.5908   21.9738   35.3391 H   0  0  0  0  0  0  0  0  0  0  0  0
   38.5871   25.0740   35.2909 H   0  0  0  0  0  0  0  0  0  0  0  0
   37.3263   24.5303   39.2883 H   0  0  0  0  0  0  0  0  0  0  0  0
   40.5825   21.3075   38.7497 H   0  0  0  0  0  0  0  0  0  0  0  0
   41.2208   21.4285   37.0882 H   0  0  0  0  0  0  0  0  0  0  0  0
   42.0070   24.1017   36.3599 H   0  0  0  0  0  0  0  0  0  0  0  0
   42.5560   23.3878   34.8057 H   0  0  0  0  0  0  0  0  0  0  0  0
   41.5695   24.8890   34.8057 H   0  0  0  0  0  0  0  0  0  0  0  0
   38.8984   23.8176   34.0190 H   0  0  0  0  0  0  0  0  0  0  0  0
   40.5352   23.6472   33.2507 H   0  0  0  0  0  0  0  0  0  0  0  0
   34.8970   22.9224   31.7885 H   0  0  0  0  0  0  0  0  0  0  0  0
   36.9903   19.5085   32.9045 H   0  0  0  0  0  0  0  0  0  0  0  0
   34.2900   19.1796   32.1884 H   0  0  0  0  0  0  0  0  0  0  0  0
   33.4367   20.6746   31.7196 H   0  0  0  0  0  0  0  0  0  0  0  0
  1  9  1  0
  1  3  1  0
  2  3  2  0
  2  7  1  0
  3  4  1  0
  4  8  1  0
  4  5  2  0
  6  5  1  0
  7  6  2  0
 10  1  1  0
 11 10  1  0
 12 16  1  0
 12 13  1  0
 13 14  2  0
 14 11  1  0
 15 14  1  0
 16 15  2  0
 17 16  1  0
  1 18  1  1
  2 19  1  0
  6 20  1  0
  8 21  1  0
  8 22  1  0
  9 23  1  0
  9 24  1  0
  9 25  1  0
 10 26  1  0
 10 27  1  0
 12 28  1  0
 15 29  1  0
 17 30  1  0
 17 31  1  0
M  ISO  8  18   8  19  14  20  14  23   8  24   8  25   8  26   8  27   8
M  ISO  2  28   9  29  14
M  END
>  <minimizedAffinity>  (1) 
-4.48613405

>  <minimizedRMSD>  (1) 
1.2404139

$$$$
