
     RDKit          3D

 39 41  0  0  1  0  0  0  0  0999 V2000
   39.2130   21.5590   33.2830 C   0  0  0  0  0  0  0  0  0  0  0  0
   38.0650   22.4350   33.4630 C   0  0  2  0  0  0  0  0  0  0  0  0
   37.7470   22.3840   35.9460 C   0  0  0  0  0  0  0  0  0  0  0  0
   37.9780   23.0970   34.7320 C   0  0  0  0  0  0  0  0  0  0  0  0
   38.1580   24.4530   34.8380 C   0  0  0  0  0  0  0  0  0  0  0  0
   38.1080   25.0410   36.0870 N   0  0  0  0  0  0  0  0  0  0  0  0
   37.8870   24.3270   37.2130 C   0  0  0  0  0  0  0  0  0  0  0  0
   37.7030   22.9810   37.1460 N   0  0  0  0  0  0  0  0  0  0  0  0
   38.3790   25.3020   33.7240 N   0  0  0  0  0  0  0  0  0  0  0  0
   36.7220   21.6150   33.3040 C   0  0  0  0  0  0  0  0  0  0  0  0
   40.7030   22.4570   32.8790 S   0  0  0  0  0  0  0  0  0  0  0  0
   42.2200   23.0720   36.4300 N   0  0  0  0  0  0  0  0  0  0  0  0
   41.3550   22.5150   35.5870 N   0  0  0  0  0  0  0  0  0  0  0  0
   41.5960   22.9310   34.3350 C   0  0  0  0  0  0  0  0  0  0  0  0
   42.6690   23.7770   34.4850 C   0  0  0  0  0  0  0  0  0  0  0  0
   43.0830   23.8870   35.7870 C   0  0  0  0  0  0  0  0  0  0  0  0
   44.1730   24.6780   36.3470 C   0  0  0  0  0  0  0  0  0  0  0  0
   45.0890   25.2440   35.4850 C   0  0  0  0  0  0  0  0  0  0  0  0
   46.0930   25.9770   36.0780 C   0  0  0  0  0  0  0  0  0  0  0  0
   46.1760   26.1340   37.4460 C   0  0  0  0  0  0  0  0  0  0  0  0
   45.2380   25.5530   38.2960 C   0  0  0  0  0  0  0  0  0  0  0  0
   44.2320   24.8180   37.7170 C   0  0  0  0  0  0  0  0  0  0  0  0
   39.3799   21.0003   34.2158 H   0  0  0  0  0  0  0  0  0  0  0  0
   38.9906   20.8857   32.4421 H   0  0  0  0  0  0  0  0  0  0  0  0
   38.2064   23.2052   32.6905 H   0  0  0  0  0  0  0  0  0  0  0  0
   37.5983   21.2953   35.8954 H   0  0  0  0  0  0  0  0  0  0  0  0
   37.8558   24.8364   38.1875 H   0  0  0  0  0  0  0  0  0  0  0  0
   38.5076   26.3141   33.8653 H   0  0  0  0  0  0  0  0  0  0  0  0
   38.4109   24.9066   32.7735 H   0  0  0  0  0  0  0  0  0  0  0  0
   36.3217   21.3706   34.2990 H   0  0  0  0  0  0  0  0  0  0  0  0
   35.9871   22.2186   32.7512 H   0  0  0  0  0  0  0  0  0  0  0  0
   36.9232   20.6855   32.7512 H   0  0  0  0  0  0  0  0  0  0  0  0
   42.2301   22.9027   37.4459 H   0  0  0  0  0  0  0  0  0  0  0  0
   43.1451   24.3095   33.6485 H   0  0  0  0  0  0  0  0  0  0  0  0
   45.0220   25.1181   34.3943 H   0  0  0  0  0  0  0  0  0  0  0  0
   46.8529   26.4524   35.4404 H   0  0  0  0  0  0  0  0  0  0  0  0
   46.9972   26.7284   37.8729 H   0  0  0  0  0  0  0  0  0  0  0  0
   45.3002   25.6776   39.3871 H   0  0  0  0  0  0  0  0  0  0  0  0
   43.4701   24.3391   38.3496 H   0  0  0  0  0  0  0  0  0  0  0  0
  1  2  1  0
  2  4  1  0
  3  8  2  0
  4  5  2  0
  4  3  1  0
  5  6  1  0
  6  7  2  0
  8  7  1  0
  9  5  1  0
 10  2  1  0
 11  1  1  0
 11 14  1  0
 13 12  1  0
 14 15  1  0
 14 13  2  0
 15 16  2  0
 16 17  1  0
 16 12  1  0
 17 22  2  0
 18 19  2  0
 18 17  1  0
 19 20  1  0
 20 21  2  0
 22 21  1  0
  1 23  1  0
  1 24  1  0
  2 25  1  6
  3 26  1  0
  7 27  1  0
  9 28  1  0
  9 29  1  0
 10 30  1  0
 10 31  1  0
 10 32  1  0
 12 33  1  0
 15 34  1  0
 18 35  1  0
 19 36  1  0
 20 37  1  0
 21 38  1  0
 22 39  1  0
M  ISO  8  23   8  24   8  25   8  26  14  27  14  30   8  31   8  32   8
M  ISO  7  33   9  34  14  35  14  36  14  37  14  38  14  39  14
M  END
>  <minimizedAffinity>  (1) 
-4.05767012

>  <minimizedRMSD>  (1) 
8.74679279

$$$$
