
     RDKit          3D

 42 44  0  0  1  0  0  0  0  0999 V2000
   39.9970   23.0890   33.8840 C   0  0  0  0  0  0  0  0  0  0  0  0
   40.5210   22.9880   35.2220 C   0  0  2  0  0  0  0  0  0  0  0  0
   38.7890   24.5460   36.1230 C   0  0  0  0  0  0  0  0  0  0  0  0
   39.6970   23.4440   36.2940 C   0  0  0  0  0  0  0  0  0  0  0  0
   39.6580   22.8280   37.5080 C   0  0  0  0  0  0  0  0  0  0  0  0
   38.8050   23.2350   38.5010 N   0  0  0  0  0  0  0  0  0  0  0  0
   37.9580   24.2930   38.2830 C   0  0  0  0  0  0  0  0  0  0  0  0
   37.9460   24.9570   37.0860 N   0  0  0  0  0  0  0  0  0  0  0  0
   40.5390   21.7360   37.8220 N   0  0  0  0  0  0  0  0  0  0  0  0
   41.8670   23.8730   35.3470 C   0  0  0  0  0  0  0  0  0  0  0  0
   38.6580   21.9540   33.5920 S   0  0  0  0  0  0  0  0  0  0  0  0
   35.5490   22.8740   31.3910 N   0  0  0  0  0  0  0  0  0  0  0  0
   36.3480   22.0250   32.0320 N   0  0  0  0  0  0  0  0  0  0  0  0
   37.3550   22.6950   32.6230 C   0  0  0  0  0  0  0  0  0  0  0  0
   37.1220   24.0140   32.3030 C   0  0  0  0  0  0  0  0  0  0  0  0
   35.9900   24.1450   31.5280 C   0  0  0  0  0  0  0  0  0  0  0  0
   35.4410   25.3860   31.0070 C   0  0  0  0  0  0  0  0  0  0  0  0
   35.8160   26.5930   31.7890 C   0  0  0  0  0  0  0  0  0  0  0  0
   36.4240   27.5920   30.8740 C   0  0  0  0  0  0  0  0  0  0  0  0
   36.9670   28.7260   31.4880 C   0  0  0  0  0  0  0  0  0  0  0  0
   37.4640   29.5020   30.4900 N   0  0  0  0  0  0  0  0  0  0  0  0
   37.2530   28.9070   29.3190 C   0  0  0  0  0  0  0  0  0  0  0  0
   36.6230   27.7520   29.5580 N   0  0  0  0  0  0  0  0  0  0  0  0
   39.6321   24.1143   33.7240 H   0  0  0  0  0  0  0  0  0  0  0  0
   40.8088   22.8364   33.1861 H   0  0  0  0  0  0  0  0  0  0  0  0
   40.6464   21.9014   35.3382 H   0  0  0  0  0  0  0  0  0  0  0  0
   38.7841   25.0771   35.1597 H   0  0  0  0  0  0  0  0  0  0  0  0
   37.2764   24.6131   39.0849 H   0  0  0  0  0  0  0  0  0  0  0  0
   40.4913   21.2854   38.7470 H   0  0  0  0  0  0  0  0  0  0  0  0
   41.2178   21.4043   37.1219 H   0  0  0  0  0  0  0  0  0  0  0  0
   42.1054   24.0298   36.4093 H   0  0  0  0  0  0  0  0  0  0  0  0
   42.6994   23.3454   34.8584 H   0  0  0  0  0  0  0  0  0  0  0  0
   41.7125   24.8463   34.8584 H   0  0  0  0  0  0  0  0  0  0  0  0
   34.7086   22.6003   30.8622 H   0  0  0  0  0  0  0  0  0  0  0  0
   37.7565   24.8533   32.6240 H   0  0  0  0  0  0  0  0  0  0  0  0
   35.8016   25.5169   29.9761 H   0  0  0  0  0  0  0  0  0  0  0  0
   34.3462   25.2975   31.0672 H   0  0  0  0  0  0  0  0  0  0  0  0
   34.9185   27.0215   32.2590 H   0  0  0  0  0  0  0  0  0  0  0  0
   36.5378   26.3188   32.5725 H   0  0  0  0  0  0  0  0  0  0  0  0
   36.9874   28.9456   32.5657 H   0  0  0  0  0  0  0  0  0  0  0  0
   37.5443   29.2952   28.3319 H   0  0  0  0  0  0  0  0  0  0  0  0
   36.3318   27.0803   28.8335 H   0  0  0  0  0  0  0  0  0  0  0  0
  1  2  1  0
  2 10  1  0
  2  4  1  0
  3  4  2  0
  3  8  1  0
  4  5  1  0
  5  9  1  0
  5  6  2  0
  7  6  1  0
  8  7  2  0
 11  1  1  0
 12 16  1  0
 12 13  1  0
 13 14  2  0
 14 11  1  0
 15 14  1  0
 16 15  2  0
 17 16  1  0
 17 18  1  0
 19 20  2  0
 19 18  1  0
 21 20  1  0
 22 23  1  0
 22 21  2  0
 23 19  1  0
  1 24  1  0
  1 25  1  0
  2 26  1  1
  3 27  1  0
  7 28  1  0
  9 29  1  0
  9 30  1  0
 10 31  1  0
 10 32  1  0
 10 33  1  0
 12 34  1  0
 15 35  1  0
 17 36  1  0
 17 37  1  0
 18 38  1  0
 18 39  1  0
 20 40  1  0
 22 41  1  0
 23 42  1  0
M  ISO  8  24   8  25   8  26   8  27  14  28  14  31   8  32   8  33   8
M  ISO  8  34   9  35  14  36   8  37   8  38   8  39   8  40  14  41  14
M  ISO  1  42   9
M  END
>  <minimizedAffinity>  (1) 
-5.47085476

>  <minimizedRMSD>  (1) 
1.22458267

$$$$
