
     RDKit          3D

 49 52  0  0  1  0  0  0  0  0999 V2000
   35.4750   23.3130   31.0140 N   0  0  0  0  0  0  0  0  0  0  0  0
   35.9750   22.2080   31.5830 N   0  0  0  0  0  0  0  0  0  0  0  0
   36.9330   22.5390   32.4670 C   0  0  0  0  0  0  0  0  0  0  0  0
   36.9990   23.9170   32.4150 C   0  0  0  0  0  0  0  0  0  0  0  0
   36.0810   24.4090   31.4990 C   0  0  0  0  0  0  0  0  0  0  0  0
   35.8720   25.8100   31.1750 C   0  0  0  0  0  0  0  0  0  0  0  0
   36.5990   26.7650   32.0740 C   0  0  0  0  0  0  0  0  0  0  0  0
   36.5380   28.1640   31.5790 C   0  0  0  0  0  0  0  0  0  0  0  0
   36.8550   28.4320   30.2940 N   0  0  0  0  0  0  0  0  0  0  0  0
   36.8150   29.7150   29.8870 C   0  0  0  0  0  0  0  0  0  0  0  0
   36.4840   30.8100   30.6340 N   0  0  0  0  0  0  0  0  0  0  0  0
   36.1650   30.5470   31.9260 C   0  0  0  0  0  0  0  0  0  0  0  0
   35.7990   31.5730   32.8000 C   0  0  0  0  0  0  0  0  0  0  0  0
   35.4620   31.3070   34.1240 C   0  0  0  0  0  0  0  0  0  0  0  0
   35.4850   30.0110   34.5950 C   0  0  0  0  0  0  0  0  0  0  0  0
   35.8510   29.0040   33.7080 C   0  0  0  0  0  0  0  0  0  0  0  0
   36.1950   29.2270   32.3840 C   0  0  0  0  0  0  0  0  0  0  0  0
   37.8750   21.3840   33.4500 S   0  0  0  0  0  0  0  0  0  0  0  0
   39.5260   21.9690   33.7600 C   0  0  0  0  0  0  0  0  0  0  0  0
   39.7200   22.3740   35.1300 C   0  0  2  0  0  0  0  0  0  0  0  0
   39.6980   24.8510   34.8650 C   0  0  0  0  0  0  0  0  0  0  0  0
   39.2420   23.6550   35.5220 C   0  0  0  0  0  0  0  0  0  0  0  0
   38.2940   23.8430   36.4770 C   0  0  0  0  0  0  0  0  0  0  0  0
   37.8120   25.0930   36.7800 N   0  0  0  0  0  0  0  0  0  0  0  0
   38.2860   26.1940   36.1170 C   0  0  0  0  0  0  0  0  0  0  0  0
   39.2410   26.0780   35.1470 N   0  0  0  0  0  0  0  0  0  0  0  0
   37.7750   22.7390   37.2310 N   0  0  0  0  0  0  0  0  0  0  0  0
   41.2970   22.4050   35.4770 C   0  0  0  0  0  0  0  0  0  0  0  0
   34.7295   23.3209   30.3034 H   0  0  0  0  0  0  0  0  0  0  0  0
   37.6822   24.5365   33.0145 H   0  0  0  0  0  0  0  0  0  0  0  0
   36.2135   25.9799   30.1433 H   0  0  0  0  0  0  0  0  0  0  0  0
   34.7980   26.0077   31.3071 H   0  0  0  0  0  0  0  0  0  0  0  0
   36.1445   26.7240   33.0749 H   0  0  0  0  0  0  0  0  0  0  0  0
   37.6565   26.4634   32.0998 H   0  0  0  0  0  0  0  0  0  0  0  0
   37.0783   29.9024   28.8355 H   0  0  0  0  0  0  0  0  0  0  0  0
   35.7766   32.6105   32.4353 H   0  0  0  0  0  0  0  0  0  0  0  0
   35.1772   32.1308   34.7950 H   0  0  0  0  0  0  0  0  0  0  0  0
   35.2224   29.7811   35.6382 H   0  0  0  0  0  0  0  0  0  0  0  0
   35.8685   27.9688   34.0795 H   0  0  0  0  0  0  0  0  0  0  0  0
   40.2359   21.1617   33.5269 H   0  0  0  0  0  0  0  0  0  0  0  0
   39.6932   22.8507   33.1239 H   0  0  0  0  0  0  0  0  0  0  0  0
   39.1253   21.6229   35.6706 H   0  0  0  0  0  0  0  0  0  0  0  0
   40.4673   24.7518   34.0851 H   0  0  0  0  0  0  0  0  0  0  0  0
   37.8908   27.1889   36.3700 H   0  0  0  0  0  0  0  0  0  0  0  0
   37.0565   22.8997   37.9513 H   0  0  0  0  0  0  0  0  0  0  0  0
   38.1207   21.7854   37.0522 H   0  0  0  0  0  0  0  0  0  0  0  0
   41.4322   22.4077   36.5687 H   0  0  0  0  0  0  0  0  0  0  0  0
   41.7841   21.5163   35.0493 H   0  0  0  0  0  0  0  0  0  0  0  0
   41.7488   23.3122   35.0493 H   0  0  0  0  0  0  0  0  0  0  0  0
  1  5  1  0
  1  2  1  0
  2  3  2  0
  3 18  1  0
  4  3  1  0
  5  4  2  0
  6  5  1  0
  6  7  1  0
  8  7  1  0
  8 17  1  0
  9  8  2  0
 10  9  1  0
 10 11  2  0
 11 12  1  0
 12 17  2  0
 12 13  1  0
 13 14  2  0
 14 15  1  0
 16 15  2  0
 17 16  1  0
 18 19  1  0
 19 20  1  0
 20 28  1  0
 20 22  1  0
 21 26  2  0
 21 22  1  0
 22 23  2  0
 23 24  1  0
 23 27  1  0
 25 24  2  0
 26 25  1  0
  1 29  1  0
  4 30  1  0
  6 31  1  0
  6 32  1  0
  7 33  1  0
  7 34  1  0
 10 35  1  0
 13 36  1  0
 14 37  1  0
 15 38  1  0
 16 39  1  0
 19 40  1  0
 19 41  1  0
 20 42  1  1
 21 43  1  0
 25 44  1  0
 27 45  1  0
 27 46  1  0
 28 47  1  0
 28 48  1  0
 28 49  1  0
M  ISO  8  29   9  30  14  31   8  32   8  33   8  34   8  35  14  36  14
M  ISO  8  37  14  38  14  39  14  40   8  41   8  42   8  43  14  44  14
M  ISO  3  47   8  48   8  49   8
M  END
>  <minimizedAffinity>  (1) 
-5.44421768

>  <minimizedRMSD>  (1) 
2.47418165

$$$$
