
     RDKit          3D

 42 44  0  0  1  0  0  0  0  0999 V2000
   38.7080   21.9520   33.6350 S   0  0  0  0  0  0  0  0  0  0  0  0
   35.4720   22.9580   31.6650 N   0  0  0  0  0  0  0  0  0  0  0  0
   36.2680   22.0930   32.2910 N   0  0  0  0  0  0  0  0  0  0  0  0
   37.3690   22.7250   32.7410 C   0  0  0  0  0  0  0  0  0  0  0  0
   37.2040   24.0370   32.3540 C   0  0  0  0  0  0  0  0  0  0  0  0
   36.0110   24.1960   31.6740 C   0  0  0  0  0  0  0  0  0  0  0  0
   35.4970   25.4320   31.1110 C   0  0  0  0  0  0  0  0  0  0  0  0
   36.5410   26.4830   30.8930 C   0  0  0  0  0  0  0  0  0  0  0  0
   36.0700   27.8120   31.2380 N   0  0  0  0  0  0  0  0  0  0  0  0
   35.2550   28.2130   32.1960 N   0  0  0  0  0  0  0  0  0  0  0  0
   35.0690   29.5360   32.1810 C   0  0  0  0  0  0  0  0  0  0  0  0
   35.8350   30.0260   31.1180 C   0  0  0  0  0  0  0  0  0  0  0  0
   36.4400   28.9210   30.5590 C   0  0  0  0  0  0  0  0  0  0  0  0
   40.0550   23.0820   33.9130 C   0  0  0  0  0  0  0  0  0  0  0  0
   40.5760   22.9930   35.2560 C   0  0  2  0  0  0  0  0  0  0  0  0
   38.8150   24.5340   36.1490 C   0  0  0  0  0  0  0  0  0  0  0  0
   39.7320   23.4390   36.3230 C   0  0  0  0  0  0  0  0  0  0  0  0
   39.6910   22.8160   37.5320 C   0  0  0  0  0  0  0  0  0  0  0  0
   38.8110   23.2250   38.5210 N   0  0  0  0  0  0  0  0  0  0  0  0
   37.9610   24.2770   38.2920 C   0  0  0  0  0  0  0  0  0  0  0  0
   37.9600   24.9370   37.1030 N   0  0  0  0  0  0  0  0  0  0  0  0
   40.5680   21.7310   37.8490 N   0  0  0  0  0  0  0  0  0  0  0  0
   41.8970   23.9150   35.3910 C   0  0  0  0  0  0  0  0  0  0  0  0
   34.5688   22.7158   31.2331 H   0  0  0  0  0  0  0  0  0  0  0  0
   37.9216   24.8454   32.5578 H   0  0  0  0  0  0  0  0  0  0  0  0
   35.0297   25.2026   30.1420 H   0  0  0  0  0  0  0  0  0  0  0  0
   34.7820   25.8405   31.8403 H   0  0  0  0  0  0  0  0  0  0  0  0
   37.4162   26.2459   31.5157 H   0  0  0  0  0  0  0  0  0  0  0  0
   36.7958   26.4852   29.8229 H   0  0  0  0  0  0  0  0  0  0  0  0
   34.4398   30.1222   32.8669 H   0  0  0  0  0  0  0  0  0  0  0  0
   35.9337   31.0732   30.7959 H   0  0  0  0  0  0  0  0  0  0  0  0
   37.1191   28.9387   29.6939 H   0  0  0  0  0  0  0  0  0  0  0  0
   40.8633   22.8502   33.2039 H   0  0  0  0  0  0  0  0  0  0  0  0
   39.6733   24.1033   33.7670 H   0  0  0  0  0  0  0  0  0  0  0  0
   40.7291   21.9100   35.3728 H   0  0  0  0  0  0  0  0  0  0  0  0
   38.8142   25.0674   35.1870 H   0  0  0  0  0  0  0  0  0  0  0  0
   37.2671   24.5927   39.0850 H   0  0  0  0  0  0  0  0  0  0  0  0
   40.5143   21.2783   38.7726 H   0  0  0  0  0  0  0  0  0  0  0  0
   41.2531   21.4025   37.1536 H   0  0  0  0  0  0  0  0  0  0  0  0
   42.1256   24.0746   36.4551 H   0  0  0  0  0  0  0  0  0  0  0  0
   42.7462   23.4124   34.9049 H   0  0  0  0  0  0  0  0  0  0  0  0
   41.7181   24.8854   34.9049 H   0  0  0  0  0  0  0  0  0  0  0  0
  1 14  1  0
  2  6  1  0
  2  3  1  0
  3  4  2  0
  4  1  1  0
  5  4  1  0
  6  5  2  0
  7  6  1  0
  8  7  1  0
  8  9  1  0
  9 10  1  0
 11 10  2  0
 12 11  1  0
 13 12  2  0
 13  9  1  0
 14 15  1  0
 15 23  1  0
 15 17  1  0
 16 17  2  0
 16 21  1  0
 17 18  1  0
 18 22  1  0
 18 19  2  0
 20 19  1  0
 21 20  2  0
  2 24  1  0
  5 25  1  0
  7 26  1  0
  7 27  1  0
  8 28  1  0
  8 29  1  0
 11 30  1  0
 12 31  1  0
 13 32  1  0
 14 33  1  0
 14 34  1  0
 15 35  1  1
 16 36  1  0
 20 37  1  0
 22 38  1  0
 22 39  1  0
 23 40  1  0
 23 41  1  0
 23 42  1  0
M  ISO  8  24   9  25  14  26   8  27   8  28   8  29   8  30  14  31  14
M  ISO  8  32  14  33   8  34   8  35   8  36  14  37  14  40   8  41   8
M  ISO  1  42   8
M  END
>  <minimizedAffinity>  (1) 
-5.19170904

>  <minimizedRMSD>  (1) 
0.966132283

$$$$
