
     RDKit          3D

 41 43  0  0  1  0  0  0  0  0999 V2000
   39.8460   23.0620   33.9000 C   0  0  0  0  0  0  0  0  0  0  0  0
   40.4280   22.9910   35.2180 C   0  0  2  0  0  0  0  0  0  0  0  0
   38.7140   24.5390   36.1710 C   0  0  0  0  0  0  0  0  0  0  0  0
   39.6360   23.4450   36.3120 C   0  0  0  0  0  0  0  0  0  0  0  0
   39.6410   22.8290   37.5350 C   0  0  0  0  0  0  0  0  0  0  0  0
   38.8130   23.2390   38.5530 N   0  0  0  0  0  0  0  0  0  0  0  0
   37.9540   24.2890   38.3570 C   0  0  0  0  0  0  0  0  0  0  0  0
   37.9030   24.9460   37.1600 N   0  0  0  0  0  0  0  0  0  0  0  0
   40.5380   21.7430   37.8210 N   0  0  0  0  0  0  0  0  0  0  0  0
   41.7610   23.8940   35.2850 C   0  0  0  0  0  0  0  0  0  0  0  0
   38.5520   21.8660   33.6620 S   0  0  0  0  0  0  0  0  0  0  0  0
   35.5290   22.5320   31.2580 N   0  0  0  0  0  0  0  0  0  0  0  0
   36.3510   21.7460   31.9550 N   0  0  0  0  0  0  0  0  0  0  0  0
   37.2530   22.4940   32.6100 C   0  0  0  0  0  0  0  0  0  0  0  0
   36.9260   23.7760   32.2670 C   0  0  0  0  0  0  0  0  0  0  0  0
   35.8460   23.8230   31.4180 C   0  0  0  0  0  0  0  0  0  0  0  0
   35.2290   25.0360   30.8630 C   0  0  0  0  0  0  0  0  0  0  0  0
   35.6270   26.2950   31.5230 C   0  0  0  0  0  0  0  0  0  0  0  0
   36.7280   27.0040   30.8950 N   0  0  0  0  0  0  0  0  0  0  0  0
   36.4620   28.2930   30.5770 C   0  0  0  0  0  0  0  0  0  0  0  0
   37.5280   28.9140   29.9980 N   0  0  0  0  0  0  0  0  0  0  0  0
   38.4660   27.9450   29.9730 C   0  0  0  0  0  0  0  0  0  0  0  0
   37.9680   26.8430   30.5040 N   0  0  0  0  0  0  0  0  0  0  0  0
   39.4275   24.0686   33.7529 H   0  0  0  0  0  0  0  0  0  0  0  0
   40.6408   22.8441   33.1714 H   0  0  0  0  0  0  0  0  0  0  0  0
   40.5820   21.9087   35.3396 H   0  0  0  0  0  0  0  0  0  0  0  0
   38.6712   25.0674   35.2072 H   0  0  0  0  0  0  0  0  0  0  0  0
   37.2944   24.6082   39.1774 H   0  0  0  0  0  0  0  0  0  0  0  0
   40.5244   21.2943   38.7480 H   0  0  0  0  0  0  0  0  0  0  0  0
   41.1944   21.4134   37.0989 H   0  0  0  0  0  0  0  0  0  0  0  0
   42.0286   24.0753   36.3364 H   0  0  0  0  0  0  0  0  0  0  0  0
   42.5859   23.3680   34.7821 H   0  0  0  0  0  0  0  0  0  0  0  0
   41.5784   24.8552   34.7821 H   0  0  0  0  0  0  0  0  0  0  0  0
   34.7525   22.1907   30.6736 H   0  0  0  0  0  0  0  0  0  0  0  0
   37.4637   24.6652   32.6278 H   0  0  0  0  0  0  0  0  0  0  0  0
   35.5064   25.1048   29.8008 H   0  0  0  0  0  0  0  0  0  0  0  0
   34.1460   24.9324   31.0251 H   0  0  0  0  0  0  0  0  0  0  0  0
   34.7539   26.9640   31.5334 H   0  0  0  0  0  0  0  0  0  0  0  0
   35.9791   26.0142   32.5266 H   0  0  0  0  0  0  0  0  0  0  0  0
   35.4953   28.7832   30.7647 H   0  0  0  0  0  0  0  0  0  0  0  0
   39.4849   28.0552   29.5734 H   0  0  0  0  0  0  0  0  0  0  0  0
  1  2  1  0
  2 10  1  0
  2  4  1  0
  3  4  2  0
  3  8  1  0
  4  5  1  0
  5  9  1  0
  5  6  2  0
  7  6  1  0
  8  7  2  0
 11  1  1  0
 12 16  1  0
 12 13  1  0
 13 14  2  0
 14 11  1  0
 15 14  1  0
 16 15  2  0
 17 16  1  0
 17 18  1  0
 19 18  1  0
 20 19  1  0
 21 20  2  0
 22 21  1  0
 22 23  2  0
 23 19  1  0
  1 24  1  0
  1 25  1  0
  2 26  1  1
  3 27  1  0
  7 28  1  0
  9 29  1  0
  9 30  1  0
 10 31  1  0
 10 32  1  0
 10 33  1  0
 12 34  1  0
 15 35  1  0
 17 36  1  0
 17 37  1  0
 18 38  1  0
 18 39  1  0
 20 40  1  0
 22 41  1  0
M  ISO  8  24   8  25   8  26   8  27  14  28  14  31   8  32   8  33   8
M  ISO  8  34   9  35  14  36   8  37   8  38   8  39   8  40  14  41  14
M  END
>  <minimizedAffinity>  (1) 
-5.11152792

>  <minimizedRMSD>  (1) 
0.58441186

$$$$
