
     RDKit          3D

 22 23  0  0  0  0  0  0  0  0999 V2000
   39.3850   23.0770   36.0710 C   0  0  0  0  0  0  0  0  0  0  0  0
   38.9870   23.3560   37.3800 C   0  0  0  0  0  0  0  0  0  0  0  0
   38.0960   24.4110   37.5720 C   0  0  0  0  0  0  0  0  0  0  0  0
   37.6770   25.0920   36.4650 N   0  0  0  0  0  0  0  0  0  0  0  0
   38.0800   24.7940   35.2270 C   0  0  0  0  0  0  0  0  0  0  0  0
   38.9540   23.7680   34.9940 N   0  0  0  0  0  0  0  0  0  0  0  0
   37.5350   25.6170   34.1990 N   0  0  0  0  0  0  0  0  0  0  0  0
   37.2120   26.9120   34.3770 C   0  0  0  0  0  0  0  0  0  0  0  0
   36.6860   27.6670   33.3500 C   0  0  0  0  0  0  0  0  0  0  0  0
   36.5340   26.9740   32.1650 C   0  0  0  0  0  0  0  0  0  0  0  0
   36.0560   27.6050   31.1740 O   0  0  0  0  0  0  0  0  0  0  0  0
   36.8440   25.6830   31.9440 N   0  0  0  0  0  0  0  0  0  0  0  0
   37.3580   25.0030   33.0080 C   0  0  0  0  0  0  0  0  0  0  0  0
   37.6430   23.7990   32.7910 O   0  0  0  0  0  0  0  0  0  0  0  0
   39.5300   22.5380   38.4030 N   0  0  0  0  0  0  0  0  0  0  0  0
   40.0891   22.2478   35.9080 H   0  0  0  0  0  0  0  0  0  0  0  0
   37.7437   24.6846   38.5775 H   0  0  0  0  0  0  0  0  0  0  0  0
   37.3709   27.3769   35.3612 H   0  0  0  0  0  0  0  0  0  0  0  0
   36.4120   28.7262   33.4643 H   0  0  0  0  0  0  0  0  0  0  0  0
   36.7016   25.2361   31.0270 H   0  0  0  0  0  0  0  0  0  0  0  0
   39.2691   22.7014   39.3859 H   0  0  0  0  0  0  0  0  0  0  0  0
   40.1853   21.7804   38.1632 H   0  0  0  0  0  0  0  0  0  0  0  0
  1  2  2  0
  2  3  1  0
  2 15  1  0
  4  3  2  0
  5  4  1  0
  6  5  2  0
  6  1  1  0
  7  8  1  0
  7  5  1  0
  9  8  2  0
 10  9  1  0
 11 10  2  0
 12 10  1  0
 12 13  1  0
 13  7  1  0
 14 13  2  0
  1 16  1  0
  3 17  1  0
  8 18  1  0
  9 19  1  0
 12 20  1  0
 15 21  1  0
 15 22  1  0
M  ISO  5  16  14  17  14  18  14  19  14  20   9
M  END
>  <minimizedAffinity>  (1) 
-4.687428

>  <minimizedRMSD>  (1) 
4.48897409

$$$$
