
     RDKit          3D

 25 27  0  0  0  0  0  0  0  0999 V2000
   39.4500   22.8790   37.1640 C   0  0  0  0  0  0  0  0  0  0  0  0
   38.5210   23.3500   38.0940 C   0  0  0  0  0  0  0  0  0  0  0  0
   37.8520   24.5410   37.8120 C   0  0  0  0  0  0  0  0  0  0  0  0
   38.1540   25.1630   36.6480 N   0  0  0  0  0  0  0  0  0  0  0  0
   39.0560   24.6930   35.7610 C   0  0  0  0  0  0  0  0  0  0  0  0
   39.7090   23.5430   36.0200 N   0  0  0  0  0  0  0  0  0  0  0  0
   39.1590   25.5550   34.6380 N   0  0  0  0  0  0  0  0  0  0  0  0
   40.0960   26.5320   34.5420 C   0  0  0  0  0  0  0  0  0  0  0  0
   39.9910   27.2170   33.3850 N   0  0  0  0  0  0  0  0  0  0  0  0
   38.9530   26.6710   32.7010 C   0  0  0  0  0  0  0  0  0  0  0  0
   38.3320   26.8970   31.4770 C   0  0  0  0  0  0  0  0  0  0  0  0
   37.2830   26.1520   31.0730 N   0  0  0  0  0  0  0  0  0  0  0  0
   36.8400   25.1710   31.8820 C   0  0  0  0  0  0  0  0  0  0  0  0
   37.4150   24.9100   33.0880 N   0  0  0  0  0  0  0  0  0  0  0  0
   38.4740   25.6590   33.5030 C   0  0  0  0  0  0  0  0  0  0  0  0
   38.3300   22.5590   39.2720 N   0  0  0  0  0  0  0  0  0  0  0  0
   38.9290   27.9790   30.7400 N   0  0  0  0  0  0  0  0  0  0  0  0
   39.9851   21.9404   37.3707 H   0  0  0  0  0  0  0  0  0  0  0  0
   37.1088   24.9582   38.5075 H   0  0  0  0  0  0  0  0  0  0  0  0
   40.8505   26.7402   35.3150 H   0  0  0  0  0  0  0  0  0  0  0  0
   35.9848   24.5600   31.5575 H   0  0  0  0  0  0  0  0  0  0  0  0
   37.6566   22.8601   39.9909 H   0  0  0  0  0  0  0  0  0  0  0  0
   38.8660   21.6889   39.4006 H   0  0  0  0  0  0  0  0  0  0  0  0
   38.5550   28.2414   29.8169 H   0  0  0  0  0  0  0  0  0  0  0  0
   39.7303   28.4911   31.1356 H   0  0  0  0  0  0  0  0  0  0  0  0
  1  2  2  0
  2 16  1  0
  3  2  1  0
  4  3  2  0
  5  6  2  0
  5  4  1  0
  6  1  1  0
  7  5  1  0
  8  7  1  0
  9  8  2  0
 10  9  1  0
 10 15  2  0
 11 10  1  0
 12 11  2  0
 12 13  1  0
 13 14  2  0
 14 15  1  0
 15  7  1  0
 17 11  1  0
  1 18  1  0
  3 19  1  0
  8 20  1  0
 13 21  1  0
 16 22  1  0
 16 23  1  0
 17 24  1  0
 17 25  1  0
M  ISO  4  18  14  19  14  20  14  21  14
M  END
>  <minimizedAffinity>  (1) 
-4.87807131

>  <minimizedRMSD>  (1) 
5.02324581

$$$$
