
     RDKit          3D

 23 25  0  0  0  0  0  0  0  0999 V2000
   39.4950   23.0500   37.1010 C   0  0  0  0  0  0  0  0  0  0  0  0
   38.5360   23.4120   38.0570 C   0  0  0  0  0  0  0  0  0  0  0  0
   37.8150   24.5950   37.8270 C   0  0  0  0  0  0  0  0  0  0  0  0
   38.1030   25.2970   36.6940 N   0  0  0  0  0  0  0  0  0  0  0  0
   39.0260   24.9130   35.8100 C   0  0  0  0  0  0  0  0  0  0  0  0
   39.7410   23.7780   35.9980 N   0  0  0  0  0  0  0  0  0  0  0  0
   39.2020   25.7610   34.6810 N   0  0  0  0  0  0  0  0  0  0  0  0
   40.3400   26.4740   34.5900 C   0  0  0  0  0  0  0  0  0  0  0  0
   40.2790   27.2010   33.4390 N   0  0  0  0  0  0  0  0  0  0  0  0
   39.1220   26.9550   32.8050 C   0  0  0  0  0  0  0  0  0  0  0  0
   38.4500   27.3310   31.6520 C   0  0  0  0  0  0  0  0  0  0  0  0
   37.2430   26.8570   31.3220 N   0  0  0  0  0  0  0  0  0  0  0  0
   36.6350   25.9620   32.1470 C   0  0  0  0  0  0  0  0  0  0  0  0
   37.2550   25.5590   33.2940 N   0  0  0  0  0  0  0  0  0  0  0  0
   38.4630   26.0390   33.6170 C   0  0  0  0  0  0  0  0  0  0  0  0
   38.3860   22.5430   39.1720 N   0  0  0  0  0  0  0  0  0  0  0  0
   40.0729   22.1278   37.2607 H   0  0  0  0  0  0  0  0  0  0  0  0
   37.0471   24.9421   38.5340 H   0  0  0  0  0  0  0  0  0  0  0  0
   41.1687   26.4705   35.3133 H   0  0  0  0  0  0  0  0  0  0  0  0
   38.9319   28.0532   30.9766 H   0  0  0  0  0  0  0  0  0  0  0  0
   35.6429   25.5629   31.8892 H   0  0  0  0  0  0  0  0  0  0  0  0
   37.6959   22.7603   39.9051 H   0  0  0  0  0  0  0  0  0  0  0  0
   38.9675   21.6961   39.2468 H   0  0  0  0  0  0  0  0  0  0  0  0
  1  2  2  0
  2 16  1  0
  3  2  1  0
  4  3  2  0
  5  6  2  0
  5  4  1  0
  6  1  1  0
  7  5  1  0
  8  7  1  0
  9  8  2  0
 10  9  1  0
 10 15  2  0
 11 10  1  0
 12 11  2  0
 12 13  1  0
 13 14  2  0
 14 15  1  0
 15  7  1  0
  1 17  1  0
  3 18  1  0
  8 19  1  0
 11 20  1  0
 13 21  1  0
 16 22  1  0
 16 23  1  0
M  ISO  5  17  14  18  14  19  14  20  14  21  14
M  END
>  <minimizedAffinity>  (1) 
-4.76738262

>  <minimizedRMSD>  (1) 
4.92497301

$$$$
