
     RDKit          3D

 27 28  0  0  0  0  0  0  0  0999 V2000
   39.7930   22.7960   37.3750 C   0  0  0  0  0  0  0  0  0  0  0  0
   38.6470   23.2490   38.0400 C   0  0  0  0  0  0  0  0  0  0  0  0
   37.9450   24.3170   37.4610 C   0  0  0  0  0  0  0  0  0  0  0  0
   38.4250   24.8370   36.2970 N   0  0  0  0  0  0  0  0  0  0  0  0
   39.5250   24.3690   35.7010 C   0  0  0  0  0  0  0  0  0  0  0  0
   40.2220   23.3460   36.2290 N   0  0  0  0  0  0  0  0  0  0  0  0
   39.9780   24.9540   34.4850 N   0  0  0  0  0  0  0  0  0  0  0  0
   41.1310   25.8310   34.4600 C   0  0  0  0  0  0  0  0  0  0  0  0
   40.7340   27.1490   33.8600 C   0  0  0  0  0  0  0  0  0  0  0  0
   39.8860   27.0600   32.6380 C   0  0  0  0  0  0  0  0  0  0  0  0
   38.8460   25.9870   32.6680 C   0  0  0  0  0  0  0  0  0  0  0  0
   39.2980   24.6890   33.2300 C   0  0  0  0  0  0  0  0  0  0  0  0
   38.3100   22.5780   39.2410 N   0  0  0  0  0  0  0  0  0  0  0  0
   40.3616   21.9596   37.8075 H   0  0  0  0  0  0  0  0  0  0  0  0
   37.0367   24.7212   37.9317 H   0  0  0  0  0  0  0  0  0  0  0  0
   41.4962   25.9884   35.4856 H   0  0  0  0  0  0  0  0  0  0  0  0
   41.9298   25.3752   33.8566 H   0  0  0  0  0  0  0  0  0  0  0  0
   40.1764   27.7150   34.6207 H   0  0  0  0  0  0  0  0  0  0  0  0
   41.6694   27.6364   33.5477 H   0  0  0  0  0  0  0  0  0  0  0  0
   40.5455   26.8721   31.7779 H   0  0  0  0  0  0  0  0  0  0  0  0
   39.3420   28.0137   32.5710 H   0  0  0  0  0  0  0  0  0  0  0  0
   38.0025   26.3465   33.2757 H   0  0  0  0  0  0  0  0  0  0  0  0
   38.5773   25.7906   31.6196 H   0  0  0  0  0  0  0  0  0  0  0  0
   38.4302   24.0365   33.4065 H   0  0  0  0  0  0  0  0  0  0  0  0
   39.9776   24.1850   32.5270 H   0  0  0  0  0  0  0  0  0  0  0  0
   37.4779   22.8656   39.7756 H   0  0  0  0  0  0  0  0  0  0  0  0
   38.8971   21.8025   39.5798 H   0  0  0  0  0  0  0  0  0  0  0  0
  1  2  2  0
  2 13  1  0
  3  2  1  0
  4  3  2  0
  5  6  2  0
  5  4  1  0
  6  1  1  0
  7  5  1  0
  8  7  1  0
  9  8  1  0
 10 11  1  0
 10  9  1  0
 11 12  1  0
 12  7  1  0
  1 14  1  0
  3 15  1  0
  8 16  1  0
  8 17  1  0
  9 18  1  0
  9 19  1  0
 10 20  1  0
 10 21  1  0
 11 22  1  0
 11 23  1  0
 12 24  1  0
 12 25  1  0
 13 26  1  0
 13 27  1  0
M  ISO  8  14  14  15  14  16  13  17  13  18  13  19  13  20  13  21  13
M  ISO  4  22  13  23  13  24  13  25  13
M  END
>  <minimizedAffinity>  (1) 
-4.19473982

>  <minimizedRMSD>  (1) 
3.58615589

$$$$
