
     RDKit          3D

 22 23  0  0  0  0  0  0  0  0999 V2000
   39.4800   22.9900   37.1860 C   0  0  0  0  0  0  0  0  0  0  0  0
   38.5100   23.3960   38.1030 C   0  0  0  0  0  0  0  0  0  0  0  0
   37.8130   24.5790   37.8330 C   0  0  0  0  0  0  0  0  0  0  0  0
   38.1280   25.2420   36.7090 N   0  0  0  0  0  0  0  0  0  0  0  0
   39.0700   24.8390   35.8310 C   0  0  0  0  0  0  0  0  0  0  0  0
   39.7640   23.6890   36.0690 N   0  0  0  0  0  0  0  0  0  0  0  0
   39.3620   25.6150   34.6210 C   0  0  0  0  0  0  0  0  0  0  0  0
   38.5810   25.4320   33.5200 C   0  0  0  0  0  0  0  0  0  0  0  0
   38.8630   26.1720   32.3740 C   0  0  0  0  0  0  0  0  0  0  0  0
   39.9220   27.0790   32.3600 C   0  0  0  0  0  0  0  0  0  0  0  0
   40.6940   27.2400   33.4990 C   0  0  0  0  0  0  0  0  0  0  0  0
   40.4290   26.5210   34.6270 C   0  0  0  0  0  0  0  0  0  0  0  0
   38.3310   22.5450   39.2320 N   0  0  0  0  0  0  0  0  0  0  0  0
   40.0358   22.0613   37.3826 H   0  0  0  0  0  0  0  0  0  0  0  0
   37.0358   24.9518   38.5164 H   0  0  0  0  0  0  0  0  0  0  0  0
   37.7462   24.7158   33.5355 H   0  0  0  0  0  0  0  0  0  0  0  0
   38.2456   26.0398   31.4733 H   0  0  0  0  0  0  0  0  0  0  0  0
   40.1424   27.6612   31.4531 H   0  0  0  0  0  0  0  0  0  0  0  0
   41.5296   27.9554   33.4934 H   0  0  0  0  0  0  0  0  0  0  0  0
   41.0451   26.6512   35.5289 H   0  0  0  0  0  0  0  0  0  0  0  0
   37.6319   22.7824   39.9502 H   0  0  0  0  0  0  0  0  0  0  0  0
   38.9008   21.6925   39.3298 H   0  0  0  0  0  0  0  0  0  0  0  0
  1  2  2  0
  2 13  1  0
  3  2  1  0
  4  3  2  0
  5  6  2  0
  5  4  1  0
  6  1  1  0
  7 12  1  0
  7  5  1  0
  8  7  2  0
  9  8  1  0
 10  9  2  0
 10 11  1  0
 11 12  2  0
  1 14  1  0
  3 15  1  0
  8 16  1  0
  9 17  1  0
 10 18  1  0
 11 19  1  0
 12 20  1  0
 13 21  1  0
 13 22  1  0
M  ISO  7  14  14  15  14  16  14  17  14  18  14  19  14  20  14
M  END
>  <minimizedAffinity>  (1) 
-4.17584896

>  <minimizedRMSD>  (1) 
4.06940079

$$$$
