
     RDKit          3D

 25 26  0  0  0  0  0  0  0  0999 V2000
   39.5420   22.6280   37.0440 C   0  0  0  0  0  0  0  0  0  0  0  0
   38.7810   23.1940   38.0630 C   0  0  0  0  0  0  0  0  0  0  0  0
   37.4000   23.2340   37.8690 C   0  0  0  0  0  0  0  0  0  0  0  0
   36.8910   22.7240   36.7190 N   0  0  0  0  0  0  0  0  0  0  0  0
   37.6610   22.1860   35.7620 C   0  0  0  0  0  0  0  0  0  0  0  0
   38.9990   22.1370   35.9260 N   0  0  0  0  0  0  0  0  0  0  0  0
   37.1460   21.6470   34.5500 N   0  0  0  0  0  0  0  0  0  0  0  0
   37.7240   21.8610   33.3490 C   0  0  0  0  0  0  0  0  0  0  0  0
   37.1610   21.3000   32.2100 C   0  0  0  0  0  0  0  0  0  0  0  0
   37.7260   21.4810   30.8650 C   0  0  0  0  0  0  0  0  0  0  0  0
   36.0250   20.5570   32.4470 C   0  0  0  0  0  0  0  0  0  0  0  0
   35.4830   20.0310   31.4250 O   0  0  0  0  0  0  0  0  0  0  0  0
   35.4220   20.3250   33.6260 N   0  0  0  0  0  0  0  0  0  0  0  0
   36.0300   20.9030   34.6920 C   0  0  0  0  0  0  0  0  0  0  0  0
   35.4810   20.7000   35.8240 O   0  0  0  0  0  0  0  0  0  0  0  0
   39.4760   23.6780   39.1960 N   0  0  0  0  0  0  0  0  0  0  0  0
   40.6345   22.5831   37.1639 H   0  0  0  0  0  0  0  0  0  0  0  0
   36.7379   23.6696   38.6318 H   0  0  0  0  0  0  0  0  0  0  0  0
   38.6337   22.4748   33.2730 H   0  0  0  0  0  0  0  0  0  0  0  0
   38.7706   21.8156   30.9481 H   0  0  0  0  0  0  0  0  0  0  0  0
   37.6891   20.5261   30.3202 H   0  0  0  0  0  0  0  0  0  0  0  0
   37.1411   22.2367   30.3202 H   0  0  0  0  0  0  0  0  0  0  0  0
   34.5684   19.7551   33.7127 H   0  0  0  0  0  0  0  0  0  0  0  0
   38.9558   24.1052   39.9756 H   0  0  0  0  0  0  0  0  0  0  0  0
   40.5023   23.6032   39.2414 H   0  0  0  0  0  0  0  0  0  0  0  0
  1  2  2  0
  2 16  1  0
  3  2  1  0
  4  3  2  0
  5  6  2  0
  5  4  1  0
  6  1  1  0
  7 14  1  0
  7  5  1  0
  8  7  1  0
  9 11  1  0
  9  8  2  0
 10  9  1  0
 11 13  1  0
 12 11  2  0
 13 14  1  0
 14 15  2  0
  1 17  1  0
  3 18  1  0
  8 19  1  0
 10 20  1  0
 10 21  1  0
 10 22  1  0
 13 23  1  0
 16 24  1  0
 16 25  1  0
M  ISO  7  17  14  18  14  19  14  20   8  21   8  22   8  23   9
M  END
>  <minimizedAffinity>  (1) 
-4.65971375

>  <minimizedRMSD>  (1) 
1.9024334

$$$$
