
     RDKit          3D

 19 20  0  0  0  0  0  0  0  0999 V2000
   40.0470   23.5210   36.0920 C   0  0  0  0  0  0  0  0  0  0  0  0
   39.3530   23.1490   37.2490 C   0  0  0  0  0  0  0  0  0  0  0  0
   38.0850   23.6920   37.4520 C   0  0  0  0  0  0  0  0  0  0  0  0
   37.6000   24.5500   36.5130 N   0  0  0  0  0  0  0  0  0  0  0  0
   38.2950   24.8890   35.4070 C   0  0  0  0  0  0  0  0  0  0  0  0
   39.5210   24.3750   35.1920 N   0  0  0  0  0  0  0  0  0  0  0  0
   37.6570   25.7960   34.5160 N   0  0  0  0  0  0  0  0  0  0  0  0
   37.2430   25.7540   33.2350 C   0  0  0  0  0  0  0  0  0  0  0  0
   36.6780   26.9780   32.9130 C   0  0  0  0  0  0  0  0  0  0  0  0
   36.7610   27.7520   34.0150 N   0  0  0  0  0  0  0  0  0  0  0  0
   37.3550   27.0340   34.9880 C   0  0  0  0  0  0  0  0  0  0  0  0
   40.0380   22.2380   38.1070 N   0  0  0  0  0  0  0  0  0  0  0  0
   41.0493   23.1049   35.9123 H   0  0  0  0  0  0  0  0  0  0  0  0
   37.4945   23.4349   38.3438 H   0  0  0  0  0  0  0  0  0  0  0  0
   37.3375   24.8924   32.5577 H   0  0  0  0  0  0  0  0  0  0  0  0
   36.2444   27.2640   31.9434 H   0  0  0  0  0  0  0  0  0  0  0  0
   37.5632   27.3940   36.0064 H   0  0  0  0  0  0  0  0  0  0  0  0
   39.5923   21.9171   38.9784 H   0  0  0  0  0  0  0  0  0  0  0  0
   40.9782   21.9012   37.8551 H   0  0  0  0  0  0  0  0  0  0  0  0
  1  2  2  0
  2  3  1  0
  2 12  1  0
  4  3  2  0
  5  4  1  0
  6  5  2  0
  6  1  1  0
  7 11  1  0
  7  5  1  0
  8  7  1  0
  9  8  2  0
  9 10  1  0
 10 11  2  0
  1 13  1  0
  3 14  1  0
  8 15  1  0
  9 16  1  0
 11 17  1  0
 12 18  1  0
 12 19  1  0
M  ISO  5  13  14  14  14  15  14  16  14  17  14
M  END
>  <minimizedAffinity>  (1) 
-4.06657028

>  <minimizedRMSD>  (1) 
3.9438827

$$$$
