
     RDKit          3D

 18 19  0  0  0  0  0  0  0  0999 V2000
   39.5900   22.9420   37.2460 C   0  0  0  0  0  0  0  0  0  0  0  0
   38.5630   23.3560   38.0920 C   0  0  0  0  0  0  0  0  0  0  0  0
   37.8820   24.5430   37.7440 C   0  0  0  0  0  0  0  0  0  0  0  0
   38.2760   25.1820   36.6240 N   0  0  0  0  0  0  0  0  0  0  0  0
   39.2670   24.7500   35.8410 C   0  0  0  0  0  0  0  0  0  0  0  0
   39.9370   23.6190   36.1470 N   0  0  0  0  0  0  0  0  0  0  0  0
   39.6800   25.4280   34.6590 N   0  0  0  0  0  0  0  0  0  0  0  0
   39.8910   25.0070   33.4050 C   0  0  0  0  0  0  0  0  0  0  0  0
   40.2830   26.0550   32.6250 N   0  0  0  0  0  0  0  0  0  0  0  0
   40.3060   27.1430   33.4460 C   0  0  0  0  0  0  0  0  0  0  0  0
   39.9360   26.7260   34.6720 N   0  0  0  0  0  0  0  0  0  0  0  0
   38.2930   22.5460   39.2310 N   0  0  0  0  0  0  0  0  0  0  0  0
   40.1375   22.0204   37.4927 H   0  0  0  0  0  0  0  0  0  0  0  0
   37.0605   24.9319   38.3636 H   0  0  0  0  0  0  0  0  0  0  0  0
   39.7667   23.9711   33.0564 H   0  0  0  0  0  0  0  0  0  0  0  0
   40.5764   28.1703   33.1603 H   0  0  0  0  0  0  0  0  0  0  0  0
   37.5432   22.8112   39.8855 H   0  0  0  0  0  0  0  0  0  0  0  0
   38.8474   21.6947   39.4006 H   0  0  0  0  0  0  0  0  0  0  0  0
  1  2  2  0
  2 12  1  0
  3  2  1  0
  4  3  2  0
  5  6  2  0
  5  4  1  0
  6  1  1  0
  7 11  1  0
  7  5  1  0
  8  7  1  0
  9  8  2  0
  9 10  1  0
 10 11  2  0
  1 13  1  0
  3 14  1  0
  8 15  1  0
 10 16  1  0
 12 17  1  0
 12 18  1  0
M  ISO  4  13  14  14  14  15  14  16  14
M  END
>  <minimizedAffinity>  (1) 
-3.68225551

>  <minimizedRMSD>  (1) 
3.55865383

$$$$
