
     RDKit          3D

 21 21  0  0  0  0  0  0  0  0999 V2000
   39.5130   22.9090   37.1850 C   0  0  0  0  0  0  0  0  0  0  0  0
   38.5350   23.3380   38.0830 C   0  0  0  0  0  0  0  0  0  0  0  0
   37.8340   24.5070   37.7620 C   0  0  0  0  0  0  0  0  0  0  0  0
   38.1540   25.1400   36.5990 N   0  0  0  0  0  0  0  0  0  0  0  0
   39.0980   24.6910   35.7700 C   0  0  0  0  0  0  0  0  0  0  0  0
   39.8010   23.5530   36.0550 N   0  0  0  0  0  0  0  0  0  0  0  0
   38.3290   22.5610   39.2460 N   0  0  0  0  0  0  0  0  0  0  0  0
   39.3250   25.5120   34.5300 C   0  0  0  0  0  0  0  0  0  0  0  0
   39.9970   26.8290   34.8570 C   0  0  0  0  0  0  0  0  0  0  0  0
   38.0000   25.8340   33.8680 C   0  0  0  0  0  0  0  0  0  0  0  0
   40.0743   21.9932   37.4220 H   0  0  0  0  0  0  0  0  0  0  0  0
   37.0511   24.9009   38.4268 H   0  0  0  0  0  0  0  0  0  0  0  0
   37.6166   22.8431   39.9343 H   0  0  0  0  0  0  0  0  0  0  0  0
   38.8913   21.7128   39.4050 H   0  0  0  0  0  0  0  0  0  0  0  0
   39.9677   24.9189   33.8628 H   0  0  0  0  0  0  0  0  0  0  0  0
   40.0579   26.9484   35.9488 H   0  0  0  0  0  0  0  0  0  0  0  0
   41.0106   26.8394   34.4299 H   0  0  0  0  0  0  0  0  0  0  0  0
   39.4106   27.6559   34.4299 H   0  0  0  0  0  0  0  0  0  0  0  0
   37.2394   26.0189   34.6408 H   0  0  0  0  0  0  0  0  0  0  0  0
   38.1116   26.7312   33.2414 H   0  0  0  0  0  0  0  0  0  0  0  0
   37.6875   24.9857   33.2414 H   0  0  0  0  0  0  0  0  0  0  0  0
  1  2  2  0
  2  7  1  0
  3  2  1  0
  4  3  2  0
  5  6  2  0
  5  4  1  0
  6  1  1  0
  8  9  1  0
  8  5  1  0
 10  8  1  0
  1 11  1  0
  3 12  1  0
  7 13  1  0
  7 14  1  0
  8 15  1  0
  9 16  1  0
  9 17  1  0
  9 18  1  0
 10 19  1  0
 10 20  1  0
 10 21  1  0
M  ISO  8  11  14  12  14  15   8  16   8  17   8  18   8  19   8  20   8
M  ISO  1  21   8
M  END
>  <minimizedAffinity>  (1) 
-3.50002694

>  <minimizedRMSD>  (1) 
3.0634253

$$$$
