
     RDKit          3D

 40 42  0  0  0  0  0  0  0  0999 V2000
   38.9040   25.7590   34.2760 C   0  0  0  0  0  0  0  0  0  0  0  0
   39.5490   23.1030   36.7830 C   0  0  0  0  0  0  0  0  0  0  0  0
   38.6760   23.4190   37.8190 C   0  0  0  0  0  0  0  0  0  0  0  0
   37.8760   24.5450   37.6380 C   0  0  0  0  0  0  0  0  0  0  0  0
   38.0090   25.2410   36.4770 N   0  0  0  0  0  0  0  0  0  0  0  0
   38.8620   24.9040   35.5040 C   0  0  0  0  0  0  0  0  0  0  0  0
   39.6580   23.8000   35.6580 N   0  0  0  0  0  0  0  0  0  0  0  0
   38.6460   22.5970   38.9760 N   0  0  0  0  0  0  0  0  0  0  0  0
   39.3650   27.1670   34.6910 C   0  0  0  0  0  0  0  0  0  0  0  0
   39.8920   25.1910   33.2900 C   0  0  0  0  0  0  0  0  0  0  0  0
   37.5260   25.8250   33.7210 C   0  0  0  0  0  0  0  0  0  0  0  0
   36.9770   27.1370   33.4090 C   0  0  0  0  0  0  0  0  0  0  0  0
   36.3430   27.8010   34.4700 C   0  0  0  0  0  0  0  0  0  0  0  0
   35.8240   29.0920   34.3630 C   0  0  0  0  0  0  0  0  0  0  0  0
   35.9180   29.7770   33.1840 C   0  0  0  0  0  0  0  0  0  0  0  0
   36.5300   29.1750   32.1040 C   0  0  0  0  0  0  0  0  0  0  0  0
   36.6290   29.8040   30.8870 C   0  0  0  0  0  0  0  0  0  0  0  0
   37.2120   29.1950   29.7940 C   0  0  0  0  0  0  0  0  0  0  0  0
   37.7110   27.9000   29.9530 C   0  0  0  0  0  0  0  0  0  0  0  0
   37.5920   27.3120   31.1820 C   0  0  0  0  0  0  0  0  0  0  0  0
   37.0120   27.9100   32.2800 C   0  0  0  0  0  0  0  0  0  0  0  0
   40.1909   22.2179   36.9036 H   0  0  0  0  0  0  0  0  0  0  0  0
   37.1591   24.8614   38.4100 H   0  0  0  0  0  0  0  0  0  0  0  0
   38.0041   22.8203   39.7499 H   0  0  0  0  0  0  0  0  0  0  0  0
   39.2662   21.7772   39.0416 H   0  0  0  0  0  0  0  0  0  0  0  0
   39.3878   27.2367   35.7886 H   0  0  0  0  0  0  0  0  0  0  0  0
   40.3719   27.3560   34.2906 H   0  0  0  0  0  0  0  0  0  0  0  0
   38.6648   27.9149   34.2906 H   0  0  0  0  0  0  0  0  0  0  0  0
   40.7207   24.7146   33.8344 H   0  0  0  0  0  0  0  0  0  0  0  0
   39.3906   24.4433   32.6579 H   0  0  0  0  0  0  0  0  0  0  0  0
   40.2859   26.0005   32.6579 H   0  0  0  0  0  0  0  0  0  0  0  0
   37.5196   25.2380   32.7907 H   0  0  0  0  0  0  0  0  0  0  0  0
   36.8853   25.4444   34.5301 H   0  0  0  0  0  0  0  0  0  0  0  0
   36.2505   27.2783   35.4335 H   0  0  0  0  0  0  0  0  0  0  0  0
   35.3372   29.5603   35.2312 H   0  0  0  0  0  0  0  0  0  0  0  0
   35.5109   30.7952   33.0974 H   0  0  0  0  0  0  0  0  0  0  0  0
   36.2316   30.8241   30.7801 H   0  0  0  0  0  0  0  0  0  0  0  0
   37.2816   29.7140   28.8266 H   0  0  0  0  0  0  0  0  0  0  0  0
   38.1855   27.3690   29.1146 H   0  0  0  0  0  0  0  0  0  0  0  0
   37.9861   26.2921   31.3024 H   0  0  0  0  0  0  0  0  0  0  0  0
  1  9  1  0
  1  6  1  0
  2  3  2  0
  3  8  1  0
  4  3  1  0
  5  4  2  0
  6  7  2  0
  6  5  1  0
  7  2  1  0
 10  1  1  0
 11  1  1  0
 12 11  1  0
 12 13  2  0
 14 13  1  0
 15 14  2  0
 16 21  2  0
 16 15  1  0
 17 16  1  0
 18 19  1  0
 18 17  2  0
 19 20  2  0
 20 21  1  0
 21 12  1  0
  2 22  1  0
  4 23  1  0
  8 24  1  0
  8 25  1  0
  9 26  1  0
  9 27  1  0
  9 28  1  0
 10 29  1  0
 10 30  1  0
 10 31  1  0
 11 32  1  0
 11 33  1  0
 13 34  1  0
 14 35  1  0
 15 36  1  0
 17 37  1  0
 18 38  1  0
 19 39  1  0
 20 40  1  0
M  ISO  8  22  14  23  14  26   8  27   8  28   8  29   8  30   8  31   8
M  ISO  8  32   8  33   8  34  14  35  14  36  14  37  14  38  14  39  14
M  ISO  1  40  14
M  END
>  <minimizedAffinity>  (1) 
-5.7317915

>  <minimizedRMSD>  (1) 
2.26930904

$$$$
