
     RDKit          3D

 37 38  0  0  0  0  0  0  0  0999 V2000
   38.9500   25.5610   34.1540 C   0  0  0  0  0  0  0  0  0  0  0  0
   39.5870   23.0450   36.7910 C   0  0  0  0  0  0  0  0  0  0  0  0
   38.6750   23.3910   37.7940 C   0  0  0  0  0  0  0  0  0  0  0  0
   37.8580   24.4800   37.5490 C   0  0  0  0  0  0  0  0  0  0  0  0
   37.9880   25.1430   36.3590 N   0  0  0  0  0  0  0  0  0  0  0  0
   38.8790   24.7790   35.4190 C   0  0  0  0  0  0  0  0  0  0  0  0
   39.6950   23.7020   35.6480 N   0  0  0  0  0  0  0  0  0  0  0  0
   38.6430   22.6140   38.9880 N   0  0  0  0  0  0  0  0  0  0  0  0
   39.4130   26.9700   34.4470 C   0  0  0  0  0  0  0  0  0  0  0  0
   39.9190   24.8860   33.1970 C   0  0  0  0  0  0  0  0  0  0  0  0
   37.5830   25.5580   33.5490 C   0  0  0  0  0  0  0  0  0  0  0  0
   37.1170   26.8450   33.0840 N   0  0  0  0  0  0  0  0  0  0  0  0
   36.5400   27.6790   33.9970 C   0  0  0  0  0  0  0  0  0  0  0  0
   36.0800   28.9140   33.6150 C   0  0  0  0  0  0  0  0  0  0  0  0
   35.4340   29.8990   34.5350 C   0  0  0  0  0  0  0  0  0  0  0  0
   36.1880   29.3430   32.3080 C   0  0  0  0  0  0  0  0  0  0  0  0
   35.7890   30.4690   31.8750 O   0  0  0  0  0  0  0  0  0  0  0  0
   36.7640   28.4970   31.4300 N   0  0  0  0  0  0  0  0  0  0  0  0
   37.2110   27.2880   31.8170 C   0  0  0  0  0  0  0  0  0  0  0  0
   37.7400   26.5340   30.9600 O   0  0  0  0  0  0  0  0  0  0  0  0
   40.2480   22.1825   36.9616 H   0  0  0  0  0  0  0  0  0  0  0  0
   37.1189   24.8064   38.2955 H   0  0  0  0  0  0  0  0  0  0  0  0
   37.9794   22.8512   39.7392 H   0  0  0  0  0  0  0  0  0  0  0  0
   39.2835   21.8151   39.0999 H   0  0  0  0  0  0  0  0  0  0  0  0
   39.4625   27.1208   35.5355 H   0  0  0  0  0  0  0  0  0  0  0  0
   40.4099   27.1268   34.0094 H   0  0  0  0  0  0  0  0  0  0  0  0
   38.7034   27.6876   34.0094 H   0  0  0  0  0  0  0  0  0  0  0  0
   40.6885   24.3500   33.7719 H   0  0  0  0  0  0  0  0  0  0  0  0
   39.3715   24.1728   32.5633 H   0  0  0  0  0  0  0  0  0  0  0  0
   40.3982   25.6467   32.5633 H   0  0  0  0  0  0  0  0  0  0  0  0
   37.5907   24.8681   32.6922 H   0  0  0  0  0  0  0  0  0  0  0  0
   36.8935   25.2528   34.3499 H   0  0  0  0  0  0  0  0  0  0  0  0
   36.4431   27.3594   35.0451 H   0  0  0  0  0  0  0  0  0  0  0  0
   35.6256   29.6068   35.5780 H   0  0  0  0  0  0  0  0  0  0  0  0
   35.8515   30.9001   34.3520 H   0  0  0  0  0  0  0  0  0  0  0  0
   34.3494   29.9150   34.3520 H   0  0  0  0  0  0  0  0  0  0  0  0
   36.8637   28.7813   30.4451 H   0  0  0  0  0  0  0  0  0  0  0  0
  1  9  1  0
  1  6  1  0
  2  3  2  0
  3  8  1  0
  4  3  1  0
  5  4  2  0
  6  7  2  0
  6  5  1  0
  7  2  1  0
 10  1  1  0
 11  1  1  0
 12 11  1  0
 12 13  1  0
 14 13  2  0
 14 15  1  0
 16 14  1  0
 17 16  2  0
 18 19  1  0
 18 16  1  0
 19 12  1  0
 20 19  2  0
  2 21  1  0
  4 22  1  0
  8 23  1  0
  8 24  1  0
  9 25  1  0
  9 26  1  0
  9 27  1  0
 10 28  1  0
 10 29  1  0
 10 30  1  0
 11 31  1  0
 11 32  1  0
 13 33  1  0
 15 34  1  0
 15 35  1  0
 15 36  1  0
 18 37  1  0
M  ISO  8  21  14  22  14  25   8  26   8  27   8  28   8  29   8  30   8
M  ISO  7  31   8  32   8  33  14  34   8  35   8  36   8  37   9
M  END
>  <minimizedAffinity>  (1) 
-5.13023663

>  <minimizedRMSD>  (1) 
2.2453084

$$$$
