
     RDKit          3D

 34 35  0  0  0  0  0  0  0  0999 V2000
   38.6810   25.5740   33.8840 C   0  0  0  0  0  0  0  0  0  0  0  0
   39.7620   23.2240   36.5290 C   0  0  0  0  0  0  0  0  0  0  0  0
   38.8340   23.4530   37.5550 C   0  0  0  0  0  0  0  0  0  0  0  0
   37.8490   24.4140   37.3150 C   0  0  0  0  0  0  0  0  0  0  0  0
   37.8610   25.0540   36.1170 N   0  0  0  0  0  0  0  0  0  0  0  0
   38.7700   24.8070   35.1560 C   0  0  0  0  0  0  0  0  0  0  0  0
   39.7340   23.8710   35.3770 N   0  0  0  0  0  0  0  0  0  0  0  0
   38.9520   22.6990   38.7610 N   0  0  0  0  0  0  0  0  0  0  0  0
   39.3550   26.9270   34.0620 C   0  0  0  0  0  0  0  0  0  0  0  0
   39.3520   24.8030   32.7650 C   0  0  0  0  0  0  0  0  0  0  0  0
   37.2330   25.7530   33.5640 C   0  0  0  0  0  0  0  0  0  0  0  0
   36.9280   26.9330   32.7810 N   0  0  0  0  0  0  0  0  0  0  0  0
   37.1340   26.8720   31.4330 C   0  0  0  0  0  0  0  0  0  0  0  0
   36.8820   27.9180   30.5690 C   0  0  0  0  0  0  0  0  0  0  0  0
   36.3950   29.1060   31.0690 C   0  0  0  0  0  0  0  0  0  0  0  0
   36.1350   30.1090   30.3780 O   0  0  0  0  0  0  0  0  0  0  0  0
   36.2020   29.1370   32.4080 N   0  0  0  0  0  0  0  0  0  0  0  0
   36.4540   28.1130   33.2090 C   0  0  0  0  0  0  0  0  0  0  0  0
   36.2550   28.2020   34.4470 O   0  0  0  0  0  0  0  0  0  0  0  0
   40.5485   22.4721   36.6903 H   0  0  0  0  0  0  0  0  0  0  0  0
   37.0866   24.6455   38.0734 H   0  0  0  0  0  0  0  0  0  0  0  0
   38.2827   22.8487   39.5295 H   0  0  0  0  0  0  0  0  0  0  0  0
   39.7064   22.0052   38.8629 H   0  0  0  0  0  0  0  0  0  0  0  0
   39.4633   27.1444   35.1349 H   0  0  0  0  0  0  0  0  0  0  0  0
   40.3483   26.9068   33.5899 H   0  0  0  0  0  0  0  0  0  0  0  0
   38.7405   27.7077   33.5899 H   0  0  0  0  0  0  0  0  0  0  0  0
   40.0170   24.0388   33.1937 H   0  0  0  0  0  0  0  0  0  0  0  0
   38.5855   24.3156   32.1446 H   0  0  0  0  0  0  0  0  0  0  0  0
   39.9405   25.4949   32.1446 H   0  0  0  0  0  0  0  0  0  0  0  0
   36.8949   24.8709   33.0004 H   0  0  0  0  0  0  0  0  0  0  0  0
   36.7148   25.8760   34.5265 H   0  0  0  0  0  0  0  0  0  0  0  0
   37.5237   25.9340   31.0107 H   0  0  0  0  0  0  0  0  0  0  0  0
   37.0682   27.8044   29.4908 H   0  0  0  0  0  0  0  0  0  0  0  0
   35.8391   30.0050   32.8273 H   0  0  0  0  0  0  0  0  0  0  0  0
  1  9  1  0
  1  6  1  0
  2  3  2  0
  3  8  1  0
  4  3  1  0
  5  4  2  0
  6  7  2  0
  6  5  1  0
  7  2  1  0
 10  1  1  0
 11  1  1  0
 12 18  1  0
 12 11  1  0
 13 12  1  0
 14 15  1  0
 14 13  2  0
 15 17  1  0
 16 15  2  0
 17 18  1  0
 18 19  2  0
  2 20  1  0
  4 21  1  0
  8 22  1  0
  8 23  1  0
  9 24  1  0
  9 25  1  0
  9 26  1  0
 10 27  1  0
 10 28  1  0
 10 29  1  0
 11 30  1  0
 11 31  1  0
 13 32  1  0
 14 33  1  0
 17 34  1  0
M  ISO  8  20  14  21  14  24   8  25   8  26   8  27   8  28   8  29   8
M  ISO  5  30   8  31   8  32  14  33  14  34   9
M  END
>  <minimizedAffinity>  (1) 
-4.85132313

>  <minimizedRMSD>  (1) 
2.59354711

$$$$
