
     RDKit          3D

 32 33  0  0  0  0  0  0  0  0999 V2000
   39.1990   25.6530   34.5850 C   0  0  0  0  0  0  0  0  0  0  0  0
   41.2990   23.0310   36.1170 C   0  0  0  0  0  0  0  0  0  0  0  0
   40.4550   22.4770   37.1000 C   0  0  0  0  0  0  0  0  0  0  0  0
   39.1840   23.0130   37.2180 C   0  0  0  0  0  0  0  0  0  0  0  0
   38.8360   24.0300   36.3840 N   0  0  0  0  0  0  0  0  0  0  0  0
   39.6610   24.5360   35.4600 C   0  0  0  0  0  0  0  0  0  0  0  0
   40.9090   24.0200   35.3330 N   0  0  0  0  0  0  0  0  0  0  0  0
   40.9540   21.4090   37.9070 N   0  0  0  0  0  0  0  0  0  0  0  0
   39.6800   26.9780   35.1020 C   0  0  0  0  0  0  0  0  0  0  0  0
   39.7310   25.4180   33.1640 C   0  0  0  0  0  0  0  0  0  0  0  0
   37.7040   25.5690   34.5020 C   0  0  0  0  0  0  0  0  0  0  0  0
   37.0550   26.7060   33.8410 C   0  0  0  0  0  0  0  0  0  0  0  0
   36.6080   27.8030   34.5480 C   0  0  0  0  0  0  0  0  0  0  0  0
   36.0020   28.8570   33.8970 C   0  0  0  0  0  0  0  0  0  0  0  0
   35.8390   28.8280   32.5560 N   0  0  0  0  0  0  0  0  0  0  0  0
   36.2750   27.7580   31.8590 C   0  0  0  0  0  0  0  0  0  0  0  0
   36.8620   26.7390   32.5040 N   0  0  0  0  0  0  0  0  0  0  0  0
   42.3152   22.6269   35.9987 H   0  0  0  0  0  0  0  0  0  0  0  0
   38.4751   22.6273   37.9654 H   0  0  0  0  0  0  0  0  0  0  0  0
   40.3554   20.9882   38.6319 H   0  0  0  0  0  0  0  0  0  0  0  0
   41.9124   21.0598   37.7639 H   0  0  0  0  0  0  0  0  0  0  0  0
   39.6756   26.9659   36.2019 H   0  0  0  0  0  0  0  0  0  0  0  0
   40.7026   27.1629   34.7414 H   0  0  0  0  0  0  0  0  0  0  0  0
   39.0142   27.7759   34.7414 H   0  0  0  0  0  0  0  0  0  0  0  0
   40.7360   24.9741   33.2175 H   0  0  0  0  0  0  0  0  0  0  0  0
   39.0562   24.7342   32.6282 H   0  0  0  0  0  0  0  0  0  0  0  0
   39.7820   26.3774   32.6282 H   0  0  0  0  0  0  0  0  0  0  0  0
   37.4439   24.6567   33.9452 H   0  0  0  0  0  0  0  0  0  0  0  0
   37.3382   25.5668   35.5394 H   0  0  0  0  0  0  0  0  0  0  0  0
   36.7360   27.8373   35.6400 H   0  0  0  0  0  0  0  0  0  0  0  0
   35.6495   29.7257   34.4724 H   0  0  0  0  0  0  0  0  0  0  0  0
   36.1496   27.7216   30.7668 H   0  0  0  0  0  0  0  0  0  0  0  0
  1  9  1  0
  1  6  1  0
  2  3  2  0
  3  4  1  0
  3  8  1  0
  5  4  2  0
  6  5  1  0
  7  6  2  0
  7  2  1  0
 10  1  1  0
 11  1  1  0
 12 11  1  0
 12 13  2  0
 14 13  1  0
 15 14  2  0
 16 17  2  0
 16 15  1  0
 17 12  1  0
  2 18  1  0
  4 19  1  0
  8 20  1  0
  8 21  1  0
  9 22  1  0
  9 23  1  0
  9 24  1  0
 10 25  1  0
 10 26  1  0
 10 27  1  0
 11 28  1  0
 11 29  1  0
 13 30  1  0
 14 31  1  0
 16 32  1  0
M  ISO  8  18  14  19  14  22   8  23   8  24   8  25   8  26   8  27   8
M  ISO  5  28   8  29   8  30  14  31  14  32  14
M  END
>  <minimizedAffinity>  (1) 
-4.5854373

>  <minimizedRMSD>  (1) 
1.83339429

$$$$
