
     RDKit          3D

 45 47  0  0  0  0  0  0  0  0999 V2000
   37.5600   25.6970   33.6480 C   0  0  0  0  0  0  0  0  0  0  0  0
   37.1320   26.9510   33.1040 N   0  0  0  0  0  0  0  0  0  0  0  0
   36.4810   27.7550   33.9820 C   0  0  0  0  0  0  0  0  0  0  0  0
   36.0010   29.0120   33.5990 C   0  0  0  0  0  0  0  0  0  0  0  0
   36.2160   29.4140   32.2750 C   0  0  0  0  0  0  0  0  0  0  0  0
   35.7200   30.6740   31.9380 N   0  0  0  0  0  0  0  0  0  0  0  0
   36.8580   28.6060   31.4270 N   0  0  0  0  0  0  0  0  0  0  0  0
   37.3020   27.4040   31.8430 C   0  0  0  0  0  0  0  0  0  0  0  0
   37.9080   26.6290   31.0620 O   0  0  0  0  0  0  0  0  0  0  0  0
   35.3040   29.8690   34.5510 C   0  0  0  0  0  0  0  0  0  0  0  0
   36.0000   30.7860   35.3350 C   0  0  0  0  0  0  0  0  0  0  0  0
   35.4330   31.6390   36.2620 C   0  0  0  0  0  0  0  0  0  0  0  0
   34.0660   31.5750   36.4220 C   0  0  0  0  0  0  0  0  0  0  0  0
   33.3210   30.6860   35.6740 C   0  0  0  0  0  0  0  0  0  0  0  0
   33.9230   29.8360   34.7440 C   0  0  0  0  0  0  0  0  0  0  0  0
   38.9060   25.6800   34.2710 C   0  0  0  0  0  0  0  0  0  0  0  0
   39.5300   23.0980   36.8310 C   0  0  0  0  0  0  0  0  0  0  0  0
   38.6400   23.4130   37.8420 C   0  0  0  0  0  0  0  0  0  0  0  0
   37.8360   24.5190   37.6180 C   0  0  0  0  0  0  0  0  0  0  0  0
   37.9640   25.2090   36.4530 N   0  0  0  0  0  0  0  0  0  0  0  0
   38.8450   24.8630   35.5000 C   0  0  0  0  0  0  0  0  0  0  0  0
   39.6550   23.7760   35.6880 N   0  0  0  0  0  0  0  0  0  0  0  0
   38.6170   22.6060   38.9970 N   0  0  0  0  0  0  0  0  0  0  0  0
   39.4160   27.0760   34.5750 C   0  0  0  0  0  0  0  0  0  0  0  0
   39.8980   25.0200   33.2880 C   0  0  0  0  0  0  0  0  0  0  0  0
   37.5581   24.9589   32.8324 H   0  0  0  0  0  0  0  0  0  0  0  0
   36.8553   25.4728   34.4623 H   0  0  0  0  0  0  0  0  0  0  0  0
   36.3276   27.4115   35.0157 H   0  0  0  0  0  0  0  0  0  0  0  0
   35.8412   31.0362   30.9814 H   0  0  0  0  0  0  0  0  0  0  0  0
   35.2327   31.2418   32.6458 H   0  0  0  0  0  0  0  0  0  0  0  0
   37.0912   30.8351   35.2053 H   0  0  0  0  0  0  0  0  0  0  0  0
   36.0467   32.3394   36.8474 H   0  0  0  0  0  0  0  0  0  0  0  0
   33.5671   32.2341   37.1477 H   0  0  0  0  0  0  0  0  0  0  0  0
   32.2306   30.6462   35.8133 H   0  0  0  0  0  0  0  0  0  0  0  0
   33.3053   29.1371   34.1609 H   0  0  0  0  0  0  0  0  0  0  0  0
   40.1824   22.2250   36.9798 H   0  0  0  0  0  0  0  0  0  0  0  0
   37.1023   24.8355   38.3740 H   0  0  0  0  0  0  0  0  0  0  0  0
   37.9627   22.8213   39.7628 H   0  0  0  0  0  0  0  0  0  0  0  0
   39.2545   21.8008   39.0754 H   0  0  0  0  0  0  0  0  0  0  0  0
   39.4680   27.2182   35.6645 H   0  0  0  0  0  0  0  0  0  0  0  0
   40.4185   27.2028   34.1405 H   0  0  0  0  0  0  0  0  0  0  0  0
   38.7313   27.8192   34.1405 H   0  0  0  0  0  0  0  0  0  0  0  0
   40.6830   24.4977   33.8546 H   0  0  0  0  0  0  0  0  0  0  0  0
   39.3612   24.2984   32.6547 H   0  0  0  0  0  0  0  0  0  0  0  0
   40.3562   25.7939   32.6547 H   0  0  0  0  0  0  0  0  0  0  0  0
  1 16  1  0
  2  1  1  0
  2  3  1  0
  4  3  2  0
  4 10  1  0
  5  4  1  0
  6  5  1  0
  7  8  1  0
  7  5  2  0
  8  2  1  0
  9  8  2  0
 10 15  1  0
 10 11  2  0
 11 12  1  0
 12 13  2  0
 14 13  1  0
 15 14  2  0
 16 24  1  0
 16 21  1  0
 17 18  2  0
 18 23  1  0
 19 18  1  0
 20 19  2  0
 21 22  2  0
 21 20  1  0
 22 17  1  0
 25 16  1  0
  1 26  1  0
  1 27  1  0
  3 28  1  0
  6 29  1  0
  6 30  1  0
 11 31  1  0
 12 32  1  0
 13 33  1  0
 14 34  1  0
 15 35  1  0
 17 36  1  0
 19 37  1  0
 23 38  1  0
 23 39  1  0
 24 40  1  0
 24 41  1  0
 24 42  1  0
 25 43  1  0
 25 44  1  0
 25 45  1  0
M  ISO  8  26   8  27   8  28  14  31  14  32  14  33  14  34  14  35  14
M  ISO  8  36  14  37  14  40   8  41   8  42   8  43   8  44   8  45   8
M  END
>  <minimizedAffinity>  (1) 
-6.47454309

>  <minimizedRMSD>  (1) 
1.15947485

$$$$
