
     RDKit          3D

 42 44  0  0  0  0  0  0  0  0999 V2000
   38.8690   25.5510   34.1020 C   0  0  0  0  0  0  0  0  0  0  0  0
   39.5900   23.0740   36.7410 C   0  0  0  0  0  0  0  0  0  0  0  0
   38.6920   23.4130   37.7530 C   0  0  0  0  0  0  0  0  0  0  0  0
   37.8640   24.4820   37.5010 C   0  0  0  0  0  0  0  0  0  0  0  0
   37.9630   25.1340   36.3120 N   0  0  0  0  0  0  0  0  0  0  0  0
   38.8520   24.7720   35.3520 C   0  0  0  0  0  0  0  0  0  0  0  0
   39.6770   23.7200   35.5810 N   0  0  0  0  0  0  0  0  0  0  0  0
   38.7180   22.6310   38.9320 N   0  0  0  0  0  0  0  0  0  0  0  0
   39.2000   27.0010   34.3620 C   0  0  0  0  0  0  0  0  0  0  0  0
   39.9650   24.9630   33.1820 C   0  0  0  0  0  0  0  0  0  0  0  0
   37.5610   25.3830   33.4180 C   0  0  0  0  0  0  0  0  0  0  0  0
   37.1590   26.4510   32.5550 N   0  0  0  0  0  0  0  0  0  0  0  0
   36.5900   27.5210   33.1810 C   0  0  0  0  0  0  0  0  0  0  0  0
   36.1510   28.6370   32.4660 C   0  0  0  0  0  0  0  0  0  0  0  0
   36.3110   28.6280   31.0870 C   0  0  0  0  0  0  0  0  0  0  0  0
   35.8620   29.7630   30.4170 N   0  0  0  0  0  0  0  0  0  0  0  0
   36.8730   27.5680   30.4800 N   0  0  0  0  0  0  0  0  0  0  0  0
   37.2810   26.5130   31.2100 C   0  0  0  0  0  0  0  0  0  0  0  0
   37.8090   25.5100   30.6710 O   0  0  0  0  0  0  0  0  0  0  0  0
   35.5330   29.7950   33.1640 C   0  0  0  0  0  0  0  0  0  0  0  0
   35.7040   29.9330   34.6310 C   0  0  0  0  0  0  0  0  0  0  0  0
   34.3580   29.5980   34.0450 C   0  0  0  0  0  0  0  0  0  0  0  0
   40.2657   22.2230   36.9118 H   0  0  0  0  0  0  0  0  0  0  0  0
   37.1297   24.8059   38.2532 H   0  0  0  0  0  0  0  0  0  0  0  0
   38.0728   22.8446   39.7060 H   0  0  0  0  0  0  0  0  0  0  0  0
   39.3821   21.8482   39.0162 H   0  0  0  0  0  0  0  0  0  0  0  0
   39.2406   27.1790   35.4467 H   0  0  0  0  0  0  0  0  0  0  0  0
   40.1759   27.2403   33.9143 H   0  0  0  0  0  0  0  0  0  0  0  0
   38.4246   27.6401   33.9143 H   0  0  0  0  0  0  0  0  0  0  0  0
   40.7682   24.5321   33.7977 H   0  0  0  0  0  0  0  0  0  0  0  0
   39.5284   24.1780   32.5471 H   0  0  0  0  0  0  0  0  0  0  0  0
   40.3776   25.7609   32.5471 H   0  0  0  0  0  0  0  0  0  0  0  0
   37.6132   24.4649   32.8143 H   0  0  0  0  0  0  0  0  0  0  0  0
   36.8098   25.3540   34.2210 H   0  0  0  0  0  0  0  0  0  0  0  0
   36.4743   27.5043   34.2748 H   0  0  0  0  0  0  0  0  0  0  0  0
   35.9493   29.8246   29.3926 H   0  0  0  0  0  0  0  0  0  0  0  0
   35.4426   30.5410   30.9458 H   0  0  0  0  0  0  0  0  0  0  0  0
   35.7378   30.4351   32.2932 H   0  0  0  0  0  0  0  0  0  0  0  0
   36.2647   29.1730   35.1949 H   0  0  0  0  0  0  0  0  0  0  0  0
   36.0914   30.7136   35.3023 H   0  0  0  0  0  0  0  0  0  0  0  0
   33.5492   30.3434   34.0601 H   0  0  0  0  0  0  0  0  0  0  0  0
   33.6196   28.7964   34.1937 H   0  0  0  0  0  0  0  0  0  0  0  0
  1  9  1  0
  1  6  1  0
  2  3  2  0
  3  8  1  0
  4  3  1  0
  5  4  2  0
  6  7  2  0
  6  5  1  0
  7  2  1  0
 10  1  1  0
 11  1  1  0
 12 13  1  0
 12 11  1  0
 14 20  1  0
 14 13  2  0
 15 14  1  0
 16 15  1  0
 17 15  2  0
 17 18  1  0
 18 12  1  0
 19 18  2  0
 20 22  1  0
 20 21  1  0
 22 21  1  0
  2 23  1  0
  4 24  1  0
  8 25  1  0
  8 26  1  0
  9 27  1  0
  9 28  1  0
  9 29  1  0
 10 30  1  0
 10 31  1  0
 10 32  1  0
 11 33  1  0
 11 34  1  0
 13 35  1  0
 16 36  1  0
 16 37  1  0
 20 38  1  0
 21 39  1  0
 21 40  1  0
 22 41  1  0
 22 42  1  0
M  ISO  8  23  14  24  14  27   8  28   8  29   8  30   8  31   8  32   8
M  ISO  8  33   8  34   8  35  14  38  13  39  13  40  13  41  13  42  13
M  END
>  <minimizedAffinity>  (1) 
-5.53125858

>  <minimizedRMSD>  (1) 
0.402978182

$$$$
