
     RDKit          3D

 52 55  0  0  1  0  0  0  0  0999 V2000
   37.2330   26.0290   34.1370 C   0  0  0  0  0  0  0  0  0  0  0  0
   36.8570   27.2700   33.5580 N   0  0  0  0  0  0  0  0  0  0  0  0
   36.2650   28.1530   34.4040 C   0  0  0  0  0  0  0  0  0  0  0  0
   35.8440   29.4050   33.9850 C   0  0  0  0  0  0  0  0  0  0  0  0
   36.0440   29.7390   32.6660 C   0  0  0  0  0  0  0  0  0  0  0  0
   35.6030   31.0270   32.2700 N   0  0  0  0  0  0  0  0  0  0  0  0
   36.6310   28.8630   31.8310 N   0  0  0  0  0  0  0  0  0  0  0  0
   37.0160   27.6680   32.2970 C   0  0  0  0  0  0  0  0  0  0  0  0
   37.5610   26.8430   31.5360 O   0  0  0  0  0  0  0  0  0  0  0  0
   35.2070   30.3160   34.9510 C   0  0  0  0  0  0  0  0  0  0  0  0
   35.9450   31.2070   35.6830 C   0  0  0  0  0  0  0  0  0  0  0  0
   35.3350   32.0570   36.5870 C   0  0  0  0  0  0  0  0  0  0  0  0
   33.9760   31.9600   36.7070 C   0  0  0  0  0  0  0  0  0  0  0  0
   33.1940   31.0850   35.9980 C   0  0  0  0  0  0  0  0  0  0  0  0
   33.8210   30.2350   35.0900 C   0  0  0  0  0  0  0  0  0  0  0  0
   38.5880   25.9320   34.7270 C   0  0  2  0  0  0  0  0  0  0  0  0
   38.8660   23.0000   36.9500 C   0  0  0  0  0  0  0  0  0  0  0  0
   38.3640   23.4470   38.1630 C   0  0  0  0  0  0  0  0  0  0  0  0
   37.9430   24.7490   38.1820 C   0  0  0  0  0  0  0  0  0  0  0  0
   38.0250   25.5230   37.0710 N   0  0  0  0  0  0  0  0  0  0  0  0
   38.5230   25.0450   35.9010 C   0  0  0  0  0  0  0  0  0  0  0  0
   38.9520   23.7520   35.8500 N   0  0  0  0  0  0  0  0  0  0  0  0
   38.3320   22.5440   39.2460 N   0  0  0  0  0  0  0  0  0  0  0  0
   39.0830   27.2950   35.1480 C   0  0  0  0  0  0  0  0  0  0  0  0
   39.5510   25.3410   33.6990 C   0  0  0  0  0  0  0  0  0  0  0  0
   40.8290   26.1160   33.6710 C   0  0  0  0  0  0  0  0  0  0  0  0
   40.9380   26.9900   32.5820 C   0  0  0  0  0  0  0  0  0  0  0  0
   42.1570   27.6270   32.6920 C   0  0  0  0  0  0  0  0  0  0  0  0
   42.7180   27.1060   33.8380 C   0  0  0  0  0  0  0  0  0  0  0  0
   41.9200   26.2260   34.3900 O   0  0  0  0  0  0  0  0  0  0  0  0
   37.1605   25.2632   33.3507 H   0  0  0  0  0  0  0  0  0  0  0  0
   36.5473   25.8973   34.9870 H   0  0  0  0  0  0  0  0  0  0  0  0
   36.1151   27.8649   35.4550 H   0  0  0  0  0  0  0  0  0  0  0  0
   35.7247   31.3358   31.2950 H   0  0  0  0  0  0  0  0  0  0  0  0
   35.1609   31.6539   32.9574 H   0  0  0  0  0  0  0  0  0  0  0  0
   37.0362   31.2471   35.5504 H   0  0  0  0  0  0  0  0  0  0  0  0
   35.9155   32.7775   37.1818 H   0  0  0  0  0  0  0  0  0  0  0  0
   33.4759   32.6302   37.4216 H   0  0  0  0  0  0  0  0  0  0  0  0
   32.1039   31.0552   36.1420 H   0  0  0  0  0  0  0  0  0  0  0  0
   33.2370   29.5164   34.4962 H   0  0  0  0  0  0  0  0  0  0  0  0
   39.2159   21.9588   36.8902 H   0  0  0  0  0  0  0  0  0  0  0  0
   37.5328   25.1734   39.1102 H   0  0  0  0  0  0  0  0  0  0  0  0
   37.9646   22.8477   40.1591 H   0  0  0  0  0  0  0  0  0  0  0  0
   38.6760   21.5809   39.1238 H   0  0  0  0  0  0  0  0  0  0  0  0
   39.1045   27.3542   36.2462 H   0  0  0  0  0  0  0  0  0  0  0  0
   40.0968   27.4553   34.7522 H   0  0  0  0  0  0  0  0  0  0  0  0
   38.4084   28.0685   34.7522 H   0  0  0  0  0  0  0  0  0  0  0  0
   39.7675   24.2958   33.9650 H   0  0  0  0  0  0  0  0  0  0  0  0
   39.0835   25.3907   32.7045 H   0  0  0  0  0  0  0  0  0  0  0  0
   40.1918   27.1404   31.7880 H   0  0  0  0  0  0  0  0  0  0  0  0
   42.5853   28.3819   32.0162 H   0  0  0  0  0  0  0  0  0  0  0  0
   43.7033   27.3908   34.2356 H   0  0  0  0  0  0  0  0  0  0  0  0
 16  1  1  6
  2  1  1  0
  2  3  1  0
  4  3  2  0
  4 10  1  0
  5  4  1  0
  6  5  1  0
  7  8  1  0
  7  5  2  0
  8  2  1  0
  9  8  2  0
 10 15  1  0
 10 11  2  0
 11 12  1  0
 12 13  2  0
 14 13  1  0
 15 14  2  0
 16 25  1  0
 16 24  1  0
 16 21  1  0
 17 18  2  0
 18 19  1  0
 18 23  1  0
 20 19  2  0
 21 20  1  0
 22 21  2  0
 22 17  1  0
 26 25  1  0
 26 30  1  0
 27 28  1  0
 27 26  2  0
 28 29  2  0
 29 30  1  0
  1 31  1  0
  1 32  1  0
  3 33  1  0
  6 34  1  0
  6 35  1  0
 11 36  1  0
 12 37  1  0
 13 38  1  0
 14 39  1  0
 15 40  1  0
 17 41  1  0
 19 42  1  0
 23 43  1  0
 23 44  1  0
 24 45  1  0
 24 46  1  0
 24 47  1  0
 25 48  1  0
 25 49  1  0
 27 50  1  0
 28 51  1  0
 29 52  1  0
M  ISO  8  31   8  32   8  33  14  36  14  37  14  38  14  39  14  40  14
M  ISO  8  41  14  42  14  45   8  46   8  47   8  48   8  49   8  50  14
M  ISO  2  51  14  52  14
M  END
>  <minimizedAffinity>  (1) 
-6.66293287

>  <minimizedRMSD>  (1) 
1.05203819

$$$$
