
     RDKit          3D

 50 54  0  0  1  0  0  0  0  0999 V2000
   37.8480   23.5370   33.3890 C   0  0  0  0  0  0  0  0  0  0  0  0
   36.9940   22.7050   32.6900 C   0  0  0  0  0  0  0  0  0  0  0  0
   36.8180   21.6210   33.5100 N   0  0  0  0  0  0  0  0  0  0  0  0
   37.5470   21.8470   34.6160 C   0  0  0  0  0  0  0  0  0  0  0  0
   38.1950   23.0130   34.5800 N   0  0  0  0  0  0  0  0  0  0  0  0
   39.0540   23.5950   35.5520 C   0  0  1  0  0  0  0  0  0  0  0  0
   38.4740   24.8020   36.1910 C   0  0  0  0  0  0  0  0  0  0  0  0
   37.6550   24.2260   37.3280 C   0  0  0  0  0  0  0  0  0  0  0  0
   38.5290   23.1590   37.8680 C   0  0  0  0  0  0  0  0  0  0  0  0
   39.3390   22.6680   36.7090 C   0  0  2  0  0  0  0  0  0  0  0  0
   40.8290   22.7420   37.0020 C   0  0  0  0  0  0  0  0  0  0  0  0
   41.6410   21.7880   36.1270 C   0  0  0  0  0  0  0  0  0  0  0  0
   41.5720   21.6320   37.6140 C   0  0  0  0  0  0  0  0  0  0  0  0
   38.3310   24.8250   32.9170 C   0  0  0  0  0  0  0  0  0  0  0  0
   39.6940   24.9830   32.5940 C   0  0  0  0  0  0  0  0  0  0  0  0
   40.0950   26.2730   32.1590 C   0  0  0  0  0  0  0  0  0  0  0  0
   39.1720   27.2560   32.0800 N   0  0  0  0  0  0  0  0  0  0  0  0
   37.8920   27.0540   32.3980 C   0  0  0  0  0  0  0  0  0  0  0  0
   37.4460   25.8500   32.8170 N   0  0  0  0  0  0  0  0  0  0  0  0
   34.9620   30.1710   32.2600 C   0  0  0  0  0  0  0  0  0  0  0  0
   35.2390   29.5040   33.4250 C   0  0  0  0  0  0  0  0  0  0  0  0
   36.1830   28.5030   33.4570 C   0  0  0  0  0  0  0  0  0  0  0  0
   36.8920   28.1310   32.3100 C   0  0  0  0  0  0  0  0  0  0  0  0
   36.6150   28.7990   31.1440 C   0  0  0  0  0  0  0  0  0  0  0  0
   35.6640   29.8000   31.1350 C   0  0  0  0  0  0  0  0  0  0  0  0
   33.7660   31.4490   32.1860 S   0  0  0  0  0  0  0  0  0  0  0  0
   33.9940   32.2520   30.9560 O   0  0  0  0  0  0  0  0  0  0  0  0
   32.4160   30.7850   32.0400 O   0  0  0  0  0  0  0  0  0  0  0  0
   36.5535   22.8750   31.6965 H   0  0  0  0  0  0  0  0  0  0  0  0
   37.6036   21.1454   35.4613 H   0  0  0  0  0  0  0  0  0  0  0  0
   39.9603   23.8309   34.9750 H   0  0  0  0  0  0  0  0  0  0  0  0
   39.2641   25.4668   36.5702 H   0  0  0  0  0  0  0  0  0  0  0  0
   37.8809   25.4167   35.4978 H   0  0  0  0  0  0  0  0  0  0  0  0
   37.4478   24.9903   38.0915 H   0  0  0  0  0  0  0  0  0  0  0  0
   36.6706   23.8555   37.0060 H   0  0  0  0  0  0  0  0  0  0  0  0
   39.1872   23.5631   38.6512 H   0  0  0  0  0  0  0  0  0  0  0  0
   37.9423   22.3478   38.3238 H   0  0  0  0  0  0  0  0  0  0  0  0
   39.0748   21.6215   36.4970 H   0  0  0  0  0  0  0  0  0  0  0  0
   40.7864   23.8098   37.2627 H   0  0  0  0  0  0  0  0  0  0  0  0
   41.1315   21.0686   35.4691 H   0  0  0  0  0  0  0  0  0  0  0  0
   42.4429   21.8912   35.3811 H   0  0  0  0  0  0  0  0  0  0  0  0
   42.4615   21.8440   38.2254 H   0  0  0  0  0  0  0  0  0  0  0  0
   41.2977   20.8049   38.2853 H   0  0  0  0  0  0  0  0  0  0  0  0
   40.4087   24.1508   32.6748 H   0  0  0  0  0  0  0  0  0  0  0  0
   41.1433   26.4697   31.8898 H   0  0  0  0  0  0  0  0  0  0  0  0
   34.7001   29.7721   34.3457 H   0  0  0  0  0  0  0  0  0  0  0  0
   36.3844   27.9839   34.4057 H   0  0  0  0  0  0  0  0  0  0  0  0
   37.1492   28.5377   30.2186 H   0  0  0  0  0  0  0  0  0  0  0  0
   35.4585   30.3231   30.1894 H   0  0  0  0  0  0  0  0  0  0  0  0
   33.8381   32.2431   33.3000 H   0  0  0  0  0  0  0  0  0  0  0  0
  1  5  1  0
  2  1  2  0
  2  3  1  0
  3  4  2  0
  5  4  1  0
  5  6  1  0
  6  7  1  0
  6 10  1  0
  7  8  1  0
  8  9  1  0
 10 11  1  0
 10  9  1  0
 11 13  1  0
 12 11  1  0
 12 13  1  0
 14  1  1  0
 15 14  2  0
 16 15  1  0
 17 16  2  0
 17 18  1  0
 18 19  2  0
 19 14  1  0
 20 21  2  0
 21 22  1  0
 23 18  1  0
 23 22  2  0
 24 23  1  0
 25 24  2  0
 25 20  1  0
 26 20  1  0
 27 26  2  0
 28 26  2  0
  2 29  1  0
  4 30  1  0
  6 31  1  6
  7 32  1  0
  7 33  1  0
  8 34  1  0
  8 35  1  0
  9 36  1  0
  9 37  1  0
 10 38  1  6
 11 39  1  0
 12 40  1  0
 12 41  1  0
 13 42  1  0
 13 43  1  0
 15 44  1  0
 16 45  1  0
 21 46  1  0
 22 47  1  0
 24 48  1  0
 25 49  1  0
 26 50  1  0
M  ISO  8  29  14  30  14  31  13  32  13  33  13  34  13  35  13  36  13
M  ISO  8  37  13  38  13  39  13  40  13  41  13  42  13  43  13  44  14
M  ISO  6  45  14  46  14  47  14  48  14  49  14  50  11
M  END
>  <minimizedAffinity>  (1) 
-5.88658285

>  <minimizedRMSD>  (1) 
0.873172939

$$$$
