
     RDKit          3D

 60 63  0  0  1  0  0  0  0  0999 V2000
   38.5800   26.2550   35.1090 C   0  0  2  0  0  0  0  0  0  0  0  0
   38.7210   23.0780   37.0000 C   0  0  0  0  0  0  0  0  0  0  0  0
   38.2790   23.4040   38.2570 C   0  0  0  0  0  0  0  0  0  0  0  0
   37.9330   24.7280   38.4390 C   0  0  0  0  0  0  0  0  0  0  0  0
   38.0440   25.6050   37.4110 N   0  0  0  0  0  0  0  0  0  0  0  0
   38.4840   25.2450   36.1870 C   0  0  0  0  0  0  0  0  0  0  0  0
   38.8350   23.9330   35.9790 N   0  0  0  0  0  0  0  0  0  0  0  0
   38.2150   22.3840   39.2290 N   0  0  0  0  0  0  0  0  0  0  0  0
   38.7390   27.6090   35.6780 C   0  0  0  0  0  0  0  0  0  0  0  0
   37.3340   26.1190   34.2780 C   0  0  0  0  0  0  0  0  0  0  0  0
   36.8670   27.3250   33.6630 N   0  0  0  0  0  0  0  0  0  0  0  0
   36.2630   28.2060   34.4830 C   0  0  0  0  0  0  0  0  0  0  0  0
   35.7590   29.4190   34.0390 C   0  0  0  0  0  0  0  0  0  0  0  0
   35.8960   29.7100   32.6850 C   0  0  0  0  0  0  0  0  0  0  0  0
   35.3650   30.9520   32.2700 N   0  0  0  0  0  0  0  0  0  0  0  0
   36.4910   28.8360   31.8830 N   0  0  0  0  0  0  0  0  0  0  0  0
   36.9590   27.6800   32.3740 C   0  0  0  0  0  0  0  0  0  0  0  0
   37.5210   26.8510   31.6170 O   0  0  0  0  0  0  0  0  0  0  0  0
   35.1170   30.3370   34.9870 C   0  0  0  0  0  0  0  0  0  0  0  0
   35.8690   31.2570   35.7080 C   0  0  0  0  0  0  0  0  0  0  0  0
   35.2390   32.1090   36.5960 C   0  0  0  0  0  0  0  0  0  0  0  0
   33.8800   32.0020   36.7210 C   0  0  0  0  0  0  0  0  0  0  0  0
   33.1100   31.1090   36.0250 C   0  0  0  0  0  0  0  0  0  0  0  0
   33.7490   30.2520   35.1330 C   0  0  0  0  0  0  0  0  0  0  0  0
   39.7570   25.8750   34.1940 C   0  0  0  0  0  0  0  0  0  0  0  0
   40.9880   26.5790   34.5670 N   0  0  0  0  0  0  0  0  0  0  0  0
   42.0180   25.5700   34.8740 C   0  0  0  0  0  0  0  0  0  0  0  0
   42.4610   24.8220   33.6490 C   0  0  0  0  0  0  0  0  0  0  0  0
   43.5130   25.7320   32.9960 C   0  0  0  0  0  0  0  0  0  0  0  0
   43.0550   27.1380   33.3120 C   0  0  0  0  0  0  0  0  0  0  0  0
   41.5430   27.2750   33.4100 C   0  0  0  0  0  0  0  0  0  0  0  0
   39.0038   22.0307   36.8180 H   0  0  0  0  0  0  0  0  0  0  0  0
   37.5673   25.0714   39.4179 H   0  0  0  0  0  0  0  0  0  0  0  0
   37.8870   22.5999   40.1812 H   0  0  0  0  0  0  0  0  0  0  0  0
   38.4963   21.4233   38.9866 H   0  0  0  0  0  0  0  0  0  0  0  0
   38.7319   27.5483   36.7763 H   0  0  0  0  0  0  0  0  0  0  0  0
   39.6938   28.0387   35.3407 H   0  0  0  0  0  0  0  0  0  0  0  0
   37.9097   28.2482   35.3407 H   0  0  0  0  0  0  0  0  0  0  0  0
   37.5367   25.3888   33.4807 H   0  0  0  0  0  0  0  0  0  0  0  0
   36.5403   25.8084   34.9734 H   0  0  0  0  0  0  0  0  0  0  0  0
   36.1654   27.9529   35.5490 H   0  0  0  0  0  0  0  0  0  0  0  0
   35.4297   31.2354   31.2819 H   0  0  0  0  0  0  0  0  0  0  0  0
   34.9133   31.5739   32.9556 H   0  0  0  0  0  0  0  0  0  0  0  0
   36.9595   31.3070   35.5728 H   0  0  0  0  0  0  0  0  0  0  0  0
   35.8090   32.8460   37.1808 H   0  0  0  0  0  0  0  0  0  0  0  0
   33.3737   32.6773   37.4264 H   0  0  0  0  0  0  0  0  0  0  0  0
   32.0198   31.0699   36.1663 H   0  0  0  0  0  0  0  0  0  0  0  0
   33.1705   29.5177   34.5532 H   0  0  0  0  0  0  0  0  0  0  0  0
   39.9303   24.7913   34.2688 H   0  0  0  0  0  0  0  0  0  0  0  0
   39.4967   26.1645   33.1652 H   0  0  0  0  0  0  0  0  0  0  0  0
   42.8896   26.0760   35.3148 H   0  0  0  0  0  0  0  0  0  0  0  0
   41.5811   24.8431   35.5745 H   0  0  0  0  0  0  0  0  0  0  0  0
   42.9033   23.8533   33.9247 H   0  0  0  0  0  0  0  0  0  0  0  0
   41.6237   24.6004   32.9710 H   0  0  0  0  0  0  0  0  0  0  0  0
   43.5447   25.5697   31.9085 H   0  0  0  0  0  0  0  0  0  0  0  0
   44.5273   25.5309   33.3713 H   0  0  0  0  0  0  0  0  0  0  0  0
   43.4952   27.4399   34.2738 H   0  0  0  0  0  0  0  0  0  0  0  0
   43.3855   27.7805   32.4826 H   0  0  0  0  0  0  0  0  0  0  0  0
   41.2907   28.3429   33.4874 H   0  0  0  0  0  0  0  0  0  0  0  0
   41.1089   26.8187   32.5081 H   0  0  0  0  0  0  0  0  0  0  0  0
  1 25  1  6
  1  9  1  0
  1  6  1  0
  2  3  2  0
  3  4  1  0
  3  8  1  0
  5  4  2  0
  6  5  1  0
  7  6  2  0
  7  2  1  0
 10  1  1  0
 11 10  1  0
 11 12  1  0
 13 12  2  0
 13 19  1  0
 14 13  1  0
 15 14  1  0
 16 17  1  0
 16 14  2  0
 17 11  1  0
 18 17  2  0
 19 24  1  0
 19 20  2  0
 20 21  1  0
 21 22  2  0
 23 22  1  0
 24 23  2  0
 25 26  1  0
 26 27  1  0
 28 27  1  0
 29 30  1  0
 29 28  1  0
 30 31  1  0
 31 26  1  0
  2 32  1  0
  4 33  1  0
  8 34  1  0
  8 35  1  0
  9 36  1  0
  9 37  1  0
  9 38  1  0
 10 39  1  0
 10 40  1  0
 12 41  1  0
 15 42  1  0
 15 43  1  0
 20 44  1  0
 21 45  1  0
 22 46  1  0
 23 47  1  0
 24 48  1  0
 25 49  1  0
 25 50  1  0
 27 51  1  0
 27 52  1  0
 28 53  1  0
 28 54  1  0
 29 55  1  0
 29 56  1  0
 30 57  1  0
 30 58  1  0
 31 59  1  0
 31 60  1  0
M  ISO  8  32  14  33  14  36   8  37   8  38   8  39   8  40   8  41  14
M  ISO  8  44  14  45  14  46  14  47  14  48  14  49   8  50   8  51  13
M  ISO  8  52  13  53  13  54  13  55  13  56  13  57  13  58  13  59  13
M  ISO  1  60  13
M  END
>  <minimizedAffinity>  (1) 
-6.67013407

>  <minimizedRMSD>  (1) 
0.9886204

$$$$
