
     RDKit          3D

 52 55  0  0  1  0  0  0  0  0999 V2000
   37.5640   25.8100   33.9640 C   0  0  0  0  0  0  0  0  0  0  0  0
   37.1400   27.0460   33.3700 N   0  0  0  0  0  0  0  0  0  0  0  0
   36.4770   27.8900   34.1950 C   0  0  0  0  0  0  0  0  0  0  0  0
   36.0060   29.1200   33.7700 C   0  0  0  0  0  0  0  0  0  0  0  0
   36.2340   29.4770   32.4530 C   0  0  0  0  0  0  0  0  0  0  0  0
   35.7400   30.7410   32.0440 N   0  0  0  0  0  0  0  0  0  0  0  0
   36.8950   28.6300   31.6410 N   0  0  0  0  0  0  0  0  0  0  0  0
   37.3250   27.4560   32.1120 C   0  0  0  0  0  0  0  0  0  0  0  0
   37.9350   26.6690   31.3660 O   0  0  0  0  0  0  0  0  0  0  0  0
   35.2920   29.9970   34.7070 C   0  0  0  0  0  0  0  0  0  0  0  0
   35.9610   30.9180   35.4770 C   0  0  0  0  0  0  0  0  0  0  0  0
   35.2970   31.7450   36.3610 C   0  0  0  0  0  0  0  0  0  0  0  0
   33.9490   31.5970   36.4270 C   0  0  0  0  0  0  0  0  0  0  0  0
   33.2330   30.6980   35.6850 C   0  0  0  0  0  0  0  0  0  0  0  0
   33.9200   29.8710   34.7980 C   0  0  0  0  0  0  0  0  0  0  0  0
   38.8750   25.8520   34.7000 C   0  0  2  0  0  0  0  0  0  0  0  0
   39.0830   22.9920   37.0280 C   0  0  0  0  0  0  0  0  0  0  0  0
   38.4100   23.4280   38.1550 C   0  0  0  0  0  0  0  0  0  0  0  0
   37.8920   24.7010   38.0950 C   0  0  0  0  0  0  0  0  0  0  0  0
   38.0560   25.4510   36.9740 N   0  0  0  0  0  0  0  0  0  0  0  0
   38.7230   24.9890   35.8890 C   0  0  0  0  0  0  0  0  0  0  0  0
   39.2380   23.7310   35.9370 N   0  0  0  0  0  0  0  0  0  0  0  0
   38.3200   22.5450   39.2550 N   0  0  0  0  0  0  0  0  0  0  0  0
   39.2370   27.2470   35.1040 C   0  0  0  0  0  0  0  0  0  0  0  0
   39.9640   25.2960   33.7820 C   0  0  0  0  0  0  0  0  0  0  0  0
   41.1920   26.0360   33.7980 N   0  0  0  0  0  0  0  0  0  0  0  0
   41.9270   27.0990   33.4500 C   0  0  0  0  0  0  0  0  0  0  0  0
   43.2210   27.0700   33.8610 C   0  0  0  0  0  0  0  0  0  0  0  0
   43.3490   25.9010   34.5300 N   0  0  0  0  0  0  0  0  0  0  0  0
   42.1310   25.2970   34.4840 C   0  0  0  0  0  0  0  0  0  0  0  0
   37.6515   25.0627   33.1616 H   0  0  0  0  0  0  0  0  0  0  0  0
   36.8043   25.5671   34.7216 H   0  0  0  0  0  0  0  0  0  0  0  0
   36.3068   27.5879   35.2389 H   0  0  0  0  0  0  0  0  0  0  0  0
   35.8804   31.0597   31.0747 H   0  0  0  0  0  0  0  0  0  0  0  0
   35.2406   31.3408   32.7161 H   0  0  0  0  0  0  0  0  0  0  0  0
   37.0543   30.9984   35.3866 H   0  0  0  0  0  0  0  0  0  0  0  0
   35.8307   32.4831   36.9778 H   0  0  0  0  0  0  0  0  0  0  0  0
   33.3954   32.2434   37.1239 H   0  0  0  0  0  0  0  0  0  0  0  0
   32.1398   30.6294   35.7861 H   0  0  0  0  0  0  0  0  0  0  0  0
   33.3811   29.1343   34.1841 H   0  0  0  0  0  0  0  0  0  0  0  0
   39.5123   21.9793   37.0367 H   0  0  0  0  0  0  0  0  0  0  0  0
   37.3443   25.1123   38.9557 H   0  0  0  0  0  0  0  0  0  0  0  0
   37.8261   22.8367   40.1105 H   0  0  0  0  0  0  0  0  0  0  0  0
   38.7483   21.6098   39.2011 H   0  0  0  0  0  0  0  0  0  0  0  0
   39.2554   27.3178   36.2016 H   0  0  0  0  0  0  0  0  0  0  0  0
   40.2302   27.4986   34.7037 H   0  0  0  0  0  0  0  0  0  0  0  0
   38.4915   27.9498   34.7037 H   0  0  0  0  0  0  0  0  0  0  0  0
   40.1813   24.2636   34.0933 H   0  0  0  0  0  0  0  0  0  0  0  0
   39.5722   25.3635   32.7564 H   0  0  0  0  0  0  0  0  0  0  0  0
   41.5120   27.9375   32.8715 H   0  0  0  0  0  0  0  0  0  0  0  0
   43.9961   27.8310   33.6878 H   0  0  0  0  0  0  0  0  0  0  0  0
   41.9182   24.3215   34.9457 H   0  0  0  0  0  0  0  0  0  0  0  0
 16  1  1  6
  2  1  1  0
  2  3  1  0
  4  3  2  0
  4 10  1  0
  5  4  1  0
  6  5  1  0
  7  8  1  0
  7  5  2  0
  8  2  1  0
  9  8  2  0
 10 15  1  0
 10 11  2  0
 11 12  1  0
 12 13  2  0
 14 13  1  0
 15 14  2  0
 16 25  1  0
 16 24  1  0
 16 21  1  0
 17 18  2  0
 18 23  1  0
 19 18  1  0
 20 19  2  0
 21 22  2  0
 21 20  1  0
 22 17  1  0
 25 26  1  0
 26 30  1  0
 27 26  1  0
 27 28  2  0
 28 29  1  0
 30 29  2  0
  1 31  1  0
  1 32  1  0
  3 33  1  0
  6 34  1  0
  6 35  1  0
 11 36  1  0
 12 37  1  0
 13 38  1  0
 14 39  1  0
 15 40  1  0
 17 41  1  0
 19 42  1  0
 23 43  1  0
 23 44  1  0
 24 45  1  0
 24 46  1  0
 24 47  1  0
 25 48  1  0
 25 49  1  0
 27 50  1  0
 28 51  1  0
 30 52  1  0
M  ISO  8  31   8  32   8  33  14  36  14  37  14  38  14  39  14  40  14
M  ISO  8  41  14  42  14  45   8  46   8  47   8  48   8  49   8  50  14
M  ISO  2  51  14  52  14
M  END
>  <minimizedAffinity>  (1) 
-6.56888914

>  <minimizedRMSD>  (1) 
0.7940979

$$$$
