
     RDKit          3D

 59 62  0  0  1  0  0  0  0  0999 V2000
   38.6150   26.2070   35.0330 C   0  0  2  0  0  0  0  0  0  0  0  0
   38.7520   23.0660   36.9900 C   0  0  0  0  0  0  0  0  0  0  0  0
   38.2970   23.4200   38.2340 C   0  0  0  0  0  0  0  0  0  0  0  0
   37.9460   24.7340   38.3870 C   0  0  0  0  0  0  0  0  0  0  0  0
   38.0570   25.5970   37.3520 N   0  0  0  0  0  0  0  0  0  0  0  0
   38.5100   25.2160   36.1340 C   0  0  0  0  0  0  0  0  0  0  0  0
   38.8690   23.9050   35.9480 N   0  0  0  0  0  0  0  0  0  0  0  0
   38.2360   22.4160   39.2270 N   0  0  0  0  0  0  0  0  0  0  0  0
   38.8140   27.5650   35.5770 C   0  0  0  0  0  0  0  0  0  0  0  0
   37.3280   26.1060   34.2500 C   0  0  0  0  0  0  0  0  0  0  0  0
   36.8580   27.3140   33.6460 N   0  0  0  0  0  0  0  0  0  0  0  0
   36.2620   28.1830   34.4710 C   0  0  0  0  0  0  0  0  0  0  0  0
   35.7720   29.4120   34.0270 C   0  0  0  0  0  0  0  0  0  0  0  0
   35.9190   29.7180   32.6880 C   0  0  0  0  0  0  0  0  0  0  0  0
   35.4140   30.9720   32.2580 N   0  0  0  0  0  0  0  0  0  0  0  0
   36.5190   28.8370   31.8640 N   0  0  0  0  0  0  0  0  0  0  0  0
   36.9660   27.6770   32.3510 C   0  0  0  0  0  0  0  0  0  0  0  0
   37.5160   26.8500   31.6010 O   0  0  0  0  0  0  0  0  0  0  0  0
   35.1320   30.3330   34.9830 C   0  0  0  0  0  0  0  0  0  0  0  0
   35.8650   31.2390   35.7050 C   0  0  0  0  0  0  0  0  0  0  0  0
   35.2480   32.0940   36.5980 C   0  0  0  0  0  0  0  0  0  0  0  0
   33.8980   31.9930   36.7250 C   0  0  0  0  0  0  0  0  0  0  0  0
   33.1240   31.0980   36.0210 C   0  0  0  0  0  0  0  0  0  0  0  0
   33.7550   30.2440   35.1250 C   0  0  0  0  0  0  0  0  0  0  0  0
   39.7420   25.7830   34.0990 C   0  0  0  0  0  0  0  0  0  0  0  0
   40.9870   26.3910   34.2380 N   0  0  0  0  0  0  0  0  0  0  0  0
   41.5620   27.3090   33.3900 C   0  0  0  0  0  0  0  0  0  0  0  0
   42.5880   26.7440   32.4270 C   0  0  0  0  0  0  0  0  0  0  0  0
   43.0910   25.4760   32.7330 N   0  0  0  0  0  0  0  0  0  0  0  0
   42.5870   24.7220   33.8090 C   0  0  0  0  0  0  0  0  0  0  0  0
   42.0100   25.6100   34.8850 C   0  0  0  0  0  0  0  0  0  0  0  0
   39.0428   22.0167   36.8339 H   0  0  0  0  0  0  0  0  0  0  0  0
   37.5713   25.0902   39.3579 H   0  0  0  0  0  0  0  0  0  0  0  0
   37.8991   22.6467   40.1726 H   0  0  0  0  0  0  0  0  0  0  0  0
   38.5284   21.4536   39.0050 H   0  0  0  0  0  0  0  0  0  0  0  0
   38.8080   27.5242   36.6762 H   0  0  0  0  0  0  0  0  0  0  0  0
   39.7798   27.9611   35.2300 H   0  0  0  0  0  0  0  0  0  0  0  0
   38.0025   28.2215   35.2300 H   0  0  0  0  0  0  0  0  0  0  0  0
   37.4800   25.3677   33.4489 H   0  0  0  0  0  0  0  0  0  0  0  0
   36.5586   25.8265   34.9847 H   0  0  0  0  0  0  0  0  0  0  0  0
   36.1548   27.9200   35.5337 H   0  0  0  0  0  0  0  0  0  0  0  0
   35.4979   31.2495   31.2696 H   0  0  0  0  0  0  0  0  0  0  0  0
   34.9635   31.6050   32.9342 H   0  0  0  0  0  0  0  0  0  0  0  0
   36.9559   31.2858   35.5720 H   0  0  0  0  0  0  0  0  0  0  0  0
   35.8251   32.8261   37.1820 H   0  0  0  0  0  0  0  0  0  0  0  0
   33.3937   32.6671   37.4330 H   0  0  0  0  0  0  0  0  0  0  0  0
   32.0340   31.0601   36.1643 H   0  0  0  0  0  0  0  0  0  0  0  0
   33.1756   29.5136   34.5412 H   0  0  0  0  0  0  0  0  0  0  0  0
   39.8912   24.7024   34.2405 H   0  0  0  0  0  0  0  0  0  0  0  0
   39.3985   26.0996   33.1031 H   0  0  0  0  0  0  0  0  0  0  0  0
   40.7601   27.7747   32.7983 H   0  0  0  0  0  0  0  0  0  0  0  0
   42.1040   28.0195   34.0314 H   0  0  0  0  0  0  0  0  0  0  0  0
   43.4371   27.4425   32.3938 H   0  0  0  0  0  0  0  0  0  0  0  0
   42.0591   26.6270   31.4696 H   0  0  0  0  0  0  0  0  0  0  0  0
   42.9596   24.9005   31.8889 H   0  0  0  0  0  0  0  0  0  0  0  0
   41.7977   24.0520   33.4372 H   0  0  0  0  0  0  0  0  0  0  0  0
   43.4165   24.1460   34.2451 H   0  0  0  0  0  0  0  0  0  0  0  0
   42.7893   26.2665   35.2994 H   0  0  0  0  0  0  0  0  0  0  0  0
   41.6044   25.0228   35.7221 H   0  0  0  0  0  0  0  0  0  0  0  0
  1 25  1  6
  1  9  1  0
  1  6  1  0
  2  3  2  0
  3  4  1  0
  3  8  1  0
  5  4  2  0
  6  5  1  0
  7  6  2  0
  7  2  1  0
 10  1  1  0
 11 10  1  0
 11 12  1  0
 13 12  2  0
 13 19  1  0
 14 13  1  0
 15 14  1  0
 16 17  1  0
 16 14  2  0
 17 11  1  0
 18 17  2  0
 19 24  1  0
 19 20  2  0
 20 21  1  0
 21 22  2  0
 23 22  1  0
 24 23  2  0
 25 26  1  0
 26 31  1  0
 27 26  1  0
 28 29  1  0
 28 27  1  0
 29 30  1  0
 30 31  1  0
  2 32  1  0
  4 33  1  0
  8 34  1  0
  8 35  1  0
  9 36  1  0
  9 37  1  0
  9 38  1  0
 10 39  1  0
 10 40  1  0
 12 41  1  0
 15 42  1  0
 15 43  1  0
 20 44  1  0
 21 45  1  0
 22 46  1  0
 23 47  1  0
 24 48  1  0
 25 49  1  0
 25 50  1  0
 27 51  1  0
 27 52  1  0
 28 53  1  0
 28 54  1  0
 29 55  1  0
 30 56  1  0
 30 57  1  0
 31 58  1  0
 31 59  1  0
M  ISO  8  32  14  33  14  36   8  37   8  38   8  39   8  40   8  41  14
M  ISO  8  44  14  45  14  46  14  47  14  48  14  49   8  50   8  51  13
M  ISO  8  52  13  53  13  54  13  55   5  56  13  57  13  58  13  59  13
M  END
>  <minimizedAffinity>  (1) 
-6.5481081

>  <minimizedRMSD>  (1) 
1.41798496

$$$$
