
     RDKit          3D

 51 54  0  0  1  0  0  0  0  0999 V2000
   37.2890   25.9950   34.1390 C   0  0  0  0  0  0  0  0  0  0  0  0
   36.9040   27.2370   33.5540 N   0  0  0  0  0  0  0  0  0  0  0  0
   36.3040   28.1200   34.3940 C   0  0  0  0  0  0  0  0  0  0  0  0
   35.8750   29.3660   33.9700 C   0  0  0  0  0  0  0  0  0  0  0  0
   36.0780   29.6960   32.6430 C   0  0  0  0  0  0  0  0  0  0  0  0
   35.6290   30.9790   32.2380 N   0  0  0  0  0  0  0  0  0  0  0  0
   36.6700   28.8220   31.8220 N   0  0  0  0  0  0  0  0  0  0  0  0
   37.0640   27.6300   32.2860 C   0  0  0  0  0  0  0  0  0  0  0  0
   37.6190   26.7980   31.5360 O   0  0  0  0  0  0  0  0  0  0  0  0
   35.2310   30.2760   34.9290 C   0  0  0  0  0  0  0  0  0  0  0  0
   35.9620   31.1710   35.6630 C   0  0  0  0  0  0  0  0  0  0  0  0
   35.3430   32.0200   36.5580 C   0  0  0  0  0  0  0  0  0  0  0  0
   33.9910   31.9240   36.6740 C   0  0  0  0  0  0  0  0  0  0  0  0
   33.2170   31.0470   35.9640 C   0  0  0  0  0  0  0  0  0  0  0  0
   33.8490   30.1930   35.0620 C   0  0  0  0  0  0  0  0  0  0  0  0
   38.6400   25.9280   34.7450 C   0  0  2  0  0  0  0  0  0  0  0  0
   38.8580   22.9830   36.9740 C   0  0  0  0  0  0  0  0  0  0  0  0
   38.3590   23.4330   38.1750 C   0  0  0  0  0  0  0  0  0  0  0  0
   37.9550   24.7460   38.1980 C   0  0  0  0  0  0  0  0  0  0  0  0
   38.0570   25.5170   37.0890 N   0  0  0  0  0  0  0  0  0  0  0  0
   38.5550   25.0360   35.9190 C   0  0  0  0  0  0  0  0  0  0  0  0
   38.9580   23.7390   35.8850 N   0  0  0  0  0  0  0  0  0  0  0  0
   38.2990   22.5410   39.2660 N   0  0  0  0  0  0  0  0  0  0  0  0
   39.1180   27.2930   35.1620 C   0  0  0  0  0  0  0  0  0  0  0  0
   39.6200   25.3350   33.7340 C   0  0  0  0  0  0  0  0  0  0  0  0
   40.9410   25.9400   33.8180 N   0  0  0  0  0  0  0  0  0  0  0  0
   41.9200   25.3110   34.5400 C   0  0  0  0  0  0  0  0  0  0  0  0
   43.0540   26.0450   34.4890 N   0  0  0  0  0  0  0  0  0  0  0  0
   42.8080   27.1250   33.7490 C   0  0  0  0  0  0  0  0  0  0  0  0
   41.5430   27.0240   33.3690 N   0  0  0  0  0  0  0  0  0  0  0  0
   37.2396   25.2279   33.3522 H   0  0  0  0  0  0  0  0  0  0  0  0
   36.5919   25.8449   34.9766 H   0  0  0  0  0  0  0  0  0  0  0  0
   36.1541   27.8355   35.4459 H   0  0  0  0  0  0  0  0  0  0  0  0
   35.7519   31.2831   31.2616 H   0  0  0  0  0  0  0  0  0  0  0  0
   35.1801   31.6066   32.9203 H   0  0  0  0  0  0  0  0  0  0  0  0
   37.0541   31.2140   35.5382 H   0  0  0  0  0  0  0  0  0  0  0  0
   35.9190   32.7442   37.1528 H   0  0  0  0  0  0  0  0  0  0  0  0
   33.4871   32.5952   37.3850 H   0  0  0  0  0  0  0  0  0  0  0  0
   32.1260   31.0168   36.1014 H   0  0  0  0  0  0  0  0  0  0  0  0
   33.2687   29.4705   34.4694 H   0  0  0  0  0  0  0  0  0  0  0  0
   39.1935   21.9373   36.9115 H   0  0  0  0  0  0  0  0  0  0  0  0
   37.5454   25.1746   39.1246 H   0  0  0  0  0  0  0  0  0  0  0  0
   37.9285   22.8603   40.1725 H   0  0  0  0  0  0  0  0  0  0  0  0
   38.6257   21.5704   39.1562 H   0  0  0  0  0  0  0  0  0  0  0  0
   39.1395   27.3543   36.2601 H   0  0  0  0  0  0  0  0  0  0  0  0
   40.1296   27.4643   34.7653 H   0  0  0  0  0  0  0  0  0  0  0  0
   38.4342   28.0579   34.7653 H   0  0  0  0  0  0  0  0  0  0  0  0
   39.7135   24.2557   33.9245 H   0  0  0  0  0  0  0  0  0  0  0  0
   39.2240   25.5350   32.7274 H   0  0  0  0  0  0  0  0  0  0  0  0
   41.8021   24.3583   35.0770 H   0  0  0  0  0  0  0  0  0  0  0  0
   43.5111   27.9346   33.5038 H   0  0  0  0  0  0  0  0  0  0  0  0
 16  1  1  6
  2  1  1  0
  2  3  1  0
  4  3  2  0
  4 10  1  0
  5  4  1  0
  6  5  1  0
  7  8  1  0
  7  5  2  0
  8  2  1  0
  9  8  2  0
 10 15  1  0
 10 11  2  0
 11 12  1  0
 12 13  2  0
 14 13  1  0
 15 14  2  0
 16 25  1  0
 16 24  1  0
 16 21  1  0
 17 18  2  0
 18 19  1  0
 18 23  1  0
 20 19  2  0
 21 20  1  0
 22 21  2  0
 22 17  1  0
 25 26  1  0
 26 27  1  0
 28 27  2  0
 29 28  1  0
 30 29  2  0
 30 26  1  0
  1 31  1  0
  1 32  1  0
  3 33  1  0
  6 34  1  0
  6 35  1  0
 11 36  1  0
 12 37  1  0
 13 38  1  0
 14 39  1  0
 15 40  1  0
 17 41  1  0
 19 42  1  0
 23 43  1  0
 23 44  1  0
 24 45  1  0
 24 46  1  0
 24 47  1  0
 25 48  1  0
 25 49  1  0
 27 50  1  0
 29 51  1  0
M  ISO  8  31   8  32   8  33  14  36  14  37  14  38  14  39  14  40  14
M  ISO  8  41  14  42  14  45   8  46   8  47   8  48   8  49   8  50  14
M  ISO  1  51  14
M  END
>  <minimizedAffinity>  (1) 
-6.5609355

>  <minimizedRMSD>  (1) 
0.824940383

$$$$
