
     RDKit          3D

 46 48  0  0  1  0  0  0  0  0999 V2000
   37.5100   25.8410   33.7560 C   0  0  0  0  0  0  0  0  0  0  0  0
   37.0920   27.0900   33.2080 N   0  0  0  0  0  0  0  0  0  0  0  0
   36.4490   27.9140   34.0720 C   0  0  0  0  0  0  0  0  0  0  0  0
   35.9890   29.1580   33.6770 C   0  0  0  0  0  0  0  0  0  0  0  0
   36.2030   29.5470   32.3630 C   0  0  0  0  0  0  0  0  0  0  0  0
   35.7110   30.8330   32.0070 N   0  0  0  0  0  0  0  0  0  0  0  0
   36.8350   28.7280   31.5330 N   0  0  0  0  0  0  0  0  0  0  0  0
   37.2610   27.5370   31.9570 C   0  0  0  0  0  0  0  0  0  0  0  0
   37.8630   26.7450   31.1820 O   0  0  0  0  0  0  0  0  0  0  0  0
   35.2970   30.0120   34.6550 C   0  0  0  0  0  0  0  0  0  0  0  0
   36.0010   30.9080   35.4360 C   0  0  0  0  0  0  0  0  0  0  0  0
   35.3510   31.7100   36.3550 C   0  0  0  0  0  0  0  0  0  0  0  0
   33.9960   31.5640   36.4420 C   0  0  0  0  0  0  0  0  0  0  0  0
   33.2560   30.6900   35.6890 C   0  0  0  0  0  0  0  0  0  0  0  0
   33.9240   29.8870   34.7670 C   0  0  0  0  0  0  0  0  0  0  0  0
   38.8670   25.7750   34.3430 C   0  0  2  0  0  0  0  0  0  0  0  0
   39.4310   23.0830   36.8010 C   0  0  0  0  0  0  0  0  0  0  0  0
   38.6270   23.4390   37.8710 C   0  0  0  0  0  0  0  0  0  0  0  0
   37.9100   24.5960   37.7170 C   0  0  0  0  0  0  0  0  0  0  0  0
   38.0090   25.3170   36.5820 N   0  0  0  0  0  0  0  0  0  0  0  0
   38.8090   24.9400   35.5470 C   0  0  0  0  0  0  0  0  0  0  0  0
   39.5400   23.7860   35.6670 N   0  0  0  0  0  0  0  0  0  0  0  0
   38.6240   22.5900   38.9980 N   0  0  0  0  0  0  0  0  0  0  0  0
   39.3740   27.1540   34.6820 C   0  0  0  0  0  0  0  0  0  0  0  0
   39.8300   25.1530   33.3210 C   0  0  0  0  0  0  0  0  0  0  0  0
   39.1670   24.2880   32.4670 O   0  0  0  0  0  0  0  0  0  0  0  0
   37.4627   25.0944   32.9495 H   0  0  0  0  0  0  0  0  0  0  0  0
   36.8289   25.6625   34.6011 H   0  0  0  0  0  0  0  0  0  0  0  0
   36.2895   27.5863   35.1099 H   0  0  0  0  0  0  0  0  0  0  0  0
   35.8360   31.1846   31.0470 H   0  0  0  0  0  0  0  0  0  0  0  0
   35.2297   31.4128   32.7092 H   0  0  0  0  0  0  0  0  0  0  0  0
   37.0927   30.9841   35.3251 H   0  0  0  0  0  0  0  0  0  0  0  0
   35.8969   32.4287   36.9838 H   0  0  0  0  0  0  0  0  0  0  0  0
   33.4602   32.1928   37.1683 H   0  0  0  0  0  0  0  0  0  0  0  0
   32.1646   30.6243   35.8093 H   0  0  0  0  0  0  0  0  0  0  0  0
   33.3719   29.1696   34.1421 H   0  0  0  0  0  0  0  0  0  0  0  0
   40.0208   22.1587   36.8890 H   0  0  0  0  0  0  0  0  0  0  0  0
   37.2482   24.9396   38.5257 H   0  0  0  0  0  0  0  0  0  0  0  0
   38.0394   22.8198   39.8143 H   0  0  0  0  0  0  0  0  0  0  0  0
   39.2064   21.7405   39.0044 H   0  0  0  0  0  0  0  0  0  0  0  0
   39.4168   27.2705   35.7750 H   0  0  0  0  0  0  0  0  0  0  0  0
   40.3805   27.2888   34.2592 H   0  0  0  0  0  0  0  0  0  0  0  0
   38.6945   27.9087   34.2592 H   0  0  0  0  0  0  0  0  0  0  0  0
   40.2924   25.9566   32.7291 H   0  0  0  0  0  0  0  0  0  0  0  0
   40.5955   24.5826   33.8675 H   0  0  0  0  0  0  0  0  0  0  0  0
   38.6588   23.6249   32.9982 H   0  0  0  0  0  0  0  0  0  0  0  0
 16  1  1  6
  2  1  1  0
  2  3  1  0
  4  3  2  0
  4 10  1  0
  5  4  1  0
  6  5  1  0
  7  8  1  0
  7  5  2  0
  8  2  1  0
  9  8  2  0
 10 15  1  0
 10 11  2  0
 11 12  1  0
 12 13  2  0
 14 13  1  0
 15 14  2  0
 16 25  1  0
 16 24  1  0
 16 21  1  0
 17 18  2  0
 18 23  1  0
 19 18  1  0
 20 19  2  0
 21 22  2  0
 21 20  1  0
 22 17  1  0
 26 25  1  0
  1 27  1  0
  1 28  1  0
  3 29  1  0
  6 30  1  0
  6 31  1  0
 11 32  1  0
 12 33  1  0
 13 34  1  0
 14 35  1  0
 15 36  1  0
 17 37  1  0
 19 38  1  0
 23 39  1  0
 23 40  1  0
 24 41  1  0
 24 42  1  0
 24 43  1  0
 25 44  1  0
 25 45  1  0
 26 46  1  0
M  ISO  8  27   8  28   8  29  14  32  14  33  14  34  14  35  14  36  14
M  ISO  8  37  14  38  14  41   8  42   8  43   8  44   8  45   8  46   3
M  END
>  <minimizedAffinity>  (1) 
-6.27329302

>  <minimizedRMSD>  (1) 
0.148485795

$$$$
