
     RDKit          3D

 30 33  0  0  0  0  0  0  0  0999 V2000
   38.4180   23.1810   36.1510 C   0  0  0  0  0  0  0  0  0  0  0  0
   39.7430   23.0670   36.5880 C   0  0  0  0  0  0  0  0  0  0  0  0
   40.0150   23.0860   37.9570 C   0  0  0  0  0  0  0  0  0  0  0  0
   38.9670   23.2170   38.8180 N   0  0  0  0  0  0  0  0  0  0  0  0
   37.7060   23.3240   38.3800 C   0  0  0  0  0  0  0  0  0  0  0  0
   37.4370   23.3060   37.0580 N   0  0  0  0  0  0  0  0  0  0  0  0
   38.0660   23.1700   34.7770 N   0  0  0  0  0  0  0  0  0  0  0  0
   37.9950   22.0400   34.0240 C   0  0  0  0  0  0  0  0  0  0  0  0
   37.6320   22.4080   32.7630 N   0  0  0  0  0  0  0  0  0  0  0  0
   37.4800   23.7540   32.7420 C   0  0  0  0  0  0  0  0  0  0  0  0
   37.1180   24.5680   31.6770 C   0  0  0  0  0  0  0  0  0  0  0  0
   36.8750   24.1070   30.5350 O   0  0  0  0  0  0  0  0  0  0  0  0
   37.0390   25.8940   31.9300 N   0  0  0  0  0  0  0  0  0  0  0  0
   37.3120   26.3510   33.1850 C   0  0  0  0  0  0  0  0  0  0  0  0
   37.2160   27.7530   33.4040 N   0  0  0  0  0  0  0  0  0  0  0  0
   37.6660   25.5430   34.2270 N   0  0  0  0  0  0  0  0  0  0  0  0
   37.7550   24.2170   34.0120 C   0  0  0  0  0  0  0  0  0  0  0  0
   40.7300   22.9370   35.5790 N   0  0  0  0  0  0  0  0  0  0  0  0
   41.3380   23.8620   34.7690 C   0  0  0  0  0  0  0  0  0  0  0  0
   42.2240   23.2380   33.9590 N   0  0  0  0  0  0  0  0  0  0  0  0
   42.1550   21.9060   34.2810 C   0  0  0  0  0  0  0  0  0  0  0  0
   41.2370   21.7630   35.2690 N   0  0  0  0  0  0  0  0  0  0  0  0
   41.0460   22.9977   38.3301 H   0  0  0  0  0  0  0  0  0  0  0  0
   36.8836   23.4273   39.1032 H   0  0  0  0  0  0  0  0  0  0  0  0
   38.1944   21.0150   34.3698 H   0  0  0  0  0  0  0  0  0  0  0  0
   36.7754   26.5517   31.1825 H   0  0  0  0  0  0  0  0  0  0  0  0
   37.4133   28.1433   34.3365 H   0  0  0  0  0  0  0  0  0  0  0  0
   36.9491   28.3781   32.6301 H   0  0  0  0  0  0  0  0  0  0  0  0
   41.1365   24.9434   34.7768 H   0  0  0  0  0  0  0  0  0  0  0  0
   42.7406   21.0973   33.8195 H   0  0  0  0  0  0  0  0  0  0  0  0
  1  2  1  0
  1  6  2  0
  2  3  2  0
  3  4  1  0
  5  4  2  0
  6  5  1  0
  7  1  1  0
  8  7  1  0
  9  8  2  0
 10  9  1  0
 10 17  2  0
 11 13  1  0
 11 10  1  0
 12 11  2  0
 13 14  1  0
 14 15  1  0
 14 16  2  0
 17 16  1  0
 17  7  1  0
 18  2  1  0
 19 18  1  0
 20 21  1  0
 20 19  2  0
 21 22  2  0
 22 18  1  0
  3 23  1  0
  5 24  1  0
  8 25  1  0
 13 26  1  0
 15 27  1  0
 15 28  1  0
 19 29  1  0
 21 30  1  0
M  ISO  6  23  14  24  14  25  14  26   9  29  14  30  14
M  END
>  <minimizedAffinity>  (1) 
-4.89951134

>  <minimizedRMSD>  (1) 
4.56270885

$$$$
