
     RDKit          3D

 29 31  0  0  0  0  0  0  0  0999 V2000
   40.5190   24.7470   34.9610 C   0  0  0  0  0  0  0  0  0  0  0  0
   40.4060   26.1180   34.6520 C   0  0  0  0  0  0  0  0  0  0  0  0
   41.5570   26.8480   34.4150 C   0  0  0  0  0  0  0  0  0  0  0  0
   42.7600   26.2100   34.4900 N   0  0  0  0  0  0  0  0  0  0  0  0
   42.8380   24.8860   34.7900 C   0  0  0  0  0  0  0  0  0  0  0  0
   41.7140   24.1650   35.0230 N   0  0  0  0  0  0  0  0  0  0  0  0
   39.0950   26.6330   34.6000 N   0  0  0  0  0  0  0  0  0  0  0  0
   38.3240   27.2850   35.5250 C   0  0  0  0  0  0  0  0  0  0  0  0
   37.1180   27.5750   34.9740 N   0  0  0  0  0  0  0  0  0  0  0  0
   37.1510   27.0930   33.6860 C   0  0  0  0  0  0  0  0  0  0  0  0
   38.3600   26.5290   33.4880 N   0  0  0  0  0  0  0  0  0  0  0  0
   37.3240   21.9670   35.6000 C   0  0  0  0  0  0  0  0  0  0  0  0
   37.7310   22.8010   36.6200 C   0  0  0  0  0  0  0  0  0  0  0  0
   38.7590   23.7040   36.4430 C   0  0  0  0  0  0  0  0  0  0  0  0
   39.4300   23.8200   35.2430 C   0  0  0  0  0  0  0  0  0  0  0  0
   38.9920   22.9690   34.2510 C   0  0  0  0  0  0  0  0  0  0  0  0
   37.9700   22.0510   34.3830 C   0  0  0  0  0  0  0  0  0  0  0  0
   36.0190   20.8280   35.8470 S   0  0  0  0  0  0  0  0  0  0  0  0
   35.3750   20.5700   34.4920 O   0  0  0  0  0  0  0  0  0  0  0  0
   35.0030   21.3200   36.8240 O   0  0  0  0  0  0  0  0  0  0  0  0
   41.5031   27.9193   34.1714 H   0  0  0  0  0  0  0  0  0  0  0  0
   43.8213   24.3960   34.8441 H   0  0  0  0  0  0  0  0  0  0  0  0
   38.6328   27.5340   36.5510 H   0  0  0  0  0  0  0  0  0  0  0  0
   36.3367   27.1563   32.9491 H   0  0  0  0  0  0  0  0  0  0  0  0
   37.2254   22.7451   37.5953 H   0  0  0  0  0  0  0  0  0  0  0  0
   39.0523   24.3505   37.2833 H   0  0  0  0  0  0  0  0  0  0  0  0
   39.4977   23.0262   33.2758 H   0  0  0  0  0  0  0  0  0  0  0  0
   37.6784   21.4045   33.5422 H   0  0  0  0  0  0  0  0  0  0  0  0
   36.5278   19.6744   36.3830 H   0  0  0  0  0  0  0  0  0  0  0  0
  1  6  1  0
  1 15  1  0
  2  1  2  0
  3  4  2  0
  3  2  1  0
  4  5  1  0
  5  6  2  0
  7  2  1  0
  7  8  1  0
  9  8  2  0
 10  9  1  0
 11 10  2  0
 11  7  1  0
 12 18  1  0
 12 13  2  0
 14 13  1  0
 15 14  2  0
 16 17  2  0
 16 15  1  0
 17 12  1  0
 18 20  2  0
 19 18  2  0
  3 21  1  0
  5 22  1  0
  8 23  1  0
 10 24  1  0
 13 25  1  0
 14 26  1  0
 16 27  1  0
 17 28  1  0
 18 29  1  0
M  ISO  8  21  14  22  14  23  14  24  14  25  14  26  14  27  14  28  14
M  ISO  1  29  11
M  END
>  <minimizedAffinity>  (1) 
-4.48932362

>  <minimizedRMSD>  (1) 
5.33241653

$$$$
