
     RDKit          3D

 27 30  0  0  0  0  0  0  0  0999 V2000
   40.0160   23.7140   35.9990 C   0  0  0  0  0  0  0  0  0  0  0  0
   40.1010   24.7500   35.0770 C   0  0  0  0  0  0  0  0  0  0  0  0
   41.3530   25.1270   34.5860 C   0  0  0  0  0  0  0  0  0  0  0  0
   42.4520   24.4550   35.0390 N   0  0  0  0  0  0  0  0  0  0  0  0
   42.3360   23.4480   35.9380 C   0  0  0  0  0  0  0  0  0  0  0  0
   41.1340   23.0960   36.4010 N   0  0  0  0  0  0  0  0  0  0  0  0
   38.8150   23.2270   36.5800 N   0  0  0  0  0  0  0  0  0  0  0  0
   38.3330   23.3870   37.8460 C   0  0  0  0  0  0  0  0  0  0  0  0
   37.1530   22.7410   37.9320 N   0  0  0  0  0  0  0  0  0  0  0  0
   36.8550   22.1590   36.7340 C   0  0  0  0  0  0  0  0  0  0  0  0
   35.8200   21.3960   36.2360 C   0  0  0  0  0  0  0  0  0  0  0  0
   35.8380   20.9660   34.9580 N   0  0  0  0  0  0  0  0  0  0  0  0
   36.8700   21.2710   34.1280 C   0  0  0  0  0  0  0  0  0  0  0  0
   37.8650   22.0170   34.6440 N   0  0  0  0  0  0  0  0  0  0  0  0
   37.8980   22.4720   35.9100 C   0  0  0  0  0  0  0  0  0  0  0  0
   38.8790   25.3710   34.6860 N   0  0  0  0  0  0  0  0  0  0  0  0
   38.0270   26.2240   35.3370 C   0  0  0  0  0  0  0  0  0  0  0  0
   36.9980   26.5240   34.5170 N   0  0  0  0  0  0  0  0  0  0  0  0
   37.2150   25.8470   33.3420 C   0  0  0  0  0  0  0  0  0  0  0  0
   38.3780   25.1530   33.4870 N   0  0  0  0  0  0  0  0  0  0  0  0
   41.4510   25.9427   33.8546 H   0  0  0  0  0  0  0  0  0  0  0  0
   43.2348   22.9188   36.2875 H   0  0  0  0  0  0  0  0  0  0  0  0
   38.8226   23.9465   38.6567 H   0  0  0  0  0  0  0  0  0  0  0  0
   34.9723   21.1358   36.8869 H   0  0  0  0  0  0  0  0  0  0  0  0
   36.8914   20.9248   33.0841 H   0  0  0  0  0  0  0  0  0  0  0  0
   38.1600   26.6026   36.3612 H   0  0  0  0  0  0  0  0  0  0  0  0
   36.5704   25.8623   32.4508 H   0  0  0  0  0  0  0  0  0  0  0  0
  1  6  1  0
  1  7  1  0
  2  1  2  0
  3  4  2  0
  3  2  1  0
  4  5  1  0
  5  6  2  0
  7  8  1  0
  8  9  2  0
 10  9  1  0
 11 10  2  0
 12 11  1  0
 13 14  1  0
 13 12  2  0
 14 15  2  0
 15  7  1  0
 15 10  1  0
 16  2  1  0
 16 17  1  0
 18 17  2  0
 19 20  2  0
 19 18  1  0
 20 16  1  0
  3 21  1  0
  5 22  1  0
  8 23  1  0
 11 24  1  0
 13 25  1  0
 17 26  1  0
 19 27  1  0
M  ISO  7  21  14  22  14  23  14  24  14  25  14  26  14  27  14
M  END
>  <minimizedAffinity>  (1) 
-4.33102179

>  <minimizedRMSD>  (1) 
4.09281397

$$$$
