
     RDKit          3D

 30 33  0  0  0  0  0  0  0  0999 V2000
   40.8390   24.2240   34.8800 C   0  0  0  0  0  0  0  0  0  0  0  0
   42.1160   24.7510   34.8700 C   0  0  0  0  0  0  0  0  0  0  0  0
   43.1030   24.3200   35.7990 C   0  0  0  0  0  0  0  0  0  0  0  0
   42.7510   23.3680   36.6990 N   0  0  0  0  0  0  0  0  0  0  0  0
   41.5190   22.8560   36.7080 C   0  0  0  0  0  0  0  0  0  0  0  0
   40.6530   23.2860   35.8360 N   0  0  0  0  0  0  0  0  0  0  0  0
   39.7320   24.6130   34.0230 C   0  0  0  0  0  0  0  0  0  0  0  0
   39.3480   24.0640   32.8910 N   0  0  0  0  0  0  0  0  0  0  0  0
   38.3630   24.3500   32.0750 C   0  0  0  0  0  0  0  0  0  0  0  0
   37.5760   25.3760   32.4050 N   0  0  0  0  0  0  0  0  0  0  0  0
   37.8290   26.0570   33.5440 C   0  0  0  0  0  0  0  0  0  0  0  0
   36.9770   27.0820   33.8090 C   0  0  0  0  0  0  0  0  0  0  0  0
   37.1620   27.8190   34.9550 C   0  0  0  0  0  0  0  0  0  0  0  0
   38.2090   27.4890   35.7950 C   0  0  0  0  0  0  0  0  0  0  0  0
   39.0140   26.4350   35.4340 C   0  0  0  0  0  0  0  0  0  0  0  0
   38.8980   25.6590   34.3230 C   0  0  0  0  0  0  0  0  0  0  0  0
   42.4210   25.7260   33.8660 N   0  0  0  0  0  0  0  0  0  0  0  0
   42.3500   27.0770   33.8200 C   0  0  0  0  0  0  0  0  0  0  0  0
   42.7730   27.4840   32.5870 N   0  0  0  0  0  0  0  0  0  0  0  0
   43.1050   26.3770   31.8810 C   0  0  0  0  0  0  0  0  0  0  0  0
   42.8820   25.3220   32.6840 N   0  0  0  0  0  0  0  0  0  0  0  0
   44.1178   24.7444   35.7880 H   0  0  0  0  0  0  0  0  0  0  0  0
   41.2396   22.0837   37.4397 H   0  0  0  0  0  0  0  0  0  0  0  0
   38.1922   23.7688   31.1568 H   0  0  0  0  0  0  0  0  0  0  0  0
   36.1537   27.3180   33.1187 H   0  0  0  0  0  0  0  0  0  0  0  0
   36.4898   28.6550   35.1986 H   0  0  0  0  0  0  0  0  0  0  0  0
   38.3920   28.0517   36.7223 H   0  0  0  0  0  0  0  0  0  0  0  0
   39.8413   26.1930   36.1173 H   0  0  0  0  0  0  0  0  0  0  0  0
   42.0104   27.7334   34.6348 H   0  0  0  0  0  0  0  0  0  0  0  0
   43.4842   26.3468   30.8489 H   0  0  0  0  0  0  0  0  0  0  0  0
  1  6  2  0
  2  1  1  0
  2  3  2  0
  3  4  1  0
  4  5  2  0
  6  5  1  0
  7 16  1  0
  7  1  1  0
  8  7  2  0
  9 10  2  0
  9  8  1  0
 10 11  1  0
 11 12  1  0
 11 16  2  0
 12 13  2  0
 13 14  1  0
 15 14  2  0
 16 15  1  0
 17  2  1  0
 18 17  1  0
 19 18  2  0
 20 19  1  0
 20 21  2  0
 21 17  1  0
  3 22  1  0
  5 23  1  0
  9 24  1  0
 12 25  1  0
 13 26  1  0
 14 27  1  0
 15 28  1  0
 18 29  1  0
 20 30  1  0
M  ISO  8  22  14  23  14  24  14  25  14  26  14  27  14  28  14  29  14
M  ISO  1  30  14
M  END
>  <minimizedAffinity>  (1) 
-4.3995595

>  <minimizedRMSD>  (1) 
5.84937763

$$$$
