
     RDKit          3D

 23 25  0  0  0  0  0  0  0  0999 V2000
   40.1470   24.9300   35.0900 C   0  0  0  0  0  0  0  0  0  0  0  0
   40.0440   26.2180   34.6490 C   0  0  0  0  0  0  0  0  0  0  0  0
   41.2390   26.8940   34.3010 C   0  0  0  0  0  0  0  0  0  0  0  0
   42.4290   26.2550   34.4100 N   0  0  0  0  0  0  0  0  0  0  0  0
   42.4870   24.9820   34.8470 C   0  0  0  0  0  0  0  0  0  0  0  0
   41.3620   24.3640   35.1690 N   0  0  0  0  0  0  0  0  0  0  0  0
   38.7660   26.7920   34.5280 N   0  0  0  0  0  0  0  0  0  0  0  0
   37.9950   27.5250   35.3880 C   0  0  0  0  0  0  0  0  0  0  0  0
   36.8350   27.8450   34.7440 N   0  0  0  0  0  0  0  0  0  0  0  0
   36.9000   27.3060   33.4940 C   0  0  0  0  0  0  0  0  0  0  0  0
   38.0870   26.6740   33.3950 N   0  0  0  0  0  0  0  0  0  0  0  0
   39.1140   24.0320   35.6290 C   0  0  0  0  0  0  0  0  0  0  0  0
   38.6100   22.8810   35.0770 C   0  0  0  0  0  0  0  0  0  0  0  0
   37.6450   22.2470   35.7670 C   0  0  0  0  0  0  0  0  0  0  0  0
   37.1360   22.6790   36.9820 C   0  0  0  0  0  0  0  0  0  0  0  0
   38.1310   24.1740   37.2060 S   0  0  0  0  0  0  0  0  0  0  0  0
   41.2012   27.9337   33.9436 H   0  0  0  0  0  0  0  0  0  0  0  0
   43.4538   24.4647   34.9347 H   0  0  0  0  0  0  0  0  0  0  0  0
   38.2627   27.8068   36.4170 H   0  0  0  0  0  0  0  0  0  0  0  0
   36.1289   27.3738   32.7125 H   0  0  0  0  0  0  0  0  0  0  0  0
   38.9781   22.4949   34.1150 H   0  0  0  0  0  0  0  0  0  0  0  0
   37.2314   21.3225   35.3378 H   0  0  0  0  0  0  0  0  0  0  0  0
   36.3559   22.2413   37.6223 H   0  0  0  0  0  0  0  0  0  0  0  0
  1  6  1  0
  1 12  1  0
  2  1  2  0
  3  4  2  0
  3  2  1  0
  4  5  1  0
  5  6  2  0
  7  2  1  0
  7  8  1  0
  9  8  2  0
 10  9  1  0
 11 10  2  0
 11  7  1  0
 12 16  1  0
 13 12  2  0
 13 14  1  0
 14 15  2  0
 15 16  1  0
  3 17  1  0
  5 18  1  0
  8 19  1  0
 10 20  1  0
 13 21  1  0
 14 22  1  0
 15 23  1  0
M  ISO  7  17  14  18  14  19  14  20  14  21  14  22  14  23  14
M  END
>  <minimizedAffinity>  (1) 
-3.71769977

>  <minimizedRMSD>  (1) 
5.16674757

$$$$
