
     RDKit          3D

 23 25  0  0  0  0  0  0  0  0999 V2000
   37.7400   22.3440   34.4950 C   0  0  0  0  0  0  0  0  0  0  0  0
   38.1400   23.5810   33.9430 C   0  0  0  0  0  0  0  0  0  0  0  0
   38.8980   24.4310   34.7280 C   0  0  0  0  0  0  0  0  0  0  0  0
   39.2170   24.0280   35.9960 N   0  0  0  0  0  0  0  0  0  0  0  0
   38.8230   22.8510   36.4930 C   0  0  0  0  0  0  0  0  0  0  0  0
   38.0830   22.0080   35.7390 N   0  0  0  0  0  0  0  0  0  0  0  0
   36.9600   21.3570   33.8230 N   0  0  0  0  0  0  0  0  0  0  0  0
   35.7880   20.7940   34.1810 C   0  0  0  0  0  0  0  0  0  0  0  0
   35.4610   19.8940   33.1770 C   0  0  0  0  0  0  0  0  0  0  0  0
   36.4410   19.9390   32.2420 N   0  0  0  0  0  0  0  0  0  0  0  0
   37.3730   20.8460   32.6410 C   0  0  0  0  0  0  0  0  0  0  0  0
   37.7200   23.8300   32.6210 N   0  0  0  0  0  0  0  0  0  0  0  0
   36.5150   24.2490   32.1150 C   0  0  0  0  0  0  0  0  0  0  0  0
   36.6260   24.3350   30.7670 N   0  0  0  0  0  0  0  0  0  0  0  0
   37.8890   23.9720   30.4400 C   0  0  0  0  0  0  0  0  0  0  0  0
   38.5290   23.6710   31.5950 N   0  0  0  0  0  0  0  0  0  0  0  0
   39.2353   25.4047   34.3432 H   0  0  0  0  0  0  0  0  0  0  0  0
   39.1020   22.5679   37.5187 H   0  0  0  0  0  0  0  0  0  0  0  0
   35.2060   21.0065   35.0899 H   0  0  0  0  0  0  0  0  0  0  0  0
   34.5649   19.2567   33.1455 H   0  0  0  0  0  0  0  0  0  0  0  0
   38.2933   21.1144   32.1015 H   0  0  0  0  0  0  0  0  0  0  0  0
   35.6135   24.4761   32.7029 H   0  0  0  0  0  0  0  0  0  0  0  0
   38.3150   23.9296   29.4267 H   0  0  0  0  0  0  0  0  0  0  0  0
  1  6  2  0
  2  1  1  0
  2  3  2  0
  3  4  1  0
  4  5  2  0
  6  5  1  0
  7  8  1  0
  7  1  1  0
  9  8  2  0
 10 11  2  0
 10  9  1  0
 11  7  1  0
 12  2  1  0
 13 12  1  0
 14 13  2  0
 15 14  1  0
 15 16  2  0
 16 12  1  0
  3 17  1  0
  5 18  1  0
  8 19  1  0
  9 20  1  0
 11 21  1  0
 13 22  1  0
 15 23  1  0
M  ISO  7  17  14  18  14  19  14  20  14  21  14  22  14  23  14
M  END
>  <minimizedAffinity>  (1) 
-3.87551665

>  <minimizedRMSD>  (1) 
3.96264172

$$$$
