
     RDKit          3D

 52 56  0  0  1  0  0  0  0  0999 V2000
   37.5900   23.6070   33.1310 C   0  0  0  0  0  0  0  0  0  0  0  0
   36.7680   22.7390   32.4340 C   0  0  0  0  0  0  0  0  0  0  0  0
   36.7180   21.6140   33.2110 N   0  0  0  0  0  0  0  0  0  0  0  0
   37.4810   21.8520   34.2940 C   0  0  0  0  0  0  0  0  0  0  0  0
   38.0300   23.0660   34.2770 N   0  0  0  0  0  0  0  0  0  0  0  0
   37.9490   24.9560   32.6950 C   0  0  0  0  0  0  0  0  0  0  0  0
   39.1210   25.1620   31.9660 C   0  0  0  0  0  0  0  0  0  0  0  0
   39.4060   26.5030   31.5890 C   0  0  0  0  0  0  0  0  0  0  0  0
   38.5500   27.4790   31.9500 N   0  0  0  0  0  0  0  0  0  0  0  0
   37.4440   27.2290   32.6470 C   0  0  0  0  0  0  0  0  0  0  0  0
   37.1210   25.9730   33.0320 N   0  0  0  0  0  0  0  0  0  0  0  0
   36.5440   28.2670   33.0250 N   0  0  0  0  0  0  0  0  0  0  0  0
   35.8530   29.1280   32.0810 C   0  0  0  0  0  0  0  0  0  0  0  0
   34.4150   29.1570   32.5540 C   0  0  0  0  0  0  0  0  0  0  0  0
   34.3650   30.0620   33.7630 C   0  0  0  0  0  0  0  0  0  0  0  0
   35.5920   29.8800   34.5920 C   0  0  0  0  0  0  0  0  0  0  0  0
   36.2550   28.5330   34.4260 C   0  0  0  0  0  0  0  0  0  0  0  0
   38.8900   23.6720   35.2370 C   0  0  1  0  0  0  0  0  0  0  0  0
   38.2670   24.8150   35.9400 C   0  0  0  0  0  0  0  0  0  0  0  0
   37.5270   24.1520   37.0870 C   0  0  0  0  0  0  0  0  0  0  0  0
   38.4980   23.1300   37.5520 C   0  0  0  0  0  0  0  0  0  0  0  0
   39.2900   22.7340   36.3470 C   0  0  2  0  0  0  0  0  0  0  0  0
   40.7830   22.8970   36.5800 C   0  0  0  0  0  0  0  0  0  0  0  0
   41.6010   21.7610   35.9730 C   0  0  0  0  0  0  0  0  0  0  0  0
   41.5480   21.9960   37.4520 C   0  0  0  0  0  0  0  0  0  0  0  0
   36.2668   22.9143   31.4706 H   0  0  0  0  0  0  0  0  0  0  0  0
   37.6345   21.1241   35.1043 H   0  0  0  0  0  0  0  0  0  0  0  0
   39.7892   24.3306   31.6972 H   0  0  0  0  0  0  0  0  0  0  0  0
   40.3116   26.7401   31.0114 H   0  0  0  0  0  0  0  0  0  0  0  0
   35.9167   28.7151   31.0634 H   0  0  0  0  0  0  0  0  0  0  0  0
   36.2945   30.1347   32.0415 H   0  0  0  0  0  0  0  0  0  0  0  0
   33.7641   29.5515   31.7598 H   0  0  0  0  0  0  0  0  0  0  0  0
   34.0647   28.1453   32.8066 H   0  0  0  0  0  0  0  0  0  0  0  0
   34.3023   31.1089   33.4312 H   0  0  0  0  0  0  0  0  0  0  0  0
   33.4818   29.8067   34.3670 H   0  0  0  0  0  0  0  0  0  0  0  0
   36.3168   30.6585   34.3116 H   0  0  0  0  0  0  0  0  0  0  0  0
   35.2773   29.9509   35.6436 H   0  0  0  0  0  0  0  0  0  0  0  0
   35.5835   27.7510   34.8102 H   0  0  0  0  0  0  0  0  0  0  0  0
   37.2015   28.5351   34.9864 H   0  0  0  0  0  0  0  0  0  0  0  0
   39.7510   23.9840   34.6276 H   0  0  0  0  0  0  0  0  0  0  0  0
   39.0310   25.5126   36.3138 H   0  0  0  0  0  0  0  0  0  0  0  0
   37.6114   25.4156   35.2923 H   0  0  0  0  0  0  0  0  0  0  0  0
   37.3000   24.8755   37.8839 H   0  0  0  0  0  0  0  0  0  0  0  0
   36.5545   23.7297   36.7939 H   0  0  0  0  0  0  0  0  0  0  0  0
   39.1597   23.5540   38.3216 H   0  0  0  0  0  0  0  0  0  0  0  0
   37.9878   22.2648   38.0005 H   0  0  0  0  0  0  0  0  0  0  0  0
   39.0911   21.6783   36.1105 H   0  0  0  0  0  0  0  0  0  0  0  0
   40.7271   23.9951   36.5481 H   0  0  0  0  0  0  0  0  0  0  0  0
   41.0972   20.8887   35.5311 H   0  0  0  0  0  0  0  0  0  0  0  0
   42.3943   21.6775   35.2155 H   0  0  0  0  0  0  0  0  0  0  0  0
   42.4391   22.3718   37.9761 H   0  0  0  0  0  0  0  0  0  0  0  0
   41.2931   21.3691   38.3192 H   0  0  0  0  0  0  0  0  0  0  0  0
  1  5  1  0
  2  1  2  0
  2  3  1  0
  3  4  2  0
  5  4  1  0
  5 18  1  0
  6 11  1  0
  6  1  1  0
  7  6  2  0
  8  9  2  0
  8  7  1  0
  9 10  1  0
 10 12  1  0
 10 11  2  0
 12 17  1  0
 13 14  1  0
 13 12  1  0
 14 15  1  0
 15 16  1  0
 17 16  1  0
 18 19  1  0
 18 22  1  0
 19 20  1  0
 20 21  1  0
 22 23  1  0
 22 21  1  0
 23 25  1  0
 24 23  1  0
 24 25  1  0
  2 26  1  0
  4 27  1  0
  7 28  1  0
  8 29  1  0
 13 30  1  0
 13 31  1  0
 14 32  1  0
 14 33  1  0
 15 34  1  0
 15 35  1  0
 16 36  1  0
 16 37  1  0
 17 38  1  0
 17 39  1  0
 18 40  1  6
 19 41  1  0
 19 42  1  0
 20 43  1  0
 20 44  1  0
 21 45  1  0
 21 46  1  0
 22 47  1  6
 23 48  1  0
 24 49  1  0
 24 50  1  0
 25 51  1  0
 25 52  1  0
M  ISO  8  26  14  27  14  28  14  29  14  30  13  31  13  32  13  33  13
M  ISO  8  34  13  35  13  36  13  37  13  38  13  39  13  40  13  41  13
M  ISO  8  42  13  43  13  44  13  45  13  46  13  47  13  48  13  49  13
M  ISO  3  50  13  51  13  52  13
M  END
>  <minimizedAffinity>  (1) 
-5.82586288

>  <minimizedRMSD>  (1) 
0.464063555

$$$$
