
     RDKit          3D

 19 20  0  0  0  0  0  0  0  0999 V2000
   38.8870   22.9800   36.7500 C   0  0  0  0  0  0  0  0  0  0  0  0
   39.3330   22.6430   35.4720 C   0  0  0  0  0  0  0  0  0  0  0  0
   40.6190   22.1070   35.3050 C   0  0  0  0  0  0  0  0  0  0  0  0
   41.3810   21.9400   36.4290 N   0  0  0  0  0  0  0  0  0  0  0  0
   40.9250   22.2740   37.6500 C   0  0  0  0  0  0  0  0  0  0  0  0
   39.6850   22.7900   37.7970 N   0  0  0  0  0  0  0  0  0  0  0  0
   38.4410   22.8660   34.3790 N   0  0  0  0  0  0  0  0  0  0  0  0
   38.1360   23.9570   33.6280 C   0  0  0  0  0  0  0  0  0  0  0  0
   37.2100   23.6080   32.7090 N   0  0  0  0  0  0  0  0  0  0  0  0
   36.9410   22.2730   32.8990 C   0  0  0  0  0  0  0  0  0  0  0  0
   37.7080   21.8480   33.9260 N   0  0  0  0  0  0  0  0  0  0  0  0
   37.5220   23.5480   36.9090 C   0  0  0  0  0  0  0  0  0  0  0  0
   40.9993   21.8321   34.3101 H   0  0  0  0  0  0  0  0  0  0  0  0
   41.5647   22.1263   38.5326 H   0  0  0  0  0  0  0  0  0  0  0  0
   38.5719   24.9597   33.7489 H   0  0  0  0  0  0  0  0  0  0  0  0
   36.2313   21.6632   32.3206 H   0  0  0  0  0  0  0  0  0  0  0  0
   37.2878   23.6455   37.9794 H   0  0  0  0  0  0  0  0  0  0  0  0
   37.4793   24.5386   36.4326 H   0  0  0  0  0  0  0  0  0  0  0  0
   36.7892   22.8801   36.4326 H   0  0  0  0  0  0  0  0  0  0  0  0
  1 12  1  0
  1  6  2  0
  2  1  1  0
  3  2  2  0
  3  4  1  0
  4  5  2  0
  5  6  1  0
  7  2  1  0
  8  7  1  0
  9 10  1  0
  9  8  2  0
 10 11  2  0
 11  7  1  0
  3 13  1  0
  5 14  1  0
  8 15  1  0
 10 16  1  0
 12 17  1  0
 12 18  1  0
 12 19  1  0
M  ISO  7  13  14  14  14  15  14  16  14  17   8  18   8  19   8
M  END
>  <minimizedAffinity>  (1) 
-3.05342102

>  <minimizedRMSD>  (1) 
2.0336535

$$$$
