
     RDKit          3D

 18 19  0  0  0  0  0  0  0  0999 V2000
   36.8020   21.5330   35.2940 C   0  0  0  0  0  0  0  0  0  0  0  0
   37.0050   21.5030   33.9240 C   0  0  0  0  0  0  0  0  0  0  0  0
   38.1400   22.1570   33.4220 C   0  0  0  0  0  0  0  0  0  0  0  0
   38.9590   22.7730   34.3100 N   0  0  0  0  0  0  0  0  0  0  0  0
   38.7310   22.7810   35.6210 C   0  0  0  0  0  0  0  0  0  0  0  0
   37.6540   22.1600   36.0980 N   0  0  0  0  0  0  0  0  0  0  0  0
   36.0430   20.8190   33.1430 N   0  0  0  0  0  0  0  0  0  0  0  0
   34.9220   21.2730   32.4950 C   0  0  0  0  0  0  0  0  0  0  0  0
   34.3390   20.1980   31.8920 N   0  0  0  0  0  0  0  0  0  0  0  0
   35.0960   19.1120   32.1710 C   0  0  0  0  0  0  0  0  0  0  0  0
   36.1340   19.5240   32.9380 N   0  0  0  0  0  0  0  0  0  0  0  0
   35.7010   20.9370   36.0170 C   0  0  0  0  0  0  0  0  0  0  0  0
   34.9900   21.0510   37.0230 O   0  0  0  0  0  0  0  0  0  0  0  0
   38.3583   22.1697   32.3440 H   0  0  0  0  0  0  0  0  0  0  0  0
   39.4244   23.2948   36.3030 H   0  0  0  0  0  0  0  0  0  0  0  0
   34.5607   22.3116   32.4671 H   0  0  0  0  0  0  0  0  0  0  0  0
   34.9037   18.0820   31.8361 H   0  0  0  0  0  0  0  0  0  0  0  0
   35.3708   20.0455   35.4637 H   0  0  0  0  0  0  0  0  0  0  0  0
  1 12  1  0
  1  6  2  0
  2  1  1  0
  3  2  2  0
  3  4  1  0
  4  5  2  0
  5  6  1  0
  7  2  1  0
  8  7  1  0
  9 10  1  0
  9  8  2  0
 10 11  2  0
 11  7  1  0
 12 13  2  0
  3 14  1  0
  5 15  1  0
  8 16  1  0
 10 17  1  0
 12 18  1  0
M  ISO  5  14  14  15  14  16  14  17  14  18   6
M  END
>  <minimizedAffinity>  (1) 
-3.34131265

>  <minimizedRMSD>  (1) 
2.53702188

$$$$
