
     RDKit          3D

 34 36  0  0  1  0  0  0  0  0999 V2000
   38.6410   22.4730   33.7890 C   0  0  0  0  0  0  0  0  0  0  0  0
   37.8470   23.5340   33.2200 C   0  0  0  0  0  0  0  0  0  0  0  0
   36.9840   23.4700   32.1360 C   0  0  0  0  0  0  0  0  0  0  0  0
   36.3030   24.6380   31.7380 C   0  0  0  0  0  0  0  0  0  0  0  0
   36.5280   25.7850   32.4420 N   0  0  0  0  0  0  0  0  0  0  0  0
   37.3600   25.8110   33.4730 C   0  0  0  0  0  0  0  0  0  0  0  0
   37.9980   24.7150   33.8470 N   0  0  0  0  0  0  0  0  0  0  0  0
   36.8370   22.2280   31.4770 N   0  0  0  0  0  0  0  0  0  0  0  0
   35.8180   21.3550   31.2990 C   0  0  0  0  0  0  0  0  0  0  0  0
   36.2250   20.3010   30.5790 N   0  0  0  0  0  0  0  0  0  0  0  0
   37.5450   20.5170   30.2950 C   0  0  0  0  0  0  0  0  0  0  0  0
   37.8680   21.6970   30.8610 N   0  0  0  0  0  0  0  0  0  0  0  0
   38.0590   21.9380   35.0890 C   0  0  1  0  0  0  0  0  0  0  0  0
   38.5290   22.3820   36.3230 C   0  0  0  0  0  0  0  0  0  0  0  0
   37.8990   23.2370   37.2400 C   0  0  0  0  0  0  0  0  0  0  0  0
   38.6740   23.4620   38.3570 C   0  0  0  0  0  0  0  0  0  0  0  0
   39.7720   22.7340   38.0950 N   0  0  0  0  0  0  0  0  0  0  0  0
   39.7120   22.1130   36.9490 N   0  0  0  0  0  0  0  0  0  0  0  0
   36.6790   21.8930   35.0010 O   0  0  0  0  0  0  0  0  0  0  0  0
   35.8310   20.8880   35.3140 C   0  0  0  0  0  0  0  0  0  0  0  0
   35.3740   20.7100   36.6480 N   0  0  0  0  0  0  0  0  0  0  0  0
   35.5120   20.1620   34.2950 O   0  0  0  0  0  0  0  0  0  0  0  0
   39.6521   22.8577   33.9879 H   0  0  0  0  0  0  0  0  0  0  0  0
   38.6566   21.6445   33.0656 H   0  0  0  0  0  0  0  0  0  0  0  0
   35.6098   24.6253   30.8840 H   0  0  0  0  0  0  0  0  0  0  0  0
   37.5210   26.7508   34.0215 H   0  0  0  0  0  0  0  0  0  0  0  0
   34.7991   21.4917   31.6904 H   0  0  0  0  0  0  0  0  0  0  0  0
   38.2114   19.8583   29.7188 H   0  0  0  0  0  0  0  0  0  0  0  0
   38.4975   20.9304   35.1399 H   0  0  0  0  0  0  0  0  0  0  0  0
   36.9025   23.6765   37.0853 H   0  0  0  0  0  0  0  0  0  0  0  0
   38.4504   24.0804   39.2388 H   0  0  0  0  0  0  0  0  0  0  0  0
   40.5783   22.6723   38.7330 H   0  0  0  0  0  0  0  0  0  0  0  0
   34.7279   19.9399   36.8726 H   0  0  0  0  0  0  0  0  0  0  0  0
   35.6889   21.3511   37.3901 H   0  0  0  0  0  0  0  0  0  0  0  0
  1 13  1  0
  2  1  1  0
  2  7  2  0
  3  2  1  0
  4  3  2  0
  4  5  1  0
  5  6  2  0
  6  7  1  0
  8  3  1  0
  9  8  1  0
 10  9  2  0
 11 10  1  0
 11 12  2  0
 12  8  1  0
 13 14  1  0
 14 18  2  0
 14 15  1  0
 15 16  2  0
 17 16  1  0
 18 17  1  0
 19 13  1  0
 19 20  1  0
 20 21  1  0
 22 20  2  0
  1 23  1  0
  1 24  1  0
  4 25  1  0
  6 26  1  0
  9 27  1  0
 11 28  1  0
 13 29  1  1
 15 30  1  0
 16 31  1  0
 17 32  1  0
 21 33  1  0
 21 34  1  0
M  ISO  8  23   8  24   8  25  14  26  14  27  14  28  14  29   8  30  14
M  ISO  2  31  14  32   9
M  END
>  <minimizedAffinity>  (1) 
-5.08279705

>  <minimizedRMSD>  (1) 
1.21910477

$$$$
