
     RDKit          3D

 44 48  0  0  1  0  0  0  0  0999 V2000
   37.5790   23.6300   33.1350 C   0  0  0  0  0  0  0  0  0  0  0  0
   36.7960   22.7510   32.4080 C   0  0  0  0  0  0  0  0  0  0  0  0
   36.8160   21.5890   33.1330 N   0  0  0  0  0  0  0  0  0  0  0  0
   37.5790   21.8170   34.2170 C   0  0  0  0  0  0  0  0  0  0  0  0
   38.0650   23.0620   34.2500 N   0  0  0  0  0  0  0  0  0  0  0  0
   37.8610   25.0090   32.7600 C   0  0  0  0  0  0  0  0  0  0  0  0
   39.1100   25.3270   32.1820 C   0  0  0  0  0  0  0  0  0  0  0  0
   39.3090   26.6940   31.8550 C   0  0  0  0  0  0  0  0  0  0  0  0
   38.3230   27.5900   32.1080 N   0  0  0  0  0  0  0  0  0  0  0  0
   37.1640   27.2280   32.6560 C   0  0  0  0  0  0  0  0  0  0  0  0
   36.9060   25.9450   32.9920 N   0  0  0  0  0  0  0  0  0  0  0  0
   36.1710   28.2240   32.8950 N   0  0  0  0  0  0  0  0  0  0  0  0
   35.2740   28.8020   32.1000 N   0  0  0  0  0  0  0  0  0  0  0  0
   34.5480   29.6970   32.7950 C   0  0  0  0  0  0  0  0  0  0  0  0
   35.0230   29.6740   34.1080 C   0  0  0  0  0  0  0  0  0  0  0  0
   36.0510   28.7350   34.1510 C   0  0  0  0  0  0  0  0  0  0  0  0
   38.9020   23.6670   35.2280 C   0  0  1  0  0  0  0  0  0  0  0  0
   38.2520   24.8040   35.9260 C   0  0  0  0  0  0  0  0  0  0  0  0
   37.5090   24.1240   37.0600 C   0  0  0  0  0  0  0  0  0  0  0  0
   38.4780   23.1060   37.5330 C   0  0  0  0  0  0  0  0  0  0  0  0
   39.2940   22.7230   36.3360 C   0  0  2  0  0  0  0  0  0  0  0  0
   40.7770   22.8960   36.5980 C   0  0  0  0  0  0  0  0  0  0  0  0
   41.6180   21.7800   35.9820 C   0  0  0  0  0  0  0  0  0  0  0  0
   41.5420   21.9910   37.4640 C   0  0  0  0  0  0  0  0  0  0  0  0
   36.2737   22.9426   31.4591 H   0  0  0  0  0  0  0  0  0  0  0  0
   37.7809   21.0621   34.9912 H   0  0  0  0  0  0  0  0  0  0  0  0
   39.8799   24.5635   31.9969 H   0  0  0  0  0  0  0  0  0  0  0  0
   40.2548   27.0236   31.4003 H   0  0  0  0  0  0  0  0  0  0  0  0
   33.7354   30.3266   32.4035 H   0  0  0  0  0  0  0  0  0  0  0  0
   34.6554   30.2816   34.9481 H   0  0  0  0  0  0  0  0  0  0  0  0
   36.6507   28.4593   35.0310 H   0  0  0  0  0  0  0  0  0  0  0  0
   39.7730   23.9914   34.6396 H   0  0  0  0  0  0  0  0  0  0  0  0
   39.0004   25.5120   36.3114 H   0  0  0  0  0  0  0  0  0  0  0  0
   37.5972   25.3987   35.2720 H   0  0  0  0  0  0  0  0  0  0  0  0
   37.2667   24.8401   37.8591 H   0  0  0  0  0  0  0  0  0  0  0  0
   36.5457   23.6932   36.7493 H   0  0  0  0  0  0  0  0  0  0  0  0
   39.1242   23.5287   38.3164 H   0  0  0  0  0  0  0  0  0  0  0  0
   37.9662   22.2343   37.9667 H   0  0  0  0  0  0  0  0  0  0  0  0
   39.1100   21.6679   36.0853 H   0  0  0  0  0  0  0  0  0  0  0  0
   40.7067   23.9937   36.5876 H   0  0  0  0  0  0  0  0  0  0  0  0
   41.1314   20.9087   35.5194 H   0  0  0  0  0  0  0  0  0  0  0  0
   42.4219   21.7188   35.2337 H   0  0  0  0  0  0  0  0  0  0  0  0
   42.4212   22.3696   38.0059 H   0  0  0  0  0  0  0  0  0  0  0  0
   41.2837   21.3467   38.3173 H   0  0  0  0  0  0  0  0  0  0  0  0
  1  5  1  0
  2  3  1  0
  2  1  2  0
  3  4  2  0
  4  5  1  0
  5 17  1  0
  6 11  1  0
  6  1  1  0
  7  6  2  0
  8  9  2  0
  8  7  1  0
  9 10  1  0
 10 12  1  0
 10 11  2  0
 12 16  1  0
 13 14  2  0
 13 12  1  0
 14 15  1  0
 15 16  2  0
 17 18  1  0
 17 21  1  0
 18 19  1  0
 19 20  1  0
 21 22  1  0
 21 20  1  0
 22 24  1  0
 23 22  1  0
 23 24  1  0
  2 25  1  0
  4 26  1  0
  7 27  1  0
  8 28  1  0
 14 29  1  0
 15 30  1  0
 16 31  1  0
 17 32  1  6
 18 33  1  0
 18 34  1  0
 19 35  1  0
 19 36  1  0
 20 37  1  0
 20 38  1  0
 21 39  1  6
 22 40  1  0
 23 41  1  0
 23 42  1  0
 24 43  1  0
 24 44  1  0
M  ISO  8  25  14  26  14  27  14  28  14  29  14  30  14  31  14  32  13
M  ISO  8  33  13  34  13  35  13  36  13  37  13  38  13  39  13  40  13
M  ISO  4  41  13  42  13  43  13  44  13
M  END
>  <minimizedAffinity>  (1) 
-5.5595746

>  <minimizedRMSD>  (1) 
0.603935957

$$$$
