
     RDKit          3D

 51 54  0  0  1  0  0  0  0  0999 V2000
   36.2460   28.9870   32.6860 C   0  0  0  0  0  0  0  0  0  0  0  0
   36.7270   27.8180   32.1830 C   0  0  0  0  0  0  0  0  0  0  0  0
   37.1240   26.8260   33.0800 C   0  0  0  0  0  0  0  0  0  0  0  0
   37.0330   27.0250   34.4220 C   0  0  0  0  0  0  0  0  0  0  0  0
   36.5500   28.2010   34.9400 C   0  0  0  0  0  0  0  0  0  0  0  0
   36.1550   29.1880   34.0710 C   0  0  0  0  0  0  0  0  0  0  0  0
   37.5010   25.8610   35.2090 C   0  0  0  0  0  0  0  0  0  0  0  0
   38.9100   25.4990   34.9670 C   0  0  2  0  0  0  0  0  0  0  0  0
   41.1280   22.9510   36.3980 C   0  0  0  0  0  0  0  0  0  0  0  0
   40.3990   22.4950   37.5450 C   0  0  0  0  0  0  0  0  0  0  0  0
   39.1470   23.0750   37.8080 C   0  0  0  0  0  0  0  0  0  0  0  0
   38.6920   24.0460   36.9510 N   0  0  0  0  0  0  0  0  0  0  0  0
   39.4180   24.4500   35.8710 C   0  0  0  0  0  0  0  0  0  0  0  0
   40.6270   23.9120   35.5910 N   0  0  0  0  0  0  0  0  0  0  0  0
   39.7850   26.7590   35.1950 C   0  0  0  0  0  0  0  0  0  0  0  0
   35.7390   30.2540   31.5970 S   0  0  0  0  0  0  0  0  0  0  0  0
   36.0890   29.8010   30.1920 O   0  0  0  0  0  0  0  0  0  0  0  0
   36.4900   31.5300   31.8550 O   0  0  0  0  0  0  0  0  0  0  0  0
   34.0300   30.5520   31.7250 C   0  0  0  0  0  0  0  0  0  0  0  0
   33.0400   30.0010   32.4350 N   0  0  0  0  0  0  0  0  0  0  0  0
   31.9110   30.6000   32.1680 O   0  0  0  0  0  0  0  0  0  0  0  0
   32.1290   31.5530   31.2820 C   0  0  0  0  0  0  0  0  0  0  0  0
   33.4160   31.5230   31.0130 N   0  0  0  0  0  0  0  0  0  0  0  0
   31.0500   32.3990   30.7870 C   0  0  0  0  0  0  0  0  0  0  0  0
   30.5180   33.2220   31.6020 O   0  0  0  0  0  0  0  0  0  0  0  0
   30.6140   32.2970   29.4290 N   0  0  0  0  0  0  0  0  0  0  0  0
   31.1570   32.7310   28.1490 C   0  0  0  0  0  0  0  0  0  0  0  0
   29.9840   33.0490   27.2750 C   0  0  0  0  0  0  0  0  0  0  0  0
   28.7690   32.6850   28.1090 C   0  0  0  0  0  0  0  0  0  0  0  0
   29.3690   31.6460   29.0350 C   0  0  0  0  0  0  0  0  0  0  0  0
   36.8010   27.6591   31.0971 H   0  0  0  0  0  0  0  0  0  0  0  0
   37.5152   25.8718   32.6972 H   0  0  0  0  0  0  0  0  0  0  0  0
   36.4809   28.3494   36.0278 H   0  0  0  0  0  0  0  0  0  0  0  0
   35.7659   30.1395   34.4624 H   0  0  0  0  0  0  0  0  0  0  0  0
   37.3831   26.0960   36.2771 H   0  0  0  0  0  0  0  0  0  0  0  0
   36.8933   24.9998   34.8944 H   0  0  0  0  0  0  0  0  0  0  0  0
   38.9621   25.1130   33.9383 H   0  0  0  0  0  0  0  0  0  0  0  0
   42.1106   22.5117   36.1713 H   0  0  0  0  0  0  0  0  0  0  0  0
   40.8086   21.7127   38.2009 H   0  0  0  0  0  0  0  0  0  0  0  0
   38.5485   22.7602   38.6756 H   0  0  0  0  0  0  0  0  0  0  0  0
   39.9049   26.9317   36.2747 H   0  0  0  0  0  0  0  0  0  0  0  0
   40.7731   26.6072   34.7360 H   0  0  0  0  0  0  0  0  0  0  0  0
   39.2976   27.6318   34.7360 H   0  0  0  0  0  0  0  0  0  0  0  0
   31.7827   33.6254   28.2854 H   0  0  0  0  0  0  0  0  0  0  0  0
   31.7877   31.9500   27.6993 H   0  0  0  0  0  0  0  0  0  0  0  0
   30.0144   32.4503   26.3527 H   0  0  0  0  0  0  0  0  0  0  0  0
   29.9726   34.1038   26.9630 H   0  0  0  0  0  0  0  0  0  0  0  0
   28.3848   33.5520   28.6664 H   0  0  0  0  0  0  0  0  0  0  0  0
   27.9031   32.3349   27.5280 H   0  0  0  0  0  0  0  0  0  0  0  0
   28.7205   31.4585   29.9035 H   0  0  0  0  0  0  0  0  0  0  0  0
   29.5050   30.6568   28.5734 H   0  0  0  0  0  0  0  0  0  0  0  0
  1  6  1  0
  2  1  2  0
  2  3  1  0
  3  4  2  0
  4  5  1  0
  4  7  1  0
  6  5  2  0
  8 15  1  0
  8  7  1  0
  8 13  1  0
  9 10  2  0
 10 11  1  0
 12 11  2  0
 13 12  1  0
 14 13  2  0
 14  9  1  0
 16 19  1  0
 16 18  2  0
 16  1  1  0
 17 16  2  0
 19 20  2  0
 21 20  1  0
 22 21  1  0
 23 22  2  0
 23 19  1  0
 24 22  1  0
 24 25  2  0
 26 24  1  0
 27 26  1  0
 28 29  1  0
 28 27  1  0
 29 30  1  0
 30 26  1  0
  2 31  1  0
  3 32  1  0
  5 33  1  0
  6 34  1  0
  7 35  1  0
  7 36  1  0
  8 37  1  6
  9 38  1  0
 10 39  1  0
 11 40  1  0
 15 41  1  0
 15 42  1  0
 15 43  1  0
 27 44  1  0
 27 45  1  0
 28 46  1  0
 28 47  1  0
 29 48  1  0
 29 49  1  0
 30 50  1  0
 30 51  1  0
M  ISO  8  31  14  32  14  33  14  34  14  35   8  36   8  37   8  38  14
M  ISO  8  39  14  40  14  41   8  42   8  43   8  44  13  45  13  46  13
M  ISO  5  47  13  48  13  49  13  50  13  51  13
M  END
>  <minimizedAffinity>  (1) 
-5.6180644

>  <minimizedRMSD>  (1) 
1.88889277

$$$$
