
     RDKit          3D

 19 20  0  0  0  0  0  0  0  0999 V2000
   39.9400   22.7620   37.5960 C   0  0  0  0  0  0  0  0  0  0  0  0
   39.0390   23.3090   38.5460 C   0  0  0  0  0  0  0  0  0  0  0  0
   37.6850   23.4270   38.1810 C   0  0  0  0  0  0  0  0  0  0  0  0
   37.3280   23.0130   36.9530 N   0  0  0  0  0  0  0  0  0  0  0  0
   38.1900   22.5000   36.0690 C   0  0  0  0  0  0  0  0  0  0  0  0
   39.4920   22.3750   36.3910 N   0  0  0  0  0  0  0  0  0  0  0  0
   37.8130   22.0580   34.7670 N   0  0  0  0  0  0  0  0  0  0  0  0
   38.2820   22.1790   33.4930 C   0  0  0  0  0  0  0  0  0  0  0  0
   37.4530   21.5090   32.6730 N   0  0  0  0  0  0  0  0  0  0  0  0
   36.4690   20.9720   33.4420 C   0  0  0  0  0  0  0  0  0  0  0  0
   36.6960   21.3110   34.7160 N   0  0  0  0  0  0  0  0  0  0  0  0
   35.3550   20.1620   32.9540 C   0  0  0  0  0  0  0  0  0  0  0  0
   34.4710   20.6030   32.1810 O   0  0  0  0  0  0  0  0  0  0  0  0
   35.2200   18.8370   33.3290 O   0  0  0  0  0  0  0  0  0  0  0  0
   41.0057   22.6550   37.8469 H   0  0  0  0  0  0  0  0  0  0  0  0
   39.3884   23.6312   39.5380 H   0  0  0  0  0  0  0  0  0  0  0  0
   36.9431   23.8443   38.8778 H   0  0  0  0  0  0  0  0  0  0  0  0
   39.1838   22.7301   33.1879 H   0  0  0  0  0  0  0  0  0  0  0  0
   34.4596   18.3015   32.9897 H   0  0  0  0  0  0  0  0  0  0  0  0
  1  2  2  0
  3  2  1  0
  4  3  2  0
  5  6  2  0
  5  4  1  0
  6  1  1  0
  7  5  1  0
  8  7  1  0
  9 10  1  0
  9  8  2  0
 10 11  2  0
 11  7  1  0
 12 14  1  0
 12 10  1  0
 13 12  2  0
  1 15  1  0
  2 16  1  0
  3 17  1  0
  8 18  1  0
 14 19  1  0
M  ISO  5  15  14  16  14  17  14  18  14  19   3
M  END
>  <minimizedAffinity>  (1) 
-4.3644371

>  <minimizedRMSD>  (1) 
0.995770514

$$$$
