
     RDKit          3D

 18 19  0  0  0  0  0  0  0  0999 V2000
   39.9760   22.7150   37.6490 C   0  0  0  0  0  0  0  0  0  0  0  0
   39.1060   23.3280   38.5550 C   0  0  0  0  0  0  0  0  0  0  0  0
   37.7790   23.5140   38.1630 C   0  0  0  0  0  0  0  0  0  0  0  0
   37.3930   23.0960   36.9340 N   0  0  0  0  0  0  0  0  0  0  0  0
   38.2690   22.5030   36.0820 C   0  0  0  0  0  0  0  0  0  0  0  0
   39.5670   22.3090   36.4350 N   0  0  0  0  0  0  0  0  0  0  0  0
   37.9000   22.0530   34.7860 N   0  0  0  0  0  0  0  0  0  0  0  0
   38.3910   22.0860   33.5200 C   0  0  0  0  0  0  0  0  0  0  0  0
   37.5440   21.4580   32.6990 N   0  0  0  0  0  0  0  0  0  0  0  0
   36.5120   21.0220   33.4360 C   0  0  0  0  0  0  0  0  0  0  0  0
   36.7470   21.3900   34.6890 N   0  0  0  0  0  0  0  0  0  0  0  0
   35.3140   20.2710   33.0020 C   0  0  0  0  0  0  0  0  0  0  0  0
   35.3060   18.9940   32.9990 O   0  0  0  0  0  0  0  0  0  0  0  0
   41.0260   22.5604   37.9381 H   0  0  0  0  0  0  0  0  0  0  0  0
   39.4558   23.6537   39.5457 H   0  0  0  0  0  0  0  0  0  0  0  0
   37.0580   23.9927   38.8420 H   0  0  0  0  0  0  0  0  0  0  0  0
   39.3383   22.5564   33.2176 H   0  0  0  0  0  0  0  0  0  0  0  0
   34.4177   20.8199   32.6774 H   0  0  0  0  0  0  0  0  0  0  0  0
  1  2  2  0
  3  2  1  0
  4  3  2  0
  5  6  2  0
  5  4  1  0
  6  1  1  0
  7  5  1  0
  8  7  1  0
  9 10  1  0
  9  8  2  0
 10 11  2  0
 11  7  1  0
 12 10  1  0
 13 12  2  0
  1 14  1  0
  2 15  1  0
  3 16  1  0
  8 17  1  0
 12 18  1  0
M  ISO  5  14  14  15  14  16  14  17  14  18   6
M  END
>  <minimizedAffinity>  (1) 
-3.96384454

>  <minimizedRMSD>  (1) 
0.991849661

$$$$
