
     RDKit          3D

 53 57  0  0  1  0  0  0  0  0999 V2000
   37.8370   22.8330   33.7950 C   0  0  0  0  0  0  0  0  0  0  0  0
   36.8370   21.9900   33.3400 C   0  0  0  0  0  0  0  0  0  0  0  0
   36.4920   21.2410   34.4320 N   0  0  0  0  0  0  0  0  0  0  0  0
   37.2690   21.6520   35.4490 C   0  0  0  0  0  0  0  0  0  0  0  0
   38.1060   22.6270   35.0940 N   0  0  0  0  0  0  0  0  0  0  0  0
   39.0720   23.3100   35.8870 C   0  0  1  0  0  0  0  0  0  0  0  0
   38.5720   24.5900   36.4430 C   0  0  0  0  0  0  0  0  0  0  0  0
   37.8880   24.1580   37.7270 C   0  0  0  0  0  0  0  0  0  0  0  0
   38.8330   23.1620   38.2800 C   0  0  0  0  0  0  0  0  0  0  0  0
   39.4980   22.5270   37.1020 C   0  0  2  0  0  0  0  0  0  0  0  0
   41.0150   22.6170   37.2000 C   0  0  0  0  0  0  0  0  0  0  0  0
   41.7190   21.7740   36.1390 C   0  0  0  0  0  0  0  0  0  0  0  0
   41.8500   21.4770   37.6010 C   0  0  0  0  0  0  0  0  0  0  0  0
   38.5280   23.8280   32.9880 C   0  0  0  0  0  0  0  0  0  0  0  0
   39.6120   23.4600   32.1940 C   0  0  0  0  0  0  0  0  0  0  0  0
   40.2400   24.4900   31.4430 C   0  0  0  0  0  0  0  0  0  0  0  0
   39.7640   25.7450   31.5370 N   0  0  0  0  0  0  0  0  0  0  0  0
   38.7160   26.0570   32.3140 C   0  0  0  0  0  0  0  0  0  0  0  0
   38.0870   25.1120   33.0450 N   0  0  0  0  0  0  0  0  0  0  0  0
   38.2460   27.4760   32.3650 C   0  0  0  0  0  0  0  0  0  0  0  0
   37.2480   27.7230   33.4600 C   0  0  0  0  0  0  0  0  0  0  0  0
   36.2530   28.7450   32.9280 C   0  0  0  0  0  0  0  0  0  0  0  0
   35.3880   28.0010   31.9150 C   0  0  0  0  0  0  0  0  0  0  0  0
   36.2810   27.5320   30.7870 C   0  0  0  0  0  0  0  0  0  0  0  0
   37.7300   27.9160   30.9950 C   0  0  0  0  0  0  0  0  0  0  0  0
   36.4140   21.9347   32.3261 H   0  0  0  0  0  0  0  0  0  0  0  0
   37.2196   21.2298   36.4636 H   0  0  0  0  0  0  0  0  0  0  0  0
   39.9010   23.4635   35.1805 H   0  0  0  0  0  0  0  0  0  0  0  0
   39.4014   25.2823   36.6500 H   0  0  0  0  0  0  0  0  0  0  0  0
   37.9044   25.1306   35.7560 H   0  0  0  0  0  0  0  0  0  0  0  0
   37.7605   25.0078   38.4138 H   0  0  0  0  0  0  0  0  0  0  0  0
   36.8755   23.7582   37.5690 H   0  0  0  0  0  0  0  0  0  0  0  0
   39.5790   23.6567   38.9193 H   0  0  0  0  0  0  0  0  0  0  0  0
   38.3149   22.4162   38.9007 H   0  0  0  0  0  0  0  0  0  0  0  0
   39.2140   21.4654   37.0530 H   0  0  0  0  0  0  0  0  0  0  0  0
   40.9901   23.6548   37.5637 H   0  0  0  0  0  0  0  0  0  0  0  0
   41.1388   21.1051   35.4864 H   0  0  0  0  0  0  0  0  0  0  0  0
   42.4133   21.9700   35.3086 H   0  0  0  0  0  0  0  0  0  0  0  0
   42.8088   21.6565   38.1093 H   0  0  0  0  0  0  0  0  0  0  0  0
   41.6805   20.5832   38.2194 H   0  0  0  0  0  0  0  0  0  0  0  0
   39.9657   22.4193   32.1504 H   0  0  0  0  0  0  0  0  0  0  0  0
   41.1006   24.2652   30.7958 H   0  0  0  0  0  0  0  0  0  0  0  0
   39.1138   28.1024   32.6190 H   0  0  0  0  0  0  0  0  0  0  0  0
   36.7290   26.7878   33.7170 H   0  0  0  0  0  0  0  0  0  0  0  0
   37.7442   28.0926   34.3695 H   0  0  0  0  0  0  0  0  0  0  0  0
   35.6317   29.1360   33.7472 H   0  0  0  0  0  0  0  0  0  0  0  0
   36.7640   29.6037   32.4682 H   0  0  0  0  0  0  0  0  0  0  0  0
   34.9109   27.1351   32.3972 H   0  0  0  0  0  0  0  0  0  0  0  0
   34.6010   28.6642   31.5267 H   0  0  0  0  0  0  0  0  0  0  0  0
   35.9283   27.9826   29.8476 H   0  0  0  0  0  0  0  0  0  0  0  0
   36.2283   26.4337   30.7545 H   0  0  0  0  0  0  0  0  0  0  0  0
   38.3401   27.4374   30.2148 H   0  0  0  0  0  0  0  0  0  0  0  0
   37.8032   29.0122   30.9394 H   0  0  0  0  0  0  0  0  0  0  0  0
  1  5  1  0
  2  1  2  0
  2  3  1  0
  3  4  2  0
  5  4  1  0
  5  6  1  0
  6  7  1  0
  6 10  1  0
  7  8  1  0
  8  9  1  0
 10 11  1  0
 10  9  1  0
 11 13  1  0
 12 11  1  0
 12 13  1  0
 14 19  1  0
 14  1  1  0
 15 14  2  0
 16 17  2  0
 16 15  1  0
 17 18  1  0
 18 20  1  0
 18 19  2  0
 20 21  1  0
 22 21  1  0
 23 22  1  0
 24 25  1  0
 24 23  1  0
 25 20  1  0
  2 26  1  0
  4 27  1  0
  6 28  1  6
  7 29  1  0
  7 30  1  0
  8 31  1  0
  8 32  1  0
  9 33  1  0
  9 34  1  0
 10 35  1  6
 11 36  1  0
 12 37  1  0
 12 38  1  0
 13 39  1  0
 13 40  1  0
 15 41  1  0
 16 42  1  0
 20 43  1  0
 21 44  1  0
 21 45  1  0
 22 46  1  0
 22 47  1  0
 23 48  1  0
 23 49  1  0
 24 50  1  0
 24 51  1  0
 25 52  1  0
 25 53  1  0
M  ISO  8  26  14  27  14  28  13  29  13  30  13  31  13  32  13  33  13
M  ISO  8  34  13  35  13  36  13  37  13  38  13  39  13  40  13  41  14
M  ISO  8  42  14  43  13  44  13  45  13  46  13  47  13  48  13  49  13
M  ISO  4  50  13  51  13  52  13  53  13
M  END
>  <minimizedAffinity>  (1) 
-5.49352169

>  <minimizedRMSD>  (1) 
1.23177755

$$$$
