
     RDKit          3D

 44 48  0  0  1  0  0  0  0  0999 V2000
   37.6290   23.6240   33.3300 C   0  0  0  0  0  0  0  0  0  0  0  0
   36.8170   22.7660   32.6040 C   0  0  0  0  0  0  0  0  0  0  0  0
   36.8040   21.6080   33.3330 N   0  0  0  0  0  0  0  0  0  0  0  0
   37.5760   21.8160   34.4150 C   0  0  0  0  0  0  0  0  0  0  0  0
   38.0980   23.0440   34.4450 N   0  0  0  0  0  0  0  0  0  0  0  0
   38.9550   23.6260   35.4190 C   0  0  1  0  0  0  0  0  0  0  0  0
   38.3510   24.7880   36.1070 C   0  0  0  0  0  0  0  0  0  0  0  0
   37.5730   24.1450   37.2410 C   0  0  0  0  0  0  0  0  0  0  0  0
   38.5110   23.1090   37.7290 C   0  0  0  0  0  0  0  0  0  0  0  0
   39.3050   22.6780   36.5420 C   0  0  2  0  0  0  0  0  0  0  0  0
   40.8030   22.8030   36.7930 C   0  0  0  0  0  0  0  0  0  0  0  0
   41.6060   21.7350   36.0510 C   0  0  0  0  0  0  0  0  0  0  0  0
   41.5640   21.7980   37.5430 C   0  0  0  0  0  0  0  0  0  0  0  0
   37.9500   24.9970   32.9500 C   0  0  0  0  0  0  0  0  0  0  0  0
   39.1530   25.2730   32.3040 C   0  0  0  0  0  0  0  0  0  0  0  0
   39.4050   26.6280   31.9730 C   0  0  0  0  0  0  0  0  0  0  0  0
   38.4820   27.5560   32.2960 N   0  0  0  0  0  0  0  0  0  0  0  0
   37.3440   27.2470   32.9140 C   0  0  0  0  0  0  0  0  0  0  0  0
   37.0590   25.9690   33.2500 N   0  0  0  0  0  0  0  0  0  0  0  0
   36.3030   28.2130   33.2900 C   0  0  0  0  0  0  0  0  0  0  0  0
   35.9480   29.0140   34.3570 C   0  0  0  0  0  0  0  0  0  0  0  0
   34.7950   29.6740   33.9620 C   0  0  0  0  0  0  0  0  0  0  0  0
   34.5000   29.2500   32.6800 C   0  0  0  0  0  0  0  0  0  0  0  0
   35.4140   28.3850   32.3150 O   0  0  0  0  0  0  0  0  0  0  0  0
   36.2995   22.9703   31.6551 H   0  0  0  0  0  0  0  0  0  0  0  0
   37.7572   21.0569   35.1902 H   0  0  0  0  0  0  0  0  0  0  0  0
   39.8371   23.9105   34.8265 H   0  0  0  0  0  0  0  0  0  0  0  0
   39.1264   25.4657   36.4936 H   0  0  0  0  0  0  0  0  0  0  0  0
   37.7248   25.4061   35.4468 H   0  0  0  0  0  0  0  0  0  0  0  0
   37.3436   24.8764   38.0300 H   0  0  0  0  0  0  0  0  0  0  0  0
   36.5985   23.7411   36.9293 H   0  0  0  0  0  0  0  0  0  0  0  0
   39.1742   23.5273   38.5005 H   0  0  0  0  0  0  0  0  0  0  0  0
   37.9745   22.2626   38.1826 H   0  0  0  0  0  0  0  0  0  0  0  0
   39.0745   21.6270   36.3135 H   0  0  0  0  0  0  0  0  0  0  0  0
   40.7573   23.8972   36.8967 H   0  0  0  0  0  0  0  0  0  0  0  0
   41.0900   20.9250   35.5147 H   0  0  0  0  0  0  0  0  0  0  0  0
   42.3937   21.7315   35.2832 H   0  0  0  0  0  0  0  0  0  0  0  0
   42.4629   22.1005   38.1002 H   0  0  0  0  0  0  0  0  0  0  0  0
   41.3072   21.0760   38.3322 H   0  0  0  0  0  0  0  0  0  0  0  0
   39.8730   24.4773   32.0623 H   0  0  0  0  0  0  0  0  0  0  0  0
   40.3356   26.9167   31.4625 H   0  0  0  0  0  0  0  0  0  0  0  0
   36.4712   29.1087   35.3200 H   0  0  0  0  0  0  0  0  0  0  0  0
   34.2218   30.3997   34.5576 H   0  0  0  0  0  0  0  0  0  0  0  0
   33.6457   29.5814   32.0714 H   0  0  0  0  0  0  0  0  0  0  0  0
  1  5  1  0
  2  1  2  0
  2  3  1  0
  3  4  2  0
  4  5  1  0
  5  6  1  0
  6  7  1  0
  6 10  1  0
  7  8  1  0
  8  9  1  0
 10 11  1  0
 10  9  1  0
 11 13  1  0
 12 11  1  0
 12 13  1  0
 14 19  1  0
 14  1  1  0
 15 14  2  0
 16 17  2  0
 16 15  1  0
 17 18  1  0
 18 19  2  0
 18 20  1  0
 20 21  2  0
 22 21  1  0
 23 22  2  0
 24 23  1  0
 24 20  1  0
  2 25  1  0
  4 26  1  0
  6 27  1  6
  7 28  1  0
  7 29  1  0
  8 30  1  0
  8 31  1  0
  9 32  1  0
  9 33  1  0
 10 34  1  6
 11 35  1  0
 12 36  1  0
 12 37  1  0
 13 38  1  0
 13 39  1  0
 15 40  1  0
 16 41  1  0
 21 42  1  0
 22 43  1  0
 23 44  1  0
M  ISO  8  25  14  26  14  27  13  28  13  29  13  30  13  31  13  32  13
M  ISO  8  33  13  34  13  35  13  36  13  37  13  38  13  39  13  40  14
M  ISO  4  41  14  42  14  43  14  44  14
M  END
>  <minimizedAffinity>  (1) 
-5.48678255

>  <minimizedRMSD>  (1) 
0.522096932

$$$$
