
     RDKit          3D

 31 33  0  0  1  0  0  0  0  0999 V2000
   40.0450   22.7090   37.6930 C   0  0  0  0  0  0  0  0  0  0  0  0
   39.1930   23.3260   38.6220 C   0  0  0  0  0  0  0  0  0  0  0  0
   37.8690   23.5230   38.2520 C   0  0  0  0  0  0  0  0  0  0  0  0
   37.4710   23.1140   37.0290 N   0  0  0  0  0  0  0  0  0  0  0  0
   38.3010   22.5230   36.1510 C   0  0  0  0  0  0  0  0  0  0  0  0
   39.5920   22.3190   36.4840 N   0  0  0  0  0  0  0  0  0  0  0  0
   37.9110   22.0790   34.8630 N   0  0  0  0  0  0  0  0  0  0  0  0
   38.3820   22.0890   33.6000 C   0  0  0  0  0  0  0  0  0  0  0  0
   37.5010   21.4710   32.7940 N   0  0  0  0  0  0  0  0  0  0  0  0
   36.4570   21.0660   33.5700 C   0  0  0  0  0  0  0  0  0  0  0  0
   36.7220   21.4420   34.8130 N   0  0  0  0  0  0  0  0  0  0  0  0
   35.2490   20.3300   33.1000 C   0  0  1  0  0  0  0  0  0  0  0  0
   34.7290   20.9050   31.8140 C   0  0  0  0  0  0  0  0  0  0  0  0
   35.6280   18.8740   32.8300 C   0  0  0  0  0  0  0  0  0  0  0  0
   36.4430   18.7140   31.6630 N   0  0  0  0  0  0  0  0  0  0  0  0
   37.6560   18.1040   31.6680 C   0  0  0  0  0  0  0  0  0  0  0  0
   38.1490   18.1210   30.4220 N   0  0  0  0  0  0  0  0  0  0  0  0
   37.2600   18.7360   29.6300 C   0  0  0  0  0  0  0  0  0  0  0  0
   36.2100   19.0950   30.4170 N   0  0  0  0  0  0  0  0  0  0  0  0
   41.0999   22.5407   37.9553 H   0  0  0  0  0  0  0  0  0  0  0  0
   39.5612   23.6426   39.6090 H   0  0  0  0  0  0  0  0  0  0  0  0
   37.1590   24.0027   38.9418 H   0  0  0  0  0  0  0  0  0  0  0  0
   39.3362   22.5326   33.2795 H   0  0  0  0  0  0  0  0  0  0  0  0
   34.4764   20.4123   33.8787 H   0  0  0  0  0  0  0  0  0  0  0  0
   34.0063   21.7042   32.0354 H   0  0  0  0  0  0  0  0  0  0  0  0
   35.5660   21.3185   31.2323 H   0  0  0  0  0  0  0  0  0  0  0  0
   34.2338   20.1136   31.2323 H   0  0  0  0  0  0  0  0  0  0  0  0
   36.1814   18.4891   33.6992 H   0  0  0  0  0  0  0  0  0  0  0  0
   34.6946   18.3180   32.6577 H   0  0  0  0  0  0  0  0  0  0  0  0
   38.1515   17.6684   32.5482 H   0  0  0  0  0  0  0  0  0  0  0  0
   37.3602   18.9162   28.5495 H   0  0  0  0  0  0  0  0  0  0  0  0
  1  2  2  0
  3  2  1  0
  4  3  2  0
  5  6  2  0
  5  4  1  0
  6  1  1  0
  7  5  1  0
  8  7  1  0
  9 10  1  0
  9  8  2  0
 10 11  2  0
 11  7  1  0
 12 10  1  0
 13 12  1  0
 14 12  1  0
 15 16  1  0
 15 14  1  0
 17 16  2  0
 18 19  2  0
 18 17  1  0
 19 15  1  0
  1 20  1  0
  2 21  1  0
  3 22  1  0
  8 23  1  0
 12 24  1  1
 13 25  1  0
 13 26  1  0
 13 27  1  0
 14 28  1  0
 14 29  1  0
 16 30  1  0
 18 31  1  0
M  ISO  8  20  14  21  14  22  14  23  14  24   8  25   8  26   8  27   8
M  ISO  4  28   8  29   8  30  14  31  14
M  END
>  <minimizedAffinity>  (1) 
-4.72891665

>  <minimizedRMSD>  (1) 
0.467997015

$$$$
