
     RDKit          3D

 26 27  0  0  1  0  0  0  0  0999 V2000
   39.9480   22.7140   37.8210 C   0  0  0  0  0  0  0  0  0  0  0  0
   38.9850   23.3700   38.5780 C   0  0  0  0  0  0  0  0  0  0  0  0
   37.7720   23.6780   37.9870 C   0  0  0  0  0  0  0  0  0  0  0  0
   37.5920   23.3160   36.6890 N   0  0  0  0  0  0  0  0  0  0  0  0
   38.5380   22.6810   35.9760 C   0  0  0  0  0  0  0  0  0  0  0  0
   39.7280   22.3740   36.5390 N   0  0  0  0  0  0  0  0  0  0  0  0
   38.3640   22.2870   34.6160 N   0  0  0  0  0  0  0  0  0  0  0  0
   39.0630   22.3020   33.4610 C   0  0  0  0  0  0  0  0  0  0  0  0
   38.3080   21.7540   32.4910 N   0  0  0  0  0  0  0  0  0  0  0  0
   37.1200   21.3930   33.0550 C   0  0  0  0  0  0  0  0  0  0  0  0
   37.1690   21.7230   34.3400 N   0  0  0  0  0  0  0  0  0  0  0  0
   35.9780   20.7350   32.3460 C   0  0  1  0  0  0  0  0  0  0  0  0
   35.5050   21.5770   31.1930 C   0  0  0  0  0  0  0  0  0  0  0  0
   36.4600   19.3980   31.7750 C   0  0  0  0  0  0  0  0  0  0  0  0
   35.3960   18.1250   32.5220 S   0  0  0  0  0  0  0  0  0  0  0  0
   40.9153   22.4665   38.2825 H   0  0  0  0  0  0  0  0  0  0  0  0
   39.1828   23.6391   39.6261 H   0  0  0  0  0  0  0  0  0  0  0  0
   36.9812   24.1976   38.5479 H   0  0  0  0  0  0  0  0  0  0  0  0
   40.0817   22.6970   33.3338 H   0  0  0  0  0  0  0  0  0  0  0  0
   35.1554   20.5986   33.0634 H   0  0  0  0  0  0  0  0  0  0  0  0
   35.0003   22.4754   31.5778 H   0  0  0  0  0  0  0  0  0  0  0  0
   36.3674   21.8756   30.5789 H   0  0  0  0  0  0  0  0  0  0  0  0
   34.8013   20.9958   30.5789 H   0  0  0  0  0  0  0  0  0  0  0  0
   36.3557   19.3896   30.6800 H   0  0  0  0  0  0  0  0  0  0  0  0
   37.5218   19.2211   32.0015 H   0  0  0  0  0  0  0  0  0  0  0  0
   35.4690   18.2124   33.8873 H   0  0  0  0  0  0  0  0  0  0  0  0
  1  2  2  0
  3  2  1  0
  4  3  2  0
  5  6  2  0
  5  4  1  0
  6  1  1  0
  7  5  1  0
  8  7  1  0
  9 10  1  0
  9  8  2  0
 10 11  2  0
 11  7  1  0
 12 10  1  0
 13 12  1  0
 14 12  1  0
 14 15  1  0
  1 16  1  0
  2 17  1  0
  3 18  1  0
  8 19  1  0
 12 20  1  1
 13 21  1  0
 13 22  1  0
 13 23  1  0
 14 24  1  0
 14 25  1  0
 15 26  1  0
M  ISO  8  16  14  17  14  18  14  19  14  20   8  21   8  22   8  23   8
M  ISO  3  24   8  25   8  26  11
M  END
>  <minimizedAffinity>  (1) 
-4.29197264

>  <minimizedRMSD>  (1) 
0.897555113

$$$$
