
     RDKit          3D

 26 27  0  0  1  0  0  0  0  0999 V2000
   40.0360   22.6350   37.7200 C   0  0  0  0  0  0  0  0  0  0  0  0
   39.2090   23.3990   38.5350 C   0  0  0  0  0  0  0  0  0  0  0  0
   37.9210   23.7060   38.0850 C   0  0  0  0  0  0  0  0  0  0  0  0
   37.5450   23.2390   36.8700 N   0  0  0  0  0  0  0  0  0  0  0  0
   38.3620   22.5000   36.0970 C   0  0  0  0  0  0  0  0  0  0  0  0
   39.6070   22.1970   36.5190 N   0  0  0  0  0  0  0  0  0  0  0  0
   38.0050   21.9920   34.8160 N   0  0  0  0  0  0  0  0  0  0  0  0
   38.5460   21.8600   33.5870 C   0  0  0  0  0  0  0  0  0  0  0  0
   37.6600   21.2660   32.7740 N   0  0  0  0  0  0  0  0  0  0  0  0
   36.5410   21.0240   33.5140 C   0  0  0  0  0  0  0  0  0  0  0  0
   36.7630   21.4680   34.7450 N   0  0  0  0  0  0  0  0  0  0  0  0
   35.2850   20.3610   33.0270 C   0  0  1  0  0  0  0  0  0  0  0  0
   34.9120   20.8720   31.6610 C   0  0  0  0  0  0  0  0  0  0  0  0
   35.5470   18.8580   32.8880 C   0  0  0  0  0  0  0  0  0  0  0  0
   34.5700   18.3170   32.0710 O   0  0  0  0  0  0  0  0  0  0  0  0
   41.0522   22.3848   38.0586 H   0  0  0  0  0  0  0  0  0  0  0  0
   39.5606   23.7551   39.5146 H   0  0  0  0  0  0  0  0  0  0  0  0
   37.2345   24.3080   38.6984 H   0  0  0  0  0  0  0  0  0  0  0  0
   39.5552   22.1880   33.2973 H   0  0  0  0  0  0  0  0  0  0  0  0
   34.4775   20.5736   33.7431 H   0  0  0  0  0  0  0  0  0  0  0  0
   34.2663   21.7566   31.7641 H   0  0  0  0  0  0  0  0  0  0  0  0
   35.8240   21.1459   31.1104 H   0  0  0  0  0  0  0  0  0  0  0  0
   34.3731   20.0869   31.1104 H   0  0  0  0  0  0  0  0  0  0  0  0
   36.5382   18.6937   32.4403 H   0  0  0  0  0  0  0  0  0  0  0  0
   35.5208   18.3772   33.8770 H   0  0  0  0  0  0  0  0  0  0  0  0
   33.8549   17.9210   32.6295 H   0  0  0  0  0  0  0  0  0  0  0  0
  1  2  2  0
  3  2  1  0
  4  3  2  0
  5  6  2  0
  5  4  1  0
  6  1  1  0
  7  5  1  0
  8  7  1  0
  9 10  1  0
  9  8  2  0
 10 11  2  0
 11  7  1  0
 12 10  1  0
 13 12  1  0
 14 12  1  0
 15 14  1  0
  1 16  1  0
  2 17  1  0
  3 18  1  0
  8 19  1  0
 12 20  1  1
 13 21  1  0
 13 22  1  0
 13 23  1  0
 14 24  1  0
 14 25  1  0
 15 26  1  0
M  ISO  8  16  14  17  14  18  14  19  14  20   8  21   8  22   8  23   8
M  ISO  3  24   8  25   8  26   3
M  END
>  <minimizedAffinity>  (1) 
-4.87735605

>  <minimizedRMSD>  (1) 
0.121627681

$$$$
