
     RDKit          3D

 32 33  0  0  1  0  0  0  0  0999 V2000
   35.6510   21.4430   32.5360 C   0  0  1  0  0  0  0  0  0  0  0  0
   40.7750   25.7170   34.7490 C   0  0  0  0  0  0  0  0  0  0  0  0
   40.1540   26.9550   34.6170 C   0  0  0  0  0  0  0  0  0  0  0  0
   38.9800   27.0050   33.8840 C   0  0  0  0  0  0  0  0  0  0  0  0
   38.4870   25.8580   33.3300 N   0  0  0  0  0  0  0  0  0  0  0  0
   39.1190   24.6810   33.4830 C   0  0  0  0  0  0  0  0  0  0  0  0
   40.2800   24.5970   34.2000 N   0  0  0  0  0  0  0  0  0  0  0  0
   38.6590   23.4520   32.9380 N   0  0  0  0  0  0  0  0  0  0  0  0
   39.1440   22.3790   32.2840 C   0  0  0  0  0  0  0  0  0  0  0  0
   38.1440   21.5130   32.0450 N   0  0  0  0  0  0  0  0  0  0  0  0
   37.0050   22.0560   32.5610 C   0  0  0  0  0  0  0  0  0  0  0  0
   37.3370   23.2280   33.0950 N   0  0  0  0  0  0  0  0  0  0  0  0
   35.5170   20.4830   31.3820 C   0  0  0  0  0  0  0  0  0  0  0  0
   35.4370   20.6510   33.8270 C   0  0  0  0  0  0  0  0  0  0  0  0
   36.4620   20.9780   34.8000 N   0  0  0  0  0  0  0  0  0  0  0  0
   36.1380   21.3190   36.1530 C   0  0  0  0  0  0  0  0  0  0  0  0
   35.0700   20.7800   36.6460 N   0  0  0  0  0  0  0  0  0  0  0  0
   37.0100   22.2230   36.8620 N   0  0  0  0  0  0  0  0  0  0  0  0
   34.7500   20.9670   37.6290 H   0  0  0  0  0  0  0  0  0  0  0  0
   34.9101   22.2495   32.4327 H   0  0  0  0  0  0  0  0  0  0  0  0
   41.7091   25.6537   35.3265 H   0  0  0  0  0  0  0  0  0  0  0  0
   40.5791   27.8592   35.0771 H   0  0  0  0  0  0  0  0  0  0  0  0
   38.4497   27.9593   33.7493 H   0  0  0  0  0  0  0  0  0  0  0  0
   40.1944   22.2340   31.9912 H   0  0  0  0  0  0  0  0  0  0  0  0
   35.3746   19.4629   31.7683 H   0  0  0  0  0  0  0  0  0  0  0  0
   34.6498   20.7668   30.7677 H   0  0  0  0  0  0  0  0  0  0  0  0
   36.4288   20.5185   30.7677 H   0  0  0  0  0  0  0  0  0  0  0  0
   34.4498   20.8988   34.2442 H   0  0  0  0  0  0  0  0  0  0  0  0
   35.4935   19.5765   33.5985 H   0  0  0  0  0  0  0  0  0  0  0  0
   37.4502   20.9646   34.5099 H   0  0  0  0  0  0  0  0  0  0  0  0
   36.7993   22.4841   37.8358 H   0  0  0  0  0  0  0  0  0  0  0  0
   37.8434   22.6074   36.3945 H   0  0  0  0  0  0  0  0  0  0  0  0
  1 11  1  0
  1 14  1  0
  3  2  2  0
  4  3  1  0
  5  6  1  0
  5  4  2  0
  6  7  2  0
  7  2  1  0
  8 12  1  0
  8  6  1  0
  9  8  1  0
 10  9  2  0
 10 11  1  0
 11 12  2  0
 13  1  1  0
 14 15  1  0
 15 16  1  0
 16 17  2  0
 16 18  1  0
 17 19  1  0
  1 20  1  6
  2 21  1  0
  3 22  1  0
  4 23  1  0
  9 24  1  0
 13 25  1  0
 13 26  1  0
 13 27  1  0
 14 28  1  0
 14 29  1  0
 15 30  1  0
 18 31  1  0
 18 32  1  0
M  ISO  8  20   8  21  14  22  14  23  14  24  14  25   8  26   8  27   8
M  ISO  2  28   8  29   8
M  END
>  <minimizedAffinity>  (1) 
-4.27831745

>  <minimizedRMSD>  (1) 
3.09963489

$$$$
