
     RDKit          3D

 43 47  0  0  1  0  0  0  0  0999 V2000
   37.6320   23.6110   33.3150 C   0  0  0  0  0  0  0  0  0  0  0  0
   36.8180   22.7540   32.5960 C   0  0  0  0  0  0  0  0  0  0  0  0
   36.7990   21.5990   33.3330 N   0  0  0  0  0  0  0  0  0  0  0  0
   37.5720   21.8100   34.4150 C   0  0  0  0  0  0  0  0  0  0  0  0
   38.0990   23.0390   34.4350 N   0  0  0  0  0  0  0  0  0  0  0  0
   38.9580   23.6270   35.4020 C   0  0  1  0  0  0  0  0  0  0  0  0
   38.3520   24.7880   36.0950 C   0  0  0  0  0  0  0  0  0  0  0  0
   37.5780   24.1520   37.2350 C   0  0  0  0  0  0  0  0  0  0  0  0
   38.5130   23.0990   37.7190 C   0  0  0  0  0  0  0  0  0  0  0  0
   39.3130   22.6800   36.5260 C   0  0  2  0  0  0  0  0  0  0  0  0
   40.8060   22.8050   36.7810 C   0  0  0  0  0  0  0  0  0  0  0  0
   41.6100   21.7230   36.0610 C   0  0  0  0  0  0  0  0  0  0  0  0
   41.5530   21.8000   37.5480 C   0  0  0  0  0  0  0  0  0  0  0  0
   37.9530   24.9730   32.9260 C   0  0  0  0  0  0  0  0  0  0  0  0
   39.1580   25.2510   32.2670 C   0  0  0  0  0  0  0  0  0  0  0  0
   39.4140   26.6040   31.9310 C   0  0  0  0  0  0  0  0  0  0  0  0
   38.4920   27.5400   32.2640 N   0  0  0  0  0  0  0  0  0  0  0  0
   37.3660   27.2250   32.8890 C   0  0  0  0  0  0  0  0  0  0  0  0
   37.0630   25.9590   33.2340 N   0  0  0  0  0  0  0  0  0  0  0  0
   36.3470   28.2030   33.2700 C   0  0  0  0  0  0  0  0  0  0  0  0
   35.4990   28.3460   32.1400 C   0  0  0  0  0  0  0  0  0  0  0  0
   34.1900   29.6280   32.6830 S   0  0  0  0  0  0  0  0  0  0  0  0
   35.0720   29.7100   34.3500 C   0  0  0  0  0  0  0  0  0  0  0  0
   35.9240   28.9880   34.2410 N   0  0  0  0  0  0  0  0  0  0  0  0
   36.3017   22.9548   31.6457 H   0  0  0  0  0  0  0  0  0  0  0  0
   37.7502   21.0556   35.1955 H   0  0  0  0  0  0  0  0  0  0  0  0
   39.8352   23.9160   34.8045 H   0  0  0  0  0  0  0  0  0  0  0  0
   39.1281   25.4675   36.4770 H   0  0  0  0  0  0  0  0  0  0  0  0
   37.7195   25.4000   35.4351 H   0  0  0  0  0  0  0  0  0  0  0  0
   37.3630   24.8854   38.0261 H   0  0  0  0  0  0  0  0  0  0  0  0
   36.5973   23.7580   36.9301 H   0  0  0  0  0  0  0  0  0  0  0  0
   39.1738   23.5037   38.4997 H   0  0  0  0  0  0  0  0  0  0  0  0
   37.9708   22.2495   38.1599 H   0  0  0  0  0  0  0  0  0  0  0  0
   39.0868   21.6296   36.2904 H   0  0  0  0  0  0  0  0  0  0  0  0
   40.7671   23.9009   36.8676 H   0  0  0  0  0  0  0  0  0  0  0  0
   41.0942   20.9112   35.5272 H   0  0  0  0  0  0  0  0  0  0  0  0
   42.4065   21.7063   35.3026 H   0  0  0  0  0  0  0  0  0  0  0  0
   42.4483   22.1011   38.1117 H   0  0  0  0  0  0  0  0  0  0  0  0
   41.2828   21.0869   38.3408 H   0  0  0  0  0  0  0  0  0  0  0  0
   39.8745   24.4534   32.0210 H   0  0  0  0  0  0  0  0  0  0  0  0
   40.3409   26.8882   31.4112 H   0  0  0  0  0  0  0  0  0  0  0  0
   35.5779   27.8337   31.1698 H   0  0  0  0  0  0  0  0  0  0  0  0
   34.8112   30.3233   35.2252 H   0  0  0  0  0  0  0  0  0  0  0  0
  1  5  1  0
  2  1  2  0
  2  3  1  0
  3  4  2  0
  4  5  1  0
  5  6  1  0
  6  7  1  0
  6 10  1  0
  7  8  1  0
  8  9  1  0
 10 11  1  0
 10  9  1  0
 11 13  1  0
 12 11  1  0
 12 13  1  0
 14 19  1  0
 14  1  1  0
 15 14  2  0
 16 17  2  0
 16 15  1  0
 17 18  1  0
 18 19  2  0
 18 20  1  0
 20 24  1  0
 21 22  1  0
 21 20  2  0
 22 23  1  0
 24 23  2  0
  2 25  1  0
  4 26  1  0
  6 27  1  6
  7 28  1  0
  7 29  1  0
  8 30  1  0
  8 31  1  0
  9 32  1  0
  9 33  1  0
 10 34  1  6
 11 35  1  0
 12 36  1  0
 12 37  1  0
 13 38  1  0
 13 39  1  0
 15 40  1  0
 16 41  1  0
 21 42  1  0
 23 43  1  0
M  ISO  8  25  14  26  14  27  13  28  13  29  13  30  13  31  13  32  13
M  ISO  8  33  13  34  13  35  13  36  13  37  13  38  13  39  13  40  14
M  ISO  3  41  14  42  14  43  14
M  END
>  <minimizedAffinity>  (1) 
-5.35626411

>  <minimizedRMSD>  (1) 
0.506546557

$$$$
