
     RDKit          3D

 44 48  0  0  1  0  0  0  0  0999 V2000
   38.8990   23.6800   35.2550 C   0  0  1  0  0  0  0  0  0  0  0  0
   38.2720   24.8190   35.9640 C   0  0  0  0  0  0  0  0  0  0  0  0
   37.5290   24.1450   37.1020 C   0  0  0  0  0  0  0  0  0  0  0  0
   38.4940   23.1130   37.5630 C   0  0  0  0  0  0  0  0  0  0  0  0
   39.2910   22.7290   36.3590 C   0  0  2  0  0  0  0  0  0  0  0  0
   40.7830   22.8860   36.6000 C   0  0  0  0  0  0  0  0  0  0  0  0
   41.6000   21.7570   35.9750 C   0  0  0  0  0  0  0  0  0  0  0  0
   41.5500   21.9750   37.4570 C   0  0  0  0  0  0  0  0  0  0  0  0
   37.6080   23.6410   33.1430 C   0  0  0  0  0  0  0  0  0  0  0  0
   36.7910   22.7790   32.4320 C   0  0  0  0  0  0  0  0  0  0  0  0
   36.7400   21.6430   33.1950 N   0  0  0  0  0  0  0  0  0  0  0  0
   37.4970   21.8690   34.2820 C   0  0  0  0  0  0  0  0  0  0  0  0
   38.0460   23.0830   34.2850 N   0  0  0  0  0  0  0  0  0  0  0  0
   37.9660   24.9910   32.7320 C   0  0  0  0  0  0  0  0  0  0  0  0
   39.1760   25.2350   32.0920 C   0  0  0  0  0  0  0  0  0  0  0  0
   39.4560   26.5700   31.7300 C   0  0  0  0  0  0  0  0  0  0  0  0
   38.5480   27.5340   32.0210 N   0  0  0  0  0  0  0  0  0  0  0  0
   37.4020   27.2530   32.6350 C   0  0  0  0  0  0  0  0  0  0  0  0
   37.0810   25.9940   33.0020 N   0  0  0  0  0  0  0  0  0  0  0  0
   36.4770   28.3690   32.9100 C   0  0  0  0  0  0  0  0  0  0  0  0
   35.9530   28.8050   34.0430 C   0  0  0  0  0  0  0  0  0  0  0  0
   35.1050   29.8780   34.0550 C   0  0  0  0  0  0  0  0  0  0  0  0
   34.8500   30.4500   32.8080 C   0  0  0  0  0  0  0  0  0  0  0  0
   35.8260   29.4430   31.6590 S   0  0  0  0  0  0  0  0  0  0  0  0
   39.7645   23.9983   34.6553 H   0  0  0  0  0  0  0  0  0  0  0  0
   39.0337   25.5145   36.3462 H   0  0  0  0  0  0  0  0  0  0  0  0
   37.6191   25.4250   35.3187 H   0  0  0  0  0  0  0  0  0  0  0  0
   37.3016   24.8612   37.9053 H   0  0  0  0  0  0  0  0  0  0  0  0
   36.5575   23.7272   36.7995 H   0  0  0  0  0  0  0  0  0  0  0  0
   39.1523   23.5257   38.3417 H   0  0  0  0  0  0  0  0  0  0  0  0
   37.9783   22.2447   37.9991 H   0  0  0  0  0  0  0  0  0  0  0  0
   39.0904   21.6761   36.1115 H   0  0  0  0  0  0  0  0  0  0  0  0
   40.7261   23.9845   36.5878 H   0  0  0  0  0  0  0  0  0  0  0  0
   41.0952   20.8901   35.5237 H   0  0  0  0  0  0  0  0  0  0  0  0
   42.3911   21.6827   35.2143 H   0  0  0  0  0  0  0  0  0  0  0  0
   42.4424   22.3446   37.9833 H   0  0  0  0  0  0  0  0  0  0  0  0
   41.2971   21.3374   38.3169 H   0  0  0  0  0  0  0  0  0  0  0  0
   36.2935   22.9651   31.4687 H   0  0  0  0  0  0  0  0  0  0  0  0
   37.6473   21.1308   35.0835 H   0  0  0  0  0  0  0  0  0  0  0  0
   39.8850   24.4219   31.8769 H   0  0  0  0  0  0  0  0  0  0  0  0
   40.3965   26.8246   31.2195 H   0  0  0  0  0  0  0  0  0  0  0  0
   36.2021   28.2987   34.9872 H   0  0  0  0  0  0  0  0  0  0  0  0
   34.6557   30.2630   34.9823 H   0  0  0  0  0  0  0  0  0  0  0  0
   34.2065   31.3115   32.5761 H   0  0  0  0  0  0  0  0  0  0  0  0
  1  2  1  0
  1  5  1  0
  2  3  1  0
  3  4  1  0
  5  6  1  0
  5  4  1  0
  6  8  1  0
  7  6  1  0
  7  8  1  0
  9 13  1  0
 10  9  2  0
 10 11  1  0
 11 12  2  0
 12 13  1  0
 13  1  1  0
 14 19  1  0
 14  9  1  0
 15 14  2  0
 16 17  2  0
 16 15  1  0
 17 18  1  0
 18 20  1  0
 18 19  2  0
 20 21  2  0
 21 22  1  0
 23 22  2  0
 24 23  1  0
 24 20  1  0
  1 25  1  6
  2 26  1  0
  2 27  1  0
  3 28  1  0
  3 29  1  0
  4 30  1  0
  4 31  1  0
  5 32  1  6
  6 33  1  0
  7 34  1  0
  7 35  1  0
  8 36  1  0
  8 37  1  0
 10 38  1  0
 12 39  1  0
 15 40  1  0
 16 41  1  0
 21 42  1  0
 22 43  1  0
 23 44  1  0
M  ISO  8  25  13  26  13  27  13  28  13  29  13  30  13  31  13  32  13
M  ISO  8  33  13  34  13  35  13  36  13  37  13  38  14  39  14  40  14
M  ISO  4  41  14  42  14  43  14  44  14
M  END
>  <minimizedAffinity>  (1) 
-5.35560799

>  <minimizedRMSD>  (1) 
0.643422782

$$$$
