
     RDKit          3D

 39 42  0  0  1  0  0  0  0  0999 V2000
   35.7980   20.2690   32.4960 C   0  0  1  0  0  0  0  0  0  0  0  0
   39.9650   22.6450   37.6620 C   0  0  0  0  0  0  0  0  0  0  0  0
   39.0390   23.3710   38.4140 C   0  0  0  0  0  0  0  0  0  0  0  0
   37.8130   23.6300   37.8480 C   0  0  0  0  0  0  0  0  0  0  0  0
   37.5440   23.1750   36.5870 N   0  0  0  0  0  0  0  0  0  0  0  0
   38.4600   22.4800   35.8940 C   0  0  0  0  0  0  0  0  0  0  0  0
   39.6770   22.2120   36.4310 N   0  0  0  0  0  0  0  0  0  0  0  0
   38.2390   21.9770   34.5790 N   0  0  0  0  0  0  0  0  0  0  0  0
   38.9010   21.9040   33.4040 C   0  0  0  0  0  0  0  0  0  0  0  0
   38.1180   21.2840   32.5030 N   0  0  0  0  0  0  0  0  0  0  0  0
   36.9400   20.9630   33.1340 C   0  0  0  0  0  0  0  0  0  0  0  0
   37.0470   21.3980   34.3880 N   0  0  0  0  0  0  0  0  0  0  0  0
   34.6790   21.2160   32.2000 C   0  0  0  0  0  0  0  0  0  0  0  0
   36.2460   19.6650   31.1880 C   0  0  0  0  0  0  0  0  0  0  0  0
   36.3030   18.1750   31.1980 C   0  0  1  0  0  0  0  0  0  0  0  0
   37.4650   17.4200   31.7430 C   0  0  0  0  0  0  0  0  0  0  0  0
   36.1030   17.4050   32.4340 C   0  0  2  0  0  0  0  0  0  0  0  0
   35.4260   16.0680   32.2210 C   0  0  0  0  0  0  0  0  0  0  0  0
   35.7340   14.8790   32.8780 C   0  0  0  0  0  0  0  0  0  0  0  0
   34.9040   13.9060   32.4080 N   0  0  0  0  0  0  0  0  0  0  0  0
   34.1140   14.4610   31.4990 C   0  0  0  0  0  0  0  0  0  0  0  0
   34.4200   15.7640   31.3790 N   0  0  0  0  0  0  0  0  0  0  0  0
   35.4455   19.4959   33.1946 H   0  0  0  0  0  0  0  0  0  0  0  0
   40.9531   22.4247   38.0923 H   0  0  0  0  0  0  0  0  0  0  0  0
   39.2826   23.7244   39.4268 H   0  0  0  0  0  0  0  0  0  0  0  0
   37.0543   24.1989   38.4054 H   0  0  0  0  0  0  0  0  0  0  0  0
   39.9141   22.2884   33.2149 H   0  0  0  0  0  0  0  0  0  0  0  0
   34.2480   21.5808   33.1440 H   0  0  0  0  0  0  0  0  0  0  0  0
   35.0632   22.0675   31.6191 H   0  0  0  0  0  0  0  0  0  0  0  0
   33.9028   20.6963   31.6191 H   0  0  0  0  0  0  0  0  0  0  0  0
   37.2505   20.0484   30.9556 H   0  0  0  0  0  0  0  0  0  0  0  0
   35.4994   19.9507   30.4324 H   0  0  0  0  0  0  0  0  0  0  0  0
   35.8073   18.2009   30.2164 H   0  0  0  0  0  0  0  0  0  0  0  0
   37.8347   16.5221   31.2262 H   0  0  0  0  0  0  0  0  0  0  0  0
   38.4955   17.6661   32.0387 H   0  0  0  0  0  0  0  0  0  0  0  0
   35.7004   17.6475   33.4285 H   0  0  0  0  0  0  0  0  0  0  0  0
   36.5127   14.7482   33.6439 H   0  0  0  0  0  0  0  0  0  0  0  0
   33.3307   13.9368   30.9319 H   0  0  0  0  0  0  0  0  0  0  0  0
   33.9568   16.4275   30.7417 H   0  0  0  0  0  0  0  0  0  0  0  0
  1 11  1  0
  2  3  2  0
  4  3  1  0
  5  4  2  0
  6  7  2  0
  6  5  1  0
  7  2  1  0
  8  6  1  0
  9  8  1  0
 10 11  1  0
 10  9  2  0
 11 12  2  0
 12  8  1  0
 13  1  1  0
 14 15  1  0
 14  1  1  0
 15 16  1  0
 15 17  1  0
 16 17  1  0
 18 17  1  0
 18 19  2  0
 20 19  1  0
 21 20  2  0
 22 21  1  0
 22 18  1  0
  1 23  1  1
  2 24  1  0
  3 25  1  0
  4 26  1  0
  9 27  1  0
 13 28  1  0
 13 29  1  0
 13 30  1  0
 14 31  1  0
 14 32  1  0
 15 33  1  6
 16 34  1  0
 16 35  1  0
 17 36  1  1
 19 37  1  0
 21 38  1  0
 22 39  1  0
M  ISO  8  23   8  24  14  25  14  26  14  27  14  28   8  29   8  30   8
M  ISO  8  31   8  32   8  33  13  34  13  35  13  36  13  37  14  38  14
M  ISO  1  39   9
M  END
>  <minimizedAffinity>  (1) 
-5.23933887

>  <minimizedRMSD>  (1) 
2.18176818

$$$$
