
     RDKit          3D

 39 42  0  0  1  0  0  0  0  0999 V2000
   36.2570   22.4960   31.9010 C   0  0  1  0  0  0  0  0  0  0  0  0
   39.9820   22.8460   37.8780 C   0  0  0  0  0  0  0  0  0  0  0  0
   38.9950   23.2720   38.7750 C   0  0  0  0  0  0  0  0  0  0  0  0
   37.7960   23.7350   38.2380 C   0  0  0  0  0  0  0  0  0  0  0  0
   37.6340   23.7540   36.8740 N   0  0  0  0  0  0  0  0  0  0  0  0
   38.6190   23.3310   36.0560 C   0  0  0  0  0  0  0  0  0  0  0  0
   39.7870   22.8800   36.5590 N   0  0  0  0  0  0  0  0  0  0  0  0
   38.4960   23.3320   34.6420 N   0  0  0  0  0  0  0  0  0  0  0  0
   39.2420   23.6870   33.5730 C   0  0  0  0  0  0  0  0  0  0  0  0
   38.5490   23.4390   32.4500 N   0  0  0  0  0  0  0  0  0  0  0  0
   37.3380   22.9150   32.8370 C   0  0  0  0  0  0  0  0  0  0  0  0
   37.3470   22.8690   34.1550 N   0  0  0  0  0  0  0  0  0  0  0  0
   35.6280   23.6780   31.2320 C   0  0  0  0  0  0  0  0  0  0  0  0
   36.8530   21.6160   30.8310 C   0  0  0  0  0  0  0  0  0  0  0  0
   36.2740   20.2430   30.7870 C   0  0  1  0  0  0  0  0  0  0  0  0
   36.6040   19.2650   29.7130 C   0  0  0  0  0  0  0  0  0  0  0  0
   37.0770   19.0620   31.1460 C   0  0  2  0  0  0  0  0  0  0  0  0
   36.2710   17.9720   31.8200 C   0  0  0  0  0  0  0  0  0  0  0  0
   36.4810   16.6020   31.7100 C   0  0  0  0  0  0  0  0  0  0  0  0
   35.5240   15.9470   32.4850 C   0  0  0  0  0  0  0  0  0  0  0  0
   34.7730   16.9380   33.0350 N   0  0  0  0  0  0  0  0  0  0  0  0
   35.2110   18.1190   32.6440 N   0  0  0  0  0  0  0  0  0  0  0  0
   35.4893   21.9618   32.4800 H   0  0  0  0  0  0  0  0  0  0  0  0
   40.9403   22.4747   38.2701 H   0  0  0  0  0  0  0  0  0  0  0  0
   39.1601   23.2422   39.8621 H   0  0  0  0  0  0  0  0  0  0  0  0
   36.9878   24.0816   38.8989 H   0  0  0  0  0  0  0  0  0  0  0  0
   40.2558   24.1116   33.6158 H   0  0  0  0  0  0  0  0  0  0  0  0
   35.2562   24.3768   31.9958 H   0  0  0  0  0  0  0  0  0  0  0  0
   36.3757   24.1849   30.6042 H   0  0  0  0  0  0  0  0  0  0  0  0
   34.7899   23.3410   30.6042 H   0  0  0  0  0  0  0  0  0  0  0  0
   36.6842   22.0946   29.8551 H   0  0  0  0  0  0  0  0  0  0  0  0
   37.9215   21.5047   31.0673 H   0  0  0  0  0  0  0  0  0  0  0  0
   35.3331   20.6808   31.1516 H   0  0  0  0  0  0  0  0  0  0  0  0
   35.8196   18.6191   29.2917 H   0  0  0  0  0  0  0  0  0  0  0  0
   37.0858   19.3144   28.7254 H   0  0  0  0  0  0  0  0  0  0  0  0
   38.0388   18.9128   31.6585 H   0  0  0  0  0  0  0  0  0  0  0  0
   37.2678   16.1172   31.1134 H   0  0  0  0  0  0  0  0  0  0  0  0
   35.4029   14.8623   32.6218 H   0  0  0  0  0  0  0  0  0  0  0  0
   33.9744   16.7876   33.6679 H   0  0  0  0  0  0  0  0  0  0  0  0
  1 11  1  0
  2  3  2  0
  4  3  1  0
  5  4  2  0
  6  7  2  0
  6  5  1  0
  7  2  1  0
  8  6  1  0
  9  8  1  0
 10 11  1  0
 10  9  2  0
 11 12  2  0
 12  8  1  0
 13  1  1  0
 14  1  1  0
 15 14  1  0
 15 17  1  0
 16 15  1  0
 16 17  1  0
 17 18  1  0
 18 22  2  0
 19 18  1  0
 19 20  2  0
 20 21  1  0
 22 21  1  0
  1 23  1  1
  2 24  1  0
  3 25  1  0
  4 26  1  0
  9 27  1  0
 13 28  1  0
 13 29  1  0
 13 30  1  0
 14 31  1  0
 14 32  1  0
 15 33  1  1
 16 34  1  0
 16 35  1  0
 17 36  1  6
 19 37  1  0
 20 38  1  0
 21 39  1  0
M  ISO  8  23   8  24  14  25  14  26  14  27  14  28   8  29   8  30   8
M  ISO  8  31   8  32   8  33  13  34  13  35  13  36  13  37  14  38  14
M  ISO  1  39   9
M  END
>  <minimizedAffinity>  (1) 
-5.38248205

>  <minimizedRMSD>  (1) 
1.91639102

$$$$
