
     RDKit          3D

 34 36  0  0  1  0  0  0  0  0999 V2000
   36.2060   21.7230   31.9720 C   0  0  1  0  0  0  0  0  0  0  0  0
   39.9620   22.7480   37.8480 C   0  0  0  0  0  0  0  0  0  0  0  0
   38.9890   23.3210   38.6630 C   0  0  0  0  0  0  0  0  0  0  0  0
   37.8200   23.7460   38.0770 C   0  0  0  0  0  0  0  0  0  0  0  0
   37.6510   23.5920   36.7200 N   0  0  0  0  0  0  0  0  0  0  0  0
   38.6180   23.0320   35.9700 C   0  0  0  0  0  0  0  0  0  0  0  0
   39.7730   22.6090   36.5290 N   0  0  0  0  0  0  0  0  0  0  0  0
   38.4970   22.8430   34.5630 N   0  0  0  0  0  0  0  0  0  0  0  0
   39.2500   23.0120   33.4540 C   0  0  0  0  0  0  0  0  0  0  0  0
   38.5330   22.6350   32.3800 N   0  0  0  0  0  0  0  0  0  0  0  0
   37.3030   22.2210   32.8340 C   0  0  0  0  0  0  0  0  0  0  0  0
   37.3220   22.3620   34.1490 N   0  0  0  0  0  0  0  0  0  0  0  0
   35.5350   22.8470   31.2400 C   0  0  0  0  0  0  0  0  0  0  0  0
   36.7680   20.7770   30.9410 C   0  0  0  0  0  0  0  0  0  0  0  0
   36.2720   19.3780   31.0720 C   0  0  1  0  0  0  0  0  0  0  0  0
   37.0290   18.3150   31.7880 C   0  0  0  0  0  0  0  0  0  0  0  0
   35.7230   18.8800   32.3390 C   0  0  2  0  0  0  0  0  0  0  0  0
   34.6310   17.8990   32.1760 N   0  0  0  0  0  0  0  0  0  0  0  0
   35.4740   21.2193   32.6205 H   0  0  0  0  0  0  0  0  0  0  0  0
   40.9051   22.4024   38.2964 H   0  0  0  0  0  0  0  0  0  0  0  0
   39.1511   23.4306   39.7455 H   0  0  0  0  0  0  0  0  0  0  0  0
   37.0277   24.2046   38.6869 H   0  0  0  0  0  0  0  0  0  0  0  0
   40.2809   23.3952   33.4328 H   0  0  0  0  0  0  0  0  0  0  0  0
   35.1115   23.5564   31.9662 H   0  0  0  0  0  0  0  0  0  0  0  0
   36.2719   23.3649   30.6085 H   0  0  0  0  0  0  0  0  0  0  0  0
   34.7295   22.4441   30.6085 H   0  0  0  0  0  0  0  0  0  0  0  0
   37.8634   20.7670   31.0406 H   0  0  0  0  0  0  0  0  0  0  0  0
   36.4370   21.1426   29.9578 H   0  0  0  0  0  0  0  0  0  0  0  0
   35.8898   19.4716   30.0448 H   0  0  0  0  0  0  0  0  0  0  0  0
   37.0646   17.2921   31.3850 H   0  0  0  0  0  0  0  0  0  0  0  0
   38.0562   18.1959   32.1630 H   0  0  0  0  0  0  0  0  0  0  0  0
   35.3821   19.3632   33.2665 H   0  0  0  0  0  0  0  0  0  0  0  0
   34.2974   17.5993   33.1033 H   0  0  0  0  0  0  0  0  0  0  0  0
   33.8550   18.3324   31.6555 H   0  0  0  0  0  0  0  0  0  0  0  0
  1 11  1  0
  2  3  2  0
  4  3  1  0
  5  4  2  0
  6  7  2  0
  6  5  1  0
  7  2  1  0
  8  6  1  0
  9  8  1  0
 10 11  1  0
 10  9  2  0
 11 12  2  0
 12  8  1  0
 13  1  1  0
 14 15  1  0
 14  1  1  0
 15 16  1  0
 15 17  1  0
 16 17  1  0
 18 17  1  0
  1 19  1  1
  2 20  1  0
  3 21  1  0
  4 22  1  0
  9 23  1  0
 13 24  1  0
 13 25  1  0
 13 26  1  0
 14 27  1  0
 14 28  1  0
 15 29  1  6
 16 30  1  0
 16 31  1  0
 17 32  1  1
 18 33  1  0
 18 34  1  0
M  ISO  8  19   8  20  14  21  14  22  14  23  14  24   8  25   8  26   8
M  ISO  8  27   8  28   8  29  13  30  13  31  13  32  13  33   5  34   5
M  END
>  <minimizedAffinity>  (1) 
-4.9936018

>  <minimizedRMSD>  (1) 
0.719388127

$$$$
