
     RDKit          3D

 35 37  0  0  1  0  0  0  0  0999 V2000
   36.1950   22.0600   31.9080 C   0  0  1  0  0  0  0  0  0  0  0  0
   39.9650   22.7550   37.8310 C   0  0  0  0  0  0  0  0  0  0  0  0
   38.9980   23.2870   38.6810 C   0  0  0  0  0  0  0  0  0  0  0  0
   37.8130   23.7450   38.1110 C   0  0  0  0  0  0  0  0  0  0  0  0
   37.6540   23.6510   36.7610 N   0  0  0  0  0  0  0  0  0  0  0  0
   38.6060   23.1340   35.9790 C   0  0  0  0  0  0  0  0  0  0  0  0
   39.7520   22.6890   36.5120 N   0  0  0  0  0  0  0  0  0  0  0  0
   38.4750   23.0180   34.5670 N   0  0  0  0  0  0  0  0  0  0  0  0
   39.2480   23.2480   33.4690 C   0  0  0  0  0  0  0  0  0  0  0  0
   38.5330   22.9350   32.3740 N   0  0  0  0  0  0  0  0  0  0  0  0
   37.3000   22.5060   32.8010 C   0  0  0  0  0  0  0  0  0  0  0  0
   37.2990   22.5680   34.1300 N   0  0  0  0  0  0  0  0  0  0  0  0
   35.5640   23.2230   31.2060 C   0  0  0  0  0  0  0  0  0  0  0  0
   36.7520   21.1390   30.8540 C   0  0  0  0  0  0  0  0  0  0  0  0
   36.4710   19.6950   31.0960 C   0  0  1  0  0  0  0  0  0  0  0  0
   37.4830   18.7630   31.6470 C   0  0  0  0  0  0  0  0  0  0  0  0
   36.2470   19.1890   32.4640 C   0  0  2  0  0  0  0  0  0  0  0  0
   35.1510   18.1080   32.5370 C   0  0  0  0  0  0  0  0  0  0  0  0
   35.4414   21.5530   32.5285 H   0  0  0  0  0  0  0  0  0  0  0  0
   40.9132   22.3855   38.2486 H   0  0  0  0  0  0  0  0  0  0  0  0
   39.1651   23.3434   39.7668 H   0  0  0  0  0  0  0  0  0  0  0  0
   37.0192   24.1751   38.7395 H   0  0  0  0  0  0  0  0  0  0  0  0
   40.2812   23.6255   33.4769 H   0  0  0  0  0  0  0  0  0  0  0  0
   35.1777   23.9349   31.9503 H   0  0  0  0  0  0  0  0  0  0  0  0
   36.3149   23.7224   30.5761 H   0  0  0  0  0  0  0  0  0  0  0  0
   34.7360   22.8658   30.5761 H   0  0  0  0  0  0  0  0  0  0  0  0
   37.8427   21.2769   30.8164 H   0  0  0  0  0  0  0  0  0  0  0  0
   36.2569   21.4039   29.9081 H   0  0  0  0  0  0  0  0  0  0  0  0
   35.8826   19.6976   30.1666 H   0  0  0  0  0  0  0  0  0  0  0  0
   37.5632   17.7377   31.2567 H   0  0  0  0  0  0  0  0  0  0  0  0
   38.5723   18.7838   31.7987 H   0  0  0  0  0  0  0  0  0  0  0  0
   36.0766   19.6353   33.4549 H   0  0  0  0  0  0  0  0  0  0  0  0
   34.9252   17.8853   33.5903 H   0  0  0  0  0  0  0  0  0  0  0  0
   34.2421   18.4730   32.0364 H   0  0  0  0  0  0  0  0  0  0  0  0
   35.5034   17.1941   32.0364 H   0  0  0  0  0  0  0  0  0  0  0  0
  1 11  1  0
  2  3  2  0
  4  3  1  0
  5  4  2  0
  6  7  2  0
  6  5  1  0
  7  2  1  0
  8  6  1  0
  9  8  1  0
 10 11  1  0
 10  9  2  0
 11 12  2  0
 12  8  1  0
 13  1  1  0
 14 15  1  0
 14  1  1  0
 15 16  1  0
 15 17  1  0
 16 17  1  0
 17 18  1  0
  1 19  1  1
  2 20  1  0
  3 21  1  0
  4 22  1  0
  9 23  1  0
 13 24  1  0
 13 25  1  0
 13 26  1  0
 14 27  1  0
 14 28  1  0
 15 29  1  6
 16 30  1  0
 16 31  1  0
 17 32  1  1
 18 33  1  0
 18 34  1  0
 18 35  1  0
M  ISO  8  19   8  20  14  21  14  22  14  23  14  24   8  25   8  26   8
M  ISO  8  27   8  28   8  29  13  30  13  31  13  32  13  33   8  34   8
M  ISO  1  35   8
M  END
>  <minimizedAffinity>  (1) 
-4.66032505

>  <minimizedRMSD>  (1) 
0.882297695

$$$$
