
     RDKit          3D

 37 40  0  0  1  0  0  0  0  0999 V2000
   36.3060   21.4650   31.9990 C   0  0  1  0  0  0  0  0  0  0  0  0
   39.9730   22.7300   37.8930 C   0  0  0  0  0  0  0  0  0  0  0  0
   38.9840   23.3340   38.6640 C   0  0  0  0  0  0  0  0  0  0  0  0
   37.8210   23.7270   38.0330 C   0  0  0  0  0  0  0  0  0  0  0  0
   37.6750   23.5160   36.6950 N   0  0  0  0  0  0  0  0  0  0  0  0
   38.6620   22.9250   35.9820 C   0  0  0  0  0  0  0  0  0  0  0  0
   39.8010   22.5340   36.5660 N   0  0  0  0  0  0  0  0  0  0  0  0
   38.5550   22.6800   34.5840 N   0  0  0  0  0  0  0  0  0  0  0  0
   39.3280   22.8090   33.4810 C   0  0  0  0  0  0  0  0  0  0  0  0
   38.6290   22.3920   32.4100 N   0  0  0  0  0  0  0  0  0  0  0  0
   37.3920   21.9960   32.8560 C   0  0  0  0  0  0  0  0  0  0  0  0
   37.3860   22.1840   34.1700 N   0  0  0  0  0  0  0  0  0  0  0  0
   35.4010   22.5600   31.5310 C   0  0  0  0  0  0  0  0  0  0  0  0
   36.9060   20.8170   30.7770 C   0  0  0  0  0  0  0  0  0  0  0  0
   36.7220   19.3380   30.7210 C   0  0  1  0  0  0  0  0  0  0  0  0
   37.6670   18.4330   30.0120 C   0  0  0  0  0  0  0  0  0  0  0  0
   37.5530   18.4380   31.5350 C   0  0  2  0  0  0  0  0  0  0  0  0
   36.8220   17.2020   32.0090 C   0  0  0  0  0  0  0  0  0  0  0  0
   37.3520   16.0120   32.3560 N   0  0  0  0  0  0  0  0  0  0  0  0
   36.3970   15.2090   32.7060 O   0  0  0  0  0  0  0  0  0  0  0  0
   35.2330   15.8000   32.6150 C   0  0  0  0  0  0  0  0  0  0  0  0
   35.4730   17.0660   32.1750 N   0  0  0  0  0  0  0  0  0  0  0  0
   35.7305   20.7419   32.5956 H   0  0  0  0  0  0  0  0  0  0  0  0
   40.9096   22.4069   38.3708 H   0  0  0  0  0  0  0  0  0  0  0  0
   39.1249   23.4933   39.7432 H   0  0  0  0  0  0  0  0  0  0  0  0
   37.0159   24.2082   38.6077 H   0  0  0  0  0  0  0  0  0  0  0  0
   40.3590   23.1921   33.4630 H   0  0  0  0  0  0  0  0  0  0  0  0
   34.9724   23.0786   32.4013 H   0  0  0  0  0  0  0  0  0  0  0  0
   35.9748   23.2755   30.9238 H   0  0  0  0  0  0  0  0  0  0  0  0
   34.5902   22.1312   30.9238 H   0  0  0  0  0  0  0  0  0  0  0  0
   36.4355   21.2578   29.8858 H   0  0  0  0  0  0  0  0  0  0  0  0
   37.9897   21.0009   30.8196 H   0  0  0  0  0  0  0  0  0  0  0  0
   35.6419   19.5244   30.6275 H   0  0  0  0  0  0  0  0  0  0  0  0
   37.2871   17.5802   29.4303 H   0  0  0  0  0  0  0  0  0  0  0  0
   38.4810   18.5595   29.2830 H   0  0  0  0  0  0  0  0  0  0  0  0
   38.2274   18.5825   32.3919 H   0  0  0  0  0  0  0  0  0  0  0  0
   34.2522   15.3600   32.8484 H   0  0  0  0  0  0  0  0  0  0  0  0
  1 11  1  0
  2  3  2  0
  4  3  1  0
  5  4  2  0
  6  7  2  0
  6  5  1  0
  7  2  1  0
  8  6  1  0
  9  8  1  0
 10 11  1  0
 10  9  2  0
 11 12  2  0
 12  8  1  0
 13  1  1  0
 14  1  1  0
 15 14  1  0
 15 17  1  0
 16 15  1  0
 16 17  1  0
 17 18  1  0
 18 22  1  0
 18 19  2  0
 19 20  1  0
 21 20  1  0
 22 21  2  0
  1 23  1  1
  2 24  1  0
  3 25  1  0
  4 26  1  0
  9 27  1  0
 13 28  1  0
 13 29  1  0
 13 30  1  0
 14 31  1  0
 14 32  1  0
 15 33  1  6
 16 34  1  0
 16 35  1  0
 17 36  1  1
 21 37  1  0
M  ISO  8  23   8  24  14  25  14  26  14  27  14  28   8  29   8  30   8
M  ISO  7  31   8  32   8  33  13  34  13  35  13  36  13  37  14
M  END
>  <minimizedAffinity>  (1) 
-4.79755449

>  <minimizedRMSD>  (1) 
2.25658822

$$$$
