
     RDKit          3D

 44 48  0  0  1  0  0  0  0  0999 V2000
   37.8130   23.5230   33.3970 C   0  0  0  0  0  0  0  0  0  0  0  0
   36.9610   22.6800   32.7020 C   0  0  0  0  0  0  0  0  0  0  0  0
   36.8140   21.5910   33.5160 N   0  0  0  0  0  0  0  0  0  0  0  0
   37.5530   21.8220   34.6140 C   0  0  0  0  0  0  0  0  0  0  0  0
   38.1800   22.9970   34.5760 N   0  0  0  0  0  0  0  0  0  0  0  0
   39.0440   23.5850   35.5440 C   0  0  1  0  0  0  0  0  0  0  0  0
   38.4730   24.7900   36.1830 C   0  0  0  0  0  0  0  0  0  0  0  0
   37.6560   24.2160   37.3260 C   0  0  0  0  0  0  0  0  0  0  0  0
   38.5420   23.1520   37.8620 C   0  0  0  0  0  0  0  0  0  0  0  0
   39.3440   22.6620   36.6990 C   0  0  2  0  0  0  0  0  0  0  0  0
   40.8370   22.7400   36.9790 C   0  0  0  0  0  0  0  0  0  0  0  0
   41.6470   21.7750   36.1140 C   0  0  0  0  0  0  0  0  0  0  0  0
   41.5840   21.6410   37.6040 C   0  0  0  0  0  0  0  0  0  0  0  0
   38.2700   24.8270   32.9280 C   0  0  0  0  0  0  0  0  0  0  0  0
   39.5950   24.9890   32.5140 C   0  0  0  0  0  0  0  0  0  0  0  0
   39.9760   26.2860   32.0810 C   0  0  0  0  0  0  0  0  0  0  0  0
   39.0430   27.2730   32.0950 N   0  0  0  0  0  0  0  0  0  0  0  0
   37.7950   27.0670   32.4980 C   0  0  0  0  0  0  0  0  0  0  0  0
   37.3840   25.8500   32.9190 N   0  0  0  0  0  0  0  0  0  0  0  0
   36.8280   28.1640   32.4940 C   0  0  0  0  0  0  0  0  0  0  0  0
   36.4660   28.9550   31.4200 C   0  0  0  0  0  0  0  0  0  0  0  0
   35.5410   29.8580   31.8300 N   0  0  0  0  0  0  0  0  0  0  0  0
   35.3450   29.6140   33.1460 C   0  0  0  0  0  0  0  0  0  0  0  0
   36.1110   28.6040   33.5450 N   0  0  0  0  0  0  0  0  0  0  0  0
   36.5046   22.8490   31.7155 H   0  0  0  0  0  0  0  0  0  0  0  0
   37.6319   21.1166   35.4543 H   0  0  0  0  0  0  0  0  0  0  0  0
   39.9434   23.8225   34.9569 H   0  0  0  0  0  0  0  0  0  0  0  0
   39.2670   25.4523   36.5583 H   0  0  0  0  0  0  0  0  0  0  0  0
   37.8788   25.4064   35.4924 H   0  0  0  0  0  0  0  0  0  0  0  0
   37.4496   24.9812   38.0888 H   0  0  0  0  0  0  0  0  0  0  0  0
   36.6695   23.8440   37.0122 H   0  0  0  0  0  0  0  0  0  0  0  0
   39.2049   23.5613   38.6386 H   0  0  0  0  0  0  0  0  0  0  0  0
   37.9628   22.3391   38.3243 H   0  0  0  0  0  0  0  0  0  0  0  0
   39.0833   21.6137   36.4913 H   0  0  0  0  0  0  0  0  0  0  0  0
   40.7942   23.8120   37.2220 H   0  0  0  0  0  0  0  0  0  0  0  0
   41.1361   21.0452   35.4687 H   0  0  0  0  0  0  0  0  0  0  0  0
   42.4455   21.8686   35.3633 H   0  0  0  0  0  0  0  0  0  0  0  0
   42.4755   21.8636   38.2087 H   0  0  0  0  0  0  0  0  0  0  0  0
   41.3138   20.8235   38.2885 H   0  0  0  0  0  0  0  0  0  0  0  0
   40.3083   24.1517   32.5233 H   0  0  0  0  0  0  0  0  0  0  0  0
   41.0030   26.4871   31.7420 H   0  0  0  0  0  0  0  0  0  0  0  0
   36.8637   28.8665   30.3982 H   0  0  0  0  0  0  0  0  0  0  0  0
   34.6514   30.1714   33.7928 H   0  0  0  0  0  0  0  0  0  0  0  0
   36.1497   28.2211   34.5004 H   0  0  0  0  0  0  0  0  0  0  0  0
  1  5  1  0
  2  1  2  0
  2  3  1  0
  3  4  2  0
  5  4  1  0
  5  6  1  0
  6  7  1  0
  6 10  1  0
  7  8  1  0
  8  9  1  0
 10 11  1  0
 10  9  1  0
 11 13  1  0
 12 11  1  0
 12 13  1  0
 14  1  1  0
 15 14  2  0
 16 17  2  0
 16 15  1  0
 17 18  1  0
 18 19  2  0
 19 14  1  0
 20 18  1  0
 20 24  1  0
 21 22  1  0
 21 20  2  0
 22 23  2  0
 23 24  1  0
  2 25  1  0
  4 26  1  0
  6 27  1  6
  7 28  1  0
  7 29  1  0
  8 30  1  0
  8 31  1  0
  9 32  1  0
  9 33  1  0
 10 34  1  6
 11 35  1  0
 12 36  1  0
 12 37  1  0
 13 38  1  0
 13 39  1  0
 15 40  1  0
 16 41  1  0
 21 42  1  0
 23 43  1  0
 24 44  1  0
M  ISO  8  25  14  26  14  27  13  28  13  29  13  30  13  31  13  32  13
M  ISO  8  33  13  34  13  35  13  36  13  37  13  38  13  39  13  40  14
M  ISO  4  41  14  42  14  43  14  44   9
M  END
>  <minimizedAffinity>  (1) 
-5.27292299

>  <minimizedRMSD>  (1) 
0.56605953

$$$$
