
     RDKit          3D

 53 56  0  0  1  0  0  0  0  0999 V2000
   36.3110   28.8220   32.7400 C   0  0  0  0  0  0  0  0  0  0  0  0
   36.7730   27.6630   32.1920 C   0  0  0  0  0  0  0  0  0  0  0  0
   37.2130   26.6550   33.0480 C   0  0  0  0  0  0  0  0  0  0  0  0
   37.1810   26.8240   34.4040 C   0  0  0  0  0  0  0  0  0  0  0  0
   36.7170   27.9850   34.9610 C   0  0  0  0  0  0  0  0  0  0  0  0
   36.2790   28.9910   34.1300 C   0  0  0  0  0  0  0  0  0  0  0  0
   37.6860   25.6470   35.1410 C   0  0  0  0  0  0  0  0  0  0  0  0
   39.1060   25.3430   34.8870 C   0  0  2  0  0  0  0  0  0  0  0  0
   41.4660   22.9380   36.3360 C   0  0  0  0  0  0  0  0  0  0  0  0
   40.7350   22.4140   37.4650 C   0  0  0  0  0  0  0  0  0  0  0  0
   39.4470   22.9000   37.6990 C   0  0  0  0  0  0  0  0  0  0  0  0
   38.9520   23.8500   36.8390 N   0  0  0  0  0  0  0  0  0  0  0  0
   39.6720   24.3220   35.7830 C   0  0  0  0  0  0  0  0  0  0  0  0
   40.9230   23.8770   35.5230 N   0  0  0  0  0  0  0  0  0  0  0  0
   39.9360   26.6380   35.0860 C   0  0  0  0  0  0  0  0  0  0  0  0
   35.7510   30.1060   31.6880 S   0  0  0  0  0  0  0  0  0  0  0  0
   36.0890   29.7030   30.2730 O   0  0  0  0  0  0  0  0  0  0  0  0
   36.4680   31.3980   31.9770 O   0  0  0  0  0  0  0  0  0  0  0  0
   34.0430   30.3440   31.8650 C   0  0  0  0  0  0  0  0  0  0  0  0
   33.1010   29.8250   32.6500 N   0  0  0  0  0  0  0  0  0  0  0  0
   31.9400   30.3540   32.3840 O   0  0  0  0  0  0  0  0  0  0  0  0
   32.0810   31.2330   31.4220 C   0  0  0  0  0  0  0  0  0  0  0  0
   33.3640   31.2300   31.1020 N   0  0  0  0  0  0  0  0  0  0  0  0
   30.9640   31.9970   30.8980 C   0  0  0  0  0  0  0  0  0  0  0  0
   29.9080   32.0760   31.5690 O   0  0  0  0  0  0  0  0  0  0  0  0
   30.9500   32.6860   29.6590 N   0  0  0  0  0  0  0  0  0  0  0  0
   30.4950   31.9500   28.5000 C   0  0  0  0  0  0  0  0  0  0  0  0
   29.8710   32.9000   27.4990 C   0  0  0  0  0  0  0  0  0  0  0  0
   29.2240   34.0200   28.1530 N   0  0  0  0  0  0  0  0  0  0  0  0
   30.1200   34.8180   28.9480 C   0  0  0  0  0  0  0  0  0  0  0  0
   31.3430   34.0540   29.4150 C   0  0  0  0  0  0  0  0  0  0  0  0
   36.7980   27.5264   31.1008 H   0  0  0  0  0  0  0  0  0  0  0  0
   37.5908   25.7116   32.6271 H   0  0  0  0  0  0  0  0  0  0  0  0
   36.6945   28.1118   36.0534 H   0  0  0  0  0  0  0  0  0  0  0  0
   35.9024   29.9312   34.5591 H   0  0  0  0  0  0  0  0  0  0  0  0
   37.5596   25.8330   36.2178 H   0  0  0  0  0  0  0  0  0  0  0  0
   37.1076   24.7799   34.7895 H   0  0  0  0  0  0  0  0  0  0  0  0
   39.1551   24.9509   33.8604 H   0  0  0  0  0  0  0  0  0  0  0  0
   42.4818   22.5688   36.1317 H   0  0  0  0  0  0  0  0  0  0  0  0
   41.1802   21.6530   38.1228 H   0  0  0  0  0  0  0  0  0  0  0  0
   38.8475   22.5336   38.5454 H   0  0  0  0  0  0  0  0  0  0  0  0
   40.0604   26.8321   36.1616 H   0  0  0  0  0  0  0  0  0  0  0  0
   40.9243   26.5155   34.6188 H   0  0  0  0  0  0  0  0  0  0  0  0
   39.4120   27.4848   34.6188 H   0  0  0  0  0  0  0  0  0  0  0  0
   31.3501   31.4387   28.0337 H   0  0  0  0  0  0  0  0  0  0  0  0
   29.7446   31.2091   28.8129 H   0  0  0  0  0  0  0  0  0  0  0  0
   29.1230   32.3526   26.9067 H   0  0  0  0  0  0  0  0  0  0  0  0
   30.6716   33.2946   26.8561 H   0  0  0  0  0  0  0  0  0  0  0  0
   28.8059   34.6224   27.4297 H   0  0  0  0  0  0  0  0  0  0  0  0
   30.4525   35.6761   28.3454 H   0  0  0  0  0  0  0  0  0  0  0  0
   29.5684   35.1336   29.8459 H   0  0  0  0  0  0  0  0  0  0  0  0
   32.1216   34.0856   28.6386 H   0  0  0  0  0  0  0  0  0  0  0  0
   31.7466   34.5047   30.3337 H   0  0  0  0  0  0  0  0  0  0  0  0
  1  6  1  0
  2  1  2  0
  2  3  1  0
  3  4  2  0
  4  5  1  0
  4  7  1  0
  6  5  2  0
  8 15  1  0
  8  7  1  0
  8 13  1  0
  9 10  2  0
 10 11  1  0
 12 11  2  0
 13 12  1  0
 14 13  2  0
 14  9  1  0
 16 19  1  0
 16 18  2  0
 16  1  1  0
 17 16  2  0
 19 20  2  0
 21 20  1  0
 22 21  1  0
 23 22  2  0
 23 19  1  0
 24 22  1  0
 24 25  2  0
 26 24  1  0
 27 26  1  0
 28 29  1  0
 28 27  1  0
 29 30  1  0
 30 31  1  0
 31 26  1  0
  2 32  1  0
  3 33  1  0
  5 34  1  0
  6 35  1  0
  7 36  1  0
  7 37  1  0
  8 38  1  6
  9 39  1  0
 10 40  1  0
 11 41  1  0
 15 42  1  0
 15 43  1  0
 15 44  1  0
 27 45  1  0
 27 46  1  0
 28 47  1  0
 28 48  1  0
 29 49  1  0
 30 50  1  0
 30 51  1  0
 31 52  1  0
 31 53  1  0
M  ISO  8  32  14  33  14  34  14  35  14  36   8  37   8  38   8  39  14
M  ISO  8  40  14  41  14  42   8  43   8  44   8  45  13  46  13  47  13
M  ISO  6  48  13  49   5  50  13  51  13  52  13  53  13
M  END
>  <minimizedAffinity>  (1) 
-5.57147408

>  <minimizedRMSD>  (1) 
1.60578716

$$$$
