
     RDKit          3D

 46 50  0  0  1  0  0  0  0  0999 V2000
   36.8800   20.8870   30.8360 C   0  0  0  0  0  0  0  0  0  0  0  0
   36.4860   19.4450   30.8210 C   0  0  1  0  0  0  0  0  0  0  0  0
   36.8330   18.5080   29.7420 C   0  0  0  0  0  0  0  0  0  0  0  0
   37.4300   18.3970   31.1590 C   0  0  2  0  0  0  0  0  0  0  0  0
   36.8270   17.2240   31.8990 C   0  0  0  0  0  0  0  0  0  0  0  0
   37.5330   16.3460   32.4680 O   0  0  0  0  0  0  0  0  0  0  0  0
   35.5050   16.8970   32.0980 O   0  0  0  0  0  0  0  0  0  0  0  0
   34.9750   12.9000   29.8510 N   0  0  0  0  0  0  0  0  0  0  0  0
   35.4340   13.8690   29.0340 C   0  0  0  0  0  0  0  0  0  0  0  0
   35.5780   15.0260   29.7220 N   0  0  0  0  0  0  0  0  0  0  0  0
   35.2070   14.8080   31.0120 C   0  0  0  0  0  0  0  0  0  0  0  0
   35.1290   15.5620   32.1660 C   0  0  0  0  0  0  0  0  0  0  0  0
   34.6960   14.9990   33.3270 N   0  0  0  0  0  0  0  0  0  0  0  0
   34.3340   13.6860   33.3570 C   0  0  0  0  0  0  0  0  0  0  0  0
   34.3990   12.9180   32.2380 N   0  0  0  0  0  0  0  0  0  0  0  0
   34.8340   13.4820   31.0770 C   0  0  0  0  0  0  0  0  0  0  0  0
   36.2800   21.6830   31.9540 C   0  0  1  0  0  0  0  0  0  0  0  0
   39.9700   22.7430   37.8540 C   0  0  0  0  0  0  0  0  0  0  0  0
   38.9790   23.3260   38.6660 C   0  0  0  0  0  0  0  0  0  0  0  0
   37.8060   23.7530   38.0700 C   0  0  0  0  0  0  0  0  0  0  0  0
   37.6560   23.5920   36.7090 N   0  0  0  0  0  0  0  0  0  0  0  0
   38.6440   23.0230   35.9750 C   0  0  0  0  0  0  0  0  0  0  0  0
   39.7970   22.6010   36.5470 N   0  0  0  0  0  0  0  0  0  0  0  0
   38.5270   22.8300   34.5670 N   0  0  0  0  0  0  0  0  0  0  0  0
   39.2850   23.0090   33.4680 C   0  0  0  0  0  0  0  0  0  0  0  0
   38.5900   22.6250   32.3840 N   0  0  0  0  0  0  0  0  0  0  0  0
   37.3660   22.1950   32.8290 C   0  0  0  0  0  0  0  0  0  0  0  0
   37.3630   22.3320   34.1470 N   0  0  0  0  0  0  0  0  0  0  0  0
   35.5060   22.8190   31.3340 C   0  0  0  0  0  0  0  0  0  0  0  0
   36.5645   21.3393   29.8842 H   0  0  0  0  0  0  0  0  0  0  0  0
   37.9698   20.9121   30.9837 H   0  0  0  0  0  0  0  0  0  0  0  0
   35.5212   19.7764   31.2325 H   0  0  0  0  0  0  0  0  0  0  0  0
   36.0983   17.7698   29.3880 H   0  0  0  0  0  0  0  0  0  0  0  0
   37.2299   18.5894   28.7193 H   0  0  0  0  0  0  0  0  0  0  0  0
   38.4288   18.3838   31.6198 H   0  0  0  0  0  0  0  0  0  0  0  0
   34.7724   11.9215   29.6012 H   0  0  0  0  0  0  0  0  0  0  0  0
   35.6586   13.7387   27.9651 H   0  0  0  0  0  0  0  0  0  0  0  0
   33.9842   13.2413   34.3003 H   0  0  0  0  0  0  0  0  0  0  0  0
   35.6087   21.0679   32.5713 H   0  0  0  0  0  0  0  0  0  0  0  0
   40.9080   22.3978   38.3135 H   0  0  0  0  0  0  0  0  0  0  0  0
   39.1337   23.4394   39.7491 H   0  0  0  0  0  0  0  0  0  0  0  0
   37.0075   24.2126   38.6710 H   0  0  0  0  0  0  0  0  0  0  0  0
   40.3106   23.4066   33.4593 H   0  0  0  0  0  0  0  0  0  0  0  0
   35.0777   23.4476   32.1286 H   0  0  0  0  0  0  0  0  0  0  0  0
   36.1801   23.4247   30.7106 H   0  0  0  0  0  0  0  0  0  0  0  0
   34.6956   22.4133   30.7106 H   0  0  0  0  0  0  0  0  0  0  0  0
  1 17  1  0
  2  1  1  0
  2  4  1  0
  3  2  1  0
  3  4  1  0
  4  5  1  0
  5  7  1  0
  5  6  2  0
  7 12  1  0
  8 16  1  0
  9 10  2  0
  9  8  1  0
 10 11  1  0
 11 16  2  0
 11 12  1  0
 12 13  2  0
 13 14  1  0
 15 14  2  0
 16 15  1  0
 17 27  1  0
 18 19  2  0
 20 19  1  0
 21 20  2  0
 22 23  2  0
 22 21  1  0
 23 18  1  0
 24 22  1  0
 25 24  1  0
 26 27  1  0
 26 25  2  0
 27 28  2  0
 28 24  1  0
 29 17  1  0
  1 30  1  0
  1 31  1  0
  2 32  1  1
  3 33  1  0
  3 34  1  0
  4 35  1  6
  8 36  1  0
  9 37  1  0
 14 38  1  0
 17 39  1  1
 18 40  1  0
 19 41  1  0
 20 42  1  0
 25 43  1  0
 29 44  1  0
 29 45  1  0
 29 46  1  0
M  ISO  8  30   8  31   8  32  13  33  13  34  13  35  13  36   9  37  14
M  ISO  8  38  14  39   8  40  14  41  14  42  14  43  14  44   8  45   8
M  ISO  1  46   8
M  END
>  <minimizedAffinity>  (1) 
-5.13420868

>  <minimizedRMSD>  (1) 
1.89144039

$$$$
