
     RDKit          3D

 42 46  0  0  1  0  0  0  0  0999 V2000
   37.6970   23.5220   33.2810 C   0  0  0  0  0  0  0  0  0  0  0  0
   36.8440   22.6700   32.6000 C   0  0  0  0  0  0  0  0  0  0  0  0
   36.7190   21.5800   33.4170 N   0  0  0  0  0  0  0  0  0  0  0  0
   37.4720   21.8200   34.5060 C   0  0  0  0  0  0  0  0  0  0  0  0
   38.0870   23.0040   34.4590 N   0  0  0  0  0  0  0  0  0  0  0  0
   38.9560   23.6000   35.4110 C   0  0  1  0  0  0  0  0  0  0  0  0
   38.3690   24.7830   36.0780 C   0  0  0  0  0  0  0  0  0  0  0  0
   37.5890   24.1780   37.2300 C   0  0  0  0  0  0  0  0  0  0  0  0
   38.5130   23.1310   37.7370 C   0  0  0  0  0  0  0  0  0  0  0  0
   39.3000   22.6720   36.5510 C   0  0  2  0  0  0  0  0  0  0  0  0
   40.7990   22.7840   36.8020 C   0  0  0  0  0  0  0  0  0  0  0  0
   41.6000   21.7200   36.0570 C   0  0  0  0  0  0  0  0  0  0  0  0
   41.5520   21.7710   37.5510 C   0  0  0  0  0  0  0  0  0  0  0  0
   38.1350   24.8310   32.8040 C   0  0  0  0  0  0  0  0  0  0  0  0
   39.3860   24.9610   32.1910 C   0  0  0  0  0  0  0  0  0  0  0  0
   39.7520   26.2640   31.7630 C   0  0  0  0  0  0  0  0  0  0  0  0
   38.8900   27.2820   31.9690 N   0  0  0  0  0  0  0  0  0  0  0  0
   37.7040   27.1050   32.5600 C   0  0  0  0  0  0  0  0  0  0  0  0
   37.3060   25.8860   32.9870 N   0  0  0  0  0  0  0  0  0  0  0  0
   36.7890   28.2280   32.7710 C   0  0  0  0  0  0  0  0  0  0  0  0
   36.2520   28.3720   34.0100 N   0  0  0  0  0  0  0  0  0  0  0  0
   35.4670   29.3980   34.0540 O   0  0  0  0  0  0  0  0  0  0  0  0
   35.4550   29.9640   32.8660 C   0  0  0  0  0  0  0  0  0  0  0  0
   36.2710   29.2480   32.0590 N   0  0  0  0  0  0  0  0  0  0  0  0
   36.3719   22.8333   31.6200 H   0  0  0  0  0  0  0  0  0  0  0  0
   37.5703   21.1158   35.3453 H   0  0  0  0  0  0  0  0  0  0  0  0
   39.8364   23.8648   34.8071 H   0  0  0  0  0  0  0  0  0  0  0  0
   39.1548   25.4594   36.4455 H   0  0  0  0  0  0  0  0  0  0  0  0
   37.7456   25.3923   35.4070 H   0  0  0  0  0  0  0  0  0  0  0  0
   37.3786   24.9301   38.0047 H   0  0  0  0  0  0  0  0  0  0  0  0
   36.6057   23.7849   36.9322 H   0  0  0  0  0  0  0  0  0  0  0  0
   39.1830   23.5496   38.5024 H   0  0  0  0  0  0  0  0  0  0  0  0
   37.9650   22.3000   38.2051 H   0  0  0  0  0  0  0  0  0  0  0  0
   39.0575   21.6206   36.3370 H   0  0  0  0  0  0  0  0  0  0  0  0
   40.7583   23.8780   36.9088 H   0  0  0  0  0  0  0  0  0  0  0  0
   41.0832   20.9163   35.5121 H   0  0  0  0  0  0  0  0  0  0  0  0
   42.3912   21.7195   35.2928 H   0  0  0  0  0  0  0  0  0  0  0  0
   42.4493   22.0660   38.1148 H   0  0  0  0  0  0  0  0  0  0  0  0
   41.2890   21.0447   38.3342 H   0  0  0  0  0  0  0  0  0  0  0  0
   40.0521   24.0973   32.0480 H   0  0  0  0  0  0  0  0  0  0  0  0
   40.7205   26.4409   31.2724 H   0  0  0  0  0  0  0  0  0  0  0  0
   34.8835   30.8594   32.5803 H   0  0  0  0  0  0  0  0  0  0  0  0
  1  5  1  0
  2  1  2  0
  2  3  1  0
  3  4  2  0
  5  4  1  0
  5  6  1  0
  6  7  1  0
  6 10  1  0
  7  8  1  0
  8  9  1  0
 10 11  1  0
 10  9  1  0
 11 13  1  0
 12 11  1  0
 12 13  1  0
 14 19  1  0
 14  1  1  0
 15 14  2  0
 16 17  2  0
 16 15  1  0
 17 18  1  0
 18 20  1  0
 18 19  2  0
 20 21  2  0
 21 22  1  0
 23 22  1  0
 24 20  1  0
 24 23  2  0
  2 25  1  0
  4 26  1  0
  6 27  1  6
  7 28  1  0
  7 29  1  0
  8 30  1  0
  8 31  1  0
  9 32  1  0
  9 33  1  0
 10 34  1  6
 11 35  1  0
 12 36  1  0
 12 37  1  0
 13 38  1  0
 13 39  1  0
 15 40  1  0
 16 41  1  0
 23 42  1  0
M  ISO  8  25  14  26  14  27  13  28  13  29  13  30  13  31  13  32  13
M  ISO  8  33  13  34  13  35  13  36  13  37  13  38  13  39  13  40  14
M  ISO  2  41  14  42  14
M  END
>  <minimizedAffinity>  (1) 
-5.23567104

>  <minimizedRMSD>  (1) 
0.190091103

$$$$
