
     RDKit          3D

 49 53  0  0  1  0  0  0  0  0999 V2000
   37.6810   18.1170   30.8310 C   0  0  0  0  0  0  0  0  0  0  0  0
   37.5660   16.6460   31.0840 C   0  0  1  0  0  0  0  0  0  0  0  0
   37.3000   16.0590   32.4060 C   0  0  0  0  0  0  0  0  0  0  0  0
   36.2760   16.0090   31.2580 C   0  0  2  0  0  0  0  0  0  0  0  0
   36.1750   14.6170   30.6880 C   0  0  0  0  0  0  0  0  0  0  0  0
   36.8670   14.2300   29.7050 O   0  0  0  0  0  0  0  0  0  0  0  0
   35.3830   13.5570   31.0890 O   0  0  0  0  0  0  0  0  0  0  0  0
   34.2290   13.7250   31.8390 C   0  0  0  0  0  0  0  0  0  0  0  0
   32.9110   13.9450   31.4760 C   0  0  0  0  0  0  0  0  0  0  0  0
   32.1860   14.0350   32.6040 N   0  0  0  0  0  0  0  0  0  0  0  0
   32.9800   13.8830   33.6790 C   0  0  0  0  0  0  0  0  0  0  0  0
   32.7300   13.8920   35.0460 C   0  0  0  0  0  0  0  0  0  0  0  0
   33.7700   13.7050   35.9430 C   0  0  0  0  0  0  0  0  0  0  0  0
   35.0740   13.5060   35.5210 C   0  0  0  0  0  0  0  0  0  0  0  0
   35.2820   13.5040   34.1560 C   0  0  0  0  0  0  0  0  0  0  0  0
   34.2800   13.6850   33.2310 C   0  0  0  0  0  0  0  0  0  0  0  0
   36.4870   18.7210   30.1590 C   0  0  1  0  0  0  0  0  0  0  0  0
   35.4780   25.6020   31.2500 C   0  0  0  0  0  0  0  0  0  0  0  0
   36.7820   26.0860   31.0310 C   0  0  0  0  0  0  0  0  0  0  0  0
   37.8170   25.1680   30.9720 C   0  0  0  0  0  0  0  0  0  0  0  0
   37.5340   23.8330   31.1290 N   0  0  0  0  0  0  0  0  0  0  0  0
   36.2610   23.4230   31.3370 C   0  0  0  0  0  0  0  0  0  0  0  0
   35.2330   24.3050   31.3980 N   0  0  0  0  0  0  0  0  0  0  0  0
   35.9170   22.0450   31.4970 N   0  0  0  0  0  0  0  0  0  0  0  0
   35.1460   21.2970   32.3120 C   0  0  0  0  0  0  0  0  0  0  0  0
   35.2430   20.0090   31.9460 N   0  0  0  0  0  0  0  0  0  0  0  0
   36.1000   19.9630   30.8710 C   0  0  0  0  0  0  0  0  0  0  0  0
   36.4840   21.2060   30.6330 N   0  0  0  0  0  0  0  0  0  0  0  0
   36.8800   19.0140   28.7310 C   0  0  0  0  0  0  0  0  0  0  0  0
   37.8252   18.6227   31.7972 H   0  0  0  0  0  0  0  0  0  0  0  0
   38.5310   18.2537   30.1463 H   0  0  0  0  0  0  0  0  0  0  0  0
   38.3971   16.5257   30.3735 H   0  0  0  0  0  0  0  0  0  0  0  0
   37.8235   15.1458   32.7253 H   0  0  0  0  0  0  0  0  0  0  0  0
   37.3065   16.4152   33.4467 H   0  0  0  0  0  0  0  0  0  0  0  0
   35.2364   16.3242   31.0850 H   0  0  0  0  0  0  0  0  0  0  0  0
   32.5265   14.0307   30.4490 H   0  0  0  0  0  0  0  0  0  0  0  0
   31.1695   14.1969   32.6401 H   0  0  0  0  0  0  0  0  0  0  0  0
   31.7060   14.0476   35.4164 H   0  0  0  0  0  0  0  0  0  0  0  0
   33.5534   13.7149   37.0214 H   0  0  0  0  0  0  0  0  0  0  0  0
   35.8985   13.3577   36.2339 H   0  0  0  0  0  0  0  0  0  0  0  0
   36.3067   13.3489   33.7874 H   0  0  0  0  0  0  0  0  0  0  0  0
   35.6233   18.0400   30.1773 H   0  0  0  0  0  0  0  0  0  0  0  0
   34.6420   26.3152   31.2997 H   0  0  0  0  0  0  0  0  0  0  0  0
   36.9730   27.1625   30.9102 H   0  0  0  0  0  0  0  0  0  0  0  0
   38.8509   25.5029   30.8019 H   0  0  0  0  0  0  0  0  0  0  0  0
   34.5358   21.6804   33.1430 H   0  0  0  0  0  0  0  0  0  0  0  0
   37.7618   19.6715   28.7209 H   0  0  0  0  0  0  0  0  0  0  0  0
   37.1191   18.0720   28.2158 H   0  0  0  0  0  0  0  0  0  0  0  0
   36.0454   19.5121   28.2158 H   0  0  0  0  0  0  0  0  0  0  0  0
  1  2  1  0
  2  4  1  0
  2  3  1  0
  4  3  1  0
  5  7  1  0
  5  4  1  0
  6  5  2  0
  7  8  1  0
  8 16  1  0
  9  8  2  0
  9 10  1  0
 10 11  1  0
 11 12  2  0
 12 13  1  0
 14 13  2  0
 15 14  1  0
 16 11  1  0
 16 15  2  0
 17  1  1  0
 17 27  1  0
 18 23  2  0
 19 18  1  0
 20 19  2  0
 20 21  1  0
 21 22  2  0
 22 23  1  0
 22 24  1  0
 24 25  1  0
 26 25  2  0
 27 26  1  0
 28 27  2  0
 28 24  1  0
 29 17  1  0
  1 30  1  0
  1 31  1  0
  2 32  1  6
  3 33  1  0
  3 34  1  0
  4 35  1  1
  9 36  1  0
 10 37  1  0
 12 38  1  0
 13 39  1  0
 14 40  1  0
 15 41  1  0
 17 42  1  6
 18 43  1  0
 19 44  1  0
 20 45  1  0
 25 46  1  0
 29 47  1  0
 29 48  1  0
 29 49  1  0
M  ISO  8  30   8  31   8  32  13  33  13  34  13  35  13  36  14  37   9
M  ISO  8  38  14  39  14  40  14  41  14  42   8  43  14  44  14  45  14
M  ISO  4  46  14  47   8  48   8  49   8
M  END
>  <minimizedAffinity>  (1) 
-5.30738926

>  <minimizedRMSD>  (1) 
4.67399311

$$$$
