
     RDKit          3D

 44 46  0  0  1  0  0  0  0  0999 V2000
   36.5120   21.1200   31.7810 C   0  0  1  0  0  0  0  0  0  0  0  0
   37.9430   23.5040   38.2600 C   0  0  0  0  0  0  0  0  0  0  0  0
   39.3470   23.4230   38.2370 C   0  0  0  0  0  0  0  0  0  0  0  0
   39.9530   22.7180   37.2110 C   0  0  0  0  0  0  0  0  0  0  0  0
   39.1730   22.1300   36.2660 N   0  0  0  0  0  0  0  0  0  0  0  0
   37.8220   22.2280   36.3200 C   0  0  0  0  0  0  0  0  0  0  0  0
   37.2000   22.9090   37.3070 N   0  0  0  0  0  0  0  0  0  0  0  0
   36.9650   21.6290   35.3450 N   0  0  0  0  0  0  0  0  0  0  0  0
   35.8240   20.9090   35.3250 C   0  0  0  0  0  0  0  0  0  0  0  0
   35.5080   20.6310   34.0500 N   0  0  0  0  0  0  0  0  0  0  0  0
   36.4820   21.1960   33.2650 C   0  0  0  0  0  0  0  0  0  0  0  0
   37.3450   21.7900   34.0770 N   0  0  0  0  0  0  0  0  0  0  0  0
   35.6440   19.9980   31.2770 C   0  0  0  0  0  0  0  0  0  0  0  0
   35.9710   22.3980   31.2130 C   0  0  0  0  0  0  0  0  0  0  0  0
   36.7670   23.6150   31.5670 C   0  0  1  0  0  0  0  0  0  0  0  0
   37.5620   24.3840   30.5990 C   0  0  0  0  0  0  0  0  0  0  0  0
   36.2830   24.9450   31.2540 C   0  0  2  0  0  0  0  0  0  0  0  0
   36.6180   26.0010   32.2700 C   0  0  0  0  0  0  0  0  0  0  0  0
   36.5870   27.2360   32.0040 O   0  0  0  0  0  0  0  0  0  0  0  0
   36.9880   25.8630   33.5890 O   0  0  0  0  0  0  0  0  0  0  0  0
   38.2530   26.1800   34.0830 C   0  0  0  0  0  0  0  0  0  0  0  0
   38.1820   26.6250   35.5480 C   0  0  0  0  0  0  0  0  0  0  0  0
   39.2040   24.9940   34.0490 C   0  0  0  0  0  0  0  0  0  0  0  0
   37.5534   20.9481   31.4711 H   0  0  0  0  0  0  0  0  0  0  0  0
   37.4449   24.0609   39.0673 H   0  0  0  0  0  0  0  0  0  0  0  0
   39.9506   23.9093   39.0174 H   0  0  0  0  0  0  0  0  0  0  0  0
   41.0488   22.6351   37.1615 H   0  0  0  0  0  0  0  0  0  0  0  0
   35.2469   20.6002   36.2090 H   0  0  0  0  0  0  0  0  0  0  0  0
   35.2201   19.4501   32.1315 H   0  0  0  0  0  0  0  0  0  0  0  0
   34.8284   20.4116   30.6656 H   0  0  0  0  0  0  0  0  0  0  0  0
   36.2492   19.3125   30.6656 H   0  0  0  0  0  0  0  0  0  0  0  0
   34.9463   22.5353   31.5886 H   0  0  0  0  0  0  0  0  0  0  0  0
   36.0156   22.2999   30.1183 H   0  0  0  0  0  0  0  0  0  0  0  0
   37.0384   23.0907   32.4952 H   0  0  0  0  0  0  0  0  0  0  0  0
   37.5663   24.1047   29.5351 H   0  0  0  0  0  0  0  0  0  0  0  0
   38.6114   24.7016   30.5099 H   0  0  0  0  0  0  0  0  0  0  0  0
   35.3138   25.3497   30.9272 H   0  0  0  0  0  0  0  0  0  0  0  0
   38.6218   26.9861   33.4317 H   0  0  0  0  0  0  0  0  0  0  0  0
   38.3212   25.7526   36.2034 H   0  0  0  0  0  0  0  0  0  0  0  0
   38.9739   27.3624   35.7460 H   0  0  0  0  0  0  0  0  0  0  0  0
   37.2000   27.0794   35.7460 H   0  0  0  0  0  0  0  0  0  0  0  0
   39.4478   24.6899   35.0776 H   0  0  0  0  0  0  0  0  0  0  0  0
   38.7254   24.1552   33.5224 H   0  0  0  0  0  0  0  0  0  0  0  0
   40.1268   25.2789   33.5224 H   0  0  0  0  0  0  0  0  0  0  0  0
  1 11  1  0
  3  2  2  0
  4  3  1  0
  5  6  1  0
  5  4  2  0
  6  7  2  0
  7  2  1  0
  8  6  1  0
  9  8  1  0
 10  9  2  0
 11 10  1  0
 11 12  2  0
 12  8  1  0
 13  1  1  0
 14 15  1  0
 14  1  1  0
 16 17  1  0
 16 15  1  0
 17 15  1  0
 17 18  1  0
 18 20  1  0
 19 18  2  0
 20 21  1  0
 21 22  1  0
 23 21  1  0
  1 24  1  6
  2 25  1  0
  3 26  1  0
  4 27  1  0
  9 28  1  0
 13 29  1  0
 13 30  1  0
 13 31  1  0
 14 32  1  0
 14 33  1  0
 15 34  1  1
 16 35  1  0
 16 36  1  0
 17 37  1  6
 21 38  1  0
 22 39  1  0
 22 40  1  0
 22 41  1  0
 23 42  1  0
 23 43  1  0
 23 44  1  0
M  ISO  8  24   8  25  14  26  14  27  14  28  14  29   8  30   8  31   8
M  ISO  8  32   8  33   8  34  13  35  13  36  13  37  13  38   8  39   8
M  ISO  5  40   8  41   8  42   8  43   8  44   8
M  END
>  <minimizedAffinity>  (1) 
-5.28127146

>  <minimizedRMSD>  (1) 
5.77523422

$$$$
