
     RDKit          3D

 51 54  0  0  1  0  0  0  0  0999 V2000
   36.3730   20.5320   32.2260 C   0  0  1  0  0  0  0  0  0  0  0  0
   39.9350   22.7700   37.8720 C   0  0  0  0  0  0  0  0  0  0  0  0
   38.8980   23.4120   38.5760 C   0  0  0  0  0  0  0  0  0  0  0  0
   37.7060   23.6550   37.9160 C   0  0  0  0  0  0  0  0  0  0  0  0
   37.5820   23.2640   36.6120 N   0  0  0  0  0  0  0  0  0  0  0  0
   38.6060   22.6490   35.9730 C   0  0  0  0  0  0  0  0  0  0  0  0
   39.7800   22.4030   36.6010 N   0  0  0  0  0  0  0  0  0  0  0  0
   38.5120   22.2180   34.6130 N   0  0  0  0  0  0  0  0  0  0  0  0
   39.2780   22.2610   33.5010 C   0  0  0  0  0  0  0  0  0  0  0  0
   38.6110   21.6610   32.4990 N   0  0  0  0  0  0  0  0  0  0  0  0
   37.4070   21.2400   33.0130 C   0  0  0  0  0  0  0  0  0  0  0  0
   37.3840   21.5930   34.2870 N   0  0  0  0  0  0  0  0  0  0  0  0
   35.8400   21.4010   31.1150 C   0  0  0  0  0  0  0  0  0  0  0  0
   36.9650   19.3040   31.6000 C   0  0  0  0  0  0  0  0  0  0  0  0
   36.4950   18.0170   32.1970 C   0  0  1  0  0  0  0  0  0  0  0  0
   35.1850   17.8460   32.8420 C   0  0  0  0  0  0  0  0  0  0  0  0
   35.5430   17.1690   31.5060 C   0  0  2  0  0  0  0  0  0  0  0  0
   35.7680   15.6830   31.7070 C   0  0  0  0  0  0  0  0  0  0  0  0
   35.4560   14.8360   30.8210 O   0  0  0  0  0  0  0  0  0  0  0  0
   36.3090   15.0140   32.7730 O   0  0  0  0  0  0  0  0  0  0  0  0
   35.5710   14.4790   33.8250 C   0  0  0  0  0  0  0  0  0  0  0  0
   35.9160   13.0010   33.9840 C   0  0  0  0  0  0  0  0  0  0  0  0
   35.3380   12.5920   35.3210 C   0  0  0  0  0  0  0  0  0  0  0  0
   34.4020   13.5940   35.9120 C   0  0  0  0  0  0  0  0  0  0  0  0
   33.4320   14.2030   34.9350 C   0  0  0  0  0  0  0  0  0  0  0  0
   34.0730   14.5070   33.5970 C   0  0  0  0  0  0  0  0  0  0  0  0
   35.5552   20.2710   32.9138 H   0  0  0  0  0  0  0  0  0  0  0  0
   40.8893   22.5682   38.3804 H   0  0  0  0  0  0  0  0  0  0  0  0
   39.0322   23.7132   39.6254 H   0  0  0  0  0  0  0  0  0  0  0  0
   36.8726   24.1543   38.4320 H   0  0  0  0  0  0  0  0  0  0  0  0
   40.2790   22.7111   33.4275 H   0  0  0  0  0  0  0  0  0  0  0  0
   35.3109   22.2637   31.5460 H   0  0  0  0  0  0  0  0  0  0  0  0
   36.6758   21.7562   30.4942 H   0  0  0  0  0  0  0  0  0  0  0  0
   35.1445   20.8170   30.4942 H   0  0  0  0  0  0  0  0  0  0  0  0
   38.0583   19.3550   31.7102 H   0  0  0  0  0  0  0  0  0  0  0  0
   36.6387   19.2996   30.5495 H   0  0  0  0  0  0  0  0  0  0  0  0
   37.5241   17.8834   32.5619 H   0  0  0  0  0  0  0  0  0  0  0  0
   35.0907   17.2489   33.7610 H   0  0  0  0  0  0  0  0  0  0  0  0
   34.3875   18.5116   33.2038 H   0  0  0  0  0  0  0  0  0  0  0  0
   35.1456   17.1382   30.4808 H   0  0  0  0  0  0  0  0  0  0  0  0
   35.8242   15.0960   34.6997 H   0  0  0  0  0  0  0  0  0  0  0  0
   35.4635   12.4113   33.1731 H   0  0  0  0  0  0  0  0  0  0  0  0
   37.0014   12.8284   33.9389 H   0  0  0  0  0  0  0  0  0  0  0  0
   34.7923   11.6464   35.1868 H   0  0  0  0  0  0  0  0  0  0  0  0
   36.1842   12.4986   36.0175 H   0  0  0  0  0  0  0  0  0  0  0  0
   33.8232   13.0964   36.7041 H   0  0  0  0  0  0  0  0  0  0  0  0
   35.0262   14.4195   36.2848 H   0  0  0  0  0  0  0  0  0  0  0  0
   32.6015   13.4993   34.7769 H   0  0  0  0  0  0  0  0  0  0  0  0
   33.0797   15.1538   35.3614 H   0  0  0  0  0  0  0  0  0  0  0  0
   33.7605   15.5002   33.2422 H   0  0  0  0  0  0  0  0  0  0  0  0
   33.7716   13.7739   32.8343 H   0  0  0  0  0  0  0  0  0  0  0  0
  1 11  1  0
  2  3  2  0
  4  3  1  0
  5  4  2  0
  6  7  2  0
  6  5  1  0
  7  2  1  0
  8  6  1  0
  9  8  1  0
 10 11  1  0
 10  9  2  0
 11 12  2  0
 12  8  1  0
 13  1  1  0
 14 15  1  0
 14  1  1  0
 15 16  1  0
 17 18  1  0
 17 15  1  0
 17 16  1  0
 18 20  1  0
 19 18  2  0
 20 21  1  0
 21 22  1  0
 22 23  1  0
 23 24  1  0
 25 24  1  0
 26 21  1  0
 26 25  1  0
  1 27  1  1
  2 28  1  0
  3 29  1  0
  4 30  1  0
  9 31  1  0
 13 32  1  0
 13 33  1  0
 13 34  1  0
 14 35  1  0
 14 36  1  0
 15 37  1  1
 16 38  1  0
 16 39  1  0
 17 40  1  6
 21 41  1  0
 22 42  1  0
 22 43  1  0
 23 44  1  0
 23 45  1  0
 24 46  1  0
 24 47  1  0
 25 48  1  0
 25 49  1  0
 26 50  1  0
 26 51  1  0
M  ISO  8  27   8  28  14  29  14  30  14  31  14  32   8  33   8  34   8
M  ISO  8  35   8  36   8  37  13  38  13  39  13  40  13  41  13  42  13
M  ISO  8  43  13  44  13  45  13  46  13  47  13  48  13  49  13  50  13
M  ISO  1  51  13
M  END
>  <minimizedAffinity>  (1) 
-5.10285473

>  <minimizedRMSD>  (1) 
2.35120893

$$$$
