
     RDKit          3D

 43 46  0  0  1  0  0  0  0  0999 V2000
   36.4550   21.6630   31.9410 C   0  0  1  0  0  0  0  0  0  0  0  0
   39.9560   22.7820   37.9470 C   0  0  0  0  0  0  0  0  0  0  0  0
   38.9290   23.3530   38.7210 C   0  0  0  0  0  0  0  0  0  0  0  0
   37.7740   23.7580   38.0940 C   0  0  0  0  0  0  0  0  0  0  0  0
   37.6600   23.5900   36.7330 N   0  0  0  0  0  0  0  0  0  0  0  0
   38.6760   23.0350   36.0290 C   0  0  0  0  0  0  0  0  0  0  0  0
   39.8220   22.6300   36.6280 N   0  0  0  0  0  0  0  0  0  0  0  0
   38.6030   22.8360   34.6160 N   0  0  0  0  0  0  0  0  0  0  0  0
   39.3980   23.0230   33.5370 C   0  0  0  0  0  0  0  0  0  0  0  0
   38.7330   22.6260   32.4380 N   0  0  0  0  0  0  0  0  0  0  0  0
   37.5030   22.1850   32.8520 C   0  0  0  0  0  0  0  0  0  0  0  0
   37.4590   22.3260   34.1650 N   0  0  0  0  0  0  0  0  0  0  0  0
   35.5110   22.7570   31.5050 C   0  0  0  0  0  0  0  0  0  0  0  0
   37.0960   21.1050   30.7080 C   0  0  0  0  0  0  0  0  0  0  0  0
   37.0540   19.6140   30.6060 C   0  0  1  0  0  0  0  0  0  0  0  0
   36.6280   18.8920   29.3970 C   0  0  0  0  0  0  0  0  0  0  0  0
   38.0830   18.8850   29.8920 C   0  0  2  0  0  0  0  0  0  0  0  0
   38.4310   17.5410   30.5040 C   0  0  0  0  0  0  0  0  0  0  0  0
   38.8900   16.5860   29.8180 O   0  0  0  0  0  0  0  0  0  0  0  0
   38.3380   17.1230   31.8140 O   0  0  0  0  0  0  0  0  0  0  0  0
   37.3500   16.2390   32.2210 C   0  0  0  0  0  0  0  0  0  0  0  0
   37.7910   15.0320   32.7370 C   0  0  0  0  0  0  0  0  0  0  0  0
   36.8140   14.1430   33.1460 C   0  0  0  0  0  0  0  0  0  0  0  0
   35.4930   14.3810   33.0700 N   0  0  0  0  0  0  0  0  0  0  0  0
   35.1050   15.5850   32.5540 C   0  0  0  0  0  0  0  0  0  0  0  0
   36.0290   16.4820   32.1430 N   0  0  0  0  0  0  0  0  0  0  0  0
   35.8959   20.8897   32.4881 H   0  0  0  0  0  0  0  0  0  0  0  0
   40.8849   22.4554   38.4374 H   0  0  0  0  0  0  0  0  0  0  0  0
   39.0478   23.4733   39.8079 H   0  0  0  0  0  0  0  0  0  0  0  0
   36.9538   24.2093   38.6716 H   0  0  0  0  0  0  0  0  0  0  0  0
   40.4190   23.4320   33.5559 H   0  0  0  0  0  0  0  0  0  0  0  0
   35.0860   23.2496   32.3920 H   0  0  0  0  0  0  0  0  0  0  0  0
   36.0595   23.4961   30.9026 H   0  0  0  0  0  0  0  0  0  0  0  0
   34.6995   22.3226   30.9026 H   0  0  0  0  0  0  0  0  0  0  0  0
   36.5782   21.5237   29.8324 H   0  0  0  0  0  0  0  0  0  0  0  0
   38.1588   21.3848   30.7548 H   0  0  0  0  0  0  0  0  0  0  0  0
   36.6814   19.6111   31.6410 H   0  0  0  0  0  0  0  0  0  0  0  0
   36.3523   19.4446   28.4867 H   0  0  0  0  0  0  0  0  0  0  0  0
   35.8705   18.1323   29.1539 H   0  0  0  0  0  0  0  0  0  0  0  0
   39.0741   19.1476   29.4935 H   0  0  0  0  0  0  0  0  0  0  0  0
   38.8617   14.7931   32.8173 H   0  0  0  0  0  0  0  0  0  0  0  0
   37.1391   13.1775   33.5609 H   0  0  0  0  0  0  0  0  0  0  0  0
   34.0348   15.8258   32.4725 H   0  0  0  0  0  0  0  0  0  0  0  0
  1 11  1  0
  2  3  2  0
  4  3  1  0
  5  4  2  0
  6  7  2  0
  6  5  1  0
  7  2  1  0
  8  6  1  0
  9  8  1  0
 10 11  1  0
 10  9  2  0
 11 12  2  0
 12  8  1  0
 13  1  1  0
 14  1  1  0
 15 14  1  0
 16 17  1  0
 16 15  1  0
 17 18  1  0
 17 15  1  0
 18 20  1  0
 19 18  2  0
 20 21  1  0
 21 22  2  0
 22 23  1  0
 24 23  2  0
 25 24  1  0
 26 21  1  0
 26 25  2  0
  1 27  1  1
  2 28  1  0
  3 29  1  0
  4 30  1  0
  9 31  1  0
 13 32  1  0
 13 33  1  0
 13 34  1  0
 14 35  1  0
 14 36  1  0
 15 37  1  1
 16 38  1  0
 16 39  1  0
 17 40  1  6
 22 41  1  0
 23 42  1  0
 25 43  1  0
M  ISO  8  27   8  28  14  29  14  30  14  31  14  32   8  33   8  34   8
M  ISO  8  35   8  36   8  37  13  38  13  39  13  40  13  41  14  42  14
M  ISO  1  43  14
M  END
>  <minimizedAffinity>  (1) 
-4.70475674

>  <minimizedRMSD>  (1) 
2.22098088

$$$$
