
     RDKit          3D

 42 45  0  0  1  0  0  0  0  0999 V2000
   36.0350   22.3200   31.9700 C   0  0  1  0  0  0  0  0  0  0  0  0
   40.0510   22.6910   37.7400 C   0  0  0  0  0  0  0  0  0  0  0  0
   39.0990   23.1420   38.6740 C   0  0  0  0  0  0  0  0  0  0  0  0
   37.8870   23.6150   38.2050 C   0  0  0  0  0  0  0  0  0  0  0  0
   37.6650   23.6230   36.8470 N   0  0  0  0  0  0  0  0  0  0  0  0
   38.6110   23.1800   35.9920 C   0  0  0  0  0  0  0  0  0  0  0  0
   39.8040   22.7140   36.4320 N   0  0  0  0  0  0  0  0  0  0  0  0
   38.4160   23.1680   34.5770 N   0  0  0  0  0  0  0  0  0  0  0  0
   39.1050   23.5040   33.4670 C   0  0  0  0  0  0  0  0  0  0  0  0
   38.3490   23.2460   32.3880 N   0  0  0  0  0  0  0  0  0  0  0  0
   37.1550   22.7340   32.8480 C   0  0  0  0  0  0  0  0  0  0  0  0
   37.2340   22.7030   34.1640 N   0  0  0  0  0  0  0  0  0  0  0  0
   35.7540   23.3620   30.9160 C   0  0  0  0  0  0  0  0  0  0  0  0
   36.3990   21.0520   31.2600 C   0  0  0  0  0  0  0  0  0  0  0  0
   36.4150   19.8380   32.1370 C   0  0  1  0  0  0  0  0  0  0  0  0
   35.4660   19.6170   33.2400 C   0  0  0  0  0  0  0  0  0  0  0  0
   35.4530   18.7710   31.9530 C   0  0  2  0  0  0  0  0  0  0  0  0
   35.9920   17.3860   32.2240 C   0  0  0  0  0  0  0  0  0  0  0  0
   35.2410   16.4160   32.5220 O   0  0  0  0  0  0  0  0  0  0  0  0
   37.3060   16.9420   32.1910 O   0  0  0  0  0  0  0  0  0  0  0  0
   37.6350   15.5980   32.0910 C   0  0  0  0  0  0  0  0  0  0  0  0
   37.9810   14.5740   33.0270 C   0  0  0  0  0  0  0  0  0  0  0  0
   38.2350   13.3580   32.4760 C   0  0  0  0  0  0  0  0  0  0  0  0
   38.1830   13.0690   31.1520 C   0  0  0  0  0  0  0  0  0  0  0  0
   37.6980   14.7180   30.4140 S   0  0  0  0  0  0  0  0  0  0  0  0
   35.1467   22.1847   32.6045 H   0  0  0  0  0  0  0  0  0  0  0  0
   41.0193   22.3116   38.0985 H   0  0  0  0  0  0  0  0  0  0  0  0
   39.3143   23.1187   39.7525 H   0  0  0  0  0  0  0  0  0  0  0  0
   37.1172   23.9770   38.9024 H   0  0  0  0  0  0  0  0  0  0  0  0
   40.1223   23.9220   33.4489 H   0  0  0  0  0  0  0  0  0  0  0  0
   35.4970   24.3149   31.4018 H   0  0  0  0  0  0  0  0  0  0  0  0
   36.6472   23.4993   30.2888 H   0  0  0  0  0  0  0  0  0  0  0  0
   34.9129   23.0316   30.2888 H   0  0  0  0  0  0  0  0  0  0  0  0
   35.6681   20.8859   30.4549 H   0  0  0  0  0  0  0  0  0  0  0  0
   37.4248   21.1838   30.8853 H   0  0  0  0  0  0  0  0  0  0  0  0
   37.5127   19.9015   32.1063 H   0  0  0  0  0  0  0  0  0  0  0  0
   35.8080   19.1805   34.1900 H   0  0  0  0  0  0  0  0  0  0  0  0
   34.7384   20.2283   33.7941 H   0  0  0  0  0  0  0  0  0  0  0  0
   34.7369   18.5142   31.1585 H   0  0  0  0  0  0  0  0  0  0  0  0
   38.0373   14.7565   34.1103 H   0  0  0  0  0  0  0  0  0  0  0  0
   38.5051   12.5405   33.1606 H   0  0  0  0  0  0  0  0  0  0  0  0
   38.3760   12.1127   30.6438 H   0  0  0  0  0  0  0  0  0  0  0  0
  1 11  1  0
  2  3  2  0
  4  3  1  0
  5  4  2  0
  6  7  2  0
  6  5  1  0
  7  2  1  0
  8  6  1  0
  9  8  1  0
 10 11  1  0
 10  9  2  0
 11 12  2  0
 12  8  1  0
 13  1  1  0
 14  1  1  0
 14 15  1  0
 15 16  1  0
 17 15  1  0
 17 18  1  0
 17 16  1  0
 18 19  2  0
 20 18  1  0
 21 20  1  0
 21 22  2  0
 23 22  1  0
 24 23  2  0
 25 24  1  0
 25 21  1  0
  1 26  1  1
  2 27  1  0
  3 28  1  0
  4 29  1  0
  9 30  1  0
 13 31  1  0
 13 32  1  0
 13 33  1  0
 14 34  1  0
 14 35  1  0
 15 36  1  1
 16 37  1  0
 16 38  1  0
 17 39  1  6
 22 40  1  0
 23 41  1  0
 24 42  1  0
M  ISO  8  26   8  27  14  28  14  29  14  30  14  31   8  32   8  33   8
M  ISO  8  34   8  35   8  36  13  37  13  38  13  39  13  40  14  41  14
M  ISO  1  42  14
M  END
>  <minimizedAffinity>  (1) 
-4.70715141

>  <minimizedRMSD>  (1) 
2.79297495

$$$$
