
     RDKit          3D

 26 27  0  0  0  0  0  0  0  0999 V2000
   38.5850   22.5620   36.2160 C   0  0  0  0  0  0  0  0  0  0  0  0
   38.3560   23.7190   36.9720 C   0  0  0  0  0  0  0  0  0  0  0  0
   38.2820   24.9420   36.2880 C   0  0  0  0  0  0  0  0  0  0  0  0
   38.4360   24.9420   34.9390 N   0  0  0  0  0  0  0  0  0  0  0  0
   38.6570   23.8030   34.2330 C   0  0  0  0  0  0  0  0  0  0  0  0
   38.7280   22.6370   34.8760 N   0  0  0  0  0  0  0  0  0  0  0  0
   38.8200   23.7750   32.8210 N   0  0  0  0  0  0  0  0  0  0  0  0
   39.8870   23.2130   32.1960 C   0  0  0  0  0  0  0  0  0  0  0  0
   39.9280   23.2510   30.8300 C   0  0  0  0  0  0  0  0  0  0  0  0
   38.9030   23.8480   30.1400 C   0  0  0  0  0  0  0  0  0  0  0  0
   38.9250   23.8920   28.8800 O   0  0  0  0  0  0  0  0  0  0  0  0
   37.8400   24.4100   30.7270 N   0  0  0  0  0  0  0  0  0  0  0  0
   37.8360   24.3520   32.0890 C   0  0  0  0  0  0  0  0  0  0  0  0
   36.8450   24.8730   32.6720 O   0  0  0  0  0  0  0  0  0  0  0  0
   41.0530   22.6610   30.1000 C   0  0  0  0  0  0  0  0  0  0  0  0
   38.1850   23.7500   38.4450 C   0  0  0  0  0  0  0  0  0  0  0  0
   39.4010   23.4790   39.0500 F   0  0  0  0  0  0  0  0  0  0  0  0
   37.2670   22.8290   38.8840 F   0  0  0  0  0  0  0  0  0  0  0  0
   37.8190   25.0110   38.9120 F   0  0  0  0  0  0  0  0  0  0  0  0
   38.6487   21.5854   36.7181 H   0  0  0  0  0  0  0  0  0  0  0  0
   38.1031   25.8806   36.8330 H   0  0  0  0  0  0  0  0  0  0  0  0
   40.6956   22.7404   32.7729 H   0  0  0  0  0  0  0  0  0  0  0  0
   37.0813   24.8534   30.1898 H   0  0  0  0  0  0  0  0  0  0  0  0
   41.7922   22.2734   30.8165 H   0  0  0  0  0  0  0  0  0  0  0  0
   40.6886   21.8379   29.4677 H   0  0  0  0  0  0  0  0  0  0  0  0
   41.5229   23.4287   29.4677 H   0  0  0  0  0  0  0  0  0  0  0  0
  1  2  2  0
  2 16  1  0
  3  2  1  0
  4  3  2  0
  5  6  2  0
  5  4  1  0
  6  1  1  0
  7  5  1  0
  8  7  1  0
  9  8  2  0
 10 12  1  0
 10  9  1  0
 11 10  2  0
 12 13  1  0
 13 14  2  0
 13  7  1  0
 15  9  1  0
 16 18  1  0
 16 19  1  0
 16 17  1  0
  1 20  1  0
  3 21  1  0
  8 22  1  0
 12 23  1  0
 15 24  1  0
 15 25  1  0
 15 26  1  0
M  ISO  7  20  14  21  14  22  14  23   9  24   8  25   8  26   8
M  END
>  <minimizedAffinity>  (1) 
-4.92804432

>  <minimizedRMSD>  (1) 
3.80615163

$$$$
