
     RDKit          3D

 37 40  0  0  0  0  0  0  0  0999 V2000
   39.6600   23.6510   33.1360 C   0  0  0  0  0  0  0  0  0  0  0  0
   40.6690   24.0850   34.0250 C   0  0  0  0  0  0  0  0  0  0  0  0
   41.5610   25.0590   33.5590 C   0  0  0  0  0  0  0  0  0  0  0  0
   41.4120   25.5270   32.3050 N   0  0  0  0  0  0  0  0  0  0  0  0
   40.4480   25.1060   31.4700 C   0  0  0  0  0  0  0  0  0  0  0  0
   39.5920   24.1810   31.8960 N   0  0  0  0  0  0  0  0  0  0  0  0
   40.2760   25.5850   30.1520 N   0  0  0  0  0  0  0  0  0  0  0  0
   40.2180   24.7690   29.0500 C   0  0  0  0  0  0  0  0  0  0  0  0
   40.0460   25.3610   27.8260 C   0  0  0  0  0  0  0  0  0  0  0  0
   39.9370   26.7300   27.7380 C   0  0  0  0  0  0  0  0  0  0  0  0
   39.7790   27.2680   26.6120 O   0  0  0  0  0  0  0  0  0  0  0  0
   39.9900   27.5480   28.7930 N   0  0  0  0  0  0  0  0  0  0  0  0
   40.1620   26.9220   29.9880 C   0  0  0  0  0  0  0  0  0  0  0  0
   40.2150   27.6710   31.0020 O   0  0  0  0  0  0  0  0  0  0  0  0
   40.5990   23.3940   35.3000 C   0  0  0  0  0  0  0  0  0  0  0  0
   41.4970   22.3810   35.4810 N   0  0  0  0  0  0  0  0  0  0  0  0
   41.5320   21.6550   36.6270 C   0  0  0  0  0  0  0  0  0  0  0  0
   40.6890   21.8880   37.6480 N   0  0  0  0  0  0  0  0  0  0  0  0
   39.7900   22.8790   37.5050 C   0  0  0  0  0  0  0  0  0  0  0  0
   38.8720   23.1950   38.4900 C   0  0  0  0  0  0  0  0  0  0  0  0
   37.9280   24.2140   38.3470 C   0  0  0  0  0  0  0  0  0  0  0  0
   37.9130   24.9450   37.1540 C   0  0  0  0  0  0  0  0  0  0  0  0
   38.8370   24.6170   36.1850 C   0  0  0  0  0  0  0  0  0  0  0  0
   39.7450   23.6220   36.3460 C   0  0  0  0  0  0  0  0  0  0  0  0
   39.9780   24.5490   26.6090 C   0  0  0  0  0  0  0  0  0  0  0  0
   38.9349   22.8866   33.4520 H   0  0  0  0  0  0  0  0  0  0  0  0
   42.3681   25.4347   34.2051 H   0  0  0  0  0  0  0  0  0  0  0  0
   40.3066   23.6768   29.1459 H   0  0  0  0  0  0  0  0  0  0  0  0
   39.9072   28.5711   28.7081 H   0  0  0  0  0  0  0  0  0  0  0  0
   42.2746   20.8493   36.7237 H   0  0  0  0  0  0  0  0  0  0  0  0
   38.8861   22.6186   39.4268 H   0  0  0  0  0  0  0  0  0  0  0  0
   37.2133   24.4367   39.1530 H   0  0  0  0  0  0  0  0  0  0  0  0
   37.1869   25.7557   36.9944 H   0  0  0  0  0  0  0  0  0  0  0  0
   38.8381   25.1851   35.2430 H   0  0  0  0  0  0  0  0  0  0  0  0
   39.8891   23.4870   26.8813 H   0  0  0  0  0  0  0  0  0  0  0  0
   39.1019   24.8500   26.0158 H   0  0  0  0  0  0  0  0  0  0  0  0
   40.8919   24.7001   26.0158 H   0  0  0  0  0  0  0  0  0  0  0  0
  1  2  2  0
  2 15  1  0
  3  2  1  0
  4  3  2  0
  5  6  2  0
  5  4  1  0
  6  1  1  0
  7  5  1  0
  8  7  1  0
  9  8  2  0
 10  9  1  0
 10 12  1  0
 11 10  2  0
 12 13  1  0
 13  7  1  0
 13 14  2  0
 15 16  2  0
 15 24  1  0
 16 17  1  0
 17 18  2  0
 19 18  1  0
 19 20  2  0
 21 20  1  0
 22 21  2  0
 23 24  2  0
 23 22  1  0
 24 19  1  0
 25  9  1  0
  1 26  1  0
  3 27  1  0
  8 28  1  0
 12 29  1  0
 17 30  1  0
 20 31  1  0
 21 32  1  0
 22 33  1  0
 23 34  1  0
 25 35  1  0
 25 36  1  0
 25 37  1  0
M  ISO  8  26  14  27  14  28  14  29   9  30  14  31  14  32  14  33  14
M  ISO  4  34  14  35   8  36   8  37   8
M  END
>  <minimizedAffinity>  (1) 
-5.45558119

>  <minimizedRMSD>  (1) 
6.52538919

$$$$
