
     RDKit          3D

 39 42  0  0  0  0  0  0  0  0999 V2000
   40.9600   22.3310   34.1950 C   0  0  0  0  0  0  0  0  0  0  0  0
   40.8040   23.5440   34.8820 C   0  0  0  0  0  0  0  0  0  0  0  0
   39.5030   24.0420   35.0260 C   0  0  0  0  0  0  0  0  0  0  0  0
   38.4780   23.3360   34.5030 N   0  0  0  0  0  0  0  0  0  0  0  0
   38.6500   22.1740   33.8480 C   0  0  0  0  0  0  0  0  0  0  0  0
   39.8810   21.6760   33.6950 N   0  0  0  0  0  0  0  0  0  0  0  0
   37.5900   21.4190   33.2940 N   0  0  0  0  0  0  0  0  0  0  0  0
   37.5510   21.0160   31.9860 C   0  0  0  0  0  0  0  0  0  0  0  0
   36.4580   20.2830   31.5740 C   0  0  0  0  0  0  0  0  0  0  0  0
   35.4610   19.9840   32.4690 C   0  0  0  0  0  0  0  0  0  0  0  0
   34.4590   19.3150   32.1020 O   0  0  0  0  0  0  0  0  0  0  0  0
   35.4730   20.3640   33.7480 N   0  0  0  0  0  0  0  0  0  0  0  0
   36.5680   21.0870   34.1210 C   0  0  0  0  0  0  0  0  0  0  0  0
   36.6110   21.4610   35.3250 O   0  0  0  0  0  0  0  0  0  0  0  0
   42.0630   24.0850   35.3200 C   0  0  0  0  0  0  0  0  0  0  0  0
   42.6670   23.4510   36.4130 C   0  0  0  0  0  0  0  0  0  0  0  0
   43.8800   23.8330   36.9340 C   0  0  0  0  0  0  0  0  0  0  0  0
   44.5680   24.8830   36.3900 C   0  0  0  0  0  0  0  0  0  0  0  0
   44.0010   25.5230   35.3210 C   0  0  0  0  0  0  0  0  0  0  0  0
   44.6130   26.6040   34.7030 C   0  0  0  0  0  0  0  0  0  0  0  0
   44.0580   27.2710   33.6270 C   0  0  0  0  0  0  0  0  0  0  0  0
   42.8340   26.8470   33.1400 C   0  0  0  0  0  0  0  0  0  0  0  0
   42.2020   25.7810   33.7310 C   0  0  0  0  0  0  0  0  0  0  0  0
   42.7840   25.1370   34.8010 C   0  0  0  0  0  0  0  0  0  0  0  0
   36.3620   19.8250   30.1900 C   0  0  0  0  0  0  0  0  0  0  0  0
   41.9658   21.9066   34.0601 H   0  0  0  0  0  0  0  0  0  0  0  0
   39.3200   24.9892   35.5545 H   0  0  0  0  0  0  0  0  0  0  0  0
   38.3631   21.2681   31.2882 H   0  0  0  0  0  0  0  0  0  0  0  0
   34.7138   20.1294   34.4033 H   0  0  0  0  0  0  0  0  0  0  0  0
   42.1433   22.6032   36.8787 H   0  0  0  0  0  0  0  0  0  0  0  0
   44.3004   23.2910   37.7939 H   0  0  0  0  0  0  0  0  0  0  0  0
   45.5396   25.2008   36.7961 H   0  0  0  0  0  0  0  0  0  0  0  0
   45.5852   26.9462   35.0872 H   0  0  0  0  0  0  0  0  0  0  0  0
   44.5795   28.1230   33.1664 H   0  0  0  0  0  0  0  0  0  0  0  0
   42.3704   27.3607   32.2849 H   0  0  0  0  0  0  0  0  0  0  0  0
   41.2283   25.4402   33.3492 H   0  0  0  0  0  0  0  0  0  0  0  0
   36.1364   18.7485   30.1748 H   0  0  0  0  0  0  0  0  0  0  0  0
   35.5596   20.3751   29.6766 H   0  0  0  0  0  0  0  0  0  0  0  0
   37.3177   20.0066   29.6766 H   0  0  0  0  0  0  0  0  0  0  0  0
  1  2  2  0
  2  3  1  0
  2 15  1  0
  4  3  2  0
  5  4  1  0
  6  5  2  0
  6  1  1  0
  7  5  1  0
  7 13  1  0
  8  7  1  0
  9  8  2  0
  9 10  1  0
 10 12  1  0
 11 10  2  0
 12 13  1  0
 13 14  2  0
 15 16  2  0
 16 17  1  0
 18 17  2  0
 19 18  1  0
 20 19  2  0
 21 20  1  0
 22 21  2  0
 22 23  1  0
 23 24  2  0
 24 15  1  0
 24 19  1  0
 25  9  1  0
  1 26  1  0
  3 27  1  0
  8 28  1  0
 12 29  1  0
 16 30  1  0
 17 31  1  0
 18 32  1  0
 20 33  1  0
 21 34  1  0
 22 35  1  0
 23 36  1  0
 25 37  1  0
 25 38  1  0
 25 39  1  0
M  ISO  8  26  14  27  14  28  14  29   9  30  14  31  14  32  14  33  14
M  ISO  6  34  14  35  14  36  14  37   8  38   8  39   8
M  END
>  <minimizedAffinity>  (1) 
-5.57479763

>  <minimizedRMSD>  (1) 
3.73085332

$$$$
