
     RDKit          3D

 31 33  0  0  0  0  0  0  0  0999 V2000
   40.2220   25.2300   34.2860 C   0  0  0  0  0  0  0  0  0  0  0  0
   39.0190   24.6900   34.7540 C   0  0  0  0  0  0  0  0  0  0  0  0
   37.9230   24.6580   33.8850 C   0  0  0  0  0  0  0  0  0  0  0  0
   38.0630   25.1500   32.6210 N   0  0  0  0  0  0  0  0  0  0  0  0
   39.2530   25.6680   32.2060 C   0  0  0  0  0  0  0  0  0  0  0  0
   40.3130   25.7100   33.0160 N   0  0  0  0  0  0  0  0  0  0  0  0
   39.4430   26.1930   30.8920 N   0  0  0  0  0  0  0  0  0  0  0  0
   39.9110   27.4450   30.6380 C   0  0  0  0  0  0  0  0  0  0  0  0
   40.0480   27.8290   29.3270 C   0  0  0  0  0  0  0  0  0  0  0  0
   39.7160   26.9540   28.3180 C   0  0  0  0  0  0  0  0  0  0  0  0
   39.8420   27.3060   27.1230 O   0  0  0  0  0  0  0  0  0  0  0  0
   39.2570   25.7250   28.5400 N   0  0  0  0  0  0  0  0  0  0  0  0
   39.1320   25.3730   29.8490 C   0  0  0  0  0  0  0  0  0  0  0  0
   38.6950   24.2090   30.0860 O   0  0  0  0  0  0  0  0  0  0  0  0
   38.9800   24.1910   36.1220 C   0  0  0  0  0  0  0  0  0  0  0  0
   39.8340   23.2260   36.6000 C   0  0  0  0  0  0  0  0  0  0  0  0
   39.7170   22.8220   37.9070 C   0  0  0  0  0  0  0  0  0  0  0  0
   38.7800   23.3660   38.7040 N   0  0  0  0  0  0  0  0  0  0  0  0
   37.9330   24.3230   38.2320 C   0  0  0  0  0  0  0  0  0  0  0  0
   38.0520   24.7190   36.9380 N   0  0  0  0  0  0  0  0  0  0  0  0
   40.5500   29.1720   28.9960 C   0  0  0  0  0  0  0  0  0  0  0  0
   41.0993   25.2667   34.9486 H   0  0  0  0  0  0  0  0  0  0  0  0
   36.9607   24.2413   34.2172 H   0  0  0  0  0  0  0  0  0  0  0  0
   40.1719   28.1293   31.4587 H   0  0  0  0  0  0  0  0  0  0  0  0
   39.0126   25.0829   27.7727 H   0  0  0  0  0  0  0  0  0  0  0  0
   40.5996   22.7840   35.9454 H   0  0  0  0  0  0  0  0  0  0  0  0
   40.3926   22.0500   38.3041 H   0  0  0  0  0  0  0  0  0  0  0  0
   37.1677   24.7664   38.8860 H   0  0  0  0  0  0  0  0  0  0  0  0
   40.7568   29.7252   29.9240 H   0  0  0  0  0  0  0  0  0  0  0  0
   41.4755   29.0829   28.4083 H   0  0  0  0  0  0  0  0  0  0  0  0
   39.7930   29.7119   28.4083 H   0  0  0  0  0  0  0  0  0  0  0  0
  1  2  2  0
  2 15  1  0
  3  2  1  0
  4  3  2  0
  5  4  1  0
  5  6  2  0
  6  1  1  0
  7  5  1  0
  8  7  1  0
  9  8  2  0
 10 12  1  0
 10  9  1  0
 11 10  2  0
 12 13  1  0
 13 14  2  0
 13  7  1  0
 15 16  2  0
 15 20  1  0
 16 17  1  0
 17 18  2  0
 19 18  1  0
 20 19  2  0
 21  9  1  0
  1 22  1  0
  3 23  1  0
  8 24  1  0
 12 25  1  0
 16 26  1  0
 17 27  1  0
 19 28  1  0
 21 29  1  0
 21 30  1  0
 21 31  1  0
M  ISO  8  22  14  23  14  24  14  25   9  26  14  27  14  28  14  29   8
M  ISO  2  30   8  31   8
M  END
>  <minimizedAffinity>  (1) 
-4.82701969

>  <minimizedRMSD>  (1) 
6.26951885

$$$$
