
     RDKit          3D

 30 32  0  0  0  0  0  0  0  0999 V2000
   40.4050   23.8760   34.5270 C   0  0  0  0  0  0  0  0  0  0  0  0
   39.1680   24.0120   35.2120 C   0  0  0  0  0  0  0  0  0  0  0  0
   38.0610   24.5000   34.4800 C   0  0  0  0  0  0  0  0  0  0  0  0
   38.2330   24.8110   33.1700 N   0  0  0  0  0  0  0  0  0  0  0  0
   39.4240   24.6700   32.5490 C   0  0  0  0  0  0  0  0  0  0  0  0
   40.4710   24.2120   33.2280 N   0  0  0  0  0  0  0  0  0  0  0  0
   39.6390   24.9870   31.1770 N   0  0  0  0  0  0  0  0  0  0  0  0
   40.6260   25.8240   30.7370 C   0  0  0  0  0  0  0  0  0  0  0  0
   40.7140   26.0380   29.3770 C   0  0  0  0  0  0  0  0  0  0  0  0
   39.8380   25.4230   28.5320 C   0  0  0  0  0  0  0  0  0  0  0  0
   39.9160   25.6170   27.2900 O   0  0  0  0  0  0  0  0  0  0  0  0
   38.8660   24.6010   28.9340 N   0  0  0  0  0  0  0  0  0  0  0  0
   38.8030   24.4090   30.2800 C   0  0  0  0  0  0  0  0  0  0  0  0
   37.8910   23.6330   30.6920 O   0  0  0  0  0  0  0  0  0  0  0  0
   38.9950   23.6800   36.5970 C   0  0  0  0  0  0  0  0  0  0  0  0
   38.0530   24.2860   37.3990 C   0  0  0  0  0  0  0  0  0  0  0  0
   38.0890   23.7910   38.6850 C   0  0  0  0  0  0  0  0  0  0  0  0
   39.0850   22.8640   38.6440 N   0  0  0  0  0  0  0  0  0  0  0  0
   39.5880   22.8200   37.4360 N   0  0  0  0  0  0  0  0  0  0  0  0
   41.7520   26.9260   28.8530 C   0  0  0  0  0  0  0  0  0  0  0  0
   41.2957   23.5011   35.0525 H   0  0  0  0  0  0  0  0  0  0  0  0
   37.0804   24.6251   34.9624 H   0  0  0  0  0  0  0  0  0  0  0  0
   41.3218   26.3072   31.4387 H   0  0  0  0  0  0  0  0  0  0  0  0
   38.2149   24.1477   28.2772 H   0  0  0  0  0  0  0  0  0  0  0  0
   37.3588   25.0673   37.0560 H   0  0  0  0  0  0  0  0  0  0  0  0
   37.4613   24.0774   39.5417 H   0  0  0  0  0  0  0  0  0  0  0  0
   39.3946   22.2872   39.4392 H   0  0  0  0  0  0  0  0  0  0  0  0
   42.2944   27.3900   29.6900 H   0  0  0  0  0  0  0  0  0  0  0  0
   42.4549   26.3453   28.2375 H   0  0  0  0  0  0  0  0  0  0  0  0
   41.2872   27.7103   28.2375 H   0  0  0  0  0  0  0  0  0  0  0  0
  1  2  2  0
  2 15  1  0
  3  2  1  0
  4  3  2  0
  5  4  1  0
  5  6  2  0
  6  1  1  0
  7  5  1  0
  8  7  1  0
  9  8  2  0
 10 12  1  0
 10  9  1  0
 11 10  2  0
 12 13  1  0
 13 14  2  0
 13  7  1  0
 15 16  1  0
 15 19  2  0
 16 17  2  0
 18 17  1  0
 19 18  1  0
 20  9  1  0
  1 21  1  0
  3 22  1  0
  8 23  1  0
 12 24  1  0
 16 25  1  0
 17 26  1  0
 18 27  1  0
 20 28  1  0
 20 29  1  0
 20 30  1  0
M  ISO  8  21  14  22  14  23  14  24   9  25  14  26  14  27   9  28   8
M  ISO  2  29   8  30   8
M  END
>  <minimizedAffinity>  (1) 
-4.83124971

>  <minimizedRMSD>  (1) 
5.53957415

$$$$
