
     RDKit          3D

 36 38  0  0  0  0  0  0  0  0999 V2000
   37.5590   22.6830   31.3670 C   0  0  0  0  0  0  0  0  0  0  0  0
   38.3990   21.5580   31.1480 C   0  0  0  0  0  0  0  0  0  0  0  0
   39.1900   21.1250   32.2230 C   0  0  0  0  0  0  0  0  0  0  0  0
   39.1150   21.7910   33.4010 N   0  0  0  0  0  0  0  0  0  0  0  0
   38.2960   22.8690   33.5740 C   0  0  0  0  0  0  0  0  0  0  0  0
   37.5380   23.2960   32.5700 N   0  0  0  0  0  0  0  0  0  0  0  0
   38.2020   23.5840   34.8040 N   0  0  0  0  0  0  0  0  0  0  0  0
   38.3790   24.9270   34.9040 C   0  0  0  0  0  0  0  0  0  0  0  0
   38.2590   25.4830   36.1550 C   0  0  0  0  0  0  0  0  0  0  0  0
   37.9700   24.6810   37.2380 C   0  0  0  0  0  0  0  0  0  0  0  0
   37.8600   25.1900   38.3880 O   0  0  0  0  0  0  0  0  0  0  0  0
   37.7920   23.3580   37.1640 N   0  0  0  0  0  0  0  0  0  0  0  0
   37.9200   22.8480   35.9100 C   0  0  0  0  0  0  0  0  0  0  0  0
   37.7550   21.5860   35.8040 O   0  0  0  0  0  0  0  0  0  0  0  0
   38.4680   20.8700   29.9100 N   0  0  0  0  0  0  0  0  0  0  0  0
   37.6130   19.8230   29.8450 C   0  0  0  0  0  0  0  0  0  0  0  0
   37.5630   19.0450   28.6860 C   0  0  0  0  0  0  0  0  0  0  0  0
   36.6260   17.8930   28.6050 C   0  0  0  0  0  0  0  0  0  0  0  0
   38.4090   19.3930   27.6460 C   0  0  0  0  0  0  0  0  0  0  0  0
   38.3600   18.6900   26.6050 O   0  0  0  0  0  0  0  0  0  0  0  0
   39.2420   20.4510   27.7690 N   0  0  0  0  0  0  0  0  0  0  0  0
   39.2860   21.2010   28.8940 C   0  0  0  0  0  0  0  0  0  0  0  0
   40.0480   22.1870   29.0410 O   0  0  0  0  0  0  0  0  0  0  0  0
   38.4380   26.9220   36.3400 C   0  0  0  0  0  0  0  0  0  0  0  0
   36.9221   23.0567   30.5517 H   0  0  0  0  0  0  0  0  0  0  0  0
   39.8597   20.2595   32.1115 H   0  0  0  0  0  0  0  0  0  0  0  0
   38.6084   25.5428   34.0219 H   0  0  0  0  0  0  0  0  0  0  0  0
   37.5766   22.7755   37.9857 H   0  0  0  0  0  0  0  0  0  0  0  0
   36.9617   19.5862   30.6993 H   0  0  0  0  0  0  0  0  0  0  0  0
   36.3593   17.5651   29.6206 H   0  0  0  0  0  0  0  0  0  0  0  0
   35.7160   18.1976   28.0673 H   0  0  0  0  0  0  0  0  0  0  0  0
   37.1096   17.0641   28.0673 H   0  0  0  0  0  0  0  0  0  0  0  0
   39.8616   20.6931   26.9826 H   0  0  0  0  0  0  0  0  0  0  0  0
   38.4667   27.1527   37.4152 H   0  0  0  0  0  0  0  0  0  0  0  0
   39.3823   27.2372   35.8720 H   0  0  0  0  0  0  0  0  0  0  0  0
   37.5997   27.4589   35.8720 H   0  0  0  0  0  0  0  0  0  0  0  0
  1  6  2  0
  2  1  1  0
  2  3  2  0
  3  4  1  0
  4  5  2  0
  5  7  1  0
  6  5  1  0
  7  8  1  0
  7 13  1  0
  8  9  2  0
  9 24  1  0
  9 10  1  0
 10 11  2  0
 12 10  1  0
 13 12  1  0
 14 13  2  0
 15  2  1  0
 16 15  1  0
 17 16  2  0
 18 17  1  0
 19 21  1  0
 19 17  1  0
 20 19  2  0
 21 22  1  0
 22 23  2  0
 22 15  1  0
  1 25  1  0
  3 26  1  0
  8 27  1  0
 12 28  1  0
 16 29  1  0
 18 30  1  0
 18 31  1  0
 18 32  1  0
 21 33  1  0
 24 34  1  0
 24 35  1  0
 24 36  1  0
M  ISO  8  25  14  26  14  27  14  28   9  29  14  30   8  31   8  32   8
M  ISO  4  33   9  34   8  35   8  36   8
M  END
>  <minimizedAffinity>  (1) 
-4.86350107

>  <minimizedRMSD>  (1) 
9.26864624

$$$$
