
     RDKit          3D

 49 53  0  0  0  0  0  0  0  0999 V2000
   41.1550   23.9960   34.6150 C   0  0  0  0  0  0  0  0  0  0  0  0
   41.1390   25.3920   34.7870 C   0  0  0  0  0  0  0  0  0  0  0  0
   39.9900   25.9510   35.3420 C   0  0  0  0  0  0  0  0  0  0  0  0
   38.9680   25.1420   35.6810 N   0  0  0  0  0  0  0  0  0  0  0  0
   38.9980   23.8190   35.5100 C   0  0  0  0  0  0  0  0  0  0  0  0
   40.0830   23.2420   34.9800 N   0  0  0  0  0  0  0  0  0  0  0  0
   37.9360   22.9570   35.8600 N   0  0  0  0  0  0  0  0  0  0  0  0
   37.3620   22.0740   34.9770 C   0  0  0  0  0  0  0  0  0  0  0  0
   36.3270   21.2810   35.4470 C   0  0  0  0  0  0  0  0  0  0  0  0
   35.9190   21.4010   36.7480 C   0  0  0  0  0  0  0  0  0  0  0  0
   34.9830   20.6900   37.1960 O   0  0  0  0  0  0  0  0  0  0  0  0
   36.4580   22.2470   37.6190 N   0  0  0  0  0  0  0  0  0  0  0  0
   37.4720   23.0100   37.1230 C   0  0  0  0  0  0  0  0  0  0  0  0
   38.0060   23.8260   37.9260 O   0  0  0  0  0  0  0  0  0  0  0  0
   42.3660   25.9920   34.3360 C   0  0  0  0  0  0  0  0  0  0  0  0
   43.5110   25.7250   35.0790 C   0  0  0  0  0  0  0  0  0  0  0  0
   44.7500   26.2230   34.7680 C   0  0  0  0  0  0  0  0  0  0  0  0
   44.9120   27.0300   33.6740 C   0  0  0  0  0  0  0  0  0  0  0  0
   43.8040   27.3110   32.9220 C   0  0  0  0  0  0  0  0  0  0  0  0
   43.8800   28.1170   31.8030 C   0  0  0  0  0  0  0  0  0  0  0  0
   42.7780   28.4190   31.0240 C   0  0  0  0  0  0  0  0  0  0  0  0
   41.5460   27.8910   31.3820 C   0  0  0  0  0  0  0  0  0  0  0  0
   41.4490   27.0900   32.4860 C   0  0  0  0  0  0  0  0  0  0  0  0
   42.5670   26.8100   33.2370 C   0  0  0  0  0  0  0  0  0  0  0  0
   35.6750   20.3330   34.5520 C   0  0  0  0  0  0  0  0  0  0  0  0
   36.0720   20.6250   33.1530 C   0  0  0  0  0  0  0  0  0  0  0  0
   37.1250   20.0330   32.4680 C   0  0  0  0  0  0  0  0  0  0  0  0
   37.3550   20.4140   31.1560 C   0  0  0  0  0  0  0  0  0  0  0  0
   36.5810   21.3570   30.5070 C   0  0  0  0  0  0  0  0  0  0  0  0
   35.5250   21.9460   31.2050 C   0  0  0  0  0  0  0  0  0  0  0  0
   35.2970   21.5640   32.5110 C   0  0  0  0  0  0  0  0  0  0  0  0
   42.0416   23.5099   34.1818 H   0  0  0  0  0  0  0  0  0  0  0  0
   39.9185   27.0371   35.5010 H   0  0  0  0  0  0  0  0  0  0  0  0
   37.7109   21.9994   33.9365 H   0  0  0  0  0  0  0  0  0  0  0  0
   36.1343   22.3204   38.5941 H   0  0  0  0  0  0  0  0  0  0  0  0
   43.4174   25.0791   35.9644 H   0  0  0  0  0  0  0  0  0  0  0  0
   45.6159   25.9736   35.3989 H   0  0  0  0  0  0  0  0  0  0  0  0
   45.8984   27.4382   33.4088 H   0  0  0  0  0  0  0  0  0  0  0  0
   44.8570   28.5358   31.5199 H   0  0  0  0  0  0  0  0  0  0  0  0
   42.8762   29.0645   30.1388 H   0  0  0  0  0  0  0  0  0  0  0  0
   40.6523   28.1154   30.7812 H   0  0  0  0  0  0  0  0  0  0  0  0
   40.4747   26.6686   32.7742 H   0  0  0  0  0  0  0  0  0  0  0  0
   35.9813   19.3097   34.8147 H   0  0  0  0  0  0  0  0  0  0  0  0
   34.5833   20.4243   34.6514 H   0  0  0  0  0  0  0  0  0  0  0  0
   37.7612   19.2796   32.9554 H   0  0  0  0  0  0  0  0  0  0  0  0
   38.1872   19.9471   30.6089 H   0  0  0  0  0  0  0  0  0  0  0  0
   36.7920   21.6372   29.4644 H   0  0  0  0  0  0  0  0  0  0  0  0
   34.8865   22.7007   30.7226 H   0  0  0  0  0  0  0  0  0  0  0  0
   34.4641   22.0275   33.0601 H   0  0  0  0  0  0  0  0  0  0  0  0
  1  2  2  0
  1  6  1  0
  2  3  1  0
  3  4  2  0
  5  4  1  0
  5  7  1  0
  6  5  2  0
  7 13  1  0
  8  9  2  0
  8  7  1  0
  9 10  1  0
 10 11  2  0
 10 12  1  0
 13 12  1  0
 13 14  2  0
 15  2  1  0
 15 16  2  0
 17 16  1  0
 18 17  2  0
 19 24  2  0
 19 18  1  0
 20 19  1  0
 21 22  1  0
 21 20  2  0
 22 23  2  0
 23 24  1  0
 24 15  1  0
 25  9  1  0
 26 25  1  0
 27 26  2  0
 28 27  1  0
 29 28  2  0
 29 30  1  0
 30 31  2  0
 31 26  1  0
  1 32  1  0
  3 33  1  0
  8 34  1  0
 12 35  1  0
 16 36  1  0
 17 37  1  0
 18 38  1  0
 20 39  1  0
 21 40  1  0
 22 41  1  0
 23 42  1  0
 25 43  1  0
 25 44  1  0
 27 45  1  0
 28 46  1  0
 29 47  1  0
 30 48  1  0
 31 49  1  0
M  ISO  8  32  14  33  14  34  14  35   9  36  14  37  14  38  14  39  14
M  ISO  8  40  14  41  14  42  14  43   8  44   8  45  14  46  14  47  14
M  ISO  2  48  14  49  14
M  END
>  <minimizedAffinity>  (1) 
-6.25948524

>  <minimizedRMSD>  (1) 
3.33652043

$$$$
