
     RDKit          3D

 53 58  0  0  0  0  0  0  0  0999 V2000
   43.0540   22.9090   34.4940 C   0  0  0  0  0  0  0  0  0  0  0  0
   43.2010   23.3760   35.8100 C   0  0  0  0  0  0  0  0  0  0  0  0
   42.0380   23.7030   36.5030 C   0  0  0  0  0  0  0  0  0  0  0  0
   40.8520   23.5600   35.8870 N   0  0  0  0  0  0  0  0  0  0  0  0
   40.7290   23.1140   34.6350 C   0  0  0  0  0  0  0  0  0  0  0  0
   41.8220   22.7900   33.9380 N   0  0  0  0  0  0  0  0  0  0  0  0
   39.4890   22.9510   33.9650 N   0  0  0  0  0  0  0  0  0  0  0  0
   39.2090   23.4960   32.7470 C   0  0  0  0  0  0  0  0  0  0  0  0
   37.9930   23.2800   32.1650 C   0  0  0  0  0  0  0  0  0  0  0  0
   37.0800   22.4950   32.8570 C   0  0  0  0  0  0  0  0  0  0  0  0
   35.9490   22.2470   32.3860 O   0  0  0  0  0  0  0  0  0  0  0  0
   37.3150   21.9440   34.0530 N   0  0  0  0  0  0  0  0  0  0  0  0
   38.5540   22.2020   34.5790 C   0  0  0  0  0  0  0  0  0  0  0  0
   38.8060   21.7000   35.6980 O   0  0  0  0  0  0  0  0  0  0  0  0
   44.5830   23.4260   36.2030 C   0  0  0  0  0  0  0  0  0  0  0  0
   45.4450   22.5140   35.5910 C   0  0  0  0  0  0  0  0  0  0  0  0
   46.7910   22.4460   35.8590 C   0  0  0  0  0  0  0  0  0  0  0  0
   47.3630   23.2970   36.7650 C   0  0  0  0  0  0  0  0  0  0  0  0
   46.5440   24.2050   37.3830 C   0  0  0  0  0  0  0  0  0  0  0  0
   47.0100   25.1160   38.3170 C   0  0  0  0  0  0  0  0  0  0  0  0
   46.2140   26.0420   38.9570 C   0  0  0  0  0  0  0  0  0  0  0  0
   44.8650   26.0680   38.6520 C   0  0  0  0  0  0  0  0  0  0  0  0
   44.3650   25.1760   37.7260 C   0  0  0  0  0  0  0  0  0  0  0  0
   45.1950   24.2580   37.1020 C   0  0  0  0  0  0  0  0  0  0  0  0
   37.6140   23.8480   30.8950 C   0  0  0  0  0  0  0  0  0  0  0  0
   37.2480   25.2840   30.8920 C   0  0  0  0  0  0  0  0  0  0  0  0
   35.9860   25.5400   31.3600 N   0  0  0  0  0  0  0  0  0  0  0  0
   35.6730   26.8710   31.4280 C   0  0  0  0  0  0  0  0  0  0  0  0
   36.5040   27.9000   31.0760 N   0  0  0  0  0  0  0  0  0  0  0  0
   37.7280   27.6260   30.6210 C   0  0  0  0  0  0  0  0  0  0  0  0
   38.6470   28.5640   30.2210 C   0  0  0  0  0  0  0  0  0  0  0  0
   39.9290   28.2950   29.7250 C   0  0  0  0  0  0  0  0  0  0  0  0
   40.2660   26.9460   29.6440 C   0  0  0  0  0  0  0  0  0  0  0  0
   39.3420   25.9900   30.0480 C   0  0  0  0  0  0  0  0  0  0  0  0
   38.1140   26.3110   30.5240 C   0  0  0  0  0  0  0  0  0  0  0  0
   43.9450   22.6374   33.9089 H   0  0  0  0  0  0  0  0  0  0  0  0
   42.0893   24.0724   37.5379 H   0  0  0  0  0  0  0  0  0  0  0  0
   39.9632   24.1100   32.2330 H   0  0  0  0  0  0  0  0  0  0  0  0
   36.6158   21.3678   34.5429 H   0  0  0  0  0  0  0  0  0  0  0  0
   45.0243   21.8127   34.8553 H   0  0  0  0  0  0  0  0  0  0  0  0
   47.4136   21.7016   35.3411 H   0  0  0  0  0  0  0  0  0  0  0  0
   48.4392   23.2538   36.9886 H   0  0  0  0  0  0  0  0  0  0  0  0
   48.0819   25.0994   38.5633 H   0  0  0  0  0  0  0  0  0  0  0  0
   46.6404   26.7417   39.6909 H   0  0  0  0  0  0  0  0  0  0  0  0
   44.1981   26.7922   39.1426 H   0  0  0  0  0  0  0  0  0  0  0  0
   43.2931   25.1936   37.4795 H   0  0  0  0  0  0  0  0  0  0  0  0
   38.4612   23.7183   30.2055 H   0  0  0  0  0  0  0  0  0  0  0  0
   36.6977   23.3150   30.6013 H   0  0  0  0  0  0  0  0  0  0  0  0
   34.6707   27.1354   31.7960 H   0  0  0  0  0  0  0  0  0  0  0  0
   38.3503   29.6205   30.2967 H   0  0  0  0  0  0  0  0  0  0  0  0
   40.6215   29.0936   29.4206 H   0  0  0  0  0  0  0  0  0  0  0  0
   41.2524   26.6409   29.2645 H   0  0  0  0  0  0  0  0  0  0  0  0
   39.6188   24.9277   29.9786 H   0  0  0  0  0  0  0  0  0  0  0  0
  1  2  2  0
  2 15  1  0
  2  3  1  0
  4  3  2  0
  5  4  1  0
  6  1  1  0
  6  5  2  0
  7 13  1  0
  7  5  1  0
  8  7  1  0
  9  8  2  0
  9 10  1  0
 10 12  1  0
 11 10  2  0
 12 13  1  0
 13 14  2  0
 15 24  2  0
 16 17  2  0
 16 15  1  0
 17 18  1  0
 18 19  2  0
 19 20  1  0
 20 21  2  0
 22 21  1  0
 23 22  2  0
 24 19  1  0
 24 23  1  0
 25  9  1  0
 26 25  1  0
 26 27  2  0
 27 28  1  0
 29 28  2  0
 30 29  1  0
 31 30  2  0
 32 31  1  0
 33 32  2  0
 33 34  1  0
 34 35  2  0
 35 30  1  0
 35 26  1  0
  1 36  1  0
  3 37  1  0
  8 38  1  0
 12 39  1  0
 16 40  1  0
 17 41  1  0
 18 42  1  0
 20 43  1  0
 21 44  1  0
 22 45  1  0
 23 46  1  0
 25 47  1  0
 25 48  1  0
 28 49  1  0
 31 50  1  0
 32 51  1  0
 33 52  1  0
 34 53  1  0
M  ISO  8  36  14  37  14  38  14  39   9  40  14  41  14  42  14  43  14
M  ISO  8  44  14  45  14  46  14  47   8  48   8  49  14  50  14  51  14
M  ISO  2  52  14  53  14
M  END
>  <minimizedAffinity>  (1) 
-6.98407269

>  <minimizedRMSD>  (1) 
4.47697783

$$$$
