
     RDKit          3D

 53 57  0  0  0  0  0  0  0  0999 V2000
   41.2300   22.6430   34.3090 C   0  0  0  0  0  0  0  0  0  0  0  0
   41.1360   23.7700   35.1440 C   0  0  0  0  0  0  0  0  0  0  0  0
   39.8640   24.2350   35.4650 C   0  0  0  0  0  0  0  0  0  0  0  0
   38.7910   23.5960   34.9700 N   0  0  0  0  0  0  0  0  0  0  0  0
   38.8850   22.5250   34.1770 C   0  0  0  0  0  0  0  0  0  0  0  0
   40.0900   22.0550   33.8500 N   0  0  0  0  0  0  0  0  0  0  0  0
   37.7760   21.8310   33.6400 N   0  0  0  0  0  0  0  0  0  0  0  0
   37.6110   21.5750   32.3150 C   0  0  0  0  0  0  0  0  0  0  0  0
   36.4910   20.8890   31.9050 C   0  0  0  0  0  0  0  0  0  0  0  0
   35.5770   20.4890   32.8450 C   0  0  0  0  0  0  0  0  0  0  0  0
   34.5380   19.8610   32.5210 O   0  0  0  0  0  0  0  0  0  0  0  0
   35.7010   20.7230   34.1590 N   0  0  0  0  0  0  0  0  0  0  0  0
   36.8300   21.4060   34.5190 C   0  0  0  0  0  0  0  0  0  0  0  0
   36.9880   21.6460   35.7440 O   0  0  0  0  0  0  0  0  0  0  0  0
   42.4440   24.2510   35.5260 C   0  0  0  0  0  0  0  0  0  0  0  0
   43.0990   23.5640   36.5400 C   0  0  0  0  0  0  0  0  0  0  0  0
   44.3390   23.8970   37.0030 C   0  0  0  0  0  0  0  0  0  0  0  0
   45.0150   24.9630   36.4680 C   0  0  0  0  0  0  0  0  0  0  0  0
   44.4000   25.6690   35.4620 C   0  0  0  0  0  0  0  0  0  0  0  0
   44.9960   26.7560   34.8570 C   0  0  0  0  0  0  0  0  0  0  0  0
   44.3990   27.4750   33.8490 C   0  0  0  0  0  0  0  0  0  0  0  0
   43.1420   27.0950   33.4170 C   0  0  0  0  0  0  0  0  0  0  0  0
   42.5270   26.0180   34.0010 C   0  0  0  0  0  0  0  0  0  0  0  0
   43.1550   25.3210   35.0080 C   0  0  0  0  0  0  0  0  0  0  0  0
   36.2650   20.5880   30.5020 C   0  0  0  0  0  0  0  0  0  0  0  0
   36.7670   19.2520   30.2540 N   0  0  0  0  0  0  0  0  0  0  0  0
   38.0700   18.9940   30.7560 C   0  0  0  0  0  0  0  0  0  0  0  0
   39.0100   18.2730   29.8590 C   0  0  0  0  0  0  0  0  0  0  0  0
   38.4470   17.3370   28.9470 N   0  0  0  0  0  0  0  0  0  0  0  0
   37.0360   17.4100   28.7450 C   0  0  0  0  0  0  0  0  0  0  0  0
   36.5790   18.8460   28.8990 C   0  0  0  0  0  0  0  0  0  0  0  0
   42.2144   22.2398   34.0290 H   0  0  0  0  0  0  0  0  0  0  0  0
   39.7391   25.1136   36.1150 H   0  0  0  0  0  0  0  0  0  0  0  0
   38.3603   21.9107   31.5830 H   0  0  0  0  0  0  0  0  0  0  0  0
   34.9991   20.4120   34.8457 H   0  0  0  0  0  0  0  0  0  0  0  0
   42.5893   22.7024   36.9959 H   0  0  0  0  0  0  0  0  0  0  0  0
   44.7984   23.3069   37.8097 H   0  0  0  0  0  0  0  0  0  0  0  0
   46.0147   25.2434   36.8313 H   0  0  0  0  0  0  0  0  0  0  0  0
   45.9963   27.0619   35.1973 H   0  0  0  0  0  0  0  0  0  0  0  0
   44.9115   28.3359   33.3950 H   0  0  0  0  0  0  0  0  0  0  0  0
   42.6399   27.6517   32.6120 H   0  0  0  0  0  0  0  0  0  0  0  0
   41.5267   25.7093   33.6631 H   0  0  0  0  0  0  0  0  0  0  0  0
   35.1890   20.6320   30.2776 H   0  0  0  0  0  0  0  0  0  0  0  0
   36.7807   21.3193   29.8622 H   0  0  0  0  0  0  0  0  0  0  0  0
   38.5271   19.9630   31.0052 H   0  0  0  0  0  0  0  0  0  0  0  0
   37.9173   18.3186   31.6107 H   0  0  0  0  0  0  0  0  0  0  0  0
   39.5491   19.0282   29.2681 H   0  0  0  0  0  0  0  0  0  0  0  0
   39.6397   17.6716   30.5312 H   0  0  0  0  0  0  0  0  0  0  0  0
   38.9011   17.4791   28.0335 H   0  0  0  0  0  0  0  0  0  0  0  0
   36.5258   16.7807   29.4891 H   0  0  0  0  0  0  0  0  0  0  0  0
   36.7907   17.0529   27.7339 H   0  0  0  0  0  0  0  0  0  0  0  0
   37.1697   19.4940   28.2348 H   0  0  0  0  0  0  0  0  0  0  0  0
   35.5152   18.9275   28.6314 H   0  0  0  0  0  0  0  0  0  0  0  0
  1  2  2  0
  2  3  1  0
  2 15  1  0
  4  3  2  0
  5  4  1  0
  6  5  2  0
  6  1  1  0
  7  5  1  0
  7 13  1  0
  8  7  1  0
  9  8  2  0
  9 10  1  0
 10 12  1  0
 11 10  2  0
 12 13  1  0
 13 14  2  0
 15 16  2  0
 16 17  1  0
 18 17  2  0
 19 18  1  0
 20 19  2  0
 21 20  1  0
 22 21  2  0
 22 23  1  0
 23 24  2  0
 24 19  1  0
 24 15  1  0
 25  9  1  0
 26 25  1  0
 26 27  1  0
 28 27  1  0
 29 28  1  0
 30 31  1  0
 30 29  1  0
 31 26  1  0
  1 32  1  0
  3 33  1  0
  8 34  1  0
 12 35  1  0
 16 36  1  0
 17 37  1  0
 18 38  1  0
 20 39  1  0
 21 40  1  0
 22 41  1  0
 23 42  1  0
 25 43  1  0
 25 44  1  0
 27 45  1  0
 27 46  1  0
 28 47  1  0
 28 48  1  0
 29 49  1  0
 30 50  1  0
 30 51  1  0
 31 52  1  0
 31 53  1  0
M  ISO  8  32  14  33  14  34  14  35   9  36  14  37  14  38  14  39  14
M  ISO  8  40  14  41  14  42  14  43   8  44   8  45  13  46  13  47  13
M  ISO  6  48  13  49   5  50  13  51  13  52  13  53  13
M  END
>  <minimizedAffinity>  (1) 
-5.70279503

>  <minimizedRMSD>  (1) 
0.706961274

$$$$
