
     RDKit          3D

 38 41  0  0  1  0  0  0  0  0999 V2000
   39.0020   23.6230   35.4790 C   0  0  1  0  0  0  0  0  0  0  0  0
   38.4200   24.8050   36.1520 C   0  0  0  0  0  0  0  0  0  0  0  0
   37.6270   24.1920   37.2920 C   0  0  0  0  0  0  0  0  0  0  0  0
   38.5370   23.1340   37.7920 C   0  0  0  0  0  0  0  0  0  0  0  0
   39.3350   22.6780   36.6080 C   0  0  2  0  0  0  0  0  0  0  0  0
   40.8290   22.7820   36.8760 C   0  0  0  0  0  0  0  0  0  0  0  0
   41.6350   21.7450   36.1020 C   0  0  0  0  0  0  0  0  0  0  0  0
   41.5710   21.7360   37.5930 C   0  0  0  0  0  0  0  0  0  0  0  0
   37.7540   23.5820   33.3400 C   0  0  0  0  0  0  0  0  0  0  0  0
   36.9060   22.7440   32.6400 C   0  0  0  0  0  0  0  0  0  0  0  0
   36.7740   21.6400   33.4410 N   0  0  0  0  0  0  0  0  0  0  0  0
   37.5200   21.8620   34.5370 C   0  0  0  0  0  0  0  0  0  0  0  0
   38.1350   23.0440   34.5100 N   0  0  0  0  0  0  0  0  0  0  0  0
   38.1990   24.8970   32.8870 C   0  0  0  0  0  0  0  0  0  0  0  0
   39.4950   25.0410   32.3540 C   0  0  0  0  0  0  0  0  0  0  0  0
   39.8590   26.3520   31.9440 C   0  0  0  0  0  0  0  0  0  0  0  0
   38.9630   27.3610   32.0860 N   0  0  0  0  0  0  0  0  0  0  0  0
   37.7490   27.1630   32.5990 C   0  0  0  0  0  0  0  0  0  0  0  0
   37.3490   25.9370   33.0050 N   0  0  0  0  0  0  0  0  0  0  0  0
   36.9350   28.2880   32.6850 O   0  0  0  0  0  0  0  0  0  0  0  0
   39.8898   23.8886   34.8863 H   0  0  0  0  0  0  0  0  0  0  0  0
   39.2081   25.4716   36.5321 H   0  0  0  0  0  0  0  0  0  0  0  0
   37.8075   25.4272   35.4829 H   0  0  0  0  0  0  0  0  0  0  0  0
   37.4171   24.9365   38.0741 H   0  0  0  0  0  0  0  0  0  0  0  0
   36.6429   23.8101   36.9826 H   0  0  0  0  0  0  0  0  0  0  0  0
   39.2030   23.5389   38.5682 H   0  0  0  0  0  0  0  0  0  0  0  0
   37.9763   22.3020   38.2431 H   0  0  0  0  0  0  0  0  0  0  0  0
   39.0945   21.6293   36.3789 H   0  0  0  0  0  0  0  0  0  0  0  0
   40.7904   23.8716   37.0221 H   0  0  0  0  0  0  0  0  0  0  0  0
   41.1220   20.9652   35.5200 H   0  0  0  0  0  0  0  0  0  0  0  0
   42.4355   21.7718   35.3480 H   0  0  0  0  0  0  0  0  0  0  0  0
   42.4630   22.0048   38.1779 H   0  0  0  0  0  0  0  0  0  0  0  0
   41.2970   20.9799   38.3435 H   0  0  0  0  0  0  0  0  0  0  0  0
   36.4412   22.9234   31.6593 H   0  0  0  0  0  0  0  0  0  0  0  0
   37.6128   21.1455   35.3665 H   0  0  0  0  0  0  0  0  0  0  0  0
   40.1845   24.1890   32.2607 H   0  0  0  0  0  0  0  0  0  0  0  0
   40.8540   26.5463   31.5171 H   0  0  0  0  0  0  0  0  0  0  0  0
   36.0207   28.2102   33.0567 H   0  0  0  0  0  0  0  0  0  0  0  0
  1  2  1  0
  1  5  1  0
  2  3  1  0
  3  4  1  0
  5  6  1  0
  5  4  1  0
  6  8  1  0
  7  6  1  0
  7  8  1  0
  9 13  1  0
 10  9  2  0
 10 11  1  0
 11 12  2  0
 13 12  1  0
 13  1  1  0
 14 19  1  0
 14  9  1  0
 15 14  2  0
 16 17  2  0
 16 15  1  0
 17 18  1  0
 18 20  1  0
 18 19  2  0
  1 21  1  6
  2 22  1  0
  2 23  1  0
  3 24  1  0
  3 25  1  0
  4 26  1  0
  4 27  1  0
  5 28  1  6
  6 29  1  0
  7 30  1  0
  7 31  1  0
  8 32  1  0
  8 33  1  0
 10 34  1  0
 12 35  1  0
 15 36  1  0
 16 37  1  0
 20 38  1  0
M  ISO  8  21  13  22  13  23  13  24  13  25  13  26  13  27  13  28  13
M  ISO  8  29  13  30  13  31  13  32  13  33  13  34  14  35  14  36  14
M  ISO  2  37  14  38   3
M  END
>  <minimizedAffinity>  (1) 
-4.69985485

>  <minimizedRMSD>  (1) 
0.104009777

$$$$
