
     RDKit          3D

 24 24  0  0  0  0  0  0  0  0999 V2000
   38.5880   24.0460   34.5140 C   0  0  0  0  0  0  0  0  0  0  0  0
   38.5040   25.1190   35.4000 C   0  0  0  0  0  0  0  0  0  0  0  0
   38.0430   24.7940   36.6900 C   0  0  0  0  0  0  0  0  0  0  0  0
   37.7190   23.5220   37.0050 N   0  0  0  0  0  0  0  0  0  0  0  0
   37.8260   22.5330   36.0970 C   0  0  0  0  0  0  0  0  0  0  0  0
   38.2530   22.7840   34.8670 N   0  0  0  0  0  0  0  0  0  0  0  0
   38.8620   26.5130   35.0420 C   0  0  0  0  0  0  0  0  0  0  0  0
   38.2580   26.8070   33.6840 C   0  0  0  0  0  0  0  0  0  0  0  0
   40.3670   26.5830   34.8460 C   0  0  0  0  0  0  0  0  0  0  0  0
   38.3620   27.5440   35.9870 C   0  0  0  0  0  0  0  0  0  0  0  0
   39.0620   24.3470   33.1720 C   0  0  0  0  0  0  0  0  0  0  0  0
   40.0710   23.8200   32.6280 O   0  0  0  0  0  0  0  0  0  0  0  0
   37.9459   25.5845   37.4487 H   0  0  0  0  0  0  0  0  0  0  0  0
   37.5559   21.5047   36.3792 H   0  0  0  0  0  0  0  0  0  0  0  0
   37.2760   27.2850   33.8152 H   0  0  0  0  0  0  0  0  0  0  0  0
   38.9228   27.4823   33.1254 H   0  0  0  0  0  0  0  0  0  0  0  0
   38.1367   25.8672   33.1254 H   0  0  0  0  0  0  0  0  0  0  0  0
   40.8639   26.6061   35.8271 H   0  0  0  0  0  0  0  0  0  0  0  0
   40.7051   25.6996   34.2845 H   0  0  0  0  0  0  0  0  0  0  0  0
   40.6217   27.4940   34.2845 H   0  0  0  0  0  0  0  0  0  0  0  0
   38.5265   27.2048   37.0204 H   0  0  0  0  0  0  0  0  0  0  0  0
   38.9027   28.4873   35.8202 H   0  0  0  0  0  0  0  0  0  0  0  0
   37.2865   27.7035   35.8202 H   0  0  0  0  0  0  0  0  0  0  0  0
   38.4986   25.0896   32.5879 H   0  0  0  0  0  0  0  0  0  0  0  0
  1  6  2  0
  1  2  1  0
  2  3  2  0
  3  4  1  0
  5  4  2  0
  6  5  1  0
  7  2  1  0
  7 10  1  0
  8  7  1  0
  9  7  1  0
 11  1  1  0
 12 11  2  0
  3 13  1  0
  5 14  1  0
  8 15  1  0
  8 16  1  0
  8 17  1  0
  9 18  1  0
  9 19  1  0
  9 20  1  0
 10 21  1  0
 10 22  1  0
 10 23  1  0
 11 24  1  0
M  ISO  8  13  14  14  14  15   8  16   8  17   8  18   8  19   8  20   8
M  ISO  4  21   8  22   8  23   8  24   6
M  END
>  <minimizedAffinity>  (1) 
-3.39303708

>  <minimizedRMSD>  (1) 
4.57468891

$$$$
