
     RDKit          3D

 19 20  0  0  0  0  0  0  0  0999 V2000
   39.0110   23.4700   36.7310 C   0  0  0  0  0  0  0  0  0  0  0  0
   39.3170   24.5040   35.8690 C   0  0  0  0  0  0  0  0  0  0  0  0
   40.6230   24.4890   35.3150 C   0  0  0  0  0  0  0  0  0  0  0  0
   41.4960   23.5040   35.6350 N   0  0  0  0  0  0  0  0  0  0  0  0
   41.1300   22.5120   36.4950 C   0  0  0  0  0  0  0  0  0  0  0  0
   39.9120   22.5130   37.0200 N   0  0  0  0  0  0  0  0  0  0  0  0
   38.5060   25.6350   35.4550 C   0  0  0  0  0  0  0  0  0  0  0  0
   38.5340   26.9030   35.9920 C   0  0  0  0  0  0  0  0  0  0  0  0
   37.6580   27.6960   35.3580 N   0  0  0  0  0  0  0  0  0  0  0  0
   37.0500   26.9790   34.4140 C   0  0  0  0  0  0  0  0  0  0  0  0
   37.5780   25.7550   34.4970 N   0  0  0  0  0  0  0  0  0  0  0  0
   37.6870   23.4980   37.2730 C   0  0  0  0  0  0  0  0  0  0  0  0
   36.8010   22.6130   37.1070 O   0  0  0  0  0  0  0  0  0  0  0  0
   40.9293   25.2843   34.6195 H   0  0  0  0  0  0  0  0  0  0  0  0
   41.8418   21.7139   36.7526 H   0  0  0  0  0  0  0  0  0  0  0  0
   39.1823   27.2199   36.8223 H   0  0  0  0  0  0  0  0  0  0  0  0
   36.2753   27.3231   33.7130 H   0  0  0  0  0  0  0  0  0  0  0  0
   37.2980   24.9772   33.8825 H   0  0  0  0  0  0  0  0  0  0  0  0
   37.4165   24.3680   37.8894 H   0  0  0  0  0  0  0  0  0  0  0  0
  1  6  2  0
  1 12  1  0
  2  1  1  0
  3  4  1  0
  3  2  2  0
  4  5  2  0
  5  6  1  0
  7  2  1  0
  7  8  2  0
  9  8  1  0
 10 11  1  0
 10  9  2  0
 11  7  1  0
 13 12  2  0
  3 14  1  0
  5 15  1  0
  8 16  1  0
 10 17  1  0
 11 18  1  0
 12 19  1  0
M  ISO  6  14  14  15  14  16  14  17  14  18   9  19   6
M  END
>  <minimizedAffinity>  (1) 
-3.4634788

>  <minimizedRMSD>  (1) 
5.01894665

$$$$
