
     RDKit          3D

 13 13  0  0  0  0  0  0  0  0999 V2000
   39.6920   22.5380   37.1190 C   0  0  0  0  0  0  0  0  0  0  0  0
   38.9090   23.1620   38.0870 C   0  0  0  0  0  0  0  0  0  0  0  0
   37.5450   23.3610   37.8040 C   0  0  0  0  0  0  0  0  0  0  0  0
   37.0550   22.9350   36.6040 N   0  0  0  0  0  0  0  0  0  0  0  0
   37.8630   22.3330   35.6990 C   0  0  0  0  0  0  0  0  0  0  0  0
   39.1670   22.1390   35.9600 N   0  0  0  0  0  0  0  0  0  0  0  0
   41.0720   22.3650   37.4670 C   0  0  0  0  0  0  0  0  0  0  0  0
   41.6570   21.2880   37.6690 O   0  0  0  0  0  0  0  0  0  0  0  0
   39.3910   23.6040   39.3150 O   0  0  0  0  0  0  0  0  0  0  0  0
   36.8863   23.8507   38.5363 H   0  0  0  0  0  0  0  0  0  0  0  0
   37.4464   21.9984   34.7375 H   0  0  0  0  0  0  0  0  0  0  0  0
   41.6747   23.2800   37.5652 H   0  0  0  0  0  0  0  0  0  0  0  0
   38.7788   24.0407   39.9589 H   0  0  0  0  0  0  0  0  0  0  0  0
  1  7  1  0
  1  2  2  0
  2  9  1  0
  3  2  1  0
  4  3  2  0
  5  6  2  0
  5  4  1  0
  6  1  1  0
  7  8  2  0
  3 10  1  0
  5 11  1  0
  7 12  1  0
  9 13  1  0
M  ISO  4  10  14  11  14  12   6  13   3
M  END
>  <minimizedAffinity>  (1) 
-3.0578084

>  <minimizedRMSD>  (1) 
0.453797519

$$$$
