
     RDKit          3D

 19 20  0  0  0  0  0  0  0  0999 V2000
   39.0150   22.8110   36.6770 C   0  0  0  0  0  0  0  0  0  0  0  0
   39.3730   22.5480   35.3420 C   0  0  0  0  0  0  0  0  0  0  0  0
   40.6720   22.1160   35.1160 C   0  0  0  0  0  0  0  0  0  0  0  0
   41.5250   21.9690   36.1610 N   0  0  0  0  0  0  0  0  0  0  0  0
   41.1450   22.2320   37.4250 C   0  0  0  0  0  0  0  0  0  0  0  0
   39.8910   22.6530   37.6840 N   0  0  0  0  0  0  0  0  0  0  0  0
   38.4670   22.7060   34.2560 N   0  0  0  0  0  0  0  0  0  0  0  0
   37.6860   21.7170   33.8440 N   0  0  0  0  0  0  0  0  0  0  0  0
   36.9280   22.1160   32.8110 C   0  0  0  0  0  0  0  0  0  0  0  0
   37.2720   23.4240   32.5870 C   0  0  0  0  0  0  0  0  0  0  0  0
   38.2520   23.7860   33.5140 C   0  0  0  0  0  0  0  0  0  0  0  0
   37.6530   23.2610   36.8870 C   0  0  0  0  0  0  0  0  0  0  0  0
   36.6780   22.5020   37.1350 O   0  0  0  0  0  0  0  0  0  0  0  0
   41.0093   21.8934   34.0929 H   0  0  0  0  0  0  0  0  0  0  0  0
   41.8608   22.1028   38.2502 H   0  0  0  0  0  0  0  0  0  0  0  0
   36.1865   21.5190   32.2598 H   0  0  0  0  0  0  0  0  0  0  0  0
   36.8484   24.0770   31.8097 H   0  0  0  0  0  0  0  0  0  0  0  0
   38.7446   24.7649   33.6097 H   0  0  0  0  0  0  0  0  0  0  0  0
   37.4566   24.3416   36.8255 H   0  0  0  0  0  0  0  0  0  0  0  0
  1 12  1  0
  1  6  2  0
  2  1  1  0
  3  2  2  0
  3  4  1  0
  4  5  2  0
  5  6  1  0
  7  2  1  0
  8  7  1  0
  9  8  2  0
 10  9  1  0
 10 11  2  0
 11  7  1  0
 12 13  2  0
  3 14  1  0
  5 15  1  0
  9 16  1  0
 10 17  1  0
 11 18  1  0
 12 19  1  0
M  ISO  6  14  14  15  14  16  14  17  14  18  14  19   6
M  END
>  <minimizedAffinity>  (1) 
-3.07004189

>  <minimizedRMSD>  (1) 
5.66054153

$$$$
