
     RDKit          3D

 31 32  0  0  1  0  0  0  0  0999 V2000
   38.8250   25.7590   35.2720 C   0  0  1  0  0  0  0  0  0  0  0  0
   38.9630   23.7580   36.8640 C   0  0  0  0  0  0  0  0  0  0  0  0
   39.3810   24.4360   35.7040 C   0  0  0  0  0  0  0  0  0  0  0  0
   40.3800   23.8630   34.9010 C   0  0  0  0  0  0  0  0  0  0  0  0
   40.9070   22.6620   35.2860 N   0  0  0  0  0  0  0  0  0  0  0  0
   40.4670   22.0500   36.4160 C   0  0  0  0  0  0  0  0  0  0  0  0
   39.5230   22.5860   37.1790 N   0  0  0  0  0  0  0  0  0  0  0  0
   37.9460   24.4270   37.6050 C   0  0  0  0  0  0  0  0  0  0  0  0
   37.9960   24.7250   38.8240 O   0  0  0  0  0  0  0  0  0  0  0  0
   40.0120   26.6590   35.0510 C   0  0  0  0  0  0  0  0  0  0  0  0
   37.9170   25.6330   34.0800 C   0  0  0  0  0  0  0  0  0  0  0  0
   37.2270   26.9130   33.7990 C   0  0  0  0  0  0  0  0  0  0  0  0
   37.2520   27.3330   32.4650 C   0  0  0  0  0  0  0  0  0  0  0  0
   36.6620   28.5060   32.0020 C   0  0  0  0  0  0  0  0  0  0  0  0
   36.0160   29.2880   32.9370 C   0  0  0  0  0  0  0  0  0  0  0  0
   35.9740   28.8990   34.2640 C   0  0  0  0  0  0  0  0  0  0  0  0
   36.5680   27.7310   34.6950 C   0  0  0  0  0  0  0  0  0  0  0  0
   38.1695   26.1944   36.0406 H   0  0  0  0  0  0  0  0  0  0  0  0
   40.7289   24.3666   33.9874 H   0  0  0  0  0  0  0  0  0  0  0  0
   40.9052   21.0838   36.7065 H   0  0  0  0  0  0  0  0  0  0  0  0
   37.0334   24.7082   37.0591 H   0  0  0  0  0  0  0  0  0  0  0  0
   40.4223   26.9701   36.0231 H   0  0  0  0  0  0  0  0  0  0  0  0
   40.7830   26.1165   34.4843 H   0  0  0  0  0  0  0  0  0  0  0  0
   39.6977   27.5478   34.4843 H   0  0  0  0  0  0  0  0  0  0  0  0
   38.5143   25.3463   33.2019 H   0  0  0  0  0  0  0  0  0  0  0  0
   37.1582   24.8670   34.2977 H   0  0  0  0  0  0  0  0  0  0  0  0
   37.7714   26.6953   31.7345 H   0  0  0  0  0  0  0  0  0  0  0  0
   36.7087   28.7953   30.9417 H   0  0  0  0  0  0  0  0  0  0  0  0
   35.5319   30.2255   32.6259 H   0  0  0  0  0  0  0  0  0  0  0  0
   35.4539   29.5371   34.9937 H   0  0  0  0  0  0  0  0  0  0  0  0
   36.5164   27.4501   35.7573 H   0  0  0  0  0  0  0  0  0  0  0  0
  1  3  1  0
  2  7  2  0
  2  8  1  0
  3  2  1  0
  4  5  1  0
  4  3  2  0
  5  6  2  0
  6  7  1  0
  8  9  2  0
 10  1  1  0
 11  1  1  0
 12 11  1  0
 12 17  1  0
 13 12  2  0
 14 13  1  0
 14 15  2  0
 15 16  1  0
 16 17  2  0
  1 18  1  1
  4 19  1  0
  6 20  1  0
  8 21  1  0
 10 22  1  0
 10 23  1  0
 10 24  1  0
 11 25  1  0
 11 26  1  0
 13 27  1  0
 14 28  1  0
 15 29  1  0
 16 30  1  0
 17 31  1  0
M  ISO  8  18   8  19  14  20  14  21   6  22   8  23   8  24   8  25   8
M  ISO  6  26   8  27  14  28  14  29  14  30  14  31  14
M  END
>  <minimizedAffinity>  (1) 
-4.51469851

>  <minimizedRMSD>  (1) 
1.60822201

$$$$
