
     RDKit          3D

 30 31  0  0  1  0  0  0  0  0999 V2000
   39.0380   25.3250   35.2900 C   0  0  1  0  0  0  0  0  0  0  0  0
   39.1550   23.5860   37.1650 C   0  0  0  0  0  0  0  0  0  0  0  0
   39.6140   24.1090   35.9460 C   0  0  0  0  0  0  0  0  0  0  0  0
   40.6900   23.4870   35.3080 C   0  0  0  0  0  0  0  0  0  0  0  0
   41.2520   22.3900   35.9040 N   0  0  0  0  0  0  0  0  0  0  0  0
   40.7760   21.9300   37.0720 C   0  0  0  0  0  0  0  0  0  0  0  0
   39.7420   22.5130   37.7010 N   0  0  0  0  0  0  0  0  0  0  0  0
   38.0560   24.2910   37.7320 C   0  0  0  0  0  0  0  0  0  0  0  0
   37.9730   24.7590   38.8850 O   0  0  0  0  0  0  0  0  0  0  0  0
   40.2110   26.1560   34.8510 C   0  0  0  0  0  0  0  0  0  0  0  0
   38.0820   24.9890   34.1840 C   0  0  0  0  0  0  0  0  0  0  0  0
   37.4720   26.2510   33.6970 C   0  0  0  0  0  0  0  0  0  0  0  0
   36.9580   27.0280   34.7190 C   0  0  0  0  0  0  0  0  0  0  0  0
   36.3500   28.2430   34.4410 C   0  0  0  0  0  0  0  0  0  0  0  0
   36.2610   28.6760   33.1290 C   0  0  0  0  0  0  0  0  0  0  0  0
   36.7820   27.8790   32.1370 C   0  0  0  0  0  0  0  0  0  0  0  0
   37.3640   26.7070   32.4370 N   0  0  0  0  0  0  0  0  0  0  0  0
   38.4125   25.8978   35.9905 H   0  0  0  0  0  0  0  0  0  0  0  0
   41.0758   23.8689   34.3513 H   0  0  0  0  0  0  0  0  0  0  0  0
   41.2478   21.0474   37.5286 H   0  0  0  0  0  0  0  0  0  0  0  0
   37.1823   24.4396   37.0804 H   0  0  0  0  0  0  0  0  0  0  0  0
   40.7443   26.5338   35.7358 H   0  0  0  0  0  0  0  0  0  0  0  0
   40.8928   25.5383   34.2480 H   0  0  0  0  0  0  0  0  0  0  0  0
   39.8544   27.0040   34.2480 H   0  0  0  0  0  0  0  0  0  0  0  0
   38.6220   24.4955   33.3625 H   0  0  0  0  0  0  0  0  0  0  0  0
   37.3009   24.3074   34.5518 H   0  0  0  0  0  0  0  0  0  0  0  0
   37.0319   26.6798   35.7598 H   0  0  0  0  0  0  0  0  0  0  0  0
   35.9416   28.8579   35.2565 H   0  0  0  0  0  0  0  0  0  0  0  0
   35.7839   29.6367   32.8855 H   0  0  0  0  0  0  0  0  0  0  0  0
   36.7214   28.2047   31.0881 H   0  0  0  0  0  0  0  0  0  0  0  0
  1  3  1  0
  2  7  2  0
  2  8  1  0
  3  2  1  0
  4  5  1  0
  4  3  2  0
  5  6  2  0
  6  7  1  0
  8  9  2  0
 10  1  1  0
 11  1  1  0
 12 11  1  0
 12 13  2  0
 14 13  1  0
 15 14  2  0
 16 17  2  0
 16 15  1  0
 17 12  1  0
  1 18  1  1
  4 19  1  0
  6 20  1  0
  8 21  1  0
 10 22  1  0
 10 23  1  0
 10 24  1  0
 11 25  1  0
 11 26  1  0
 13 27  1  0
 14 28  1  0
 15 29  1  0
 16 30  1  0
M  ISO  8  18   8  19  14  20  14  21   6  22   8  23   8  24   8  25   8
M  ISO  5  26   8  27  14  28  14  29  14  30  14
M  END
>  <minimizedAffinity>  (1) 
-4.3313055

>  <minimizedRMSD>  (1) 
1.69514537

$$$$
