
     RDKit          3D

 37 38  0  0  1  0  0  0  0  0999 V2000
   37.9650   26.0200   35.4290 C   0  0  1  0  0  0  0  0  0  0  0  0
   38.8900   23.8700   36.4560 C   0  0  0  0  0  0  0  0  0  0  0  0
   39.0410   24.9970   35.6430 C   0  0  0  0  0  0  0  0  0  0  0  0
   40.2590   25.2070   34.9920 C   0  0  0  0  0  0  0  0  0  0  0  0
   41.2570   24.2830   35.1900 N   0  0  0  0  0  0  0  0  0  0  0  0
   41.0470   23.2050   35.9950 C   0  0  0  0  0  0  0  0  0  0  0  0
   39.8840   23.0010   36.6180 N   0  0  0  0  0  0  0  0  0  0  0  0
   37.5960   23.7560   37.0750 C   0  0  0  0  0  0  0  0  0  0  0  0
   36.9070   22.7160   37.1490 O   0  0  0  0  0  0  0  0  0  0  0  0
   38.5390   27.3380   35.8720 C   0  0  0  0  0  0  0  0  0  0  0  0
   37.4700   26.0140   34.0070 C   0  0  0  0  0  0  0  0  0  0  0  0
   37.6900   27.3320   33.2820 C   0  0  0  0  0  0  0  0  0  0  0  0
   38.5060   27.0050   32.0780 C   0  0  0  0  0  0  0  0  0  0  0  0
   38.3910   27.9390   30.9270 C   0  0  0  0  0  0  0  0  0  0  0  0
   36.9950   28.4500   30.6920 C   0  0  0  0  0  0  0  0  0  0  0  0
   36.4270   29.0400   31.9770 C   0  0  0  0  0  0  0  0  0  0  0  0
   36.3340   27.8970   32.9570 C   0  0  0  0  0  0  0  0  0  0  0  0
   37.0653   25.7978   36.0216 H   0  0  0  0  0  0  0  0  0  0  0  0
   40.4140   26.0817   34.3433 H   0  0  0  0  0  0  0  0  0  0  0  0
   41.8614   22.4793   36.1365 H   0  0  0  0  0  0  0  0  0  0  0  0
   37.1748   24.6675   37.5241 H   0  0  0  0  0  0  0  0  0  0  0  0
   38.5570   27.3792   36.9711 H   0  0  0  0  0  0  0  0  0  0  0  0
   39.5633   27.4407   35.4844 H   0  0  0  0  0  0  0  0  0  0  0  0
   37.9164   28.1579   35.4844 H   0  0  0  0  0  0  0  0  0  0  0  0
   37.9996   25.2219   33.4575 H   0  0  0  0  0  0  0  0  0  0  0  0
   36.3841   25.8425   34.0435 H   0  0  0  0  0  0  0  0  0  0  0  0
   38.2246   28.0940   33.8682 H   0  0  0  0  0  0  0  0  0  0  0  0
   39.5618   26.9817   32.3857 H   0  0  0  0  0  0  0  0  0  0  0  0
   38.1160   26.0432   31.7135 H   0  0  0  0  0  0  0  0  0  0  0  0
   39.0483   28.8010   31.1138 H   0  0  0  0  0  0  0  0  0  0  0  0
   38.6793   27.3743   30.0281 H   0  0  0  0  0  0  0  0  0  0  0  0
   37.0189   29.2279   29.9146 H   0  0  0  0  0  0  0  0  0  0  0  0
   36.3569   27.6146   30.3680 H   0  0  0  0  0  0  0  0  0  0  0  0
   37.0951   29.8226   32.3657 H   0  0  0  0  0  0  0  0  0  0  0  0
   35.4443   29.5037   31.8061 H   0  0  0  0  0  0  0  0  0  0  0  0
   35.8671   28.2597   33.8846 H   0  0  0  0  0  0  0  0  0  0  0  0
   35.7309   27.0997   32.4982 H   0  0  0  0  0  0  0  0  0  0  0  0
  1  3  1  0
  1 10  1  0
  2  7  2  0
  2  8  1  0
  3  2  1  0
  4  5  1  0
  4  3  2  0
  5  6  2  0
  6  7  1  0
  8  9  2  0
 11  1  1  0
 12 11  1  0
 13 12  1  0
 14 13  1  0
 15 14  1  0
 15 16  1  0
 16 17  1  0
 17 12  1  0
  1 18  1  1
  4 19  1  0
  6 20  1  0
  8 21  1  0
 10 22  1  0
 10 23  1  0
 10 24  1  0
 11 25  1  0
 11 26  1  0
 12 27  1  0
 13 28  1  0
 13 29  1  0
 14 30  1  0
 14 31  1  0
 15 32  1  0
 15 33  1  0
 16 34  1  0
 16 35  1  0
 17 36  1  0
 17 37  1  0
M  ISO  8  18   8  19  14  20  14  21   6  22   8  23   8  24   8  25   8
M  ISO  8  26   8  27  13  28  13  29  13  30  13  31  13  32  13  33  13
M  ISO  4  34  13  35  13  36  13  37  13
M  END
>  <minimizedAffinity>  (1) 
-4.41328764

>  <minimizedRMSD>  (1) 
1.42391622

$$$$
