
     RDKit          3D

 27 28  0  0  1  0  0  0  0  0999 V2000
   38.5230   25.7920   35.3940 C   0  0  1  0  0  0  0  0  0  0  0  0
   38.8700   23.7580   36.8840 C   0  0  0  0  0  0  0  0  0  0  0  0
   39.1820   24.4990   35.7310 C   0  0  0  0  0  0  0  0  0  0  0  0
   40.1610   24.0370   34.8460 C   0  0  0  0  0  0  0  0  0  0  0  0
   40.7810   22.8420   35.1720 N   0  0  0  0  0  0  0  0  0  0  0  0
   40.4510   22.1700   36.2840 C   0  0  0  0  0  0  0  0  0  0  0  0
   39.5100   22.6140   37.1340 N   0  0  0  0  0  0  0  0  0  0  0  0
   37.8580   24.3340   37.7070 C   0  0  0  0  0  0  0  0  0  0  0  0
   37.9830   24.7430   38.8720 O   0  0  0  0  0  0  0  0  0  0  0  0
   39.6250   26.8070   35.2590 C   0  0  0  0  0  0  0  0  0  0  0  0
   37.6640   25.7080   34.1640 C   0  0  0  0  0  0  0  0  0  0  0  0
   37.0470   26.9580   33.8260 N   0  0  0  0  0  0  0  0  0  0  0  0
   37.0660   27.5040   32.5760 C   0  0  0  0  0  0  0  0  0  0  0  0
   36.4040   28.6600   32.6100 N   0  0  0  0  0  0  0  0  0  0  0  0
   35.9550   28.8710   33.8740 C   0  0  0  0  0  0  0  0  0  0  0  0
   36.3680   27.8090   34.5850 N   0  0  0  0  0  0  0  0  0  0  0  0
   37.8201   26.0822   36.1888 H   0  0  0  0  0  0  0  0  0  0  0  0
   40.4258   24.5950   33.9358 H   0  0  0  0  0  0  0  0  0  0  0  0
   40.9672   21.2248   36.5077 H   0  0  0  0  0  0  0  0  0  0  0  0
   36.8570   24.4259   37.2604 H   0  0  0  0  0  0  0  0  0  0  0  0
   39.9621   27.1175   36.2590 H   0  0  0  0  0  0  0  0  0  0  0  0
   40.4679   26.3623   34.7096 H   0  0  0  0  0  0  0  0  0  0  0  0
   39.2509   27.6835   34.7096 H   0  0  0  0  0  0  0  0  0  0  0  0
   38.2913   25.3868   33.3194 H   0  0  0  0  0  0  0  0  0  0  0  0
   36.8584   24.9889   34.3733 H   0  0  0  0  0  0  0  0  0  0  0  0
   37.5466   27.0643   31.6896 H   0  0  0  0  0  0  0  0  0  0  0  0
   35.3747   29.7312   34.2391 H   0  0  0  0  0  0  0  0  0  0  0  0
  1  3  1  0
  2  7  2  0
  2  8  1  0
  3  2  1  0
  4  5  1  0
  4  3  2  0
  5  6  2  0
  6  7  1  0
  8  9  2  0
 10  1  1  0
 11  1  1  0
 12 11  1  0
 12 16  1  0
 13 14  2  0
 13 12  1  0
 14 15  1  0
 15 16  2  0
  1 17  1  1
  4 18  1  0
  6 19  1  0
  8 20  1  0
 10 21  1  0
 10 22  1  0
 10 23  1  0
 11 24  1  0
 11 25  1  0
 13 26  1  0
 15 27  1  0
M  ISO  8  17   8  18  14  19  14  20   6  21   8  22   8  23   8  24   8
M  ISO  3  25   8  26  14  27  14
M  END
>  <minimizedAffinity>  (1) 
-3.97904897

>  <minimizedRMSD>  (1) 
2.88338518

$$$$
