
     RDKit          3D

 28 29  0  0  1  0  0  0  0  0999 V2000
   38.8830   26.7610   35.5220 C   0  0  1  0  0  0  0  0  0  0  0  0
   39.5340   24.3500   34.9770 C   0  0  0  0  0  0  0  0  0  0  0  0
   38.8280   25.2860   35.7550 C   0  0  0  0  0  0  0  0  0  0  0  0
   38.0040   24.8360   36.8010 C   0  0  0  0  0  0  0  0  0  0  0  0
   37.9280   23.4780   37.0150 N   0  0  0  0  0  0  0  0  0  0  0  0
   38.6310   22.6170   36.2330 C   0  0  0  0  0  0  0  0  0  0  0  0
   39.4170   23.0420   35.2370 N   0  0  0  0  0  0  0  0  0  0  0  0
   40.3360   24.9210   33.9490 C   0  0  0  0  0  0  0  0  0  0  0  0
   40.9030   24.2870   33.0200 O   0  0  0  0  0  0  0  0  0  0  0  0
   39.9320   26.9900   34.4690 C   0  0  0  0  0  0  0  0  0  0  0  0
   37.5320   27.3300   35.1630 C   0  0  0  0  0  0  0  0  0  0  0  0
   37.2640   26.9810   33.7420 C   0  0  0  0  0  0  0  0  0  0  0  0
   37.3260   27.8370   32.6470 C   0  0  0  0  0  0  0  0  0  0  0  0
   36.9980   27.0550   31.5510 C   0  0  0  0  0  0  0  0  0  0  0  0
   36.7520   25.7760   32.0110 C   0  0  0  0  0  0  0  0  0  0  0  0
   36.9250   25.7940   33.3140 O   0  0  0  0  0  0  0  0  0  0  0  0
   39.1585   27.2990   36.4411 H   0  0  0  0  0  0  0  0  0  0  0  0
   37.4399   25.5436   37.4264 H   0  0  0  0  0  0  0  0  0  0  0  0
   38.5513   21.5368   36.4249 H   0  0  0  0  0  0  0  0  0  0  0  0
   40.4727   26.0123   33.9675 H   0  0  0  0  0  0  0  0  0  0  0  0
   40.8972   27.2007   34.9527 H   0  0  0  0  0  0  0  0  0  0  0  0
   40.0246   26.0909   33.8420 H   0  0  0  0  0  0  0  0  0  0  0  0
   39.6415   27.8459   33.8420 H   0  0  0  0  0  0  0  0  0  0  0  0
   36.7566   26.8936   35.8097 H   0  0  0  0  0  0  0  0  0  0  0  0
   37.5211   28.4210   35.3030 H   0  0  0  0  0  0  0  0  0  0  0  0
   37.5811   28.9070   32.6505 H   0  0  0  0  0  0  0  0  0  0  0  0
   36.9435   27.3915   30.5052 H   0  0  0  0  0  0  0  0  0  0  0  0
   36.4653   24.9062   31.4017 H   0  0  0  0  0  0  0  0  0  0  0  0
  1  3  1  0
  2  7  2  0
  2  3  1  0
  3  4  2  0
  4  5  1  0
  6  5  2  0
  7  6  1  0
  8  2  1  0
  9  8  2  0
 10  1  1  0
 11  1  1  0
 12 11  1  0
 13 12  2  0
 14 15  2  0
 14 13  1  0
 15 16  1  0
 16 12  1  0
  1 17  1  1
  4 18  1  0
  6 19  1  0
  8 20  1  0
 10 21  1  0
 10 22  1  0
 10 23  1  0
 11 24  1  0
 11 25  1  0
 13 26  1  0
 14 27  1  0
 15 28  1  0
M  ISO  8  17   8  18  14  19  14  20   6  21   8  22   8  23   8  24   8
M  ISO  4  25   8  26  14  27  14  28  14
M  END
>  <minimizedAffinity>  (1) 
-3.9366293

>  <minimizedRMSD>  (1) 
3.16039944

$$$$
