
     RDKit          3D

 23 23  0  0  1  0  0  0  0  0999 V2000
   38.0650   25.9930   35.2320 C   0  0  1  0  0  0  0  0  0  0  0  0
   38.9610   23.9090   36.3720 C   0  0  0  0  0  0  0  0  0  0  0  0
   39.1250   25.0090   35.5460 C   0  0  0  0  0  0  0  0  0  0  0  0
   40.3880   25.2400   34.9480 C   0  0  0  0  0  0  0  0  0  0  0  0
   41.3950   24.3400   35.2280 N   0  0  0  0  0  0  0  0  0  0  0  0
   41.1770   23.2930   36.0350 C   0  0  0  0  0  0  0  0  0  0  0  0
   39.9800   23.0740   36.6030 N   0  0  0  0  0  0  0  0  0  0  0  0
   37.6510   23.7870   36.9240 C   0  0  0  0  0  0  0  0  0  0  0  0
   36.9980   22.7410   37.0940 O   0  0  0  0  0  0  0  0  0  0  0  0
   38.4810   27.3110   35.8360 C   0  0  0  0  0  0  0  0  0  0  0  0
   37.7690   26.1040   33.7640 C   0  0  0  0  0  0  0  0  0  0  0  0
   37.3390   24.8770   33.1720 N   0  0  0  0  0  0  0  0  0  0  0  0
   37.1138   25.6545   35.6687 H   0  0  0  0  0  0  0  0  0  0  0  0
   40.5589   26.1024   34.2869 H   0  0  0  0  0  0  0  0  0  0  0  0
   42.0013   22.5934   36.2379 H   0  0  0  0  0  0  0  0  0  0  0  0
   37.1631   24.7228   37.2343 H   0  0  0  0  0  0  0  0  0  0  0  0
   38.4571   27.2354   36.9331 H   0  0  0  0  0  0  0  0  0  0  0  0
   39.5011   27.5591   35.5077 H   0  0  0  0  0  0  0  0  0  0  0  0
   37.7881   28.0998   35.5077 H   0  0  0  0  0  0  0  0  0  0  0  0
   36.9761   26.8536   33.6250 H   0  0  0  0  0  0  0  0  0  0  0  0
   38.7076   26.3900   33.2668 H   0  0  0  0  0  0  0  0  0  0  0  0
   37.1026   24.2024   33.9135 H   0  0  0  0  0  0  0  0  0  0  0  0
   36.5085   25.0501   32.5878 H   0  0  0  0  0  0  0  0  0  0  0  0
  1  3  1  0
  1 10  1  0
  2  7  2  0
  2  8  1  0
  3  2  1  0
  4  5  1  0
  4  3  2  0
  5  6  2  0
  6  7  1  0
  8  9  2  0
 11  1  1  0
 12 11  1  0
  1 13  1  1
  4 14  1  0
  6 15  1  0
  8 16  1  0
 10 17  1  0
 10 18  1  0
 10 19  1  0
 11 20  1  0
 11 21  1  0
 12 22  1  0
 12 23  1  0
M  ISO  8  13   8  14  14  15  14  16   6  17   8  18   8  19   8  20   8
M  ISO  3  21   8  22   5  23   5
M  END
>  <minimizedAffinity>  (1) 
-3.16251945

>  <minimizedRMSD>  (1) 
0.236852497

$$$$
