
     RDKit          3D

 22 22  0  0  1  0  0  0  0  0999 V2000
   38.9510   23.8710   36.5030 C   0  0  0  0  0  0  0  0  0  0  0  0
   39.0770   24.9740   35.6470 C   0  0  0  0  0  0  0  0  0  0  0  0
   40.2790   25.2050   34.9750 C   0  0  0  0  0  0  0  0  0  0  0  0
   41.3070   24.3170   35.1920 N   0  0  0  0  0  0  0  0  0  0  0  0
   41.1370   23.2620   36.0310 C   0  0  0  0  0  0  0  0  0  0  0  0
   39.9800   23.0460   36.6720 N   0  0  0  0  0  0  0  0  0  0  0  0
   37.6770   23.7430   37.1300 C   0  0  0  0  0  0  0  0  0  0  0  0
   36.9440   22.7340   37.1370 O   0  0  0  0  0  0  0  0  0  0  0  0
   37.9670   25.9520   35.4070 C   0  0  1  0  0  0  0  0  0  0  0  0
   38.4850   27.3030   35.8320 C   0  0  0  0  0  0  0  0  0  0  0  0
   37.4690   25.9260   33.9900 C   0  0  0  0  0  0  0  0  0  0  0  0
   36.9710   27.5400   33.3830 S   0  0  0  0  0  0  0  0  0  0  0  0
   40.3992   26.0638   34.2983 H   0  0  0  0  0  0  0  0  0  0  0  0
   41.9732   22.5649   36.1888 H   0  0  0  0  0  0  0  0  0  0  0  0
   37.3007   24.6279   37.6642 H   0  0  0  0  0  0  0  0  0  0  0  0
   37.0788   25.6853   35.9986 H   0  0  0  0  0  0  0  0  0  0  0  0
   38.5063   27.3586   36.9304 H   0  0  0  0  0  0  0  0  0  0  0  0
   39.5019   27.4464   35.4378 H   0  0  0  0  0  0  0  0  0  0  0  0
   37.8247   28.0895   35.4378 H   0  0  0  0  0  0  0  0  0  0  0  0
   38.2730   25.5429   33.3443 H   0  0  0  0  0  0  0  0  0  0  0  0
   36.5782   25.2810   33.9694 H   0  0  0  0  0  0  0  0  0  0  0  0
   36.7155   28.3681   34.4441 H   0  0  0  0  0  0  0  0  0  0  0  0
  1  6  2  0
  1  7  1  0
  2  1  1  0
  3  4  1  0
  3  2  2  0
  4  5  2  0
  5  6  1  0
  7  8  2  0
  9  2  1  0
  9 10  1  0
 11  9  1  0
 12 11  1  0
  3 13  1  0
  5 14  1  0
  7 15  1  0
  9 16  1  1
 10 17  1  0
 10 18  1  0
 10 19  1  0
 11 20  1  0
 11 21  1  0
 12 22  1  0
M  ISO  8  13  14  14  14  15   6  16   8  17   8  18   8  19   8  20   8
M  ISO  2  21   8  22  11
M  END
>  <minimizedAffinity>  (1) 
-3.27875996

>  <minimizedRMSD>  (1) 
0.283184201

$$$$
