
     RDKit          3D

 36 38  0  0  1  0  0  0  0  0999 V2000
   37.5350   25.9400   34.3980 C   0  0  0  0  0  0  0  0  0  0  0  0
   37.8490   26.1480   33.0030 C   0  0  0  0  0  0  0  0  0  0  0  0
   38.5950   25.1650   32.3790 N   0  0  0  0  0  0  0  0  0  0  0  0
   38.9760   25.2310   31.0830 C   0  0  0  0  0  0  0  0  0  0  0  0
   38.6670   26.2640   30.2560 N   0  0  0  0  0  0  0  0  0  0  0  0
   37.9260   27.2630   30.8320 C   0  0  0  0  0  0  0  0  0  0  0  0
   37.5430   28.3620   30.1130 C   0  0  0  0  0  0  0  0  0  0  0  0
   36.8000   29.3910   30.6420 C   0  0  0  0  0  0  0  0  0  0  0  0
   36.4200   29.3070   31.9760 C   0  0  0  0  0  0  0  0  0  0  0  0
   36.8100   28.1900   32.7020 C   0  0  0  0  0  0  0  0  0  0  0  0
   37.5570   27.1670   32.1510 C   0  0  0  0  0  0  0  0  0  0  0  0
   36.2800   28.2490   34.3780 S   0  0  0  0  0  0  0  0  0  0  0  0
   38.8650   26.0920   35.1630 C   0  0  1  0  0  0  0  0  0  0  0  0
   39.0160   23.9530   36.5210 C   0  0  0  0  0  0  0  0  0  0  0  0
   39.4180   24.7480   35.4780 C   0  0  0  0  0  0  0  0  0  0  0  0
   40.4980   24.3050   34.6870 C   0  0  0  0  0  0  0  0  0  0  0  0
   41.0810   23.1110   35.0000 N   0  0  0  0  0  0  0  0  0  0  0  0
   40.6260   22.3960   36.0350 C   0  0  0  0  0  0  0  0  0  0  0  0
   39.5990   22.8090   36.7960 N   0  0  0  0  0  0  0  0  0  0  0  0
   37.8850   24.4580   37.2490 C   0  0  0  0  0  0  0  0  0  0  0  0
   37.7180   24.4370   38.5120 O   0  0  0  0  0  0  0  0  0  0  0  0
   39.8720   26.8650   34.4230 C   0  0  0  0  0  0  0  0  0  0  0  0
   37.1202   24.9326   34.5498 H   0  0  0  0  0  0  0  0  0  0  0  0
   36.7830   26.6604   34.7524 H   0  0  0  0  0  0  0  0  0  0  0  0
   39.5704   24.4004   30.6747 H   0  0  0  0  0  0  0  0  0  0  0  0
   37.8450   28.4258   29.0572 H   0  0  0  0  0  0  0  0  0  0  0  0
   36.5144   30.2566   30.0263 H   0  0  0  0  0  0  0  0  0  0  0  0
   35.8255   30.1051   32.4446 H   0  0  0  0  0  0  0  0  0  0  0  0
   37.3657   28.1281   35.2048 H   0  0  0  0  0  0  0  0  0  0  0  0
   38.6376   26.6488   36.0840 H   0  0  0  0  0  0  0  0  0  0  0  0
   40.8611   24.9057   33.8401 H   0  0  0  0  0  0  0  0  0  0  0  0
   41.1096   21.4366   36.2711 H   0  0  0  0  0  0  0  0  0  0  0  0
   37.0784   24.9104   36.6534 H   0  0  0  0  0  0  0  0  0  0  0  0
   40.5376   27.3759   35.1343 H   0  0  0  0  0  0  0  0  0  0  0  0
   40.4630   26.1864   33.7904 H   0  0  0  0  0  0  0  0  0  0  0  0
   39.3692   27.6113   33.7904 H   0  0  0  0  0  0  0  0  0  0  0  0
  1 13  1  0
  2  1  1  0
  3  2  2  0
  4  3  1  0
  5  6  1  0
  5  4  2  0
  6 11  2  0
  7  8  2  0
  7  6  1  0
  8  9  1  0
  9 10  2  0
 10 12  1  0
 11 10  1  0
 11  2  1  0
 13 15  1  0
 14 19  2  0
 14 20  1  0
 15 14  1  0
 16 17  1  0
 16 15  2  0
 17 18  2  0
 18 19  1  0
 20 21  2  0
 22 13  1  0
  1 23  1  0
  1 24  1  0
  4 25  1  0
  7 26  1  0
  8 27  1  0
  9 28  1  0
 12 29  1  0
 13 30  1  1
 16 31  1  0
 18 32  1  0
 20 33  1  0
 22 34  1  0
 22 35  1  0
 22 36  1  0
M  ISO  8  23   8  24   8  25  14  26  14  27  14  28  14  29  11  30   8
M  ISO  6  31  14  32  14  33   6  34   8  35   8  36   8
M  END
>  <minimizedAffinity>  (1) 
-4.80021667

>  <minimizedRMSD>  (1) 
1.41572833

$$$$
