
     RDKit          3D

 37 39  0  0  1  0  0  0  0  0999 V2000
   37.2780   26.1270   35.1420 C   0  0  0  0  0  0  0  0  0  0  0  0
   37.3140   26.1240   33.7030 C   0  0  0  0  0  0  0  0  0  0  0  0
   37.7780   24.9680   33.1040 N   0  0  0  0  0  0  0  0  0  0  0  0
   37.8760   24.8280   31.7580 C   0  0  0  0  0  0  0  0  0  0  0  0
   37.5320   25.7960   30.8640 N   0  0  0  0  0  0  0  0  0  0  0  0
   37.0680   26.9550   31.4170 C   0  0  0  0  0  0  0  0  0  0  0  0
   36.6760   28.0240   30.6500 C   0  0  0  0  0  0  0  0  0  0  0  0
   36.2010   29.2050   31.1580 C   0  0  0  0  0  0  0  0  0  0  0  0
   36.1100   29.3300   32.5390 C   0  0  0  0  0  0  0  0  0  0  0  0
   36.5040   28.2530   33.3270 C   0  0  0  0  0  0  0  0  0  0  0  0
   36.9780   27.0710   32.7840 C   0  0  0  0  0  0  0  0  0  0  0  0
   36.3650   28.5240   34.7130 N   0  0  0  0  0  0  0  0  0  0  0  0
   38.7670   26.1790   35.6210 C   0  0  1  0  0  0  0  0  0  0  0  0
   38.8850   23.9040   36.7470 C   0  0  0  0  0  0  0  0  0  0  0  0
   39.2640   24.7860   35.7650 C   0  0  0  0  0  0  0  0  0  0  0  0
   40.2680   24.3730   34.8520 C   0  0  0  0  0  0  0  0  0  0  0  0
   40.7950   23.1200   35.0050 N   0  0  0  0  0  0  0  0  0  0  0  0
   40.3670   22.3270   35.9880 C   0  0  0  0  0  0  0  0  0  0  0  0
   39.4130   22.7060   36.8670 N   0  0  0  0  0  0  0  0  0  0  0  0
   37.8400   24.3890   37.6040 C   0  0  0  0  0  0  0  0  0  0  0  0
   37.9550   24.7270   38.8270 O   0  0  0  0  0  0  0  0  0  0  0  0
   39.6270   26.9040   34.6760 C   0  0  0  0  0  0  0  0  0  0  0  0
   36.7909   25.2129   35.5123 H   0  0  0  0  0  0  0  0  0  0  0  0
   36.7057   26.9848   35.5248 H   0  0  0  0  0  0  0  0  0  0  0  0
   38.2567   23.8739   31.3647 H   0  0  0  0  0  0  0  0  0  0  0  0
   36.7478   27.9263   29.5567 H   0  0  0  0  0  0  0  0  0  0  0  0
   35.9011   30.0284   30.4931 H   0  0  0  0  0  0  0  0  0  0  0  0
   35.7359   30.2571   32.9977 H   0  0  0  0  0  0  0  0  0  0  0  0
   36.6230   27.8073   35.4063 H   0  0  0  0  0  0  0  0  0  0  0  0
   36.0062   29.4374   35.0257 H   0  0  0  0  0  0  0  0  0  0  0  0
   38.8025   26.7160   36.5804 H   0  0  0  0  0  0  0  0  0  0  0  0
   40.6117   25.0390   34.0468 H   0  0  0  0  0  0  0  0  0  0  0  0
   40.8081   21.3242   36.0874 H   0  0  0  0  0  0  0  0  0  0  0  0
   36.8379   24.4778   37.1592 H   0  0  0  0  0  0  0  0  0  0  0  0
   40.3517   27.5149   35.2342 H   0  0  0  0  0  0  0  0  0  0  0  0
   40.1655   26.1833   34.0431 H   0  0  0  0  0  0  0  0  0  0  0  0
   39.0077   27.5566   34.0431 H   0  0  0  0  0  0  0  0  0  0  0  0
  1 13  1  0
  2  1  1  0
  3  2  2  0
  4  3  1  0
  5  6  1  0
  5  4  2  0
  6 11  2  0
  7  8  2  0
  7  6  1  0
  8  9  1  0
  9 10  2  0
 10 12  1  0
 11 10  1  0
 11  2  1  0
 13 15  1  0
 14 19  2  0
 14 20  1  0
 15 14  1  0
 16 17  1  0
 16 15  2  0
 17 18  2  0
 18 19  1  0
 20 21  2  0
 22 13  1  0
  1 23  1  0
  1 24  1  0
  4 25  1  0
  7 26  1  0
  8 27  1  0
  9 28  1  0
 12 29  1  0
 12 30  1  0
 13 31  1  1
 16 32  1  0
 18 33  1  0
 20 34  1  0
 22 35  1  0
 22 36  1  0
 22 37  1  0
M  ISO  8  23   8  24   8  25  14  26  14  27  14  28  14  31   8  32  14
M  ISO  5  33  14  34   6  35   8  36   8  37   8
M  END
>  <minimizedAffinity>  (1) 
-5.22589493

>  <minimizedRMSD>  (1) 
1.11980498

$$$$
