
     RDKit          3D

 59 62  0  0  1  0  0  0  0  0999 V2000
   36.6630   26.5480   32.9350 C   0  0  0  0  0  0  0  0  0  0  0  0
   37.0620   27.4280   31.9380 C   0  0  0  0  0  0  0  0  0  0  0  0
   37.8140   26.8830   30.8870 N   0  0  0  0  0  0  0  0  0  0  0  0
   38.2570   27.5580   29.8170 C   0  0  0  0  0  0  0  0  0  0  0  0
   38.0160   28.8700   29.6380 N   0  0  0  0  0  0  0  0  0  0  0  0
   37.2940   29.4580   30.6170 C   0  0  0  0  0  0  0  0  0  0  0  0
   36.9480   30.7750   30.5490 C   0  0  0  0  0  0  0  0  0  0  0  0
   36.2070   31.4420   31.4640 C   0  0  0  0  0  0  0  0  0  0  0  0
   35.7780   30.7240   32.5450 C   0  0  0  0  0  0  0  0  0  0  0  0
   36.0840   29.3350   32.7210 C   0  0  0  0  0  0  0  0  0  0  0  0
   36.8450   28.7460   31.7200 C   0  0  0  0  0  0  0  0  0  0  0  0
   35.6490   28.8270   33.9700 C   0  0  0  0  0  0  0  0  0  0  0  0
   34.1700   29.3140   34.2010 C   0  0  0  0  0  0  0  0  0  0  0  0
   36.3680   29.5610   35.0550 C   0  0  0  0  0  0  0  0  0  0  0  0
   37.9540   26.1540   33.6930 C   0  0  1  0  0  0  0  0  0  0  0  0
   37.9860   24.1490   35.2410 C   0  0  0  0  0  0  0  0  0  0  0  0
   37.9660   24.6910   33.9930 C   0  0  0  0  0  0  0  0  0  0  0  0
   37.9700   23.8580   32.8750 C   0  0  0  0  0  0  0  0  0  0  0  0
   37.9890   22.5130   33.0790 N   0  0  0  0  0  0  0  0  0  0  0  0
   38.0060   22.0390   34.3480 C   0  0  0  0  0  0  0  0  0  0  0  0
   38.0050   22.8420   35.4320 N   0  0  0  0  0  0  0  0  0  0  0  0
   37.9620   25.0890   36.3150 C   0  0  0  0  0  0  0  0  0  0  0  0
   38.0550   24.8260   37.5620 O   0  0  0  0  0  0  0  0  0  0  0  0
   39.1610   26.5010   33.0060 C   0  0  0  0  0  0  0  0  0  0  0  0
   40.2190   27.2690   33.5430 N   0  0  0  0  0  0  0  0  0  0  0  0
   40.6500   26.7600   34.8420 C   0  0  0  0  0  0  0  0  0  0  0  0
   41.6040   25.5970   34.6840 C   0  0  0  0  0  0  0  0  0  0  0  0
   42.8680   25.9940   33.9790 C   0  0  0  0  0  0  0  0  0  0  0  0
   42.6680   27.3320   33.3130 C   0  0  0  0  0  0  0  0  0  0  0  0
   41.3380   27.3290   32.6430 C   0  0  0  0  0  0  0  0  0  0  0  0
   36.1914   25.6577   32.4935 H   0  0  0  0  0  0  0  0  0  0  0  0
   35.9235   27.0072   33.6075 H   0  0  0  0  0  0  0  0  0  0  0  0
   38.8400   27.0188   29.0558 H   0  0  0  0  0  0  0  0  0  0  0  0
   37.3012   31.3437   29.6762 H   0  0  0  0  0  0  0  0  0  0  0  0
   35.9624   32.5077   31.3439 H   0  0  0  0  0  0  0  0  0  0  0  0
   35.1737   31.2326   33.3106 H   0  0  0  0  0  0  0  0  0  0  0  0
   35.7914   27.7363   33.9782 H   0  0  0  0  0  0  0  0  0  0  0  0
   33.9701   29.3798   35.2807 H   0  0  0  0  0  0  0  0  0  0  0  0
   34.0341   30.3043   33.7419 H   0  0  0  0  0  0  0  0  0  0  0  0
   33.4723   28.5981   33.7419 H   0  0  0  0  0  0  0  0  0  0  0  0
   36.0175   29.2032   36.0343 H   0  0  0  0  0  0  0  0  0  0  0  0
   37.4495   29.3816   34.9647 H   0  0  0  0  0  0  0  0  0  0  0  0
   36.1663   30.6386   34.9647 H   0  0  0  0  0  0  0  0  0  0  0  0
   37.9331   26.7388   34.6244 H   0  0  0  0  0  0  0  0  0  0  0  0
   37.9581   24.2761   31.8576 H   0  0  0  0  0  0  0  0  0  0  0  0
   38.0213   20.9499   34.5015 H   0  0  0  0  0  0  0  0  0  0  0  0
   37.8522   26.1487   36.0410 H   0  0  0  0  0  0  0  0  0  0  0  0
   38.8373   27.0420   32.1045 H   0  0  0  0  0  0  0  0  0  0  0  0
   39.6449   25.5144   32.9558 H   0  0  0  0  0  0  0  0  0  0  0  0
   41.1554   27.5664   35.3937 H   0  0  0  0  0  0  0  0  0  0  0  0
   39.7631   26.4112   35.3914 H   0  0  0  0  0  0  0  0  0  0  0  0
   41.8607   25.2111   35.6816 H   0  0  0  0  0  0  0  0  0  0  0  0
   41.1038   24.8295   34.0751 H   0  0  0  0  0  0  0  0  0  0  0  0
   43.6885   26.0655   34.7081 H   0  0  0  0  0  0  0  0  0  0  0  0
   43.1195   25.2385   33.2200 H   0  0  0  0  0  0  0  0  0  0  0  0
   42.7021   28.1315   34.0677 H   0  0  0  0  0  0  0  0  0  0  0  0
   43.4633   27.5092   32.5740 H   0  0  0  0  0  0  0  0  0  0  0  0
   41.2511   28.2495   32.0471 H   0  0  0  0  0  0  0  0  0  0  0  0
   41.2973   26.4159   32.0309 H   0  0  0  0  0  0  0  0  0  0  0  0
  1 15  1  0
  2  1  1  0
  3  2  2  0
  4  3  1  0
  5  4  2  0
  5  6  1  0
  6 11  2  0
  7  6  1  0
  7  8  2  0
  8  9  1  0
  9 10  2  0
 10 12  1  0
 11  2  1  0
 11 10  1  0
 12 13  1  0
 12 14  1  0
 15 17  1  0
 16 21  2  0
 16 22  1  0
 17 16  1  0
 18 19  1  0
 18 17  2  0
 19 20  2  0
 20 21  1  0
 22 23  2  0
 24 25  1  0
 24 15  1  0
 25 26  1  0
 27 26  1  0
 28 27  1  0
 29 28  1  0
 30 29  1  0
 30 25  1  0
  1 31  1  0
  1 32  1  0
  4 33  1  0
  7 34  1  0
  8 35  1  0
  9 36  1  0
 12 37  1  0
 13 38  1  0
 13 39  1  0
 13 40  1  0
 14 41  1  0
 14 42  1  0
 14 43  1  0
 15 44  1  1
 18 45  1  0
 20 46  1  0
 22 47  1  0
 24 48  1  0
 24 49  1  0
 26 50  1  0
 26 51  1  0
 27 52  1  0
 27 53  1  0
 28 54  1  0
 28 55  1  0
 29 56  1  0
 29 57  1  0
 30 58  1  0
 30 59  1  0
M  ISO  8  31   8  32   8  33  14  34  14  35  14  36  14  37   8  38   8
M  ISO  8  39   8  40   8  41   8  42   8  43   8  44   8  45  14  46  14
M  ISO  8  47   6  48   8  49   8  50  13  51  13  52  13  53  13  54  13
M  ISO  5  55  13  56  13  57  13  58  13  59  13
M  END
>  <minimizedAffinity>  (1) 
-4.94708681

>  <minimizedRMSD>  (1) 
2.1603446

$$$$
