
     RDKit          3D

 29 30  0  0  0  0  0  0  0  0999 V2000
   39.0520   26.2380   34.7500 C   0  0  0  0  0  0  0  0  0  0  0  0
   41.9230   27.6290   32.7460 C   0  0  0  0  0  0  0  0  0  0  0  0
   41.2050   27.1420   33.8350 C   0  0  0  0  0  0  0  0  0  0  0  0
   39.8740   26.7600   33.6620 C   0  0  0  0  0  0  0  0  0  0  0  0
   39.3230   26.8800   32.4170 N   0  0  0  0  0  0  0  0  0  0  0  0
   40.0440   27.3570   31.3750 C   0  0  0  0  0  0  0  0  0  0  0  0
   41.3370   27.7280   31.5420 N   0  0  0  0  0  0  0  0  0  0  0  0
   38.7390   27.2400   35.8290 C   0  0  0  0  0  0  0  0  0  0  0  0
   37.6880   25.8120   34.1770 C   0  0  0  0  0  0  0  0  0  0  0  0
   39.7430   24.9920   35.2910 C   0  0  0  0  0  0  0  0  0  0  0  0
   38.7570   24.1340   36.0280 C   0  0  0  0  0  0  0  0  0  0  0  0
   38.0850   23.0110   35.5920 C   0  0  0  0  0  0  0  0  0  0  0  0
   37.3130   22.6020   36.6250 N   0  0  0  0  0  0  0  0  0  0  0  0
   37.4870   23.4290   37.6740 C   0  0  0  0  0  0  0  0  0  0  0  0
   38.3740   24.3620   37.2930 N   0  0  0  0  0  0  0  0  0  0  0  0
   42.9725   27.9333   32.8723 H   0  0  0  0  0  0  0  0  0  0  0  0
   41.6825   27.0591   34.8225 H   0  0  0  0  0  0  0  0  0  0  0  0
   39.5760   27.4443   30.3834 H   0  0  0  0  0  0  0  0  0  0  0  0
   38.8844   26.7745   36.8150 H   0  0  0  0  0  0  0  0  0  0  0  0
   39.4092   28.1066   35.7302 H   0  0  0  0  0  0  0  0  0  0  0  0
   37.6947   27.5710   35.7302 H   0  0  0  0  0  0  0  0  0  0  0  0
   36.9947   25.5955   35.0031 H   0  0  0  0  0  0  0  0  0  0  0  0
   37.2796   26.6254   33.5592 H   0  0  0  0  0  0  0  0  0  0  0  0
   37.8151   24.9108   33.5592 H   0  0  0  0  0  0  0  0  0  0  0  0
   40.1687   24.4196   34.4537 H   0  0  0  0  0  0  0  0  0  0  0  0
   40.5430   25.2956   35.9822 H   0  0  0  0  0  0  0  0  0  0  0  0
   38.1617   22.5410   34.6004 H   0  0  0  0  0  0  0  0  0  0  0  0
   36.9960   23.3542   38.6555 H   0  0  0  0  0  0  0  0  0  0  0  0
   38.7098   25.1364   37.8833 H   0  0  0  0  0  0  0  0  0  0  0  0
  1 10  1  0
  1  8  1  0
  2  3  2  0
  4  3  1  0
  4  1  1  0
  5  4  2  0
  6  7  2  0
  6  5  1  0
  7  2  1  0
  9  1  1  0
 10 11  1  0
 11 15  1  0
 12 11  2  0
 12 13  1  0
 13 14  2  0
 15 14  1  0
  2 16  1  0
  3 17  1  0
  6 18  1  0
  8 19  1  0
  8 20  1  0
  8 21  1  0
  9 22  1  0
  9 23  1  0
  9 24  1  0
 10 25  1  0
 10 26  1  0
 12 27  1  0
 14 28  1  0
 15 29  1  0
M  ISO  8  16  14  17  14  18  14  19   8  20   8  21   8  22   8  23   8
M  ISO  6  24   8  25   8  26   8  27  14  28  14  29   9
M  END
>  <minimizedAffinity>  (1) 
-3.77025414

>  <minimizedRMSD>  (1) 
4.97059298

$$$$
