
     RDKit          3D

 29 30  0  0  0  0  0  0  0  0999 V2000
   38.8580   23.1000   35.8730 C   0  0  0  0  0  0  0  0  0  0  0  0
   36.4380   21.0970   33.8060 C   0  0  0  0  0  0  0  0  0  0  0  0
   37.5350   21.8930   34.1350 C   0  0  0  0  0  0  0  0  0  0  0  0
   37.7320   22.2650   35.4670 C   0  0  0  0  0  0  0  0  0  0  0  0
   36.8350   21.8260   36.3870 N   0  0  0  0  0  0  0  0  0  0  0  0
   35.7850   21.0590   36.0510 C   0  0  0  0  0  0  0  0  0  0  0  0
   35.5760   20.6910   34.7770 N   0  0  0  0  0  0  0  0  0  0  0  0
   38.6010   24.5870   35.6880 C   0  0  0  0  0  0  0  0  0  0  0  0
   39.0940   22.9250   37.3830 C   0  0  0  0  0  0  0  0  0  0  0  0
   40.0940   22.6330   35.1390 C   0  0  0  0  0  0  0  0  0  0  0  0
   41.3120   23.2830   35.5210 C   0  0  0  0  0  0  0  0  0  0  0  0
   42.2510   23.0400   36.4620 C   0  0  0  0  0  0  0  0  0  0  0  0
   43.3470   23.8180   36.6400 C   0  0  0  0  0  0  0  0  0  0  0  0
   43.4440   24.9570   35.7270 C   0  0  0  0  0  0  0  0  0  0  0  0
   41.9150   24.7880   34.6840 S   0  0  0  0  0  0  0  0  0  0  0  0
   36.2698   20.7974   32.7610 H   0  0  0  0  0  0  0  0  0  0  0  0
   38.2366   22.2239   33.3550 H   0  0  0  0  0  0  0  0  0  0  0  0
   35.0852   20.7271   36.8321 H   0  0  0  0  0  0  0  0  0  0  0  0
   38.5175   25.0700   36.6728 H   0  0  0  0  0  0  0  0  0  0  0  0
   39.4348   25.0364   35.1287 H   0  0  0  0  0  0  0  0  0  0  0  0
   37.6647   24.7305   35.1287 H   0  0  0  0  0  0  0  0  0  0  0  0
   38.3325   23.4896   37.9410 H   0  0  0  0  0  0  0  0  0  0  0  0
   39.0241   21.8587   37.6439 H   0  0  0  0  0  0  0  0  0  0  0  0
   40.0941   23.3015   37.6439 H   0  0  0  0  0  0  0  0  0  0  0  0
   39.9378   22.8073   34.0642 H   0  0  0  0  0  0  0  0  0  0  0  0
   40.2202   21.5714   35.3981 H   0  0  0  0  0  0  0  0  0  0  0  0
   42.1194   22.1662   37.1171 H   0  0  0  0  0  0  0  0  0  0  0  0
   44.1039   23.6092   37.4104 H   0  0  0  0  0  0  0  0  0  0  0  0
   44.2294   25.7252   35.6714 H   0  0  0  0  0  0  0  0  0  0  0  0
  1  9  1  0
  2  3  2  0
  2  7  1  0
  3  4  1  0
  4  1  1  0
  4  5  2  0
  6  5  1  0
  7  6  2  0
  8  1  1  0
 10 11  1  0
 10  1  1  0
 11 12  2  0
 12 13  1  0
 14 13  2  0
 15 11  1  0
 15 14  1  0
  2 16  1  0
  3 17  1  0
  6 18  1  0
  8 19  1  0
  8 20  1  0
  8 21  1  0
  9 22  1  0
  9 23  1  0
  9 24  1  0
 10 25  1  0
 10 26  1  0
 12 27  1  0
 13 28  1  0
 14 29  1  0
M  ISO  8  16  14  17  14  18  14  19   8  20   8  21   8  22   8  23   8
M  ISO  6  24   8  25   8  26   8  27  14  28  14  29  14
M  END
>  <minimizedAffinity>  (1) 
-3.76856017

>  <minimizedRMSD>  (1) 
5.51334286

$$$$
