
     RDKit          3D

 32 33  0  0  0  0  0  0  0  0999 V2000
   41.4970   25.2270   34.4430 C   0  0  0  0  0  0  0  0  0  0  0  0
   45.0350   25.6180   35.6930 C   0  0  0  0  0  0  0  0  0  0  0  0
   43.8560   25.8460   34.9880 C   0  0  0  0  0  0  0  0  0  0  0  0
   42.7510   25.0120   35.1600 C   0  0  0  0  0  0  0  0  0  0  0  0
   42.8740   23.9790   36.0350 N   0  0  0  0  0  0  0  0  0  0  0  0
   44.0220   23.7690   36.7110 C   0  0  0  0  0  0  0  0  0  0  0  0
   45.0920   24.5810   36.5440 N   0  0  0  0  0  0  0  0  0  0  0  0
   41.4780   24.6040   33.0710 C   0  0  0  0  0  0  0  0  0  0  0  0
   40.3720   24.5120   35.2270 C   0  0  0  0  0  0  0  0  0  0  0  0
   41.2000   26.7080   34.4360 C   0  0  0  0  0  0  0  0  0  0  0  0
   39.7420   26.9970   34.4290 C   0  0  0  0  0  0  0  0  0  0  0  0
   39.0830   27.0440   33.2020 C   0  0  0  0  0  0  0  0  0  0  0  0
   37.7400   27.2960   33.0010 C   0  0  0  0  0  0  0  0  0  0  0  0
   37.0020   27.5220   34.1530 C   0  0  0  0  0  0  0  0  0  0  0  0
   37.6030   27.4900   35.4100 C   0  0  0  0  0  0  0  0  0  0  0  0
   38.9530   27.2300   35.5330 C   0  0  0  0  0  0  0  0  0  0  0  0
   45.9052   26.2765   35.5550 H   0  0  0  0  0  0  0  0  0  0  0  0
   43.7953   26.6925   34.2882 H   0  0  0  0  0  0  0  0  0  0  0  0
   44.0900   22.9228   37.4105 H   0  0  0  0  0  0  0  0  0  0  0  0
   41.4446   23.5086   33.1661 H   0  0  0  0  0  0  0  0  0  0  0  0
   40.5900   24.9517   32.5227 H   0  0  0  0  0  0  0  0  0  0  0  0
   42.3855   24.8969   32.5227 H   0  0  0  0  0  0  0  0  0  0  0  0
   40.5490   24.6245   36.3068 H   0  0  0  0  0  0  0  0  0  0  0  0
   39.4016   24.9595   34.9659 H   0  0  0  0  0  0  0  0  0  0  0  0
   40.3651   23.4435   34.9659 H   0  0  0  0  0  0  0  0  0  0  0  0
   41.6450   27.1611   35.3342 H   0  0  0  0  0  0  0  0  0  0  0  0
   41.6284   27.1301   33.5150 H   0  0  0  0  0  0  0  0  0  0  0  0
   39.6928   26.8624   32.3047 H   0  0  0  0  0  0  0  0  0  0  0  0
   37.2880   27.3160   31.9984 H   0  0  0  0  0  0  0  0  0  0  0  0
   35.9248   27.7299   34.0734 H   0  0  0  0  0  0  0  0  0  0  0  0
   36.9976   27.6731   36.3100 H   0  0  0  0  0  0  0  0  0  0  0  0
   39.4081   27.2085   36.5342 H   0  0  0  0  0  0  0  0  0  0  0  0
  1  4  1  0
  1  9  1  0
  2  7  2  0
  3  4  2  0
  3  2  1  0
  4  5  1  0
  5  6  2  0
  7  6  1  0
  8  1  1  0
 10  1  1  0
 11 10  1  0
 11 16  1  0
 12 11  2  0
 13 12  1  0
 13 14  2  0
 14 15  1  0
 15 16  2  0
  2 17  1  0
  3 18  1  0
  6 19  1  0
  8 20  1  0
  8 21  1  0
  8 22  1  0
  9 23  1  0
  9 24  1  0
  9 25  1  0
 10 26  1  0
 10 27  1  0
 12 28  1  0
 13 29  1  0
 14 30  1  0
 15 31  1  0
 16 32  1  0
M  ISO  8  17  14  18  14  19  14  20   8  21   8  22   8  23   8  24   8
M  ISO  8  25   8  26   8  27   8  28  14  29  14  30  14  31  14  32  14
M  END
>  <minimizedAffinity>  (1) 
-4.20002842

>  <minimizedRMSD>  (1) 
5.48431349

$$$$
