
     RDKit          3D

 29 30  0  0  0  0  0  0  0  0999 V2000
   38.8230   23.0160   36.0600 C   0  0  0  0  0  0  0  0  0  0  0  0
   36.4340   21.1160   33.8490 C   0  0  0  0  0  0  0  0  0  0  0  0
   37.5350   21.8830   34.2230 C   0  0  0  0  0  0  0  0  0  0  0  0
   37.6870   22.2130   35.5800 C   0  0  0  0  0  0  0  0  0  0  0  0
   36.7570   21.7740   36.4880 N   0  0  0  0  0  0  0  0  0  0  0  0
   35.7100   21.0330   36.0680 C   0  0  0  0  0  0  0  0  0  0  0  0
   35.5430   20.7030   34.7650 N   0  0  0  0  0  0  0  0  0  0  0  0
   38.8570   24.4130   35.5150 C   0  0  0  0  0  0  0  0  0  0  0  0
   38.7000   23.1790   37.5820 C   0  0  0  0  0  0  0  0  0  0  0  0
   40.0890   22.2510   35.7540 C   0  0  0  0  0  0  0  0  0  0  0  0
   41.2930   23.1310   35.7630 C   0  0  0  0  0  0  0  0  0  0  0  0
   42.2280   22.9340   36.7550 C   0  0  0  0  0  0  0  0  0  0  0  0
   43.2270   23.8820   36.5200 C   0  0  0  0  0  0  0  0  0  0  0  0
   42.8250   24.5970   35.3900 C   0  0  0  0  0  0  0  0  0  0  0  0
   41.6910   24.1020   35.0080 O   0  0  0  0  0  0  0  0  0  0  0  0
   36.2929   20.8457   32.7921 H   0  0  0  0  0  0  0  0  0  0  0  0
   38.2668   22.2217   33.4748 H   0  0  0  0  0  0  0  0  0  0  0  0
   34.9708   20.6870   36.8054 H   0  0  0  0  0  0  0  0  0  0  0  0
   38.8745   25.1312   36.3480 H   0  0  0  0  0  0  0  0  0  0  0  0
   39.7586   24.5443   34.8987 H   0  0  0  0  0  0  0  0  0  0  0  0
   37.9628   24.5880   34.8987 H   0  0  0  0  0  0  0  0  0  0  0  0
   39.2898   22.3974   38.0833 H   0  0  0  0  0  0  0  0  0  0  0  0
   39.0780   24.1692   37.8765 H   0  0  0  0  0  0  0  0  0  0  0  0
   37.6441   23.0872   37.8765 H   0  0  0  0  0  0  0  0  0  0  0  0
   39.9936   21.7908   34.7595 H   0  0  0  0  0  0  0  0  0  0  0  0
   40.2211   21.4886   36.5359 H   0  0  0  0  0  0  0  0  0  0  0  0
   42.1951   22.1875   37.5623 H   0  0  0  0  0  0  0  0  0  0  0  0
   44.1449   24.0344   37.1067 H   0  0  0  0  0  0  0  0  0  0  0  0
   43.3696   25.4255   34.9136 H   0  0  0  0  0  0  0  0  0  0  0  0
  1  9  1  0
  2  3  2  0
  2  7  1  0
  3  4  1  0
  4  1  1  0
  4  5  2  0
  6  5  1  0
  7  6  2  0
  8  1  1  0
 10 11  1  0
 10  1  1  0
 11 12  2  0
 13 12  1  0
 14 13  2  0
 15 14  1  0
 15 11  1  0
  2 16  1  0
  3 17  1  0
  6 18  1  0
  8 19  1  0
  8 20  1  0
  8 21  1  0
  9 22  1  0
  9 23  1  0
  9 24  1  0
 10 25  1  0
 10 26  1  0
 12 27  1  0
 13 28  1  0
 14 29  1  0
M  ISO  8  16  14  17  14  18  14  19   8  20   8  21   8  22   8  23   8
M  ISO  6  24   8  25   8  26   8  27  14  28  14  29  14
M  END
>  <minimizedAffinity>  (1) 
-3.78372455

>  <minimizedRMSD>  (1) 
5.35161018

$$$$
