
     RDKit          3D

 35 36  0  0  0  0  0  0  0  0999 V2000
   41.5380   22.3740   36.5370 C   0  0  0  0  0  0  0  0  0  0  0  0
   38.3370   24.3360   36.2550 C   0  0  0  0  0  0  0  0  0  0  0  0
   39.5560   23.7640   35.8990 C   0  0  0  0  0  0  0  0  0  0  0  0
   40.2540   23.0010   36.8360 C   0  0  0  0  0  0  0  0  0  0  0  0
   39.7070   22.8520   38.0660 N   0  0  0  0  0  0  0  0  0  0  0  0
   38.5260   23.4110   38.4020 C   0  0  0  0  0  0  0  0  0  0  0  0
   37.8400   24.1490   37.5090 N   0  0  0  0  0  0  0  0  0  0  0  0
   41.8170   21.1280   37.3370 C   0  0  0  0  0  0  0  0  0  0  0  0
   41.5410   21.9330   35.0650 C   0  0  0  0  0  0  0  0  0  0  0  0
   42.6260   23.4170   36.7350 C   0  0  0  0  0  0  0  0  0  0  0  0
   43.5640   23.4490   35.6050 N   0  0  0  0  0  0  0  0  0  0  0  0
   44.5080   22.4630   35.6330 C   0  0  0  0  0  0  0  0  0  0  0  0
   45.4790   22.3000   34.6790 C   0  0  0  0  0  0  0  0  0  0  0  0
   46.4830   21.2050   34.7620 C   0  0  0  0  0  0  0  0  0  0  0  0
   45.4640   23.2110   33.6430 C   0  0  0  0  0  0  0  0  0  0  0  0
   46.3220   23.1250   32.7320 O   0  0  0  0  0  0  0  0  0  0  0  0
   44.5300   24.1770   33.6260 N   0  0  0  0  0  0  0  0  0  0  0  0
   43.5890   24.3130   34.5770 C   0  0  0  0  0  0  0  0  0  0  0  0
   42.6970   25.1970   34.6050 O   0  0  0  0  0  0  0  0  0  0  0  0
   37.7766   24.9378   35.5244 H   0  0  0  0  0  0  0  0  0  0  0  0
   39.9647   23.9123   34.8886 H   0  0  0  0  0  0  0  0  0  0  0  0
   38.1203   23.2626   39.4136 H   0  0  0  0  0  0  0  0  0  0  0  0
   41.7646   21.3621   38.4105 H   0  0  0  0  0  0  0  0  0  0  0  0
   41.0686   20.3599   37.0923 H   0  0  0  0  0  0  0  0  0  0  0  0
   42.8215   20.7524   37.0923 H   0  0  0  0  0  0  0  0  0  0  0  0
   41.5485   20.8343   35.0114 H   0  0  0  0  0  0  0  0  0  0  0  0
   40.6402   22.3184   34.5649 H   0  0  0  0  0  0  0  0  0  0  0  0
   42.4365   22.3306   34.5649 H   0  0  0  0  0  0  0  0  0  0  0  0
   42.1563   24.4066   36.8358 H   0  0  0  0  0  0  0  0  0  0  0  0
   43.1914   23.1532   37.6409 H   0  0  0  0  0  0  0  0  0  0  0  0
   44.4882   21.7546   36.4743 H   0  0  0  0  0  0  0  0  0  0  0  0
   46.6913   20.9778   35.8179 H   0  0  0  0  0  0  0  0  0  0  0  0
   46.0880   20.3069   34.2647 H   0  0  0  0  0  0  0  0  0  0  0  0
   47.4120   21.5208   34.2647 H   0  0  0  0  0  0  0  0  0  0  0  0
   44.5351   24.8478   32.8444 H   0  0  0  0  0  0  0  0  0  0  0  0
  1 10  1  0
  1  4  1  0
  1  8  1  0
  2  7  2  0
  3  2  1  0
  3  4  2  0
  4  5  1  0
  5  6  2  0
  7  6  1  0
  9  1  1  0
 11 12  1  0
 11 10  1  0
 13 14  1  0
 13 12  2  0
 15 13  1  0
 16 15  2  0
 17 15  1  0
 17 18  1  0
 18 19  2  0
 18 11  1  0
  2 20  1  0
  3 21  1  0
  6 22  1  0
  8 23  1  0
  8 24  1  0
  8 25  1  0
  9 26  1  0
  9 27  1  0
  9 28  1  0
 10 29  1  0
 10 30  1  0
 12 31  1  0
 14 32  1  0
 14 33  1  0
 14 34  1  0
 17 35  1  0
M  ISO  8  20  14  21  14  22  14  23   8  24   8  25   8  26   8  27   8
M  ISO  8  28   8  29   8  30   8  31  14  32   8  33   8  34   8  35   9
M  END
>  <minimizedAffinity>  (1) 
-3.50049472

>  <minimizedRMSD>  (1) 
8.08373451

$$$$
