
     RDKit          3D

 49 53  0  0  0  0  0  0  0  0999 V2000
   40.3290   24.0880   33.8340 N   0  0  0  0  0  0  0  0  0  0  0  0
   39.5040   24.9260   33.1520 C   0  0  0  0  0  0  0  0  0  0  0  0
   40.1370   26.1010   32.9300 N   0  0  0  0  0  0  0  0  0  0  0  0
   41.3700   26.0180   33.4710 C   0  0  0  0  0  0  0  0  0  0  0  0
   42.4850   26.8130   33.6010 C   0  0  0  0  0  0  0  0  0  0  0  0
   43.5920   26.3960   34.2220 N   0  0  0  0  0  0  0  0  0  0  0  0
   43.6850   25.1570   34.7660 C   0  0  0  0  0  0  0  0  0  0  0  0
   42.5930   24.3560   34.6490 N   0  0  0  0  0  0  0  0  0  0  0  0
   41.4790   24.7820   34.0210 C   0  0  0  0  0  0  0  0  0  0  0  0
   42.3920   28.1350   33.0240 N   0  0  0  0  0  0  0  0  0  0  0  0
   44.8880   24.6860   35.4480 C   0  0  0  0  0  0  0  0  0  0  0  0
   45.8450   23.8710   34.8750 C   0  0  0  0  0  0  0  0  0  0  0  0
   46.7730   23.6840   35.8470 N   0  0  0  0  0  0  0  0  0  0  0  0
   46.4020   24.3560   36.9660 C   0  0  0  0  0  0  0  0  0  0  0  0
   47.0050   24.4750   38.2050 C   0  0  0  0  0  0  0  0  0  0  0  0
   46.4510   25.2190   39.2210 C   0  0  0  0  0  0  0  0  0  0  0  0
   45.2480   25.8530   38.9510 C   0  0  0  0  0  0  0  0  0  0  0  0
   44.6080   25.7640   37.7330 C   0  0  0  0  0  0  0  0  0  0  0  0
   45.1880   25.0190   36.7550 C   0  0  0  0  0  0  0  0  0  0  0  0
   39.9510   22.7120   34.2540 C   0  0  0  0  0  0  0  0  0  0  0  0
   39.0050   22.7800   35.3890 C   0  0  0  0  0  0  0  0  0  0  0  0
   36.2590   20.9870   33.6400 C   0  0  0  0  0  0  0  0  0  0  0  0
   37.4460   21.7110   33.8460 C   0  0  0  0  0  0  0  0  0  0  0  0
   37.7850   22.0570   35.1410 C   0  0  0  0  0  0  0  0  0  0  0  0
   36.9620   21.6870   36.1420 N   0  0  0  0  0  0  0  0  0  0  0  0
   35.8300   20.9940   35.9160 C   0  0  0  0  0  0  0  0  0  0  0  0
   35.4720   20.6420   34.6820 N   0  0  0  0  0  0  0  0  0  0  0  0
   38.7400   24.2130   35.8830 C   0  0  0  0  0  0  0  0  0  0  0  0
   39.7050   22.1780   36.6420 C   0  0  0  0  0  0  0  0  0  0  0  0
   38.4799   24.6859   32.8303 H   0  0  0  0  0  0  0  0  0  0  0  0
   43.1915   28.7814   33.0861 H   0  0  0  0  0  0  0  0  0  0  0  0
   41.5262   28.4306   32.5508 H   0  0  0  0  0  0  0  0  0  0  0  0
   45.8529   23.4627   33.8536 H   0  0  0  0  0  0  0  0  0  0  0  0
   47.6284   23.1184   35.7503 H   0  0  0  0  0  0  0  0  0  0  0  0
   47.9591   23.9577   38.3840 H   0  0  0  0  0  0  0  0  0  0  0  0
   46.9400   25.3068   40.2024 H   0  0  0  0  0  0  0  0  0  0  0  0
   44.7825   26.4550   39.7453 H   0  0  0  0  0  0  0  0  0  0  0  0
   43.6536   26.2820   37.5574 H   0  0  0  0  0  0  0  0  0  0  0  0
   39.4741   22.1903   33.4111 H   0  0  0  0  0  0  0  0  0  0  0  0
   40.8534   22.1646   34.5639 H   0  0  0  0  0  0  0  0  0  0  0  0
   35.9679   20.6983   32.6193 H   0  0  0  0  0  0  0  0  0  0  0  0
   38.0883   21.9948   32.9993 H   0  0  0  0  0  0  0  0  0  0  0  0
   35.1895   20.7135   36.7652 H   0  0  0  0  0  0  0  0  0  0  0  0
   38.7374   24.2271   36.9829 H   0  0  0  0  0  0  0  0  0  0  0  0
   39.5298   24.8815   35.5096 H   0  0  0  0  0  0  0  0  0  0  0  0
   37.7634   24.5548   35.5096 H   0  0  0  0  0  0  0  0  0  0  0  0
   39.2369   22.5806   37.5524 H   0  0  0  0  0  0  0  0  0  0  0  0
   39.6008   21.0830   36.6296 H   0  0  0  0  0  0  0  0  0  0  0  0
   40.7720   22.4449   36.6296 H   0  0  0  0  0  0  0  0  0  0  0  0
  1  9  1  0
  1 20  1  0
  2  1  1  0
  3  2  2  0
  3  4  1  0
  4  5  2  0
  4  9  1  0
  5  6  1  0
  6  7  2  0
  7 11  1  0
  8  7  1  0
  9  8  2  0
 10  5  1  0
 11 19  1  0
 12 11  2  0
 12 13  1  0
 13 14  1  0
 14 15  2  0
 15 16  1  0
 17 16  2  0
 18 17  1  0
 19 14  1  0
 19 18  2  0
 20 21  1  0
 21 28  1  0
 21 29  1  0
 22 23  2  0
 22 27  1  0
 23 24  1  0
 24 21  1  0
 24 25  2  0
 26 25  1  0
 27 26  2  0
  2 30  1  0
 10 31  1  0
 10 32  1  0
 12 33  1  0
 13 34  1  0
 15 35  1  0
 16 36  1  0
 17 37  1  0
 18 38  1  0
 20 39  1  0
 20 40  1  0
 22 41  1  0
 23 42  1  0
 26 43  1  0
 28 44  1  0
 28 45  1  0
 28 46  1  0
 29 47  1  0
 29 48  1  0
 29 49  1  0
M  ISO  8  30  14  33  14  34   9  35  14  36  14  37  14  38  14  39   8
M  ISO  8  40   8  41  14  42  14  43  14  44   8  45   8  46   8  47   8
M  ISO  2  48   8  49   8
M  END
>  <minimizedAffinity>  (1) 
-6.19282341

>  <minimizedRMSD>  (1) 
2.64466143

$$$$
