
     RDKit          3D

 42 45  0  0  0  0  0  0  0  0999 V2000
   40.4530   24.5940   34.9680 C   0  0  0  0  0  0  0  0  0  0  0  0
   41.3910   25.5420   34.2960 N   0  0  0  0  0  0  0  0  0  0  0  0
   41.0720   26.2130   33.1520 C   0  0  0  0  0  0  0  0  0  0  0  0
   42.1250   26.9800   32.7970 N   0  0  0  0  0  0  0  0  0  0  0  0
   43.1060   26.8010   33.7080 C   0  0  0  0  0  0  0  0  0  0  0  0
   44.3900   27.2650   33.9310 C   0  0  0  0  0  0  0  0  0  0  0  0
   45.1060   26.8470   34.9920 N   0  0  0  0  0  0  0  0  0  0  0  0
   44.6250   25.9670   35.8870 C   0  0  0  0  0  0  0  0  0  0  0  0
   43.3660   25.4990   35.6880 N   0  0  0  0  0  0  0  0  0  0  0  0
   42.6400   25.9150   34.6240 C   0  0  0  0  0  0  0  0  0  0  0  0
   44.8880   28.2100   32.9600 N   0  0  0  0  0  0  0  0  0  0  0  0
   45.4270   25.5620   36.9890 N   0  0  0  0  0  0  0  0  0  0  0  0
   46.6210   24.9720   37.1970 C   0  0  0  0  0  0  0  0  0  0  0  0
   46.7730   24.8850   38.5720 C   0  0  0  0  0  0  0  0  0  0  0  0
   45.6990   25.4090   39.1810 N   0  0  0  0  0  0  0  0  0  0  0  0
   44.8650   25.8290   38.1860 C   0  0  0  0  0  0  0  0  0  0  0  0
   39.1440   25.2230   35.1740 C   0  0  0  0  0  0  0  0  0  0  0  0
   37.2470   23.5510   32.4600 C   0  0  0  0  0  0  0  0  0  0  0  0
   38.0990   23.7590   33.5270 C   0  0  0  0  0  0  0  0  0  0  0  0
   38.2300   25.0200   34.0780 C   0  0  0  0  0  0  0  0  0  0  0  0
   37.5000   26.0310   33.5420 N   0  0  0  0  0  0  0  0  0  0  0  0
   36.6730   25.8180   32.5040 C   0  0  0  0  0  0  0  0  0  0  0  0
   36.5340   24.5990   31.9530 N   0  0  0  0  0  0  0  0  0  0  0  0
   39.2490   26.7180   35.5530 C   0  0  0  0  0  0  0  0  0  0  0  0
   38.5020   24.6380   36.4580 C   0  0  0  0  0  0  0  0  0  0  0  0
   40.8710   24.3015   35.9425 H   0  0  0  0  0  0  0  0  0  0  0  0
   40.3245   23.7085   34.3282 H   0  0  0  0  0  0  0  0  0  0  0  0
   40.1175   26.1413   32.6099 H   0  0  0  0  0  0  0  0  0  0  0  0
   45.8362   28.5996   33.0598 H   0  0  0  0  0  0  0  0  0  0  0  0
   44.2951   28.4947   32.1673 H   0  0  0  0  0  0  0  0  0  0  0  0
   47.3313   24.6289   36.4304 H   0  0  0  0  0  0  0  0  0  0  0  0
   47.6434   24.4515   39.0863 H   0  0  0  0  0  0  0  0  0  0  0  0
   43.8873   26.3101   38.3364 H   0  0  0  0  0  0  0  0  0  0  0  0
   37.1436   22.5475   32.0216 H   0  0  0  0  0  0  0  0  0  0  0  0
   38.6755   22.9180   33.9399 H   0  0  0  0  0  0  0  0  0  0  0  0
   36.0961   26.6608   32.0954 H   0  0  0  0  0  0  0  0  0  0  0  0
   39.2561   26.8190   36.6483 H   0  0  0  0  0  0  0  0  0  0  0  0
   40.1788   27.1365   35.1402 H   0  0  0  0  0  0  0  0  0  0  0  0
   38.3869   27.2623   35.1402 H   0  0  0  0  0  0  0  0  0  0  0  0
   38.9851   25.0782   37.3428 H   0  0  0  0  0  0  0  0  0  0  0  0
   37.4277   24.8742   36.4712 H   0  0  0  0  0  0  0  0  0  0  0  0
   38.6376   23.5465   36.4712 H   0  0  0  0  0  0  0  0  0  0  0  0
  1 17  1  0
  2 10  1  0
  2  1  1  0
  3  2  1  0
  4  3  2  0
  4  5  1  0
  5  6  2  0
  5 10  1  0
  6  7  1  0
  7  8  2  0
  8 12  1  0
  9  8  1  0
 10  9  2  0
 11  6  1  0
 12 13  1  0
 12 16  1  0
 13 14  2  0
 14 15  1  0
 16 15  2  0
 17 24  1  0
 17 25  1  0
 18 19  2  0
 19 20  1  0
 20 17  1  0
 21 20  2  0
 22 21  1  0
 23 18  1  0
 23 22  2  0
  1 26  1  0
  1 27  1  0
  3 28  1  0
 11 29  1  0
 11 30  1  0
 13 31  1  0
 14 32  1  0
 16 33  1  0
 18 34  1  0
 19 35  1  0
 22 36  1  0
 24 37  1  0
 24 38  1  0
 24 39  1  0
 25 40  1  0
 25 41  1  0
 25 42  1  0
M  ISO  8  26   8  27   8  28  14  31  14  32  14  33  14  34  14  35  14
M  ISO  7  36  14  37   8  38   8  39   8  40   8  41   8  42   8
M  END
>  <minimizedAffinity>  (1) 
-5.36106396

>  <minimizedRMSD>  (1) 
2.5196619

$$$$
