
     RDKit          3D

 41 44  0  0  0  0  0  0  0  0999 V2000
   40.5360   24.5170   34.8980 C   0  0  0  0  0  0  0  0  0  0  0  0
   41.4710   25.4630   34.2290 N   0  0  0  0  0  0  0  0  0  0  0  0
   41.1830   26.0920   33.0500 C   0  0  0  0  0  0  0  0  0  0  0  0
   42.2250   26.8830   32.7080 N   0  0  0  0  0  0  0  0  0  0  0  0
   43.1740   26.7660   33.6600 C   0  0  0  0  0  0  0  0  0  0  0  0
   44.4310   27.2750   33.9200 C   0  0  0  0  0  0  0  0  0  0  0  0
   45.1200   26.9130   35.0210 N   0  0  0  0  0  0  0  0  0  0  0  0
   44.6270   26.0460   35.9250 C   0  0  0  0  0  0  0  0  0  0  0  0
   43.3940   25.5370   35.6850 N   0  0  0  0  0  0  0  0  0  0  0  0
   42.6990   25.8930   34.5830 C   0  0  0  0  0  0  0  0  0  0  0  0
   44.9460   28.2070   32.9440 N   0  0  0  0  0  0  0  0  0  0  0  0
   45.3270   25.6550   37.0790 N   0  0  0  0  0  0  0  0  0  0  0  0
   44.8920   25.9090   38.3400 C   0  0  0  0  0  0  0  0  0  0  0  0
   45.7460   25.4310   39.2920 N   0  0  0  0  0  0  0  0  0  0  0  0
   46.7410   24.8630   38.5870 C   0  0  0  0  0  0  0  0  0  0  0  0
   46.4690   25.0090   37.2610 N   0  0  0  0  0  0  0  0  0  0  0  0
   39.2320   25.1720   35.1180 C   0  0  0  0  0  0  0  0  0  0  0  0
   37.2340   23.5410   32.4400 C   0  0  0  0  0  0  0  0  0  0  0  0
   38.1530   23.7060   33.4920 C   0  0  0  0  0  0  0  0  0  0  0  0
   38.3130   24.9700   34.0260 C   0  0  0  0  0  0  0  0  0  0  0  0
   37.5850   25.9820   33.5130 N   0  0  0  0  0  0  0  0  0  0  0  0
   36.7140   25.7980   32.5060 C   0  0  0  0  0  0  0  0  0  0  0  0
   36.5330   24.5920   31.9680 N   0  0  0  0  0  0  0  0  0  0  0  0
   39.3460   26.6580   35.5080 C   0  0  0  0  0  0  0  0  0  0  0  0
   38.6060   24.5910   36.4200 C   0  0  0  0  0  0  0  0  0  0  0  0
   40.9582   24.2103   35.8663 H   0  0  0  0  0  0  0  0  0  0  0  0
   40.3945   23.6337   34.2579 H   0  0  0  0  0  0  0  0  0  0  0  0
   40.2540   25.9738   32.4729 H   0  0  0  0  0  0  0  0  0  0  0  0
   45.8778   28.6263   33.0739 H   0  0  0  0  0  0  0  0  0  0  0  0
   44.3815   28.4523   32.1182 H   0  0  0  0  0  0  0  0  0  0  0  0
   43.9564   26.4403   38.5689 H   0  0  0  0  0  0  0  0  0  0  0  0
   47.6254   24.3645   39.0105 H   0  0  0  0  0  0  0  0  0  0  0  0
   37.0856   22.5448   31.9979 H   0  0  0  0  0  0  0  0  0  0  0  0
   38.7285   22.8521   33.8789 H   0  0  0  0  0  0  0  0  0  0  0  0
   36.1423   26.6550   32.1203 H   0  0  0  0  0  0  0  0  0  0  0  0
   39.3531   26.7499   36.6041 H   0  0  0  0  0  0  0  0  0  0  0  0
   40.2787   27.0739   35.0992 H   0  0  0  0  0  0  0  0  0  0  0  0
   38.4877   27.2113   35.0992 H   0  0  0  0  0  0  0  0  0  0  0  0
   39.0942   25.0441   37.2954 H   0  0  0  0  0  0  0  0  0  0  0  0
   37.5298   24.8175   36.4422 H   0  0  0  0  0  0  0  0  0  0  0  0
   38.7518   23.5009   36.4422 H   0  0  0  0  0  0  0  0  0  0  0  0
  1 17  1  0
  2 10  1  0
  2  1  1  0
  3  2  1  0
  4  3  2  0
  4  5  1  0
  5  6  2  0
  5 10  1  0
  6  7  1  0
  7  8  2  0
  8 12  1  0
  9  8  1  0
 10  9  2  0
 11  6  1  0
 12 16  1  0
 12 13  1  0
 13 14  2  0
 15 14  1  0
 16 15  2  0
 17 24  1  0
 17 25  1  0
 18 19  2  0
 19 20  1  0
 20 17  1  0
 21 20  2  0
 22 21  1  0
 23 18  1  0
 23 22  2  0
  1 26  1  0
  1 27  1  0
  3 28  1  0
 11 29  1  0
 11 30  1  0
 13 31  1  0
 15 32  1  0
 18 33  1  0
 19 34  1  0
 22 35  1  0
 24 36  1  0
 24 37  1  0
 24 38  1  0
 25 39  1  0
 25 40  1  0
 25 41  1  0
M  ISO  8  26   8  27   8  28  14  31  14  32  14  33  14  34  14  35  14
M  ISO  6  36   8  37   8  38   8  39   8  40   8  41   8
M  END
>  <minimizedAffinity>  (1) 
-5.28212452

>  <minimizedRMSD>  (1) 
2.49642181

$$$$
