
     RDKit          3D

 42 45  0  0  0  0  0  0  0  0999 V2000
   38.8660   24.8840   33.8020 C   0  0  0  0  0  0  0  0  0  0  0  0
   38.2060   25.5680   32.6570 N   0  0  0  0  0  0  0  0  0  0  0  0
   36.9040   25.3870   32.3150 C   0  0  0  0  0  0  0  0  0  0  0  0
   36.6100   26.1530   31.2390 N   0  0  0  0  0  0  0  0  0  0  0  0
   37.7260   26.8280   30.8900 C   0  0  0  0  0  0  0  0  0  0  0  0
   38.1120   27.7360   29.9310 C   0  0  0  0  0  0  0  0  0  0  0  0
   39.3720   28.2230   29.8720 N   0  0  0  0  0  0  0  0  0  0  0  0
   40.3170   27.8430   30.7500 C   0  0  0  0  0  0  0  0  0  0  0  0
   39.9550   26.9470   31.7050 N   0  0  0  0  0  0  0  0  0  0  0  0
   38.6970   26.4620   31.7620 C   0  0  0  0  0  0  0  0  0  0  0  0
   37.0890   28.1380   28.9920 N   0  0  0  0  0  0  0  0  0  0  0  0
   41.6770   28.3690   30.6850 C   0  0  0  0  0  0  0  0  0  0  0  0
   42.3320   28.6950   29.5150 C   0  0  0  0  0  0  0  0  0  0  0  0
   43.5570   29.1390   29.9170 N   0  0  0  0  0  0  0  0  0  0  0  0
   43.5880   29.0640   31.2650 C   0  0  0  0  0  0  0  0  0  0  0  0
   42.4370   28.5900   31.7730 N   0  0  0  0  0  0  0  0  0  0  0  0
   38.5820   25.6190   35.0510 C   0  0  0  0  0  0  0  0  0  0  0  0
   39.5560   22.9120   37.4010 C   0  0  0  0  0  0  0  0  0  0  0  0
   39.5010   23.6970   36.2330 C   0  0  0  0  0  0  0  0  0  0  0  0
   38.6460   24.7820   36.2200 C   0  0  0  0  0  0  0  0  0  0  0  0
   37.9060   25.0360   37.3170 N   0  0  0  0  0  0  0  0  0  0  0  0
   37.9780   24.2680   38.4210 C   0  0  0  0  0  0  0  0  0  0  0  0
   38.7930   23.2130   38.4720 N   0  0  0  0  0  0  0  0  0  0  0  0
   37.2830   26.4420   34.9980 C   0  0  0  0  0  0  0  0  0  0  0  0
   39.6270   26.7650   35.1900 C   0  0  0  0  0  0  0  0  0  0  0  0
   39.9527   24.8551   33.6337 H   0  0  0  0  0  0  0  0  0  0  0  0
   38.4781   23.8581   33.8865 H   0  0  0  0  0  0  0  0  0  0  0  0
   36.1980   24.7209   32.8326 H   0  0  0  0  0  0  0  0  0  0  0  0
   37.3102   28.8152   28.2481 H   0  0  0  0  0  0  0  0  0  0  0  0
   36.1389   27.7473   29.0669 H   0  0  0  0  0  0  0  0  0  0  0  0
   41.9506   28.6146   28.4864 H   0  0  0  0  0  0  0  0  0  0  0  0
   44.4543   29.3567   31.8764 H   0  0  0  0  0  0  0  0  0  0  0  0
   42.1943   28.4331   32.7616 H   0  0  0  0  0  0  0  0  0  0  0  0
   40.2292   22.0430   37.4404 H   0  0  0  0  0  0  0  0  0  0  0  0
   40.1204   23.4534   35.3572 H   0  0  0  0  0  0  0  0  0  0  0  0
   37.3555   24.5143   39.2938 H   0  0  0  0  0  0  0  0  0  0  0  0
   36.9433   26.6572   36.0218 H   0  0  0  0  0  0  0  0  0  0  0  0
   37.4692   27.3873   34.4671 H   0  0  0  0  0  0  0  0  0  0  0  0
   36.5079   25.8699   34.4671 H   0  0  0  0  0  0  0  0  0  0  0  0
   39.8107   26.9664   36.2557 H   0  0  0  0  0  0  0  0  0  0  0  0
   40.5679   26.4639   34.7063 H   0  0  0  0  0  0  0  0  0  0  0  0
   39.2406   27.6742   34.7063 H   0  0  0  0  0  0  0  0  0  0  0  0
  1 17  1  0
  2  1  1  0
  3  2  1  0
  4  3  2  0
  5  4  1  0
  5 10  2  0
  6  5  1  0
  7  6  2  0
  7  8  1  0
  8  9  2  0
  9 10  1  0
 10  2  1  0
 11  6  1  0
 12  8  1  0
 12 16  1  0
 13 14  1  0
 13 12  2  0
 14 15  2  0
 15 16  1  0
 17 25  1  0
 17 20  1  0
 18 23  2  0
 19 18  1  0
 20 19  2  0
 20 21  1  0
 21 22  2  0
 22 23  1  0
 24 17  1  0
  1 26  1  0
  1 27  1  0
  3 28  1  0
 11 29  1  0
 11 30  1  0
 13 31  1  0
 15 32  1  0
 16 33  1  0
 18 34  1  0
 19 35  1  0
 22 36  1  0
 24 37  1  0
 24 38  1  0
 24 39  1  0
 25 40  1  0
 25 41  1  0
 25 42  1  0
M  ISO  8  26   8  27   8  28  14  31  14  32  14  33   9  34  14  35  14
M  ISO  7  36  14  37   8  38   8  39   8  40   8  41   8  42   8
M  END
>  <minimizedAffinity>  (1) 
-5.26285934

>  <minimizedRMSD>  (1) 
7.21311808

$$$$
