
     RDKit          3D

 40 43  0  0  0  0  0  0  0  0999 V2000
   40.3640   22.7370   35.1950 C   0  0  0  0  0  0  0  0  0  0  0  0
   40.9380   23.9240   34.5050 N   0  0  0  0  0  0  0  0  0  0  0  0
   40.3920   24.4750   33.3780 C   0  0  0  0  0  0  0  0  0  0  0  0
   41.1370   25.5390   33.0030 N   0  0  0  0  0  0  0  0  0  0  0  0
   42.1530   25.6730   33.8820 C   0  0  0  0  0  0  0  0  0  0  0  0
   43.2310   26.5150   34.0750 C   0  0  0  0  0  0  0  0  0  0  0  0
   44.0820   26.3510   35.0980 N   0  0  0  0  0  0  0  0  0  0  0  0
   43.9270   25.3420   36.0040 C   0  0  0  0  0  0  0  0  0  0  0  0
   42.8720   24.5070   35.8270 N   0  0  0  0  0  0  0  0  0  0  0  0
   42.0200   24.6780   34.7950 C   0  0  0  0  0  0  0  0  0  0  0  0
   43.3730   27.5800   33.1130 N   0  0  0  0  0  0  0  0  0  0  0  0
   44.8750   25.1910   37.1070 C   0  0  0  0  0  0  0  0  0  0  0  0
   46.0210   24.4700   37.2080 N   0  0  0  0  0  0  0  0  0  0  0  0
   46.5460   24.6350   38.3840 O   0  0  0  0  0  0  0  0  0  0  0  0
   45.8040   25.4460   39.1050 C   0  0  0  0  0  0  0  0  0  0  0  0
   44.7830   25.7820   38.3140 N   0  0  0  0  0  0  0  0  0  0  0  0
   39.1320   23.1240   35.9150 C   0  0  0  0  0  0  0  0  0  0  0  0
   36.7070   21.2500   33.8130 C   0  0  0  0  0  0  0  0  0  0  0  0
   37.8270   22.0200   34.1730 C   0  0  0  0  0  0  0  0  0  0  0  0
   37.9830   22.3590   35.5050 C   0  0  0  0  0  0  0  0  0  0  0  0
   37.0580   21.9380   36.3870 N   0  0  0  0  0  0  0  0  0  0  0  0
   35.9950   21.2020   36.0180 C   0  0  0  0  0  0  0  0  0  0  0  0
   35.8150   20.8550   34.7360 N   0  0  0  0  0  0  0  0  0  0  0  0
   38.8570   24.6380   35.8910 C   0  0  0  0  0  0  0  0  0  0  0  0
   39.3690   22.9060   37.4390 C   0  0  0  0  0  0  0  0  0  0  0  0
   41.0977   22.3416   35.9129 H   0  0  0  0  0  0  0  0  0  0  0  0
   40.1220   21.9651   34.4496 H   0  0  0  0  0  0  0  0  0  0  0  0
   39.4921   24.1110   32.8605 H   0  0  0  0  0  0  0  0  0  0  0  0
   44.1540   28.2466   33.1942 H   0  0  0  0  0  0  0  0  0  0  0  0
   42.6934   27.6740   32.3447 H   0  0  0  0  0  0  0  0  0  0  0  0
   45.9856   25.7766   40.1383 H   0  0  0  0  0  0  0  0  0  0  0  0
   36.5593   20.9671   32.7603 H   0  0  0  0  0  0  0  0  0  0  0  0
   38.5580   22.3435   33.4173 H   0  0  0  0  0  0  0  0  0  0  0  0
   35.2654   20.8813   36.7762 H   0  0  0  0  0  0  0  0  0  0  0  0
   38.7886   25.0146   36.9222 H   0  0  0  0  0  0  0  0  0  0  0  0
   39.6766   25.1513   35.3668 H   0  0  0  0  0  0  0  0  0  0  0  0
   37.9092   24.8303   35.3668 H   0  0  0  0  0  0  0  0  0  0  0  0
   38.6780   23.5416   38.0121 H   0  0  0  0  0  0  0  0  0  0  0  0
   39.1902   21.8502   37.6905 H   0  0  0  0  0  0  0  0  0  0  0  0
   40.4062   23.1722   37.6905 H   0  0  0  0  0  0  0  0  0  0  0  0
  1 17  1  0
  2 10  1  0
  2  1  1  0
  3  2  1  0
  4  3  2  0
  4  5  1  0
  5  6  2  0
  5 10  1  0
  6  7  1  0
  7  8  2  0
  8 12  1  0
  9  8  1  0
 10  9  2  0
 11  6  1  0
 12 13  2  0
 12 16  1  0
 13 14  1  0
 14 15  1  0
 16 15  2  0
 17 25  1  0
 18 19  2  0
 18 23  1  0
 19 20  1  0
 20 17  1  0
 20 21  2  0
 22 21  1  0
 23 22  2  0
 24 17  1  0
  1 26  1  0
  1 27  1  0
  3 28  1  0
 11 29  1  0
 11 30  1  0
 15 31  1  0
 18 32  1  0
 19 33  1  0
 22 34  1  0
 24 35  1  0
 24 36  1  0
 24 37  1  0
 25 38  1  0
 25 39  1  0
 25 40  1  0
M  ISO  8  26   8  27   8  28  14  31  14  32  14  33  14  34  14  35   8
M  ISO  5  36   8  37   8  38   8  39   8  40   8
M  END
>  <minimizedAffinity>  (1) 
-5.11106205

>  <minimizedRMSD>  (1) 
1.77930963

$$$$
