
     RDKit          3D

 43 46  0  0  0  0  0  0  0  0999 V2000
   40.6790   24.5250   33.2520 C   0  0  0  0  0  0  0  0  0  0  0  0
   39.4090   25.0050   32.6450 N   0  0  0  0  0  0  0  0  0  0  0  0
   38.1870   24.4480   32.9070 C   0  0  0  0  0  0  0  0  0  0  0  0
   37.2390   25.1160   32.2120 N   0  0  0  0  0  0  0  0  0  0  0  0
   37.8460   26.0960   31.5080 C   0  0  0  0  0  0  0  0  0  0  0  0
   37.4790   27.0950   30.6340 C   0  0  0  0  0  0  0  0  0  0  0  0
   38.3890   27.9280   30.0950 N   0  0  0  0  0  0  0  0  0  0  0  0
   39.7020   27.8330   30.3790 C   0  0  0  0  0  0  0  0  0  0  0  0
   40.0840   26.8540   31.2410 N   0  0  0  0  0  0  0  0  0  0  0  0
   39.1720   26.0190   31.7810 C   0  0  0  0  0  0  0  0  0  0  0  0
   36.0700   27.1940   30.3390 N   0  0  0  0  0  0  0  0  0  0  0  0
   40.6940   28.7320   29.7970 C   0  0  0  0  0  0  0  0  0  0  0  0
   40.2910   29.5630   28.7720 C   0  0  0  0  0  0  0  0  0  0  0  0
   41.2890   30.3990   28.2590 C   0  0  0  0  0  0  0  0  0  0  0  0
   42.5390   30.3840   28.7370 N   0  0  0  0  0  0  0  0  0  0  0  0
   42.8940   29.5550   29.7420 C   0  0  0  0  0  0  0  0  0  0  0  0
   41.9530   28.7210   30.2740 N   0  0  0  0  0  0  0  0  0  0  0  0
   40.8260   25.0840   34.6120 C   0  0  0  0  0  0  0  0  0  0  0  0
   41.4250   22.3680   37.0760 C   0  0  0  0  0  0  0  0  0  0  0  0
   41.6590   23.2960   36.0470 C   0  0  0  0  0  0  0  0  0  0  0  0
   40.6120   24.1060   35.6460 C   0  0  0  0  0  0  0  0  0  0  0  0
   39.4200   23.9660   36.2580 N   0  0  0  0  0  0  0  0  0  0  0  0
   39.2230   23.0680   37.2410 C   0  0  0  0  0  0  0  0  0  0  0  0
   40.2120   22.2710   37.6540 N   0  0  0  0  0  0  0  0  0  0  0  0
   39.9990   26.3600   34.8430 C   0  0  0  0  0  0  0  0  0  0  0  0
   42.2660   25.6590   34.7470 C   0  0  0  0  0  0  0  0  0  0  0  0
   41.5265   24.8493   32.6302 H   0  0  0  0  0  0  0  0  0  0  0  0
   40.6614   23.4267   33.3105 H   0  0  0  0  0  0  0  0  0  0  0  0
   38.0051   23.5938   33.5758 H   0  0  0  0  0  0  0  0  0  0  0  0
   35.7289   27.9198   29.6927 H   0  0  0  0  0  0  0  0  0  0  0  0
   35.4053   26.5388   30.7747 H   0  0  0  0  0  0  0  0  0  0  0  0
   39.2608   29.5680   28.3864 H   0  0  0  0  0  0  0  0  0  0  0  0
   41.0389   31.0884   27.4392 H   0  0  0  0  0  0  0  0  0  0  0  0
   43.9248   29.5517   30.1259 H   0  0  0  0  0  0  0  0  0  0  0  0
   42.2419   21.7131   37.4135 H   0  0  0  0  0  0  0  0  0  0  0  0
   42.6484   23.3761   35.5731 H   0  0  0  0  0  0  0  0  0  0  0  0
   38.2319   22.9892   37.7116 H   0  0  0  0  0  0  0  0  0  0  0  0
   39.8866   26.5335   35.9234 H   0  0  0  0  0  0  0  0  0  0  0  0
   40.5132   27.2180   34.3854 H   0  0  0  0  0  0  0  0  0  0  0  0
   39.0058   26.2411   34.3854 H   0  0  0  0  0  0  0  0  0  0  0  0
   42.5217   25.7611   35.8120 H   0  0  0  0  0  0  0  0  0  0  0  0
   42.9801   24.9770   34.2622 H   0  0  0  0  0  0  0  0  0  0  0  0
   42.3139   26.6452   34.2622 H   0  0  0  0  0  0  0  0  0  0  0  0
  1 18  1  0
  2  3  1  0
  2  1  1  0
  4  3  2  0
  5 10  2  0
  5  4  1  0
  6  5  1  0
  7  8  1  0
  7  6  2  0
  8  9  2  0
  9 10  1  0
 10  2  1  0
 11  6  1  0
 12 17  1  0
 12  8  1  0
 13 12  2  0
 14 15  2  0
 14 13  1  0
 15 16  1  0
 16 17  2  0
 18 26  1  0
 18 25  1  0
 18 21  1  0
 19 24  2  0
 20 19  1  0
 21 20  2  0
 21 22  1  0
 22 23  2  0
 23 24  1  0
  1 27  1  0
  1 28  1  0
  3 29  1  0
 11 30  1  0
 11 31  1  0
 13 32  1  0
 14 33  1  0
 16 34  1  0
 19 35  1  0
 20 36  1  0
 23 37  1  0
 25 38  1  0
 25 39  1  0
 25 40  1  0
 26 41  1  0
 26 42  1  0
 26 43  1  0
M  ISO  8  27   8  28   8  29  14  32  14  33  14  34  14  35  14  36  14
M  ISO  7  37  14  38   8  39   8  40   8  41   8  42   8  43   8
M  END
>  <minimizedAffinity>  (1) 
-4.69437361

>  <minimizedRMSD>  (1) 
7.96782303

$$$$
