
     RDKit          3D

 32 35  0  0  0  0  0  0  0  0999 V2000
   39.2600   22.5410   34.5860 C   0  0  0  0  0  0  0  0  0  0  0  0
   40.5570   22.2900   34.3230 N   0  0  0  0  0  0  0  0  0  0  0  0
   41.5390   22.3010   35.2130 C   0  0  0  0  0  0  0  0  0  0  0  0
   41.2930   22.5800   36.5160 N   0  0  0  0  0  0  0  0  0  0  0  0
   40.0300   22.8430   36.8790 C   0  0  0  0  0  0  0  0  0  0  0  0
   39.8060   23.1240   38.2150 C   0  0  0  0  0  0  0  0  0  0  0  0
   38.5320   23.4020   38.6420 C   0  0  0  0  0  0  0  0  0  0  0  0
   37.5090   23.3880   37.6990 C   0  0  0  0  0  0  0  0  0  0  0  0
   37.7930   23.1010   36.3850 C   0  0  0  0  0  0  0  0  0  0  0  0
   39.0360   22.8220   35.9200 C   0  0  0  0  0  0  0  0  0  0  0  0
   36.5680   23.2170   32.0510 C   0  0  0  0  0  0  0  0  0  0  0  0
   36.1740   21.9090   31.7590 C   0  0  0  0  0  0  0  0  0  0  0  0
   36.8510   20.9080   32.4430 C   0  0  0  0  0  0  0  0  0  0  0  0
   37.8110   21.2680   33.3130 N   0  0  0  0  0  0  0  0  0  0  0  0
   38.1840   22.5240   33.5890 C   0  0  0  0  0  0  0  0  0  0  0  0
   37.5210   23.4500   32.9220 N   0  0  0  0  0  0  0  0  0  0  0  0
   36.4800   19.5200   32.1750 C   0  0  0  0  0  0  0  0  0  0  0  0
   35.4720   18.9040   32.8900 C   0  0  0  0  0  0  0  0  0  0  0  0
   35.2410   17.5980   32.5200 C   0  0  0  0  0  0  0  0  0  0  0  0
   35.9090   16.9380   31.5570 N   0  0  0  0  0  0  0  0  0  0  0  0
   36.8870   17.5890   30.8890 C   0  0  0  0  0  0  0  0  0  0  0  0
   37.1630   18.8830   31.2080 N   0  0  0  0  0  0  0  0  0  0  0  0
   42.5671   22.0808   34.8897 H   0  0  0  0  0  0  0  0  0  0  0  0
   40.6426   23.1245   38.9292 H   0  0  0  0  0  0  0  0  0  0  0  0
   38.3256   23.6292   39.6983 H   0  0  0  0  0  0  0  0  0  0  0  0
   36.4750   23.6062   38.0044 H   0  0  0  0  0  0  0  0  0  0  0  0
   36.9604   23.0974   35.6661 H   0  0  0  0  0  0  0  0  0  0  0  0
   36.0743   24.0601   31.5456 H   0  0  0  0  0  0  0  0  0  0  0  0
   35.3780   21.6861   31.0333 H   0  0  0  0  0  0  0  0  0  0  0  0
   34.9044   19.4112   33.6841 H   0  0  0  0  0  0  0  0  0  0  0  0
   34.4488   17.0521   33.0533 H   0  0  0  0  0  0  0  0  0  0  0  0
   37.4537   17.0787   30.0963 H   0  0  0  0  0  0  0  0  0  0  0  0
  1 10  1  0
  2  1  2  0
  2  3  1  0
  3  4  2  0
  4  5  1  0
  5  6  2  0
  6  7  1  0
  8  7  2  0
  9  8  1  0
 10  9  2  0
 10  5  1  0
 11 16  2  0
 12 11  1  0
 12 13  2  0
 13 14  1  0
 14 15  2  0
 15  1  1  0
 16 15  1  0
 17 13  1  0
 17 18  2  0
 19 18  1  0
 20 19  2  0
 21 22  2  0
 21 20  1  0
 22 17  1  0
  3 23  1  0
  6 24  1  0
  7 25  1  0
  8 26  1  0
  9 27  1  0
 11 28  1  0
 12 29  1  0
 18 30  1  0
 19 31  1  0
 21 32  1  0
M  ISO  8  23  14  24  14  25  14  26  14  27  14  28  14  29  14  30  14
M  ISO  2  31  14  32  14
M  END
>  <minimizedAffinity>  (1) 
-5.38579273

>  <minimizedRMSD>  (1) 
7.11925077

$$$$
