
     RDKit          3D

 31 34  0  0  0  0  0  0  0  0999 V2000
   39.2500   22.5270   34.6080 C   0  0  0  0  0  0  0  0  0  0  0  0
   40.5410   22.2690   34.3330 N   0  0  0  0  0  0  0  0  0  0  0  0
   41.5340   22.2840   35.2170 C   0  0  0  0  0  0  0  0  0  0  0  0
   41.2940   22.5780   36.5240 N   0  0  0  0  0  0  0  0  0  0  0  0
   40.0320   22.8480   36.8890 C   0  0  0  0  0  0  0  0  0  0  0  0
   39.8250   23.1410   38.2200 C   0  0  0  0  0  0  0  0  0  0  0  0
   38.5560   23.4280   38.6620 C   0  0  0  0  0  0  0  0  0  0  0  0
   37.5220   23.4090   37.7240 C   0  0  0  0  0  0  0  0  0  0  0  0
   37.8000   23.1090   36.4100 C   0  0  0  0  0  0  0  0  0  0  0  0
   39.0330   22.8210   35.9370 C   0  0  0  0  0  0  0  0  0  0  0  0
   36.5700   23.1690   32.0530 C   0  0  0  0  0  0  0  0  0  0  0  0
   36.1110   21.8800   31.8340 C   0  0  0  0  0  0  0  0  0  0  0  0
   36.7480   20.9020   32.5700 C   0  0  0  0  0  0  0  0  0  0  0  0
   37.7330   21.2610   33.4160 N   0  0  0  0  0  0  0  0  0  0  0  0
   38.1670   22.5060   33.6200 C   0  0  0  0  0  0  0  0  0  0  0  0
   37.5380   23.4170   32.9020 N   0  0  0  0  0  0  0  0  0  0  0  0
   36.3040   19.5630   32.3720 N   0  0  0  0  0  0  0  0  0  0  0  0
   35.4040   18.8450   33.0030 N   0  0  0  0  0  0  0  0  0  0  0  0
   35.3290   17.6010   32.4460 C   0  0  0  0  0  0  0  0  0  0  0  0
   36.2570   17.5750   31.4020 C   0  0  0  0  0  0  0  0  0  0  0  0
   36.8550   18.8280   31.3820 C   0  0  0  0  0  0  0  0  0  0  0  0
   42.5590   22.0567   34.8890 H   0  0  0  0  0  0  0  0  0  0  0  0
   40.6704   23.1450   38.9238 H   0  0  0  0  0  0  0  0  0  0  0  0
   38.3615   23.6646   39.7185 H   0  0  0  0  0  0  0  0  0  0  0  0
   36.4905   23.6327   38.0337 H   0  0  0  0  0  0  0  0  0  0  0  0
   36.9626   23.1032   35.6968 H   0  0  0  0  0  0  0  0  0  0  0  0
   36.1117   24.0034   31.5019 H   0  0  0  0  0  0  0  0  0  0  0  0
   35.2997   21.6534   31.1265 H   0  0  0  0  0  0  0  0  0  0  0  0
   34.6673   16.7796   32.7581 H   0  0  0  0  0  0  0  0  0  0  0  0
   36.4711   16.7307   30.7302 H   0  0  0  0  0  0  0  0  0  0  0  0
   37.6374   19.1621   30.6847 H   0  0  0  0  0  0  0  0  0  0  0  0
  1 10  1  0
  2  1  2  0
  2  3  1  0
  3  4  2  0
  4  5  1  0
  5  6  2  0
  6  7  1  0
  8  7  2  0
  9  8  1  0
 10  9  2  0
 10  5  1  0
 11 16  2  0
 12 11  1  0
 12 13  2  0
 13 14  1  0
 14 15  2  0
 15  1  1  0
 16 15  1  0
 17 13  1  0
 17 18  1  0
 19 18  2  0
 20 19  1  0
 21 20  2  0
 21 17  1  0
  3 22  1  0
  6 23  1  0
  7 24  1  0
  8 25  1  0
  9 26  1  0
 11 27  1  0
 12 28  1  0
 19 29  1  0
 20 30  1  0
 21 31  1  0
M  ISO  8  22  14  23  14  24  14  25  14  26  14  27  14  28  14  29  14
M  ISO  2  30  14  31  14
M  END
>  <minimizedAffinity>  (1) 
-5.5254159

>  <minimizedRMSD>  (1) 
6.70271063

$$$$
