
     RDKit          3D

 27 29  0  0  0  0  0  0  0  0999 V2000
   38.1210   23.1220   33.8470 C   0  0  0  0  0  0  0  0  0  0  0  0
   38.4160   24.1300   32.9990 N   0  0  0  0  0  0  0  0  0  0  0  0
   37.8020   24.3430   31.8360 C   0  0  0  0  0  0  0  0  0  0  0  0
   36.8090   23.5400   31.4110 N   0  0  0  0  0  0  0  0  0  0  0  0
   36.4460   22.5100   32.1910 C   0  0  0  0  0  0  0  0  0  0  0  0
   35.4250   21.7090   31.7260 C   0  0  0  0  0  0  0  0  0  0  0  0
   35.0110   20.6350   32.4920 C   0  0  0  0  0  0  0  0  0  0  0  0
   35.6520   20.4140   33.7050 C   0  0  0  0  0  0  0  0  0  0  0  0
   36.6650   21.2530   34.1070 C   0  0  0  0  0  0  0  0  0  0  0  0
   37.1080   22.3250   33.3860 C   0  0  0  0  0  0  0  0  0  0  0  0
   40.2920   22.1110   36.7430 C   0  0  0  0  0  0  0  0  0  0  0  0
   39.6860   22.8190   37.7720 C   0  0  0  0  0  0  0  0  0  0  0  0
   38.5920   23.5790   37.3980 C   0  0  0  0  0  0  0  0  0  0  0  0
   38.2210   23.5690   36.1060 N   0  0  0  0  0  0  0  0  0  0  0  0
   38.8000   22.8930   35.1230 C   0  0  0  0  0  0  0  0  0  0  0  0
   39.8460   22.1700   35.5020 N   0  0  0  0  0  0  0  0  0  0  0  0
   37.9250   24.3460   38.4780 C   0  0  0  0  0  0  0  0  0  0  0  0
   38.1130   25.1926   31.2103 H   0  0  0  0  0  0  0  0  0  0  0  0
   34.9462   21.9214   30.7587 H   0  0  0  0  0  0  0  0  0  0  0  0
   34.1990   19.9756   32.1516 H   0  0  0  0  0  0  0  0  0  0  0  0
   35.3499   19.5699   34.3423 H   0  0  0  0  0  0  0  0  0  0  0  0
   37.1502   21.0471   35.0725 H   0  0  0  0  0  0  0  0  0  0  0  0
   41.1674   21.4840   36.9679 H   0  0  0  0  0  0  0  0  0  0  0  0
   40.0493   22.7787   38.8095 H   0  0  0  0  0  0  0  0  0  0  0  0
   38.2557   23.9657   39.4558 H   0  0  0  0  0  0  0  0  0  0  0  0
   38.1900   25.4099   38.3896 H   0  0  0  0  0  0  0  0  0  0  0  0
   36.8346   24.2312   38.3896 H   0  0  0  0  0  0  0  0  0  0  0  0
  1 15  1  0
  2  1  2  0
  3  2  1  0
  4  3  2  0
  4  5  1  0
  5 10  2  0
  6  5  1  0
  6  7  2  0
  7  8  1  0
  8  9  2  0
 10  1  1  0
 10  9  1  0
 11 12  2  0
 13 12  1  0
 13 17  1  0
 14 13  2  0
 15 16  2  0
 15 14  1  0
 16 11  1  0
  3 18  1  0
  6 19  1  0
  7 20  1  0
  8 21  1  0
  9 22  1  0
 11 23  1  0
 12 24  1  0
 17 25  1  0
 17 26  1  0
 17 27  1  0
M  ISO  8  18  14  19  14  20  14  21  14  22  14  23  14  24  14  25   8
M  ISO  2  26   8  27   8
M  END
>  <minimizedAffinity>  (1) 
-5.17885256

>  <minimizedRMSD>  (1) 
0.807899654

$$$$
