
     RDKit          3D

 33 35  0  0  0  0  0  0  0  0999 V2000
   38.2740   23.9700   35.8190 C   0  0  0  0  0  0  0  0  0  0  0  0
   37.5850   24.3150   36.9200 N   0  0  0  0  0  0  0  0  0  0  0  0
   37.9170   23.9690   38.1700 C   0  0  0  0  0  0  0  0  0  0  0  0
   39.0160   23.2190   38.4070 N   0  0  0  0  0  0  0  0  0  0  0  0
   39.7700   22.8250   37.3730 C   0  0  0  0  0  0  0  0  0  0  0  0
   40.8710   22.0690   37.6720 C   0  0  0  0  0  0  0  0  0  0  0  0
   41.6850   21.6390   36.6430 C   0  0  0  0  0  0  0  0  0  0  0  0
   41.3410   22.0000   35.3290 C   0  0  0  0  0  0  0  0  0  0  0  0
   40.2190   22.7600   35.1180 C   0  0  0  0  0  0  0  0  0  0  0  0
   39.3850   23.2080   36.1040 C   0  0  0  0  0  0  0  0  0  0  0  0
   37.4170   24.2420   32.1680 C   0  0  0  0  0  0  0  0  0  0  0  0
   37.1600   25.6010   32.0720 C   0  0  0  0  0  0  0  0  0  0  0  0
   37.2990   26.3110   33.2500 C   0  0  0  0  0  0  0  0  0  0  0  0
   37.6620   25.6440   34.3620 N   0  0  0  0  0  0  0  0  0  0  0  0
   37.9070   24.3460   34.4560 C   0  0  0  0  0  0  0  0  0  0  0  0
   37.7660   23.6930   33.3110 N   0  0  0  0  0  0  0  0  0  0  0  0
   37.0310   27.7710   33.1750 C   0  0  0  0  0  0  0  0  0  0  0  0
   36.3580   28.3110   34.4110 C   0  0  0  0  0  0  0  0  0  0  0  0
   36.0710   27.9950   32.0020 C   0  0  0  0  0  0  0  0  0  0  0  0
   37.2897   24.2981   39.0116 H   0  0  0  0  0  0  0  0  0  0  0  0
   41.1036   21.8082   38.7150 H   0  0  0  0  0  0  0  0  0  0  0  0
   42.5785   21.0304   36.8461 H   0  0  0  0  0  0  0  0  0  0  0  0
   41.9633   21.6773   34.4812 H   0  0  0  0  0  0  0  0  0  0  0  0
   39.9724   23.0285   34.0802 H   0  0  0  0  0  0  0  0  0  0  0  0
   37.3273   23.6111   31.2714 H   0  0  0  0  0  0  0  0  0  0  0  0
   36.8665   26.0800   31.1263 H   0  0  0  0  0  0  0  0  0  0  0  0
   37.9956   28.2874   33.0617 H   0  0  0  0  0  0  0  0  0  0  0  0
   36.8576   27.9102   35.3053 H   0  0  0  0  0  0  0  0  0  0  0  0
   36.4247   29.4090   34.4148 H   0  0  0  0  0  0  0  0  0  0  0  0
   35.3006   28.0079   34.4148 H   0  0  0  0  0  0  0  0  0  0  0  0
   35.0681   28.2290   32.3885 H   0  0  0  0  0  0  0  0  0  0  0  0
   36.4319   28.8331   31.3877 H   0  0  0  0  0  0  0  0  0  0  0  0
   36.0238   27.0837   31.3877 H   0  0  0  0  0  0  0  0  0  0  0  0
  1 10  1  0
  1  2  2  0
  2  3  1  0
  3  4  2  0
  5  6  2  0
  5  4  1  0
  7  6  1  0
  8  7  2  0
  9  8  1  0
  9 10  2  0
 10  5  1  0
 11 16  2  0
 12 11  1  0
 12 13  2  0
 13 14  1  0
 14 15  2  0
 15  1  1  0
 16 15  1  0
 17 13  1  0
 17 18  1  0
 19 17  1  0
  3 20  1  0
  6 21  1  0
  7 22  1  0
  8 23  1  0
  9 24  1  0
 11 25  1  0
 12 26  1  0
 17 27  1  0
 18 28  1  0
 18 29  1  0
 18 30  1  0
 19 31  1  0
 19 32  1  0
 19 33  1  0
M  ISO  8  20  14  21  14  22  14  23  14  24  14  25  14  26  14  27   8
M  ISO  6  28   8  29   8  30   8  31   8  32   8  33   8
M  END
>  <minimizedAffinity>  (1) 
-5.26806355

>  <minimizedRMSD>  (1) 
5.54249573

$$$$
