
     RDKit          3D

 26 28  0  0  0  0  0  0  0  0999 V2000
   38.0490   23.1340   33.9030 C   0  0  0  0  0  0  0  0  0  0  0  0
   38.3150   24.1510   33.0570 N   0  0  0  0  0  0  0  0  0  0  0  0
   37.6940   24.3550   31.8940 C   0  0  0  0  0  0  0  0  0  0  0  0
   36.7230   23.5250   31.4710 N   0  0  0  0  0  0  0  0  0  0  0  0
   36.3870   22.4830   32.2440 C   0  0  0  0  0  0  0  0  0  0  0  0
   35.3910   21.6580   31.7770 C   0  0  0  0  0  0  0  0  0  0  0  0
   35.0050   20.5780   32.5250 C   0  0  0  0  0  0  0  0  0  0  0  0
   35.6480   20.3620   33.7360 C   0  0  0  0  0  0  0  0  0  0  0  0
   36.6410   21.2220   34.1540 C   0  0  0  0  0  0  0  0  0  0  0  0
   37.0530   22.3080   33.4390 C   0  0  0  0  0  0  0  0  0  0  0  0
   40.2190   22.1480   36.8090 C   0  0  0  0  0  0  0  0  0  0  0  0
   39.6170   22.8660   37.8360 C   0  0  0  0  0  0  0  0  0  0  0  0
   38.5250   23.6230   37.4480 C   0  0  0  0  0  0  0  0  0  0  0  0
   38.1410   23.6100   36.1640 N   0  0  0  0  0  0  0  0  0  0  0  0
   38.7300   22.9130   35.1790 C   0  0  0  0  0  0  0  0  0  0  0  0
   39.7550   22.2120   35.5830 N   0  0  0  0  0  0  0  0  0  0  0  0
   37.8810   24.3730   38.4730 N   0  0  0  0  0  0  0  0  0  0  0  0
   37.9802   25.2152   31.2711 H   0  0  0  0  0  0  0  0  0  0  0  0
   34.9082   21.8640   30.8103 H   0  0  0  0  0  0  0  0  0  0  0  0
   34.2098   19.9024   32.1769 H   0  0  0  0  0  0  0  0  0  0  0  0
   35.3649   19.5036   34.3629 H   0  0  0  0  0  0  0  0  0  0  0  0
   37.1289   21.0209   35.1192 H   0  0  0  0  0  0  0  0  0  0  0  0
   41.0946   21.5188   37.0265 H   0  0  0  0  0  0  0  0  0  0  0  0
   39.9795   22.8350   38.8741 H   0  0  0  0  0  0  0  0  0  0  0  0
   37.0625   24.9562   38.2475 H   0  0  0  0  0  0  0  0  0  0  0  0
   38.2337   24.3323   39.4399 H   0  0  0  0  0  0  0  0  0  0  0  0
  1 15  1  0
  2  1  2  0
  3  2  1  0
  4  3  2  0
  4  5  1  0
  5 10  2  0
  6  5  1  0
  6  7  2  0
  7  8  1  0
  8  9  2  0
 10  1  1  0
 10  9  1  0
 11 12  2  0
 13 12  1  0
 13 17  1  0
 14 13  2  0
 15 16  2  0
 15 14  1  0
 16 11  1  0
  3 18  1  0
  6 19  1  0
  7 20  1  0
  8 21  1  0
  9 22  1  0
 11 23  1  0
 12 24  1  0
 17 25  1  0
 17 26  1  0
M  ISO  7  18  14  19  14  20  14  21  14  22  14  23  14  24  14
M  END
>  <minimizedAffinity>  (1) 
-5.054811

>  <minimizedRMSD>  (1) 
0.75221765

$$$$
