
     RDKit          3D

 18 19  0  0  0  0  0  0  0  0999 V2000
   37.9520   24.2450   37.9130 C   0  0  0  0  0  0  0  0  0  0  0  0
   37.9410   24.8270   36.6350 C   0  0  0  0  0  0  0  0  0  0  0  0
   38.8360   24.3600   35.6800 C   0  0  0  0  0  0  0  0  0  0  0  0
   39.6690   23.3650   36.0450 N   0  0  0  0  0  0  0  0  0  0  0  0
   39.6780   22.8120   37.2670 C   0  0  0  0  0  0  0  0  0  0  0  0
   38.8180   23.2520   38.2040 N   0  0  0  0  0  0  0  0  0  0  0  0
   38.8690   25.0580   34.0390 S   0  0  0  0  0  0  0  0  0  0  0  0
   37.6100   24.4940   33.0000 C   0  0  0  0  0  0  0  0  0  0  0  0
   36.6870   25.1160   32.2140 C   0  0  0  0  0  0  0  0  0  0  0  0
   35.7750   24.4350   31.4660 C   0  0  0  0  0  0  0  0  0  0  0  0
   35.8780   22.9700   31.5850 C   0  0  0  0  0  0  0  0  0  0  0  0
   37.2760   22.6720   32.7610 S   0  0  0  0  0  0  0  0  0  0  0  0
   37.2502   24.6009   38.6817 H   0  0  0  0  0  0  0  0  0  0  0  0
   37.2371   25.6374   36.3944 H   0  0  0  0  0  0  0  0  0  0  0  0
   40.3849   22.0027   37.5022 H   0  0  0  0  0  0  0  0  0  0  0  0
   36.6781   26.2155   32.1822 H   0  0  0  0  0  0  0  0  0  0  0  0
   35.0287   24.9338   30.8302 H   0  0  0  0  0  0  0  0  0  0  0  0
   35.2565   22.2144   31.0821 H   0  0  0  0  0  0  0  0  0  0  0  0
  1  6  2  0
  2  1  1  0
  3  4  1  0
  3  2  2  0
  4  5  2  0
  5  6  1  0
  7  3  1  0
  8  7  1  0
  9  8  2  0
 10 11  2  0
 10  9  1  0
 11 12  1  0
 12  8  1  0
  1 13  1  0
  2 14  1  0
  5 15  1  0
  9 16  1  0
 10 17  1  0
 11 18  1  0
M  ISO  6  13  14  14  14  15  14  16  14  17  14  18  14
M  END
>  <minimizedAffinity>  (1) 
-3.50819516

>  <minimizedRMSD>  (1) 
5.57203531

$$$$
