
     RDKit          3D

 41 44  0  0  0  0  0  0  0  0999 V2000
   37.3040   22.8720   33.1760 C   0  0  0  0  0  0  0  0  0  0  0  0
   36.9730   21.6300   32.7440 N   0  0  0  0  0  0  0  0  0  0  0  0
   36.1460   21.3760   31.7160 C   0  0  0  0  0  0  0  0  0  0  0  0
   35.5770   22.3750   31.0280 N   0  0  0  0  0  0  0  0  0  0  0  0
   35.8520   23.6500   31.3920 C   0  0  0  0  0  0  0  0  0  0  0  0
   35.2360   24.6360   30.6590 C   0  0  0  0  0  0  0  0  0  0  0  0
   35.4760   25.9480   30.9960 C   0  0  0  0  0  0  0  0  0  0  0  0
   36.3350   26.2090   32.0690 C   0  0  0  0  0  0  0  0  0  0  0  0
   36.9120   25.1460   32.7500 C   0  0  0  0  0  0  0  0  0  0  0  0
   36.7020   23.8500   32.4490 C   0  0  0  0  0  0  0  0  0  0  0  0
   39.0480   23.5270   36.4150 C   0  0  0  0  0  0  0  0  0  0  0  0
   40.3690   23.5420   35.9950 C   0  0  0  0  0  0  0  0  0  0  0  0
   40.5740   23.3300   34.6430 C   0  0  0  0  0  0  0  0  0  0  0  0
   39.4890   23.1350   33.8830 N   0  0  0  0  0  0  0  0  0  0  0  0
   38.2130   23.1210   34.2780 C   0  0  0  0  0  0  0  0  0  0  0  0
   38.0580   23.3270   35.5860 N   0  0  0  0  0  0  0  0  0  0  0  0
   41.8680   23.3310   34.0730 N   0  0  0  0  0  0  0  0  0  0  0  0
   42.5250   22.1480   33.6220 C   0  0  0  0  0  0  0  0  0  0  0  0
   41.7530   21.3290   32.9330 N   0  0  0  0  0  0  0  0  0  0  0  0
   43.9230   22.0120   33.9780 N   0  0  0  0  0  0  0  0  0  0  0  0
   42.1970   20.4720   32.5680 H   0  0  0  0  0  0  0  0  0  0  0  0
   37.6840   25.7890   33.7980 C   0  0  0  0  0  0  0  0  0  0  0  0
   37.5250   26.0670   35.1430 C   0  0  0  0  0  0  0  0  0  0  0  0
   38.5010   26.6520   35.9060 C   0  0  0  0  0  0  0  0  0  0  0  0
   39.7170   27.0070   35.3780 C   0  0  0  0  0  0  0  0  0  0  0  0
   39.9330   26.7530   34.0420 C   0  0  0  0  0  0  0  0  0  0  0  0
   38.9410   26.1550   33.2540 C   0  0  0  0  0  0  0  0  0  0  0  0
   35.9332   20.3339   31.4355 H   0  0  0  0  0  0  0  0  0  0  0  0
   34.5674   24.3823   29.8232 H   0  0  0  0  0  0  0  0  0  0  0  0
   35.0051   26.7699   30.4368 H   0  0  0  0  0  0  0  0  0  0  0  0
   36.5507   27.2449   32.3696 H   0  0  0  0  0  0  0  0  0  0  0  0
   38.8261   23.6886   37.4802 H   0  0  0  0  0  0  0  0  0  0  0  0
   41.2022   23.7118   36.6928 H   0  0  0  0  0  0  0  0  0  0  0  0
   42.3606   24.2306   33.9788 H   0  0  0  0  0  0  0  0  0  0  0  0
   44.4514   21.1793   33.6809 H   0  0  0  0  0  0  0  0  0  0  0  0
   44.3883   22.7480   34.5282 H   0  0  0  0  0  0  0  0  0  0  0  0
   36.5702   25.8063   35.6229 H   0  0  0  0  0  0  0  0  0  0  0  0
   38.3045   26.8425   36.9714 H   0  0  0  0  0  0  0  0  0  0  0  0
   40.4921   27.4780   36.0004 H   0  0  0  0  0  0  0  0  0  0  0  0
   40.8975   27.0233   33.5873 H   0  0  0  0  0  0  0  0  0  0  0  0
   39.1419   25.9652   32.1893 H   0  0  0  0  0  0  0  0  0  0  0  0
  1 15  1  0
  2  1  2  0
  3  2  1  0
  4  5  1  0
  4  3  2  0
  5 10  2  0
  6  7  2  0
  6  5  1  0
  7  8  1  0
  8  9  2  0
  9 22  1  0
 10  9  1  0
 10  1  1  0
 12 11  2  0
 13 12  1  0
 14 15  1  0
 14 13  2  0
 15 16  2  0
 16 11  1  0
 17 13  1  0
 18 20  1  0
 18 17  1  0
 19 18  2  0
 21 19  1  0
 22 23  2  0
 23 24  1  0
 25 24  2  0
 26 25  1  0
 27 22  1  0
 27 26  2  0
  3 28  1  0
  6 29  1  0
  7 30  1  0
  8 31  1  0
 11 32  1  0
 12 33  1  0
 17 34  1  0
 20 35  1  0
 20 36  1  0
 23 37  1  0
 24 38  1  0
 25 39  1  0
 26 40  1  0
 27 41  1  0
M  ISO  8  28  14  29  14  30  14  31  14  32  14  33  14  37  14  38  14
M  ISO  3  39  14  40  14  41  14
M  END
>  <minimizedAffinity>  (1) 
-5.7158165

>  <minimizedRMSD>  (1) 
4.62110567

$$$$
