
     RDKit          3D

 18 19  0  0  0  0  0  0  0  0999 V2000
   41.3280   21.9180   37.4020 C   0  0  0  0  0  0  0  0  0  0  0  0
   39.9950   22.3560   37.4410 C   0  0  0  0  0  0  0  0  0  0  0  0
   39.5920   23.3520   36.5680 C   0  0  0  0  0  0  0  0  0  0  0  0
   40.5150   23.8510   35.7200 N   0  0  0  0  0  0  0  0  0  0  0  0
   41.7880   23.4290   35.6870 C   0  0  0  0  0  0  0  0  0  0  0  0
   42.2000   22.4720   36.5160 N   0  0  0  0  0  0  0  0  0  0  0  0
   37.9220   23.9550   36.5610 S   0  0  0  0  0  0  0  0  0  0  0  0
   37.9290   25.6620   36.0360 C   0  0  0  0  0  0  0  0  0  0  0  0
   37.4140   26.0140   34.8000 C   0  0  0  0  0  0  0  0  0  0  0  0
   37.5760   27.3930   34.7150 C   0  0  0  0  0  0  0  0  0  0  0  0
   38.1630   27.8330   35.8580 N   0  0  0  0  0  0  0  0  0  0  0  0
   38.3760   26.7780   36.6560 N   0  0  0  0  0  0  0  0  0  0  0  0
   41.6677   21.1274   38.0872 H   0  0  0  0  0  0  0  0  0  0  0  0
   39.2823   21.9151   38.1535 H   0  0  0  0  0  0  0  0  0  0  0  0
   42.4946   23.8756   34.9719 H   0  0  0  0  0  0  0  0  0  0  0  0
   36.9714   25.3461   34.0464 H   0  0  0  0  0  0  0  0  0  0  0  0
   37.2782   28.0225   33.8635 H   0  0  0  0  0  0  0  0  0  0  0  0
   38.4034   28.8109   36.0744 H   0  0  0  0  0  0  0  0  0  0  0  0
  1  2  2  0
  3  2  1  0
  4  3  2  0
  5  4  1  0
  5  6  2  0
  6  1  1  0
  7  3  1  0
  8  7  1  0
  8 12  2  0
  9  8  1  0
 10  9  2  0
 10 11  1  0
 11 12  1  0
  1 13  1  0
  2 14  1  0
  5 15  1  0
  9 16  1  0
 10 17  1  0
 11 18  1  0
M  ISO  6  13  14  14  14  15  14  16  14  17  14  18   9
M  END
>  <minimizedAffinity>  (1) 
-3.44534755

>  <minimizedRMSD>  (1) 
2.48527741

$$$$
