
     RDKit          3D

 38 41  0  0  0  0  0  0  0  0999 V2000
   36.8300   25.5580   32.5200 C   0  0  0  0  0  0  0  0  0  0  0  0
   36.1380   26.5000   31.8390 N   0  0  0  0  0  0  0  0  0  0  0  0
   35.9890   27.7750   32.2430 C   0  0  0  0  0  0  0  0  0  0  0  0
   36.5490   28.1960   33.4030 N   0  0  0  0  0  0  0  0  0  0  0  0
   37.2520   27.3020   34.1270 C   0  0  0  0  0  0  0  0  0  0  0  0
   37.7540   27.7630   35.3160 C   0  0  0  0  0  0  0  0  0  0  0  0
   38.4320   26.8810   36.1320 C   0  0  0  0  0  0  0  0  0  0  0  0
   38.5680   25.5750   35.6970 C   0  0  0  0  0  0  0  0  0  0  0  0
   38.0420   25.1640   34.4790 C   0  0  0  0  0  0  0  0  0  0  0  0
   37.3760   26.0110   33.6730 C   0  0  0  0  0  0  0  0  0  0  0  0
   36.5270   21.9400   31.6360 C   0  0  0  0  0  0  0  0  0  0  0  0
   37.6430   21.7840   30.8380 C   0  0  0  0  0  0  0  0  0  0  0  0
   38.4100   22.9080   30.6640 C   0  0  0  0  0  0  0  0  0  0  0  0
   38.0290   24.0330   31.2640 N   0  0  0  0  0  0  0  0  0  0  0  0
   36.9530   24.2040   32.0470 C   0  0  0  0  0  0  0  0  0  0  0  0
   36.2370   23.0830   32.1820 N   0  0  0  0  0  0  0  0  0  0  0  0
   39.6220   22.9140   29.8960 N   0  0  0  0  0  0  0  0  0  0  0  0
   39.7270   23.5000   28.6180 C   0  0  0  0  0  0  0  0  0  0  0  0
   39.1910   24.7040   28.5420 N   0  0  0  0  0  0  0  0  0  0  0  0
   40.3870   22.7290   27.5810 N   0  0  0  0  0  0  0  0  0  0  0  0
   39.2580   25.1900   27.6310 H   0  0  0  0  0  0  0  0  0  0  0  0
   38.3040   23.7150   34.2320 C   0  0  0  0  0  0  0  0  0  0  0  0
   39.2570   22.9980   35.0740 C   0  0  0  0  0  0  0  0  0  0  0  0
   37.8870   22.7020   35.3360 C   0  0  0  0  0  0  0  0  0  0  0  0
   35.4094   28.4794   31.6282 H   0  0  0  0  0  0  0  0  0  0  0  0
   37.6193   28.8135   35.6133 H   0  0  0  0  0  0  0  0  0  0  0  0
   38.8504   27.2055   37.0962 H   0  0  0  0  0  0  0  0  0  0  0  0
   39.1024   24.8488   36.3271 H   0  0  0  0  0  0  0  0  0  0  0  0
   35.8684   21.0770   31.8136 H   0  0  0  0  0  0  0  0  0  0  0  0
   37.9003   20.8213   30.3722 H   0  0  0  0  0  0  0  0  0  0  0  0
   40.4581   22.4674   30.2990 H   0  0  0  0  0  0  0  0  0  0  0  0
   40.4854   23.1192   26.6329 H   0  0  0  0  0  0  0  0  0  0  0  0
   40.7571   21.7915   27.7930 H   0  0  0  0  0  0  0  0  0  0  0  0
   38.1482   23.8431   33.1506 H   0  0  0  0  0  0  0  0  0  0  0  0
   39.8944   22.2242   34.6212 H   0  0  0  0  0  0  0  0  0  0  0  0
   40.0838   23.3337   35.7173 H   0  0  0  0  0  0  0  0  0  0  0  0
   37.4107   23.0564   36.2620 H   0  0  0  0  0  0  0  0  0  0  0  0
   37.2727   21.7904   35.3759 H   0  0  0  0  0  0  0  0  0  0  0  0
  1 10  2  0
  2  3  2  0
  2  1  1  0
  3  4  1  0
  4  5  2  0
  5  6  1  0
  6  7  2  0
  8  7  1  0
  9  8  2  0
 10  5  1  0
 10  9  1  0
 11 16  2  0
 12 11  1  0
 13 12  2  0
 13 14  1  0
 14 15  2  0
 15 16  1  0
 15  1  1  0
 17 13  1  0
 18 17  1  0
 19 18  2  0
 20 18  1  0
 21 19  1  0
 22  9  1  0
 22 23  1  0
 22 24  1  0
 23 24  1  0
  3 25  1  0
  6 26  1  0
  7 27  1  0
  8 28  1  0
 11 29  1  0
 12 30  1  0
 17 31  1  0
 20 32  1  0
 20 33  1  0
 22 34  1  0
 23 35  1  0
 23 36  1  0
 24 37  1  0
 24 38  1  0
M  ISO  8  25  14  26  14  27  14  28  14  29  14  30  14  34  13  35  13
M  ISO  3  36  13  37  13  38  13
M  END
>  <minimizedAffinity>  (1) 
-5.2964983

>  <minimizedRMSD>  (1) 
6.14649153

$$$$
