
     RDKit          3D

 20 21  0  0  0  0  0  0  0  0999 V2000
   39.9440   22.7360   37.7470 C   0  0  0  0  0  0  0  0  0  0  0  0
   39.1320   23.3500   38.7060 C   0  0  0  0  0  0  0  0  0  0  0  0
   37.8200   23.7190   38.2950 C   0  0  0  0  0  0  0  0  0  0  0  0
   37.4530   23.4530   37.0200 N   0  0  0  0  0  0  0  0  0  0  0  0
   38.2740   22.8560   36.1330 C   0  0  0  0  0  0  0  0  0  0  0  0
   39.5210   22.4990   36.5010 N   0  0  0  0  0  0  0  0  0  0  0  0
   37.9050   22.5600   34.7630 C   0  0  0  0  0  0  0  0  0  0  0  0
   38.3070   23.1850   33.7640 O   0  0  0  0  0  0  0  0  0  0  0  0
   37.0380   21.5170   34.4050 O   0  0  0  0  0  0  0  0  0  0  0  0
   36.6500   21.2610   33.1290 C   0  0  0  0  0  0  0  0  0  0  0  0
   35.6040   21.6840   32.3940 C   0  0  0  0  0  0  0  0  0  0  0  0
   35.4460   21.2640   31.1060 C   0  0  0  0  0  0  0  0  0  0  0  0
   36.4080   20.3890   30.6000 C   0  0  0  0  0  0  0  0  0  0  0  0
   37.6250   20.1350   32.0340 S   0  0  0  0  0  0  0  0  0  0  0  0
   40.9651   22.4380   38.0273 H   0  0  0  0  0  0  0  0  0  0  0  0
   39.4900   23.5387   39.7288 H   0  0  0  0  0  0  0  0  0  0  0  0
   37.1244   24.2065   38.9939 H   0  0  0  0  0  0  0  0  0  0  0  0
   34.8706   22.3743   32.8362 H   0  0  0  0  0  0  0  0  0  0  0  0
   34.5971   21.6004   30.4927 H   0  0  0  0  0  0  0  0  0  0  0  0
   36.4513   19.9454   29.5943 H   0  0  0  0  0  0  0  0  0  0  0  0
  1  2  2  0
  3  2  1  0
  4  3  2  0
  5  6  2  0
  5  4  1  0
  6  1  1  0
  7  5  1  0
  8  7  2  0
  9  7  1  0
 10  9  1  0
 11 10  2  0
 12 11  1  0
 13 12  2  0
 13 14  1  0
 14 10  1  0
  1 15  1  0
  2 16  1  0
  3 17  1  0
 11 18  1  0
 12 19  1  0
 13 20  1  0
M  ISO  6  15  14  16  14  17  14  18  14  19  14  20  14
M  END
>  <minimizedAffinity>  (1) 
-3.94639516

>  <minimizedRMSD>  (1) 
0.539448082

$$$$
