
     RDKit          3D

 18 19  0  0  0  0  0  0  0  0999 V2000
   41.2540   21.8100   37.3660 C   0  0  0  0  0  0  0  0  0  0  0  0
   40.1760   22.6130   37.7740 C   0  0  0  0  0  0  0  0  0  0  0  0
   39.3850   23.1980   36.7880 C   0  0  0  0  0  0  0  0  0  0  0  0
   39.7110   22.9510   35.5030 N   0  0  0  0  0  0  0  0  0  0  0  0
   40.7480   22.1800   35.1180 C   0  0  0  0  0  0  0  0  0  0  0  0
   41.5260   21.6040   36.0560 N   0  0  0  0  0  0  0  0  0  0  0  0
   37.9990   24.2300   37.2120 S   0  0  0  0  0  0  0  0  0  0  0  0
   38.0060   25.7020   36.1820 C   0  0  0  0  0  0  0  0  0  0  0  0
   37.6180   25.6780   34.8580 C   0  0  0  0  0  0  0  0  0  0  0  0
   37.7590   26.9520   34.4360 N   0  0  0  0  0  0  0  0  0  0  0  0
   38.2110   27.7050   35.4530 C   0  0  0  0  0  0  0  0  0  0  0  0
   38.3730   26.9370   36.5650 N   0  0  0  0  0  0  0  0  0  0  0  0
   41.8914   21.3380   38.1281 H   0  0  0  0  0  0  0  0  0  0  0  0
   39.9628   22.7750   38.8409 H   0  0  0  0  0  0  0  0  0  0  0  0
   40.9569   22.0227   34.0495 H   0  0  0  0  0  0  0  0  0  0  0  0
   37.2706   24.8120   34.2754 H   0  0  0  0  0  0  0  0  0  0  0  0
   38.4194   28.7835   35.3953 H   0  0  0  0  0  0  0  0  0  0  0  0
   38.7034   27.2358   37.4937 H   0  0  0  0  0  0  0  0  0  0  0  0
  1  2  2  0
  3  7  1  0
  3  2  1  0
  4  3  2  0
  5  4  1  0
  5  6  2  0
  6  1  1  0
  8 12  1  0
  8  7  1  0
  9  8  2  0
 10  9  1  0
 10 11  2  0
 11 12  1  0
  1 13  1  0
  2 14  1  0
  5 15  1  0
  9 16  1  0
 11 17  1  0
 12 18  1  0
M  ISO  6  13  14  14  14  15  14  16  14  17  14  18   9
M  END
>  <minimizedAffinity>  (1) 
-3.37815762

>  <minimizedRMSD>  (1) 
2.18132806

$$$$
