
     RDKit          3D

 23 24  0  0  1  0  0  0  0  0999 V2000
   41.0770   21.9560   37.5180 C   0  0  0  0  0  0  0  0  0  0  0  0
   39.9360   22.7430   37.7210 C   0  0  0  0  0  0  0  0  0  0  0  0
   39.2100   23.1190   36.6000 C   0  0  0  0  0  0  0  0  0  0  0  0
   39.6490   22.7030   35.3850 N   0  0  0  0  0  0  0  0  0  0  0  0
   40.7440   21.9490   35.2070 C   0  0  0  0  0  0  0  0  0  0  0  0
   41.4520   21.5790   36.2700 N   0  0  0  0  0  0  0  0  0  0  0  0
   37.7410   24.1190   36.7490 S   0  0  0  0  0  0  0  0  0  0  0  0
   39.4880   25.5930   35.4740 N   0  0  0  0  0  0  0  0  0  0  0  0
   39.6620   26.9230   34.9100 C   0  0  0  0  0  0  0  0  0  0  0  0
   38.2720   27.2480   34.4040 C   0  0  0  0  0  0  0  0  0  0  0  0
   37.3030   26.3950   35.2230 C   0  0  0  0  0  0  0  0  0  0  0  0
   38.2370   25.7840   36.2260 C   0  0  1  0  0  0  0  0  0  0  0  0
   41.6777   21.6391   38.3833 H   0  0  0  0  0  0  0  0  0  0  0  0
   39.6273   23.0512   38.7308 H   0  0  0  0  0  0  0  0  0  0  0  0
   41.0517   21.6413   34.1967 H   0  0  0  0  0  0  0  0  0  0  0  0
   40.2696   25.3374   36.0942 H   0  0  0  0  0  0  0  0  0  0  0  0
   39.9837   27.6417   35.6781 H   0  0  0  0  0  0  0  0  0  0  0  0
   40.4355   26.9709   34.1294 H   0  0  0  0  0  0  0  0  0  0  0  0
   38.0545   28.3164   34.5496 H   0  0  0  0  0  0  0  0  0  0  0  0
   38.1795   27.0348   33.3288 H   0  0  0  0  0  0  0  0  0  0  0  0
   36.5342   27.0124   35.7106 H   0  0  0  0  0  0  0  0  0  0  0  0
   36.7311   25.6644   34.6320 H   0  0  0  0  0  0  0  0  0  0  0  0
   38.2831   26.4253   37.1185 H   0  0  0  0  0  0  0  0  0  0  0  0
  1  2  2  0
  3  7  1  0
  3  2  1  0
  4  3  2  0
  5  4  1  0
  5  6  2  0
  6  1  1  0
  8 12  1  0
  9  8  1  0
 10  9  1  0
 10 11  1  0
 11 12  1  0
 12  7  1  0
  1 13  1  0
  2 14  1  0
  5 15  1  0
  8 16  1  0
  9 17  1  0
  9 18  1  0
 10 19  1  0
 10 20  1  0
 11 21  1  0
 11 22  1  0
 12 23  1  1
M  ISO  8  13  14  14  14  15  14  16   5  17  13  18  13  19  13  20  13
M  ISO  3  21  13  22  13  23  13
M  END
>  <minimizedAffinity>  (1) 
-3.36622405

>  <minimizedRMSD>  (1) 
2.0552938

$$$$
