
     RDKit          3D

 33 35  0  0  0  0  0  0  0  0999 V2000
   36.8750   21.2880   33.0740 C   0  0  0  0  0  0  0  0  0  0  0  0
   35.9360   21.5950   32.1710 C   0  0  0  0  0  0  0  0  0  0  0  0
   35.9470   21.1030   30.9100 C   0  0  0  0  0  0  0  0  0  0  0  0
   36.9960   20.2560   30.6070 C   0  0  0  0  0  0  0  0  0  0  0  0
   38.0200   20.1460   32.1790 S   0  0  0  0  0  0  0  0  0  0  0  0
   37.2990   19.5760   29.3800 N   0  0  0  0  0  0  0  0  0  0  0  0
   36.5600   18.5330   28.9080 C   0  0  0  0  0  0  0  0  0  0  0  0
   36.9380   17.9500   27.7170 C   0  0  0  0  0  0  0  0  0  0  0  0
   36.1390   16.8120   27.1930 C   0  0  0  0  0  0  0  0  0  0  0  0
   38.0470   18.4090   27.0100 C   0  0  0  0  0  0  0  0  0  0  0  0
   38.4000   17.8740   25.9120 O   0  0  0  0  0  0  0  0  0  0  0  0
   38.7600   19.4440   27.5040 N   0  0  0  0  0  0  0  0  0  0  0  0
   38.3720   19.9990   28.6690 C   0  0  0  0  0  0  0  0  0  0  0  0
   39.0540   20.9770   29.1260 O   0  0  0  0  0  0  0  0  0  0  0  0
   37.0910   21.6330   34.3690 O   0  0  0  0  0  0  0  0  0  0  0  0
   37.9500   22.6660   34.7600 C   0  0  0  0  0  0  0  0  0  0  0  0
   38.3630   23.3110   33.7850 O   0  0  0  0  0  0  0  0  0  0  0  0
   39.9430   22.7330   37.7780 C   0  0  0  0  0  0  0  0  0  0  0  0
   39.1220   23.3510   38.7360 C   0  0  0  0  0  0  0  0  0  0  0  0
   37.8250   23.7590   38.3120 C   0  0  0  0  0  0  0  0  0  0  0  0
   37.4710   23.5270   37.0250 N   0  0  0  0  0  0  0  0  0  0  0  0
   38.3000   22.9270   36.1420 C   0  0  0  0  0  0  0  0  0  0  0  0
   39.5390   22.5300   36.5220 N   0  0  0  0  0  0  0  0  0  0  0  0
   35.1226   22.2745   32.4654 H   0  0  0  0  0  0  0  0  0  0  0  0
   35.1711   21.3607   30.1741 H   0  0  0  0  0  0  0  0  0  0  0  0
   35.6842   18.1655   29.4629 H   0  0  0  0  0  0  0  0  0  0  0  0
   35.7317   16.2319   28.0342 H   0  0  0  0  0  0  0  0  0  0  0  0
   35.3119   17.1969   26.5785 H   0  0  0  0  0  0  0  0  0  0  0  0
   36.7820   16.1648   26.5785 H   0  0  0  0  0  0  0  0  0  0  0  0
   39.5840   19.8021   27.0003 H   0  0  0  0  0  0  0  0  0  0  0  0
   40.9511   22.4059   38.0724 H   0  0  0  0  0  0  0  0  0  0  0  0
   39.4658   23.5127   39.7683 H   0  0  0  0  0  0  0  0  0  0  0  0
   37.1301   24.2488   39.0100 H   0  0  0  0  0  0  0  0  0  0  0  0
  1 15  1  0
  2  1  2  0
  3  2  1  0
  4  3  2  0
  4  5  1  0
  5  1  1  0
  6  4  1  0
  7  6  1  0
  8  7  2  0
  9  8  1  0
 10 12  1  0
 10  8  1  0
 11 10  2  0
 12 13  1  0
 13 14  2  0
 13  6  1  0
 15 16  1  0
 16 22  1  0
 17 16  2  0
 18 19  2  0
 20 19  1  0
 21 20  2  0
 22 23  2  0
 22 21  1  0
 23 18  1  0
  2 24  1  0
  3 25  1  0
  7 26  1  0
  9 27  1  0
  9 28  1  0
  9 29  1  0
 12 30  1  0
 18 31  1  0
 19 32  1  0
 20 33  1  0
M  ISO  8  24  14  25  14  26  14  27   8  28   8  29   8  30   9  31  14
M  ISO  2  32  14  33  14
M  END
>  <minimizedAffinity>  (1) 
-4.57430792

>  <minimizedRMSD>  (1) 
0.830701709

$$$$
