
     RDKit          3D

 34 37  0  0  0  0  0  0  0  0999 V2000
   36.8350   21.1840   33.0840 C   0  0  0  0  0  0  0  0  0  0  0  0
   35.8200   21.3370   32.2260 C   0  0  0  0  0  0  0  0  0  0  0  0
   35.8530   20.8570   30.9610 C   0  0  0  0  0  0  0  0  0  0  0  0
   37.0110   20.1940   30.6030 C   0  0  0  0  0  0  0  0  0  0  0  0
   38.0990   20.2540   32.1330 S   0  0  0  0  0  0  0  0  0  0  0  0
   37.3600   19.5750   29.3520 N   0  0  0  0  0  0  0  0  0  0  0  0
   36.6160   18.5910   28.8760 C   0  0  0  0  0  0  0  0  0  0  0  0
   37.2060   18.2320   27.6990 N   0  0  0  0  0  0  0  0  0  0  0  0
   38.2980   19.0220   27.5050 C   0  0  0  0  0  0  0  0  0  0  0  0
   39.2780   19.1340   26.5180 C   0  0  0  0  0  0  0  0  0  0  0  0
   39.2090   18.3510   25.5290 O   0  0  0  0  0  0  0  0  0  0  0  0
   40.2560   20.0660   26.6510 N   0  0  0  0  0  0  0  0  0  0  0  0
   40.2980   20.8920   27.7300 C   0  0  0  0  0  0  0  0  0  0  0  0
   41.3220   21.8740   27.8770 N   0  0  0  0  0  0  0  0  0  0  0  0
   39.3710   20.8150   28.7040 N   0  0  0  0  0  0  0  0  0  0  0  0
   38.3970   19.8910   28.5750 C   0  0  0  0  0  0  0  0  0  0  0  0
   37.0430   21.5590   34.3710 O   0  0  0  0  0  0  0  0  0  0  0  0
   37.8260   22.6510   34.7430 C   0  0  0  0  0  0  0  0  0  0  0  0
   38.1240   23.3520   33.7700 O   0  0  0  0  0  0  0  0  0  0  0  0
   39.9330   22.7060   37.6800 C   0  0  0  0  0  0  0  0  0  0  0  0
   39.1580   23.3220   38.6780 C   0  0  0  0  0  0  0  0  0  0  0  0
   37.8390   23.7340   38.3000 C   0  0  0  0  0  0  0  0  0  0  0  0
   37.4350   23.5070   37.0290 N   0  0  0  0  0  0  0  0  0  0  0  0
   38.2290   22.9100   36.1160 C   0  0  0  0  0  0  0  0  0  0  0  0
   39.4840   22.5050   36.4380 N   0  0  0  0  0  0  0  0  0  0  0  0
   34.9216   21.8751   32.5626 H   0  0  0  0  0  0  0  0  0  0  0  0
   35.0125   20.9863   30.2633 H   0  0  0  0  0  0  0  0  0  0  0  0
   35.7145   18.1551   29.3313 H   0  0  0  0  0  0  0  0  0  0  0  0
   40.9787   20.1488   25.9218 H   0  0  0  0  0  0  0  0  0  0  0  0
   41.3319   22.4880   28.7039 H   0  0  0  0  0  0  0  0  0  0  0  0
   42.0516   21.9691   27.1562 H   0  0  0  0  0  0  0  0  0  0  0  0
   40.9515   22.3758   37.9322 H   0  0  0  0  0  0  0  0  0  0  0  0
   39.5441   23.4794   39.6959 H   0  0  0  0  0  0  0  0  0  0  0  0
   37.1715   24.2227   39.0250 H   0  0  0  0  0  0  0  0  0  0  0  0
  1 17  1  0
  2  1  2  0
  3  2  1  0
  4  3  2  0
  4  5  1  0
  5  1  1  0
  6  4  1  0
  7  6  1  0
  8  7  2  0
  9  8  1  0
  9 16  2  0
 10 12  1  0
 10  9  1  0
 11 10  2  0
 12 13  1  0
 13 14  1  0
 13 15  2  0
 16 15  1  0
 16  6  1  0
 17 18  1  0
 18 24  1  0
 19 18  2  0
 20 21  2  0
 22 21  1  0
 23 22  2  0
 24 25  2  0
 24 23  1  0
 25 20  1  0
  2 26  1  0
  3 27  1  0
  7 28  1  0
 12 29  1  0
 14 30  1  0
 14 31  1  0
 20 32  1  0
 21 33  1  0
 22 34  1  0
M  ISO  7  26  14  27  14  28  14  29   9  32  14  33  14  34  14
M  END
>  <minimizedAffinity>  (1) 
-4.55423403

>  <minimizedRMSD>  (1) 
1.12147367

$$$$
