
     RDKit          3D

 27 29  0  0  0  0  0  0  0  0999 V2000
   36.7600   21.1720   33.1110 C   0  0  0  0  0  0  0  0  0  0  0  0
   35.7200   21.3530   32.2880 C   0  0  0  0  0  0  0  0  0  0  0  0
   35.7540   20.8870   31.0160 C   0  0  0  0  0  0  0  0  0  0  0  0
   36.8930   20.2220   30.5990 C   0  0  0  0  0  0  0  0  0  0  0  0
   38.0130   20.2470   32.1030 S   0  0  0  0  0  0  0  0  0  0  0  0
   37.2950   19.6160   29.4010 C   0  0  0  0  0  0  0  0  0  0  0  0
   36.6330   18.6880   28.6320 C   0  0  0  0  0  0  0  0  0  0  0  0
   37.4960   18.4410   27.5620 C   0  0  0  0  0  0  0  0  0  0  0  0
   38.6060   19.1930   27.7020 N   0  0  0  0  0  0  0  0  0  0  0  0
   38.4680   19.8990   28.8220 N   0  0  0  0  0  0  0  0  0  0  0  0
   37.0130   21.5150   34.4030 O   0  0  0  0  0  0  0  0  0  0  0  0
   37.8100   22.5980   34.7670 C   0  0  0  0  0  0  0  0  0  0  0  0
   38.1180   23.3130   33.7840 O   0  0  0  0  0  0  0  0  0  0  0  0
   39.9490   22.7070   37.6870 C   0  0  0  0  0  0  0  0  0  0  0  0
   39.1620   23.3220   38.6810 C   0  0  0  0  0  0  0  0  0  0  0  0
   37.8320   23.7130   38.3150 C   0  0  0  0  0  0  0  0  0  0  0  0
   37.4420   23.4600   37.0490 N   0  0  0  0  0  0  0  0  0  0  0  0
   38.2320   22.8680   36.1270 C   0  0  0  0  0  0  0  0  0  0  0  0
   39.4860   22.4960   36.4600 N   0  0  0  0  0  0  0  0  0  0  0  0
   34.8277   21.8860   32.6482 H   0  0  0  0  0  0  0  0  0  0  0  0
   34.9019   21.0331   30.3359 H   0  0  0  0  0  0  0  0  0  0  0  0
   35.6454   18.2406   28.8178 H   0  0  0  0  0  0  0  0  0  0  0  0
   37.3006   17.7426   26.7350 H   0  0  0  0  0  0  0  0  0  0  0  0
   39.4118   19.2169   27.0609 H   0  0  0  0  0  0  0  0  0  0  0  0
   40.9740   22.3933   37.9337 H   0  0  0  0  0  0  0  0  0  0  0  0
   39.5516   23.4948   39.6951 H   0  0  0  0  0  0  0  0  0  0  0  0
   37.1583   24.1987   39.0362 H   0  0  0  0  0  0  0  0  0  0  0  0
  1 11  1  0
  2  1  2  0
  3  2  1  0
  4  3  2  0
  4  5  1  0
  5  1  1  0
  6  4  1  0
  7  6  1  0
  8  9  1  0
  8  7  2  0
  9 10  1  0
 10  6  2  0
 11 12  1  0
 12 18  1  0
 13 12  2  0
 14 15  2  0
 16 15  1  0
 17 16  2  0
 18 19  2  0
 18 17  1  0
 19 14  1  0
  2 20  1  0
  3 21  1  0
  7 22  1  0
  8 23  1  0
  9 24  1  0
 14 25  1  0
 15 26  1  0
 16 27  1  0
M  ISO  8  20  14  21  14  22  14  23  14  24   9  25  14  26  14  27  14
M  END
>  <minimizedAffinity>  (1) 
-4.35257101

>  <minimizedRMSD>  (1) 
0.540656924

$$$$
