
     RDKit          3D

 18 19  0  0  0  0  0  0  0  0999 V2000
   40.6960   22.0680   37.5480 C   0  0  0  0  0  0  0  0  0  0  0  0
   39.6200   22.9690   37.5980 C   0  0  0  0  0  0  0  0  0  0  0  0
   39.2540   23.6390   36.4360 C   0  0  0  0  0  0  0  0  0  0  0  0
   39.9580   23.3890   35.2990 N   0  0  0  0  0  0  0  0  0  0  0  0
   40.9920   22.5140   35.2790 C   0  0  0  0  0  0  0  0  0  0  0  0
   41.3600   21.8610   36.3810 N   0  0  0  0  0  0  0  0  0  0  0  0
   37.8950   24.7880   36.4300 S   0  0  0  0  0  0  0  0  0  0  0  0
   38.3740   26.4990   36.3510 C   0  0  0  0  0  0  0  0  0  0  0  0
   37.7920   27.3990   35.2600 C   0  0  0  0  0  0  0  0  0  0  0  0
   39.2420   27.0790   35.3110 C   0  0  0  0  0  0  0  0  0  0  0  0
   41.0021   21.5283   38.4563 H   0  0  0  0  0  0  0  0  0  0  0  0
   39.0769   23.1415   38.5389 H   0  0  0  0  0  0  0  0  0  0  0  0
   41.5361   22.3398   34.3390 H   0  0  0  0  0  0  0  0  0  0  0  0
   38.4226   26.4830   37.4498 H   0  0  0  0  0  0  0  0  0  0  0  0
   37.4389   28.4112   35.5066 H   0  0  0  0  0  0  0  0  0  0  0  0
   36.9926   27.3092   34.5097 H   0  0  0  0  0  0  0  0  0  0  0  0
   39.6819   26.4255   34.5433 H   0  0  0  0  0  0  0  0  0  0  0  0
   40.1587   27.6867   35.3318 H   0  0  0  0  0  0  0  0  0  0  0  0
  1  2  2  0
  3  2  1  0
  4  3  2  0
  5  4  1  0
  5  6  2  0
  6  1  1  0
  7  3  1  0
  8  7  1  0
  9 10  1  0
  9  8  1  0
 10  8  1  0
  1 11  1  0
  2 12  1  0
  5 13  1  0
  8 14  1  0
  9 15  1  0
  9 16  1  0
 10 17  1  0
 10 18  1  0
M  ISO  8  11  14  12  14  13  14  14  13  15  13  16  13  17  13  18  13
M  END
>  <minimizedAffinity>  (1) 
-3.18552995

>  <minimizedRMSD>  (1) 
1.73148096

$$$$
