
     RDKit          3D

 27 29  0  0  0  0  0  0  0  0999 V2000
   36.7920   21.1730   33.0970 C   0  0  0  0  0  0  0  0  0  0  0  0
   35.7590   21.3340   32.2610 C   0  0  0  0  0  0  0  0  0  0  0  0
   35.7850   20.8730   30.9850 C   0  0  0  0  0  0  0  0  0  0  0  0
   36.9450   20.2260   30.5960 C   0  0  0  0  0  0  0  0  0  0  0  0
   38.0500   20.2700   32.1070 S   0  0  0  0  0  0  0  0  0  0  0  0
   37.2970   19.6400   29.3670 N   0  0  0  0  0  0  0  0  0  0  0  0
   38.4720   19.9390   28.8300 N   0  0  0  0  0  0  0  0  0  0  0  0
   38.5710   19.2600   27.6740 C   0  0  0  0  0  0  0  0  0  0  0  0
   37.3970   18.5240   27.5220 C   0  0  0  0  0  0  0  0  0  0  0  0
   36.5900   18.7830   28.6220 C   0  0  0  0  0  0  0  0  0  0  0  0
   37.0370   21.5180   34.3890 O   0  0  0  0  0  0  0  0  0  0  0  0
   37.8150   22.6260   34.7540 C   0  0  0  0  0  0  0  0  0  0  0  0
   38.1040   23.3290   33.7730 O   0  0  0  0  0  0  0  0  0  0  0  0
   39.9250   22.7130   37.6860 C   0  0  0  0  0  0  0  0  0  0  0  0
   39.1610   23.3210   38.6740 C   0  0  0  0  0  0  0  0  0  0  0  0
   37.8380   23.7260   38.3140 C   0  0  0  0  0  0  0  0  0  0  0  0
   37.4260   23.4920   37.0440 N   0  0  0  0  0  0  0  0  0  0  0  0
   38.2200   22.8950   36.1260 C   0  0  0  0  0  0  0  0  0  0  0  0
   39.4740   22.5040   36.4480 N   0  0  0  0  0  0  0  0  0  0  0  0
   34.8602   21.8568   32.6199 H   0  0  0  0  0  0  0  0  0  0  0  0
   34.9344   21.0057   30.3003 H   0  0  0  0  0  0  0  0  0  0  0  0
   39.4215   19.2813   26.9767 H   0  0  0  0  0  0  0  0  0  0  0  0
   37.1535   17.8576   26.6814 H   0  0  0  0  0  0  0  0  0  0  0  0
   35.5910   18.3741   28.8337 H   0  0  0  0  0  0  0  0  0  0  0  0
   40.9465   22.3898   37.9353 H   0  0  0  0  0  0  0  0  0  0  0  0
   39.5561   23.4835   39.6877 H   0  0  0  0  0  0  0  0  0  0  0  0
   37.1751   24.2123   39.0448 H   0  0  0  0  0  0  0  0  0  0  0  0
  1 11  1  0
  2  1  2  0
  3  2  1  0
  4  3  2  0
  4  5  1  0
  5  1  1  0
  6  4  1  0
  7  6  1  0
  8  7  2  0
  9  8  1  0
  9 10  2  0
 10  6  1  0
 11 12  1  0
 12 18  1  0
 13 12  2  0
 14 15  2  0
 16 15  1  0
 17 16  2  0
 18 19  2  0
 18 17  1  0
 19 14  1  0
  2 20  1  0
  3 21  1  0
  8 22  1  0
  9 23  1  0
 10 24  1  0
 14 25  1  0
 15 26  1  0
 16 27  1  0
M  ISO  8  20  14  21  14  22  14  23  14  24  14  25  14  26  14  27  14
M  END
>  <minimizedAffinity>  (1) 
-4.36242485

>  <minimizedRMSD>  (1) 
0.553647161

$$$$
