
     RDKit          3D

 25 27  0  0  0  0  0  0  0  0999 V2000
   36.7600   21.1730   33.1280 C   0  0  0  0  0  0  0  0  0  0  0  0
   35.7180   21.3580   32.3110 C   0  0  0  0  0  0  0  0  0  0  0  0
   35.7080   20.8860   31.0330 C   0  0  0  0  0  0  0  0  0  0  0  0
   36.8420   20.2020   30.6340 C   0  0  0  0  0  0  0  0  0  0  0  0
   37.9800   20.2260   32.1330 S   0  0  0  0  0  0  0  0  0  0  0  0
   37.1750   19.5770   29.3840 C   0  0  0  0  0  0  0  0  0  0  0  0
   38.3350   19.7570   28.7320 N   0  0  0  0  0  0  0  0  0  0  0  0
   38.3400   19.0670   27.6430 O   0  0  0  0  0  0  0  0  0  0  0  0
   37.2010   18.4040   27.5150 C   0  0  0  0  0  0  0  0  0  0  0  0
   36.4660   18.7290   28.6190 N   0  0  0  0  0  0  0  0  0  0  0  0
   37.0170   21.5320   34.4100 O   0  0  0  0  0  0  0  0  0  0  0  0
   37.8160   22.6100   34.7810 C   0  0  0  0  0  0  0  0  0  0  0  0
   38.1290   23.2970   33.7840 O   0  0  0  0  0  0  0  0  0  0  0  0
   39.9250   22.7230   37.7120 C   0  0  0  0  0  0  0  0  0  0  0  0
   39.1480   23.3320   38.7010 C   0  0  0  0  0  0  0  0  0  0  0  0
   37.8340   23.7200   38.3280 C   0  0  0  0  0  0  0  0  0  0  0  0
   37.4350   23.4730   37.0580 N   0  0  0  0  0  0  0  0  0  0  0  0
   38.2200   22.8840   36.1470 C   0  0  0  0  0  0  0  0  0  0  0  0
   39.4630   22.5090   36.4720 N   0  0  0  0  0  0  0  0  0  0  0  0
   34.8411   21.9086   32.6824 H   0  0  0  0  0  0  0  0  0  0  0  0
   34.8513   21.0394   30.3603 H   0  0  0  0  0  0  0  0  0  0  0  0
   36.9088   17.7335   26.6934 H   0  0  0  0  0  0  0  0  0  0  0  0
   40.9498   22.4088   37.9592 H   0  0  0  0  0  0  0  0  0  0  0  0
   39.5346   23.5021   39.7167 H   0  0  0  0  0  0  0  0  0  0  0  0
   37.1606   24.2065   39.0490 H   0  0  0  0  0  0  0  0  0  0  0  0
  1 11  1  0
  2  1  2  0
  3  2  1  0
  4  3  2  0
  4  5  1  0
  5  1  1  0
  6  4  1  0
  7  6  2  0
  8  7  1  0
  9  8  1  0
  9 10  2  0
 10  6  1  0
 11 12  1  0
 12 18  1  0
 13 12  2  0
 14 15  2  0
 16 15  1  0
 17 16  2  0
 18 19  2  0
 18 17  1  0
 19 14  1  0
  2 20  1  0
  3 21  1  0
  9 22  1  0
 14 23  1  0
 15 24  1  0
 16 25  1  0
M  ISO  6  20  14  21  14  22  14  23  14  24  14  25  14
M  END
>  <minimizedAffinity>  (1) 
-4.32464218

>  <minimizedRMSD>  (1) 
0.533436894

$$$$
