
     RDKit          3D

 29 30  0  0  0  0  0  0  0  0999 V2000
   37.8580   22.5490   34.7670 C   0  0  0  0  0  0  0  0  0  0  0  0
   38.2720   23.1500   33.7590 O   0  0  0  0  0  0  0  0  0  0  0  0
   39.9490   22.7230   37.7140 C   0  0  0  0  0  0  0  0  0  0  0  0
   39.1520   23.3450   38.6850 C   0  0  0  0  0  0  0  0  0  0  0  0
   37.8280   23.7190   38.2920 C   0  0  0  0  0  0  0  0  0  0  0  0
   37.4390   23.4490   37.0210 N   0  0  0  0  0  0  0  0  0  0  0  0
   38.2530   22.8450   36.1280 C   0  0  0  0  0  0  0  0  0  0  0  0
   39.5090   22.4790   36.4660 N   0  0  0  0  0  0  0  0  0  0  0  0
   36.9570   21.5420   34.4240 O   0  0  0  0  0  0  0  0  0  0  0  0
   36.6640   21.1910   33.1490 C   0  0  0  0  0  0  0  0  0  0  0  0
   35.6690   21.5190   32.3190 C   0  0  0  0  0  0  0  0  0  0  0  0
   35.5860   21.0220   31.0470 C   0  0  0  0  0  0  0  0  0  0  0  0
   36.5990   20.1570   30.6710 C   0  0  0  0  0  0  0  0  0  0  0  0
   37.7070   20.0420   32.1640 S   0  0  0  0  0  0  0  0  0  0  0  0
   36.9250   19.4100   29.4710 C   0  0  0  0  0  0  0  0  0  0  0  0
   38.2790   19.7790   28.9180 C   0  0  0  0  0  0  0  0  0  0  0  0
   36.8020   17.9240   29.7800 C   0  0  0  0  0  0  0  0  0  0  0  0
   40.9727   22.4231   37.9824 H   0  0  0  0  0  0  0  0  0  0  0  0
   39.5268   23.5366   39.7013 H   0  0  0  0  0  0  0  0  0  0  0  0
   37.1453   24.2113   39.0002 H   0  0  0  0  0  0  0  0  0  0  0  0
   34.8905   22.2120   32.6705 H   0  0  0  0  0  0  0  0  0  0  0  0
   34.7658   21.2928   30.3659 H   0  0  0  0  0  0  0  0  0  0  0  0
   36.2133   19.6699   28.6735 H   0  0  0  0  0  0  0  0  0  0  0  0
   38.9750   19.9687   29.7485 H   0  0  0  0  0  0  0  0  0  0  0  0
   38.6609   18.9522   28.3011 H   0  0  0  0  0  0  0  0  0  0  0  0
   38.1886   20.6853   28.3011 H   0  0  0  0  0  0  0  0  0  0  0  0
   36.7897   17.7759   30.8699 H   0  0  0  0  0  0  0  0  0  0  0  0
   35.8686   17.5354   29.3466 H   0  0  0  0  0  0  0  0  0  0  0  0
   37.6588   17.3872   29.3466 H   0  0  0  0  0  0  0  0  0  0  0  0
  1  7  1  0
  2  1  2  0
  3  4  2  0
  5  4  1  0
  6  5  2  0
  7  8  2  0
  7  6  1  0
  8  3  1  0
  9  1  1  0
 10  9  1  0
 11 10  2  0
 12 11  1  0
 13 12  2  0
 13 14  1  0
 14 10  1  0
 15 17  1  0
 15 13  1  0
 16 15  1  0
  3 18  1  0
  4 19  1  0
  5 20  1  0
 11 21  1  0
 12 22  1  0
 15 23  1  0
 16 24  1  0
 16 25  1  0
 16 26  1  0
 17 27  1  0
 17 28  1  0
 17 29  1  0
M  ISO  8  18  14  19  14  20  14  21  14  22  14  23   8  24   8  25   8
M  ISO  4  26   8  27   8  28   8  29   8
M  END
>  <minimizedAffinity>  (1) 
-4.24287844

>  <minimizedRMSD>  (1) 
0.386880726

$$$$
