
     RDKit          3D

 33 35  0  0  0  0  0  0  0  0999 V2000
   36.8550   21.1650   33.0610 C   0  0  0  0  0  0  0  0  0  0  0  0
   35.8100   21.2800   32.2160 C   0  0  0  0  0  0  0  0  0  0  0  0
   35.9130   20.7860   30.9500 C   0  0  0  0  0  0  0  0  0  0  0  0
   37.1120   20.1720   30.5730 C   0  0  0  0  0  0  0  0  0  0  0  0
   38.1660   20.3000   32.1040 S   0  0  0  0  0  0  0  0  0  0  0  0
   37.3780   19.6110   29.3260 N   0  0  0  0  0  0  0  0  0  0  0  0
   38.6710   19.9180   28.7010 C   0  0  0  0  0  0  0  0  0  0  0  0
   39.5150   18.6730   29.0180 C   0  0  0  0  0  0  0  0  0  0  0  0
   38.6780   17.5590   29.0200 O   0  0  0  0  0  0  0  0  0  0  0  0
   37.6490   17.6300   28.0840 C   0  0  0  0  0  0  0  0  0  0  0  0
   36.6130   18.7070   28.4460 C   0  0  0  0  0  0  0  0  0  0  0  0
   37.0410   21.5500   34.3470 O   0  0  0  0  0  0  0  0  0  0  0  0
   37.8060   22.6480   34.7310 C   0  0  0  0  0  0  0  0  0  0  0  0
   38.0900   23.3780   33.7560 O   0  0  0  0  0  0  0  0  0  0  0  0
   39.9230   22.7060   37.6660 C   0  0  0  0  0  0  0  0  0  0  0  0
   39.1520   23.3020   38.6540 C   0  0  0  0  0  0  0  0  0  0  0  0
   37.8430   23.7030   38.2940 C   0  0  0  0  0  0  0  0  0  0  0  0
   37.4230   23.4840   37.0230 N   0  0  0  0  0  0  0  0  0  0  0  0
   38.2160   22.9000   36.1040 C   0  0  0  0  0  0  0  0  0  0  0  0
   39.4680   22.5130   36.4360 N   0  0  0  0  0  0  0  0  0  0  0  0
   34.8816   21.7689   32.5462 H   0  0  0  0  0  0  0  0  0  0  0  0
   35.0746   20.8680   30.2426 H   0  0  0  0  0  0  0  0  0  0  0  0
   39.1183   20.8211   29.1418 H   0  0  0  0  0  0  0  0  0  0  0  0
   38.5925   20.1246   27.6234 H   0  0  0  0  0  0  0  0  0  0  0  0
   40.2953   18.5492   28.2526 H   0  0  0  0  0  0  0  0  0  0  0  0
   39.9957   18.7844   30.0011 H   0  0  0  0  0  0  0  0  0  0  0  0
   37.1443   16.6537   28.0366 H   0  0  0  0  0  0  0  0  0  0  0  0
   38.0914   17.8974   27.1130 H   0  0  0  0  0  0  0  0  0  0  0  0
   36.2585   19.2340   27.5479 H   0  0  0  0  0  0  0  0  0  0  0  0
   35.7077   18.2997   28.9199 H   0  0  0  0  0  0  0  0  0  0  0  0
   40.9454   22.3831   37.9116 H   0  0  0  0  0  0  0  0  0  0  0  0
   39.5407   23.4559   39.6715 H   0  0  0  0  0  0  0  0  0  0  0  0
   37.1803   24.1822   39.0296 H   0  0  0  0  0  0  0  0  0  0  0  0
  1 12  1  0
  2  1  2  0
  3  2  1  0
  4  3  2  0
  4  5  1  0
  5  1  1  0
  6  4  1  0
  7  8  1  0
  7  6  1  0
  8  9  1  0
 10 11  1  0
 10  9  1  0
 11  6  1  0
 12 13  1  0
 13 19  1  0
 14 13  2  0
 15 16  2  0
 17 16  1  0
 18 17  2  0
 19 20  2  0
 19 18  1  0
 20 15  1  0
  2 21  1  0
  3 22  1  0
  7 23  1  0
  7 24  1  0
  8 25  1  0
  8 26  1  0
 10 27  1  0
 10 28  1  0
 11 29  1  0
 11 30  1  0
 15 31  1  0
 16 32  1  0
 17 33  1  0
M  ISO  8  21  14  22  14  23  13  24  13  25  13  26  13  27  13  28  13
M  ISO  5  29  13  30  13  31  14  32  14  33  14
M  END
>  <minimizedAffinity>  (1) 
-4.25925159

>  <minimizedRMSD>  (1) 
0.813277543

$$$$
