
     RDKit          3D

 20 20  0  0  0  0  0  0  0  0999 V2000
   40.8020   21.9720   37.5870 C   0  0  0  0  0  0  0  0  0  0  0  0
   39.7580   22.9130   37.6210 C   0  0  0  0  0  0  0  0  0  0  0  0
   39.2880   23.4510   36.4230 C   0  0  0  0  0  0  0  0  0  0  0  0
   39.8750   23.0250   35.2840 N   0  0  0  0  0  0  0  0  0  0  0  0
   40.8740   22.1240   35.2570 C   0  0  0  0  0  0  0  0  0  0  0  0
   41.3350   21.6010   36.4090 N   0  0  0  0  0  0  0  0  0  0  0  0
   37.9670   24.6450   36.4190 S   0  0  0  0  0  0  0  0  0  0  0  0
   38.4730   25.9590   35.2630 C   0  0  0  0  0  0  0  0  0  0  0  0
   38.5780   27.3030   35.9730 C   0  0  0  0  0  0  0  0  0  0  0  0
   37.4410   25.9920   34.1650 C   0  0  0  0  0  0  0  0  0  0  0  0
   41.1830   21.5391   38.5237 H   0  0  0  0  0  0  0  0  0  0  0  0
   39.3172   23.2212   38.5806 H   0  0  0  0  0  0  0  0  0  0  0  0
   41.3128   21.8156   34.2966 H   0  0  0  0  0  0  0  0  0  0  0  0
   39.4709   25.7549   34.8475 H   0  0  0  0  0  0  0  0  0  0  0  0
   38.5656   27.1446   37.0615 H   0  0  0  0  0  0  0  0  0  0  0  0
   39.5175   27.7974   35.6851 H   0  0  0  0  0  0  0  0  0  0  0  0
   37.7267   27.9373   35.6851 H   0  0  0  0  0  0  0  0  0  0  0  0
   36.4348   26.0242   34.6084 H   0  0  0  0  0  0  0  0  0  0  0  0
   37.5962   26.8856   33.5427 H   0  0  0  0  0  0  0  0  0  0  0  0
   37.5388   25.0903   33.5427 H   0  0  0  0  0  0  0  0  0  0  0  0
  1  2  2  0
  3  2  1  0
  4  3  2  0
  5  4  1  0
  5  6  2  0
  6  1  1  0
  7  3  1  0
  8  9  1  0
  8  7  1  0
 10  8  1  0
  1 11  1  0
  2 12  1  0
  5 13  1  0
  8 14  1  0
  9 15  1  0
  9 16  1  0
  9 17  1  0
 10 18  1  0
 10 19  1  0
 10 20  1  0
M  ISO  8  11  14  12  14  13  14  14   8  15   8  16   8  17   8  18   8
M  ISO  2  19   8  20   8
M  END
>  <minimizedAffinity>  (1) 
-3.01505232

>  <minimizedRMSD>  (1) 
2.21548629

$$$$
