
     RDKit          3D

 22 23  0  0  0  0  0  0  0  0999 V2000
   37.8820   22.5160   34.7300 C   0  0  0  0  0  0  0  0  0  0  0  0
   38.3300   23.0630   33.7080 O   0  0  0  0  0  0  0  0  0  0  0  0
   39.9090   22.7210   37.7130 C   0  0  0  0  0  0  0  0  0  0  0  0
   39.1410   23.4170   38.6370 C   0  0  0  0  0  0  0  0  0  0  0  0
   37.8490   23.8400   38.2070 C   0  0  0  0  0  0  0  0  0  0  0  0
   37.4630   23.5390   36.9400 N   0  0  0  0  0  0  0  0  0  0  0  0
   38.2470   22.8640   36.0900 C   0  0  0  0  0  0  0  0  0  0  0  0
   39.4790   22.4530   36.4840 N   0  0  0  0  0  0  0  0  0  0  0  0
   36.9560   21.4960   34.4210 O   0  0  0  0  0  0  0  0  0  0  0  0
   36.5760   21.2070   33.1480 C   0  0  0  0  0  0  0  0  0  0  0  0
   35.6040   21.6140   32.3210 C   0  0  0  0  0  0  0  0  0  0  0  0
   35.4870   21.1200   31.0650 C   0  0  0  0  0  0  0  0  0  0  0  0
   36.4190   20.1750   30.6780 C   0  0  0  0  0  0  0  0  0  0  0  0
   37.5330   19.9650   32.1700 S   0  0  0  0  0  0  0  0  0  0  0  0
   36.5760   19.4810   29.4750 N   0  0  0  0  0  0  0  0  0  0  0  0
   40.9114   22.3783   38.0093 H   0  0  0  0  0  0  0  0  0  0  0  0
   39.5110   23.6314   39.6505 H   0  0  0  0  0  0  0  0  0  0  0  0
   37.1826   24.3953   38.8834 H   0  0  0  0  0  0  0  0  0  0  0  0
   34.8831   22.3679   32.6703 H   0  0  0  0  0  0  0  0  0  0  0  0
   34.6890   21.4546   30.3859 H   0  0  0  0  0  0  0  0  0  0  0  0
   37.3435   18.8024   29.3683 H   0  0  0  0  0  0  0  0  0  0  0  0
   35.9242   19.6481   28.6952 H   0  0  0  0  0  0  0  0  0  0  0  0
  1  7  1  0
  2  1  2  0
  3  4  2  0
  5  4  1  0
  6  5  2  0
  7  8  2  0
  7  6  1  0
  8  3  1  0
  9  1  1  0
 10  9  1  0
 11 10  2  0
 12 11  1  0
 13 12  2  0
 13 14  1  0
 14 10  1  0
 15 13  1  0
  3 16  1  0
  4 17  1  0
  5 18  1  0
 11 19  1  0
 12 20  1  0
 15 21  1  0
 15 22  1  0
M  ISO  5  16  14  17  14  18  14  19  14  20  14
M  END
>  <minimizedAffinity>  (1) 
-4.11406374

>  <minimizedRMSD>  (1) 
0.15408586

$$$$
