
     RDKit          3D

 39 43  0  0  0  0  0  0  0  0999 V2000
   37.5890   21.8410   31.0570 C   0  0  0  0  0  0  0  0  0  0  0  0
   36.4050   21.3030   31.3350 C   0  0  0  0  0  0  0  0  0  0  0  0
   36.0040   20.1200   30.8040 C   0  0  0  0  0  0  0  0  0  0  0  0
   36.8990   19.5130   29.9620 C   0  0  0  0  0  0  0  0  0  0  0  0
   38.3660   20.6570   29.9160 S   0  0  0  0  0  0  0  0  0  0  0  0
   36.7710   18.2220   29.2220 C   0  0  0  0  0  0  0  0  0  0  0  0
   36.9720   16.9880   29.7960 C   0  0  0  0  0  0  0  0  0  0  0  0
   36.7530   16.1450   28.7760 N   0  0  0  0  0  0  0  0  0  0  0  0
   36.4360   16.7870   27.6270 C   0  0  0  0  0  0  0  0  0  0  0  0
   36.1440   16.2440   26.3710 C   0  0  0  0  0  0  0  0  0  0  0  0
   35.8500   17.1270   25.3590 C   0  0  0  0  0  0  0  0  0  0  0  0
   35.8520   18.4780   25.6140 C   0  0  0  0  0  0  0  0  0  0  0  0
   36.1460   18.9720   26.8700 C   0  0  0  0  0  0  0  0  0  0  0  0
   36.4460   18.1370   27.9090 C   0  0  0  0  0  0  0  0  0  0  0  0
   38.2220   22.9870   31.4440 O   0  0  0  0  0  0  0  0  0  0  0  0
   37.5820   24.1780   31.7300 C   0  0  0  0  0  0  0  0  0  0  0  0
   37.0000   24.6190   30.7450 O   0  0  0  0  0  0  0  0  0  0  0  0
   37.1490   26.7170   34.2730 C   0  0  0  0  0  0  0  0  0  0  0  0
   37.6130   26.1240   35.4630 C   0  0  0  0  0  0  0  0  0  0  0  0
   38.0950   24.7880   35.3650 C   0  0  0  0  0  0  0  0  0  0  0  0
   38.0780   24.1700   34.1500 N   0  0  0  0  0  0  0  0  0  0  0  0
   37.6170   24.7980   33.0440 C   0  0  0  0  0  0  0  0  0  0  0  0
   37.1490   26.0810   33.1090 N   0  0  0  0  0  0  0  0  0  0  0  0
   38.6010   24.0770   36.5400 C   0  0  0  0  0  0  0  0  0  0  0  0
   39.6530   23.2660   36.7650 N   0  0  0  0  0  0  0  0  0  0  0  0
   39.6570   22.8890   38.0090 O   0  0  0  0  0  0  0  0  0  0  0  0
   38.6220   23.4320   38.6340 C   0  0  0  0  0  0  0  0  0  0  0  0
   37.9390   24.1870   37.7270 N   0  0  0  0  0  0  0  0  0  0  0  0
   35.7273   21.8351   32.0188 H   0  0  0  0  0  0  0  0  0  0  0  0
   35.0239   19.6770   31.0346 H   0  0  0  0  0  0  0  0  0  0  0  0
   37.2449   16.7512   30.8349 H   0  0  0  0  0  0  0  0  0  0  0  0
   36.8189   15.1204   28.8580 H   0  0  0  0  0  0  0  0  0  0  0  0
   36.1494   15.1573   26.2005 H   0  0  0  0  0  0  0  0  0  0  0  0
   35.6145   16.7547   24.3511 H   0  0  0  0  0  0  0  0  0  0  0  0
   35.6146   19.1800   24.8011 H   0  0  0  0  0  0  0  0  0  0  0  0
   36.1384   20.0592   27.0370 H   0  0  0  0  0  0  0  0  0  0  0  0
   36.7713   27.7494   34.3103 H   0  0  0  0  0  0  0  0  0  0  0  0
   37.6035   26.6659   36.4202 H   0  0  0  0  0  0  0  0  0  0  0  0
   38.3609   23.2977   39.6941 H   0  0  0  0  0  0  0  0  0  0  0  0
  1  2  2  0
  1 15  1  0
  3  2  1  0
  4  3  2  0
  5  4  1  0
  5  1  1  0
  6  7  2  0
  6  4  1  0
  8  7  1  0
  9 14  2  0
  9  8  1  0
 10  9  1  0
 11 12  1  0
 11 10  2  0
 12 13  2  0
 13 14  1  0
 14  6  1  0
 15 16  1  0
 16 22  1  0
 17 16  2  0
 18 19  2  0
 20 19  1  0
 20 24  1  0
 21 20  2  0
 22 23  2  0
 22 21  1  0
 23 18  1  0
 24 25  2  0
 24 28  1  0
 25 26  1  0
 26 27  1  0
 28 27  2  0
  2 29  1  0
  3 30  1  0
  7 31  1  0
  8 32  1  0
 10 33  1  0
 11 34  1  0
 12 35  1  0
 13 36  1  0
 18 37  1  0
 19 38  1  0
 27 39  1  0
M  ISO  8  29  14  30  14  31  14  32   9  33  14  34  14  35  14  36  14
M  ISO  3  37  14  38  14  39  14
M  END
>  <minimizedAffinity>  (1) 
-5.57616711

>  <minimizedRMSD>  (1) 
3.64123964

$$$$
