
     RDKit          3D

 41 45  0  0  0  0  0  0  0  0999 V2000
   36.3660   22.7200   32.0930 C   0  0  0  0  0  0  0  0  0  0  0  0
   35.2510   22.0240   32.2870 C   0  0  0  0  0  0  0  0  0  0  0  0
   35.1550   20.6980   32.0010 C   0  0  0  0  0  0  0  0  0  0  0  0
   36.3000   20.1250   31.4930 C   0  0  0  0  0  0  0  0  0  0  0  0
   37.5410   21.5020   31.4220 S   0  0  0  0  0  0  0  0  0  0  0  0
   36.5290   18.7130   31.0760 C   0  0  0  0  0  0  0  0  0  0  0  0
   36.6480   17.6640   31.9570 C   0  0  0  0  0  0  0  0  0  0  0  0
   36.8420   16.6100   31.1380 N   0  0  0  0  0  0  0  0  0  0  0  0
   36.8470   16.9550   29.8380 C   0  0  0  0  0  0  0  0  0  0  0  0
   37.0180   16.1340   28.7150 C   0  0  0  0  0  0  0  0  0  0  0  0
   36.9790   16.7540   27.4790 C   0  0  0  0  0  0  0  0  0  0  0  0
   36.7790   18.1200   27.3880 C   0  0  0  0  0  0  0  0  0  0  0  0
   36.6160   18.8760   28.5360 C   0  0  0  0  0  0  0  0  0  0  0  0
   36.6440   18.3230   29.7780 C   0  0  0  0  0  0  0  0  0  0  0  0
   36.7120   24.0250   32.2960 O   0  0  0  0  0  0  0  0  0  0  0  0
   37.9950   24.4600   32.5710 C   0  0  0  0  0  0  0  0  0  0  0  0
   38.4290   25.1640   31.6660 O   0  0  0  0  0  0  0  0  0  0  0  0
   40.7890   23.7210   34.7460 C   0  0  0  0  0  0  0  0  0  0  0  0
   40.2040   23.4550   36.0040 C   0  0  0  0  0  0  0  0  0  0  0  0
   38.7840   23.5400   36.0880 C   0  0  0  0  0  0  0  0  0  0  0  0
   38.0890   23.8650   34.9680 N   0  0  0  0  0  0  0  0  0  0  0  0
   38.7070   24.1100   33.7850 C   0  0  0  0  0  0  0  0  0  0  0  0
   40.0680   24.0360   33.6800 N   0  0  0  0  0  0  0  0  0  0  0  0
   38.0560   23.2820   37.3590 C   0  0  0  0  0  0  0  0  0  0  0  0
   37.9070   24.4930   38.3150 C   0  0  0  0  0  0  0  0  0  0  0  0
   38.7360   23.3280   38.6670 C   0  0  0  0  0  0  0  0  0  0  0  0
   34.3702   22.5411   32.6953 H   0  0  0  0  0  0  0  0  0  0  0  0
   34.2303   20.1247   32.1635 H   0  0  0  0  0  0  0  0  0  0  0  0
   36.5976   17.6803   33.0557 H   0  0  0  0  0  0  0  0  0  0  0  0
   36.9723   15.6445   31.4723 H   0  0  0  0  0  0  0  0  0  0  0  0
   37.1755   15.0496   28.8117 H   0  0  0  0  0  0  0  0  0  0  0  0
   37.1077   16.1578   26.5636 H   0  0  0  0  0  0  0  0  0  0  0  0
   36.7495   18.6061   26.4017 H   0  0  0  0  0  0  0  0  0  0  0  0
   36.4585   19.9605   28.4404 H   0  0  0  0  0  0  0  0  0  0  0  0
   41.8832   23.6645   34.6479 H   0  0  0  0  0  0  0  0  0  0  0  0
   40.8170   23.1940   36.8793 H   0  0  0  0  0  0  0  0  0  0  0  0
   37.4110   22.5377   36.8691 H   0  0  0  0  0  0  0  0  0  0  0  0
   38.3792   25.4554   38.0685 H   0  0  0  0  0  0  0  0  0  0  0  0
   37.0674   25.0311   38.7792 H   0  0  0  0  0  0  0  0  0  0  0  0
   38.4064   22.6537   39.4712 H   0  0  0  0  0  0  0  0  0  0  0  0
   39.7842   23.2116   38.9797 H   0  0  0  0  0  0  0  0  0  0  0  0
  1  2  2  0
  1 15  1  0
  3  2  1  0
  4  3  2  0
  5  4  1  0
  5  1  1  0
  6  4  1  0
  6  7  2  0
  8  7  1  0
  9  8  1  0
 10  9  2  0
 11 10  1  0
 12 11  2  0
 12 13  1  0
 13 14  2  0
 14  9  1  0
 14  6  1  0
 15 16  1  0
 16 22  1  0
 17 16  2  0
 18 19  2  0
 19 20  1  0
 20 24  1  0
 21 20  2  0
 22 21  1  0
 23 22  2  0
 23 18  1  0
 24 25  1  0
 24 26  1  0
 25 26  1  0
  2 27  1  0
  3 28  1  0
  7 29  1  0
  8 30  1  0
 10 31  1  0
 11 32  1  0
 12 33  1  0
 13 34  1  0
 18 35  1  0
 19 36  1  0
 24 37  1  0
 25 38  1  0
 25 39  1  0
 26 40  1  0
 26 41  1  0
M  ISO  8  27  14  28  14  29  14  30   9  31  14  32  14  33  14  34  14
M  ISO  7  35  14  36  14  37  13  38  13  39  13  40  13  41  13
M  END
>  <minimizedAffinity>  (1) 
-5.30716753

>  <minimizedRMSD>  (1) 
2.93977308

$$$$
