
     RDKit          3D

 40 43  0  0  0  0  0  0  0  0999 V2000
   36.8150   20.9620   32.7350 C   0  0  0  0  0  0  0  0  0  0  0  0
   35.7460   20.9320   31.9470 C   0  0  0  0  0  0  0  0  0  0  0  0
   35.7680   20.3750   30.7070 C   0  0  0  0  0  0  0  0  0  0  0  0
   36.9860   19.8410   30.3280 C   0  0  0  0  0  0  0  0  0  0  0  0
   38.1200   20.1410   31.7680 S   0  0  0  0  0  0  0  0  0  0  0  0
   37.3470   19.1680   29.0470 C   0  0  0  0  0  0  0  0  0  0  0  0
   36.7220   18.0450   28.5640 C   0  0  0  0  0  0  0  0  0  0  0  0
   37.3660   17.8110   27.4130 N   0  0  0  0  0  0  0  0  0  0  0  0
   38.3360   18.7130   27.1660 C   0  0  0  0  0  0  0  0  0  0  0  0
   39.1930   18.7710   26.0710 C   0  0  0  0  0  0  0  0  0  0  0  0
   40.1130   19.8190   26.0670 C   0  0  0  0  0  0  0  0  0  0  0  0
   40.1440   20.7360   27.1100 C   0  0  0  0  0  0  0  0  0  0  0  0
   39.2530   20.6070   28.1650 C   0  0  0  0  0  0  0  0  0  0  0  0
   38.3340   19.6000   28.2190 C   0  0  0  0  0  0  0  0  0  0  0  0
   37.0530   21.4470   33.9890 O   0  0  0  0  0  0  0  0  0  0  0  0
   37.8970   22.5030   34.2770 C   0  0  0  0  0  0  0  0  0  0  0  0
   37.8290   23.3700   33.4110 O   0  0  0  0  0  0  0  0  0  0  0  0
   40.8210   22.0090   36.3410 C   0  0  0  0  0  0  0  0  0  0  0  0
   40.4800   22.5460   37.6000 C   0  0  0  0  0  0  0  0  0  0  0  0
   39.1750   23.0960   37.7070 C   0  0  0  0  0  0  0  0  0  0  0  0
   38.3620   23.0740   36.6340 N   0  0  0  0  0  0  0  0  0  0  0  0
   38.7390   22.5470   35.4550 C   0  0  0  0  0  0  0  0  0  0  0  0
   39.9880   22.0090   35.3130 N   0  0  0  0  0  0  0  0  0  0  0  0
   38.8190   23.6560   39.0180 C   0  0  0  0  0  0  0  0  0  0  0  0
   37.8730   24.8290   38.8840 C   0  0  0  0  0  0  0  0  0  0  0  0
   34.8073   21.3746   32.3116 H   0  0  0  0  0  0  0  0  0  0  0  0
   34.8831   20.3509   30.0540 H   0  0  0  0  0  0  0  0  0  0  0  0
   35.8943   17.4762   29.0128 H   0  0  0  0  0  0  0  0  0  0  0  0
   37.1436   17.0260   26.7844 H   0  0  0  0  0  0  0  0  0  0  0  0
   39.1473   18.0333   25.2563 H   0  0  0  0  0  0  0  0  0  0  0  0
   40.8203   19.9204   25.2307 H   0  0  0  0  0  0  0  0  0  0  0  0
   40.8719   21.5607   27.0992 H   0  0  0  0  0  0  0  0  0  0  0  0
   39.2884   21.3400   28.9844 H   0  0  0  0  0  0  0  0  0  0  0  0
   41.8216   21.5718   36.2082 H   0  0  0  0  0  0  0  0  0  0  0  0
   41.1818   22.5392   38.4470 H   0  0  0  0  0  0  0  0  0  0  0  0
   38.3346   22.8737   39.6208 H   0  0  0  0  0  0  0  0  0  0  0  0
   39.7407   24.0108   39.5025 H   0  0  0  0  0  0  0  0  0  0  0  0
   37.5861   25.1848   39.8845 H   0  0  0  0  0  0  0  0  0  0  0  0
   38.3717   25.6414   38.3350 H   0  0  0  0  0  0  0  0  0  0  0  0
   36.9734   24.5137   38.3350 H   0  0  0  0  0  0  0  0  0  0  0  0
  1 15  1  0
  2  1  2  0
  3  2  1  0
  4  3  2  0
  4  5  1  0
  5  1  1  0
  6  4  1  0
  7  6  2  0
  8  7  1  0
  9  8  1  0
  9 14  2  0
 10  9  1  0
 11 10  2  0
 11 12  1  0
 12 13  2  0
 13 14  1  0
 14  6  1  0
 15 16  1  0
 16 22  1  0
 17 16  2  0
 18 19  2  0
 19 20  1  0
 20 24  1  0
 21 20  2  0
 22 21  1  0
 23 22  2  0
 23 18  1  0
 25 24  1  0
  2 26  1  0
  3 27  1  0
  7 28  1  0
  8 29  1  0
 10 30  1  0
 11 31  1  0
 12 32  1  0
 13 33  1  0
 18 34  1  0
 19 35  1  0
 24 36  1  0
 24 37  1  0
 25 38  1  0
 25 39  1  0
 25 40  1  0
M  ISO  8  26  14  27  14  28  14  29   9  30  14  31  14  32  14  33  14
M  ISO  7  34  14  35  14  36   8  37   8  38   8  39   8  40   8
M  END
>  <minimizedAffinity>  (1) 
-4.64720917

>  <minimizedRMSD>  (1) 
0.949410558

$$$$
