
     RDKit          3D

 50 54  0  0  0  0  0  0  0  0999 V2000
   36.9730   21.7500   35.0840 C   0  0  0  0  0  0  0  0  0  0  0  0
   35.8800   21.0170   34.9210 C   0  0  0  0  0  0  0  0  0  0  0  0
   35.6880   20.3330   33.7600 C   0  0  0  0  0  0  0  0  0  0  0  0
   36.6610   20.4460   32.8100 C   0  0  0  0  0  0  0  0  0  0  0  0
   37.9320   21.5720   33.5590 S   0  0  0  0  0  0  0  0  0  0  0  0
   36.7450   19.8250   31.4450 C   0  0  0  0  0  0  0  0  0  0  0  0
   35.8390   18.8660   31.0020 C   0  0  0  0  0  0  0  0  0  0  0  0
   36.2780   18.5980   29.7640 N   0  0  0  0  0  0  0  0  0  0  0  0
   37.3570   19.3140   29.4470 C   0  0  0  0  0  0  0  0  0  0  0  0
   38.1080   19.3170   28.2470 C   0  0  0  0  0  0  0  0  0  0  0  0
   39.1970   20.1660   28.1740 C   0  0  0  0  0  0  0  0  0  0  0  0
   39.5160   20.9660   29.2460 C   0  0  0  0  0  0  0  0  0  0  0  0
   38.7590   20.9360   30.4060 C   0  0  0  0  0  0  0  0  0  0  0  0
   37.6760   20.1190   30.5280 C   0  0  0  0  0  0  0  0  0  0  0  0
   37.4490   22.5360   36.1060 O   0  0  0  0  0  0  0  0  0  0  0  0
   38.4430   23.4810   35.9900 C   0  0  0  0  0  0  0  0  0  0  0  0
   39.5460   22.9940   36.2240 O   0  0  0  0  0  0  0  0  0  0  0  0
   38.3520   27.0700   36.3400 C   0  0  0  0  0  0  0  0  0  0  0  0
   37.7750   27.5440   35.1450 C   0  0  0  0  0  0  0  0  0  0  0  0
   37.4130   26.5580   34.1950 C   0  0  0  0  0  0  0  0  0  0  0  0
   37.6280   25.2490   34.4680 N   0  0  0  0  0  0  0  0  0  0  0  0
   38.1850   24.8660   35.6350 C   0  0  0  0  0  0  0  0  0  0  0  0
   38.5490   25.7840   36.5770 N   0  0  0  0  0  0  0  0  0  0  0  0
   36.8150   26.9810   32.9360 C   0  0  0  0  0  0  0  0  0  0  0  0
   36.4060   28.1620   32.7910 O   0  0  0  0  0  0  0  0  0  0  0  0
   36.6180   26.1790   31.7760 N   0  0  0  0  0  0  0  0  0  0  0  0
   37.8210   25.6250   31.1950 C   0  0  0  0  0  0  0  0  0  0  0  0
   37.5750   24.3030   30.5200 C   0  0  0  0  0  0  0  0  0  0  0  0
   36.4060   23.6210   30.9230 N   0  0  0  0  0  0  0  0  0  0  0  0
   35.2000   24.3570   31.0150 C   0  0  0  0  0  0  0  0  0  0  0  0
   35.3760   25.8480   31.1030 C   0  0  0  0  0  0  0  0  0  0  0  0
   35.1293   20.9618   35.7232 H   0  0  0  0  0  0  0  0  0  0  0  0
   34.7909   19.7182   33.5953 H   0  0  0  0  0  0  0  0  0  0  0  0
   34.9781   18.4356   31.5345 H   0  0  0  0  0  0  0  0  0  0  0  0
   35.8333   17.9178   29.1312 H   0  0  0  0  0  0  0  0  0  0  0  0
   37.8349   18.6670   27.4026 H   0  0  0  0  0  0  0  0  0  0  0  0
   39.8074   20.2014   27.2596 H   0  0  0  0  0  0  0  0  0  0  0  0
   40.3839   21.6388   29.1817 H   0  0  0  0  0  0  0  0  0  0  0  0
   39.0389   21.5867   31.2475 H   0  0  0  0  0  0  0  0  0  0  0  0
   38.6508   27.7996   37.1071 H   0  0  0  0  0  0  0  0  0  0  0  0
   37.6152   28.6166   34.9609 H   0  0  0  0  0  0  0  0  0  0  0  0
   38.2131   26.3341   30.4510 H   0  0  0  0  0  0  0  0  0  0  0  0
   38.5407   25.4571   32.0098 H   0  0  0  0  0  0  0  0  0  0  0  0
   38.4361   23.6511   30.7284 H   0  0  0  0  0  0  0  0  0  0  0  0
   37.4380   24.5307   29.4526 H   0  0  0  0  0  0  0  0  0  0  0  0
   36.2484   22.8597   30.2474 H   0  0  0  0  0  0  0  0  0  0  0  0
   34.5953   24.1359   30.1231 H   0  0  0  0  0  0  0  0  0  0  0  0
   34.7185   24.0462   31.9539 H   0  0  0  0  0  0  0  0  0  0  0  0
   35.3920   26.2703   30.0874 H   0  0  0  0  0  0  0  0  0  0  0  0
   34.5387   26.2696   31.6785 H   0  0  0  0  0  0  0  0  0  0  0  0
  1 15  1  0
  2  1  2  0
  3  2  1  0
  4  5  1  0
  4  3  2  0
  5  1  1  0
  6  4  1  0
  7  6  2  0
  8  7  1  0
  9  8  1  0
  9 14  2  0
 10  9  1  0
 11 10  2  0
 11 12  1  0
 12 13  2  0
 13 14  1  0
 14  6  1  0
 16 15  1  0
 16 17  2  0
 18 23  2  0
 19 18  1  0
 20 21  1  0
 20 19  2  0
 21 22  2  0
 22 16  1  0
 22 23  1  0
 24 20  1  0
 25 24  2  0
 26 24  1  0
 27 26  1  0
 28 29  1  0
 28 27  1  0
 29 30  1  0
 30 31  1  0
 31 26  1  0
  2 32  1  0
  3 33  1  0
  7 34  1  0
  8 35  1  0
 10 36  1  0
 11 37  1  0
 12 38  1  0
 13 39  1  0
 18 40  1  0
 19 41  1  0
 27 42  1  0
 27 43  1  0
 28 44  1  0
 28 45  1  0
 29 46  1  0
 30 47  1  0
 30 48  1  0
 31 49  1  0
 31 50  1  0
M  ISO  8  32  14  33  14  34  14  35   9  36  14  37  14  38  14  39  14
M  ISO  8  40  14  41  14  42  13  43  13  44  13  45  13  46   5  47  13
M  ISO  3  48  13  49  13  50  13
M  END
>  <minimizedAffinity>  (1) 
-6.21756554

>  <minimizedRMSD>  (1) 
0.68243587

$$$$
