
     RDKit          3D

 49 53  0  0  0  0  0  0  0  0999 V2000
   37.0200   21.7730   35.0550 C   0  0  0  0  0  0  0  0  0  0  0  0
   35.9180   21.0490   34.9160 C   0  0  0  0  0  0  0  0  0  0  0  0
   35.6970   20.3390   33.7880 C   0  0  0  0  0  0  0  0  0  0  0  0
   36.6570   20.4090   32.8230 C   0  0  0  0  0  0  0  0  0  0  0  0
   37.9550   21.5340   33.5130 S   0  0  0  0  0  0  0  0  0  0  0  0
   36.7110   19.7470   31.4750 C   0  0  0  0  0  0  0  0  0  0  0  0
   35.8320   18.7360   31.1050 C   0  0  0  0  0  0  0  0  0  0  0  0
   36.2310   18.4460   29.8560 N   0  0  0  0  0  0  0  0  0  0  0  0
   37.2680   19.2030   29.4620 C   0  0  0  0  0  0  0  0  0  0  0  0
   37.9480   19.1850   28.2330 C   0  0  0  0  0  0  0  0  0  0  0  0
   38.9970   20.0820   28.0830 C   0  0  0  0  0  0  0  0  0  0  0  0
   39.3280   20.9340   29.1150 C   0  0  0  0  0  0  0  0  0  0  0  0
   38.6260   20.9130   30.3100 C   0  0  0  0  0  0  0  0  0  0  0  0
   37.5860   20.0490   30.5080 C   0  0  0  0  0  0  0  0  0  0  0  0
   37.5260   22.5830   36.0440 O   0  0  0  0  0  0  0  0  0  0  0  0
   38.4840   23.5550   35.8670 C   0  0  0  0  0  0  0  0  0  0  0  0
   39.6180   23.0870   36.0330 O   0  0  0  0  0  0  0  0  0  0  0  0
   38.3230   27.1360   36.2270 C   0  0  0  0  0  0  0  0  0  0  0  0
   37.6850   27.5900   35.0590 C   0  0  0  0  0  0  0  0  0  0  0  0
   37.2980   26.6010   34.1100 C   0  0  0  0  0  0  0  0  0  0  0  0
   37.5710   25.2990   34.4020 N   0  0  0  0  0  0  0  0  0  0  0  0
   38.1820   24.9280   35.5330 C   0  0  0  0  0  0  0  0  0  0  0  0
   38.5640   25.8540   36.4600 N   0  0  0  0  0  0  0  0  0  0  0  0
   36.6440   27.0070   32.8990 C   0  0  0  0  0  0  0  0  0  0  0  0
   35.9130   28.0420   32.8930 O   0  0  0  0  0  0  0  0  0  0  0  0
   36.8040   26.2530   31.6790 N   0  0  0  0  0  0  0  0  0  0  0  0
   36.0020   25.1470   31.1920 C   0  0  0  0  0  0  0  0  0  0  0  0
   36.9850   24.0920   30.6950 C   0  0  0  0  0  0  0  0  0  0  0  0
   38.2570   24.2520   31.2380 O   0  0  0  0  0  0  0  0  0  0  0  0
   38.8670   25.4270   30.8080 C   0  0  0  0  0  0  0  0  0  0  0  0
   37.8840   26.5850   30.7680 C   0  0  0  0  0  0  0  0  0  0  0  0
   35.1759   21.0262   35.7276 H   0  0  0  0  0  0  0  0  0  0  0  0
   34.7876   19.7346   33.6550 H   0  0  0  0  0  0  0  0  0  0  0  0
   35.0150   18.2865   31.6885 H   0  0  0  0  0  0  0  0  0  0  0  0
   35.7914   17.7246   29.2668 H   0  0  0  0  0  0  0  0  0  0  0  0
   37.6627   18.4927   27.4272 H   0  0  0  0  0  0  0  0  0  0  0  0
   39.5639   20.1129   27.1409 H   0  0  0  0  0  0  0  0  0  0  0  0
   40.1613   21.6408   28.9883 H   0  0  0  0  0  0  0  0  0  0  0  0
   38.9118   21.6058   31.1152 H   0  0  0  0  0  0  0  0  0  0  0  0
   38.6351   27.8760   36.9787 H   0  0  0  0  0  0  0  0  0  0  0  0
   37.4937   28.6594   34.8863 H   0  0  0  0  0  0  0  0  0  0  0  0
   35.3832   24.7384   32.0045 H   0  0  0  0  0  0  0  0  0  0  0  0
   35.3217   25.4691   30.3899 H   0  0  0  0  0  0  0  0  0  0  0  0
   36.6054   23.0975   30.9722 H   0  0  0  0  0  0  0  0  0  0  0  0
   37.0706   24.2019   29.6039 H   0  0  0  0  0  0  0  0  0  0  0  0
   39.6859   25.6775   31.4984 H   0  0  0  0  0  0  0  0  0  0  0  0
   39.2484   25.2639   29.7892 H   0  0  0  0  0  0  0  0  0  0  0  0
   38.3792   27.5128   31.0905 H   0  0  0  0  0  0  0  0  0  0  0  0
   37.5039   26.7437   29.7480 H   0  0  0  0  0  0  0  0  0  0  0  0
  1 15  1  0
  2  1  2  0
  3  2  1  0
  4  5  1  0
  4  3  2  0
  5  1  1  0
  6  4  1  0
  7  6  2  0
  8  7  1  0
  9  8  1  0
  9 14  2  0
 10  9  1  0
 11 10  2  0
 11 12  1  0
 12 13  2  0
 13 14  1  0
 14  6  1  0
 16 17  2  0
 16 15  1  0
 18 23  2  0
 19 18  1  0
 20 21  1  0
 20 19  2  0
 21 22  2  0
 22 16  1  0
 22 23  1  0
 24 20  1  0
 25 24  2  0
 26 24  1  0
 27 26  1  0
 28 27  1  0
 28 29  1  0
 30 29  1  0
 31 30  1  0
 31 26  1  0
  2 32  1  0
  3 33  1  0
  7 34  1  0
  8 35  1  0
 10 36  1  0
 11 37  1  0
 12 38  1  0
 13 39  1  0
 18 40  1  0
 19 41  1  0
 27 42  1  0
 27 43  1  0
 28 44  1  0
 28 45  1  0
 30 46  1  0
 30 47  1  0
 31 48  1  0
 31 49  1  0
M  ISO  8  32  14  33  14  34  14  35   9  36  14  37  14  38  14  39  14
M  ISO  8  40  14  41  14  42  13  43  13  44  13  45  13  46  13  47  13
M  ISO  2  48  13  49  13
M  END
>  <minimizedAffinity>  (1) 
-5.93327045

>  <minimizedRMSD>  (1) 
0.448848814

$$$$
