
     RDKit          3D

 51 55  0  0  0  0  0  0  0  0999 V2000
   37.1110   21.7520   34.8210 C   0  0  0  0  0  0  0  0  0  0  0  0
   35.9580   21.1410   34.6040 C   0  0  0  0  0  0  0  0  0  0  0  0
   35.7270   20.4130   33.4830 C   0  0  0  0  0  0  0  0  0  0  0  0
   36.7890   20.3670   32.5970 C   0  0  0  0  0  0  0  0  0  0  0  0
   38.1220   21.3690   33.3750 S   0  0  0  0  0  0  0  0  0  0  0  0
   36.8480   19.6550   31.2720 C   0  0  0  0  0  0  0  0  0  0  0  0
   36.0710   18.5630   30.9450 C   0  0  0  0  0  0  0  0  0  0  0  0
   36.4760   18.2950   29.6840 N   0  0  0  0  0  0  0  0  0  0  0  0
   37.4140   19.1280   29.2460 C   0  0  0  0  0  0  0  0  0  0  0  0
   38.0640   19.1550   28.0000 C   0  0  0  0  0  0  0  0  0  0  0  0
   39.0130   20.1390   27.8020 C   0  0  0  0  0  0  0  0  0  0  0  0
   39.2870   21.0430   28.8040 C   0  0  0  0  0  0  0  0  0  0  0  0
   38.6210   20.9780   30.0140 C   0  0  0  0  0  0  0  0  0  0  0  0
   37.6750   20.0260   30.2640 C   0  0  0  0  0  0  0  0  0  0  0  0
   37.6110   22.5310   35.8310 O   0  0  0  0  0  0  0  0  0  0  0  0
   38.5580   23.5160   35.6690 C   0  0  0  0  0  0  0  0  0  0  0  0
   39.7060   23.0560   35.7730 O   0  0  0  0  0  0  0  0  0  0  0  0
   38.3890   27.0790   36.2110 C   0  0  0  0  0  0  0  0  0  0  0  0
   37.7010   27.5830   35.0960 C   0  0  0  0  0  0  0  0  0  0  0  0
   37.2800   26.6350   34.1190 C   0  0  0  0  0  0  0  0  0  0  0  0
   37.5690   25.3200   34.3250 N   0  0  0  0  0  0  0  0  0  0  0  0
   38.2310   24.9060   35.4120 C   0  0  0  0  0  0  0  0  0  0  0  0
   38.6510   25.7820   36.3730 N   0  0  0  0  0  0  0  0  0  0  0  0
   36.5700   27.0910   32.9560 C   0  0  0  0  0  0  0  0  0  0  0  0
   35.9970   28.2110   32.9640 O   0  0  0  0  0  0  0  0  0  0  0  0
   36.4580   26.3600   31.7610 N   0  0  0  0  0  0  0  0  0  0  0  0
   37.6520   25.9860   31.0240 C   0  0  0  0  0  0  0  0  0  0  0  0
   37.8350   24.4900   31.1290 C   0  0  0  0  0  0  0  0  0  0  0  0
   36.5690   23.7810   31.5180 C   0  0  0  0  0  0  0  0  0  0  0  0
   35.3200   24.3820   30.9180 C   0  0  0  0  0  0  0  0  0  0  0  0
   35.2750   25.8850   31.0980 C   0  0  0  0  0  0  0  0  0  0  0  0
   35.1607   21.2260   35.3570 H   0  0  0  0  0  0  0  0  0  0  0  0
   34.7723   19.9005   33.2935 H   0  0  0  0  0  0  0  0  0  0  0  0
   35.3161   18.0441   31.5540 H   0  0  0  0  0  0  0  0  0  0  0  0
   36.0957   17.5224   29.1189 H   0  0  0  0  0  0  0  0  0  0  0  0
   37.8266   18.4224   27.2146 H   0  0  0  0  0  0  0  0  0  0  0  0
   39.5499   20.2005   26.8439 H   0  0  0  0  0  0  0  0  0  0  0  0
   40.0433   21.8247   28.6401 H   0  0  0  0  0  0  0  0  0  0  0  0
   38.8599   21.7133   30.7964 H   0  0  0  0  0  0  0  0  0  0  0  0
   38.7265   27.7847   36.9844 H   0  0  0  0  0  0  0  0  0  0  0  0
   37.4967   28.6578   34.9820 H   0  0  0  0  0  0  0  0  0  0  0  0
   38.5269   26.4972   31.4520 H   0  0  0  0  0  0  0  0  0  0  0  0
   37.5490   26.2786   29.9687 H   0  0  0  0  0  0  0  0  0  0  0  0
   38.1687   24.1062   30.1536 H   0  0  0  0  0  0  0  0  0  0  0  0
   38.5800   24.2990   31.9155 H   0  0  0  0  0  0  0  0  0  0  0  0
   36.6428   22.7345   31.1872 H   0  0  0  0  0  0  0  0  0  0  0  0
   36.4744   23.8740   32.6100 H   0  0  0  0  0  0  0  0  0  0  0  0
   34.4408   23.9385   31.4082 H   0  0  0  0  0  0  0  0  0  0  0  0
   35.3223   24.1674   29.8391 H   0  0  0  0  0  0  0  0  0  0  0  0
   35.1995   26.3634   30.1104 H   0  0  0  0  0  0  0  0  0  0  0  0
   34.4012   26.1378   31.7166 H   0  0  0  0  0  0  0  0  0  0  0  0
  1 15  1  0
  2  1  2  0
  3  2  1  0
  4  5  1  0
  4  3  2  0
  5  1  1  0
  6  4  1  0
  7  6  2  0
  8  7  1  0
  9  8  1  0
  9 14  2  0
 10  9  1  0
 11 10  2  0
 11 12  1  0
 12 13  2  0
 13 14  1  0
 14  6  1  0
 16 17  2  0
 16 15  1  0
 18 23  2  0
 19 18  1  0
 20 21  1  0
 20 19  2  0
 21 22  2  0
 22 16  1  0
 22 23  1  0
 24 25  2  0
 24 20  1  0
 26 24  1  0
 27 28  1  0
 27 26  1  0
 28 29  1  0
 30 31  1  0
 30 29  1  0
 31 26  1  0
  2 32  1  0
  3 33  1  0
  7 34  1  0
  8 35  1  0
 10 36  1  0
 11 37  1  0
 12 38  1  0
 13 39  1  0
 18 40  1  0
 19 41  1  0
 27 42  1  0
 27 43  1  0
 28 44  1  0
 28 45  1  0
 29 46  1  0
 29 47  1  0
 30 48  1  0
 30 49  1  0
 31 50  1  0
 31 51  1  0
M  ISO  8  32  14  33  14  34  14  35   9  36  14  37  14  38  14  39  14
M  ISO  8  40  14  41  14  42  13  43  13  44  13  45  13  46  13  47  13
M  ISO  4  48  13  49  13  50  13  51  13
M  END
>  <minimizedAffinity>  (1) 
-6.12798595

>  <minimizedRMSD>  (1) 
0.740574479

$$$$
