
     RDKit          3D

 23 24  0  0  0  0  0  0  0  0999 V2000
   38.5240   25.7130   35.0800 C   0  0  0  0  0  0  0  0  0  0  0  0
   39.6250   22.9260   37.2810 C   0  0  0  0  0  0  0  0  0  0  0  0
   38.8610   23.1520   38.4520 C   0  0  0  0  0  0  0  0  0  0  0  0
   37.9820   24.2620   38.4520 C   0  0  0  0  0  0  0  0  0  0  0  0
   37.9200   25.0510   37.3310 N   0  0  0  0  0  0  0  0  0  0  0  0
   38.6750   24.7850   36.2430 C   0  0  0  0  0  0  0  0  0  0  0  0
   39.5080   23.7510   36.2130 N   0  0  0  0  0  0  0  0  0  0  0  0
   38.0560   27.0750   35.5500 C   0  0  0  0  0  0  0  0  0  0  0  0
   37.1650   27.5880   34.4570 C   0  0  0  0  0  0  0  0  0  0  0  0
   37.0280   27.0920   33.1640 C   0  0  0  0  0  0  0  0  0  0  0  0
   36.1190   27.8760   32.5600 N   0  0  0  0  0  0  0  0  0  0  0  0
   35.6930   28.8260   33.4180 C   0  0  0  0  0  0  0  0  0  0  0  0
   36.3290   28.6590   34.5880 N   0  0  0  0  0  0  0  0  0  0  0  0
   37.7855   25.2980   34.3784 H   0  0  0  0  0  0  0  0  0  0  0  0
   39.4983   25.8224   34.5813 H   0  0  0  0  0  0  0  0  0  0  0  0
   40.3190   22.0736   37.2385 H   0  0  0  0  0  0  0  0  0  0  0  0
   38.9471   22.4911   39.3271 H   0  0  0  0  0  0  0  0  0  0  0  0
   37.3618   24.4872   39.3322 H   0  0  0  0  0  0  0  0  0  0  0  0
   37.4965   26.9857   36.4928 H   0  0  0  0  0  0  0  0  0  0  0  0
   38.8998   27.7538   35.7430 H   0  0  0  0  0  0  0  0  0  0  0  0
   37.5565   26.2327   32.7255 H   0  0  0  0  0  0  0  0  0  0  0  0
   34.9497   29.6059   33.1961 H   0  0  0  0  0  0  0  0  0  0  0  0
   36.2080   29.2355   35.4330 H   0  0  0  0  0  0  0  0  0  0  0  0
  1  8  1  0
  1  6  1  0
  2  3  2  0
  4  3  1  0
  5  4  2  0
  6  5  1  0
  7  6  2  0
  7  2  1  0
  9 13  1  0
  9  8  1  0
 10  9  2  0
 11 10  1  0
 11 12  2  0
 12 13  1  0
  1 14  1  0
  1 15  1  0
  2 16  1  0
  3 17  1  0
  4 18  1  0
  8 19  1  0
  8 20  1  0
 10 21  1  0
 12 22  1  0
 13 23  1  0
M  ISO  8  14   8  15   8  16  14  17  14  18  14  19   8  20   8  21  14
M  ISO  2  22  14  23   9
M  END
>  <minimizedAffinity>  (1) 
-3.71371794

>  <minimizedRMSD>  (1) 
1.31650472

$$$$
