
     RDKit          3D

 35 38  0  0  0  0  0  0  0  0999 V2000
   38.8320   26.2110   34.6500 C   0  0  0  0  0  0  0  0  0  0  0  0
   37.8300   27.1370   34.0640 C   0  0  0  0  0  0  0  0  0  0  0  0
   37.8050   27.5120   32.7640 N   0  0  0  0  0  0  0  0  0  0  0  0
   36.8040   28.3250   32.5840 O   0  0  0  0  0  0  0  0  0  0  0  0
   36.1580   28.5160   33.6910 C   0  0  0  0  0  0  0  0  0  0  0  0
   36.7930   27.7790   34.6140 N   0  0  0  0  0  0  0  0  0  0  0  0
   34.9770   29.3580   33.9070 C   0  0  0  0  0  0  0  0  0  0  0  0
   33.7220   29.2500   33.3190 C   0  0  0  0  0  0  0  0  0  0  0  0
   32.9320   30.2390   33.8120 N   0  0  0  0  0  0  0  0  0  0  0  0
   33.6560   30.9600   34.6860 C   0  0  0  0  0  0  0  0  0  0  0  0
   33.3720   32.0730   35.4790 C   0  0  0  0  0  0  0  0  0  0  0  0
   34.3600   32.5890   36.2920 C   0  0  0  0  0  0  0  0  0  0  0  0
   35.6300   32.0870   36.3880 C   0  0  0  0  0  0  0  0  0  0  0  0
   35.9050   30.9870   35.6010 C   0  0  0  0  0  0  0  0  0  0  0  0
   34.9400   30.4390   34.7720 C   0  0  0  0  0  0  0  0  0  0  0  0
   38.3060   24.7940   34.7040 C   0  0  0  0  0  0  0  0  0  0  0  0
   39.7050   22.8340   37.5540 C   0  0  0  0  0  0  0  0  0  0  0  0
   38.9150   23.3050   38.6130 C   0  0  0  0  0  0  0  0  0  0  0  0
   37.9190   24.2800   38.3490 C   0  0  0  0  0  0  0  0  0  0  0  0
   37.7940   24.7010   37.0640 N   0  0  0  0  0  0  0  0  0  0  0  0
   38.5790   24.2210   36.0620 C   0  0  0  0  0  0  0  0  0  0  0  0
   39.5160   23.3070   36.2980 N   0  0  0  0  0  0  0  0  0  0  0  0
   39.0727   26.5429   35.6707 H   0  0  0  0  0  0  0  0  0  0  0  0
   39.7298   26.2239   34.0145 H   0  0  0  0  0  0  0  0  0  0  0  0
   33.4201   28.4928   32.5804 H   0  0  0  0  0  0  0  0  0  0  0  0
   31.9477   30.4076   33.5597 H   0  0  0  0  0  0  0  0  0  0  0  0
   32.3730   32.5329   35.4560 H   0  0  0  0  0  0  0  0  0  0  0  0
   34.1095   33.4661   36.9068 H   0  0  0  0  0  0  0  0  0  0  0  0
   36.3852   32.5331   37.0518 H   0  0  0  0  0  0  0  0  0  0  0  0
   36.9084   30.5375   35.6327 H   0  0  0  0  0  0  0  0  0  0  0  0
   37.2222   24.7960   34.5161 H   0  0  0  0  0  0  0  0  0  0  0  0
   38.8054   24.1838   33.9370 H   0  0  0  0  0  0  0  0  0  0  0  0
   40.4810   22.0778   37.7436 H   0  0  0  0  0  0  0  0  0  0  0  0
   39.0657   22.9237   39.6338 H   0  0  0  0  0  0  0  0  0  0  0  0
   37.2769   24.6771   39.1490 H   0  0  0  0  0  0  0  0  0  0  0  0
  1 16  1  0
  2  6  1  0
  2  1  1  0
  3  2  2  0
  4  3  1  0
  4  5  1  0
  5  7  1  0
  5  6  2  0
  7 15  1  0
  8  9  1  0
  8  7  2  0
  9 10  1  0
 10 15  2  0
 10 11  1  0
 11 12  2  0
 12 13  1  0
 14 13  2  0
 15 14  1  0
 16 21  1  0
 17 18  2  0
 19 18  1  0
 20 19  2  0
 21 22  2  0
 21 20  1  0
 22 17  1  0
  1 23  1  0
  1 24  1  0
  8 25  1  0
  9 26  1  0
 11 27  1  0
 12 28  1  0
 13 29  1  0
 14 30  1  0
 16 31  1  0
 16 32  1  0
 17 33  1  0
 18 34  1  0
 19 35  1  0
M  ISO  8  23   8  24   8  25  14  26   9  27  14  28  14  29  14  30  14
M  ISO  5  31   8  32   8  33  14  34  14  35  14
M  END
>  <minimizedAffinity>  (1) 
-5.64202261

>  <minimizedRMSD>  (1) 
1.31513798

$$$$
