
     RDKit          3D

 36 38  0  0  0  0  0  0  0  0999 V2000
   38.7280   26.6930   35.1360 C   0  0  0  0  0  0  0  0  0  0  0  0
   37.5830   27.4110   34.5090 C   0  0  0  0  0  0  0  0  0  0  0  0
   37.1160   27.1570   33.2510 N   0  0  0  0  0  0  0  0  0  0  0  0
   36.0870   27.9760   33.0390 O   0  0  0  0  0  0  0  0  0  0  0  0
   35.8910   28.7200   34.0900 C   0  0  0  0  0  0  0  0  0  0  0  0
   36.7970   28.3980   35.0150 N   0  0  0  0  0  0  0  0  0  0  0  0
   34.7880   29.5380   33.7500 N   0  0  0  0  0  0  0  0  0  0  0  0
   34.1920   30.3350   34.8080 C   0  0  0  0  0  0  0  0  0  0  0  0
   32.9520   29.5140   35.2100 C   0  0  0  0  0  0  0  0  0  0  0  0
   32.1420   29.1630   34.0130 C   0  0  0  0  0  0  0  0  0  0  0  0
   32.5960   29.8020   32.7160 C   0  0  0  0  0  0  0  0  0  0  0  0
   34.0890   29.7090   32.4840 C   0  0  0  0  0  0  0  0  0  0  0  0
   38.6360   25.2250   34.8890 C   0  0  0  0  0  0  0  0  0  0  0  0
   39.6860   22.8620   37.5960 C   0  0  0  0  0  0  0  0  0  0  0  0
   38.8450   23.2570   38.6280 C   0  0  0  0  0  0  0  0  0  0  0  0
   37.9360   24.3120   38.4160 C   0  0  0  0  0  0  0  0  0  0  0  0
   37.9430   24.8870   37.1890 N   0  0  0  0  0  0  0  0  0  0  0  0
   38.7690   24.4850   36.2030 C   0  0  0  0  0  0  0  0  0  0  0  0
   39.6290   23.4900   36.3950 N   0  0  0  0  0  0  0  0  0  0  0  0
   39.6681   27.0718   34.7085 H   0  0  0  0  0  0  0  0  0  0  0  0
   38.7008   26.8689   36.2215 H   0  0  0  0  0  0  0  0  0  0  0  0
   34.8838   30.4458   35.6560 H   0  0  0  0  0  0  0  0  0  0  0  0
   33.9473   31.3595   34.4910 H   0  0  0  0  0  0  0  0  0  0  0  0
   33.2776   28.5895   35.7092 H   0  0  0  0  0  0  0  0  0  0  0  0
   32.3337   30.1182   35.8902 H   0  0  0  0  0  0  0  0  0  0  0  0
   32.1790   28.0710   33.8855 H   0  0  0  0  0  0  0  0  0  0  0  0
   31.1302   29.5492   34.2055 H   0  0  0  0  0  0  0  0  0  0  0  0
   32.0828   29.2998   31.8827 H   0  0  0  0  0  0  0  0  0  0  0  0
   32.3455   30.8713   32.7785 H   0  0  0  0  0  0  0  0  0  0  0  0
   34.3020   28.8484   31.8328 H   0  0  0  0  0  0  0  0  0  0  0  0
   34.4353   30.6377   32.0069 H   0  0  0  0  0  0  0  0  0  0  0  0
   37.6634   24.9899   34.4322 H   0  0  0  0  0  0  0  0  0  0  0  0
   39.4436   24.9153   34.2094 H   0  0  0  0  0  0  0  0  0  0  0  0
   40.3990   22.0391   37.7526 H   0  0  0  0  0  0  0  0  0  0  0  0
   38.8883   22.7501   39.6033 H   0  0  0  0  0  0  0  0  0  0  0  0
   37.2533   24.6527   39.2084 H   0  0  0  0  0  0  0  0  0  0  0  0
  2  6  1  0
  2  1  1  0
  3  2  2  0
  4  3  1  0
  4  5  1  0
  5  6  2  0
  7  5  1  0
  7  8  1  0
  8  9  1  0
 10  9  1  0
 11 10  1  0
 12 11  1  0
 12  7  1  0
 13  1  1  0
 13 18  1  0
 14 15  2  0
 16 15  1  0
 17 16  2  0
 18 19  2  0
 18 17  1  0
 19 14  1  0
  1 20  1  0
  1 21  1  0
  8 22  1  0
  8 23  1  0
  9 24  1  0
  9 25  1  0
 10 26  1  0
 10 27  1  0
 11 28  1  0
 11 29  1  0
 12 30  1  0
 12 31  1  0
 13 32  1  0
 13 33  1  0
 14 34  1  0
 15 35  1  0
 16 36  1  0
M  ISO  8  20   8  21   8  22  13  23  13  24  13  25  13  26  13  27  13
M  ISO  8  28  13  29  13  30  13  31  13  32   8  33   8  34  14  35  14
M  ISO  1  36  14
M  END
>  <minimizedAffinity>  (1) 
-4.86658716

>  <minimizedRMSD>  (1) 
0.958068669

$$$$
