
     RDKit          3D

 33 35  0  0  0  0  0  0  0  0999 V2000
   38.3490   26.9440   35.3870 C   0  0  0  0  0  0  0  0  0  0  0  0
   37.4050   27.5850   34.4570 C   0  0  0  0  0  0  0  0  0  0  0  0
   37.4940   27.5180   33.1170 N   0  0  0  0  0  0  0  0  0  0  0  0
   36.5270   28.1790   32.5590 O   0  0  0  0  0  0  0  0  0  0  0  0
   35.7660   28.7060   33.4870 C   0  0  0  0  0  0  0  0  0  0  0  0
   36.3260   28.3270   34.6430 N   0  0  0  0  0  0  0  0  0  0  0  0
   34.5950   29.5180   33.7210 N   0  0  0  0  0  0  0  0  0  0  0  0
   34.2140   30.4020   34.8200 C   0  0  0  0  0  0  0  0  0  0  0  0
   32.8970   29.7130   35.2190 C   0  0  0  0  0  0  0  0  0  0  0  0
   32.3320   29.2750   33.8580 C   0  0  0  0  0  0  0  0  0  0  0  0
   33.4240   29.7040   32.8830 C   0  0  0  0  0  0  0  0  0  0  0  0
   38.6980   25.5450   34.9790 C   0  0  0  0  0  0  0  0  0  0  0  0
   39.6190   22.8830   37.4370 C   0  0  0  0  0  0  0  0  0  0  0  0
   38.8060   23.2130   38.5020 C   0  0  0  0  0  0  0  0  0  0  0  0
   37.9420   24.3330   38.4000 C   0  0  0  0  0  0  0  0  0  0  0  0
   37.9500   25.0450   37.2430 N   0  0  0  0  0  0  0  0  0  0  0  0
   38.7780   24.6750   36.2110 C   0  0  0  0  0  0  0  0  0  0  0  0
   39.5930   23.6150   36.3130 N   0  0  0  0  0  0  0  0  0  0  0  0
   39.2717   27.5420   35.4205 H   0  0  0  0  0  0  0  0  0  0  0  0
   37.8634   26.8927   36.3727 H   0  0  0  0  0  0  0  0  0  0  0  0
   34.9516   30.3908   35.6360 H   0  0  0  0  0  0  0  0  0  0  0  0
   34.1380   31.4705   34.5699 H   0  0  0  0  0  0  0  0  0  0  0  0
   33.0821   28.8467   35.8711 H   0  0  0  0  0  0  0  0  0  0  0  0
   32.2164   30.3607   35.7910 H   0  0  0  0  0  0  0  0  0  0  0  0
   32.1773   28.1864   33.8253 H   0  0  0  0  0  0  0  0  0  0  0  0
   31.3499   29.7162   33.6325 H   0  0  0  0  0  0  0  0  0  0  0  0
   33.3059   30.7528   32.5730 H   0  0  0  0  0  0  0  0  0  0  0  0
   33.4410   29.1506   31.9325 H   0  0  0  0  0  0  0  0  0  0  0  0
   37.9234   25.1548   34.3024 H   0  0  0  0  0  0  0  0  0  0  0  0
   39.6679   25.5419   34.4602 H   0  0  0  0  0  0  0  0  0  0  0  0
   40.2916   22.0157   37.5100 H   0  0  0  0  0  0  0  0  0  0  0  0
   38.8279   22.6120   39.4230 H   0  0  0  0  0  0  0  0  0  0  0  0
   37.2838   24.6172   39.2343 H   0  0  0  0  0  0  0  0  0  0  0  0
  2  6  1  0
  2  1  1  0
  3  2  2  0
  4  3  1  0
  4  5  1  0
  5  7  1  0
  5  6  2  0
  7  8  1  0
  8  9  1  0
 10  9  1  0
 11  7  1  0
 11 10  1  0
 12  1  1  0
 12 17  1  0
 13 14  2  0
 15 14  1  0
 16 15  2  0
 17 18  2  0
 17 16  1  0
 18 13  1  0
  1 19  1  0
  1 20  1  0
  8 21  1  0
  8 22  1  0
  9 23  1  0
  9 24  1  0
 10 25  1  0
 10 26  1  0
 11 27  1  0
 11 28  1  0
 12 29  1  0
 12 30  1  0
 13 31  1  0
 14 32  1  0
 15 33  1  0
M  ISO  8  19   8  20   8  21  13  22  13  23  13  24  13  25  13  26  13
M  ISO  7  27  13  28  13  29   8  30   8  31  14  32  14  33  14
M  END
>  <minimizedAffinity>  (1) 
-4.72255754

>  <minimizedRMSD>  (1) 
0.705274463

$$$$
