
     RDKit          3D

 29 31  0  0  0  0  0  0  0  0999 V2000
   38.9720   26.5770   35.0220 C   0  0  0  0  0  0  0  0  0  0  0  0
   37.9290   27.2920   34.2650 C   0  0  0  0  0  0  0  0  0  0  0  0
   37.8550   27.3750   32.9180 N   0  0  0  0  0  0  0  0  0  0  0  0
   36.8020   28.0860   32.5930 O   0  0  0  0  0  0  0  0  0  0  0  0
   36.1720   28.4790   33.6670 C   0  0  0  0  0  0  0  0  0  0  0  0
   36.8760   27.9820   34.7210 N   0  0  0  0  0  0  0  0  0  0  0  0
   34.9530   29.2900   33.7590 C   0  0  0  0  0  0  0  0  0  0  0  0
   34.7560   30.2200   34.7600 C   0  0  0  0  0  0  0  0  0  0  0  0
   33.5430   30.9170   34.7170 C   0  0  0  0  0  0  0  0  0  0  0  0
   32.6280   30.6950   33.7550 N   0  0  0  0  0  0  0  0  0  0  0  0
   32.8440   29.7840   32.7890 C   0  0  0  0  0  0  0  0  0  0  0  0
   34.0070   29.1060   32.8200 N   0  0  0  0  0  0  0  0  0  0  0  0
   38.8660   25.0810   34.8180 C   0  0  0  0  0  0  0  0  0  0  0  0
   39.7300   22.8330   37.6730 C   0  0  0  0  0  0  0  0  0  0  0  0
   38.8140   23.2780   38.6450 C   0  0  0  0  0  0  0  0  0  0  0  0
   37.9340   24.3170   38.3160 C   0  0  0  0  0  0  0  0  0  0  0  0
   38.0170   24.8420   37.0610 N   0  0  0  0  0  0  0  0  0  0  0  0
   38.9130   24.3910   36.1450 C   0  0  0  0  0  0  0  0  0  0  0  0
   39.7370   23.4110   36.4650 N   0  0  0  0  0  0  0  0  0  0  0  0
   39.9607   26.9169   34.6799 H   0  0  0  0  0  0  0  0  0  0  0  0
   38.8370   26.7937   36.0920 H   0  0  0  0  0  0  0  0  0  0  0  0
   35.5064   30.4021   35.5434 H   0  0  0  0  0  0  0  0  0  0  0  0
   33.3312   31.6682   35.4921 H   0  0  0  0  0  0  0  0  0  0  0  0
   32.0976   29.5996   32.0023 H   0  0  0  0  0  0  0  0  0  0  0  0
   37.9158   24.8460   34.3162 H   0  0  0  0  0  0  0  0  0  0  0  0
   39.7049   24.7359   34.1959 H   0  0  0  0  0  0  0  0  0  0  0  0
   40.4328   22.0188   37.9034 H   0  0  0  0  0  0  0  0  0  0  0  0
   38.7898   22.8184   39.6441 H   0  0  0  0  0  0  0  0  0  0  0  0
   37.2020   24.6957   39.0446 H   0  0  0  0  0  0  0  0  0  0  0  0
  2  6  1  0
  2  1  1  0
  3  2  2  0
  4  3  1  0
  4  5  1  0
  5  7  1  0
  5  6  2  0
  7  8  2  0
  9  8  1  0
 10  9  2  0
 11 12  2  0
 11 10  1  0
 12  7  1  0
 13  1  1  0
 13 18  1  0
 14 15  2  0
 16 15  1  0
 17 16  2  0
 18 19  2  0
 18 17  1  0
 19 14  1  0
  1 20  1  0
  1 21  1  0
  8 22  1  0
  9 23  1  0
 11 24  1  0
 13 25  1  0
 13 26  1  0
 14 27  1  0
 15 28  1  0
 16 29  1  0
M  ISO  8  20   8  21   8  22  14  23  14  24  14  25   8  26   8  27  14
M  ISO  2  28  14  29  14
M  END
>  <minimizedAffinity>  (1) 
-4.65216303

>  <minimizedRMSD>  (1) 
1.07426119

$$$$
