
     RDKit          3D

 27 29  0  0  0  0  0  0  0  0999 V2000
   37.9550   26.9230   35.4470 C   0  0  0  0  0  0  0  0  0  0  0  0
   37.2430   27.5480   34.3080 C   0  0  0  0  0  0  0  0  0  0  0  0
   37.6580   27.4950   33.0100 N   0  0  0  0  0  0  0  0  0  0  0  0
   36.7900   28.1510   32.2900 O   0  0  0  0  0  0  0  0  0  0  0  0
   35.8350   28.6320   33.0060 C   0  0  0  0  0  0  0  0  0  0  0  0
   36.1130   28.2560   34.2790 N   0  0  0  0  0  0  0  0  0  0  0  0
   34.6730   29.4190   32.6150 C   0  0  0  0  0  0  0  0  0  0  0  0
   34.9200   30.4670   31.6450 C   0  0  0  0  0  0  0  0  0  0  0  0
   33.1990   31.2060   31.4350 S   0  0  0  0  0  0  0  0  0  0  0  0
   32.5030   29.9600   32.6870 C   0  0  0  0  0  0  0  0  0  0  0  0
   33.4140   29.3360   32.9990 N   0  0  0  0  0  0  0  0  0  0  0  0
   38.6390   25.6450   35.0160 C   0  0  0  0  0  0  0  0  0  0  0  0
   39.5970   22.9170   37.4020 C   0  0  0  0  0  0  0  0  0  0  0  0
   38.7950   23.2160   38.4960 C   0  0  0  0  0  0  0  0  0  0  0  0
   37.9440   24.3250   38.4230 C   0  0  0  0  0  0  0  0  0  0  0  0
   37.9510   25.0550   37.2730 N   0  0  0  0  0  0  0  0  0  0  0  0
   38.7460   24.7390   36.2190 C   0  0  0  0  0  0  0  0  0  0  0  0
   39.5500   23.6890   36.2920 N   0  0  0  0  0  0  0  0  0  0  0  0
   38.7105   27.6252   35.8293 H   0  0  0  0  0  0  0  0  0  0  0  0
   37.2228   26.6838   36.2323 H   0  0  0  0  0  0  0  0  0  0  0  0
   35.8638   30.7553   31.1591 H   0  0  0  0  0  0  0  0  0  0  0  0
   31.4640   29.8593   33.0340 H   0  0  0  0  0  0  0  0  0  0  0  0
   38.0473   25.1525   34.2303 H   0  0  0  0  0  0  0  0  0  0  0  0
   39.6397   25.8656   34.6160 H   0  0  0  0  0  0  0  0  0  0  0  0
   40.2726   22.0497   37.4383 H   0  0  0  0  0  0  0  0  0  0  0  0
   38.8280   22.5933   39.4022 H   0  0  0  0  0  0  0  0  0  0  0  0
   37.2917   24.5977   39.2657 H   0  0  0  0  0  0  0  0  0  0  0  0
  2  1  1  0
  3  2  2  0
  4  5  1  0
  4  3  1  0
  5  6  2  0
  6  2  1  0
  7 11  1  0
  7  5  1  0
  8  7  2  0
  9  8  1  0
  9 10  1  0
 10 11  2  0
 12  1  1  0
 12 17  1  0
 13 14  2  0
 15 14  1  0
 16 15  2  0
 17 18  2  0
 17 16  1  0
 18 13  1  0
  1 19  1  0
  1 20  1  0
  8 21  1  0
 10 22  1  0
 12 23  1  0
 12 24  1  0
 13 25  1  0
 14 26  1  0
 15 27  1  0
M  ISO  8  19   8  20   8  21  14  22  14  23   8  24   8  25  14  26  14
M  ISO  1  27  14
M  END
>  <minimizedAffinity>  (1) 
-4.42959404

>  <minimizedRMSD>  (1) 
0.817792594

$$$$
