
     RDKit          3D

 28 30  0  0  0  0  0  0  0  0999 V2000
   37.9780   26.9360   35.4440 C   0  0  0  0  0  0  0  0  0  0  0  0
   37.2530   27.5520   34.3200 C   0  0  0  0  0  0  0  0  0  0  0  0
   37.6320   27.5260   33.0260 N   0  0  0  0  0  0  0  0  0  0  0  0
   36.7600   28.1690   32.3080 O   0  0  0  0  0  0  0  0  0  0  0  0
   35.8130   28.6280   33.0470 C   0  0  0  0  0  0  0  0  0  0  0  0
   36.1120   28.2450   34.3190 N   0  0  0  0  0  0  0  0  0  0  0  0
   34.6340   29.4060   32.6570 C   0  0  0  0  0  0  0  0  0  0  0  0
   33.3640   29.3470   33.0390 C   0  0  0  0  0  0  0  0  0  0  0  0
   32.4680   30.2250   32.4860 C   0  0  0  0  0  0  0  0  0  0  0  0
   32.9300   31.1240   31.5640 C   0  0  0  0  0  0  0  0  0  0  0  0
   34.7290   30.6960   31.4790 S   0  0  0  0  0  0  0  0  0  0  0  0
   38.6480   25.6440   35.0220 C   0  0  0  0  0  0  0  0  0  0  0  0
   39.5960   22.9180   37.4020 C   0  0  0  0  0  0  0  0  0  0  0  0
   38.7950   23.2090   38.5020 C   0  0  0  0  0  0  0  0  0  0  0  0
   37.9450   24.3250   38.4200 C   0  0  0  0  0  0  0  0  0  0  0  0
   37.9440   25.0600   37.2850 N   0  0  0  0  0  0  0  0  0  0  0  0
   38.7470   24.7420   36.2240 C   0  0  0  0  0  0  0  0  0  0  0  0
   39.5570   23.6860   36.2900 N   0  0  0  0  0  0  0  0  0  0  0  0
   38.7454   27.6374   35.8034 H   0  0  0  0  0  0  0  0  0  0  0  0
   37.2555   26.7092   36.2419 H   0  0  0  0  0  0  0  0  0  0  0  0
   33.0368   28.6078   33.7850 H   0  0  0  0  0  0  0  0  0  0  0  0
   31.4070   30.2071   32.7756 H   0  0  0  0  0  0  0  0  0  0  0  0
   32.3760   31.9000   31.0154 H   0  0  0  0  0  0  0  0  0  0  0  0
   38.0501   25.1545   34.2391 H   0  0  0  0  0  0  0  0  0  0  0  0
   39.6519   25.8527   34.6238 H   0  0  0  0  0  0  0  0  0  0  0  0
   40.2710   22.0502   37.4377 H   0  0  0  0  0  0  0  0  0  0  0  0
   38.8262   22.5850   39.4074 H   0  0  0  0  0  0  0  0  0  0  0  0
   37.2927   24.5956   39.2633 H   0  0  0  0  0  0  0  0  0  0  0  0
  2  1  1  0
  3  2  2  0
  4  3  1  0
  4  5  1  0
  5  6  2  0
  6  2  1  0
  7  8  2  0
  7  5  1  0
  9  8  1  0
 10  9  2  0
 11 10  1  0
 11  7  1  0
 12  1  1  0
 12 17  1  0
 13 14  2  0
 15 14  1  0
 16 15  2  0
 17 18  2  0
 17 16  1  0
 18 13  1  0
  1 19  1  0
  1 20  1  0
  8 21  1  0
  9 22  1  0
 10 23  1  0
 12 24  1  0
 12 25  1  0
 13 26  1  0
 14 27  1  0
 15 28  1  0
M  ISO  8  19   8  20   8  21  14  22  14  23  14  24   8  25   8  26  14
M  ISO  2  27  14  28  14
M  END
>  <minimizedAffinity>  (1) 
-4.45016384

>  <minimizedRMSD>  (1) 
0.825275004

$$$$
