
     RDKit          3D

 22 23  0  0  0  0  0  0  0  0999 V2000
   38.5070   25.6510   35.0110 C   0  0  0  0  0  0  0  0  0  0  0  0
   39.6200   22.9200   37.3150 C   0  0  0  0  0  0  0  0  0  0  0  0
   38.8560   23.1910   38.4460 C   0  0  0  0  0  0  0  0  0  0  0  0
   37.9650   24.2970   38.4290 C   0  0  0  0  0  0  0  0  0  0  0  0
   37.9160   25.0350   37.2820 N   0  0  0  0  0  0  0  0  0  0  0  0
   38.6750   24.7380   36.2040 C   0  0  0  0  0  0  0  0  0  0  0  0
   39.5170   23.6980   36.2170 N   0  0  0  0  0  0  0  0  0  0  0  0
   37.9270   26.9550   35.4850 C   0  0  0  0  0  0  0  0  0  0  0  0
   37.0390   27.5640   34.4700 C   0  0  0  0  0  0  0  0  0  0  0  0
   36.8640   27.0760   33.2240 N   0  0  0  0  0  0  0  0  0  0  0  0
   36.0130   27.8470   32.5770 O   0  0  0  0  0  0  0  0  0  0  0  0
   35.6330   28.8160   33.3580 C   0  0  0  0  0  0  0  0  0  0  0  0
   36.2670   28.6530   34.5520 N   0  0  0  0  0  0  0  0  0  0  0  0
   34.4950   30.1250   32.9680 S   0  0  0  0  0  0  0  0  0  0  0  0
   37.8277   25.1864   34.2811 H   0  0  0  0  0  0  0  0  0  0  0  0
   39.4808   25.8248   34.5297 H   0  0  0  0  0  0  0  0  0  0  0  0
   40.3128   22.0656   37.3159 H   0  0  0  0  0  0  0  0  0  0  0  0
   38.9409   22.5573   39.3411 H   0  0  0  0  0  0  0  0  0  0  0  0
   37.3427   24.5474   39.3008 H   0  0  0  0  0  0  0  0  0  0  0  0
   37.3475   26.7742   36.4023 H   0  0  0  0  0  0  0  0  0  0  0  0
   38.7584   27.6504   35.6726 H   0  0  0  0  0  0  0  0  0  0  0  0
   34.0168   30.6751   34.1280 H   0  0  0  0  0  0  0  0  0  0  0  0
  1  8  1  0
  1  6  1  0
  2  3  2  0
  4  3  1  0
  5  4  2  0
  6  7  2  0
  6  5  1  0
  7  2  1  0
  9 13  1  0
  9  8  1  0
 10  9  2  0
 11 10  1  0
 11 12  1  0
 12 13  2  0
 14 12  1  0
  1 15  1  0
  1 16  1  0
  2 17  1  0
  3 18  1  0
  4 19  1  0
  8 20  1  0
  8 21  1  0
 14 22  1  0
M  ISO  8  15   8  16   8  17  14  18  14  19  14  20   8  21   8  22  11
M  END
>  <minimizedAffinity>  (1) 
-3.85354686

>  <minimizedRMSD>  (1) 
0.0440547541

$$$$
