
     RDKit          3D

 28 30  0  0  0  0  0  0  0  0999 V2000
   37.9180   26.9310   35.4400 C   0  0  0  0  0  0  0  0  0  0  0  0
   37.2080   27.5610   34.2870 C   0  0  0  0  0  0  0  0  0  0  0  0
   37.6280   27.4680   33.0080 N   0  0  0  0  0  0  0  0  0  0  0  0
   36.8040   28.1200   32.2290 O   0  0  0  0  0  0  0  0  0  0  0  0
   35.8500   28.6450   32.9510 C   0  0  0  0  0  0  0  0  0  0  0  0
   36.0820   28.3100   34.2320 N   0  0  0  0  0  0  0  0  0  0  0  0
   34.6910   29.4600   32.5730 C   0  0  0  0  0  0  0  0  0  0  0  0
   34.5900   30.5750   31.7590 C   0  0  0  0  0  0  0  0  0  0  0  0
   33.2420   30.9520   31.7440 C   0  0  0  0  0  0  0  0  0  0  0  0
   32.6150   30.0310   32.5570 C   0  0  0  0  0  0  0  0  0  0  0  0
   33.4880   29.1700   33.0280 O   0  0  0  0  0  0  0  0  0  0  0  0
   38.5980   25.6600   35.0340 C   0  0  0  0  0  0  0  0  0  0  0  0
   39.6020   22.9170   37.3740 C   0  0  0  0  0  0  0  0  0  0  0  0
   38.8040   23.2140   38.4800 C   0  0  0  0  0  0  0  0  0  0  0  0
   37.9470   24.3250   38.4220 C   0  0  0  0  0  0  0  0  0  0  0  0
   37.9470   25.0580   37.2680 N   0  0  0  0  0  0  0  0  0  0  0  0
   38.7290   24.7490   36.2130 C   0  0  0  0  0  0  0  0  0  0  0  0
   39.5450   23.6950   36.2610 N   0  0  0  0  0  0  0  0  0  0  0  0
   38.6723   27.6339   35.8232 H   0  0  0  0  0  0  0  0  0  0  0  0
   37.1756   26.6939   36.2163 H   0  0  0  0  0  0  0  0  0  0  0  0
   35.4136   31.0712   31.2247 H   0  0  0  0  0  0  0  0  0  0  0  0
   32.7849   31.7945   31.2044 H   0  0  0  0  0  0  0  0  0  0  0  0
   31.5377   30.0192   32.7792 H   0  0  0  0  0  0  0  0  0  0  0  0
   38.0035   25.1623   34.2537 H   0  0  0  0  0  0  0  0  0  0  0  0
   39.6005   25.8952   34.6471 H   0  0  0  0  0  0  0  0  0  0  0  0
   40.2791   22.0506   37.4033 H   0  0  0  0  0  0  0  0  0  0  0  0
   38.8458   22.5875   39.3832 H   0  0  0  0  0  0  0  0  0  0  0  0
   37.3016   24.5946   39.2710 H   0  0  0  0  0  0  0  0  0  0  0  0
  2  1  1  0
  3  2  2  0
  4  5  1  0
  4  3  1  0
  5  6  2  0
  6  2  1  0
  7  5  1  0
  7 11  1  0
  8  7  2  0
  9  8  1  0
  9 10  2  0
 10 11  1  0
 12  1  1  0
 12 17  1  0
 13 14  2  0
 15 14  1  0
 16 15  2  0
 17 18  2  0
 17 16  1  0
 18 13  1  0
  1 19  1  0
  1 20  1  0
  8 21  1  0
  9 22  1  0
 10 23  1  0
 12 24  1  0
 12 25  1  0
 13 26  1  0
 14 27  1  0
 15 28  1  0
M  ISO  8  19   8  20   8  21  14  22  14  23  14  24   8  25   8  26  14
M  ISO  2  27  14  28  14
M  END
>  <minimizedAffinity>  (1) 
-4.41526365

>  <minimizedRMSD>  (1) 
0.694177508

$$$$
