
     RDKit          3D

 37 39  0  0  0  0  0  0  0  0999 V2000
   38.6560   26.3520   34.1190 C   0  0  0  0  0  0  0  0  0  0  0  0
   37.5690   27.3310   33.8330 C   0  0  0  0  0  0  0  0  0  0  0  0
   37.1730   27.6840   32.5820 N   0  0  0  0  0  0  0  0  0  0  0  0
   36.2110   28.5520   32.6780 O   0  0  0  0  0  0  0  0  0  0  0  0
   35.9420   28.7980   33.9230 C   0  0  0  0  0  0  0  0  0  0  0  0
   36.7810   28.0440   34.6640 N   0  0  0  0  0  0  0  0  0  0  0  0
   34.9660   29.6810   34.5540 C   0  0  0  0  0  0  0  0  0  0  0  0
   35.1240   30.9130   35.1850 C   0  0  0  0  0  0  0  0  0  0  0  0
   33.8470   31.3170   35.6100 C   0  0  0  0  0  0  0  0  0  0  0  0
   33.0050   30.2920   35.2010 C   0  0  0  0  0  0  0  0  0  0  0  0
   33.6940   29.3600   34.5910 O   0  0  0  0  0  0  0  0  0  0  0  0
   38.5740   25.1650   33.1940 C   0  0  0  0  0  0  0  0  0  0  0  0
   37.2930   21.8070   34.1860 C   0  0  0  0  0  0  0  0  0  0  0  0
   37.4850   21.8510   35.5570 C   0  0  0  0  0  0  0  0  0  0  0  0
   38.0450   23.0100   36.1420 C   0  0  0  0  0  0  0  0  0  0  0  0
   38.3710   24.0410   35.3160 N   0  0  0  0  0  0  0  0  0  0  0  0
   38.1670   23.9610   33.9740 C   0  0  0  0  0  0  0  0  0  0  0  0
   37.6380   22.8710   33.4050 N   0  0  0  0  0  0  0  0  0  0  0  0
   38.2910   23.1570   37.6010 C   0  0  0  0  0  0  0  0  0  0  0  0
   39.7450   22.8930   37.9070 C   0  0  0  0  0  0  0  0  0  0  0  0
   37.9480   24.5500   38.0840 C   0  0  0  0  0  0  0  0  0  0  0  0
   39.6294   26.8462   33.9839 H   0  0  0  0  0  0  0  0  0  0  0  0
   38.5432   25.9970   35.1540 H   0  0  0  0  0  0  0  0  0  0  0  0
   36.0664   31.4632   35.3237 H   0  0  0  0  0  0  0  0  0  0  0  0
   33.5756   32.2383   36.1462 H   0  0  0  0  0  0  0  0  0  0  0  0
   31.9176   30.2662   35.3653 H   0  0  0  0  0  0  0  0  0  0  0  0
   39.5572   24.9894   32.7331 H   0  0  0  0  0  0  0  0  0  0  0  0
   37.8325   25.3620   32.4058 H   0  0  0  0  0  0  0  0  0  0  0  0
   36.8594   20.9080   33.7237 H   0  0  0  0  0  0  0  0  0  0  0  0
   37.2045   20.9924   36.1848 H   0  0  0  0  0  0  0  0  0  0  0  0
   37.6479   22.4295   38.1180 H   0  0  0  0  0  0  0  0  0  0  0  0
   39.8914   22.8664   38.9969 H   0  0  0  0  0  0  0  0  0  0  0  0
   40.0413   21.9264   37.4736 H   0  0  0  0  0  0  0  0  0  0  0  0
   40.3622   23.6938   37.4736 H   0  0  0  0  0  0  0  0  0  0  0  0
   37.9440   24.5661   39.1839 H   0  0  0  0  0  0  0  0  0  0  0  0
   38.6975   25.2628   37.7096 H   0  0  0  0  0  0  0  0  0  0  0  0
   36.9533   24.8333   37.7096 H   0  0  0  0  0  0  0  0  0  0  0  0
  2  1  1  0
  2  6  1  0
  3  4  1  0
  3  2  2  0
  4  5  1  0
  5  7  1  0
  5  6  2  0
  7 11  1  0
  7  8  2  0
  8  9  1  0
 10  9  2  0
 11 10  1  0
 12 17  1  0
 12  1  1  0
 13 14  2  0
 14 15  1  0
 15 19  1  0
 16 15  2  0
 17 16  1  0
 18 17  2  0
 18 13  1  0
 19 20  1  0
 19 21  1  0
  1 22  1  0
  1 23  1  0
  8 24  1  0
  9 25  1  0
 10 26  1  0
 12 27  1  0
 12 28  1  0
 13 29  1  0
 14 30  1  0
 19 31  1  0
 20 32  1  0
 20 33  1  0
 20 34  1  0
 21 35  1  0
 21 36  1  0
 21 37  1  0
M  ISO  8  22   8  23   8  24  14  25  14  26  14  27   8  28   8  29  14
M  ISO  8  30  14  31   8  32   8  33   8  34   8  35   8  36   8  37   8
M  END
>  <minimizedAffinity>  (1) 
-4.78486729

>  <minimizedRMSD>  (1) 
2.58789659

$$$$
