
     RDKit          3D

 34 36  0  0  0  0  0  0  0  0999 V2000
   37.7970   27.4810   35.2320 C   0  0  0  0  0  0  0  0  0  0  0  0
   36.8490   27.8070   34.1170 C   0  0  0  0  0  0  0  0  0  0  0  0
   36.7480   27.1080   32.9780 N   0  0  0  0  0  0  0  0  0  0  0  0
   35.8290   27.6560   32.2200 O   0  0  0  0  0  0  0  0  0  0  0  0
   35.3190   28.6940   32.8160 C   0  0  0  0  0  0  0  0  0  0  0  0
   35.9360   28.8120   34.0000 N   0  0  0  0  0  0  0  0  0  0  0  0
   34.2800   29.6350   32.3990 C   0  0  0  0  0  0  0  0  0  0  0  0
   34.3300   30.7250   31.5480 C   0  0  0  0  0  0  0  0  0  0  0  0
   33.0330   31.2700   31.5100 C   0  0  0  0  0  0  0  0  0  0  0  0
   32.2890   30.4570   32.3490 C   0  0  0  0  0  0  0  0  0  0  0  0
   33.0420   29.5080   32.8560 O   0  0  0  0  0  0  0  0  0  0  0  0
   39.1570   27.1710   34.6880 C   0  0  0  0  0  0  0  0  0  0  0  0
   41.0070   23.9590   35.1600 C   0  0  0  0  0  0  0  0  0  0  0  0
   40.1670   23.3020   36.0720 C   0  0  0  0  0  0  0  0  0  0  0  0
   39.0130   23.9590   36.4960 C   0  0  0  0  0  0  0  0  0  0  0  0
   38.7460   25.2030   36.0110 N   0  0  0  0  0  0  0  0  0  0  0  0
   39.5800   25.8130   35.1280 C   0  0  0  0  0  0  0  0  0  0  0  0
   40.6870   25.1950   34.7160 N   0  0  0  0  0  0  0  0  0  0  0  0
   38.1160   23.2730   37.4610 C   0  0  0  0  0  0  0  0  0  0  0  0
   37.8910   24.1170   38.6700 C   0  0  0  0  0  0  0  0  0  0  0  0
   37.8666   28.3428   35.9120 H   0  0  0  0  0  0  0  0  0  0  0  0
   37.4207   26.6008   35.7739 H   0  0  0  0  0  0  0  0  0  0  0  0
   35.2130   31.0942   31.0059 H   0  0  0  0  0  0  0  0  0  0  0  0
   32.6874   32.1458   30.9412 H   0  0  0  0  0  0  0  0  0  0  0  0
   31.2176   30.5879   32.5609 H   0  0  0  0  0  0  0  0  0  0  0  0
   39.8768   27.9155   35.0589 H   0  0  0  0  0  0  0  0  0  0  0  0
   39.1237   27.2022   33.5889 H   0  0  0  0  0  0  0  0  0  0  0  0
   41.9258   23.4683   34.8064 H   0  0  0  0  0  0  0  0  0  0  0  0
   40.4125   22.2957   36.4423 H   0  0  0  0  0  0  0  0  0  0  0  0
   37.1492   23.0741   36.9755 H   0  0  0  0  0  0  0  0  0  0  0  0
   38.5899   22.3307   37.7731 H   0  0  0  0  0  0  0  0  0  0  0  0
   38.0522   23.5122   39.5746 H   0  0  0  0  0  0  0  0  0  0  0  0
   38.5953   24.9620   38.6635 H   0  0  0  0  0  0  0  0  0  0  0  0
   36.8596   24.4993   38.6635 H   0  0  0  0  0  0  0  0  0  0  0  0
  2  1  1  0
  3  2  2  0
  4  5  1  0
  4  3  1  0
  5  6  2  0
  6  2  1  0
  7  5  1  0
  7 11  1  0
  8  7  2  0
  9  8  1  0
  9 10  2  0
 10 11  1  0
 12 17  1  0
 12  1  1  0
 13 14  2  0
 14 15  1  0
 15 19  1  0
 16 15  2  0
 17 16  1  0
 18 17  2  0
 18 13  1  0
 19 20  1  0
  1 21  1  0
  1 22  1  0
  8 23  1  0
  9 24  1  0
 10 25  1  0
 12 26  1  0
 12 27  1  0
 13 28  1  0
 14 29  1  0
 19 30  1  0
 19 31  1  0
 20 32  1  0
 20 33  1  0
 20 34  1  0
M  ISO  8  21   8  22   8  23  14  24  14  25  14  26   8  27   8  28  14
M  ISO  6  29  14  30   8  31   8  32   8  33   8  34   8
M  END
>  <minimizedAffinity>  (1) 
-4.60217428

>  <minimizedRMSD>  (1) 
1.61005318

$$$$
