
     RDKit          3D

 30 32  0  0  0  0  0  0  0  0999 V2000
   37.6420   27.6080   35.3480 C   0  0  0  0  0  0  0  0  0  0  0  0
   36.7620   27.9640   34.1890 C   0  0  0  0  0  0  0  0  0  0  0  0
   36.8080   27.3580   32.9910 N   0  0  0  0  0  0  0  0  0  0  0  0
   35.9220   27.8880   32.1960 O   0  0  0  0  0  0  0  0  0  0  0  0
   35.2820   28.8410   32.8400 C   0  0  0  0  0  0  0  0  0  0  0  0
   35.7920   28.8990   34.0710 N   0  0  0  0  0  0  0  0  0  0  0  0
   34.2030   29.7380   32.4060 C   0  0  0  0  0  0  0  0  0  0  0  0
   34.2210   30.8130   31.5330 C   0  0  0  0  0  0  0  0  0  0  0  0
   32.8950   31.2950   31.5020 C   0  0  0  0  0  0  0  0  0  0  0  0
   32.1860   30.4850   32.3490 C   0  0  0  0  0  0  0  0  0  0  0  0
   32.9730   29.5680   32.8770 O   0  0  0  0  0  0  0  0  0  0  0  0
   38.8040   26.7670   34.8950 C   0  0  0  0  0  0  0  0  0  0  0  0
   38.2080   23.0870   34.6400 C   0  0  0  0  0  0  0  0  0  0  0  0
   38.0290   22.7520   35.9720 C   0  0  0  0  0  0  0  0  0  0  0  0
   38.1090   23.7680   36.9250 C   0  0  0  0  0  0  0  0  0  0  0  0
   38.3610   25.0470   36.5180 N   0  0  0  0  0  0  0  0  0  0  0  0
   38.5320   25.3360   35.1990 C   0  0  0  0  0  0  0  0  0  0  0  0
   38.4560   24.3640   34.2730 N   0  0  0  0  0  0  0  0  0  0  0  0
   37.9290   23.4740   38.3430 C   0  0  0  0  0  0  0  0  0  0  0  0
   38.8690   23.7140   39.1350 O   0  0  0  0  0  0  0  0  0  0  0  0
   38.0226   28.5312   35.8093 H   0  0  0  0  0  0  0  0  0  0  0  0
   37.0518   27.0325   36.0764 H   0  0  0  0  0  0  0  0  0  0  0  0
   35.0863   31.2078   30.9804 H   0  0  0  0  0  0  0  0  0  0  0  0
   32.5106   32.1447   30.9187 H   0  0  0  0  0  0  0  0  0  0  0  0
   31.1110   30.5853   32.5593 H   0  0  0  0  0  0  0  0  0  0  0  0
   39.7150   27.0867   35.4222 H   0  0  0  0  0  0  0  0  0  0  0  0
   38.9439   26.8903   33.8109 H   0  0  0  0  0  0  0  0  0  0  0  0
   38.1475   22.3033   33.8705 H   0  0  0  0  0  0  0  0  0  0  0  0
   37.8290   21.7124   36.2707 H   0  0  0  0  0  0  0  0  0  0  0  0
   36.9833   23.0486   38.7102 H   0  0  0  0  0  0  0  0  0  0  0  0
  2  1  1  0
  3  2  2  0
  4  5  1  0
  4  3  1  0
  5  6  2  0
  6  2  1  0
  7  5  1  0
  7 11  1  0
  8  7  2  0
  9  8  1  0
  9 10  2  0
 10 11  1  0
 12 17  1  0
 12  1  1  0
 13 14  2  0
 14 15  1  0
 15 19  1  0
 16 15  2  0
 17 16  1  0
 18 13  1  0
 18 17  2  0
 19 20  2  0
  1 21  1  0
  1 22  1  0
  8 23  1  0
  9 24  1  0
 10 25  1  0
 12 26  1  0
 12 27  1  0
 13 28  1  0
 14 29  1  0
 19 30  1  0
M  ISO  8  21   8  22   8  23  14  24  14  25  14  26   8  27   8  28  14
M  ISO  2  29  14  30   6
M  END
>  <minimizedAffinity>  (1) 
-4.60206461

>  <minimizedRMSD>  (1) 
1.43588269

$$$$
