
     RDKit          3D

 29 31  0  0  0  0  0  0  0  0999 V2000
   38.0960   26.8550   35.0520 C   0  0  0  0  0  0  0  0  0  0  0  0
   37.3010   27.4810   33.9560 C   0  0  0  0  0  0  0  0  0  0  0  0
   37.5890   27.3500   32.6350 N   0  0  0  0  0  0  0  0  0  0  0  0
   36.7120   28.0130   31.9270 O   0  0  0  0  0  0  0  0  0  0  0  0
   35.8450   28.5840   32.7300 C   0  0  0  0  0  0  0  0  0  0  0  0
   36.1970   28.2640   33.9910 N   0  0  0  0  0  0  0  0  0  0  0  0
   34.6870   29.4230   32.4510 C   0  0  0  0  0  0  0  0  0  0  0  0
   34.5430   30.5720   31.7120 C   0  0  0  0  0  0  0  0  0  0  0  0
   33.2010   30.9550   31.7870 C   0  0  0  0  0  0  0  0  0  0  0  0
   32.6090   30.0030   32.5770 C   0  0  0  0  0  0  0  0  0  0  0  0
   33.5010   29.1160   32.9540 O   0  0  0  0  0  0  0  0  0  0  0  0
   38.7320   25.5730   34.5780 C   0  0  0  0  0  0  0  0  0  0  0  0
   39.9600   22.8590   36.8270 C   0  0  0  0  0  0  0  0  0  0  0  0
   39.1890   23.0970   37.9580 C   0  0  0  0  0  0  0  0  0  0  0  0
   38.2690   24.1620   37.9530 C   0  0  0  0  0  0  0  0  0  0  0  0
   38.1860   24.9160   36.8120 N   0  0  0  0  0  0  0  0  0  0  0  0
   38.9440   24.6590   35.7360 C   0  0  0  0  0  0  0  0  0  0  0  0
   39.8120   23.6540   35.7460 N   0  0  0  0  0  0  0  0  0  0  0  0
   37.5060   24.3970   39.0750 O   0  0  0  0  0  0  0  0  0  0  0  0
   38.8837   27.5530   35.3718 H   0  0  0  0  0  0  0  0  0  0  0  0
   37.4247   26.6288   35.8935 H   0  0  0  0  0  0  0  0  0  0  0  0
   35.3388   31.0952   31.1616 H   0  0  0  0  0  0  0  0  0  0  0  0
   32.7246   31.8276   31.3162 H   0  0  0  0  0  0  0  0  0  0  0  0
   31.5446   29.9851   32.8539 H   0  0  0  0  0  0  0  0  0  0  0  0
   38.0719   25.0868   33.8446 H   0  0  0  0  0  0  0  0  0  0  0  0
   39.7015   25.7988   34.1100 H   0  0  0  0  0  0  0  0  0  0  0  0
   40.6839   22.0309   36.8125 H   0  0  0  0  0  0  0  0  0  0  0  0
   39.2965   22.4597   38.8481 H   0  0  0  0  0  0  0  0  0  0  0  0
   36.8553   25.1431   39.0838 H   0  0  0  0  0  0  0  0  0  0  0  0
  2  6  1  0
  2  1  1  0
  3  2  2  0
  4  3  1  0
  4  5  1  0
  5  6  2  0
  7  5  1  0
  7 11  1  0
  8  9  1  0
  8  7  2  0
  9 10  2  0
 10 11  1  0
 12  1  1  0
 12 17  1  0
 13 14  2  0
 15 14  1  0
 15 19  1  0
 16 15  2  0
 17 18  2  0
 17 16  1  0
 18 13  1  0
  1 20  1  0
  1 21  1  0
  8 22  1  0
  9 23  1  0
 10 24  1  0
 12 25  1  0
 12 26  1  0
 13 27  1  0
 14 28  1  0
 19 29  1  0
M  ISO  8  20   8  21   8  22  14  23  14  24  14  25   8  26   8  27  14
M  ISO  2  28  14  29   3
M  END
>  <minimizedAffinity>  (1) 
-4.3543582

>  <minimizedRMSD>  (1) 
0.426618755

$$$$
