
     RDKit          3D

 30 32  0  0  0  0  0  0  0  0999 V2000
   38.0590   26.6810   35.2910 C   0  0  0  0  0  0  0  0  0  0  0  0
   37.3930   27.3850   34.1610 C   0  0  0  0  0  0  0  0  0  0  0  0
   37.8430   27.3930   32.8880 N   0  0  0  0  0  0  0  0  0  0  0  0
   37.0370   28.0960   32.1480 O   0  0  0  0  0  0  0  0  0  0  0  0
   36.0650   28.5610   32.8760 C   0  0  0  0  0  0  0  0  0  0  0  0
   36.2630   28.1350   34.1260 N   0  0  0  0  0  0  0  0  0  0  0  0
   34.9090   29.4020   32.5320 C   0  0  0  0  0  0  0  0  0  0  0  0
   34.7750   30.4420   31.6310 C   0  0  0  0  0  0  0  0  0  0  0  0
   33.4400   30.8760   31.7230 C   0  0  0  0  0  0  0  0  0  0  0  0
   32.8630   30.0700   32.6720 C   0  0  0  0  0  0  0  0  0  0  0  0
   33.7430   29.2120   33.1330 O   0  0  0  0  0  0  0  0  0  0  0  0
   39.3500   26.0520   34.8460 C   0  0  0  0  0  0  0  0  0  0  0  0
   40.8520   22.9540   36.3030 C   0  0  0  0  0  0  0  0  0  0  0  0
   39.8680   22.5710   37.2060 C   0  0  0  0  0  0  0  0  0  0  0  0
   38.7270   23.3670   37.2980 C   0  0  0  0  0  0  0  0  0  0  0  0
   38.6260   24.4700   36.5110 N   0  0  0  0  0  0  0  0  0  0  0  0
   39.6080   24.8160   35.6380 C   0  0  0  0  0  0  0  0  0  0  0  0
   40.7050   24.0610   35.5430 N   0  0  0  0  0  0  0  0  0  0  0  0
   37.6840   23.0280   38.2040 N   0  0  0  0  0  0  0  0  0  0  0  0
   38.2686   27.4046   36.0925 H   0  0  0  0  0  0  0  0  0  0  0  0
   37.3889   25.8879   35.6544 H   0  0  0  0  0  0  0  0  0  0  0  0
   35.5568   30.8492   30.9730 H   0  0  0  0  0  0  0  0  0  0  0  0
   32.9611   31.6877   31.1557 H   0  0  0  0  0  0  0  0  0  0  0  0
   31.8147   30.1337   32.9991 H   0  0  0  0  0  0  0  0  0  0  0  0
   39.2820   25.7944   33.7787 H   0  0  0  0  0  0  0  0  0  0  0  0
   40.1742   26.7633   35.0036 H   0  0  0  0  0  0  0  0  0  0  0  0
   41.7641   22.3469   36.2055 H   0  0  0  0  0  0  0  0  0  0  0  0
   39.9851   21.6707   37.8270 H   0  0  0  0  0  0  0  0  0  0  0  0
   36.8438   23.6204   38.2670 H   0  0  0  0  0  0  0  0  0  0  0  0
   37.7691   22.1902   38.7970 H   0  0  0  0  0  0  0  0  0  0  0  0
  2  1  1  0
  3  2  2  0
  4  5  1  0
  4  3  1  0
  5  6  2  0
  6  2  1  0
  7  5  1  0
  7 11  1  0
  8  9  1  0
  8  7  2  0
  9 10  2  0
 10 11  1  0
 12  1  1  0
 12 17  1  0
 13 14  2  0
 14 15  1  0
 15 19  1  0
 16 15  2  0
 17 16  1  0
 18 17  2  0
 18 13  1  0
  1 20  1  0
  1 21  1  0
  8 22  1  0
  9 23  1  0
 10 24  1  0
 12 25  1  0
 12 26  1  0
 13 27  1  0
 14 28  1  0
 19 29  1  0
 19 30  1  0
M  ISO  8  20   8  21   8  22  14  23  14  24  14  25   8  26   8  27  14
M  ISO  1  28  14
M  END
>  <minimizedAffinity>  (1) 
-4.4506402

>  <minimizedRMSD>  (1) 
1.01321375

$$$$
