
     RDKit          3D

 44 47  0  0  0  0  0  0  0  0999 V2000
   41.0710   23.6880   35.4440 C   0  0  0  0  0  0  0  0  0  0  0  0
   40.0400   22.9080   35.9670 C   0  0  0  0  0  0  0  0  0  0  0  0
   38.7810   23.5080   36.1980 C   0  0  0  0  0  0  0  0  0  0  0  0
   38.6390   24.8250   35.8970 N   0  0  0  0  0  0  0  0  0  0  0  0
   39.6630   25.5470   35.3920 C   0  0  0  0  0  0  0  0  0  0  0  0
   40.8620   24.9960   35.1660 N   0  0  0  0  0  0  0  0  0  0  0  0
   39.3500   26.9860   35.1120 C   0  0  0  0  0  0  0  0  0  0  0  0
   37.9380   27.2860   35.5580 C   0  0  0  0  0  0  0  0  0  0  0  0
   37.1000   27.6530   34.3750 C   0  0  0  0  0  0  0  0  0  0  0  0
   37.1910   27.0820   33.1600 N   0  0  0  0  0  0  0  0  0  0  0  0
   36.3290   27.6180   32.3460 O   0  0  0  0  0  0  0  0  0  0  0  0
   35.6510   28.5380   32.9680 C   0  0  0  0  0  0  0  0  0  0  0  0
   36.1230   28.5700   34.2390 N   0  0  0  0  0  0  0  0  0  0  0  0
   34.5830   29.4310   32.5410 C   0  0  0  0  0  0  0  0  0  0  0  0
   34.5870   30.5290   31.6980 C   0  0  0  0  0  0  0  0  0  0  0  0
   33.2840   31.0190   31.6360 C   0  0  0  0  0  0  0  0  0  0  0  0
   32.5550   30.1630   32.4680 C   0  0  0  0  0  0  0  0  0  0  0  0
   33.3480   29.2590   32.9710 O   0  0  0  0  0  0  0  0  0  0  0  0
   37.7220   22.6740   36.7430 C   0  0  0  0  0  0  0  0  0  0  0  0
   36.9890   21.8890   35.7790 N   0  0  0  0  0  0  0  0  0  0  0  0
   37.4600   21.9520   34.5000 C   0  0  0  0  0  0  0  0  0  0  0  0
   36.8820   21.2640   33.4460 C   0  0  0  0  0  0  0  0  0  0  0  0
   37.4450   21.3760   32.0760 C   0  0  0  0  0  0  0  0  0  0  0  0
   35.7830   20.4810   33.6930 C   0  0  0  0  0  0  0  0  0  0  0  0
   35.2160   19.8300   32.7650 O   0  0  0  0  0  0  0  0  0  0  0  0
   35.3350   20.4370   34.9810 N   0  0  0  0  0  0  0  0  0  0  0  0
   35.9140   21.1130   35.9810 C   0  0  0  0  0  0  0  0  0  0  0  0
   35.5080   21.0780   37.1640 O   0  0  0  0  0  0  0  0  0  0  0  0
   42.0574   23.2386   35.2568 H   0  0  0  0  0  0  0  0  0  0  0  0
   40.2036   21.8446   36.1958 H   0  0  0  0  0  0  0  0  0  0  0  0
   40.0533   27.6287   35.6618 H   0  0  0  0  0  0  0  0  0  0  0  0
   39.4449   27.1806   34.0335 H   0  0  0  0  0  0  0  0  0  0  0  0
   37.5122   26.3964   36.0452 H   0  0  0  0  0  0  0  0  0  0  0  0
   37.9522   28.1264   36.2676 H   0  0  0  0  0  0  0  0  0  0  0  0
   35.4611   30.9405   31.1720 H   0  0  0  0  0  0  0  0  0  0  0  0
   32.9133   31.8820   31.0634 H   0  0  0  0  0  0  0  0  0  0  0  0
   31.4761   30.2409   32.6676 H   0  0  0  0  0  0  0  0  0  0  0  0
   38.1752   21.9824   37.4685 H   0  0  0  0  0  0  0  0  0  0  0  0
   36.9910   23.3664   37.1860 H   0  0  0  0  0  0  0  0  0  0  0  0
   38.3406   22.5790   34.2963 H   0  0  0  0  0  0  0  0  0  0  0  0
   38.5221   21.5903   32.1386 H   0  0  0  0  0  0  0  0  0  0  0  0
   37.2901   20.4294   31.5374 H   0  0  0  0  0  0  0  0  0  0  0  0
   36.9397   22.1912   31.5374 H   0  0  0  0  0  0  0  0  0  0  0  0
   34.5118   19.8558   35.1942 H   0  0  0  0  0  0  0  0  0  0  0  0
  1  2  2  0
  2  3  1  0
  3 19  1  0
  4  3  2  0
  5  4  1  0
  6  5  2  0
  6  1  1  0
  7  5  1  0
  7  8  1  0
  9  8  1  0
 10  9  2  0
 11 12  1  0
 11 10  1  0
 12 13  2  0
 13  9  1  0
 14 12  1  0
 14 18  1  0
 15 14  2  0
 16 15  1  0
 16 17  2  0
 17 18  1  0
 20 27  1  0
 20 19  1  0
 21 20  1  0
 22 24  1  0
 22 21  2  0
 23 22  1  0
 24 26  1  0
 25 24  2  0
 26 27  1  0
 27 28  2  0
  1 29  1  0
  2 30  1  0
  7 31  1  0
  7 32  1  0
  8 33  1  0
  8 34  1  0
 15 35  1  0
 16 36  1  0
 17 37  1  0
 19 38  1  0
 19 39  1  0
 21 40  1  0
 23 41  1  0
 23 42  1  0
 23 43  1  0
 26 44  1  0
M  ISO  8  29  14  30  14  31   8  32   8  33   8  34   8  35  14  36  14
M  ISO  8  37  14  38   8  39   8  40  14  41   8  42   8  43   8  44   9
M  END
>  <minimizedAffinity>  (1) 
-6.06759214

>  <minimizedRMSD>  (1) 
1.88916516

$$$$
