
     RDKit          3D

 38 41  0  0  0  0  0  0  0  0999 V2000
   38.9950   26.5210   35.3190 C   0  0  0  0  0  0  0  0  0  0  0  0
   37.6180   23.7230   37.3870 C   0  0  0  0  0  0  0  0  0  0  0  0
   37.6460   22.6780   36.4640 C   0  0  0  0  0  0  0  0  0  0  0  0
   38.1300   22.9310   35.1570 C   0  0  0  0  0  0  0  0  0  0  0  0
   38.5460   24.1910   34.8630 N   0  0  0  0  0  0  0  0  0  0  0  0
   38.5030   25.1850   35.7860 C   0  0  0  0  0  0  0  0  0  0  0  0
   38.0460   24.9650   37.0370 N   0  0  0  0  0  0  0  0  0  0  0  0
   38.1610   21.8400   34.1900 C   0  0  0  0  0  0  0  0  0  0  0  0
   36.9820   21.7580   33.3820 N   0  0  0  0  0  0  0  0  0  0  0  0
   36.7280   22.5600   32.3520 N   0  0  0  0  0  0  0  0  0  0  0  0
   35.5620   22.2550   31.7870 C   0  0  0  0  0  0  0  0  0  0  0  0
   35.0080   21.1870   32.4820 C   0  0  0  0  0  0  0  0  0  0  0  0
   35.9460   20.9110   33.4820 C   0  0  0  0  0  0  0  0  0  0  0  0
   37.9790   27.5730   35.6700 C   0  0  0  0  0  0  0  0  0  0  0  0
   37.1050   27.8910   34.5110 C   0  0  0  0  0  0  0  0  0  0  0  0
   37.2610   27.3620   33.2880 N   0  0  0  0  0  0  0  0  0  0  0  0
   36.3450   27.8310   32.4880 O   0  0  0  0  0  0  0  0  0  0  0  0
   35.5840   28.6530   33.1220 C   0  0  0  0  0  0  0  0  0  0  0  0
   36.0360   28.7130   34.3990 N   0  0  0  0  0  0  0  0  0  0  0  0
   34.4290   29.4430   32.7060 C   0  0  0  0  0  0  0  0  0  0  0  0
   34.3200   30.5210   31.8440 C   0  0  0  0  0  0  0  0  0  0  0  0
   32.9770   30.8960   31.8040 C   0  0  0  0  0  0  0  0  0  0  0  0
   32.3440   29.9980   32.6650 C   0  0  0  0  0  0  0  0  0  0  0  0
   33.2060   29.1680   33.1740 O   0  0  0  0  0  0  0  0  0  0  0  0
   39.1401   26.4990   34.2288 H   0  0  0  0  0  0  0  0  0  0  0  0
   39.9521   26.7539   35.8086 H   0  0  0  0  0  0  0  0  0  0  0  0
   37.2467   23.5409   38.4063 H   0  0  0  0  0  0  0  0  0  0  0  0
   37.2979   21.6735   36.7463 H   0  0  0  0  0  0  0  0  0  0  0  0
   39.0271   21.9864   33.5279 H   0  0  0  0  0  0  0  0  0  0  0  0
   38.2263   20.9028   34.7623 H   0  0  0  0  0  0  0  0  0  0  0  0
   35.1141   22.7613   30.9192 H   0  0  0  0  0  0  0  0  0  0  0  0
   34.0527   20.6766   32.2901 H   0  0  0  0  0  0  0  0  0  0  0  0
   35.8490   20.1178   34.2379 H   0  0  0  0  0  0  0  0  0  0  0  0
   37.3553   27.2059   36.4984 H   0  0  0  0  0  0  0  0  0  0  0  0
   38.5150   28.4885   35.9608 H   0  0  0  0  0  0  0  0  0  0  0  0
   35.1436   30.9959   31.2907 H   0  0  0  0  0  0  0  0  0  0  0  0
   32.5208   31.7131   31.2258 H   0  0  0  0  0  0  0  0  0  0  0  0
   31.2658   29.9931   32.8827 H   0  0  0  0  0  0  0  0  0  0  0  0
  1 14  1  0
  1  6  1  0
  3  2  2  0
  4  3  1  0
  5  4  2  0
  5  6  1  0
  6  7  2  0
  7  2  1  0
  8  4  1  0
  9 13  1  0
  9  8  1  0
 10  9  1  0
 11 10  2  0
 11 12  1  0
 12 13  2  0
 15 14  1  0
 16 15  2  0
 17 18  1  0
 17 16  1  0
 18 19  2  0
 19 15  1  0
 20 18  1  0
 20 24  1  0
 21 20  2  0
 22 21  1  0
 22 23  2  0
 23 24  1  0
  1 25  1  0
  1 26  1  0
  2 27  1  0
  3 28  1  0
  8 29  1  0
  8 30  1  0
 11 31  1  0
 12 32  1  0
 13 33  1  0
 14 34  1  0
 14 35  1  0
 21 36  1  0
 22 37  1  0
 23 38  1  0
M  ISO  8  25   8  26   8  27  14  28  14  29   8  30   8  31  14  32  14
M  ISO  6  33  14  34   8  35   8  36  14  37  14  38  14
M  END
>  <minimizedAffinity>  (1) 
-5.28535175

>  <minimizedRMSD>  (1) 
2.75358963

$$$$
