
     RDKit          3D

 39 42  0  0  0  0  0  0  0  0999 V2000
   39.4780   27.1190   34.8620 C   0  0  0  0  0  0  0  0  0  0  0  0
   41.5480   24.0290   35.2260 C   0  0  0  0  0  0  0  0  0  0  0  0
   40.6350   23.1670   35.8310 C   0  0  0  0  0  0  0  0  0  0  0  0
   39.3420   23.6380   36.1060 C   0  0  0  0  0  0  0  0  0  0  0  0
   39.0270   24.9310   35.7690 N   0  0  0  0  0  0  0  0  0  0  0  0
   39.9580   25.7370   35.1760 C   0  0  0  0  0  0  0  0  0  0  0  0
   41.2030   25.2970   34.9060 N   0  0  0  0  0  0  0  0  0  0  0  0
   38.3800   22.7450   36.7390 C   0  0  0  0  0  0  0  0  0  0  0  0
   37.5060   22.0690   35.7770 C   0  0  0  0  0  0  0  0  0  0  0  0
   37.7840   22.1050   34.4210 C   0  0  0  0  0  0  0  0  0  0  0  0
   36.9980   21.4880   33.4720 C   0  0  0  0  0  0  0  0  0  0  0  0
   35.8820   20.7980   33.8530 N   0  0  0  0  0  0  0  0  0  0  0  0
   35.6260   20.7730   35.1740 C   0  0  0  0  0  0  0  0  0  0  0  0
   36.4000   21.3820   36.1160 N   0  0  0  0  0  0  0  0  0  0  0  0
   38.0750   27.2880   35.3600 C   0  0  0  0  0  0  0  0  0  0  0  0
   37.1380   27.6110   34.2380 C   0  0  0  0  0  0  0  0  0  0  0  0
   37.0640   26.9210   33.0890 N   0  0  0  0  0  0  0  0  0  0  0  0
   36.1540   27.4570   32.3250 O   0  0  0  0  0  0  0  0  0  0  0  0
   35.6150   28.4750   32.9170 C   0  0  0  0  0  0  0  0  0  0  0  0
   36.2190   28.5870   34.1140 N   0  0  0  0  0  0  0  0  0  0  0  0
   34.5690   29.4070   32.5100 C   0  0  0  0  0  0  0  0  0  0  0  0
   34.5950   30.5190   31.6890 C   0  0  0  0  0  0  0  0  0  0  0  0
   33.3120   31.0450   31.6430 C   0  0  0  0  0  0  0  0  0  0  0  0
   32.5740   30.2060   32.4510 C   0  0  0  0  0  0  0  0  0  0  0  0
   33.3300   29.2650   32.9410 O   0  0  0  0  0  0  0  0  0  0  0  0
   40.1321   27.8544   35.3533 H   0  0  0  0  0  0  0  0  0  0  0  0
   39.5011   27.2756   33.7735 H   0  0  0  0  0  0  0  0  0  0  0  0
   42.5650   23.6725   35.0054 H   0  0  0  0  0  0  0  0  0  0  0  0
   40.9226   22.1368   36.0881 H   0  0  0  0  0  0  0  0  0  0  0  0
   38.9318   21.9819   37.3075 H   0  0  0  0  0  0  0  0  0  0  0  0
   37.7399   23.3593   37.3893 H   0  0  0  0  0  0  0  0  0  0  0  0
   38.6764   22.6532   34.0847 H   0  0  0  0  0  0  0  0  0  0  0  0
   37.2691   21.5510   32.4078 H   0  0  0  0  0  0  0  0  0  0  0  0
   34.7348   20.2259   35.5153 H   0  0  0  0  0  0  0  0  0  0  0  0
   37.7500   26.3538   35.8413 H   0  0  0  0  0  0  0  0  0  0  0  0
   38.0582   28.1205   36.0787 H   0  0  0  0  0  0  0  0  0  0  0  0
   35.4768   30.9164   31.1650 H   0  0  0  0  0  0  0  0  0  0  0  0
   32.9633   31.9289   31.0888 H   0  0  0  0  0  0  0  0  0  0  0  0
   31.4984   30.3158   32.6533 H   0  0  0  0  0  0  0  0  0  0  0  0
  1  6  1  0
  1 15  1  0
  2  3  2  0
  3  4  1  0
  4  8  1  0
  5  4  2  0
  6  5  1  0
  7  6  2  0
  7  2  1  0
  9 14  1  0
  9  8  1  0
 10  9  2  0
 11 12  2  0
 11 10  1  0
 12 13  1  0
 13 14  2  0
 16 15  1  0
 17 16  2  0
 18 19  1  0
 18 17  1  0
 19 20  2  0
 20 16  1  0
 21 19  1  0
 21 25  1  0
 22 21  2  0
 23 22  1  0
 23 24  2  0
 24 25  1  0
  1 26  1  0
  1 27  1  0
  2 28  1  0
  3 29  1  0
  8 30  1  0
  8 31  1  0
 10 32  1  0
 11 33  1  0
 13 34  1  0
 15 35  1  0
 15 36  1  0
 22 37  1  0
 23 38  1  0
 24 39  1  0
M  ISO  8  26   8  27   8  28  14  29  14  30   8  31   8  32  14  33  14
M  ISO  6  34  14  35   8  36   8  37  14  38  14  39  14
M  END
>  <minimizedAffinity>  (1) 
-5.18199205

>  <minimizedRMSD>  (1) 
1.62554061

$$$$
