
     RDKit          3D

 38 41  0  0  0  0  0  0  0  0999 V2000
   39.3490   27.1310   35.0080 C   0  0  0  0  0  0  0  0  0  0  0  0
   41.3760   23.9970   35.2510 C   0  0  0  0  0  0  0  0  0  0  0  0
   40.4420   23.1140   35.7780 C   0  0  0  0  0  0  0  0  0  0  0  0
   39.1440   23.5920   36.0430 C   0  0  0  0  0  0  0  0  0  0  0  0
   38.8590   24.9000   35.7700 N   0  0  0  0  0  0  0  0  0  0  0  0
   39.8010   25.7260   35.2560 C   0  0  0  0  0  0  0  0  0  0  0  0
   41.0490   25.2840   34.9970 N   0  0  0  0  0  0  0  0  0  0  0  0
   38.1500   22.6610   36.6020 C   0  0  0  0  0  0  0  0  0  0  0  0
   37.3260   21.9700   35.6570 C   0  0  0  0  0  0  0  0  0  0  0  0
   36.2280   21.1880   35.7630 C   0  0  0  0  0  0  0  0  0  0  0  0
   35.6240   20.6400   34.6620 C   0  0  0  0  0  0  0  0  0  0  0  0
   36.2230   20.9450   33.4070 C   0  0  0  0  0  0  0  0  0  0  0  0
   37.6820   22.0500   33.9080 S   0  0  0  0  0  0  0  0  0  0  0  0
   37.9290   27.2910   35.4670 C   0  0  0  0  0  0  0  0  0  0  0  0
   37.0320   27.6560   34.3180 C   0  0  0  0  0  0  0  0  0  0  0  0
   37.0670   27.0600   33.1140 N   0  0  0  0  0  0  0  0  0  0  0  0
   36.1720   27.5950   32.3330 O   0  0  0  0  0  0  0  0  0  0  0  0
   35.5360   28.5300   32.9730 C   0  0  0  0  0  0  0  0  0  0  0  0
   36.0640   28.5740   34.2050 N   0  0  0  0  0  0  0  0  0  0  0  0
   34.4600   29.4240   32.5720 C   0  0  0  0  0  0  0  0  0  0  0  0
   34.4410   30.5320   31.7680 C   0  0  0  0  0  0  0  0  0  0  0  0
   33.1500   31.0330   31.7030 C   0  0  0  0  0  0  0  0  0  0  0  0
   32.4290   30.1510   32.5140 C   0  0  0  0  0  0  0  0  0  0  0  0
   33.2210   29.2380   32.9940 O   0  0  0  0  0  0  0  0  0  0  0  0
   39.9943   27.8268   35.5643 H   0  0  0  0  0  0  0  0  0  0  0  0
   39.4123   27.3508   33.9320 H   0  0  0  0  0  0  0  0  0  0  0  0
   42.3958   23.6442   35.0374 H   0  0  0  0  0  0  0  0  0  0  0  0
   40.7097   22.0670   35.9833 H   0  0  0  0  0  0  0  0  0  0  0  0
   38.6919   21.9054   37.1896 H   0  0  0  0  0  0  0  0  0  0  0  0
   37.4613   23.2856   37.1899 H   0  0  0  0  0  0  0  0  0  0  0  0
   35.8085   20.9864   36.7597 H   0  0  0  0  0  0  0  0  0  0  0  0
   34.7307   20.0032   34.7428 H   0  0  0  0  0  0  0  0  0  0  0  0
   35.9173   20.6217   32.4010 H   0  0  0  0  0  0  0  0  0  0  0  0
   37.5837   26.3436   35.9066 H   0  0  0  0  0  0  0  0  0  0  0  0
   37.8898   28.0979   36.2136 H   0  0  0  0  0  0  0  0  0  0  0  0
   35.3146   30.9586   31.2534 H   0  0  0  0  0  0  0  0  0  0  0  0
   32.7828   31.9096   31.1492 H   0  0  0  0  0  0  0  0  0  0  0  0
   31.3499   30.2194   32.7163 H   0  0  0  0  0  0  0  0  0  0  0  0
  1  6  1  0
  1 14  1  0
  2  3  2  0
  3  4  1  0
  4  8  1  0
  5  4  2  0
  6  5  1  0
  7  2  1  0
  7  6  2  0
  9 10  2  0
  9  8  1  0
 11 10  1  0
 12 13  1  0
 12 11  2  0
 13  9  1  0
 15 14  1  0
 16 15  2  0
 17 18  1  0
 17 16  1  0
 18 19  2  0
 19 15  1  0
 20 18  1  0
 20 24  1  0
 21 20  2  0
 22 21  1  0
 22 23  2  0
 23 24  1  0
  1 25  1  0
  1 26  1  0
  2 27  1  0
  3 28  1  0
  8 29  1  0
  8 30  1  0
 10 31  1  0
 11 32  1  0
 12 33  1  0
 14 34  1  0
 14 35  1  0
 21 36  1  0
 22 37  1  0
 23 38  1  0
M  ISO  8  25   8  26   8  27  14  28  14  29   8  30   8  31  14  32  14
M  ISO  6  33  14  34   8  35   8  36  14  37  14  38  14
M  END
>  <minimizedAffinity>  (1) 
-5.144104

>  <minimizedRMSD>  (1) 
1.64606261

$$$$
