
     RDKit          3D

 45 49  0  0  0  0  0  0  0  0999 V2000
   38.0420   25.4220   35.0550 C   0  0  0  0  0  0  0  0  0  0  0  0
   38.0770   24.0770   38.5220 C   0  0  0  0  0  0  0  0  0  0  0  0
   39.0840   23.1230   38.4440 C   0  0  0  0  0  0  0  0  0  0  0  0
   39.7290   22.9560   37.2150 C   0  0  0  0  0  0  0  0  0  0  0  0
   39.3580   23.7160   36.1660 N   0  0  0  0  0  0  0  0  0  0  0  0
   38.3580   24.6500   36.2800 C   0  0  0  0  0  0  0  0  0  0  0  0
   37.7310   24.8250   37.4380 N   0  0  0  0  0  0  0  0  0  0  0  0
   40.7920   21.9500   37.1290 C   0  0  0  0  0  0  0  0  0  0  0  0
   42.1180   22.5310   36.7800 C   0  0  0  0  0  0  0  0  0  0  0  0
   42.6650   22.4640   35.4220 C   0  0  0  0  0  0  0  0  0  0  0  0
   43.1850   21.4760   36.4350 C   0  0  0  0  0  0  0  0  0  0  0  0
   37.6160   26.8140   35.4060 C   0  0  0  0  0  0  0  0  0  0  0  0
   37.1760   27.5750   34.1940 C   0  0  0  0  0  0  0  0  0  0  0  0
   36.0990   28.3630   34.1630 N   0  0  0  0  0  0  0  0  0  0  0  0
   35.9800   28.8840   32.9740 O   0  0  0  0  0  0  0  0  0  0  0  0
   36.9460   28.4700   32.2080 C   0  0  0  0  0  0  0  0  0  0  0  0
   37.7120   27.6410   32.9660 N   0  0  0  0  0  0  0  0  0  0  0  0
   37.2740   28.7390   30.8310 C   0  0  0  0  0  0  0  0  0  0  0  0
   37.8380   27.9740   29.8320 C   0  0  0  0  0  0  0  0  0  0  0  0
   37.9230   28.7480   28.6900 C   0  0  0  0  0  0  0  0  0  0  0  0
   37.3940   29.9770   29.0560 C   0  0  0  0  0  0  0  0  0  0  0  0
   37.0340   29.9250   30.2940 O   0  0  0  0  0  0  0  0  0  0  0  0
   37.2720   31.1010   28.1970 N   0  0  0  0  0  0  0  0  0  0  0  0
   37.8700   30.9700   27.0150 N   0  0  0  0  0  0  0  0  0  0  0  0
   37.6910   32.0980   26.2800 C   0  0  0  0  0  0  0  0  0  0  0  0
   36.9420   32.9330   27.0920 C   0  0  0  0  0  0  0  0  0  0  0  0
   36.6820   32.3050   28.2900 C   0  0  0  0  0  0  0  0  0  0  0  0
   37.2276   24.9207   34.5115 H   0  0  0  0  0  0  0  0  0  0  0  0
   38.9428   25.4742   34.4259 H   0  0  0  0  0  0  0  0  0  0  0  0
   37.5504   24.2307   39.4754 H   0  0  0  0  0  0  0  0  0  0  0  0
   39.3643   22.5194   39.3198 H   0  0  0  0  0  0  0  0  0  0  0  0
   40.8761   21.4452   38.1027 H   0  0  0  0  0  0  0  0  0  0  0  0
   40.5181   21.2506   36.3253 H   0  0  0  0  0  0  0  0  0  0  0  0
   41.9854   23.3765   37.4711 H   0  0  0  0  0  0  0  0  0  0  0  0
   43.3223   23.2686   35.0607 H   0  0  0  0  0  0  0  0  0  0  0  0
   42.2168   22.3681   34.4220 H   0  0  0  0  0  0  0  0  0  0  0  0
   42.9141   20.4122   36.3652 H   0  0  0  0  0  0  0  0  0  0  0  0
   44.1716   21.1891   36.8278 H   0  0  0  0  0  0  0  0  0  0  0  0
   36.7800   26.7629   36.1190 H   0  0  0  0  0  0  0  0  0  0  0  0
   38.4765   27.3371   35.8485 H   0  0  0  0  0  0  0  0  0  0  0  0
   38.1641   26.9278   29.9275 H   0  0  0  0  0  0  0  0  0  0  0  0
   38.3220   28.4543   27.7079 H   0  0  0  0  0  0  0  0  0  0  0  0
   38.0596   32.3030   25.2641 H   0  0  0  0  0  0  0  0  0  0  0  0
   36.6056   33.9447   26.8213 H   0  0  0  0  0  0  0  0  0  0  0  0
   36.1123   32.7042   29.1421 H   0  0  0  0  0  0  0  0  0  0  0  0
  1 12  1  0
  1  6  1  0
  3  2  2  0
  4  3  1  0
  5  6  1  0
  5  4  2  0
  6  7  2  0
  7  2  1  0
  8  4  1  0
  9  8  1  0
 10 11  1  0
 10  9  1  0
 11  9  1  0
 13 12  1  0
 14 13  2  0
 15 14  1  0
 16 17  2  0
 16 15  1  0
 17 13  1  0
 18 16  1  0
 19 18  2  0
 20 21  2  0
 20 19  1  0
 21 22  1  0
 22 18  1  0
 23 27  1  0
 23 21  1  0
 24 23  1  0
 25 24  2  0
 25 26  1  0
 26 27  2  0
  1 28  1  0
  1 29  1  0
  2 30  1  0
  3 31  1  0
  8 32  1  0
  8 33  1  0
  9 34  1  0
 10 35  1  0
 10 36  1  0
 11 37  1  0
 11 38  1  0
 12 39  1  0
 12 40  1  0
 19 41  1  0
 20 42  1  0
 25 43  1  0
 26 44  1  0
 27 45  1  0
M  ISO  8  28   8  29   8  30  14  31  14  32   8  33   8  34  13  35  13
M  ISO  8  36  13  37  13  38  13  39   8  40   8  41  14  42  14  43  14
M  ISO  2  44  14  45  14
M  END
>  <minimizedAffinity>  (1) 
-5.20631838

>  <minimizedRMSD>  (1) 
0.902365148

$$$$
