
     RDKit          3D

 44 48  0  0  0  0  0  0  0  0999 V2000
   37.9840   25.3920   35.0010 C   0  0  0  0  0  0  0  0  0  0  0  0
   38.0990   24.0130   38.4650 C   0  0  0  0  0  0  0  0  0  0  0  0
   39.1400   23.0880   38.3470 C   0  0  0  0  0  0  0  0  0  0  0  0
   39.7650   22.9570   37.1180 C   0  0  0  0  0  0  0  0  0  0  0  0
   39.3410   23.7310   36.0870 N   0  0  0  0  0  0  0  0  0  0  0  0
   38.3210   24.6270   36.2280 C   0  0  0  0  0  0  0  0  0  0  0  0
   37.7120   24.7640   37.4000 N   0  0  0  0  0  0  0  0  0  0  0  0
   40.8570   21.9860   36.9990 C   0  0  0  0  0  0  0  0  0  0  0  0
   42.1830   22.6220   36.7390 C   0  0  0  0  0  0  0  0  0  0  0  0
   42.7860   22.6600   35.4030 C   0  0  0  0  0  0  0  0  0  0  0  0
   43.2710   21.6030   36.3640 C   0  0  0  0  0  0  0  0  0  0  0  0
   37.5430   26.7810   35.3780 C   0  0  0  0  0  0  0  0  0  0  0  0
   37.1440   27.5600   34.1640 C   0  0  0  0  0  0  0  0  0  0  0  0
   36.0900   28.3880   34.1420 N   0  0  0  0  0  0  0  0  0  0  0  0
   35.9920   28.9220   32.9600 O   0  0  0  0  0  0  0  0  0  0  0  0
   36.9440   28.4830   32.1870 C   0  0  0  0  0  0  0  0  0  0  0  0
   37.6850   27.6230   32.9230 N   0  0  0  0  0  0  0  0  0  0  0  0
   37.2820   28.7600   30.7990 C   0  0  0  0  0  0  0  0  0  0  0  0
   37.8600   27.9710   29.8290 C   0  0  0  0  0  0  0  0  0  0  0  0
   37.9500   28.7480   28.6760 C   0  0  0  0  0  0  0  0  0  0  0  0
   37.4050   29.9970   29.0330 C   0  0  0  0  0  0  0  0  0  0  0  0
   37.0250   29.9640   30.2840 O   0  0  0  0  0  0  0  0  0  0  0  0
   37.3260   31.0660   28.0960 N   0  0  0  0  0  0  0  0  0  0  0  0
   36.7480   32.2200   28.4910 C   0  0  0  0  0  0  0  0  0  0  0  0
   36.7790   33.0960   27.4510 N   0  0  0  0  0  0  0  0  0  0  0  0
   37.3820   32.4660   26.4170 C   0  0  0  0  0  0  0  0  0  0  0  0
   37.7110   31.2130   26.8410 N   0  0  0  0  0  0  0  0  0  0  0  0
   37.1704   24.8826   34.4637 H   0  0  0  0  0  0  0  0  0  0  0  0
   38.8709   25.4532   34.3532 H   0  0  0  0  0  0  0  0  0  0  0  0
   37.5869   24.1348   39.4309 H   0  0  0  0  0  0  0  0  0  0  0  0
   39.4548   22.4798   39.2078 H   0  0  0  0  0  0  0  0  0  0  0  0
   40.9209   21.4148   37.9369 H   0  0  0  0  0  0  0  0  0  0  0  0
   40.6289   21.3410   36.1377 H   0  0  0  0  0  0  0  0  0  0  0  0
   42.0094   23.4202   37.4757 H   0  0  0  0  0  0  0  0  0  0  0  0
   43.4507   23.4928   35.1299 H   0  0  0  0  0  0  0  0  0  0  0  0
   42.3813   22.6360   34.3804 H   0  0  0  0  0  0  0  0  0  0  0  0
   43.0125   20.5456   36.2054 H   0  0  0  0  0  0  0  0  0  0  0  0
   44.2426   21.2938   36.7768 H   0  0  0  0  0  0  0  0  0  0  0  0
   36.6838   26.7135   36.0616 H   0  0  0  0  0  0  0  0  0  0  0  0
   38.3823   27.2966   35.8675 H   0  0  0  0  0  0  0  0  0  0  0  0
   38.1878   26.9272   29.9429 H   0  0  0  0  0  0  0  0  0  0  0  0
   38.3581   28.4506   27.6988 H   0  0  0  0  0  0  0  0  0  0  0  0
   36.3235   32.4185   29.4862 H   0  0  0  0  0  0  0  0  0  0  0  0
   37.5718   32.8870   25.4186 H   0  0  0  0  0  0  0  0  0  0  0  0
  1 12  1  0
  1  6  1  0
  3  2  2  0
  4  3  1  0
  5  6  1  0
  5  4  2  0
  6  7  2  0
  7  2  1  0
  8  4  1  0
  9  8  1  0
 10 11  1  0
 10  9  1  0
 11  9  1  0
 13 12  1  0
 14 13  2  0
 15 14  1  0
 16 17  2  0
 16 15  1  0
 17 13  1  0
 18 16  1  0
 19 18  2  0
 20 21  2  0
 20 19  1  0
 21 22  1  0
 22 18  1  0
 23 24  1  0
 23 21  1  0
 25 24  2  0
 26 27  2  0
 26 25  1  0
 27 23  1  0
  1 28  1  0
  1 29  1  0
  2 30  1  0
  3 31  1  0
  8 32  1  0
  8 33  1  0
  9 34  1  0
 10 35  1  0
 10 36  1  0
 11 37  1  0
 11 38  1  0
 12 39  1  0
 12 40  1  0
 19 41  1  0
 20 42  1  0
 24 43  1  0
 26 44  1  0
M  ISO  8  28   8  29   8  30  14  31  14  32   8  33   8  34  13  35  13
M  ISO  8  36  13  37  13  38  13  39   8  40   8  41  14  42  14  43  14
M  ISO  1  44  14
M  END
>  <minimizedAffinity>  (1) 
-5.17427731

>  <minimizedRMSD>  (1) 
1.17198861

$$$$
