
     RDKit          3D

 46 50  0  0  0  0  0  0  0  0999 V2000
   38.2260   25.3150   34.9690 C   0  0  0  0  0  0  0  0  0  0  0  0
   37.9700   24.1950   38.5230 C   0  0  0  0  0  0  0  0  0  0  0  0
   38.9810   23.2270   38.5690 C   0  0  0  0  0  0  0  0  0  0  0  0
   39.7150   22.9810   37.4090 C   0  0  0  0  0  0  0  0  0  0  0  0
   39.4110   23.6940   36.2920 N   0  0  0  0  0  0  0  0  0  0  0  0
   38.4230   24.6300   36.2760 C   0  0  0  0  0  0  0  0  0  0  0  0
   37.7170   24.8720   37.3760 N   0  0  0  0  0  0  0  0  0  0  0  0
   40.7700   21.9690   37.4590 C   0  0  0  0  0  0  0  0  0  0  0  0
   41.8980   22.2680   36.5220 C   0  0  0  0  0  0  0  0  0  0  0  0
   42.1630   21.4430   35.3390 C   0  0  0  0  0  0  0  0  0  0  0  0
   43.0260   21.2260   36.5660 C   0  0  0  0  0  0  0  0  0  0  0  0
   37.2640   26.4460   35.1320 C   0  0  0  0  0  0  0  0  0  0  0  0
   37.1740   27.2590   33.8740 C   0  0  0  0  0  0  0  0  0  0  0  0
   36.3120   28.2710   33.7130 N   0  0  0  0  0  0  0  0  0  0  0  0
   36.4660   28.7820   32.5290 O   0  0  0  0  0  0  0  0  0  0  0  0
   37.3930   28.1570   31.8870 C   0  0  0  0  0  0  0  0  0  0  0  0
   37.8570   27.1900   32.7210 N   0  0  0  0  0  0  0  0  0  0  0  0
   37.9510   28.3220   30.5590 C   0  0  0  0  0  0  0  0  0  0  0  0
   38.7640   27.5060   29.7920 C   0  0  0  0  0  0  0  0  0  0  0  0
   38.9910   28.1710   28.5840 C   0  0  0  0  0  0  0  0  0  0  0  0
   38.2900   29.3660   28.7050 C   0  0  0  0  0  0  0  0  0  0  0  0
   37.6960   29.4290   29.8580 O   0  0  0  0  0  0  0  0  0  0  0  0
   38.2250   30.4130   27.6780 C   0  0  0  0  0  0  0  0  0  0  0  0
   39.2320   30.4640   26.7330 C   0  0  0  0  0  0  0  0  0  0  0  0
   39.1020   31.4850   25.7900 C   0  0  0  0  0  0  0  0  0  0  0  0
   38.0770   32.3620   25.7920 N   0  0  0  0  0  0  0  0  0  0  0  0
   37.1240   32.2760   26.7250 C   0  0  0  0  0  0  0  0  0  0  0  0
   37.2130   31.2960   27.6620 N   0  0  0  0  0  0  0  0  0  0  0  0
   37.8261   24.5977   34.2371 H   0  0  0  0  0  0  0  0  0  0  0  0
   39.1909   25.7064   34.6143 H   0  0  0  0  0  0  0  0  0  0  0  0
   37.3766   24.4077   39.4245 H   0  0  0  0  0  0  0  0  0  0  0  0
   39.1909   22.6746   39.4968 H   0  0  0  0  0  0  0  0  0  0  0  0
   41.1661   21.9231   38.4842 H   0  0  0  0  0  0  0  0  0  0  0  0
   40.3270   21.0100   37.1524 H   0  0  0  0  0  0  0  0  0  0  0  0
   41.7763   23.3552   36.6367 H   0  0  0  0  0  0  0  0  0  0  0  0
   41.4382   20.6715   35.0398 H   0  0  0  0  0  0  0  0  0  0  0  0
   42.3754   21.6645   34.2827 H   0  0  0  0  0  0  0  0  0  0  0  0
   44.0788   21.5447   36.5699 H   0  0  0  0  0  0  0  0  0  0  0  0
   43.2921   20.3726   37.2070 H   0  0  0  0  0  0  0  0  0  0  0  0
   36.2695   26.0411   35.3709 H   0  0  0  0  0  0  0  0  0  0  0  0
   37.6203   27.0956   35.9451 H   0  0  0  0  0  0  0  0  0  0  0  0
   39.1575   26.5197   30.0791 H   0  0  0  0  0  0  0  0  0  0  0  0
   39.5903   27.8262   27.7285 H   0  0  0  0  0  0  0  0  0  0  0  0
   40.0721   29.7540   26.7245 H   0  0  0  0  0  0  0  0  0  0  0  0
   39.8710   31.5788   25.0091 H   0  0  0  0  0  0  0  0  0  0  0  0
   36.2833   32.9853   26.7342 H   0  0  0  0  0  0  0  0  0  0  0  0
  1 12  1  0
  1  6  1  0
  2  3  2  0
  4  8  1  0
  4  3  1  0
  5  4  2  0
  6  5  1  0
  6  7  2  0
  7  2  1  0
  9 11  1  0
  9  8  1  0
 10  9  1  0
 10 11  1  0
 13 12  1  0
 14 13  2  0
 15 14  1  0
 16 15  1  0
 16 17  2  0
 17 13  1  0
 18 16  1  0
 19 18  2  0
 20 21  2  0
 20 19  1  0
 21 22  1  0
 22 18  1  0
 23 21  1  0
 24 23  2  0
 25 26  2  0
 25 24  1  0
 26 27  1  0
 27 28  2  0
 28 23  1  0
  1 29  1  0
  1 30  1  0
  2 31  1  0
  3 32  1  0
  8 33  1  0
  8 34  1  0
  9 35  1  0
 10 36  1  0
 10 37  1  0
 11 38  1  0
 11 39  1  0
 12 40  1  0
 12 41  1  0
 19 42  1  0
 20 43  1  0
 24 44  1  0
 25 45  1  0
 27 46  1  0
M  ISO  8  29   8  30   8  31  14  32  14  33   8  34   8  35  13  36  13
M  ISO  8  37  13  38  13  39  13  40   8  41   8  42  14  43  14  44  14
M  ISO  2  45  14  46  14
M  END
>  <minimizedAffinity>  (1) 
-5.17667723

>  <minimizedRMSD>  (1) 
1.00987101

$$$$
