
     RDKit          3D

 42 45  0  0  0  0  0  0  0  0999 V2000
   39.4960   23.2510   35.7260 C   0  0  0  0  0  0  0  0  0  0  0  0
   38.7580   22.0730   35.6440 C   0  0  0  0  0  0  0  0  0  0  0  0
   37.7900   21.9530   34.6120 C   0  0  0  0  0  0  0  0  0  0  0  0
   37.6500   22.9980   33.7730 N   0  0  0  0  0  0  0  0  0  0  0  0
   38.4000   24.1240   33.9020 C   0  0  0  0  0  0  0  0  0  0  0  0
   39.3210   24.2620   34.8690 N   0  0  0  0  0  0  0  0  0  0  0  0
   38.1420   25.1480   32.9390 N   0  0  0  0  0  0  0  0  0  0  0  0
   36.9920   25.9640   32.9920 C   0  0  0  0  0  0  0  0  0  0  0  0
   37.1790   27.3980   32.6290 C   0  0  0  0  0  0  0  0  0  0  0  0
   38.3560   27.7180   31.7840 C   0  0  0  0  0  0  0  0  0  0  0  0
   39.5660   26.8460   32.0860 C   0  0  0  0  0  0  0  0  0  0  0  0
   39.0600   25.4150   31.8320 C   0  0  0  0  0  0  0  0  0  0  0  0
   40.5030   23.3960   36.7910 C   0  0  0  0  0  0  0  0  0  0  0  0
   41.8610   23.2110   36.3070 N   0  0  0  0  0  0  0  0  0  0  0  0
   42.7120   24.0310   35.6680 C   0  0  0  0  0  0  0  0  0  0  0  0
   43.8780   23.4030   35.4190 N   0  0  0  0  0  0  0  0  0  0  0  0
   43.7800   22.1440   35.9100 C   0  0  0  0  0  0  0  0  0  0  0  0
   44.6830   21.0910   35.9200 C   0  0  0  0  0  0  0  0  0  0  0  0
   45.8290   21.1690   35.4270 O   0  0  0  0  0  0  0  0  0  0  0  0
   44.2650   19.9470   36.4990 N   0  0  0  0  0  0  0  0  0  0  0  0
   43.0270   19.7960   37.0550 C   0  0  0  0  0  0  0  0  0  0  0  0
   42.6430   18.5580   37.6540 N   0  0  0  0  0  0  0  0  0  0  0  0
   42.1850   20.8400   37.0240 N   0  0  0  0  0  0  0  0  0  0  0  0
   42.5190   22.0330   36.4610 C   0  0  0  0  0  0  0  0  0  0  0  0
   38.9209   21.2551   36.3613 H   0  0  0  0  0  0  0  0  0  0  0  0
   37.1797   21.0445   34.5021 H   0  0  0  0  0  0  0  0  0  0  0  0
   36.2478   25.5386   32.3026 H   0  0  0  0  0  0  0  0  0  0  0  0
   36.6850   25.9677   34.0483 H   0  0  0  0  0  0  0  0  0  0  0  0
   36.2795   27.7259   32.0874 H   0  0  0  0  0  0  0  0  0  0  0  0
   37.3536   27.9195   33.5816 H   0  0  0  0  0  0  0  0  0  0  0  0
   38.6320   28.7694   31.9527 H   0  0  0  0  0  0  0  0  0  0  0  0
   38.0693   27.5285   30.7391 H   0  0  0  0  0  0  0  0  0  0  0  0
   40.4026   27.0907   31.4150 H   0  0  0  0  0  0  0  0  0  0  0  0
   39.9475   26.9871   33.1080 H   0  0  0  0  0  0  0  0  0  0  0  0
   38.5341   25.3542   30.8678 H   0  0  0  0  0  0  0  0  0  0  0  0
   39.8806   24.6840   31.7842 H   0  0  0  0  0  0  0  0  0  0  0  0
   40.4171   24.4045   37.2217 H   0  0  0  0  0  0  0  0  0  0  0  0
   40.3082   22.6156   37.5414 H   0  0  0  0  0  0  0  0  0  0  0  0
   42.4881   25.0707   35.3871 H   0  0  0  0  0  0  0  0  0  0  0  0
   44.9126   19.1464   36.5230 H   0  0  0  0  0  0  0  0  0  0  0  0
   41.7064   18.4559   38.0703 H   0  0  0  0  0  0  0  0  0  0  0  0
   43.3026   17.7671   37.6698 H   0  0  0  0  0  0  0  0  0  0  0  0
  1 13  1  0
  2  1  2  0
  3  2  1  0
  4  5  1  0
  4  3  2  0
  5  6  2  0
  6  1  1  0
  7  8  1  0
  7  5  1  0
  9  8  1  0
 10 11  1  0
 10  9  1  0
 12 11  1  0
 12  7  1  0
 14 24  1  0
 14 13  1  0
 15 14  1  0
 16 15  2  0
 16 17  1  0
 17 18  1  0
 17 24  2  0
 18 20  1  0
 19 18  2  0
 20 21  1  0
 21 22  1  0
 23 21  2  0
 24 23  1  0
  2 25  1  0
  3 26  1  0
  8 27  1  0
  8 28  1  0
  9 29  1  0
  9 30  1  0
 10 31  1  0
 10 32  1  0
 11 33  1  0
 11 34  1  0
 12 35  1  0
 12 36  1  0
 13 37  1  0
 13 38  1  0
 15 39  1  0
 20 40  1  0
 22 41  1  0
 22 42  1  0
M  ISO  8  25  14  26  14  27  13  28  13  29  13  30  13  31  13  32  13
M  ISO  8  33  13  34  13  35  13  36  13  37   8  38   8  39  14  40   9
M  END
>  <minimizedAffinity>  (1) 
-4.8300004

>  <minimizedRMSD>  (1) 
3.84002709

$$$$
