
     RDKit          3D

 35 37  0  0  0  0  0  0  0  0999 V2000
   38.1820   22.4540   34.0480 C   0  0  0  0  0  0  0  0  0  0  0  0
   37.2620   21.5020   33.6310 C   0  0  0  0  0  0  0  0  0  0  0  0
   36.3630   21.8430   32.6040 C   0  0  0  0  0  0  0  0  0  0  0  0
   36.4580   23.0880   32.0890 N   0  0  0  0  0  0  0  0  0  0  0  0
   37.3700   23.9860   32.5220 C   0  0  0  0  0  0  0  0  0  0  0  0
   38.2420   23.6850   33.5050 N   0  0  0  0  0  0  0  0  0  0  0  0
   37.3490   25.2590   31.8820 N   0  0  0  0  0  0  0  0  0  0  0  0
   36.3340   26.2220   32.1750 C   0  0  0  0  0  0  0  0  0  0  0  0
   36.7620   27.6450   32.2320 C   0  0  0  0  0  0  0  0  0  0  0  0
   38.0370   27.9840   31.5390 C   0  0  0  0  0  0  0  0  0  0  0  0
   39.0590   26.8510   31.5440 C   0  0  0  0  0  0  0  0  0  0  0  0
   38.3350   25.6580   30.9090 C   0  0  0  0  0  0  0  0  0  0  0  0
   39.1530   22.1380   35.1300 C   0  0  0  0  0  0  0  0  0  0  0  0
   38.7070   22.6770   36.4060 N   0  0  0  0  0  0  0  0  0  0  0  0
   37.5250   23.0310   36.8490 N   0  0  0  0  0  0  0  0  0  0  0  0
   37.6220   23.4840   38.1270 C   0  0  0  0  0  0  0  0  0  0  0  0
   38.9570   23.4160   38.5280 C   0  0  0  0  0  0  0  0  0  0  0  0
   39.5890   22.9020   37.4060 C   0  0  0  0  0  0  0  0  0  0  0  0
   37.2364   20.5040   34.0929 H   0  0  0  0  0  0  0  0  0  0  0  0
   35.6144   21.1260   32.2360 H   0  0  0  0  0  0  0  0  0  0  0  0
   35.5597   26.1374   31.3983 H   0  0  0  0  0  0  0  0  0  0  0  0
   35.9914   25.9815   33.1922 H   0  0  0  0  0  0  0  0  0  0  0  0
   35.9641   28.2524   31.7798 H   0  0  0  0  0  0  0  0  0  0  0  0
   36.9455   27.8514   33.2968 H   0  0  0  0  0  0  0  0  0  0  0  0
   38.4830   28.8560   32.0397 H   0  0  0  0  0  0  0  0  0  0  0  0
   37.7868   28.1860   30.4871 H   0  0  0  0  0  0  0  0  0  0  0  0
   39.9437   27.1262   30.9510 H   0  0  0  0  0  0  0  0  0  0  0  0
   39.4173   26.6234   32.5588 H   0  0  0  0  0  0  0  0  0  0  0  0
   37.8505   25.9563   29.9676 H   0  0  0  0  0  0  0  0  0  0  0  0
   39.0264   24.8390   30.6617 H   0  0  0  0  0  0  0  0  0  0  0  0
   39.2526   21.0459   35.2161 H   0  0  0  0  0  0  0  0  0  0  0  0
   40.1209   22.5949   34.8761 H   0  0  0  0  0  0  0  0  0  0  0  0
   36.7857   23.8449   38.7437 H   0  0  0  0  0  0  0  0  0  0  0  0
   39.3985   23.6999   39.4947 H   0  0  0  0  0  0  0  0  0  0  0  0
   40.6687   22.7029   37.3381 H   0  0  0  0  0  0  0  0  0  0  0  0
  1 13  1  0
  2  1  2  0
  3  2  1  0
  4  5  1  0
  4  3  2  0
  5  6  2  0
  6  1  1  0
  7  8  1  0
  7  5  1  0
  8  9  1  0
 10 11  1  0
 10  9  1  0
 12 11  1  0
 12  7  1  0
 13 14  1  0
 14 15  1  0
 14 18  1  0
 15 16  2  0
 16 17  1  0
 18 17  2  0
  2 19  1  0
  3 20  1  0
  8 21  1  0
  8 22  1  0
  9 23  1  0
  9 24  1  0
 10 25  1  0
 10 26  1  0
 11 27  1  0
 11 28  1  0
 12 29  1  0
 12 30  1  0
 13 31  1  0
 13 32  1  0
 16 33  1  0
 17 34  1  0
 18 35  1  0
M  ISO  8  19  14  20  14  21  13  22  13  23  13  24  13  25  13  26  13
M  ISO  8  27  13  28  13  29  13  30  13  31   8  32   8  33  14  34  14
M  ISO  1  35  14
M  END
>  <minimizedAffinity>  (1) 
-4.57293224

>  <minimizedRMSD>  (1) 
4.25688982

$$$$
