
     RDKit          3D

 37 40  0  0  1  0  0  0  0  0999 V2000
   39.0170   23.1350   38.0230 C   0  0  0  0  0  0  0  0  0  0  0  0
   38.5230   23.9630   37.0210 C   0  0  0  0  0  0  0  0  0  0  0  0
   39.3330   24.2260   35.9100 C   0  0  0  0  0  0  0  0  0  0  0  0
   40.5610   23.6650   35.8580 N   0  0  0  0  0  0  0  0  0  0  0  0
   41.0170   22.8680   36.8410 C   0  0  0  0  0  0  0  0  0  0  0  0
   40.2520   22.5990   37.9220 N   0  0  0  0  0  0  0  0  0  0  0  0
   38.9860   25.0470   34.7970 N   0  0  0  0  0  0  0  0  0  0  0  0
   39.2440   26.4820   34.7340 C   0  0  2  0  0  0  0  0  0  0  0  0
   37.9420   27.2090   34.5450 C   0  0  0  0  0  0  0  0  0  0  0  0
   36.9040   26.3060   34.2360 O   0  0  0  0  0  0  0  0  0  0  0  0
   37.2950   25.5390   33.1260 C   0  0  0  0  0  0  0  0  0  0  0  0
   38.3330   24.5350   33.6030 C   0  0  0  0  0  0  0  0  0  0  0  0
   40.2640   26.8250   33.7950 N   0  0  0  0  0  0  0  0  0  0  0  0
   41.5800   26.8240   34.0230 C   0  0  0  0  0  0  0  0  0  0  0  0
   42.2200   27.2070   32.8860 N   0  0  0  0  0  0  0  0  0  0  0  0
   41.2710   27.4470   31.9350 C   0  0  0  0  0  0  0  0  0  0  0  0
   41.4010   27.8560   30.6240 C   0  0  0  0  0  0  0  0  0  0  0  0
   42.5300   28.0800   30.0880 O   0  0  0  0  0  0  0  0  0  0  0  0
   40.2900   28.0240   29.8830 N   0  0  0  0  0  0  0  0  0  0  0  0
   39.0970   27.7850   30.4580 C   0  0  0  0  0  0  0  0  0  0  0  0
   37.8330   27.9200   29.7970 N   0  0  0  0  0  0  0  0  0  0  0  0
   38.9650   27.3840   31.7450 N   0  0  0  0  0  0  0  0  0  0  0  0
   40.0420   27.2000   32.5300 C   0  0  0  0  0  0  0  0  0  0  0  0
   38.3969   22.9151   38.9045 H   0  0  0  0  0  0  0  0  0  0  0  0
   37.5174   24.4019   37.0997 H   0  0  0  0  0  0  0  0  0  0  0  0
   42.0233   22.4306   36.7641 H   0  0  0  0  0  0  0  0  0  0  0  0
   39.6693   26.8177   35.6913 H   0  0  0  0  0  0  0  0  0  0  0  0
   37.6900   27.7443   35.4724 H   0  0  0  0  0  0  0  0  0  0  0  0
   38.0521   27.9180   33.7112 H   0  0  0  0  0  0  0  0  0  0  0  0
   37.7306   26.1909   32.3544 H   0  0  0  0  0  0  0  0  0  0  0  0
   36.4282   25.0207   32.6901 H   0  0  0  0  0  0  0  0  0  0  0  0
   37.8400   23.5795   33.8353 H   0  0  0  0  0  0  0  0  0  0  0  0
   39.0821   24.3771   32.8131 H   0  0  0  0  0  0  0  0  0  0  0  0
   42.0657   26.5575   34.9733 H   0  0  0  0  0  0  0  0  0  0  0  0
   40.3514   28.3278   28.9007 H   0  0  0  0  0  0  0  0  0  0  0  0
   36.9611   27.7180   30.3068 H   0  0  0  0  0  0  0  0  0  0  0  0
   37.7962   28.2191   28.8121 H   0  0  0  0  0  0  0  0  0  0  0  0
  2  1  2  0
  3  2  1  0
  4  3  2  0
  4  5  1  0
  5  6  2  0
  6  1  1  0
  7  3  1  0
  8  7  1  0
  9  8  1  0
 10  9  1  0
 11 12  1  0
 11 10  1  0
 12  7  1  0
 13 14  1  0
 13  8  1  0
 15 14  2  0
 16 23  2  0
 16 15  1  0
 17 16  1  0
 18 17  2  0
 19 20  1  0
 19 17  1  0
 20 22  2  0
 21 20  1  0
 22 23  1  0
 23 13  1  0
  1 24  1  0
  2 25  1  0
  5 26  1  0
  8 27  1  1
  9 28  1  0
  9 29  1  0
 11 30  1  0
 11 31  1  0
 12 32  1  0
 12 33  1  0
 14 34  1  0
 19 35  1  0
 21 36  1  0
 21 37  1  0
M  ISO  8  24  14  25  14  26  14  27  13  28  13  29  13  30  13  31  13
M  ISO  4  32  13  33  13  34  14  35   9
M  END
>  <minimizedAffinity>  (1) 
-5.06291008

>  <minimizedRMSD>  (1) 
0.678212643

$$$$
