
     RDKit          3D

 26 27  0  0  1  0  0  0  0  0999 V2000
   38.0190   23.9450   37.8240 C   0  0  0  0  0  0  0  0  0  0  0  0
   37.7040   24.5210   36.5920 C   0  0  0  0  0  0  0  0  0  0  0  0
   38.5470   24.2950   35.5220 C   0  0  0  0  0  0  0  0  0  0  0  0
   39.6440   23.5210   35.7280 N   0  0  0  0  0  0  0  0  0  0  0  0
   39.9430   22.9700   36.9080 C   0  0  0  0  0  0  0  0  0  0  0  0
   39.1360   23.1760   37.9660 N   0  0  0  0  0  0  0  0  0  0  0  0
   38.4030   24.7870   34.2030 N   0  0  0  0  0  0  0  0  0  0  0  0
   38.9340   26.0650   33.7390 C   0  0  1  0  0  0  0  0  0  0  0  0
   37.8030   26.9470   33.2740 C   0  0  0  0  0  0  0  0  0  0  0  0
   36.6350   26.1760   33.1300 O   0  0  0  0  0  0  0  0  0  0  0  0
   36.8820   25.0730   32.3300 C   0  0  0  0  0  0  0  0  0  0  0  0
   37.7100   24.0910   33.1400 C   0  0  0  0  0  0  0  0  0  0  0  0
   39.5550   26.7170   34.9220 C   0  0  0  0  0  0  0  0  0  0  0  0
   40.7770   26.6480   35.2060 O   0  0  0  0  0  0  0  0  0  0  0  0
   39.0950   27.5040   35.9690 O   0  0  0  0  0  0  0  0  0  0  0  0
   37.3598   24.1131   38.6884 H   0  0  0  0  0  0  0  0  0  0  0  0
   36.8033   25.1418   36.4761 H   0  0  0  0  0  0  0  0  0  0  0  0
   40.8454   22.3502   37.0147 H   0  0  0  0  0  0  0  0  0  0  0  0
   39.6466   25.9135   32.9148 H   0  0  0  0  0  0  0  0  0  0  0  0
   37.6290   27.7411   34.0150 H   0  0  0  0  0  0  0  0  0  0  0  0
   38.0651   27.3993   32.3061 H   0  0  0  0  0  0  0  0  0  0  0  0
   35.9317   24.6056   32.0325 H   0  0  0  0  0  0  0  0  0  0  0  0
   37.4209   25.3712   31.4186 H   0  0  0  0  0  0  0  0  0  0  0  0
   37.0477   23.3282   33.5752 H   0  0  0  0  0  0  0  0  0  0  0  0
   38.4485   23.6115   32.4808 H   0  0  0  0  0  0  0  0  0  0  0  0
   39.7265   27.8283   36.6590 H   0  0  0  0  0  0  0  0  0  0  0  0
  1  6  2  0
  2  1  1  0
  3  4  1  0
  3  2  2  0
  4  5  2  0
  5  6  1  0
  7  3  1  0
  8  7  1  0
  8 13  1  0
  9  8  1  0
 10  9  1  0
 11 10  1  0
 11 12  1  0
 12  7  1  0
 13 14  2  0
 13 15  1  0
  1 16  1  0
  2 17  1  0
  5 18  1  0
  8 19  1  6
  9 20  1  0
  9 21  1  0
 11 22  1  0
 11 23  1  0
 12 24  1  0
 12 25  1  0
 15 26  1  0
M  ISO  8  16  14  17  14  18  14  19  13  20  13  21  13  22  13  23  13
M  ISO  3  24  13  25  13  26   3
M  END
>  <minimizedAffinity>  (1) 
-4.44508219

>  <minimizedRMSD>  (1) 
1.62653196

$$$$
