
     RDKit          3D

 30 32  0  0  1  0  0  0  0  0999 V2000
   37.7750   23.4380   38.3930 C   0  0  0  0  0  0  0  0  0  0  0  0
   37.6080   24.2510   37.2750 C   0  0  0  0  0  0  0  0  0  0  0  0
   38.6550   24.3440   36.3480 C   0  0  0  0  0  0  0  0  0  0  0  0
   39.7840   23.6400   36.5800 N   0  0  0  0  0  0  0  0  0  0  0  0
   39.9230   22.8600   37.6670 C   0  0  0  0  0  0  0  0  0  0  0  0
   38.9370   22.7530   38.5690 N   0  0  0  0  0  0  0  0  0  0  0  0
   38.6470   25.1290   35.1580 N   0  0  0  0  0  0  0  0  0  0  0  0
   39.0870   26.5160   35.0960 C   0  0  2  0  0  0  0  0  0  0  0  0
   37.9580   27.3810   34.6250 C   0  0  0  0  0  0  0  0  0  0  0  0
   36.9250   26.5990   34.1160 O   0  0  0  0  0  0  0  0  0  0  0  0
   37.3880   25.7140   33.1560 C   0  0  0  0  0  0  0  0  0  0  0  0
   38.2020   24.6410   33.8740 C   0  0  0  0  0  0  0  0  0  0  0  0
   40.3070   26.7110   34.3850 N   0  0  0  0  0  0  0  0  0  0  0  0
   41.4600   26.2010   34.7880 N   0  0  0  0  0  0  0  0  0  0  0  0
   42.4430   26.5360   33.9430 C   0  0  0  0  0  0  0  0  0  0  0  0
   41.9260   27.3110   32.9180 C   0  0  0  0  0  0  0  0  0  0  0  0
   40.5740   27.3870   33.2530 C   0  0  0  0  0  0  0  0  0  0  0  0
   36.9670   23.3496   39.1342 H   0  0  0  0  0  0  0  0  0  0  0  0
   36.6726   24.8093   37.1223 H   0  0  0  0  0  0  0  0  0  0  0  0
   40.8589   22.3021   37.8180 H   0  0  0  0  0  0  0  0  0  0  0  0
   39.3515   26.8313   36.1161 H   0  0  0  0  0  0  0  0  0  0  0  0
   37.5799   27.9749   35.4702 H   0  0  0  0  0  0  0  0  0  0  0  0
   38.3265   28.0456   33.8297 H   0  0  0  0  0  0  0  0  0  0  0  0
   38.0230   26.2447   32.4313 H   0  0  0  0  0  0  0  0  0  0  0  0
   36.5475   25.2612   32.6097 H   0  0  0  0  0  0  0  0  0  0  0  0
   37.5765   23.7482   34.0214 H   0  0  0  0  0  0  0  0  0  0  0  0
   39.0803   24.3872   33.2623 H   0  0  0  0  0  0  0  0  0  0  0  0
   43.4977   26.2414   34.0467 H   0  0  0  0  0  0  0  0  0  0  0  0
   42.4490   27.7542   32.0578 H   0  0  0  0  0  0  0  0  0  0  0  0
   39.8205   27.9316   32.6651 H   0  0  0  0  0  0  0  0  0  0  0  0
  1  6  2  0
  2  1  1  0
  3  4  1  0
  3  2  2  0
  4  5  2  0
  5  6  1  0
  7  3  1  0
  8  7  1  0
  9  8  1  0
 10  9  1  0
 11 12  1  0
 11 10  1  0
 12  7  1  0
 13 14  1  0
 13  8  1  0
 15 14  2  0
 16 17  2  0
 16 15  1  0
 17 13  1  0
  1 18  1  0
  2 19  1  0
  5 20  1  0
  8 21  1  1
  9 22  1  0
  9 23  1  0
 11 24  1  0
 11 25  1  0
 12 26  1  0
 12 27  1  0
 15 28  1  0
 16 29  1  0
 17 30  1  0
M  ISO  8  18  14  19  14  20  14  21  13  22  13  23  13  24  13  25  13
M  ISO  5  26  13  27  13  28  14  29  14  30  14
M  END
>  <minimizedAffinity>  (1) 
-4.28158379

>  <minimizedRMSD>  (1) 
1.16363525

$$$$
