
     RDKit          3D

 24 25  0  0  1  0  0  0  0  0999 V2000
   38.0900   23.7230   38.1990 C   0  0  0  0  0  0  0  0  0  0  0  0
   37.8060   24.4650   37.0460 C   0  0  0  0  0  0  0  0  0  0  0  0
   38.7090   24.4570   36.0000 C   0  0  0  0  0  0  0  0  0  0  0  0
   39.8330   23.7210   36.1510 N   0  0  0  0  0  0  0  0  0  0  0  0
   40.1030   23.0100   37.2590 C   0  0  0  0  0  0  0  0  0  0  0  0
   39.2340   23.0120   38.2770 N   0  0  0  0  0  0  0  0  0  0  0  0
   38.5980   25.1350   34.7700 N   0  0  0  0  0  0  0  0  0  0  0  0
   39.0890   26.4780   34.5090 C   0  0  1  0  0  0  0  0  0  0  0  0
   37.9130   27.3750   34.1400 C   0  0  0  0  0  0  0  0  0  0  0  0
   36.8000   26.5940   33.8250 O   0  0  0  0  0  0  0  0  0  0  0  0
   37.1350   25.6260   32.8820 C   0  0  0  0  0  0  0  0  0  0  0  0
   37.9610   24.5560   33.5820 C   0  0  0  0  0  0  0  0  0  0  0  0
   39.8580   26.9960   35.5410 O   0  0  0  0  0  0  0  0  0  0  0  0
   37.3812   23.7198   39.0402 H   0  0  0  0  0  0  0  0  0  0  0  0
   36.8755   25.0472   36.9737 H   0  0  0  0  0  0  0  0  0  0  0  0
   41.0343   22.4288   37.3290 H   0  0  0  0  0  0  0  0  0  0  0  0
   39.7830   26.4306   33.6569 H   0  0  0  0  0  0  0  0  0  0  0  0
   37.6711   28.0279   34.9916 H   0  0  0  0  0  0  0  0  0  0  0  0
   38.1845   27.9871   33.2673 H   0  0  0  0  0  0  0  0  0  0  0  0
   37.7232   26.0815   32.0717 H   0  0  0  0  0  0  0  0  0  0  0  0
   36.2262   25.1846   32.4470 H   0  0  0  0  0  0  0  0  0  0  0  0
   37.3061   23.7254   33.8842 H   0  0  0  0  0  0  0  0  0  0  0  0
   38.7341   24.1797   32.8959 H   0  0  0  0  0  0  0  0  0  0  0  0
   39.4651   26.7313   36.4103 H   0  0  0  0  0  0  0  0  0  0  0  0
  1  6  2  0
  2  1  1  0
  3  4  1  0
  3  2  2  0
  4  5  2  0
  5  6  1  0
  7  3  1  0
  8  7  1  0
  8 13  1  0
  9  8  1  0
 10  9  1  0
 11 12  1  0
 11 10  1  0
 12  7  1  0
  1 14  1  0
  2 15  1  0
  5 16  1  0
  8 17  1  6
  9 18  1  0
  9 19  1  0
 11 20  1  0
 11 21  1  0
 12 22  1  0
 12 23  1  0
 13 24  1  0
M  ISO  8  14  14  15  14  16  14  17  13  18  13  19  13  20  13  21  13
M  ISO  3  22  13  23  13  24   3
M  END
>  <minimizedAffinity>  (1) 
-3.88658643

>  <minimizedRMSD>  (1) 
1.01554763

$$$$
