
     RDKit          3D

 42 44  0  0  1  0  0  0  0  0999 V2000
   36.9730   25.6980   31.7000 N   0  0  0  0  0  0  0  0  0  0  0  0
   37.9410   26.4450   30.9310 C   0  0  1  0  0  0  0  0  0  0  0  0
   38.0610   27.8660   31.4870 C   0  0  0  0  0  0  0  0  0  0  0  0
   37.0160   28.1090   32.3650 O   0  0  0  0  0  0  0  0  0  0  0  0
   35.8070   27.8230   31.7310 C   0  0  0  0  0  0  0  0  0  0  0  0
   35.6740   26.3110   31.6440 C   0  0  0  0  0  0  0  0  0  0  0  0
   37.4440   22.1460   32.7950 C   0  0  0  0  0  0  0  0  0  0  0  0
   37.0970   23.2240   31.9730 C   0  0  0  0  0  0  0  0  0  0  0  0
   37.2750   24.5310   32.4110 C   0  0  0  0  0  0  0  0  0  0  0  0
   37.7870   24.6600   33.6400 N   0  0  0  0  0  0  0  0  0  0  0  0
   38.1240   23.6690   34.4400 C   0  0  0  0  0  0  0  0  0  0  0  0
   37.9500   22.3900   34.0120 N   0  0  0  0  0  0  0  0  0  0  0  0
   38.6590   23.9010   35.7250 N   0  0  0  0  0  0  0  0  0  0  0  0
   39.9760   23.4190   36.0970 C   0  0  0  0  0  0  0  0  0  0  0  0
   39.7510   22.5900   37.3680 C   0  0  0  0  0  0  0  0  0  0  0  0
   39.3110   23.4770   38.3430 O   0  0  0  0  0  0  0  0  0  0  0  0
   38.0430   23.9800   38.0970 C   0  0  0  0  0  0  0  0  0  0  0  0
   37.9370   24.6210   36.7310 C   0  0  0  0  0  0  0  0  0  0  0  0
   39.2370   25.8630   31.1670 N   0  0  0  0  0  0  0  0  0  0  0  0
   39.8610   25.1490   30.1070 C   0  0  0  0  0  0  0  0  0  0  0  0
   39.3260   25.3640   28.9350 N   0  0  0  0  0  0  0  0  0  0  0  0
   40.8410   24.3480   30.1680 O   0  0  0  0  0  0  0  0  0  0  0  0
   37.6338   26.4379   29.8748 H   0  0  0  0  0  0  0  0  0  0  0  0
   39.0183   27.9721   32.0183 H   0  0  0  0  0  0  0  0  0  0  0  0
   38.0190   28.5884   30.6585 H   0  0  0  0  0  0  0  0  0  0  0  0
   34.9716   28.2392   32.3131 H   0  0  0  0  0  0  0  0  0  0  0  0
   35.7854   28.2690   30.7257 H   0  0  0  0  0  0  0  0  0  0  0  0
   35.1853   26.0425   30.6958 H   0  0  0  0  0  0  0  0  0  0  0  0
   35.0695   25.9529   32.4904 H   0  0  0  0  0  0  0  0  0  0  0  0
   37.3034   21.1120   32.4470 H   0  0  0  0  0  0  0  0  0  0  0  0
   36.6802   23.0356   30.9726 H   0  0  0  0  0  0  0  0  0  0  0  0
   40.3989   22.7934   35.2972 H   0  0  0  0  0  0  0  0  0  0  0  0
   40.6863   24.2427   36.2613 H   0  0  0  0  0  0  0  0  0  0  0  0
   38.9909   21.8157   37.1874 H   0  0  0  0  0  0  0  0  0  0  0  0
   40.6746   22.0807   37.6803 H   0  0  0  0  0  0  0  0  0  0  0  0
   37.3170   23.1559   38.1588 H   0  0  0  0  0  0  0  0  0  0  0  0
   37.8352   24.7543   38.8501 H   0  0  0  0  0  0  0  0  0  0  0  0
   38.3397   25.6430   36.7896 H   0  0  0  0  0  0  0  0  0  0  0  0
   36.8751   24.6180   36.4441 H   0  0  0  0  0  0  0  0  0  0  0  0
   39.7008   25.9615   32.0814 H   0  0  0  0  0  0  0  0  0  0  0  0
   38.5277   26.0084   28.8437 H   0  0  0  0  0  0  0  0  0  0  0  0
   39.7024   24.8892   28.1021 H   0  0  0  0  0  0  0  0  0  0  0  0
  1  9  1  0
  2 19  1  0
  2  3  1  0
  2  1  1  0
  3  4  1  0
  5  4  1  0
  6  1  1  0
  6  5  1  0
  7 12  2  0
  8  9  2  0
  8  7  1  0
  9 10  1  0
 10 11  2  0
 11 13  1  0
 12 11  1  0
 13 14  1  0
 13 18  1  0
 14 15  1  0
 15 16  1  0
 17 16  1  0
 18 17  1  0
 20 22  2  0
 20 19  1  0
 21 20  1  0
  2 23  1  6
  3 24  1  0
  3 25  1  0
  5 26  1  0
  5 27  1  0
  6 28  1  0
  6 29  1  0
  7 30  1  0
  8 31  1  0
 14 32  1  0
 14 33  1  0
 15 34  1  0
 15 35  1  0
 17 36  1  0
 17 37  1  0
 18 38  1  0
 18 39  1  0
 19 40  1  0
 21 41  1  0
 21 42  1  0
M  ISO  8  23  13  24  13  25  13  26  13  27  13  28  13  29  13  30  14
M  ISO  8  31  14  32  13  33  13  34  13  35  13  36  13  37  13  38  13
M  ISO  1  39  13
M  END
>  <minimizedAffinity>  (1) 
-4.94564724

>  <minimizedRMSD>  (1) 
4.28923893

$$$$
