
     RDKit          3D

 36 38  0  0  1  0  0  0  0  0999 V2000
   38.6340   24.9100   34.4140 N   0  0  0  0  0  0  0  0  0  0  0  0
   39.5790   25.8300   33.8210 C   0  0  1  0  0  0  0  0  0  0  0  0
   38.8930   27.1780   33.5790 C   0  0  0  0  0  0  0  0  0  0  0  0
   37.5210   27.0320   33.7100 O   0  0  0  0  0  0  0  0  0  0  0  0
   37.0840   25.9870   32.8980 C   0  0  0  0  0  0  0  0  0  0  0  0
   37.5070   24.6830   33.5550 C   0  0  0  0  0  0  0  0  0  0  0  0
   38.2830   23.8360   37.9890 C   0  0  0  0  0  0  0  0  0  0  0  0
   37.9890   24.4890   36.7870 C   0  0  0  0  0  0  0  0  0  0  0  0
   38.8050   24.3230   35.6730 C   0  0  0  0  0  0  0  0  0  0  0  0
   39.8520   23.5110   35.8530 N   0  0  0  0  0  0  0  0  0  0  0  0
   40.1630   22.8810   36.9660 C   0  0  0  0  0  0  0  0  0  0  0  0
   39.3640   23.0450   38.0550 N   0  0  0  0  0  0  0  0  0  0  0  0
   41.3630   22.0540   36.8950 C   0  0  0  0  0  0  0  0  0  0  0  0
   42.4500   22.0960   36.0500 C   0  0  0  0  0  0  0  0  0  0  0  0
   43.2920   21.0670   36.4460 C   0  0  0  0  0  0  0  0  0  0  0  0
   42.6360   20.4800   37.5110 C   0  0  0  0  0  0  0  0  0  0  0  0
   41.4940   21.0720   37.7710 O   0  0  0  0  0  0  0  0  0  0  0  0
   40.5890   26.1180   34.8010 N   0  0  0  0  0  0  0  0  0  0  0  0
   41.9340   25.7640   34.5230 C   0  0  0  0  0  0  0  0  0  0  0  0
   42.1470   25.5110   33.2560 N   0  0  0  0  0  0  0  0  0  0  0  0
   42.9140   25.6600   35.3150 O   0  0  0  0  0  0  0  0  0  0  0  0
   39.9742   25.3891   32.8939 H   0  0  0  0  0  0  0  0  0  0  0  0
   39.1282   27.5314   32.5642 H   0  0  0  0  0  0  0  0  0  0  0  0
   39.2545   27.9093   34.3169 H   0  0  0  0  0  0  0  0  0  0  0  0
   37.5421   26.0702   31.9014 H   0  0  0  0  0  0  0  0  0  0  0  0
   35.9909   26.0220   32.7800 H   0  0  0  0  0  0  0  0  0  0  0  0
   36.6704   24.2859   34.1487 H   0  0  0  0  0  0  0  0  0  0  0  0
   37.7870   23.9596   32.7751 H   0  0  0  0  0  0  0  0  0  0  0  0
   37.6359   23.9697   38.8684 H   0  0  0  0  0  0  0  0  0  0  0  0
   37.1044   25.1396   36.7225 H   0  0  0  0  0  0  0  0  0  0  0  0
   42.6172   22.8045   35.2253 H   0  0  0  0  0  0  0  0  0  0  0  0
   44.2616   20.7830   36.0110 H   0  0  0  0  0  0  0  0  0  0  0  0
   43.0248   19.6187   38.0741 H   0  0  0  0  0  0  0  0  0  0  0  0
   40.3406   26.5739   35.6906 H   0  0  0  0  0  0  0  0  0  0  0  0
   43.0885   25.2429   32.9355 H   0  0  0  0  0  0  0  0  0  0  0  0
   41.3731   25.5801   32.5798 H   0  0  0  0  0  0  0  0  0  0  0  0
  1  9  1  0
  2  1  1  0
  2 18  1  0
  3  4  1  0
  3  2  1  0
  5  6  1  0
  5  4  1  0
  6  1  1  0
  7 12  2  0
  8  7  1  0
  9 10  1  0
  9  8  2  0
 10 11  2  0
 11 12  1  0
 13 11  1  0
 13 17  1  0
 14 15  1  0
 14 13  2  0
 15 16  2  0
 16 17  1  0
 19 18  1  0
 19 21  2  0
 20 19  1  0
  2 22  1  6
  3 23  1  0
  3 24  1  0
  5 25  1  0
  5 26  1  0
  6 27  1  0
  6 28  1  0
  7 29  1  0
  8 30  1  0
 14 31  1  0
 15 32  1  0
 16 33  1  0
 18 34  1  0
 20 35  1  0
 20 36  1  0
M  ISO  8  22  13  23  13  24  13  25  13  26  13  27  13  28  13  29  14
M  ISO  4  30  14  31  14  32  14  33  14
M  END
>  <minimizedAffinity>  (1) 
-4.60340405

>  <minimizedRMSD>  (1) 
0.667195976

$$$$
