
     RDKit          3D

 28 29  0  0  0  0  0  0  0  0999 V2000
   38.2980   26.4940   34.2910 C   0  0  0  0  0  0  0  0  0  0  0  0
   37.0440   27.1980   34.7040 C   0  0  0  0  0  0  0  0  0  0  0  0
   38.6780   26.9790   32.9050 C   0  0  0  0  0  0  0  0  0  0  0  0
   39.4310   27.0130   35.1950 C   0  0  0  0  0  0  0  0  0  0  0  0
   40.7670   26.7980   34.5560 C   0  0  0  0  0  0  0  0  0  0  0  0
   41.5660   25.7400   34.8300 N   0  0  0  0  0  0  0  0  0  0  0  0
   42.6440   25.8520   34.1130 O   0  0  0  0  0  0  0  0  0  0  0  0
   42.6140   26.9220   33.3770 C   0  0  0  0  0  0  0  0  0  0  0  0
   41.4410   27.5230   33.6470 N   0  0  0  0  0  0  0  0  0  0  0  0
   38.2790   24.7220   34.4470 S   0  0  0  0  0  0  0  0  0  0  0  0
   37.9350   23.9890   38.4380 C   0  0  0  0  0  0  0  0  0  0  0  0
   37.7030   24.4720   37.1400 C   0  0  0  0  0  0  0  0  0  0  0  0
   38.5510   24.1250   36.0990 C   0  0  0  0  0  0  0  0  0  0  0  0
   39.5990   23.3100   36.3970 N   0  0  0  0  0  0  0  0  0  0  0  0
   39.8140   22.8530   37.6390 C   0  0  0  0  0  0  0  0  0  0  0  0
   39.0030   23.1780   38.6570 N   0  0  0  0  0  0  0  0  0  0  0  0
   36.9863   27.2304   35.8020 H   0  0  0  0  0  0  0  0  0  0  0  0
   37.0516   28.2238   34.3068 H   0  0  0  0  0  0  0  0  0  0  0  0
   36.1722   26.6574   34.3068 H   0  0  0  0  0  0  0  0  0  0  0  0
   39.3543   27.8422   32.9912 H   0  0  0  0  0  0  0  0  0  0  0  0
   39.1846   26.1693   32.3593 H   0  0  0  0  0  0  0  0  0  0  0  0
   37.7706   27.2772   32.3593 H   0  0  0  0  0  0  0  0  0  0  0  0
   39.2858   28.0889   35.3722 H   0  0  0  0  0  0  0  0  0  0  0  0
   39.4033   26.4592   36.1450 H   0  0  0  0  0  0  0  0  0  0  0  0
   43.3890   27.2662   32.6764 H   0  0  0  0  0  0  0  0  0  0  0  0
   37.2627   24.2629   39.2645 H   0  0  0  0  0  0  0  0  0  0  0  0
   36.8428   25.1301   36.9476 H   0  0  0  0  0  0  0  0  0  0  0  0
   40.6758   22.1960   37.8277 H   0  0  0  0  0  0  0  0  0  0  0  0
  1 10  1  0
  1  2  1  0
  1  4  1  0
  3  1  1  0
  5  6  2  0
  5  4  1  0
  7  6  1  0
  8  9  2  0
  8  7  1  0
  9  5  1  0
 10 13  1  0
 11 16  2  0
 12 11  1  0
 13 14  1  0
 13 12  2  0
 14 15  2  0
 15 16  1  0
  2 17  1  0
  2 18  1  0
  2 19  1  0
  3 20  1  0
  3 21  1  0
  3 22  1  0
  4 23  1  0
  4 24  1  0
  8 25  1  0
 11 26  1  0
 12 27  1  0
 15 28  1  0
M  ISO  8  17   8  18   8  19   8  20   8  21   8  22   8  23   8  24   8
M  ISO  4  25  14  26  14  27  14  28  14
M  END
>  <minimizedAffinity>  (1) 
-4.19798088

>  <minimizedRMSD>  (1) 
1.04564369

$$$$
