
     RDKit          3D

 32 33  0  0  1  0  0  0  0  0999 V2000
   38.8610   24.8610   34.5260 N   0  0  0  0  0  0  0  0  0  0  0  0
   39.9510   25.6250   33.9660 C   0  0  1  0  0  0  0  0  0  0  0  0
   39.4610   27.0220   33.5780 C   0  0  0  0  0  0  0  0  0  0  0  0
   38.0710   27.0340   33.5890 O   0  0  0  0  0  0  0  0  0  0  0  0
   37.5770   25.9880   32.8090 C   0  0  0  0  0  0  0  0  0  0  0  0
   37.7880   24.6980   33.5860 C   0  0  0  0  0  0  0  0  0  0  0  0
   38.1160   24.1100   38.1230 C   0  0  0  0  0  0  0  0  0  0  0  0
   37.9950   24.7100   36.8620 C   0  0  0  0  0  0  0  0  0  0  0  0
   38.8560   24.3510   35.8300 C   0  0  0  0  0  0  0  0  0  0  0  0
   39.7600   23.4220   36.1470 N   0  0  0  0  0  0  0  0  0  0  0  0
   39.9080   22.8360   37.3130 C   0  0  0  0  0  0  0  0  0  0  0  0
   39.0670   23.1870   38.3260 N   0  0  0  0  0  0  0  0  0  0  0  0
   40.9830   21.8090   37.5020 C   0  0  0  0  0  0  0  0  0  0  0  0
   40.9090   25.8630   35.0190 N   0  0  0  0  0  0  0  0  0  0  0  0
   42.2580   25.4680   34.7960 C   0  0  0  0  0  0  0  0  0  0  0  0
   42.5470   25.1850   33.5540 N   0  0  0  0  0  0  0  0  0  0  0  0
   43.1790   25.3610   35.6700 O   0  0  0  0  0  0  0  0  0  0  0  0
   40.3612   25.0778   33.1044 H   0  0  0  0  0  0  0  0  0  0  0  0
   39.8239   27.2733   32.5705 H   0  0  0  0  0  0  0  0  0  0  0  0
   39.8444   27.7625   34.2953 H   0  0  0  0  0  0  0  0  0  0  0  0
   38.1198   25.9436   31.8533 H   0  0  0  0  0  0  0  0  0  0  0  0
   36.5093   26.1384   32.5912 H   0  0  0  0  0  0  0  0  0  0  0  0
   36.8649   24.4437   34.1274 H   0  0  0  0  0  0  0  0  0  0  0  0
   38.0428   23.8908   32.8835 H   0  0  0  0  0  0  0  0  0  0  0  0
   37.4360   24.3942   38.9396 H   0  0  0  0  0  0  0  0  0  0  0  0
   37.2165   25.4674   36.6878 H   0  0  0  0  0  0  0  0  0  0  0  0
   41.1514   21.6481   38.5771 H   0  0  0  0  0  0  0  0  0  0  0  0
   40.6729   20.8631   37.0338 H   0  0  0  0  0  0  0  0  0  0  0  0
   41.9137   22.1620   37.0338 H   0  0  0  0  0  0  0  0  0  0  0  0
   40.6250   26.3052   35.9048 H   0  0  0  0  0  0  0  0  0  0  0  0
   43.5010   24.8899   33.3016 H   0  0  0  0  0  0  0  0  0  0  0  0
   41.8209   25.2569   32.8270 H   0  0  0  0  0  0  0  0  0  0  0  0
  1  9  1  0
  2  1  1  0
  2 14  1  0
  3  4  1  0
  3  2  1  0
  5  6  1  0
  5  4  1  0
  6  1  1  0
  7 12  2  0
  8  7  1  0
  9 10  1  0
  9  8  2  0
 10 11  2  0
 11 13  1  0
 11 12  1  0
 15 14  1  0
 15 17  2  0
 16 15  1  0
  2 18  1  6
  3 19  1  0
  3 20  1  0
  5 21  1  0
  5 22  1  0
  6 23  1  0
  6 24  1  0
  7 25  1  0
  8 26  1  0
 13 27  1  0
 13 28  1  0
 13 29  1  0
 14 30  1  0
 16 31  1  0
 16 32  1  0
M  ISO  8  18  13  19  13  20  13  21  13  22  13  23  13  24  13  25  14
M  ISO  4  26  14  27   8  28   8  29   8
M  END
>  <minimizedAffinity>  (1) 
-4.34892702

>  <minimizedRMSD>  (1) 
0.0621857196

$$$$
