
     RDKit          3D

 35 36  0  0  1  0  0  0  0  0999 V2000
   38.8220   24.8800   34.4880 N   0  0  0  0  0  0  0  0  0  0  0  0
   39.8990   25.6570   33.9190 C   0  0  1  0  0  0  0  0  0  0  0  0
   39.3960   27.0530   33.5430 C   0  0  0  0  0  0  0  0  0  0  0  0
   38.0080   27.0620   33.5860 O   0  0  0  0  0  0  0  0  0  0  0  0
   37.5100   26.0200   32.8020 C   0  0  0  0  0  0  0  0  0  0  0  0
   37.7410   24.7210   33.5570 C   0  0  0  0  0  0  0  0  0  0  0  0
   38.1290   24.0950   38.0860 C   0  0  0  0  0  0  0  0  0  0  0  0
   37.9900   24.7010   36.8290 C   0  0  0  0  0  0  0  0  0  0  0  0
   38.8420   24.3590   35.7840 C   0  0  0  0  0  0  0  0  0  0  0  0
   39.7610   23.4380   36.0840 N   0  0  0  0  0  0  0  0  0  0  0  0
   39.9290   22.8460   37.2460 C   0  0  0  0  0  0  0  0  0  0  0  0
   39.0930   23.1820   38.2710 N   0  0  0  0  0  0  0  0  0  0  0  0
   40.9790   21.8240   37.5150 C   0  0  0  0  0  0  0  0  0  0  0  0
   42.2340   22.0510   36.7330 C   0  0  0  0  0  0  0  0  0  0  0  0
   40.8690   25.8970   34.9510 N   0  0  0  0  0  0  0  0  0  0  0  0
   42.2200   25.5220   34.7190 C   0  0  0  0  0  0  0  0  0  0  0  0
   42.5010   25.2440   33.4730 N   0  0  0  0  0  0  0  0  0  0  0  0
   43.1560   25.4220   35.5770 O   0  0  0  0  0  0  0  0  0  0  0  0
   40.2989   25.1142   33.0499 H   0  0  0  0  0  0  0  0  0  0  0  0
   39.7348   27.3056   32.5274 H   0  0  0  0  0  0  0  0  0  0  0  0
   39.7938   27.7940   34.2520 H   0  0  0  0  0  0  0  0  0  0  0  0
   38.0382   25.9916   31.8376 H   0  0  0  0  0  0  0  0  0  0  0  0
   36.4375   26.1652   32.6051 H   0  0  0  0  0  0  0  0  0  0  0  0
   36.8260   24.4499   34.1040 H   0  0  0  0  0  0  0  0  0  0  0  0
   37.9959   23.9269   32.8398 H   0  0  0  0  0  0  0  0  0  0  0  0
   37.4542   24.3659   38.9114 H   0  0  0  0  0  0  0  0  0  0  0  0
   37.2021   25.4516   36.6684 H   0  0  0  0  0  0  0  0  0  0  0  0
   41.2252   21.8490   38.5868 H   0  0  0  0  0  0  0  0  0  0  0  0
   40.5734   20.8488   37.2078 H   0  0  0  0  0  0  0  0  0  0  0  0
   43.0750   22.2031   37.4255 H   0  0  0  0  0  0  0  0  0  0  0  0
   42.4347   21.1746   36.0993 H   0  0  0  0  0  0  0  0  0  0  0  0
   42.1150   22.9422   36.0993 H   0  0  0  0  0  0  0  0  0  0  0  0
   40.5907   26.3325   35.8420 H   0  0  0  0  0  0  0  0  0  0  0  0
   43.4565   24.9624   33.2110 H   0  0  0  0  0  0  0  0  0  0  0  0
   41.7669   25.3065   32.7532 H   0  0  0  0  0  0  0  0  0  0  0  0
  1  9  1  0
  2  1  1  0
  2 15  1  0
  3  4  1  0
  3  2  1  0
  5  6  1  0
  5  4  1  0
  6  1  1  0
  7 12  2  0
  8  7  1  0
  9 10  1  0
  9  8  2  0
 10 11  2  0
 11 13  1  0
 11 12  1  0
 14 13  1  0
 16 15  1  0
 16 18  2  0
 17 16  1  0
  2 19  1  6
  3 20  1  0
  3 21  1  0
  5 22  1  0
  5 23  1  0
  6 24  1  0
  6 25  1  0
  7 26  1  0
  8 27  1  0
 13 28  1  0
 13 29  1  0
 14 30  1  0
 14 31  1  0
 14 32  1  0
 15 33  1  0
 17 34  1  0
 17 35  1  0
M  ISO  8  19  13  20  13  21  13  22  13  23  13  24  13  25  13  26  14
M  ISO  6  27  14  28   8  29   8  30   8  31   8  32   8
M  END
>  <minimizedAffinity>  (1) 
-4.39910889

>  <minimizedRMSD>  (1) 
0.14200516

$$$$
