
     RDKit          3D

 45 47  0  0  1  0  0  0  0  0999 V2000
   38.9000   23.7950   36.1590 C   0  0  0  0  0  0  0  0  0  0  0  0
   39.3720   24.5700   35.0840 C   0  0  0  0  0  0  0  0  0  0  0  0
   40.6560   24.3960   34.6030 C   0  0  0  0  0  0  0  0  0  0  0  0
   41.3760   23.4620   35.2320 N   0  0  0  0  0  0  0  0  0  0  0  0
   40.9750   22.7140   36.2410 C   0  0  0  0  0  0  0  0  0  0  0  0
   39.7120   22.8840   36.7140 N   0  0  0  0  0  0  0  0  0  0  0  0
   41.2480   25.0860   33.5500 N   0  0  0  0  0  0  0  0  0  0  0  0
   42.3940   25.9910   33.7190 C   0  0  1  0  0  0  0  0  0  0  0  0
   42.0260   27.3720   33.2570 C   0  0  0  0  0  0  0  0  0  0  0  0
   40.8200   27.3500   32.5850 O   0  0  0  0  0  0  0  0  0  0  0  0
   40.8760   26.4010   31.5580 C   0  0  0  0  0  0  0  0  0  0  0  0
   40.8490   25.0190   32.1760 C   0  0  0  0  0  0  0  0  0  0  0  0
   42.6690   26.0700   35.1220 N   0  0  0  0  0  0  0  0  0  0  0  0
   43.8490   25.6010   35.6890 C   0  0  0  0  0  0  0  0  0  0  0  0
   44.6540   25.4080   34.7720 N   0  0  0  0  0  0  0  0  0  0  0  0
   44.2970   25.3290   36.8180 O   0  0  0  0  0  0  0  0  0  0  0  0
   38.5250   25.5430   34.4860 N   0  0  0  0  0  0  0  0  0  0  0  0
   37.7740   25.0190   33.4740 C   0  0  0  0  0  0  0  0  0  0  0  0
   36.8850   25.7890   32.7530 C   0  0  0  0  0  0  0  0  0  0  0  0
   36.0650   25.2350   31.6540 C   0  0  0  0  0  0  0  0  0  0  0  0
   36.8030   27.1250   33.1220 C   0  0  0  0  0  0  0  0  0  0  0  0
   36.0180   27.8950   32.5170 O   0  0  0  0  0  0  0  0  0  0  0  0
   37.5600   27.6090   34.1270 N   0  0  0  0  0  0  0  0  0  0  0  0
   38.4190   26.8440   34.8150 C   0  0  0  0  0  0  0  0  0  0  0  0
   39.1530   27.2320   35.7610 O   0  0  0  0  0  0  0  0  0  0  0  0
   41.9390   21.7000   36.8240 C   0  0  0  0  0  0  0  0  0  0  0  0
   43.1720   22.2530   37.0150 F   0  0  0  0  0  0  0  0  0  0  0  0
   41.3390   21.3360   38.0390 F   0  0  0  0  0  0  0  0  0  0  0  0
   42.0250   20.5810   36.0670 F   0  0  0  0  0  0  0  0  0  0  0  0
   37.8774   23.9348   36.5395 H   0  0  0  0  0  0  0  0  0  0  0  0
   43.2545   25.6200   33.1430 H   0  0  0  0  0  0  0  0  0  0  0  0
   41.9422   28.0358   34.1301 H   0  0  0  0  0  0  0  0  0  0  0  0
   42.8072   27.7400   32.5756 H   0  0  0  0  0  0  0  0  0  0  0  0
   41.8044   26.5317   30.9827 H   0  0  0  0  0  0  0  0  0  0  0  0
   40.0175   26.5274   30.8820 H   0  0  0  0  0  0  0  0  0  0  0  0
   39.8290   24.6122   32.1129 H   0  0  0  0  0  0  0  0  0  0  0  0
   41.5467   24.3669   31.6300 H   0  0  0  0  0  0  0  0  0  0  0  0
   41.9611   26.4932   35.7389 H   0  0  0  0  0  0  0  0  0  0  0  0
   45.5990   25.0562   34.9818 H   0  0  0  0  0  0  0  0  0  0  0  0
   44.3801   25.5989   33.7976 H   0  0  0  0  0  0  0  0  0  0  0  0
   37.8806   23.9526   33.2263 H   0  0  0  0  0  0  0  0  0  0  0  0
   35.2231   24.6662   32.0755 H   0  0  0  0  0  0  0  0  0  0  0  0
   35.6782   26.0576   31.0345 H   0  0  0  0  0  0  0  0  0  0  0  0
   36.6838   24.5692   31.0345 H   0  0  0  0  0  0  0  0  0  0  0  0
   37.4750   28.6049   34.3757 H   0  0  0  0  0  0  0  0  0  0  0  0
  1  6  2  0
  2  1  1  0
  3  2  2  0
  3  4  1  0
  4  5  2  0
  5  6  1  0
  5 26  1  0
  7  8  1  0
  7  3  1  0
  8 13  1  0
  9  8  1  0
 10  9  1  0
 11 12  1  0
 11 10  1  0
 12  7  1  0
 13 14  1  0
 14 16  2  0
 15 14  1  0
 17 24  1  0
 17  2  1  0
 18 17  1  0
 19 21  1  0
 19 18  2  0
 20 19  1  0
 21 23  1  0
 22 21  2  0
 23 24  1  0
 24 25  2  0
 26 27  1  0
 26 28  1  0
 29 26  1  0
  1 30  1  0
  8 31  1  6
  9 32  1  0
  9 33  1  0
 11 34  1  0
 11 35  1  0
 12 36  1  0
 12 37  1  0
 13 38  1  0
 15 39  1  0
 15 40  1  0
 18 41  1  0
 20 42  1  0
 20 43  1  0
 20 44  1  0
 23 45  1  0
M  ISO  8  30  14  31  13  32  13  33  13  34  13  35  13  36  13  37  13
M  ISO  5  41  14  42   8  43   8  44   8  45   9
M  END
>  <minimizedAffinity>  (1) 
-5.58216476

>  <minimizedRMSD>  (1) 
2.81265616

$$$$
