
     RDKit          3D

 46 48  0  0  1  0  0  0  0  0999 V2000
   37.4670   26.0230   33.7040 N   0  0  0  0  0  0  0  0  0  0  0  0
   36.7940   25.4510   32.5270 C   0  0  1  0  0  0  0  0  0  0  0  0
   37.1380   26.2450   31.2940 C   0  0  0  0  0  0  0  0  0  0  0  0
   37.7500   27.4290   31.6520 O   0  0  0  0  0  0  0  0  0  0  0  0
   36.9630   28.1070   32.5850 C   0  0  0  0  0  0  0  0  0  0  0  0
   37.0400   27.3740   33.9070 C   0  0  0  0  0  0  0  0  0  0  0  0
   40.5190   24.4080   35.1150 C   0  0  0  0  0  0  0  0  0  0  0  0
   39.7120   25.1480   34.2370 C   0  0  0  0  0  0  0  0  0  0  0  0
   38.3690   25.3170   34.4870 C   0  0  0  0  0  0  0  0  0  0  0  0
   37.9160   24.7330   35.6030 N   0  0  0  0  0  0  0  0  0  0  0  0
   38.6350   24.0320   36.4550 C   0  0  0  0  0  0  0  0  0  0  0  0
   39.9690   23.8630   36.2100 N   0  0  0  0  0  0  0  0  0  0  0  0
   40.3780   25.6920   33.1120 N   0  0  0  0  0  0  0  0  0  0  0  0
   40.7960   25.2100   31.8250 C   0  0  0  0  0  0  0  0  0  0  0  0
   40.5310   26.1890   30.7100 C   0  0  0  0  0  0  0  0  0  0  0  0
   40.9300   27.5360   31.0380 N   0  0  0  0  0  0  0  0  0  0  0  0
   41.6610   27.6000   32.2870 C   0  0  0  0  0  0  0  0  0  0  0  0
   40.7130   27.1060   33.3560 C   0  0  0  0  0  0  0  0  0  0  0  0
   37.9490   23.4460   37.6690 C   0  0  0  0  0  0  0  0  0  0  0  0
   36.9350   22.6110   37.3010 F   0  0  0  0  0  0  0  0  0  0  0  0
   38.9750   22.7560   38.3320 F   0  0  0  0  0  0  0  0  0  0  0  0
   37.5000   24.4010   38.5150 F   0  0  0  0  0  0  0  0  0  0  0  0
   37.3220   24.1320   32.3330 N   0  0  0  0  0  0  0  0  0  0  0  0
   36.5280   23.0360   32.0020 C   0  0  0  0  0  0  0  0  0  0  0  0
   35.4250   23.4610   31.6370 N   0  0  0  0  0  0  0  0  0  0  0  0
   36.6230   21.7950   31.9800 O   0  0  0  0  0  0  0  0  0  0  0  0
   35.7056   25.4552   32.6860 H   0  0  0  0  0  0  0  0  0  0  0  0
   36.2174   26.4654   30.7338 H   0  0  0  0  0  0  0  0  0  0  0  0
   37.8247   25.6584   30.6660 H   0  0  0  0  0  0  0  0  0  0  0  0
   37.3372   29.1340   32.7086 H   0  0  0  0  0  0  0  0  0  0  0  0
   35.9199   28.1466   32.2380 H   0  0  0  0  0  0  0  0  0  0  0  0
   36.0466   27.3731   34.3794 H   0  0  0  0  0  0  0  0  0  0  0  0
   37.7667   27.8843   34.5563 H   0  0  0  0  0  0  0  0  0  0  0  0
   41.5912   24.2764   34.9072 H   0  0  0  0  0  0  0  0  0  0  0  0
   41.8763   25.0061   31.8619 H   0  0  0  0  0  0  0  0  0  0  0  0
   40.2117   24.3032   31.6098 H   0  0  0  0  0  0  0  0  0  0  0  0
   39.4534   26.1862   30.4894 H   0  0  0  0  0  0  0  0  0  0  0  0
   41.1277   25.8703   29.8426 H   0  0  0  0  0  0  0  0  0  0  0  0
   41.5303   27.8975   30.2831 H   0  0  0  0  0  0  0  0  0  0  0  0
   42.5521   26.9568   32.2407 H   0  0  0  0  0  0  0  0  0  0  0  0
   42.0053   28.6232   32.4981 H   0  0  0  0  0  0  0  0  0  0  0  0
   39.7927   27.7082   33.3345 H   0  0  0  0  0  0  0  0  0  0  0  0
   41.1950   27.2002   34.3403 H   0  0  0  0  0  0  0  0  0  0  0  0
   38.3359   23.9880   32.4435 H   0  0  0  0  0  0  0  0  0  0  0  0
   34.6890   22.8012   31.3475 H   0  0  0  0  0  0  0  0  0  0  0  0
   35.2427   24.4746   31.6226 H   0  0  0  0  0  0  0  0  0  0  0  0
  1  6  1  0
  1  9  1  0
  2  1  1  0
  3  4  1  0
  3  2  1  0
  4  5  1  0
  5  6  1  0
  7 12  2  0
  8  9  2  0
  8  7  1  0
  9 10  1  0
 10 11  2  0
 11 19  1  0
 12 11  1  0
 13 18  1  0
 13  8  1  0
 14 13  1  0
 15 16  1  0
 15 14  1  0
 16 17  1  0
 17 18  1  0
 19 21  1  0
 19 22  1  0
 20 19  1  0
 23  2  1  0
 24 23  1  0
 25 24  1  0
 26 24  2  0
  2 27  1  1
  3 28  1  0
  3 29  1  0
  5 30  1  0
  5 31  1  0
  6 32  1  0
  6 33  1  0
  7 34  1  0
 14 35  1  0
 14 36  1  0
 15 37  1  0
 15 38  1  0
 16 39  1  0
 17 40  1  0
 17 41  1  0
 18 42  1  0
 18 43  1  0
 23 44  1  0
 25 45  1  0
 25 46  1  0
M  ISO  8  27  13  28  13  29  13  30  13  31  13  32  13  33  13  34  14
M  ISO  8  35  13  36  13  37  13  38  13  39   5  40  13  41  13  42  13
M  ISO  1  43  13
M  END
>  <minimizedAffinity>  (1) 
-5.31453991

>  <minimizedRMSD>  (1) 
5.11167908

$$$$
