
     RDKit          3D

 39 41  0  0  1  0  0  0  0  0999 V2000
   40.6650   25.1700   34.7750 N   0  0  0  0  0  0  0  0  0  0  0  0
   40.5030   26.6180   34.7340 C   0  0  1  0  0  0  0  0  0  0  0  0
   41.4730   27.2070   33.7480 C   0  0  0  0  0  0  0  0  0  0  0  0
   42.3440   26.2420   33.2850 O   0  0  0  0  0  0  0  0  0  0  0  0
   42.9920   25.7060   34.4080 C   0  0  0  0  0  0  0  0  0  0  0  0
   42.0030   24.8220   35.1300 C   0  0  0  0  0  0  0  0  0  0  0  0
   37.8340   22.7450   35.0330 C   0  0  0  0  0  0  0  0  0  0  0  0
   38.8490   23.6150   35.4550 C   0  0  0  0  0  0  0  0  0  0  0  0
   39.6330   24.2680   34.5190 C   0  0  0  0  0  0  0  0  0  0  0  0
   39.3540   24.0080   33.2310 N   0  0  0  0  0  0  0  0  0  0  0  0
   38.4120   23.2000   32.8020 C   0  0  0  0  0  0  0  0  0  0  0  0
   37.6330   22.5510   33.7210 N   0  0  0  0  0  0  0  0  0  0  0  0
   38.2240   23.0200   31.3180 C   0  0  0  0  0  0  0  0  0  0  0  0
   39.3940   23.1800   30.6420 F   0  0  0  0  0  0  0  0  0  0  0  0
   37.7130   21.7280   31.1910 F   0  0  0  0  0  0  0  0  0  0  0  0
   37.2720   23.8780   30.8230 F   0  0  0  0  0  0  0  0  0  0  0  0
   39.1480   23.8950   36.8850 C   0  0  0  0  0  0  0  0  0  0  0  0
   39.4880   22.8790   37.8730 C   0  0  0  0  0  0  0  0  0  0  0  0
   38.0750   23.3970   37.8470 C   0  0  0  0  0  0  0  0  0  0  0  0
   39.1760   26.9030   34.2810 N   0  0  0  0  0  0  0  0  0  0  0  0
   38.1560   27.2850   35.1550 C   0  0  0  0  0  0  0  0  0  0  0  0
   38.6570   27.6970   36.2450 N   0  0  0  0  0  0  0  0  0  0  0  0
   36.9080   27.3310   35.1530 O   0  0  0  0  0  0  0  0  0  0  0  0
   40.6838   27.0434   35.7322 H   0  0  0  0  0  0  0  0  0  0  0  0
   40.9143   27.6267   32.8985 H   0  0  0  0  0  0  0  0  0  0  0  0
   42.0529   27.9954   34.2501 H   0  0  0  0  0  0  0  0  0  0  0  0
   43.8626   25.1131   34.0908 H   0  0  0  0  0  0  0  0  0  0  0  0
   43.3446   26.5106   35.0700 H   0  0  0  0  0  0  0  0  0  0  0  0
   42.1328   24.9457   36.2153 H   0  0  0  0  0  0  0  0  0  0  0  0
   42.1857   23.7764   34.8414 H   0  0  0  0  0  0  0  0  0  0  0  0
   37.2070   22.2252   35.7724 H   0  0  0  0  0  0  0  0  0  0  0  0
   39.6651   24.8283   36.6174 H   0  0  0  0  0  0  0  0  0  0  0  0
   39.6968   21.8497   37.5460 H   0  0  0  0  0  0  0  0  0  0  0  0
   40.2596   22.7961   38.6526 H   0  0  0  0  0  0  0  0  0  0  0  0
   37.7053   24.0471   38.6537 H   0  0  0  0  0  0  0  0  0  0  0  0
   37.0713   22.9564   37.7550 H   0  0  0  0  0  0  0  0  0  0  0  0
   38.9659   26.8237   33.2758 H   0  0  0  0  0  0  0  0  0  0  0  0
   38.0415   28.0194   37.0053 H   0  0  0  0  0  0  0  0  0  0  0  0
   39.6793   27.7091   36.3698 H   0  0  0  0  0  0  0  0  0  0  0  0
  1  6  1  0
  2  1  1  0
  3  2  1  0
  4  3  1  0
  4  5  1  0
  5  6  1  0
  7  8  2  0
  8 17  1  0
  9  1  1  0
  9  8  1  0
 10  9  2  0
 11 10  1  0
 11 12  2  0
 12  7  1  0
 13 11  1  0
 14 13  1  0
 15 13  1  0
 16 13  1  0
 17 19  1  0
 17 18  1  0
 19 18  1  0
 20  2  1  0
 20 21  1  0
 21 22  1  0
 23 21  2  0
  2 24  1  1
  3 25  1  0
  3 26  1  0
  5 27  1  0
  5 28  1  0
  6 29  1  0
  6 30  1  0
  7 31  1  0
 17 32  1  0
 18 33  1  0
 18 34  1  0
 19 35  1  0
 19 36  1  0
 20 37  1  0
 22 38  1  0
 22 39  1  0
M  ISO  8  24  13  25  13  26  13  27  13  28  13  29  13  30  13  31  14
M  ISO  5  32  13  33  13  34  13  35  13  36  13
M  END
>  <minimizedAffinity>  (1) 
-4.93986654

>  <minimizedRMSD>  (1) 
4.66772079

$$$$
