
     RDKit          3D

 39 41  0  0  1  0  0  0  0  0999 V2000
   39.4140   24.8670   34.8080 N   0  0  0  0  0  0  0  0  0  0  0  0
   38.7850   25.3590   36.0290 C   0  0  1  0  0  0  0  0  0  0  0  0
   38.4040   26.8020   35.8550 C   0  0  0  0  0  0  0  0  0  0  0  0
   38.8860   27.2900   34.6480 O   0  0  0  0  0  0  0  0  0  0  0  0
   40.2810   27.1210   34.6940 C   0  0  0  0  0  0  0  0  0  0  0  0
   40.5580   25.6480   34.4890 C   0  0  0  0  0  0  0  0  0  0  0  0
   38.7670   21.4600   33.4360 C   0  0  0  0  0  0  0  0  0  0  0  0
   39.3510   22.4480   34.2340 C   0  0  0  0  0  0  0  0  0  0  0  0
   38.9450   23.7660   34.0910 C   0  0  0  0  0  0  0  0  0  0  0  0
   37.9940   23.9950   33.1700 N   0  0  0  0  0  0  0  0  0  0  0  0
   37.4330   23.0790   32.4100 C   0  0  0  0  0  0  0  0  0  0  0  0
   37.8270   21.7770   32.5430 N   0  0  0  0  0  0  0  0  0  0  0  0
   40.3640   22.1860   35.2110 N   0  0  0  0  0  0  0  0  0  0  0  0
   40.1070   21.9020   36.4960 N   0  0  0  0  0  0  0  0  0  0  0  0
   41.2170   21.7010   37.1950 C   0  0  0  0  0  0  0  0  0  0  0  0
   42.2700   21.8570   36.3340 C   0  0  0  0  0  0  0  0  0  0  0  0
   41.7100   22.1540   35.1250 C   0  0  0  0  0  0  0  0  0  0  0  0
   36.3740   23.4990   31.4250 C   0  0  0  0  0  0  0  0  0  0  0  0
   36.9210   24.0650   30.3160 F   0  0  0  0  0  0  0  0  0  0  0  0
   35.6830   22.3250   31.1360 F   0  0  0  0  0  0  0  0  0  0  0  0
   35.4650   24.3560   31.9960 F   0  0  0  0  0  0  0  0  0  0  0  0
   37.5910   24.6030   36.2520 N   0  0  0  0  0  0  0  0  0  0  0  0
   37.4850   23.6770   37.2970 C   0  0  0  0  0  0  0  0  0  0  0  0
   38.3830   23.9020   38.1630 N   0  0  0  0  0  0  0  0  0  0  0  0
   36.7490   22.7090   37.5880 O   0  0  0  0  0  0  0  0  0  0  0  0
   39.4818   25.2585   36.8742 H   0  0  0  0  0  0  0  0  0  0  0  0
   37.3077   26.8912   35.8697 H   0  0  0  0  0  0  0  0  0  0  0  0
   38.8431   27.3874   36.6762 H   0  0  0  0  0  0  0  0  0  0  0  0
   40.7588   27.7092   33.8967 H   0  0  0  0  0  0  0  0  0  0  0  0
   40.6853   27.4649   35.6575 H   0  0  0  0  0  0  0  0  0  0  0  0
   40.8296   25.4757   33.4371 H   0  0  0  0  0  0  0  0  0  0  0  0
   41.3829   25.3500   35.1529 H   0  0  0  0  0  0  0  0  0  0  0  0
   39.0848   20.4125   33.5449 H   0  0  0  0  0  0  0  0  0  0  0  0
   41.2794   21.4552   38.2654 H   0  0  0  0  0  0  0  0  0  0  0  0
   43.3409   21.7629   36.5672 H   0  0  0  0  0  0  0  0  0  0  0  0
   42.2803   22.3422   34.2034 H   0  0  0  0  0  0  0  0  0  0  0  0
   36.7857   24.7440   35.6255 H   0  0  0  0  0  0  0  0  0  0  0  0
   38.4485   23.3094   39.0029 H   0  0  0  0  0  0  0  0  0  0  0  0
   39.0471   24.6774   38.0267 H   0  0  0  0  0  0  0  0  0  0  0  0
  1  2  1  0
  2 22  1  0
  3  2  1  0
  4  5  1  0
  4  3  1  0
  6  5  1  0
  6  1  1  0
  7  8  2  0
  8 13  1  0
  9  8  1  0
  9  1  1  0
 10  9  2  0
 11 12  2  0
 11 10  1  0
 12  7  1  0
 13 14  1  0
 14 15  2  0
 16 15  1  0
 17 13  1  0
 17 16  2  0
 18 21  1  0
 18 11  1  0
 19 18  1  0
 20 18  1  0
 22 23  1  0
 23 25  2  0
 23 24  1  0
  2 26  1  1
  3 27  1  0
  3 28  1  0
  5 29  1  0
  5 30  1  0
  6 31  1  0
  6 32  1  0
  7 33  1  0
 15 34  1  0
 16 35  1  0
 17 36  1  0
 22 37  1  0
 24 38  1  0
 24 39  1  0
M  ISO  8  26  13  27  13  28  13  29  13  30  13  31  13  32  13  33  14
M  ISO  3  34  14  35  14  36  14
M  END
>  <minimizedAffinity>  (1) 
-5.21072435

>  <minimizedRMSD>  (1) 
5.64652252

$$$$
