
     RDKit          3D

 46 49  0  0  1  0  0  0  0  0999 V2000
   39.5790   23.1660   36.5830 C   0  0  0  0  0  0  0  0  0  0  0  0
   39.9940   24.0210   35.5610 C   0  0  0  0  0  0  0  0  0  0  0  0
   41.2560   23.8480   35.0000 C   0  0  0  0  0  0  0  0  0  0  0  0
   41.9930   22.8400   35.5020 N   0  0  0  0  0  0  0  0  0  0  0  0
   41.6050   22.0250   36.4680 C   0  0  0  0  0  0  0  0  0  0  0  0
   40.3800   22.1880   37.0210 N   0  0  0  0  0  0  0  0  0  0  0  0
   41.8150   24.6070   33.9820 N   0  0  0  0  0  0  0  0  0  0  0  0
   42.8410   25.6240   34.2160 C   0  0  1  0  0  0  0  0  0  0  0  0
   42.3710   26.9500   33.6820 C   0  0  0  0  0  0  0  0  0  0  0  0
   41.1800   26.7990   32.9910 O   0  0  0  0  0  0  0  0  0  0  0  0
   41.4390   25.8920   31.9640 C   0  0  0  0  0  0  0  0  0  0  0  0
   41.5360   24.5170   32.5960 C   0  0  0  0  0  0  0  0  0  0  0  0
   43.0380   25.7560   35.6260 N   0  0  0  0  0  0  0  0  0  0  0  0
   44.2350   25.3690   36.2430 C   0  0  0  0  0  0  0  0  0  0  0  0
   45.1590   25.2780   35.3810 N   0  0  0  0  0  0  0  0  0  0  0  0
   44.6050   25.0980   37.4090 O   0  0  0  0  0  0  0  0  0  0  0  0
   39.1560   25.1140   35.0390 C   0  0  0  0  0  0  0  0  0  0  0  0
   39.0330   26.4490   35.4050 C   0  0  0  0  0  0  0  0  0  0  0  0
   38.1230   27.0390   34.6080 N   0  0  0  0  0  0  0  0  0  0  0  0
   37.6310   26.1560   33.7190 C   0  0  0  0  0  0  0  0  0  0  0  0
   36.6880   26.3350   32.7260 C   0  0  0  0  0  0  0  0  0  0  0  0
   36.3620   25.2360   31.9430 C   0  0  0  0  0  0  0  0  0  0  0  0
   36.9750   24.0290   32.1770 C   0  0  0  0  0  0  0  0  0  0  0  0
   37.9300   23.8490   33.1820 C   0  0  0  0  0  0  0  0  0  0  0  0
   38.2600   24.9520   33.9690 C   0  0  0  0  0  0  0  0  0  0  0  0
   42.5500   20.9340   36.9080 C   0  0  0  0  0  0  0  0  0  0  0  0
   43.8440   21.3130   36.7710 F   0  0  0  0  0  0  0  0  0  0  0  0
   42.1990   20.6910   38.2340 F   0  0  0  0  0  0  0  0  0  0  0  0
   42.3190   19.7650   36.2260 F   0  0  0  0  0  0  0  0  0  0  0  0
   38.5838   23.2975   37.0327 H   0  0  0  0  0  0  0  0  0  0  0  0
   43.7737   25.3273   33.7139 H   0  0  0  0  0  0  0  0  0  0  0  0
   42.2174   27.6445   34.5211 H   0  0  0  0  0  0  0  0  0  0  0  0
   43.1330   27.3480   32.9957 H   0  0  0  0  0  0  0  0  0  0  0  0
   42.3866   26.1461   31.4665 H   0  0  0  0  0  0  0  0  0  0  0  0
   40.6408   25.9193   31.2076 H   0  0  0  0  0  0  0  0  0  0  0  0
   40.5807   23.9900   32.4561 H   0  0  0  0  0  0  0  0  0  0  0  0
   42.3571   23.9687   32.1110 H   0  0  0  0  0  0  0  0  0  0  0  0
   42.2797   26.1460   36.2037 H   0  0  0  0  0  0  0  0  0  0  0  0
   46.1082   25.0021   35.6706 H   0  0  0  0  0  0  0  0  0  0  0  0
   44.9610   25.4799   34.3906 H   0  0  0  0  0  0  0  0  0  0  0  0
   39.5893   26.9434   36.2150 H   0  0  0  0  0  0  0  0  0  0  0  0
   37.8422   28.0281   34.6697 H   0  0  0  0  0  0  0  0  0  0  0  0
   36.2124   27.3131   32.5615 H   0  0  0  0  0  0  0  0  0  0  0  0
   35.6168   25.3311   31.1395 H   0  0  0  0  0  0  0  0  0  0  0  0
   36.7032   23.1687   31.5477 H   0  0  0  0  0  0  0  0  0  0  0  0
   38.4050   22.8706   33.3464 H   0  0  0  0  0  0  0  0  0  0  0  0
  1  6  2  0
  2  1  1  0
  3  4  1  0
  3  2  2  0
  4  5  2  0
  5 26  1  0
  5  6  1  0
  7  8  1  0
  7  3  1  0
  8 13  1  0
  9  8  1  0
 10  9  1  0
 11 12  1  0
 11 10  1  0
 12  7  1  0
 13 14  1  0
 14 16  2  0
 15 14  1  0
 17 18  2  0
 17  2  1  0
 19 18  1  0
 20 25  2  0
 20 19  1  0
 21 20  1  0
 22 23  1  0
 22 21  2  0
 23 24  2  0
 24 25  1  0
 25 17  1  0
 26 28  1  0
 27 26  1  0
 29 26  1  0
  1 30  1  0
  8 31  1  6
  9 32  1  0
  9 33  1  0
 11 34  1  0
 11 35  1  0
 12 36  1  0
 12 37  1  0
 13 38  1  0
 15 39  1  0
 15 40  1  0
 18 41  1  0
 19 42  1  0
 21 43  1  0
 22 44  1  0
 23 45  1  0
 24 46  1  0
M  ISO  8  30  14  31  13  32  13  33  13  34  13  35  13  36  13  37  13
M  ISO  6  41  14  42   9  43  14  44  14  45  14  46  14
M  END
>  <minimizedAffinity>  (1) 
-5.40535641

>  <minimizedRMSD>  (1) 
3.30693078

$$$$
