
     RDKit          3D

 45 47  0  0  1  0  0  0  0  0999 V2000
   40.5240   23.3850   34.2730 N   0  0  0  0  0  0  0  0  0  0  0  0
   40.7440   24.7630   33.8020 C   0  0  1  0  0  0  0  0  0  0  0  0
   41.0070   24.7550   32.3450 C   0  0  0  0  0  0  0  0  0  0  0  0
   41.0620   23.4910   31.8360 O   0  0  0  0  0  0  0  0  0  0  0  0
   42.0980   22.8540   32.5160 C   0  0  0  0  0  0  0  0  0  0  0  0
   41.6320   22.5700   33.9330 C   0  0  0  0  0  0  0  0  0  0  0  0
   37.2470   21.9050   35.2910 C   0  0  0  0  0  0  0  0  0  0  0  0
   38.3350   22.2230   34.4660 C   0  0  0  0  0  0  0  0  0  0  0  0
   39.3900   22.9840   34.9590 C   0  0  0  0  0  0  0  0  0  0  0  0
   39.3030   23.3840   36.2410 N   0  0  0  0  0  0  0  0  0  0  0  0
   38.2900   23.0990   37.0430 C   0  0  0  0  0  0  0  0  0  0  0  0
   37.2360   22.3450   36.5700 N   0  0  0  0  0  0  0  0  0  0  0  0
   39.5840   25.5270   34.1070 N   0  0  0  0  0  0  0  0  0  0  0  0
   39.5570   26.6390   34.9390 C   0  0  0  0  0  0  0  0  0  0  0  0
   40.7250   27.0780   34.9630 N   0  0  0  0  0  0  0  0  0  0  0  0
   38.8590   27.3600   35.6560 O   0  0  0  0  0  0  0  0  0  0  0  0
   38.3370   23.6290   38.4570 C   0  0  0  0  0  0  0  0  0  0  0  0
   37.9660   24.9440   38.5030 F   0  0  0  0  0  0  0  0  0  0  0  0
   37.4170   22.8230   39.1480 F   0  0  0  0  0  0  0  0  0  0  0  0
   39.5470   23.4670   39.0290 F   0  0  0  0  0  0  0  0  0  0  0  0
   38.4500   21.7250   33.0910 C   0  0  0  0  0  0  0  0  0  0  0  0
   37.0490   21.2580   32.7280 C   0  0  0  0  0  0  0  0  0  0  0  0
   37.0450   19.8520   32.5540 C   0  0  0  0  0  0  0  0  0  0  0  0
   36.0120   19.0290   32.1820 C   0  0  0  0  0  0  0  0  0  0  0  0
   34.8070   19.6500   31.9420 C   0  0  0  0  0  0  0  0  0  0  0  0
   34.7700   21.0100   32.0980 C   0  0  0  0  0  0  0  0  0  0  0  0
   35.8260   21.7960   32.4720 C   0  0  0  0  0  0  0  0  0  0  0  0
   41.6166   25.2104   34.3004 H   0  0  0  0  0  0  0  0  0  0  0  0
   40.2018   25.3061   31.8372 H   0  0  0  0  0  0  0  0  0  0  0  0
   41.9857   25.2283   32.1771 H   0  0  0  0  0  0  0  0  0  0  0  0
   42.3499   21.9100   32.0107 H   0  0  0  0  0  0  0  0  0  0  0  0
   42.9923   23.4943   32.5315 H   0  0  0  0  0  0  0  0  0  0  0  0
   41.3388   21.5126   34.0107 H   0  0  0  0  0  0  0  0  0  0  0  0
   42.4573   22.7914   34.6257 H   0  0  0  0  0  0  0  0  0  0  0  0
   36.4115   21.3043   34.9024 H   0  0  0  0  0  0  0  0  0  0  0  0
   38.6950   25.2331   33.6778 H   0  0  0  0  0  0  0  0  0  0  0  0
   40.9502   27.9121   35.5237 H   0  0  0  0  0  0  0  0  0  0  0  0
   41.4637   26.6062   34.4221 H   0  0  0  0  0  0  0  0  0  0  0  0
   38.7782   22.5278   32.4144 H   0  0  0  0  0  0  0  0  0  0  0  0
   39.1924   20.9181   33.0026 H   0  0  0  0  0  0  0  0  0  0  0  0
   38.0049   19.3495   32.7438 H   0  0  0  0  0  0  0  0  0  0  0  0
   36.1388   17.9409   32.0818 H   0  0  0  0  0  0  0  0  0  0  0  0
   33.9159   19.0806   31.6392 H   0  0  0  0  0  0  0  0  0  0  0  0
   33.8107   21.5130   31.9066 H   0  0  0  0  0  0  0  0  0  0  0  0
   35.6833   22.8825   32.5674 H   0  0  0  0  0  0  0  0  0  0  0  0
  1  9  1  0
  2 13  1  0
  2  1  1  0
  3  2  1  0
  4  3  1  0
  4  5  1  0
  5  6  1  0
  6  1  1  0
  7 12  2  0
  8  9  2  0
  8  7  1  0
  9 10  1  0
 10 11  2  0
 11 17  1  0
 12 11  1  0
 13 14  1  0
 14 15  1  0
 14 16  2  0
 17 18  1  0
 17 20  1  0
 17 19  1  0
 21  8  1  0
 22 21  1  0
 23 22  2  0
 24 23  1  0
 25 26  1  0
 25 24  2  0
 26 27  2  0
 27 22  1  0
  2 28  1  1
  3 29  1  0
  3 30  1  0
  5 31  1  0
  5 32  1  0
  6 33  1  0
  6 34  1  0
  7 35  1  0
 13 36  1  0
 15 37  1  0
 15 38  1  0
 21 39  1  0
 21 40  1  0
 23 41  1  0
 24 42  1  0
 25 43  1  0
 26 44  1  0
 27 45  1  0
M  ISO  8  28  13  29  13  30  13  31  13  32  13  33  13  34  13  35  14
M  ISO  7  39   8  40   8  41  14  42  14  43  14  44  14  45  14
M  END
>  <minimizedAffinity>  (1) 
-6.1574831

>  <minimizedRMSD>  (1) 
4.33150434

$$$$
