
     RDKit          3D

 37 38  0  0  1  0  0  0  0  0999 V2000
   39.4510   23.8710   34.2870 N   0  0  0  0  0  0  0  0  0  0  0  0
   39.8730   25.1830   33.7740 C   0  0  1  0  0  0  0  0  0  0  0  0
   38.6820   26.0430   33.5700 C   0  0  0  0  0  0  0  0  0  0  0  0
   37.5130   25.3680   33.8190 O   0  0  0  0  0  0  0  0  0  0  0  0
   37.4980   24.3020   32.9200 C   0  0  0  0  0  0  0  0  0  0  0  0
   38.4970   23.2800   33.4080 C   0  0  0  0  0  0  0  0  0  0  0  0
   39.8810   22.5580   37.7610 C   0  0  0  0  0  0  0  0  0  0  0  0
   39.2490   23.1710   36.6640 C   0  0  0  0  0  0  0  0  0  0  0  0
   39.9200   23.3080   35.4550 C   0  0  0  0  0  0  0  0  0  0  0  0
   41.1760   22.8290   35.4160 N   0  0  0  0  0  0  0  0  0  0  0  0
   41.8040   22.2480   36.4200 C   0  0  0  0  0  0  0  0  0  0  0  0
   41.1410   22.1090   37.6210 N   0  0  0  0  0  0  0  0  0  0  0  0
   40.7720   25.7480   34.7200 N   0  0  0  0  0  0  0  0  0  0  0  0
   42.1480   25.6640   34.6790 C   0  0  0  0  0  0  0  0  0  0  0  0
   42.4240   25.4310   33.4860 N   0  0  0  0  0  0  0  0  0  0  0  0
   43.2040   25.7190   35.3140 O   0  0  0  0  0  0  0  0  0  0  0  0
   43.2130   21.7600   36.2060 C   0  0  0  0  0  0  0  0  0  0  0  0
   44.1230   22.7360   36.5260 F   0  0  0  0  0  0  0  0  0  0  0  0
   43.3310   20.6590   37.0550 F   0  0  0  0  0  0  0  0  0  0  0  0
   43.4240   21.3200   34.9460 F   0  0  0  0  0  0  0  0  0  0  0  0
   37.8670   23.6910   36.7120 C   0  0  0  0  0  0  0  0  0  0  0  0
   36.9820   22.5680   37.0770 N   0  0  0  0  0  0  0  0  0  0  0  0
   40.3804   25.0888   32.8026 H   0  0  0  0  0  0  0  0  0  0  0  0
   38.7459   26.9056   34.2496 H   0  0  0  0  0  0  0  0  0  0  0  0
   38.6713   26.3656   32.5184 H   0  0  0  0  0  0  0  0  0  0  0  0
   37.7804   24.6534   31.9166 H   0  0  0  0  0  0  0  0  0  0  0  0
   36.4920   23.8612   32.8598 H   0  0  0  0  0  0  0  0  0  0  0  0
   37.9616   22.4821   33.9435 H   0  0  0  0  0  0  0  0  0  0  0  0
   39.0313   22.8717   32.5375 H   0  0  0  0  0  0  0  0  0  0  0  0
   39.3524   22.4475   38.7193 H   0  0  0  0  0  0  0  0  0  0  0  0
   40.3579   26.2671   35.5073 H   0  0  0  0  0  0  0  0  0  0  0  0
   43.4065   25.3235   33.1962 H   0  0  0  0  0  0  0  0  0  0  0  0
   41.6695   25.3460   32.7900 H   0  0  0  0  0  0  0  0  0  0  0  0
   37.7919   24.4885   37.4659 H   0  0  0  0  0  0  0  0  0  0  0  0
   37.5774   24.1110   35.7375 H   0  0  0  0  0  0  0  0  0  0  0  0
   36.9248   22.4954   38.1028 H   0  0  0  0  0  0  0  0  0  0  0  0
   36.0412   22.7329   36.6915 H   0  0  0  0  0  0  0  0  0  0  0  0
  1  9  1  0
  2  1  1  0
  2 13  1  0
  3  2  1  0
  3  4  1  0
  5  6  1  0
  5  4  1  0
  6  1  1  0
  8 21  1  0
  8  7  2  0
  9  8  1  0
 10  9  2  0
 10 11  1  0
 11 12  2  0
 12  7  1  0
 14 13  1  0
 14 16  2  0
 15 14  1  0
 17 11  1  0
 17 18  1  0
 17 19  1  0
 20 17  1  0
 21 22  1  0
  2 23  1  6
  3 24  1  0
  3 25  1  0
  5 26  1  0
  5 27  1  0
  6 28  1  0
  6 29  1  0
  7 30  1  0
 13 31  1  0
 15 32  1  0
 15 33  1  0
 21 34  1  0
 21 35  1  0
 22 36  1  0
 22 37  1  0
M  ISO  8  23  13  24  13  25  13  26  13  27  13  28  13  29  13  30  14
M  ISO  4  34   8  35   8  36   5  37   5
M  END
>  <minimizedAffinity>  (1) 
-4.42611217

>  <minimizedRMSD>  (1) 
0.967945576

$$$$
