
     RDKit          3D

 14 14  0  0  0  0  0  0  0  0999 V2000
   39.7850   22.6030   36.9140 C   0  0  0  0  0  0  0  0  0  0  0  0
   38.8090   23.5600   37.2700 C   0  0  0  0  0  0  0  0  0  0  0  0
   38.3110   24.3690   36.2490 C   0  0  0  0  0  0  0  0  0  0  0  0
   38.7700   24.2140   34.9760 N   0  0  0  0  0  0  0  0  0  0  0  0
   39.7220   23.2630   34.6950 C   0  0  0  0  0  0  0  0  0  0  0  0
   40.2040   22.4850   35.6580 N   0  0  0  0  0  0  0  0  0  0  0  0
   38.2950   23.7380   38.6530 C   0  0  0  0  0  0  0  0  0  0  0  0
   39.3980   23.8060   39.4830 F   0  0  0  0  0  0  0  0  0  0  0  0
   37.5250   22.6820   39.0540 F   0  0  0  0  0  0  0  0  0  0  0  0
   37.6470   24.9500   38.7980 F   0  0  0  0  0  0  0  0  0  0  0  0
   40.2370   21.8330   37.9780 O   0  0  0  0  0  0  0  0  0  0  0  0
   37.5491   25.1307   36.4713 H   0  0  0  0  0  0  0  0  0  0  0  0
   40.0877   23.1452   33.6643 H   0  0  0  0  0  0  0  0  0  0  0  0
   40.9223   21.1345   37.8276 H   0  0  0  0  0  0  0  0  0  0  0  0
  1  2  2  0
  1 11  1  0
  2  7  1  0
  3  2  1  0
  4  3  2  0
  5  4  1  0
  5  6  2  0
  6  1  1  0
  7 10  1  0
  7  9  1  0
  7  8  1  0
  3 12  1  0
  5 13  1  0
 11 14  1  0
M  ISO  3  12  14  13  14  14   3
M  END
>  <minimizedAffinity>  (1) 
-4.3300128

>  <minimizedRMSD>  (1) 
1.13299084

$$$$
