
     RDKit          3D

 26 27  0  0  0  0  0  0  0  0999 V2000
   39.2340   24.1960   36.0970 C   0  0  0  0  0  0  0  0  0  0  0  0
   39.1580   23.4770   37.3150 C   0  0  0  0  0  0  0  0  0  0  0  0
   40.2450   22.6960   37.7020 C   0  0  0  0  0  0  0  0  0  0  0  0
   41.3480   22.6500   36.8950 N   0  0  0  0  0  0  0  0  0  0  0  0
   41.3850   23.3510   35.7390 C   0  0  0  0  0  0  0  0  0  0  0  0
   40.3450   24.0940   35.3760 N   0  0  0  0  0  0  0  0  0  0  0  0
   38.1150   25.0400   35.6450 C   0  0  0  0  0  0  0  0  0  0  0  0
   38.0470   25.3280   34.1960 C   0  0  0  0  0  0  0  0  0  0  0  0
   38.6320   26.6760   33.8980 C   0  0  0  0  0  0  0  0  0  0  0  0
   39.3170   27.0940   35.1860 C   0  0  0  0  0  0  0  0  0  0  0  0
   38.3820   26.4620   36.1900 C   0  0  0  0  0  0  0  0  0  0  0  0
   37.9700   23.5420   38.1890 C   0  0  0  0  0  0  0  0  0  0  0  0
   36.8440   23.3180   37.4790 F   0  0  0  0  0  0  0  0  0  0  0  0
   37.8440   24.7700   38.7930 F   0  0  0  0  0  0  0  0  0  0  0  0
   37.9820   22.5380   39.1600 F   0  0  0  0  0  0  0  0  0  0  0  0
   40.2164   22.1253   38.6420 H   0  0  0  0  0  0  0  0  0  0  0  0
   42.2778   23.3059   35.0980 H   0  0  0  0  0  0  0  0  0  0  0  0
   37.2179   24.4922   35.9692 H   0  0  0  0  0  0  0  0  0  0  0  0
   38.6118   24.5596   33.6478 H   0  0  0  0  0  0  0  0  0  0  0  0
   36.9927   25.3216   33.8822 H   0  0  0  0  0  0  0  0  0  0  0  0
   39.3598   26.6095   33.0759 H   0  0  0  0  0  0  0  0  0  0  0  0
   37.8670   27.3999   33.5804 H   0  0  0  0  0  0  0  0  0  0  0  0
   40.3349   26.6837   35.2600 H   0  0  0  0  0  0  0  0  0  0  0  0
   39.4643   28.1776   35.3047 H   0  0  0  0  0  0  0  0  0  0  0  0
   37.4441   27.0328   36.2581 H   0  0  0  0  0  0  0  0  0  0  0  0
   38.8125   26.4434   37.2021 H   0  0  0  0  0  0  0  0  0  0  0  0
  1  2  2  0
  2  3  1  0
  2 12  1  0
  4  3  2  0
  5  4  1  0
  6  5  2  0
  6  1  1  0
  7  1  1  0
  7 11  1  0
  8  7  1  0
  9  8  1  0
  9 10  1  0
 10 11  1  0
 12 14  1  0
 12 15  1  0
 13 12  1  0
  3 16  1  0
  5 17  1  0
  7 18  1  0
  8 19  1  0
  8 20  1  0
  9 21  1  0
  9 22  1  0
 10 23  1  0
 10 24  1  0
 11 25  1  0
 11 26  1  0
M  ISO  8  16  14  17  14  18  13  19  13  20  13  21  13  22  13  23  13
M  ISO  3  24  13  25  13  26  13
M  END
>  <minimizedAffinity>  (1) 
-4.76424694

>  <minimizedRMSD>  (1) 
4.10851145

$$$$
