
     RDKit          3D

 22 22  0  0  0  0  0  0  0  0999 V2000
   39.9500   22.5770   36.4470 C   0  0  0  0  0  0  0  0  0  0  0  0
   38.6850   22.9760   36.9000 C   0  0  0  0  0  0  0  0  0  0  0  0
   37.5900   22.8990   36.0170 C   0  0  0  0  0  0  0  0  0  0  0  0
   37.7990   22.4380   34.7530 N   0  0  0  0  0  0  0  0  0  0  0  0
   39.0300   22.0590   34.3430 C   0  0  0  0  0  0  0  0  0  0  0  0
   40.0560   22.1340   35.1750 N   0  0  0  0  0  0  0  0  0  0  0  0
   38.4410   23.4750   38.2720 C   0  0  0  0  0  0  0  0  0  0  0  0
   39.6110   23.4020   38.9630 F   0  0  0  0  0  0  0  0  0  0  0  0
   37.4840   22.7710   38.9420 F   0  0  0  0  0  0  0  0  0  0  0  0
   38.1450   24.8560   38.2720 F   0  0  0  0  0  0  0  0  0  0  0  0
   41.1820   22.6130   37.2510 C   0  0  0  0  0  0  0  0  0  0  0  0
   41.7650   21.2050   37.4510 C   0  0  0  0  0  0  0  0  0  0  0  0
   42.2640   23.3170   36.4000 C   0  0  0  0  0  0  0  0  0  0  0  0
   36.5850   23.2056   36.3426 H   0  0  0  0  0  0  0  0  0  0  0  0
   39.1787   21.6884   33.3180 H   0  0  0  0  0  0  0  0  0  0  0  0
   40.9419   23.0946   38.2104 H   0  0  0  0  0  0  0  0  0  0  0  0
   41.8525   20.9938   38.5270 H   0  0  0  0  0  0  0  0  0  0  0  0
   41.1001   20.4632   36.9846 H   0  0  0  0  0  0  0  0  0  0  0  0
   42.7597   21.1504   36.9846 H   0  0  0  0  0  0  0  0  0  0  0  0
   42.9991   23.7953   37.0641 H   0  0  0  0  0  0  0  0  0  0  0  0
   42.7712   22.5755   35.7653 H   0  0  0  0  0  0  0  0  0  0  0  0
   41.7915   24.0811   35.7653 H   0  0  0  0  0  0  0  0  0  0  0  0
  1  2  2  0
  1 11  1  0
  2  7  1  0
  3  2  1  0
  4  3  2  0
  5  4  1  0
  5  6  2  0
  6  1  1  0
  7 10  1  0
  7  9  1  0
  7  8  1  0
 11 12  1  0
 13 11  1  0
  3 14  1  0
  5 15  1  0
 11 16  1  0
 12 17  1  0
 12 18  1  0
 12 19  1  0
 13 20  1  0
 13 21  1  0
 13 22  1  0
M  ISO  8  14  14  15  14  16   8  17   8  18   8  19   8  20   8  21   8
M  ISO  1  22   8
M  END
>  <minimizedAffinity>  (1) 
-4.20045662

>  <minimizedRMSD>  (1) 
1.62430704

$$$$
