
     RDKit          3D

 19 19  0  0  0  0  0  0  0  0999 V2000
   39.6770   23.1540   36.6960 C   0  0  0  0  0  0  0  0  0  0  0  0
   38.6080   23.9170   37.2280 C   0  0  0  0  0  0  0  0  0  0  0  0
   37.9380   24.7780   36.3790 C   0  0  0  0  0  0  0  0  0  0  0  0
   38.3080   24.8770   35.0810 N   0  0  0  0  0  0  0  0  0  0  0  0
   39.3470   24.1250   34.5950 C   0  0  0  0  0  0  0  0  0  0  0  0
   39.9980   23.2940   35.3990 N   0  0  0  0  0  0  0  0  0  0  0  0
   38.2010   23.8200   38.6550 C   0  0  0  0  0  0  0  0  0  0  0  0
   39.3360   23.8120   39.4260 F   0  0  0  0  0  0  0  0  0  0  0  0
   37.4820   22.7120   38.9230 F   0  0  0  0  0  0  0  0  0  0  0  0
   37.5270   24.9920   39.0530 F   0  0  0  0  0  0  0  0  0  0  0  0
   40.4260   22.2300   37.5400 C   0  0  0  0  0  0  0  0  0  0  0  0
   41.8040   21.9670   36.9070 C   0  0  0  0  0  0  0  0  0  0  0  0
   37.1024   25.3839   36.7593 H   0  0  0  0  0  0  0  0  0  0  0  0
   39.6407   24.2108   33.5384 H   0  0  0  0  0  0  0  0  0  0  0  0
   40.5585   22.6701   38.5394 H   0  0  0  0  0  0  0  0  0  0  0  0
   39.8744   21.2825   37.6295 H   0  0  0  0  0  0  0  0  0  0  0  0
   42.5513   21.8244   37.7015 H   0  0  0  0  0  0  0  0  0  0  0  0
   41.7544   21.0621   36.2835 H   0  0  0  0  0  0  0  0  0  0  0  0
   42.0912   22.8265   36.2835 H   0  0  0  0  0  0  0  0  0  0  0  0
  1  2  2  0
  1 11  1  0
  2  7  1  0
  3  2  1  0
  4  3  2  0
  5  4  1  0
  5  6  2  0
  6  1  1  0
  7  9  1  0
  7 10  1  0
  7  8  1  0
 12 11  1  0
  3 13  1  0
  5 14  1  0
 11 15  1  0
 11 16  1  0
 12 17  1  0
 12 18  1  0
 12 19  1  0
M  ISO  7  13  14  14  14  15   8  16   8  17   8  18   8  19   8
M  END
>  <minimizedAffinity>  (1) 
-4.16018963

>  <minimizedRMSD>  (1) 
1.69414008

$$$$
