
     RDKit          3D

 27 29  0  0  0  0  0  0  0  0999 V2000
   38.4000   23.7850   35.5960 C   0  0  0  0  0  0  0  0  0  0  0  0
   38.2770   24.5720   36.7500 C   0  0  0  0  0  0  0  0  0  0  0  0
   38.2600   25.9690   36.5980 C   0  0  0  0  0  0  0  0  0  0  0  0
   38.3630   26.4990   35.3480 N   0  0  0  0  0  0  0  0  0  0  0  0
   38.4790   25.7030   34.2680 C   0  0  0  0  0  0  0  0  0  0  0  0
   38.4980   24.3730   34.3840 N   0  0  0  0  0  0  0  0  0  0  0  0
   38.5770   26.3980   33.0280 N   0  0  0  0  0  0  0  0  0  0  0  0
   39.5520   26.4110   32.0990 C   0  0  0  0  0  0  0  0  0  0  0  0
   39.2150   27.2200   31.0750 N   0  0  0  0  0  0  0  0  0  0  0  0
   37.9870   27.7420   31.3540 C   0  0  0  0  0  0  0  0  0  0  0  0
   37.1530   28.6260   30.6660 C   0  0  0  0  0  0  0  0  0  0  0  0
   35.9700   28.9740   31.1920 N   0  0  0  0  0  0  0  0  0  0  0  0
   35.6110   28.4540   32.3840 C   0  0  0  0  0  0  0  0  0  0  0  0
   36.3820   27.5950   33.0890 N   0  0  0  0  0  0  0  0  0  0  0  0
   37.5910   27.2200   32.5860 C   0  0  0  0  0  0  0  0  0  0  0  0
   38.1660   23.9760   38.0970 C   0  0  0  0  0  0  0  0  0  0  0  0
   39.3620   23.4410   38.4270 F   0  0  0  0  0  0  0  0  0  0  0  0
   37.1870   23.0330   38.1900 F   0  0  0  0  0  0  0  0  0  0  0  0
   37.9660   25.0040   39.0540 F   0  0  0  0  0  0  0  0  0  0  0  0
   38.4460   22.3090   35.5350 C   0  0  0  0  0  0  0  0  0  0  0  0
   37.2410   21.7610   35.9270 F   0  0  0  0  0  0  0  0  0  0  0  0
   38.8040   21.8790   34.2600 F   0  0  0  0  0  0  0  0  0  0  0  0
   39.3930   21.7640   36.3530 F   0  0  0  0  0  0  0  0  0  0  0  0
   38.1649   26.6247   37.4760 H   0  0  0  0  0  0  0  0  0  0  0  0
   40.4908   25.8417   32.1664 H   0  0  0  0  0  0  0  0  0  0  0  0
   37.4661   29.0359   29.6945 H   0  0  0  0  0  0  0  0  0  0  0  0
   34.6375   28.7447   32.8058 H   0  0  0  0  0  0  0  0  0  0  0  0
  1  2  2  0
  2 16  1  0
  3  2  1  0
  4  3  2  0
  5  6  2  0
  5  4  1  0
  6  1  1  0
  7  5  1  0
  8  7  1  0
  9 10  1  0
  9  8  2  0
 10 15  2  0
 11 12  2  0
 11 10  1  0
 12 13  1  0
 13 14  2  0
 15  7  1  0
 15 14  1  0
 16 18  1  0
 16 17  1  0
 16 19  1  0
 20  1  1  0
 20 21  1  0
 20 23  1  0
 22 20  1  0
  3 24  1  0
  8 25  1  0
 11 26  1  0
 13 27  1  0
M  ISO  4  24  14  25  14  26  14  27  14
M  END
>  <minimizedAffinity>  (1) 
-6.02945471

>  <minimizedRMSD>  (1) 
2.67383027

$$$$
