
     RDKit          3D

 30 32  0  0  0  0  0  0  0  0999 V2000
   38.8760   23.7600   35.7380 C   0  0  0  0  0  0  0  0  0  0  0  0
   38.4460   24.5090   36.8430 C   0  0  0  0  0  0  0  0  0  0  0  0
   38.3730   25.9070   36.7060 C   0  0  0  0  0  0  0  0  0  0  0  0
   38.7180   26.4700   35.5170 N   0  0  0  0  0  0  0  0  0  0  0  0
   39.1260   25.7110   34.4820 C   0  0  0  0  0  0  0  0  0  0  0  0
   39.2030   24.3940   34.5880 N   0  0  0  0  0  0  0  0  0  0  0  0
   39.4550   26.4380   33.3020 N   0  0  0  0  0  0  0  0  0  0  0  0
   40.5830   27.0900   32.9620 C   0  0  0  0  0  0  0  0  0  0  0  0
   40.3910   27.6050   31.7540 N   0  0  0  0  0  0  0  0  0  0  0  0
   39.1710   27.3000   31.3160 C   0  0  0  0  0  0  0  0  0  0  0  0
   38.4660   27.5640   30.1720 C   0  0  0  0  0  0  0  0  0  0  0  0
   39.0430   28.2510   29.2870 O   0  0  0  0  0  0  0  0  0  0  0  0
   37.2220   27.1450   29.9410 N   0  0  0  0  0  0  0  0  0  0  0  0
   36.6650   26.4170   30.9310 C   0  0  0  0  0  0  0  0  0  0  0  0
   35.3460   25.9020   30.8280 N   0  0  0  0  0  0  0  0  0  0  0  0
   37.3050   26.1150   32.0930 N   0  0  0  0  0  0  0  0  0  0  0  0
   38.5480   26.5480   32.2940 C   0  0  0  0  0  0  0  0  0  0  0  0
   38.0740   23.8740   38.1270 C   0  0  0  0  0  0  0  0  0  0  0  0
   39.1960   23.3620   38.6850 F   0  0  0  0  0  0  0  0  0  0  0  0
   37.1310   22.8990   37.9980 F   0  0  0  0  0  0  0  0  0  0  0  0
   37.6550   24.8690   39.0410 F   0  0  0  0  0  0  0  0  0  0  0  0
   39.0260   22.2920   35.6750 C   0  0  0  0  0  0  0  0  0  0  0  0
   39.4840   21.8920   34.4340 F   0  0  0  0  0  0  0  0  0  0  0  0
   39.8550   21.8350   36.6960 F   0  0  0  0  0  0  0  0  0  0  0  0
   37.8570   21.6140   35.8750 F   0  0  0  0  0  0  0  0  0  0  0  0
   38.0423   26.5346   37.5467 H   0  0  0  0  0  0  0  0  0  0  0  0
   41.4940   27.1792   33.5719 H   0  0  0  0  0  0  0  0  0  0  0  0
   36.7209   27.3618   29.0677 H   0  0  0  0  0  0  0  0  0  0  0  0
   34.9471   25.3494   31.6003 H   0  0  0  0  0  0  0  0  0  0  0  0
   34.7879   26.0810   29.9810 H   0  0  0  0  0  0  0  0  0  0  0  0
  1  2  2  0
  2 18  1  0
  3  2  1  0
  4  3  2  0
  5  6  2  0
  5  4  1  0
  6  1  1  0
  7  5  1  0
  8  7  1  0
  9  8  2  0
 10  9  1  0
 10 17  2  0
 11 10  1  0
 12 11  2  0
 13 11  1  0
 13 14  1  0
 14 16  2  0
 15 14  1  0
 16 17  1  0
 17  7  1  0
 18 19  1  0
 18 21  1  0
 20 18  1  0
 22  1  1  0
 22 25  1  0
 22 24  1  0
 23 22  1  0
  3 26  1  0
  8 27  1  0
 13 28  1  0
 15 29  1  0
 15 30  1  0
M  ISO  3  26  14  27  14  28   9
M  END
>  <minimizedAffinity>  (1) 
-6.20542383

>  <minimizedRMSD>  (1) 
2.65670466

$$$$
