
     RDKit          3D

 30 32  0  0  0  0  0  0  0  0999 V2000
   38.4540   23.7630   35.5780 C   0  0  0  0  0  0  0  0  0  0  0  0
   38.3310   24.5880   36.6930 C   0  0  0  0  0  0  0  0  0  0  0  0
   38.3990   25.9740   36.5180 C   0  0  0  0  0  0  0  0  0  0  0  0
   38.5840   26.4600   35.2660 N   0  0  0  0  0  0  0  0  0  0  0  0
   38.7020   25.6240   34.1930 C   0  0  0  0  0  0  0  0  0  0  0  0
   38.6350   24.3310   34.3780 N   0  0  0  0  0  0  0  0  0  0  0  0
   38.8940   26.4020   32.9720 C   0  0  0  0  0  0  0  0  0  0  0  0
   40.0130   26.3870   32.2300 N   0  0  0  0  0  0  0  0  0  0  0  0
   40.2200   27.0830   31.1120 C   0  0  0  0  0  0  0  0  0  0  0  0
   39.2650   27.8990   30.6160 N   0  0  0  0  0  0  0  0  0  0  0  0
   38.0800   27.9980   31.2850 C   0  0  0  0  0  0  0  0  0  0  0  0
   37.1080   28.8290   30.7780 C   0  0  0  0  0  0  0  0  0  0  0  0
   35.8980   28.9550   31.4250 C   0  0  0  0  0  0  0  0  0  0  0  0
   35.7180   28.2160   32.5860 C   0  0  0  0  0  0  0  0  0  0  0  0
   36.7320   27.4030   33.0350 C   0  0  0  0  0  0  0  0  0  0  0  0
   37.9530   27.2450   32.4290 C   0  0  0  0  0  0  0  0  0  0  0  0
   38.1320   24.0430   38.0590 C   0  0  0  0  0  0  0  0  0  0  0  0
   39.3080   23.4660   38.4610 F   0  0  0  0  0  0  0  0  0  0  0  0
   37.1360   23.1470   38.1560 F   0  0  0  0  0  0  0  0  0  0  0  0
   37.9710   25.1190   38.9860 F   0  0  0  0  0  0  0  0  0  0  0  0
   38.4180   22.3020   35.5410 C   0  0  0  0  0  0  0  0  0  0  0  0
   38.5780   21.8090   34.2640 F   0  0  0  0  0  0  0  0  0  0  0  0
   39.3570   21.7380   36.4020 F   0  0  0  0  0  0  0  0  0  0  0  0
   37.2240   21.7740   35.9880 F   0  0  0  0  0  0  0  0  0  0  0  0
   38.3045   26.6545   37.3770 H   0  0  0  0  0  0  0  0  0  0  0  0
   41.1819   26.9914   30.5863 H   0  0  0  0  0  0  0  0  0  0  0  0
   37.2972   29.3944   29.8536 H   0  0  0  0  0  0  0  0  0  0  0  0
   35.1073   29.6141   31.0374 H   0  0  0  0  0  0  0  0  0  0  0  0
   34.7714   28.2802   33.1427 H   0  0  0  0  0  0  0  0  0  0  0  0
   36.5491   26.8316   33.9570 H   0  0  0  0  0  0  0  0  0  0  0  0
  1  2  2  0
  2 17  1  0
  3  2  1  0
  4  3  2  0
  5  6  2  0
  5  4  1  0
  6  1  1  0
  7  5  1  0
  8  7  2  0
  9  8  1  0
 10  9  2  0
 10 11  1  0
 11 16  2  0
 12 11  1  0
 12 13  2  0
 13 14  1  0
 14 15  2  0
 16  7  1  0
 16 15  1  0
 17 19  1  0
 17 18  1  0
 17 20  1  0
 21  1  1  0
 21 24  1  0
 21 23  1  0
 22 21  1  0
  3 25  1  0
  9 26  1  0
 12 27  1  0
 13 28  1  0
 14 29  1  0
 15 30  1  0
M  ISO  6  25  14  26  14  27  14  28  14  29  14  30  14
M  END
>  <minimizedAffinity>  (1) 
-6.01944447

>  <minimizedRMSD>  (1) 
1.88755882

$$$$
