
     RDKit          3D

 26 27  0  0  0  0  0  0  0  0999 V2000
   39.1810   23.7460   35.8400 C   0  0  0  0  0  0  0  0  0  0  0  0
   38.3630   24.3520   36.8050 C   0  0  0  0  0  0  0  0  0  0  0  0
   37.6070   25.4680   36.4190 C   0  0  0  0  0  0  0  0  0  0  0  0
   37.6840   25.9240   35.1470 N   0  0  0  0  0  0  0  0  0  0  0  0
   38.4870   25.3070   34.2450 C   0  0  0  0  0  0  0  0  0  0  0  0
   39.2130   24.2500   34.5860 N   0  0  0  0  0  0  0  0  0  0  0  0
   38.5100   25.8510   32.9270 N   0  0  0  0  0  0  0  0  0  0  0  0
   39.4860   26.7730   32.6760 C   0  0  0  0  0  0  0  0  0  0  0  0
   39.5830   27.3510   31.4260 C   0  0  0  0  0  0  0  0  0  0  0  0
   38.6780   26.9850   30.4310 C   0  0  0  0  0  0  0  0  0  0  0  0
   38.7350   27.4970   29.2640 O   0  0  0  0  0  0  0  0  0  0  0  0
   37.7310   26.0690   30.7270 N   0  0  0  0  0  0  0  0  0  0  0  0
   37.6310   25.5020   31.9430 C   0  0  0  0  0  0  0  0  0  0  0  0
   36.7640   24.6450   32.2600 O   0  0  0  0  0  0  0  0  0  0  0  0
   38.2840   23.8470   38.1940 C   0  0  0  0  0  0  0  0  0  0  0  0
   39.5390   23.5990   38.6260 F   0  0  0  0  0  0  0  0  0  0  0  0
   37.5150   22.7310   38.3150 F   0  0  0  0  0  0  0  0  0  0  0  0
   37.8160   24.8810   39.0430 F   0  0  0  0  0  0  0  0  0  0  0  0
   40.0540   22.5710   36.0320 C   0  0  0  0  0  0  0  0  0  0  0  0
   40.5030   22.0820   34.8210 F   0  0  0  0  0  0  0  0  0  0  0  0
   41.1260   22.8860   36.8630 F   0  0  0  0  0  0  0  0  0  0  0  0
   39.4360   21.5330   36.6650 F   0  0  0  0  0  0  0  0  0  0  0  0
   36.9538   25.9710   37.1472 H   0  0  0  0  0  0  0  0  0  0  0  0
   40.1941   27.0548   33.4692 H   0  0  0  0  0  0  0  0  0  0  0  0
   40.3672   28.0935   31.2172 H   0  0  0  0  0  0  0  0  0  0  0  0
   37.0606   25.7943   29.9949 H   0  0  0  0  0  0  0  0  0  0  0  0
  1 19  1  0
  1  2  2  0
  2 15  1  0
  3  2  1  0
  4  3  2  0
  5  6  2  0
  5  4  1  0
  6  1  1  0
  7  5  1  0
  8  7  1  0
  9  8  2  0
 10 12  1  0
 10  9  1  0
 11 10  2  0
 12 13  1  0
 13 14  2  0
 13  7  1  0
 15 17  1  0
 15 16  1  0
 15 18  1  0
 19 22  1  0
 19 21  1  0
 20 19  1  0
  3 23  1  0
  8 24  1  0
  9 25  1  0
 12 26  1  0
M  ISO  4  23  14  24  14  25  14  26   9
M  END
>  <minimizedAffinity>  (1) 
-5.38016319

>  <minimizedRMSD>  (1) 
1.2241354

$$$$
