
     RDKit          3D

 23 23  0  0  0  0  0  0  0  0999 V2000
   39.5870   23.4110   36.3100 C   0  0  0  0  0  0  0  0  0  0  0  0
   38.5980   24.0200   37.0780 C   0  0  0  0  0  0  0  0  0  0  0  0
   37.6890   24.8740   36.4440 C   0  0  0  0  0  0  0  0  0  0  0  0
   37.8010   25.0780   35.1090 N   0  0  0  0  0  0  0  0  0  0  0  0
   38.7680   24.4740   34.3930 C   0  0  0  0  0  0  0  0  0  0  0  0
   39.6300   23.6660   34.9930 N   0  0  0  0  0  0  0  0  0  0  0  0
   38.9180   24.6740   32.9680 N   0  0  0  0  0  0  0  0  0  0  0  0
   37.7930   24.9620   32.1840 C   0  0  0  0  0  0  0  0  0  0  0  0
   36.8890   25.7610   32.5880 N   0  0  0  0  0  0  0  0  0  0  0  0
   37.6640   24.3440   30.8920 N   0  0  0  0  0  0  0  0  0  0  0  0
   36.9710   26.2150   33.5110 H   0  0  0  0  0  0  0  0  0  0  0  0
   38.4730   23.7990   38.5350 C   0  0  0  0  0  0  0  0  0  0  0  0
   39.7250   23.8590   39.0810 F   0  0  0  0  0  0  0  0  0  0  0  0
   37.9160   22.6160   38.8780 F   0  0  0  0  0  0  0  0  0  0  0  0
   37.7980   24.8800   39.1500 F   0  0  0  0  0  0  0  0  0  0  0  0
   40.6370   22.4900   36.7880 C   0  0  0  0  0  0  0  0  0  0  0  0
   41.0420   21.6340   35.7830 F   0  0  0  0  0  0  0  0  0  0  0  0
   41.7280   23.1960   37.2920 F   0  0  0  0  0  0  0  0  0  0  0  0
   40.2430   21.7040   37.8300 F   0  0  0  0  0  0  0  0  0  0  0  0
   36.8956   25.3722   37.0204 H   0  0  0  0  0  0  0  0  0  0  0  0
   39.8483   24.6049   32.5314 H   0  0  0  0  0  0  0  0  0  0  0  0
   38.3907   23.6958   30.5563 H   0  0  0  0  0  0  0  0  0  0  0  0
   36.8449   24.5495   30.3023 H   0  0  0  0  0  0  0  0  0  0  0  0
  1 16  1  0
  1  2  2  0
  2 12  1  0
  3  2  1  0
  4  3  2  0
  5  6  2  0
  5  4  1  0
  6  1  1  0
  7  5  1  0
  8  9  2  0
  8  7  1  0
  9 11  1  0
 10  8  1  0
 12 14  1  0
 12 13  1  0
 12 15  1  0
 16 18  1  0
 16 19  1  0
 17 16  1  0
  3 20  1  0
  7 21  1  0
 10 22  1  0
 10 23  1  0
M  ISO  1  20  14
M  END
>  <minimizedAffinity>  (1) 
-4.82108927

>  <minimizedRMSD>  (1) 
0.146265328

$$$$
