
     RDKit          3D

 23 24  0  0  0  0  0  0  0  0999 V2000
   39.6010   23.4640   36.3040 C   0  0  0  0  0  0  0  0  0  0  0  0
   38.6010   24.0740   37.0630 C   0  0  0  0  0  0  0  0  0  0  0  0
   37.7170   24.9570   36.4220 C   0  0  0  0  0  0  0  0  0  0  0  0
   37.8560   25.1930   35.0890 N   0  0  0  0  0  0  0  0  0  0  0  0
   38.8450   24.5780   34.3910 C   0  0  0  0  0  0  0  0  0  0  0  0
   39.6850   23.7430   34.9810 N   0  0  0  0  0  0  0  0  0  0  0  0
   38.9470   24.8620   32.9890 N   0  0  0  0  0  0  0  0  0  0  0  0
   40.0860   24.9080   32.2780 C   0  0  0  0  0  0  0  0  0  0  0  0
   39.6870   25.2150   30.9880 C   0  0  0  0  0  0  0  0  0  0  0  0
   38.3490   25.3410   30.9620 N   0  0  0  0  0  0  0  0  0  0  0  0
   37.8730   25.1230   32.2080 C   0  0  0  0  0  0  0  0  0  0  0  0
   38.4360   23.8290   38.5030 C   0  0  0  0  0  0  0  0  0  0  0  0
   39.6740   23.8590   39.0910 F   0  0  0  0  0  0  0  0  0  0  0  0
   37.8490   22.6450   38.8090 F   0  0  0  0  0  0  0  0  0  0  0  0
   37.7600   24.9110   39.1250 F   0  0  0  0  0  0  0  0  0  0  0  0
   40.6130   22.5170   36.7920 C   0  0  0  0  0  0  0  0  0  0  0  0
   41.0140   21.6540   35.7720 F   0  0  0  0  0  0  0  0  0  0  0  0
   41.7140   23.1810   37.3260 F   0  0  0  0  0  0  0  0  0  0  0  0
   40.1760   21.7140   37.8060 F   0  0  0  0  0  0  0  0  0  0  0  0
   36.9187   25.4539   36.9928 H   0  0  0  0  0  0  0  0  0  0  0  0
   41.1106   24.7389   32.6409 H   0  0  0  0  0  0  0  0  0  0  0  0
   40.3569   25.3362   30.1240 H   0  0  0  0  0  0  0  0  0  0  0  0
   36.8200   25.1520   32.5249 H   0  0  0  0  0  0  0  0  0  0  0  0
  1 16  1  0
  1  2  2  0
  2 12  1  0
  3  2  1  0
  4  3  2  0
  5  6  2  0
  5  4  1  0
  6  1  1  0
  7  5  1  0
  8  7  1  0
  9  8  2  0
 10  9  1  0
 10 11  2  0
 11  7  1  0
 12 14  1  0
 12 13  1  0
 12 15  1  0
 16 18  1  0
 16 19  1  0
 17 16  1  0
  3 20  1  0
  8 21  1  0
  9 22  1  0
 11 23  1  0
M  ISO  4  20  14  21  14  22  14  23  14
M  END
>  <minimizedAffinity>  (1) 
-4.79910326

>  <minimizedRMSD>  (1) 
0.157836601

$$$$
