
     RDKit          3D

 23 24  0  0  0  0  0  0  0  0999 V2000
   39.6250   23.4210   36.3430 C   0  0  0  0  0  0  0  0  0  0  0  0
   38.6110   24.0290   37.0980 C   0  0  0  0  0  0  0  0  0  0  0  0
   37.7210   24.8940   36.4350 C   0  0  0  0  0  0  0  0  0  0  0  0
   37.8820   25.1030   35.0960 N   0  0  0  0  0  0  0  0  0  0  0  0
   38.8750   24.4950   34.4150 C   0  0  0  0  0  0  0  0  0  0  0  0
   39.7200   23.6790   35.0200 N   0  0  0  0  0  0  0  0  0  0  0  0
   38.9050   24.8270   32.9960 C   0  0  0  0  0  0  0  0  0  0  0  0
   39.5660   24.2430   31.9300 C   0  0  0  0  0  0  0  0  0  0  0  0
   39.2300   24.9800   30.7900 C   0  0  0  0  0  0  0  0  0  0  0  0
   38.3900   25.9750   31.1830 N   0  0  0  0  0  0  0  0  0  0  0  0
   38.2120   25.8630   32.5000 N   0  0  0  0  0  0  0  0  0  0  0  0
   38.4500   23.7930   38.5420 C   0  0  0  0  0  0  0  0  0  0  0  0
   39.6840   23.8570   39.1190 F   0  0  0  0  0  0  0  0  0  0  0  0
   37.8680   22.6020   38.8450 F   0  0  0  0  0  0  0  0  0  0  0  0
   37.7410   24.8720   39.1280 F   0  0  0  0  0  0  0  0  0  0  0  0
   40.6550   22.4900   36.8450 C   0  0  0  0  0  0  0  0  0  0  0  0
   41.0570   21.6090   35.8600 F   0  0  0  0  0  0  0  0  0  0  0  0
   41.7480   23.1890   37.3520 F   0  0  0  0  0  0  0  0  0  0  0  0
   40.2390   21.7290   37.8980 F   0  0  0  0  0  0  0  0  0  0  0  0
   36.9101   25.3928   36.9860 H   0  0  0  0  0  0  0  0  0  0  0  0
   40.2292   23.3664   31.9713 H   0  0  0  0  0  0  0  0  0  0  0  0
   39.5804   24.7901   29.7647 H   0  0  0  0  0  0  0  0  0  0  0  0
   37.9667   26.6881   30.5721 H   0  0  0  0  0  0  0  0  0  0  0  0
  1 16  1  0
  1  2  2  0
  2 12  1  0
  3  2  1  0
  4  3  2  0
  5  6  2  0
  5  4  1  0
  6  1  1  0
  7  5  1  0
  8  7  1  0
  9 10  1  0
  9  8  2  0
 10 11  1  0
 11  7  2  0
 12 14  1  0
 12 13  1  0
 12 15  1  0
 16 18  1  0
 16 19  1  0
 17 16  1  0
  3 20  1  0
  8 21  1  0
  9 22  1  0
 10 23  1  0
M  ISO  4  20  14  21  14  22  14  23   9
M  END
>  <minimizedAffinity>  (1) 
-4.59999847

>  <minimizedRMSD>  (1) 
0.0758077502

$$$$
