
     RDKit          3D

 24 25  0  0  0  0  0  0  0  0999 V2000
   39.4170   23.6800   36.0710 C   0  0  0  0  0  0  0  0  0  0  0  0
   38.4700   24.2550   36.9320 C   0  0  0  0  0  0  0  0  0  0  0  0
   37.6500   25.2810   36.4300 C   0  0  0  0  0  0  0  0  0  0  0  0
   37.8040   25.6730   35.1410 N   0  0  0  0  0  0  0  0  0  0  0  0
   38.7400   25.0810   34.3430 C   0  0  0  0  0  0  0  0  0  0  0  0
   39.5130   24.1200   34.8000 N   0  0  0  0  0  0  0  0  0  0  0  0
   38.7990   25.6000   32.9760 C   0  0  0  0  0  0  0  0  0  0  0  0
   39.0160   26.9430   32.7090 C   0  0  0  0  0  0  0  0  0  0  0  0
   39.0650   27.3900   31.3970 C   0  0  0  0  0  0  0  0  0  0  0  0
   38.9030   26.5280   30.3790 N   0  0  0  0  0  0  0  0  0  0  0  0
   38.6910   25.2180   30.6520 C   0  0  0  0  0  0  0  0  0  0  0  0
   38.6460   24.7940   31.9330 N   0  0  0  0  0  0  0  0  0  0  0  0
   38.3200   23.8150   38.3270 C   0  0  0  0  0  0  0  0  0  0  0  0
   39.5700   23.6950   38.8750 F   0  0  0  0  0  0  0  0  0  0  0  0
   37.6510   22.6620   38.4910 F   0  0  0  0  0  0  0  0  0  0  0  0
   37.7500   24.8730   39.1010 F   0  0  0  0  0  0  0  0  0  0  0  0
   40.3740   22.6050   36.4060 C   0  0  0  0  0  0  0  0  0  0  0  0
   40.9620   22.0900   35.2680 F   0  0  0  0  0  0  0  0  0  0  0  0
   41.3480   23.0690   37.2900 F   0  0  0  0  0  0  0  0  0  0  0  0
   39.8050   21.5500   37.0560 F   0  0  0  0  0  0  0  0  0  0  0  0
   36.8955   25.7581   37.0727 H   0  0  0  0  0  0  0  0  0  0  0  0
   39.1493   27.6540   33.5377 H   0  0  0  0  0  0  0  0  0  0  0  0
   39.2375   28.4562   31.1886 H   0  0  0  0  0  0  0  0  0  0  0  0
   38.5555   24.4998   29.8299 H   0  0  0  0  0  0  0  0  0  0  0  0
  1 17  1  0
  1  2  2  0
  2 13  1  0
  3  2  1  0
  4  3  2  0
  5  6  2  0
  5  4  1  0
  6  1  1  0
  7  5  1  0
  8  7  2  0
  9  8  1  0
 10 11  1  0
 10  9  2  0
 11 12  2  0
 12  7  1  0
 13 15  1  0
 13 14  1  0
 13 16  1  0
 17 20  1  0
 17 19  1  0
 18 17  1  0
  3 21  1  0
  8 22  1  0
  9 23  1  0
 11 24  1  0
M  ISO  4  21  14  22  14  23  14  24  14
M  END
>  <minimizedAffinity>  (1) 
-4.74317026

>  <minimizedRMSD>  (1) 
0.77755338

$$$$
