
     RDKit          3D

 18 18  0  0  0  0  0  0  0  0999 V2000
   39.6460   23.3980   36.3670 C   0  0  0  0  0  0  0  0  0  0  0  0
   38.6220   24.0140   37.1000 C   0  0  0  0  0  0  0  0  0  0  0  0
   37.7340   24.8590   36.4230 C   0  0  0  0  0  0  0  0  0  0  0  0
   37.9010   25.0480   35.0800 N   0  0  0  0  0  0  0  0  0  0  0  0
   38.9010   24.4340   34.4150 C   0  0  0  0  0  0  0  0  0  0  0  0
   39.7480   23.6340   35.0340 N   0  0  0  0  0  0  0  0  0  0  0  0
   39.0040   24.6880   33.0070 N   0  0  0  0  0  0  0  0  0  0  0  0
   38.4580   23.7980   38.5420 C   0  0  0  0  0  0  0  0  0  0  0  0
   39.6760   23.8620   39.1350 F   0  0  0  0  0  0  0  0  0  0  0  0
   37.8770   22.6120   38.8720 F   0  0  0  0  0  0  0  0  0  0  0  0
   37.7390   24.8780   39.1190 F   0  0  0  0  0  0  0  0  0  0  0  0
   40.6720   22.4810   36.8910 C   0  0  0  0  0  0  0  0  0  0  0  0
   41.0900   21.5860   35.9170 F   0  0  0  0  0  0  0  0  0  0  0  0
   41.7620   23.1890   37.3940 F   0  0  0  0  0  0  0  0  0  0  0  0
   40.2500   21.7190   37.9400 F   0  0  0  0  0  0  0  0  0  0  0  0
   36.9173   25.3612   36.9622 H   0  0  0  0  0  0  0  0  0  0  0  0
   38.3305   25.3166   32.5465 H   0  0  0  0  0  0  0  0  0  0  0  0
   39.7515   24.2417   32.4565 H   0  0  0  0  0  0  0  0  0  0  0  0
  1 12  1  0
  1  2  2  0
  2  8  1  0
  3  2  1  0
  4  3  2  0
  5  6  2  0
  5  4  1  0
  6  1  1  0
  7  5  1  0
  8 10  1  0
  8 11  1  0
  8  9  1  0
 12 14  1  0
 12 15  1  0
 13 12  1  0
  3 16  1  0
  7 17  1  0
  7 18  1  0
M  ISO  1  16  14
M  END
>  <minimizedAffinity>  (1) 
-4.26095915

>  <minimizedRMSD>  (1) 
0.0171038136

$$$$
