
     RDKit          3D

 37 38  0  0  1  0  0  0  0  0999 V2000
   38.1730   23.7370   35.6020 C   0  0  0  0  0  0  0  0  0  0  0  0
   38.1840   24.5170   36.7680 C   0  0  0  0  0  0  0  0  0  0  0  0
   38.2100   25.9150   36.6270 C   0  0  0  0  0  0  0  0  0  0  0  0
   38.2230   26.4500   35.3740 N   0  0  0  0  0  0  0  0  0  0  0  0
   38.2100   25.6570   34.2780 C   0  0  0  0  0  0  0  0  0  0  0  0
   38.1860   24.3480   34.3980 N   0  0  0  0  0  0  0  0  0  0  0  0
   38.2230   26.3280   33.0180 N   0  0  0  0  0  0  0  0  0  0  0  0
   38.8790   25.6560   31.9260 C   0  0  0  0  0  0  0  0  0  0  0  0
   39.2910   26.7570   30.9530 C   0  0  0  0  0  0  0  0  0  0  0  0
   38.1380   27.5410   30.4390 C   0  0  0  0  0  0  0  0  0  0  0  0
   37.1050   27.8620   31.4660 C   0  0  0  0  0  0  0  0  0  0  0  0
   37.6130   27.6060   32.8500 C   0  0  1  0  0  0  0  0  0  0  0  0
   38.1720   23.9400   38.1140 C   0  0  0  0  0  0  0  0  0  0  0  0
   39.4110   23.3830   38.3490 F   0  0  0  0  0  0  0  0  0  0  0  0
   37.2360   22.9880   38.3030 F   0  0  0  0  0  0  0  0  0  0  0  0
   38.0800   24.9490   39.0930 F   0  0  0  0  0  0  0  0  0  0  0  0
   38.1460   22.2640   35.5270 C   0  0  0  0  0  0  0  0  0  0  0  0
   38.2020   21.8300   34.2290 F   0  0  0  0  0  0  0  0  0  0  0  0
   39.2180   21.7190   36.2540 F   0  0  0  0  0  0  0  0  0  0  0  0
   37.0440   21.7120   36.0960 F   0  0  0  0  0  0  0  0  0  0  0  0
   36.5260   27.9840   33.7840 C   0  0  0  0  0  0  0  0  0  0  0  0
   35.7920   29.2420   33.3900 C   0  0  0  0  0  0  0  0  0  0  0  0
   38.2197   26.5664   37.5133 H   0  0  0  0  0  0  0  0  0  0  0  0
   39.7642   25.1116   32.2866 H   0  0  0  0  0  0  0  0  0  0  0  0
   38.2190   24.9172   31.4480 H   0  0  0  0  0  0  0  0  0  0  0  0
   39.9780   27.4427   31.4705 H   0  0  0  0  0  0  0  0  0  0  0  0
   39.7683   26.2705   30.0896 H   0  0  0  0  0  0  0  0  0  0  0  0
   38.5207   28.4870   30.0285 H   0  0  0  0  0  0  0  0  0  0  0  0
   37.6442   26.9140   29.6820 H   0  0  0  0  0  0  0  0  0  0  0  0
   36.8291   28.9231   31.3766 H   0  0  0  0  0  0  0  0  0  0  0  0
   36.2319   27.2157   31.2926 H   0  0  0  0  0  0  0  0  0  0  0  0
   38.4810   28.2384   33.0881 H   0  0  0  0  0  0  0  0  0  0  0  0
   35.8008   27.1579   33.8241 H   0  0  0  0  0  0  0  0  0  0  0  0
   36.9962   28.1805   34.7588 H   0  0  0  0  0  0  0  0  0  0  0  0
   35.4771   29.7816   34.2954 H   0  0  0  0  0  0  0  0  0  0  0  0
   36.4576   29.8834   32.7937 H   0  0  0  0  0  0  0  0  0  0  0  0
   34.9061   28.9781   32.7937 H   0  0  0  0  0  0  0  0  0  0  0  0
  1  2  2  0
  2 13  1  0
  3  2  1  0
  4  3  2  0
  5  6  2  0
  5  4  1  0
  6  1  1  0
  7  5  1  0
  8  7  1  0
  9  8  1  0
 10  9  1  0
 10 11  1  0
 11 12  1  0
 12  7  1  0
 12 21  1  0
 13 15  1  0
 13 14  1  0
 13 16  1  0
 17  1  1  0
 17 20  1  0
 17 19  1  0
 18 17  1  0
 22 21  1  0
  3 23  1  0
  8 24  1  0
  8 25  1  0
  9 26  1  0
  9 27  1  0
 10 28  1  0
 10 29  1  0
 11 30  1  0
 11 31  1  0
 12 32  1  1
 21 33  1  0
 21 34  1  0
 22 35  1  0
 22 36  1  0
 22 37  1  0
M  ISO  8  23  14  24  13  25  13  26  13  27  13  28  13  29  13  30  13
M  ISO  7  31  13  32  13  33   8  34   8  35   8  36   8  37   8
M  END
>  <minimizedAffinity>  (1) 
-5.87499857

>  <minimizedRMSD>  (1) 
2.50466871

$$$$
