
     RDKit          3D

 43 44  0  0  1  0  0  0  0  0999 V2000
   39.7040   23.8820   36.1810 C   0  0  0  0  0  0  0  0  0  0  0  0
   38.6440   24.4200   36.9220 C   0  0  0  0  0  0  0  0  0  0  0  0
   38.0520   25.6050   36.4670 C   0  0  0  0  0  0  0  0  0  0  0  0
   38.5480   26.1650   35.3240 N   0  0  0  0  0  0  0  0  0  0  0  0
   39.5520   25.6250   34.6460 C   0  0  0  0  0  0  0  0  0  0  0  0
   40.1200   24.5100   35.0640 N   0  0  0  0  0  0  0  0  0  0  0  0
   39.9110   26.3230   33.4610 N   0  0  0  0  0  0  0  0  0  0  0  0
   41.3150   26.2200   33.0930 C   0  0  0  0  0  0  0  0  0  0  0  0
   41.6530   27.4970   32.3360 C   0  0  0  0  0  0  0  0  0  0  0  0
   40.8600   27.6030   31.0890 C   0  0  0  0  0  0  0  0  0  0  0  0
   39.4380   27.0970   31.1940 C   0  0  0  0  0  0  0  0  0  0  0  0
   39.0510   27.0690   32.6760 C   0  0  1  0  0  0  0  0  0  0  0  0
   38.1290   23.7720   38.1420 C   0  0  0  0  0  0  0  0  0  0  0  0
   39.1840   23.4480   38.9350 F   0  0  0  0  0  0  0  0  0  0  0  0
   37.3940   22.6400   37.8930 F   0  0  0  0  0  0  0  0  0  0  0  0
   37.3680   24.6800   38.8950 F   0  0  0  0  0  0  0  0  0  0  0  0
   40.4760   22.6610   36.4920 C   0  0  0  0  0  0  0  0  0  0  0  0
   41.3460   22.3390   35.4820 F   0  0  0  0  0  0  0  0  0  0  0  0
   41.1950   22.8280   37.6910 F   0  0  0  0  0  0  0  0  0  0  0  0
   39.7120   21.5750   36.7370 F   0  0  0  0  0  0  0  0  0  0  0  0
   37.6060   27.2550   32.7450 C   0  0  0  0  0  0  0  0  0  0  0  0
   36.9130   27.9790   31.6150 C   0  0  0  0  0  0  0  0  0  0  0  0
   36.8670   25.8990   32.8340 C   0  0  0  0  0  0  0  0  0  0  0  0
   37.1530   27.9100   34.0720 C   0  0  0  0  0  0  0  0  0  0  0  0
   37.2163   26.0688   37.0114 H   0  0  0  0  0  0  0  0  0  0  0  0
   41.9398   26.1348   33.9943 H   0  0  0  0  0  0  0  0  0  0  0  0
   41.5025   25.3283   32.4767 H   0  0  0  0  0  0  0  0  0  0  0  0
   41.4327   28.3636   32.9767 H   0  0  0  0  0  0  0  0  0  0  0  0
   42.7203   27.4741   32.0707 H   0  0  0  0  0  0  0  0  0  0  0  0
   41.3725   27.0226   30.3077 H   0  0  0  0  0  0  0  0  0  0  0  0
   40.7896   28.6762   30.8582 H   0  0  0  0  0  0  0  0  0  0  0  0
   38.7618   27.7685   30.6447 H   0  0  0  0  0  0  0  0  0  0  0  0
   39.3592   26.0891   30.7604 H   0  0  0  0  0  0  0  0  0  0  0  0
   39.2873   27.8694   33.3926 H   0  0  0  0  0  0  0  0  0  0  0  0
   36.2083   28.7153   32.0288 H   0  0  0  0  0  0  0  0  0  0  0  0
   37.6618   28.4955   30.9966 H   0  0  0  0  0  0  0  0  0  0  0  0
   36.3642   27.2535   30.9966 H   0  0  0  0  0  0  0  0  0  0  0  0
   36.7204   25.6300   33.8905 H   0  0  0  0  0  0  0  0  0  0  0  0
   35.8889   25.9812   32.3374 H   0  0  0  0  0  0  0  0  0  0  0  0
   37.4662   25.1216   32.3374 H   0  0  0  0  0  0  0  0  0  0  0  0
   37.5515   27.3338   34.9201 H   0  0  0  0  0  0  0  0  0  0  0  0
   37.5315   28.9418   34.1196 H   0  0  0  0  0  0  0  0  0  0  0  0
   36.0541   27.9200   34.1196 H   0  0  0  0  0  0  0  0  0  0  0  0
  1 17  1  0
  1  2  2  0
  2 13  1  0
  3  2  1  0
  4  3  2  0
  5  6  2  0
  5  4  1  0
  6  1  1  0
  7  5  1  0
  8  7  1  0
  9  8  1  0
 10 11  1  0
 10  9  1  0
 11 12  1  0
 12 21  1  0
 12  7  1  0
 13 16  1  0
 13 14  1  0
 15 13  1  0
 17 20  1  0
 17 19  1  0
 18 17  1  0
 21 23  1  0
 21 24  1  0
 22 21  1  0
  3 25  1  0
  8 26  1  0
  8 27  1  0
  9 28  1  0
  9 29  1  0
 10 30  1  0
 10 31  1  0
 11 32  1  0
 11 33  1  0
 12 34  1  1
 22 35  1  0
 22 36  1  0
 22 37  1  0
 23 38  1  0
 23 39  1  0
 23 40  1  0
 24 41  1  0
 24 42  1  0
 24 43  1  0
M  ISO  8  25  14  26  13  27  13  28  13  29  13  30  13  31  13  32  13
M  ISO  8  33  13  34  13  35   8  36   8  37   8  38   8  39   8  40   8
M  ISO  3  41   8  42   8  43   8
M  END
>  <minimizedAffinity>  (1) 
-5.70602798

>  <minimizedRMSD>  (1) 
1.85959208

$$$$
