
     RDKit          3D

 38 39  0  0  1  0  0  0  0  0999 V2000
   39.3710   23.9420   35.6800 C   0  0  0  0  0  0  0  0  0  0  0  0
   38.4340   24.4950   36.5580 C   0  0  0  0  0  0  0  0  0  0  0  0
   37.7830   25.6690   36.1790 C   0  0  0  0  0  0  0  0  0  0  0  0
   38.0770   26.2380   34.9780 N   0  0  0  0  0  0  0  0  0  0  0  0
   38.9840   25.6760   34.1650 C   0  0  0  0  0  0  0  0  0  0  0  0
   39.6100   24.5560   34.5150 N   0  0  0  0  0  0  0  0  0  0  0  0
   39.2530   26.3240   32.9100 N   0  0  0  0  0  0  0  0  0  0  0  0
   40.5510   26.2130   32.3380 C   0  0  0  0  0  0  0  0  0  0  0  0
   40.7100   27.4230   31.4370 C   0  0  0  0  0  0  0  0  0  0  0  0
   39.6980   27.4680   30.3400 C   0  0  0  0  0  0  0  0  0  0  0  0
   38.3090   27.1330   30.7660 C   0  0  0  0  0  0  0  0  0  0  0  0
   38.1970   27.0660   32.2660 C   0  0  1  0  0  0  0  0  0  0  0  0
   36.9800   26.3040   32.5260 N   0  0  0  0  0  0  0  0  0  0  0  0
   36.5380   25.3740   31.5420 C   0  0  0  0  0  0  0  0  0  0  0  0
   37.3830   24.8960   30.6810 N   0  0  0  0  0  0  0  0  0  0  0  0
   35.1980   24.9210   31.4350 N   0  0  0  0  0  0  0  0  0  0  0  0
   37.1400   24.2170   29.9360 H   0  0  0  0  0  0  0  0  0  0  0  0
   38.1130   23.8760   37.8640 C   0  0  0  0  0  0  0  0  0  0  0  0
   39.2840   23.5360   38.4830 F   0  0  0  0  0  0  0  0  0  0  0  0
   37.3230   22.7630   37.7500 F   0  0  0  0  0  0  0  0  0  0  0  0
   37.5390   24.8290   38.7280 F   0  0  0  0  0  0  0  0  0  0  0  0
   40.1600   22.7130   35.8980 C   0  0  0  0  0  0  0  0  0  0  0  0
   40.7700   22.3050   34.7300 F   0  0  0  0  0  0  0  0  0  0  0  0
   41.1220   22.9100   36.8970 F   0  0  0  0  0  0  0  0  0  0  0  0
   39.4290   21.6530   36.3420 F   0  0  0  0  0  0  0  0  0  0  0  0
   37.0389   26.1307   36.8446 H   0  0  0  0  0  0  0  0  0  0  0  0
   41.3186   26.2185   33.1259 H   0  0  0  0  0  0  0  0  0  0  0  0
   40.6680   25.2732   31.7785 H   0  0  0  0  0  0  0  0  0  0  0  0
   40.6058   28.3317   32.0481 H   0  0  0  0  0  0  0  0  0  0  0  0
   41.7026   27.3567   30.9677 H   0  0  0  0  0  0  0  0  0  0  0  0
   40.0014   26.7509   29.5630 H   0  0  0  0  0  0  0  0  0  0  0  0
   39.6728   28.5071   29.9801 H   0  0  0  0  0  0  0  0  0  0  0  0
   37.6227   27.9060   30.3898 H   0  0  0  0  0  0  0  0  0  0  0  0
   38.0484   26.1468   30.3544 H   0  0  0  0  0  0  0  0  0  0  0  0
   38.2255   28.0958   32.6517 H   0  0  0  0  0  0  0  0  0  0  0  0
   36.4528   26.4357   33.4010 H   0  0  0  0  0  0  0  0  0  0  0  0
   34.9395   24.2465   30.7008 H   0  0  0  0  0  0  0  0  0  0  0  0
   34.4836   25.2666   32.0915 H   0  0  0  0  0  0  0  0  0  0  0  0
  1 22  1  0
  1  2  2  0
  2 18  1  0
  3  2  1  0
  4  3  2  0
  5  6  2  0
  5  4  1  0
  6  1  1  0
  7  5  1  0
  8  7  1  0
  9  8  1  0
 10 11  1  0
 10  9  1  0
 11 12  1  0
 12 13  1  0
 12  7  1  0
 14 13  1  0
 15 14  2  0
 16 14  1  0
 17 15  1  0
 18 19  1  0
 18 21  1  0
 20 18  1  0
 22 25  1  0
 22 24  1  0
 23 22  1  0
  3 26  1  0
  8 27  1  0
  8 28  1  0
  9 29  1  0
  9 30  1  0
 10 31  1  0
 10 32  1  0
 11 33  1  0
 11 34  1  0
 12 35  1  1
 13 36  1  0
 16 37  1  0
 16 38  1  0
M  ISO  8  26  14  27  13  28  13  29  13  30  13  31  13  32  13  33  13
M  ISO  2  34  13  35  13
M  END
>  <minimizedAffinity>  (1) 
-5.68032217

>  <minimizedRMSD>  (1) 
1.60759723

$$$$
