
     RDKit          3D

 34 35  0  0  1  0  0  0  0  0999 V2000
   39.6010   23.5040   36.3120 C   0  0  0  0  0  0  0  0  0  0  0  0
   38.6000   24.1560   37.0550 C   0  0  0  0  0  0  0  0  0  0  0  0
   37.7840   25.0840   36.3940 C   0  0  0  0  0  0  0  0  0  0  0  0
   38.0010   25.3040   35.0750 N   0  0  0  0  0  0  0  0  0  0  0  0
   38.9570   24.6720   34.3920 C   0  0  0  0  0  0  0  0  0  0  0  0
   39.7380   23.7910   35.0110 N   0  0  0  0  0  0  0  0  0  0  0  0
   39.0770   24.9860   33.0050 N   0  0  0  0  0  0  0  0  0  0  0  0
   40.4010   24.8960   32.4290 C   0  0  0  0  0  0  0  0  0  0  0  0
   40.4000   25.6950   31.1630 C   0  0  0  0  0  0  0  0  0  0  0  0
   39.3210   25.4000   30.1990 C   0  0  0  0  0  0  0  0  0  0  0  0
   38.0180   24.9800   30.7690 C   0  0  0  0  0  0  0  0  0  0  0  0
   37.9480   25.3440   32.2360 C   0  0  2  0  0  0  0  0  0  0  0  0
   38.3920   23.8910   38.4910 C   0  0  0  0  0  0  0  0  0  0  0  0
   39.6190   23.8600   39.1070 F   0  0  0  0  0  0  0  0  0  0  0  0
   37.7430   22.7400   38.7600 F   0  0  0  0  0  0  0  0  0  0  0  0
   37.7530   25.0040   39.0930 F   0  0  0  0  0  0  0  0  0  0  0  0
   40.5600   22.4960   36.8130 C   0  0  0  0  0  0  0  0  0  0  0  0
   40.9370   21.6210   35.8010 F   0  0  0  0  0  0  0  0  0  0  0  0
   41.6690   23.0970   37.3850 F   0  0  0  0  0  0  0  0  0  0  0  0
   40.0510   21.7030   37.8070 F   0  0  0  0  0  0  0  0  0  0  0  0
   37.4270   26.7360   32.4160 C   0  0  0  0  0  0  0  0  0  0  0  0
   38.4670   27.5610   32.9430 F   0  0  0  0  0  0  0  0  0  0  0  0
   37.0920   27.3880   31.2470 F   0  0  0  0  0  0  0  0  0  0  0  0
   36.4380   26.8270   33.3610 F   0  0  0  0  0  0  0  0  0  0  0  0
   36.9881   25.6198   36.9321 H   0  0  0  0  0  0  0  0  0  0  0  0
   41.1435   25.3051   33.1300 H   0  0  0  0  0  0  0  0  0  0  0  0
   40.6620   23.8474   32.2234 H   0  0  0  0  0  0  0  0  0  0  0  0
   40.3213   26.7571   31.4381 H   0  0  0  0  0  0  0  0  0  0  0  0
   41.3333   25.4248   30.6473 H   0  0  0  0  0  0  0  0  0  0  0  0
   39.6732   24.5922   29.5407 H   0  0  0  0  0  0  0  0  0  0  0  0
   39.1203   26.3530   29.6877 H   0  0  0  0  0  0  0  0  0  0  0  0
   37.2048   25.4875   30.2294 H   0  0  0  0  0  0  0  0  0  0  0  0
   37.9150   23.8899   30.6643 H   0  0  0  0  0  0  0  0  0  0  0  0
   37.1962   24.6860   32.6963 H   0  0  0  0  0  0  0  0  0  0  0  0
  1 17  1  0
  1  2  2  0
  2 13  1  0
  3  2  1  0
  4  3  2  0
  5  6  2  0
  5  4  1  0
  6  1  1  0
  7  5  1  0
  8  7  1  0
  9  8  1  0
 10 11  1  0
 10  9  1  0
 11 12  1  0
 12 21  1  0
 12  7  1  0
 13 15  1  0
 13 16  1  0
 13 14  1  0
 17 19  1  0
 17 20  1  0
 18 17  1  0
 21 22  1  0
 21 24  1  0
 23 21  1  0
  3 25  1  0
  8 26  1  0
  8 27  1  0
  9 28  1  0
  9 29  1  0
 10 30  1  0
 10 31  1  0
 11 32  1  0
 11 33  1  0
 12 34  1  1
M  ISO  8  25  14  26  13  27  13  28  13  29  13  30  13  31  13  32  13
M  ISO  2  33  13  34  13
M  END
>  <minimizedAffinity>  (1) 
-5.51383638

>  <minimizedRMSD>  (1) 
0.52253592

$$$$
