
     RDKit          3D

 38 40  0  0  1  0  0  0  0  0999 V2000
   39.8910   23.7900   36.1950 C   0  0  0  0  0  0  0  0  0  0  0  0
   38.7630   24.3620   36.8120 C   0  0  0  0  0  0  0  0  0  0  0  0
   38.3140   25.6000   36.3630 C   0  0  0  0  0  0  0  0  0  0  0  0
   38.9750   26.2180   35.3440 N   0  0  0  0  0  0  0  0  0  0  0  0
   40.0440   25.6460   34.7800 C   0  0  0  0  0  0  0  0  0  0  0  0
   40.4890   24.4690   35.1900 N   0  0  0  0  0  0  0  0  0  0  0  0
   40.7000   26.3500   33.7060 N   0  0  0  0  0  0  0  0  0  0  0  0
   42.1030   26.1870   33.5330 C   0  0  0  0  0  0  0  0  0  0  0  0
   42.5870   27.4290   32.8070 C   0  0  0  0  0  0  0  0  0  0  0  0
   41.9410   27.6090   31.4800 C   0  0  0  0  0  0  0  0  0  0  0  0
   40.4620   27.3700   31.4660 C   0  0  0  0  0  0  0  0  0  0  0  0
   39.9260   27.1850   32.8530 C   0  0  1  0  0  0  0  0  0  0  0  0
   38.6570   26.4590   32.6630 N   0  0  0  0  0  0  0  0  0  0  0  0
   38.4700   25.2060   32.3600 N   0  0  0  0  0  0  0  0  0  0  0  0
   37.1310   24.9520   32.2830 C   0  0  0  0  0  0  0  0  0  0  0  0
   36.4490   26.1200   32.5570 C   0  0  0  0  0  0  0  0  0  0  0  0
   37.4340   27.0550   32.7930 C   0  0  0  0  0  0  0  0  0  0  0  0
   38.0510   23.6890   37.9150 C   0  0  0  0  0  0  0  0  0  0  0  0
   38.9690   23.2110   38.8020 F   0  0  0  0  0  0  0  0  0  0  0  0
   37.2590   22.6530   37.4970 F   0  0  0  0  0  0  0  0  0  0  0  0
   37.2890   24.6120   38.6470 F   0  0  0  0  0  0  0  0  0  0  0  0
   40.5150   22.5070   36.5190 C   0  0  0  0  0  0  0  0  0  0  0  0
   41.4760   22.1560   35.5900 F   0  0  0  0  0  0  0  0  0  0  0  0
   41.0930   22.5400   37.7910 F   0  0  0  0  0  0  0  0  0  0  0  0
   39.6420   21.4610   36.5830 F   0  0  0  0  0  0  0  0  0  0  0  0
   37.4357   26.0744   36.8251 H   0  0  0  0  0  0  0  0  0  0  0  0
   42.6000   26.0985   34.5103 H   0  0  0  0  0  0  0  0  0  0  0  0
   42.3334   25.2744   32.9637 H   0  0  0  0  0  0  0  0  0  0  0  0
   42.3642   28.3087   33.4286 H   0  0  0  0  0  0  0  0  0  0  0  0
   43.6675   27.3131   32.6364 H   0  0  0  0  0  0  0  0  0  0  0  0
   42.1244   28.6412   31.1468 H   0  0  0  0  0  0  0  0  0  0  0  0
   42.3840   26.8540   30.8139 H   0  0  0  0  0  0  0  0  0  0  0  0
   39.9640   28.2341   31.0019 H   0  0  0  0  0  0  0  0  0  0  0  0
   40.2646   26.4522   30.8928 H   0  0  0  0  0  0  0  0  0  0  0  0
   39.8834   28.1775   33.3253 H   0  0  0  0  0  0  0  0  0  0  0  0
   36.6732   23.9809   32.0432 H   0  0  0  0  0  0  0  0  0  0  0  0
   35.3598   26.2715   32.5816 H   0  0  0  0  0  0  0  0  0  0  0  0
   37.2630   28.1119   33.0456 H   0  0  0  0  0  0  0  0  0  0  0  0
  1 22  1  0
  1  2  2  0
  2 18  1  0
  3  2  1  0
  4  3  2  0
  5  6  2  0
  5  4  1  0
  6  1  1  0
  7  5  1  0
  8  7  1  0
  9  8  1  0
 10  9  1  0
 11 10  1  0
 11 12  1  0
 12  7  1  0
 13 17  1  0
 13 12  1  0
 14 13  1  0
 15 14  2  0
 15 16  1  0
 16 17  2  0
 18 21  1  0
 18 19  1  0
 20 18  1  0
 22 25  1  0
 22 24  1  0
 23 22  1  0
  3 26  1  0
  8 27  1  0
  8 28  1  0
  9 29  1  0
  9 30  1  0
 10 31  1  0
 10 32  1  0
 11 33  1  0
 11 34  1  0
 12 35  1  1
 15 36  1  0
 16 37  1  0
 17 38  1  0
M  ISO  8  26  14  27  13  28  13  29  13  30  13  31  13  32  13  33  13
M  ISO  5  34  13  35  13  36  14  37  14  38  14
M  END
>  <minimizedAffinity>  (1) 
-5.39189768

>  <minimizedRMSD>  (1) 
2.41590691

$$$$
