
     RDKit          3D

 36 38  0  0  1  0  0  0  0  0999 V2000
   42.3490   22.4600   35.1040 C   0  0  0  0  0  0  0  0  0  0  0  0
   42.1120   21.6300   36.1950 C   0  0  0  0  0  0  0  0  0  0  0  0
   41.0510   21.9470   37.0460 C   0  0  0  0  0  0  0  0  0  0  0  0
   40.2890   23.0450   36.7860 N   0  0  0  0  0  0  0  0  0  0  0  0
   40.5600   23.8220   35.7080 C   0  0  0  0  0  0  0  0  0  0  0  0
   41.5570   23.5330   34.9010 N   0  0  0  0  0  0  0  0  0  0  0  0
   39.7050   24.9570   35.5150 N   0  0  0  0  0  0  0  0  0  0  0  0
   40.2790   26.1180   34.8820 C   0  0  0  0  0  0  0  0  0  0  0  0
   39.4280   27.3010   35.3300 C   0  0  0  0  0  0  0  0  0  0  0  0
   37.9950   27.1590   34.9290 C   0  0  0  0  0  0  0  0  0  0  0  0
   37.4220   25.8030   35.1320 C   0  0  0  0  0  0  0  0  0  0  0  0
   38.3460   24.9200   35.9360 C   0  0  1  0  0  0  0  0  0  0  0  0
   37.8420   23.5170   35.7190 C   0  0  0  0  0  0  0  0  0  0  0  0
   37.3180   22.6780   36.6010 N   0  0  0  0  0  0  0  0  0  0  0  0
   37.0210   21.5680   35.9620 O   0  0  0  0  0  0  0  0  0  0  0  0
   37.3500   21.6900   34.6790 C   0  0  0  0  0  0  0  0  0  0  0  0
   37.8750   22.9320   34.5170 N   0  0  0  0  0  0  0  0  0  0  0  0
   42.9330   20.4420   36.4810 C   0  0  0  0  0  0  0  0  0  0  0  0
   44.2450   20.8360   36.5650 F   0  0  0  0  0  0  0  0  0  0  0  0
   42.8200   19.4620   35.5410 F   0  0  0  0  0  0  0  0  0  0  0  0
   42.6500   19.9410   37.7690 F   0  0  0  0  0  0  0  0  0  0  0  0
   43.4120   22.3110   34.0830 C   0  0  0  0  0  0  0  0  0  0  0  0
   43.2210   23.1830   33.0260 F   0  0  0  0  0  0  0  0  0  0  0  0
   44.6670   22.4890   34.6420 F   0  0  0  0  0  0  0  0  0  0  0  0
   43.4540   21.0570   33.5390 F   0  0  0  0  0  0  0  0  0  0  0  0
   40.8327   21.3147   37.9193 H   0  0  0  0  0  0  0  0  0  0  0  0
   40.2438   26.0139   33.7875 H   0  0  0  0  0  0  0  0  0  0  0  0
   41.3345   26.2505   35.1618 H   0  0  0  0  0  0  0  0  0  0  0  0
   39.4817   27.3794   36.4259 H   0  0  0  0  0  0  0  0  0  0  0  0
   39.8245   28.2027   34.8405 H   0  0  0  0  0  0  0  0  0  0  0  0
   37.9122   27.4090   33.8610 H   0  0  0  0  0  0  0  0  0  0  0  0
   37.4230   27.8372   35.5794 H   0  0  0  0  0  0  0  0  0  0  0  0
   36.4649   25.8969   35.6659 H   0  0  0  0  0  0  0  0  0  0  0  0
   37.2792   25.3401   34.1444 H   0  0  0  0  0  0  0  0  0  0  0  0
   38.3370   25.2644   36.9807 H   0  0  0  0  0  0  0  0  0  0  0  0
   37.2211   20.9280   33.8962 H   0  0  0  0  0  0  0  0  0  0  0  0
  1  2  2  0
  2 18  1  0
  2  3  1  0
  4  3  2  0
  5  4  1  0
  6  1  1  0
  6  5  2  0
  7  5  1  0
  7 12  1  0
  8  9  1  0
  8  7  1  0
 10 11  1  0
 10  9  1  0
 11 12  1  0
 13 12  1  0
 13 14  2  0
 15 14  1  0
 16 15  1  0
 17 16  2  0
 17 13  1  0
 18 19  1  0
 18 21  1  0
 20 18  1  0
 22 24  1  0
 22  1  1  0
 23 22  1  0
 25 22  1  0
  3 26  1  0
  8 27  1  0
  8 28  1  0
  9 29  1  0
  9 30  1  0
 10 31  1  0
 10 32  1  0
 11 33  1  0
 11 34  1  0
 12 35  1  1
 16 36  1  0
M  ISO  8  26  14  27  13  28  13  29  13  30  13  31  13  32  13  33  13
M  ISO  3  34  13  35  13  36  14
M  END
>  <minimizedAffinity>  (1) 
-4.74160051

>  <minimizedRMSD>  (1) 
4.30781555

$$$$
