
     RDKit          3D

 47 49  0  0  1  0  0  0  0  0999 V2000
   38.0220   23.8800   35.6760 C   0  0  0  0  0  0  0  0  0  0  0  0
   38.1570   24.6340   36.8570 C   0  0  0  0  0  0  0  0  0  0  0  0
   38.2310   26.0250   36.7390 C   0  0  0  0  0  0  0  0  0  0  0  0
   38.1690   26.5790   35.5040 N   0  0  0  0  0  0  0  0  0  0  0  0
   38.0400   25.8330   34.4030 C   0  0  0  0  0  0  0  0  0  0  0  0
   37.9680   24.5110   34.4780 N   0  0  0  0  0  0  0  0  0  0  0  0
   37.9660   26.5160   33.1310 N   0  0  0  0  0  0  0  0  0  0  0  0
   38.4890   25.8450   31.9890 C   0  0  0  0  0  0  0  0  0  0  0  0
   38.9130   26.9680   31.0360 C   0  0  0  0  0  0  0  0  0  0  0  0
   37.7640   27.7870   30.6140 C   0  0  0  0  0  0  0  0  0  0  0  0
   36.8360   28.1780   31.7350 C   0  0  0  0  0  0  0  0  0  0  0  0
   37.3820   27.8500   33.0850 C   0  0  1  0  0  0  0  0  0  0  0  0
   38.2140   24.0040   38.1870 C   0  0  0  0  0  0  0  0  0  0  0  0
   39.4160   23.4090   38.3250 F   0  0  0  0  0  0  0  0  0  0  0  0
   37.2240   23.0740   38.4010 F   0  0  0  0  0  0  0  0  0  0  0  0
   38.1510   24.9850   39.1880 F   0  0  0  0  0  0  0  0  0  0  0  0
   37.9400   22.4060   35.5680 C   0  0  0  0  0  0  0  0  0  0  0  0
   37.8700   22.0080   34.2460 F   0  0  0  0  0  0  0  0  0  0  0  0
   39.0430   21.8110   36.1760 F   0  0  0  0  0  0  0  0  0  0  0  0
   36.8880   21.8640   36.2220 F   0  0  0  0  0  0  0  0  0  0  0  0
   36.3740   28.0840   34.1260 C   0  0  0  0  0  0  0  0  0  0  0  0
   35.6520   29.3990   34.2130 C   0  0  0  0  0  0  0  0  0  0  0  0
   34.2050   29.4490   34.3620 C   0  0  0  0  0  0  0  0  0  0  0  0
   33.9070   30.6220   35.3030 C   0  0  0  0  0  0  0  0  0  0  0  0
   35.2480   31.3100   35.4830 C   0  0  0  0  0  0  0  0  0  0  0  0
   36.2200   30.1530   35.4180 C   0  0  0  0  0  0  0  0  0  0  0  0
   38.3376   26.6581   37.6322 H   0  0  0  0  0  0  0  0  0  0  0  0
   39.3541   25.2247   32.2663 H   0  0  0  0  0  0  0  0  0  0  0  0
   37.7527   25.1678   31.5316 H   0  0  0  0  0  0  0  0  0  0  0  0
   39.6421   27.6135   31.5476 H   0  0  0  0  0  0  0  0  0  0  0  0
   39.3544   26.5085   30.1393 H   0  0  0  0  0  0  0  0  0  0  0  0
   38.1488   28.7065   30.1487 H   0  0  0  0  0  0  0  0  0  0  0  0
   37.1757   27.1699   29.9189 H   0  0  0  0  0  0  0  0  0  0  0  0
   36.6598   29.2625   31.6821 H   0  0  0  0  0  0  0  0  0  0  0  0
   35.9061   27.6044   31.6078 H   0  0  0  0  0  0  0  0  0  0  0  0
   38.2157   28.5363   33.2943 H   0  0  0  0  0  0  0  0  0  0  0  0
   35.6030   27.3102   33.9964 H   0  0  0  0  0  0  0  0  0  0  0  0
   36.9689   28.0693   35.0511 H   0  0  0  0  0  0  0  0  0  0  0  0
   35.8239   29.8186   33.2108 H   0  0  0  0  0  0  0  0  0  0  0  0
   33.7274   29.6143   33.3850 H   0  0  0  0  0  0  0  0  0  0  0  0
   33.8129   28.5041   34.7661 H   0  0  0  0  0  0  0  0  0  0  0  0
   33.1751   31.3076   34.8511 H   0  0  0  0  0  0  0  0  0  0  0  0
   33.4720   30.2936   36.2585 H   0  0  0  0  0  0  0  0  0  0  0  0
   35.4357   32.0328   34.6754 H   0  0  0  0  0  0  0  0  0  0  0  0
   35.3209   31.8926   36.4132 H   0  0  0  0  0  0  0  0  0  0  0  0
   36.1906   29.5428   36.3327 H   0  0  0  0  0  0  0  0  0  0  0  0
   37.2781   30.4402   35.3292 H   0  0  0  0  0  0  0  0  0  0  0  0
  1  2  2  0
  2 13  1  0
  3  2  1  0
  4  3  2  0
  5  6  2  0
  5  4  1  0
  6  1  1  0
  7  5  1  0
  8  7  1  0
  9  8  1  0
 10  9  1  0
 10 11  1  0
 11 12  1  0
 12  7  1  0
 12 21  1  0
 13 14  1  0
 13 15  1  0
 13 16  1  0
 17  1  1  0
 17 19  1  0
 17 20  1  0
 18 17  1  0
 21 22  1  0
 22 23  1  0
 22 26  1  0
 23 24  1  0
 24 25  1  0
 26 25  1  0
  3 27  1  0
  8 28  1  0
  8 29  1  0
  9 30  1  0
  9 31  1  0
 10 32  1  0
 10 33  1  0
 11 34  1  0
 11 35  1  0
 12 36  1  1
 21 37  1  0
 21 38  1  0
 22 39  1  0
 23 40  1  0
 23 41  1  0
 24 42  1  0
 24 43  1  0
 25 44  1  0
 25 45  1  0
 26 46  1  0
 26 47  1  0
M  ISO  8  27  14  28  13  29  13  30  13  31  13  32  13  33  13  34  13
M  ISO  8  35  13  36  13  37   8  38   8  39  13  40  13  41  13  42  13
M  ISO  5  43  13  44  13  45  13  46  13  47  13
M  END
>  <minimizedAffinity>  (1) 
-6.47705889

>  <minimizedRMSD>  (1) 
0.461432487

$$$$
