
     RDKit          3D

 41 43  0  0  1  0  0  0  0  0999 V2000
   38.1290   23.7650   35.6810 C   0  0  0  0  0  0  0  0  0  0  0  0
   38.2060   24.5210   36.8440 C   0  0  0  0  0  0  0  0  0  0  0  0
   38.2660   25.9180   36.7170 C   0  0  0  0  0  0  0  0  0  0  0  0
   38.2450   26.4500   35.4720 N   0  0  0  0  0  0  0  0  0  0  0  0
   38.1710   25.7070   34.3790 C   0  0  0  0  0  0  0  0  0  0  0  0
   38.1140   24.3830   34.4830 N   0  0  0  0  0  0  0  0  0  0  0  0
   38.1480   26.3620   33.1150 N   0  0  0  0  0  0  0  0  0  0  0  0
   38.7220   25.6970   31.9870 C   0  0  0  0  0  0  0  0  0  0  0  0
   39.1050   26.7740   30.9980 C   0  0  0  0  0  0  0  0  0  0  0  0
   37.9530   27.6130   30.5650 C   0  0  0  0  0  0  0  0  0  0  0  0
   36.9680   27.9680   31.6500 C   0  0  0  0  0  0  0  0  0  0  0  0
   37.5460   27.6550   32.9890 C   0  0  1  0  0  0  0  0  0  0  0  0
   38.2270   23.9110   38.1910 C   0  0  0  0  0  0  0  0  0  0  0  0
   39.4450   23.3300   38.3670 F   0  0  0  0  0  0  0  0  0  0  0  0
   37.2640   22.9790   38.3940 F   0  0  0  0  0  0  0  0  0  0  0  0
   38.1580   24.9110   39.1770 F   0  0  0  0  0  0  0  0  0  0  0  0
   38.0630   22.2820   35.5850 C   0  0  0  0  0  0  0  0  0  0  0  0
   38.0600   21.8620   34.2630 F   0  0  0  0  0  0  0  0  0  0  0  0
   39.1330   21.6990   36.2520 F   0  0  0  0  0  0  0  0  0  0  0  0
   36.9770   21.7380   36.1840 F   0  0  0  0  0  0  0  0  0  0  0  0
   36.5310   27.9710   34.0490 C   0  0  0  0  0  0  0  0  0  0  0  0
   35.6920   29.1970   33.6210 C   0  0  0  0  0  0  0  0  0  0  0  0
   35.6060   30.2220   34.7430 C   0  0  0  0  0  0  0  0  0  0  0  0
   34.4100   29.4800   34.2540 C   0  0  0  0  0  0  0  0  0  0  0  0
   38.3284   26.5634   37.6056 H   0  0  0  0  0  0  0  0  0  0  0  0
   39.6130   25.1297   32.2941 H   0  0  0  0  0  0  0  0  0  0  0  0
   38.0106   24.9856   31.5423 H   0  0  0  0  0  0  0  0  0  0  0  0
   39.8560   27.4271   31.4665 H   0  0  0  0  0  0  0  0  0  0  0  0
   39.4956   26.2695   30.1019 H   0  0  0  0  0  0  0  0  0  0  0  0
   38.3526   28.5499   30.1495 H   0  0  0  0  0  0  0  0  0  0  0  0
   37.3950   27.0084   29.8349 H   0  0  0  0  0  0  0  0  0  0  0  0
   36.7377   29.0422   31.5951 H   0  0  0  0  0  0  0  0  0  0  0  0
   36.0488   27.3806   31.5082 H   0  0  0  0  0  0  0  0  0  0  0  0
   38.4186   28.3099   33.1295 H   0  0  0  0  0  0  0  0  0  0  0  0
   35.8673   27.1050   34.1890 H   0  0  0  0  0  0  0  0  0  0  0  0
   37.0492   28.1968   34.9926 H   0  0  0  0  0  0  0  0  0  0  0  0
   35.9800   29.1424   32.5608 H   0  0  0  0  0  0  0  0  0  0  0  0
   36.0317   29.9998   35.7327 H   0  0  0  0  0  0  0  0  0  0  0  0
   35.8825   31.2790   34.8705 H   0  0  0  0  0  0  0  0  0  0  0  0
   33.6313   30.0146   33.6902 H   0  0  0  0  0  0  0  0  0  0  0  0
   33.6436   28.8588   34.7406 H   0  0  0  0  0  0  0  0  0  0  0  0
  1  2  2  0
  2 13  1  0
  3  2  1  0
  4  3  2  0
  5  6  2  0
  5  4  1  0
  6  1  1  0
  7  5  1  0
  8  7  1  0
  9  8  1  0
 10  9  1  0
 10 11  1  0
 11 12  1  0
 12  7  1  0
 12 21  1  0
 13 14  1  0
 13 15  1  0
 13 16  1  0
 17  1  1  0
 17 20  1  0
 17 19  1  0
 18 17  1  0
 22 21  1  0
 22 24  1  0
 22 23  1  0
 24 23  1  0
  3 25  1  0
  8 26  1  0
  8 27  1  0
  9 28  1  0
  9 29  1  0
 10 30  1  0
 10 31  1  0
 11 32  1  0
 11 33  1  0
 12 34  1  1
 21 35  1  0
 21 36  1  0
 22 37  1  0
 23 38  1  0
 23 39  1  0
 24 40  1  0
 24 41  1  0
M  ISO  8  25  14  26  13  27  13  28  13  29  13  30  13  31  13  32  13
M  ISO  8  33  13  34  13  35   8  36   8  37  13  38  13  39  13  40  13
M  ISO  1  41  13
M  END
>  <minimizedAffinity>  (1) 
-6.19180346

>  <minimizedRMSD>  (1) 
0.735880494

$$$$
