
     RDKit          3D

 31 32  0  0  0  0  0  0  0  0999 V2000
   38.2260   26.6230   34.2880 C   0  0  0  0  0  0  0  0  0  0  0  0
   37.0260   27.3860   34.7550 C   0  0  0  0  0  0  0  0  0  0  0  0
   38.6320   27.1530   32.9280 C   0  0  0  0  0  0  0  0  0  0  0  0
   39.3970   27.0070   35.2080 C   0  0  0  0  0  0  0  0  0  0  0  0
   40.7070   26.8420   34.5180 C   0  0  0  0  0  0  0  0  0  0  0  0
   41.5710   25.8340   34.7790 N   0  0  0  0  0  0  0  0  0  0  0  0
   42.6100   25.9810   34.0130 O   0  0  0  0  0  0  0  0  0  0  0  0
   42.4880   27.0290   33.2550 C   0  0  0  0  0  0  0  0  0  0  0  0
   41.2990   27.5780   33.5620 N   0  0  0  0  0  0  0  0  0  0  0  0
   38.0840   24.8420   34.3380 S   0  0  0  0  0  0  0  0  0  0  0  0
   38.2830   23.7110   38.2480 C   0  0  0  0  0  0  0  0  0  0  0  0
   37.8600   24.2960   37.0400 C   0  0  0  0  0  0  0  0  0  0  0  0
   38.5890   24.1180   35.8850 C   0  0  0  0  0  0  0  0  0  0  0  0
   39.7160   23.3620   35.9750 N   0  0  0  0  0  0  0  0  0  0  0  0
   40.1160   22.8090   37.1200 C   0  0  0  0  0  0  0  0  0  0  0  0
   39.4300   22.9640   38.2530 N   0  0  0  0  0  0  0  0  0  0  0  0
   41.3700   22.0020   37.0850 C   0  0  0  0  0  0  0  0  0  0  0  0
   41.4860   21.3310   35.8670 F   0  0  0  0  0  0  0  0  0  0  0  0
   42.4430   22.9050   37.0700 F   0  0  0  0  0  0  0  0  0  0  0  0
   41.4970   21.1550   38.1440 F   0  0  0  0  0  0  0  0  0  0  0  0
   37.0051   27.3993   35.8547 H   0  0  0  0  0  0  0  0  0  0  0  0
   37.0774   28.4176   34.3767 H   0  0  0  0  0  0  0  0  0  0  0  0
   36.1136   26.9018   34.3767 H   0  0  0  0  0  0  0  0  0  0  0  0
   39.2964   28.0203   33.0559 H   0  0  0  0  0  0  0  0  0  0  0  0
   39.1602   26.3656   32.3703 H   0  0  0  0  0  0  0  0  0  0  0  0
   37.7342   27.4579   32.3703 H   0  0  0  0  0  0  0  0  0  0  0  0
   39.2829   28.0577   35.5129 H   0  0  0  0  0  0  0  0  0  0  0  0
   39.3811   26.3423   36.0843 H   0  0  0  0  0  0  0  0  0  0  0  0
   43.2117   27.3941   32.5114 H   0  0  0  0  0  0  0  0  0  0  0  0
   37.7023   23.8515   39.1716 H   0  0  0  0  0  0  0  0  0  0  0  0
   36.9407   24.8997   37.0180 H   0  0  0  0  0  0  0  0  0  0  0  0
  1 10  1  0
  1  2  1  0
  1  4  1  0
  3  1  1  0
  5  6  2  0
  5  4  1  0
  7  6  1  0
  8  9  2  0
  8  7  1  0
  9  5  1  0
 10 13  1  0
 11 16  2  0
 12 11  1  0
 13 14  1  0
 13 12  2  0
 14 15  2  0
 15 16  1  0
 17 15  1  0
 17 20  1  0
 18 17  1  0
 19 17  1  0
  2 21  1  0
  2 22  1  0
  2 23  1  0
  3 24  1  0
  3 25  1  0
  3 26  1  0
  4 27  1  0
  4 28  1  0
  8 29  1  0
 11 30  1  0
 12 31  1  0
M  ISO  8  21   8  22   8  23   8  24   8  25   8  26   8  27   8  28   8
M  ISO  3  29  14  30  14  31  14
M  END
>  <minimizedAffinity>  (1) 
-4.92780542

>  <minimizedRMSD>  (1) 
0.504506588

$$$$
