
     RDKit          3D

 44 46  0  0  1  0  0  0  0  0999 V2000
   38.1480   23.8640   35.5960 C   0  0  0  0  0  0  0  0  0  0  0  0
   38.1260   24.6190   36.7700 C   0  0  0  0  0  0  0  0  0  0  0  0
   38.0640   26.0130   36.6500 C   0  0  0  0  0  0  0  0  0  0  0  0
   38.0300   26.5560   35.4100 N   0  0  0  0  0  0  0  0  0  0  0  0
   38.0520   25.8170   34.3100 C   0  0  0  0  0  0  0  0  0  0  0  0
   38.1100   24.4920   34.4050 N   0  0  0  0  0  0  0  0  0  0  0  0
   38.0040   26.4760   33.0510 N   0  0  0  0  0  0  0  0  0  0  0  0
   38.6680   25.8790   31.9330 C   0  0  0  0  0  0  0  0  0  0  0  0
   38.9880   27.0020   30.9720 C   0  0  0  0  0  0  0  0  0  0  0  0
   37.7890   27.7480   30.5150 C   0  0  0  0  0  0  0  0  0  0  0  0
   36.7280   27.9820   31.5610 C   0  0  0  0  0  0  0  0  0  0  0  0
   37.2840   27.7100   32.9170 C   0  0  1  0  0  0  0  0  0  0  0  0
   38.1640   24.0000   38.1080 C   0  0  0  0  0  0  0  0  0  0  0  0
   39.3890   23.4630   38.2960 F   0  0  0  0  0  0  0  0  0  0  0  0
   37.2250   23.0170   38.2880 F   0  0  0  0  0  0  0  0  0  0  0  0
   38.0230   24.9780   39.0990 F   0  0  0  0  0  0  0  0  0  0  0  0
   38.2160   22.3830   35.4880 C   0  0  0  0  0  0  0  0  0  0  0  0
   38.3480   21.9800   34.1660 F   0  0  0  0  0  0  0  0  0  0  0  0
   39.2800   21.8830   36.2270 F   0  0  0  0  0  0  0  0  0  0  0  0
   37.1390   21.7430   36.0010 F   0  0  0  0  0  0  0  0  0  0  0  0
   36.2110   27.9140   33.9410 C   0  0  0  0  0  0  0  0  0  0  0  0
   36.0110   29.4080   34.1820 C   0  0  0  0  0  0  0  0  0  0  0  0
   35.5930   30.2660   33.1770 C   0  0  0  0  0  0  0  0  0  0  0  0
   35.4330   31.6070   33.4590 C   0  0  0  0  0  0  0  0  0  0  0  0
   35.6850   32.1090   34.7330 C   0  0  0  0  0  0  0  0  0  0  0  0
   36.1030   31.2510   35.7350 C   0  0  0  0  0  0  0  0  0  0  0  0
   36.2570   29.9240   35.4390 C   0  0  0  0  0  0  0  0  0  0  0  0
   38.0434   26.6533   37.5442 H   0  0  0  0  0  0  0  0  0  0  0  0
   39.5942   25.3845   32.2611 H   0  0  0  0  0  0  0  0  0  0  0  0
   38.0350   25.1163   31.4560 H   0  0  0  0  0  0  0  0  0  0  0  0
   39.6668   27.7072   31.4738 H   0  0  0  0  0  0  0  0  0  0  0  0
   39.4451   26.5461   30.0814 H   0  0  0  0  0  0  0  0  0  0  0  0
   38.1217   28.7291   30.1453 H   0  0  0  0  0  0  0  0  0  0  0  0
   37.3186   27.1183   29.7455 H   0  0  0  0  0  0  0  0  0  0  0  0
   36.3885   29.0270   31.5088 H   0  0  0  0  0  0  0  0  0  0  0  0
   35.8804   27.3061   31.3748 H   0  0  0  0  0  0  0  0  0  0  0  0
   38.0824   28.4450   33.0968 H   0  0  0  0  0  0  0  0  0  0  0  0
   35.2708   27.4724   33.5791 H   0  0  0  0  0  0  0  0  0  0  0  0
   36.5073   27.4284   34.8825 H   0  0  0  0  0  0  0  0  0  0  0  0
   35.3911   29.8822   32.1661 H   0  0  0  0  0  0  0  0  0  0  0  0
   35.1008   32.2910   32.6641 H   0  0  0  0  0  0  0  0  0  0  0  0
   35.5527   33.1809   34.9417 H   0  0  0  0  0  0  0  0  0  0  0  0
   36.3072   31.6278   36.7481 H   0  0  0  0  0  0  0  0  0  0  0  0
   36.5901   29.2409   36.2342 H   0  0  0  0  0  0  0  0  0  0  0  0
  1  2  2  0
  2 13  1  0
  3  2  1  0
  4  3  2  0
  5  6  2  0
  5  4  1  0
  6  1  1  0
  7  5  1  0
  8  7  1  0
  9  8  1  0
 10  9  1  0
 10 11  1  0
 11 12  1  0
 12  7  1  0
 12 21  1  0
 13 15  1  0
 13 14  1  0
 13 16  1  0
 17  1  1  0
 17 20  1  0
 17 19  1  0
 18 17  1  0
 21 22  1  0
 22 27  2  0
 23 24  2  0
 23 22  1  0
 24 25  1  0
 25 26  2  0
 27 26  1  0
  3 28  1  0
  8 29  1  0
  8 30  1  0
  9 31  1  0
  9 32  1  0
 10 33  1  0
 10 34  1  0
 11 35  1  0
 11 36  1  0
 12 37  1  1
 21 38  1  0
 21 39  1  0
 23 40  1  0
 24 41  1  0
 25 42  1  0
 26 43  1  0
 27 44  1  0
M  ISO  8  28  14  29  13  30  13  31  13  32  13  33  13  34  13  35  13
M  ISO  8  36  13  37  13  38   8  39   8  40  14  41  14  42  14  43  14
M  ISO  1  44  14
M  END
>  <minimizedAffinity>  (1) 
-6.61662197

>  <minimizedRMSD>  (1) 
0.720719159

$$$$
