
     RDKit          3D

 41 43  0  0  1  0  0  0  0  0999 V2000
   38.1600   23.8520   35.7400 C   0  0  0  0  0  0  0  0  0  0  0  0
   38.1620   24.5260   36.9660 C   0  0  0  0  0  0  0  0  0  0  0  0
   38.0610   25.9190   36.9510 C   0  0  0  0  0  0  0  0  0  0  0  0
   37.9650   26.5490   35.7570 N   0  0  0  0  0  0  0  0  0  0  0  0
   37.9640   25.8920   34.6070 C   0  0  0  0  0  0  0  0  0  0  0  0
   38.0610   24.5650   34.6030 N   0  0  0  0  0  0  0  0  0  0  0  0
   37.8480   26.6390   33.4010 N   0  0  0  0  0  0  0  0  0  0  0  0
   38.4570   26.1320   32.2110 C   0  0  0  0  0  0  0  0  0  0  0  0
   38.7270   27.3220   31.3220 C   0  0  0  0  0  0  0  0  0  0  0  0
   37.4900   28.0560   30.9610 C   0  0  0  0  0  0  0  0  0  0  0  0
   36.4960   28.2260   32.0750 C   0  0  0  0  0  0  0  0  0  0  0  0
   37.1200   27.8640   33.3810 C   0  0  1  0  0  0  0  0  0  0  0  0
   38.2650   23.8110   38.2530 C   0  0  0  0  0  0  0  0  0  0  0  0
   39.4750   23.2140   38.3140 F   0  0  0  0  0  0  0  0  0  0  0  0
   37.2980   22.8580   38.4400 F   0  0  0  0  0  0  0  0  0  0  0  0
   38.2490   24.7250   39.3170 F   0  0  0  0  0  0  0  0  0  0  0  0
   38.2610   22.3880   35.5230 C   0  0  0  0  0  0  0  0  0  0  0  0
   38.3310   22.0840   34.1690 F   0  0  0  0  0  0  0  0  0  0  0  0
   39.3610   21.8670   36.1910 F   0  0  0  0  0  0  0  0  0  0  0  0
   37.2170   21.6820   36.0210 F   0  0  0  0  0  0  0  0  0  0  0  0
   36.0660   27.9620   34.4570 C   0  0  0  0  0  0  0  0  0  0  0  0
   35.5290   29.3910   34.4690 C   0  0  0  0  0  0  0  0  0  0  0  0
   36.0930   30.4830   34.9550 C   0  0  0  0  0  0  0  0  0  0  0  0
   35.4000   31.6600   34.8430 C   0  0  0  0  0  0  0  0  0  0  0  0
   34.1630   31.6520   34.2370 C   0  0  0  0  0  0  0  0  0  0  0  0
   33.9370   29.8490   33.7810 S   0  0  0  0  0  0  0  0  0  0  0  0
   38.0595   26.4920   37.8900 H   0  0  0  0  0  0  0  0  0  0  0  0
   39.3993   25.6199   32.4558 H   0  0  0  0  0  0  0  0  0  0  0  0
   37.8019   25.4040   31.7101 H   0  0  0  0  0  0  0  0  0  0  0  0
   39.4036   28.0100   31.8500 H   0  0  0  0  0  0  0  0  0  0  0  0
   39.1760   26.9471   30.3904 H   0  0  0  0  0  0  0  0  0  0  0  0
   37.7794   29.0569   30.6081 H   0  0  0  0  0  0  0  0  0  0  0  0
   36.9874   27.4470   30.1952 H   0  0  0  0  0  0  0  0  0  0  0  0
   36.1638   29.2741   32.1090 H   0  0  0  0  0  0  0  0  0  0  0  0
   35.6355   27.5654   31.8926 H   0  0  0  0  0  0  0  0  0  0  0  0
   37.9200   28.5931   33.5771 H   0  0  0  0  0  0  0  0  0  0  0  0
   35.2481   27.2585   34.2424 H   0  0  0  0  0  0  0  0  0  0  0  0
   36.4981   27.7099   35.4367 H   0  0  0  0  0  0  0  0  0  0  0  0
   37.0834   30.4484   35.4324 H   0  0  0  0  0  0  0  0  0  0  0  0
   35.8253   32.5972   35.2313 H   0  0  0  0  0  0  0  0  0  0  0  0
   33.4779   32.4950   34.0638 H   0  0  0  0  0  0  0  0  0  0  0  0
  1  2  2  0
  2 13  1  0
  3  2  1  0
  4  3  2  0
  5  4  1  0
  6  5  2  0
  6  1  1  0
  7  5  1  0
  8  7  1  0
  9  8  1  0
 10  9  1  0
 10 11  1  0
 11 12  1  0
 12  7  1  0
 12 21  1  0
 13 14  1  0
 13 15  1  0
 13 16  1  0
 17  1  1  0
 17 20  1  0
 17 19  1  0
 18 17  1  0
 21 22  1  0
 22 23  2  0
 24 23  1  0
 25 24  2  0
 26 25  1  0
 26 22  1  0
  3 27  1  0
  8 28  1  0
  8 29  1  0
  9 30  1  0
  9 31  1  0
 10 32  1  0
 10 33  1  0
 11 34  1  0
 11 35  1  0
 12 36  1  1
 21 37  1  0
 21 38  1  0
 23 39  1  0
 24 40  1  0
 25 41  1  0
M  ISO  8  27  14  28  13  29  13  30  13  31  13  32  13  33  13  34  13
M  ISO  7  35  13  36  13  37   8  38   8  39  14  40  14  41  14
M  END
>  <minimizedAffinity>  (1) 
-6.08266973

>  <minimizedRMSD>  (1) 
0.805922449

$$$$
