
     RDKit          3D

 41 43  0  0  1  0  0  0  0  0999 V2000
   38.1600   23.8140   35.7270 C   0  0  0  0  0  0  0  0  0  0  0  0
   38.1790   24.5320   36.9220 C   0  0  0  0  0  0  0  0  0  0  0  0
   38.1310   25.9250   36.8440 C   0  0  0  0  0  0  0  0  0  0  0  0
   38.0690   26.5130   35.6200 N   0  0  0  0  0  0  0  0  0  0  0  0
   38.0520   25.8030   34.5020 C   0  0  0  0  0  0  0  0  0  0  0  0
   38.0970   24.4780   34.5560 N   0  0  0  0  0  0  0  0  0  0  0  0
   37.9790   26.4990   33.2650 N   0  0  0  0  0  0  0  0  0  0  0  0
   38.6010   25.9270   32.1070 C   0  0  0  0  0  0  0  0  0  0  0  0
   38.8940   27.0610   31.1610 C   0  0  0  0  0  0  0  0  0  0  0  0
   37.6700   27.8260   30.7590 C   0  0  0  0  0  0  0  0  0  0  0  0
   36.6790   28.0610   31.8520 C   0  0  0  0  0  0  0  0  0  0  0  0
   37.2810   27.7480   33.1820 C   0  0  1  0  0  0  0  0  0  0  0  0
   38.2470   23.8680   38.2370 C   0  0  0  0  0  0  0  0  0  0  0  0
   39.4710   23.2960   38.3620 F   0  0  0  0  0  0  0  0  0  0  0  0
   37.2770   22.9140   38.4270 F   0  0  0  0  0  0  0  0  0  0  0  0
   38.1890   24.8280   39.2670 F   0  0  0  0  0  0  0  0  0  0  0  0
   38.2040   22.3370   35.5750 C   0  0  0  0  0  0  0  0  0  0  0  0
   38.2860   21.9700   34.2370 F   0  0  0  0  0  0  0  0  0  0  0  0
   39.2820   21.8010   36.2650 F   0  0  0  0  0  0  0  0  0  0  0  0
   37.1350   21.6890   36.0940 F   0  0  0  0  0  0  0  0  0  0  0  0
   36.2370   27.9350   34.2430 C   0  0  0  0  0  0  0  0  0  0  0  0
   35.3920   29.1580   33.9020 C   0  0  0  0  0  0  0  0  0  0  0  0
   35.6850   30.4570   34.3030 C   0  0  0  0  0  0  0  0  0  0  0  0
   34.7370   31.2900   33.8310 N   0  0  0  0  0  0  0  0  0  0  0  0
   33.8680   30.5260   33.1490 C   0  0  0  0  0  0  0  0  0  0  0  0
   34.2560   29.2360   33.1860 N   0  0  0  0  0  0  0  0  0  0  0  0
   38.1432   26.5368   37.7581 H   0  0  0  0  0  0  0  0  0  0  0  0
   39.5353   25.4207   32.3910 H   0  0  0  0  0  0  0  0  0  0  0  0
   37.9437   25.1816   31.6355 H   0  0  0  0  0  0  0  0  0  0  0  0
   39.5936   27.7536   31.6517 H   0  0  0  0  0  0  0  0  0  0  0  0
   39.3199   26.6220   30.2467 H   0  0  0  0  0  0  0  0  0  0  0  0
   37.9917   28.8053   30.3750 H   0  0  0  0  0  0  0  0  0  0  0  0
   37.1560   27.2070   30.0089 H   0  0  0  0  0  0  0  0  0  0  0  0
   36.3659   29.1154   31.8358 H   0  0  0  0  0  0  0  0  0  0  0  0
   35.8112   27.4044   31.6917 H   0  0  0  0  0  0  0  0  0  0  0  0
   38.0981   28.4651   33.3497 H   0  0  0  0  0  0  0  0  0  0  0  0
   35.5938   27.0438   34.2879 H   0  0  0  0  0  0  0  0  0  0  0  0
   36.7228   28.0808   35.2191 H   0  0  0  0  0  0  0  0  0  0  0  0
   36.5527   30.7567   34.9091 H   0  0  0  0  0  0  0  0  0  0  0  0
   32.9700   30.8991   32.6349 H   0  0  0  0  0  0  0  0  0  0  0  0
   33.7668   28.4456   32.7423 H   0  0  0  0  0  0  0  0  0  0  0  0
  1  2  2  0
  2 13  1  0
  3  2  1  0
  4  3  2  0
  5  6  2  0
  5  4  1  0
  6  1  1  0
  7  5  1  0
  8  7  1  0
  9  8  1  0
 10  9  1  0
 10 11  1  0
 11 12  1  0
 12  7  1  0
 12 21  1  0
 13 14  1  0
 13 15  1  0
 13 16  1  0
 17  1  1  0
 17 20  1  0
 17 19  1  0
 18 17  1  0
 22 21  1  0
 22 23  2  0
 24 23  1  0
 25 26  1  0
 25 24  2  0
 26 22  1  0
  3 27  1  0
  8 28  1  0
  8 29  1  0
  9 30  1  0
  9 31  1  0
 10 32  1  0
 10 33  1  0
 11 34  1  0
 11 35  1  0
 12 36  1  1
 21 37  1  0
 21 38  1  0
 23 39  1  0
 25 40  1  0
 26 41  1  0
M  ISO  8  27  14  28  13  29  13  30  13  31  13  32  13  33  13  34  13
M  ISO  7  35  13  36  13  37   8  38   8  39  14  40  14  41   9
M  END
>  <minimizedAffinity>  (1) 
-6.05614138

>  <minimizedRMSD>  (1) 
0.515855968

$$$$
