
     RDKit          3D

 27 29  0  0  0  0  0  0  0  0999 V2000
   38.0060   23.7440   34.4630 N   0  0  0  0  0  0  0  0  0  0  0  0
   37.9460   22.9570   33.3630 C   0  0  0  0  0  0  0  0  0  0  0  0
   37.4950   23.6920   32.3300 N   0  0  0  0  0  0  0  0  0  0  0  0
   37.2640   24.9590   32.7820 C   0  0  0  0  0  0  0  0  0  0  0  0
   36.7980   26.0640   32.0920 C   0  0  0  0  0  0  0  0  0  0  0  0
   36.5000   26.0390   30.8600 O   0  0  0  0  0  0  0  0  0  0  0  0
   36.6490   27.2270   32.7570 N   0  0  0  0  0  0  0  0  0  0  0  0
   36.9630   27.2420   34.0550 C   0  0  0  0  0  0  0  0  0  0  0  0
   36.8530   28.4090   34.8820 N   0  0  0  0  0  0  0  0  0  0  0  0
   37.4170   26.1950   34.7510 N   0  0  0  0  0  0  0  0  0  0  0  0
   37.5840   24.9960   34.1190 C   0  0  0  0  0  0  0  0  0  0  0  0
   38.3950   23.5440   35.8280 C   0  0  0  0  0  0  0  0  0  0  0  0
   39.5770   22.8150   35.9840 C   0  0  0  0  0  0  0  0  0  0  0  0
   40.0290   22.5750   37.2890 C   0  0  0  0  0  0  0  0  0  0  0  0
   39.2870   23.0660   38.3160 N   0  0  0  0  0  0  0  0  0  0  0  0
   38.1580   23.7620   38.1340 C   0  0  0  0  0  0  0  0  0  0  0  0
   37.7220   23.9950   36.8930 N   0  0  0  0  0  0  0  0  0  0  0  0
   41.2840   21.8040   37.5270 C   0  0  0  0  0  0  0  0  0  0  0  0
   38.2205   21.8927   33.3207 H   0  0  0  0  0  0  0  0  0  0  0  0
   36.3054   28.0735   32.2813 H   0  0  0  0  0  0  0  0  0  0  0  0
   37.1101   28.3603   35.8782 H   0  0  0  0  0  0  0  0  0  0  0  0
   36.5169   29.2956   34.4796 H   0  0  0  0  0  0  0  0  0  0  0  0
   40.1341   22.4420   35.1119 H   0  0  0  0  0  0  0  0  0  0  0  0
   37.5937   24.1391   38.9997 H   0  0  0  0  0  0  0  0  0  0  0  0
   41.4515   21.7011   38.6093 H   0  0  0  0  0  0  0  0  0  0  0  0
   41.1928   20.8060   37.0736 H   0  0  0  0  0  0  0  0  0  0  0  0
   42.1330   22.3365   37.0736 H   0  0  0  0  0  0  0  0  0  0  0  0
  1 12  1  0
  2  1  1  0
  3  4  1  0
  3  2  2  0
  4 11  2  0
  5  7  1  0
  5  4  1  0
  6  5  2  0
  7  8  1  0
  8 10  2  0
  8  9  1  0
 11  1  1  0
 11 10  1  0
 12 13  2  0
 12 17  1  0
 13 14  1  0
 14 18  1  0
 14 15  2  0
 16 15  1  0
 17 16  2  0
  2 19  1  0
  7 20  1  0
  9 21  1  0
  9 22  1  0
 13 23  1  0
 16 24  1  0
 18 25  1  0
 18 26  1  0
 18 27  1  0
M  ISO  7  19  14  20   9  23  14  24  14  25   8  26   8  27   8
M  END
>  <minimizedAffinity>  (1) 
-4.84681797

>  <minimizedRMSD>  (1) 
7.43999672

$$$$
