
     RDKit          3D

 27 29  0  0  0  0  0  0  0  0999 V2000
   38.3750   24.0640   36.0380 C   0  0  0  0  0  0  0  0  0  0  0  0
   39.5130   23.2500   36.1150 C   0  0  0  0  0  0  0  0  0  0  0  0
   39.9040   22.7770   37.3650 C   0  0  0  0  0  0  0  0  0  0  0  0
   39.1580   23.1340   38.4530 N   0  0  0  0  0  0  0  0  0  0  0  0
   38.0630   23.9240   38.3320 C   0  0  0  0  0  0  0  0  0  0  0  0
   37.6880   24.3760   37.1340 N   0  0  0  0  0  0  0  0  0  0  0  0
   37.9770   24.5510   34.7200 C   0  0  0  0  0  0  0  0  0  0  0  0
   37.9810   23.8510   33.5190 C   0  0  0  0  0  0  0  0  0  0  0  0
   37.5390   24.6960   32.5880 N   0  0  0  0  0  0  0  0  0  0  0  0
   37.2370   25.9110   33.0680 C   0  0  0  0  0  0  0  0  0  0  0  0
   36.7600   27.0240   32.4100 C   0  0  0  0  0  0  0  0  0  0  0  0
   36.5400   28.1580   33.1980 C   0  0  0  0  0  0  0  0  0  0  0  0
   36.8040   28.1120   34.5510 C   0  0  0  0  0  0  0  0  0  0  0  0
   37.2850   26.9670   35.1710 C   0  0  0  0  0  0  0  0  0  0  0  0
   37.5170   25.8190   34.4320 C   0  0  0  0  0  0  0  0  0  0  0  0
   41.1050   21.9080   37.5220 C   0  0  0  0  0  0  0  0  0  0  0  0
   40.0832   22.9911   35.2106 H   0  0  0  0  0  0  0  0  0  0  0  0
   37.4810   24.1936   39.2256 H   0  0  0  0  0  0  0  0  0  0  0  0
   38.2884   22.8058   33.3670 H   0  0  0  0  0  0  0  0  0  0  0  0
   37.4390   24.4403   31.5953 H   0  0  0  0  0  0  0  0  0  0  0  0
   36.5637   27.0205   31.3277 H   0  0  0  0  0  0  0  0  0  0  0  0
   36.1581   29.0827   32.7408 H   0  0  0  0  0  0  0  0  0  0  0  0
   36.6276   29.0119   35.1585 H   0  0  0  0  0  0  0  0  0  0  0  0
   37.4826   26.9715   36.2531 H   0  0  0  0  0  0  0  0  0  0  0  0
   41.3119   21.7583   38.5919 H   0  0  0  0  0  0  0  0  0  0  0  0
   40.9182   20.9346   37.0450 H   0  0  0  0  0  0  0  0  0  0  0  0
   41.9712   22.3899   37.0450 H   0  0  0  0  0  0  0  0  0  0  0  0
  1  2  2  0
  1  6  1  0
  2  3  1  0
  3 16  1  0
  3  4  2  0
  5  4  1  0
  6  5  2  0
  7  1  1  0
  8  7  2  0
  9 10  1  0
  9  8  1  0
 10 15  2  0
 11 10  1  0
 11 12  2  0
 12 13  1  0
 13 14  2  0
 15  7  1  0
 15 14  1  0
  2 17  1  0
  5 18  1  0
  8 19  1  0
  9 20  1  0
 11 21  1  0
 12 22  1  0
 13 23  1  0
 14 24  1  0
 16 25  1  0
 16 26  1  0
 16 27  1  0
M  ISO  8  17  14  18  14  19  14  20   9  21  14  22  14  23  14  24  14
M  ISO  3  25   8  26   8  27   8
M  END
>  <minimizedAffinity>  (1) 
-5.17255878

>  <minimizedRMSD>  (1) 
7.16819429

$$$$
