
     RDKit          3D

 22 23  0  0  0  0  0  0  0  0999 V2000
   38.6940   24.6140   36.3820 C   0  0  0  0  0  0  0  0  0  0  0  0
   39.8000   23.8830   35.9170 C   0  0  0  0  0  0  0  0  0  0  0  0
   40.3340   22.8880   36.7330 C   0  0  0  0  0  0  0  0  0  0  0  0
   39.7430   22.6810   37.9500 N   0  0  0  0  0  0  0  0  0  0  0  0
   38.6900   23.3900   38.3700 C   0  0  0  0  0  0  0  0  0  0  0  0
   38.1670   24.3500   37.5940 N   0  0  0  0  0  0  0  0  0  0  0  0
   38.1400   25.6500   35.5260 C   0  0  0  0  0  0  0  0  0  0  0  0
   38.0980   26.9500   35.9760 C   0  0  0  0  0  0  0  0  0  0  0  0
   37.5450   27.8300   35.0560 C   0  0  0  0  0  0  0  0  0  0  0  0
   37.0720   27.4920   33.8060 C   0  0  0  0  0  0  0  0  0  0  0  0
   37.1540   26.1480   33.4310 C   0  0  0  0  0  0  0  0  0  0  0  0
   37.6880   25.2860   34.3140 N   0  0  0  0  0  0  0  0  0  0  0  0
   41.5090   22.0880   36.2790 C   0  0  0  0  0  0  0  0  0  0  0  0
   40.2355   24.0920   34.9287 H   0  0  0  0  0  0  0  0  0  0  0  0
   38.2506   23.1845   39.3573 H   0  0  0  0  0  0  0  0  0  0  0  0
   38.4657   27.2604   36.9652 H   0  0  0  0  0  0  0  0  0  0  0  0
   37.4784   28.8880   35.3495 H   0  0  0  0  0  0  0  0  0  0  0  0
   36.6472   28.2495   33.1309 H   0  0  0  0  0  0  0  0  0  0  0  0
   36.7945   25.8077   32.4487 H   0  0  0  0  0  0  0  0  0  0  0  0
   42.0585   21.7139   37.1554 H   0  0  0  0  0  0  0  0  0  0  0  0
   41.1618   21.2378   35.6735 H   0  0  0  0  0  0  0  0  0  0  0  0
   42.1728   22.7226   35.6735 H   0  0  0  0  0  0  0  0  0  0  0  0
  1  6  1  0
  2  1  2  0
  2  3  1  0
  3  4  2  0
  4  5  1  0
  6  5  2  0
  7  8  2  0
  7  1  1  0
  9  8  1  0
 10  9  2  0
 11 10  1  0
 11 12  2  0
 12  7  1  0
 13  3  1  0
  2 14  1  0
  5 15  1  0
  8 16  1  0
  9 17  1  0
 10 18  1  0
 11 19  1  0
 13 20  1  0
 13 21  1  0
 13 22  1  0
M  ISO  8  14  14  15  14  16  14  17  14  18  14  19  14  20   8  21   8
M  ISO  1  22   8
M  END
>  <minimizedAffinity>  (1) 
-4.21269131

>  <minimizedRMSD>  (1) 
6.32031631

$$$$
