
     RDKit          3D

 23 24  0  0  0  0  0  0  0  0999 V2000
   39.9910   23.6320   35.4040 C   0  0  0  0  0  0  0  0  0  0  0  0
   40.6550   24.8260   35.1030 C   0  0  0  0  0  0  0  0  0  0  0  0
   39.9630   25.8360   34.4230 C   0  0  0  0  0  0  0  0  0  0  0  0
   38.6540   25.5880   34.0880 N   0  0  0  0  0  0  0  0  0  0  0  0
   38.0370   24.4230   34.3930 C   0  0  0  0  0  0  0  0  0  0  0  0
   38.7150   23.4540   35.0500 N   0  0  0  0  0  0  0  0  0  0  0  0
   40.7200   22.6250   36.0960 N   0  0  0  0  0  0  0  0  0  0  0  0
   41.6260   22.0290   35.2720 C   0  0  0  0  0  0  0  0  0  0  0  0
   42.4550   21.0200   35.7120 C   0  0  0  0  0  0  0  0  0  0  0  0
   42.3380   20.6240   37.0330 C   0  0  0  0  0  0  0  0  0  0  0  0
   43.0740   19.7000   37.4940 O   0  0  0  0  0  0  0  0  0  0  0  0
   41.4330   21.2360   37.8120 N   0  0  0  0  0  0  0  0  0  0  0  0
   40.6330   22.2200   37.3640 C   0  0  0  0  0  0  0  0  0  0  0  0
   39.7680   22.8380   38.0250 O   0  0  0  0  0  0  0  0  0  0  0  0
   40.6100   27.1330   34.0690 C   0  0  0  0  0  0  0  0  0  0  0  0
   41.7055   24.9695   35.3962 H   0  0  0  0  0  0  0  0  0  0  0  0
   36.9867   24.2642   34.1074 H   0  0  0  0  0  0  0  0  0  0  0  0
   41.6980   22.3623   34.2262 H   0  0  0  0  0  0  0  0  0  0  0  0
   43.1835   20.5463   35.0376 H   0  0  0  0  0  0  0  0  0  0  0  0
   41.3473   20.9397   38.7947 H   0  0  0  0  0  0  0  0  0  0  0  0
   40.8788   27.6719   34.9895 H   0  0  0  0  0  0  0  0  0  0  0  0
   41.5178   26.9407   33.4783 H   0  0  0  0  0  0  0  0  0  0  0  0
   39.9104   27.7426   33.4783 H   0  0  0  0  0  0  0  0  0  0  0  0
  1  7  1  0
  2  1  2  0
  3  2  1  0
  4  5  1  0
  4  3  2  0
  5  6  2  0
  6  1  1  0
  7 13  1  0
  8  9  2  0
  8  7  1  0
  9 10  1  0
 10 11  2  0
 10 12  1  0
 13 12  1  0
 13 14  2  0
 15  3  1  0
  2 16  1  0
  5 17  1  0
  8 18  1  0
  9 19  1  0
 12 20  1  0
 15 21  1  0
 15 22  1  0
 15 23  1  0
M  ISO  8  16  14  17  14  18  14  19  14  20   9  21   8  22   8  23   8
M  END
>  <minimizedAffinity>  (1) 
-4.04424524

>  <minimizedRMSD>  (1) 
3.08785272

$$$$
