
     RDKit          3D

 20 21  0  0  0  0  0  0  0  0999 V2000
   39.9010   22.2060   36.6780 C   0  0  0  0  0  0  0  0  0  0  0  0
   39.5990   23.0330   37.7760 C   0  0  0  0  0  0  0  0  0  0  0  0
   38.3740   23.7160   37.7460 C   0  0  0  0  0  0  0  0  0  0  0  0
   37.5550   23.5380   36.6630 N   0  0  0  0  0  0  0  0  0  0  0  0
   37.8950   22.7320   35.6370 C   0  0  0  0  0  0  0  0  0  0  0  0
   39.0590   22.0720   35.6470 N   0  0  0  0  0  0  0  0  0  0  0  0
   41.1810   21.5060   36.7320 C   0  0  0  0  0  0  0  0  0  0  0  0
   42.1290   21.4930   35.7080 C   0  0  0  0  0  0  0  0  0  0  0  0
   43.2010   20.7410   36.1000 N   0  0  0  0  0  0  0  0  0  0  0  0
   42.9390   20.2900   37.3400 C   0  0  0  0  0  0  0  0  0  0  0  0
   41.7300   20.7550   37.7030 N   0  0  0  0  0  0  0  0  0  0  0  0
   37.9930   24.6100   38.8790 C   0  0  0  0  0  0  0  0  0  0  0  0
   40.2941   23.1393   38.6219 H   0  0  0  0  0  0  0  0  0  0  0  0
   37.2097   22.6160   34.7844 H   0  0  0  0  0  0  0  0  0  0  0  0
   42.0295   22.0060   34.7400 H   0  0  0  0  0  0  0  0  0  0  0  0
   43.5972   19.6534   37.9495 H   0  0  0  0  0  0  0  0  0  0  0  0
   41.2817   20.5605   38.6097 H   0  0  0  0  0  0  0  0  0  0  0  0
   38.2080   24.1054   39.8325 H   0  0  0  0  0  0  0  0  0  0  0  0
   38.5713   25.5438   38.8197 H   0  0  0  0  0  0  0  0  0  0  0  0
   36.9189   24.8396   38.8197 H   0  0  0  0  0  0  0  0  0  0  0  0
  1  7  1  0
  1  2  2  0
  3  2  1  0
  3 12  1  0
  4  3  2  0
  5  6  2  0
  5  4  1  0
  6  1  1  0
  7 11  1  0
  8  9  1  0
  8  7  2  0
  9 10  2  0
 10 11  1  0
  2 13  1  0
  5 14  1  0
  8 15  1  0
 10 16  1  0
 11 17  1  0
 12 18  1  0
 12 19  1  0
 12 20  1  0
M  ISO  8  13  14  14  14  15  14  16  14  17   9  18   8  19   8  20   8
M  END
>  <minimizedAffinity>  (1) 
-3.81332636

>  <minimizedRMSD>  (1) 
1.19927657

$$$$
