
     RDKit          3D

 37 39  0  0  0  0  0  0  0  0999 V2000
   38.1920   26.7520   34.3490 C   0  0  0  0  0  0  0  0  0  0  0  0
   37.1040   27.6770   34.7970 C   0  0  0  0  0  0  0  0  0  0  0  0
   38.6800   27.2050   32.9840 C   0  0  0  0  0  0  0  0  0  0  0  0
   39.4070   27.0050   35.2750 C   0  0  0  0  0  0  0  0  0  0  0  0
   40.6960   26.8350   34.5430 C   0  0  0  0  0  0  0  0  0  0  0  0
   41.5220   25.7770   34.7290 N   0  0  0  0  0  0  0  0  0  0  0  0
   42.5470   25.9340   33.9450 O   0  0  0  0  0  0  0  0  0  0  0  0
   42.4510   27.0340   33.2490 C   0  0  0  0  0  0  0  0  0  0  0  0
   41.2900   27.6030   33.6210 N   0  0  0  0  0  0  0  0  0  0  0  0
   37.8440   25.0120   34.4370 S   0  0  0  0  0  0  0  0  0  0  0  0
   38.4180   23.6620   38.2440 C   0  0  0  0  0  0  0  0  0  0  0  0
   37.8820   24.3040   37.1250 C   0  0  0  0  0  0  0  0  0  0  0  0
   38.5000   24.2080   35.8810 C   0  0  0  0  0  0  0  0  0  0  0  0
   39.6330   23.4660   35.8220 N   0  0  0  0  0  0  0  0  0  0  0  0
   40.1490   22.8500   36.8910 C   0  0  0  0  0  0  0  0  0  0  0  0
   39.5660   22.9320   38.0990 N   0  0  0  0  0  0  0  0  0  0  0  0
   41.3740   22.0800   36.7000 C   0  0  0  0  0  0  0  0  0  0  0  0
   41.6720   21.0400   37.5560 C   0  0  0  0  0  0  0  0  0  0  0  0
   42.8430   20.3460   37.3300 C   0  0  0  0  0  0  0  0  0  0  0  0
   43.6470   20.7210   36.2750 C   0  0  0  0  0  0  0  0  0  0  0  0
   43.3490   21.7750   35.4060 C   0  0  0  0  0  0  0  0  0  0  0  0
   42.1980   22.4020   35.6850 N   0  0  0  0  0  0  0  0  0  0  0  0
   37.0740   27.7025   35.8963 H   0  0  0  0  0  0  0  0  0  0  0  0
   37.3010   28.6884   34.4120 H   0  0  0  0  0  0  0  0  0  0  0  0
   36.1374   27.3199   34.4120 H   0  0  0  0  0  0  0  0  0  0  0  0
   39.4810   27.9485   33.1091 H   0  0  0  0  0  0  0  0  0  0  0  0
   39.0673   26.3390   32.4271 H   0  0  0  0  0  0  0  0  0  0  0  0
   37.8452   27.6555   32.4271 H   0  0  0  0  0  0  0  0  0  0  0  0
   39.3507   28.0315   35.6664 H   0  0  0  0  0  0  0  0  0  0  0  0
   39.3756   26.2717   36.0943 H   0  0  0  0  0  0  0  0  0  0  0  0
   43.1709   27.4168   32.5106 H   0  0  0  0  0  0  0  0  0  0  0  0
   37.9257   23.7420   39.2244 H   0  0  0  0  0  0  0  0  0  0  0  0
   36.9590   24.8935   37.2281 H   0  0  0  0  0  0  0  0  0  0  0  0
   41.0018   20.7742   38.3868 H   0  0  0  0  0  0  0  0  0  0  0  0
   43.1302   19.5072   37.9811 H   0  0  0  0  0  0  0  0  0  0  0  0
   44.5771   20.1583   36.1070 H   0  0  0  0  0  0  0  0  0  0  0  0
   44.0009   22.0637   34.5684 H   0  0  0  0  0  0  0  0  0  0  0  0
  1 10  1  0
  1  2  1  0
  1  4  1  0
  3  1  1  0
  5  6  2  0
  5  4  1  0
  7  6  1  0
  8  9  2  0
  8  7  1  0
  9  5  1  0
 10 13  1  0
 12 11  2  0
 13 12  1  0
 14 13  2  0
 14 15  1  0
 15 16  2  0
 16 11  1  0
 17 15  1  0
 17 18  2  0
 19 18  1  0
 20 19  2  0
 21 22  2  0
 21 20  1  0
 22 17  1  0
  2 23  1  0
  2 24  1  0
  2 25  1  0
  3 26  1  0
  3 27  1  0
  3 28  1  0
  4 29  1  0
  4 30  1  0
  8 31  1  0
 11 32  1  0
 12 33  1  0
 18 34  1  0
 19 35  1  0
 20 36  1  0
 21 37  1  0
M  ISO  8  23   8  24   8  25   8  26   8  27   8  28   8  29   8  30   8
M  ISO  7  31  14  32  14  33  14  34  14  35  14  36  14  37  14
M  END
>  <minimizedAffinity>  (1) 
-4.89695406

>  <minimizedRMSD>  (1) 
1.020293

$$$$
