
     RDKit          3D

 20 21  0  0  0  0  0  0  0  0999 V2000
   38.5960   24.7800   36.3340 C   0  0  0  0  0  0  0  0  0  0  0  0
   39.5990   23.8000   36.2260 C   0  0  0  0  0  0  0  0  0  0  0  0
   39.7990   22.9320   37.3230 C   0  0  0  0  0  0  0  0  0  0  0  0
   38.9990   23.1040   38.4250 N   0  0  0  0  0  0  0  0  0  0  0  0
   38.0570   24.0600   38.4730 C   0  0  0  0  0  0  0  0  0  0  0  0
   37.8570   24.8890   37.4390 N   0  0  0  0  0  0  0  0  0  0  0  0
   40.8520   21.8760   37.2530 C   0  0  0  0  0  0  0  0  0  0  0  0
   38.4040   25.6720   35.1830 C   0  0  0  0  0  0  0  0  0  0  0  0
   37.5660   26.8770   35.2200 C   0  0  0  0  0  0  0  0  0  0  0  0
   39.0420   27.0720   35.4270 C   0  0  0  0  0  0  0  0  0  0  0  0
   40.2093   23.7119   35.3151 H   0  0  0  0  0  0  0  0  0  0  0  0
   37.4387   24.1645   39.3768 H   0  0  0  0  0  0  0  0  0  0  0  0
   41.1450   21.5822   38.2718 H   0  0  0  0  0  0  0  0  0  0  0  0
   40.4575   20.9997   36.7178 H   0  0  0  0  0  0  0  0  0  0  0  0
   41.7294   22.2680   36.7178 H   0  0  0  0  0  0  0  0  0  0  0  0
   38.4268   24.8415   34.4620 H   0  0  0  0  0  0  0  0  0  0  0  0
   37.0975   27.2386   34.2928 H   0  0  0  0  0  0  0  0  0  0  0  0
   36.6748   27.1635   35.7977 H   0  0  0  0  0  0  0  0  0  0  0  0
   39.4351   27.3402   36.4188 H   0  0  0  0  0  0  0  0  0  0  0  0
   39.8358   27.6743   34.9609 H   0  0  0  0  0  0  0  0  0  0  0  0
  1  6  1  0
  2  1  2  0
  2  3  1  0
  3  4  2  0
  4  5  1  0
  6  5  2  0
  7  3  1  0
  8  9  1  0
  8 10  1  0
  8  1  1  0
  9 10  1  0
  2 11  1  0
  5 12  1  0
  7 13  1  0
  7 14  1  0
  7 15  1  0
  8 16  1  0
  9 17  1  0
  9 18  1  0
 10 19  1  0
 10 20  1  0
M  ISO  8  11  14  12  14  13   8  14   8  15   8  16  13  17  13  18  13
M  ISO  2  19  13  20  13
M  END
>  <minimizedAffinity>  (1) 
-3.7170651

>  <minimizedRMSD>  (1) 
4.74319983

$$$$
