
     RDKit          3D

 30 32  0  0  0  0  0  0  0  0999 V2000
   41.0070   22.4540   37.0380 C   0  0  0  0  0  0  0  0  0  0  0  0
   41.8920   23.3960   36.5350 C   0  0  0  0  0  0  0  0  0  0  0  0
   43.2050   22.9920   36.2540 C   0  0  0  0  0  0  0  0  0  0  0  0
   43.5430   21.6880   36.4910 N   0  0  0  0  0  0  0  0  0  0  0  0
   42.6540   20.7990   36.9820 C   0  0  0  0  0  0  0  0  0  0  0  0
   41.3850   21.1870   37.2550 N   0  0  0  0  0  0  0  0  0  0  0  0
   39.6350   22.8740   37.3320 C   0  0  0  0  0  0  0  0  0  0  0  0
   38.6140   22.9040   36.3790 C   0  0  0  0  0  0  0  0  0  0  0  0
   37.5200   23.3550   37.0900 C   0  0  0  0  0  0  0  0  0  0  0  0
   37.8900   23.5770   38.3940 C   0  0  0  0  0  0  0  0  0  0  0  0
   39.1580   23.2730   38.4720 O   0  0  0  0  0  0  0  0  0  0  0  0
   44.2000   23.9580   35.7100 C   0  0  0  0  0  0  0  0  0  0  0  0
   45.0120   24.4860   36.8320 C   0  0  0  0  0  0  0  0  0  0  0  0
   46.3240   24.1020   37.0420 C   0  0  0  0  0  0  0  0  0  0  0  0
   46.9920   24.6550   38.1200 C   0  0  0  0  0  0  0  0  0  0  0  0
   46.4200   25.5640   38.9870 C   0  0  0  0  0  0  0  0  0  0  0  0
   45.1080   25.9300   38.7520 C   0  0  0  0  0  0  0  0  0  0  0  0
   44.4130   25.3940   37.6840 C   0  0  0  0  0  0  0  0  0  0  0  0
   41.5719   24.4339   36.3609 H   0  0  0  0  0  0  0  0  0  0  0  0
   42.9603   19.7578   37.1608 H   0  0  0  0  0  0  0  0  0  0  0  0
   38.6688   22.6326   35.3144 H   0  0  0  0  0  0  0  0  0  0  0  0
   36.5123   23.5117   36.6778 H   0  0  0  0  0  0  0  0  0  0  0  0
   37.2469   23.9386   39.2098 H   0  0  0  0  0  0  0  0  0  0  0  0
   44.8542   23.4481   34.9875 H   0  0  0  0  0  0  0  0  0  0  0  0
   43.6813   24.7840   35.2015 H   0  0  0  0  0  0  0  0  0  0  0  0
   46.8195   23.3815   36.3747 H   0  0  0  0  0  0  0  0  0  0  0  0
   48.0353   24.3540   38.2956 H   0  0  0  0  0  0  0  0  0  0  0  0
   46.9866   25.9812   39.8326 H   0  0  0  0  0  0  0  0  0  0  0  0
   44.6140   26.6521   39.4188 H   0  0  0  0  0  0  0  0  0  0  0  0
   43.3692   25.6944   37.5101 H   0  0  0  0  0  0  0  0  0  0  0  0
  1  6  1  0
  1  7  1  0
  2  1  2  0
  3  4  2  0
  3  2  1  0
  4  5  1  0
  5  6  2  0
  7 11  1  0
  8  9  1  0
  8  7  2  0
  9 10  2  0
 10 11  1  0
 12  3  1  0
 12 13  1  0
 13 14  2  0
 13 18  1  0
 14 15  1  0
 15 16  2  0
 17 16  1  0
 18 17  2  0
  2 19  1  0
  5 20  1  0
  8 21  1  0
  9 22  1  0
 10 23  1  0
 12 24  1  0
 12 25  1  0
 14 26  1  0
 15 27  1  0
 16 28  1  0
 17 29  1  0
 18 30  1  0
M  ISO  8  19  14  20  14  21  14  22  14  23  14  24   8  25   8  26  14
M  ISO  4  27  14  28  14  29  14  30  14
M  END
>  <minimizedAffinity>  (1) 
-5.50894451

>  <minimizedRMSD>  (1) 
0.840636671

$$$$
