
     RDKit          3D

 29 31  0  0  0  0  0  0  0  0999 V2000
   40.9430   22.4770   37.0580 C   0  0  0  0  0  0  0  0  0  0  0  0
   41.8930   23.3710   36.5840 C   0  0  0  0  0  0  0  0  0  0  0  0
   43.1860   22.8640   36.3210 C   0  0  0  0  0  0  0  0  0  0  0  0
   43.4280   21.5320   36.5470 N   0  0  0  0  0  0  0  0  0  0  0  0
   42.4740   20.7040   37.0090 C   0  0  0  0  0  0  0  0  0  0  0  0
   41.2430   21.1910   37.2580 N   0  0  0  0  0  0  0  0  0  0  0  0
   39.5980   22.9880   37.3330 C   0  0  0  0  0  0  0  0  0  0  0  0
   38.6770   23.3380   36.3350 C   0  0  0  0  0  0  0  0  0  0  0  0
   37.5710   23.7580   37.0440 C   0  0  0  0  0  0  0  0  0  0  0  0
   37.8500   23.6540   38.3960 C   0  0  0  0  0  0  0  0  0  0  0  0
   39.0750   23.1890   38.5050 O   0  0  0  0  0  0  0  0  0  0  0  0
   44.2440   23.7720   35.8010 C   0  0  0  0  0  0  0  0  0  0  0  0
   45.1070   24.3480   36.8310 C   0  0  0  0  0  0  0  0  0  0  0  0
   44.5650   25.2920   37.6680 C   0  0  0  0  0  0  0  0  0  0  0  0
   45.2970   25.8950   38.6700 C   0  0  0  0  0  0  0  0  0  0  0  0
   46.6280   25.5220   38.8250 C   0  0  0  0  0  0  0  0  0  0  0  0
   47.1650   24.5720   37.9790 C   0  0  0  0  0  0  0  0  0  0  0  0
   46.3980   24.0320   37.0330 N   0  0  0  0  0  0  0  0  0  0  0  0
   41.6496   24.4311   36.4197 H   0  0  0  0  0  0  0  0  0  0  0  0
   42.6966   19.6407   37.1816 H   0  0  0  0  0  0  0  0  0  0  0  0
   38.8062   23.2891   35.2437 H   0  0  0  0  0  0  0  0  0  0  0  0
   36.6262   24.1154   36.6085 H   0  0  0  0  0  0  0  0  0  0  0  0
   37.1735   23.9121   39.2241 H   0  0  0  0  0  0  0  0  0  0  0  0
   44.8748   23.2011   35.1037 H   0  0  0  0  0  0  0  0  0  0  0  0
   43.7254   24.6143   35.3197 H   0  0  0  0  0  0  0  0  0  0  0  0
   43.5110   25.5773   37.5351 H   0  0  0  0  0  0  0  0  0  0  0  0
   44.8409   26.6495   39.3278 H   0  0  0  0  0  0  0  0  0  0  0  0
   47.2457   25.9786   39.6124 H   0  0  0  0  0  0  0  0  0  0  0  0
   48.2157   24.2641   38.0851 H   0  0  0  0  0  0  0  0  0  0  0  0
  1  6  1  0
  1  7  1  0
  2  1  2  0
  3  4  2  0
  3  2  1  0
  4  5  1  0
  5  6  2  0
  7 11  1  0
  8  9  1  0
  8  7  2  0
  9 10  2  0
 10 11  1  0
 12  3  1  0
 12 13  1  0
 13 18  1  0
 13 14  2  0
 14 15  1  0
 15 16  2  0
 17 16  1  0
 18 17  2  0
  2 19  1  0
  5 20  1  0
  8 21  1  0
  9 22  1  0
 10 23  1  0
 12 24  1  0
 12 25  1  0
 14 26  1  0
 15 27  1  0
 16 28  1  0
 17 29  1  0
M  ISO  8  19  14  20  14  21  14  22  14  23  14  24   8  25   8  26  14
M  ISO  3  27  14  28  14  29  14
M  END
>  <minimizedAffinity>  (1) 
-5.19081831

>  <minimizedRMSD>  (1) 
0.500104666

$$$$
