
     RDKit          3D

 33 35  0  0  0  0  0  0  0  0999 V2000
   41.0050   22.4320   36.9820 C   0  0  0  0  0  0  0  0  0  0  0  0
   41.9410   23.4450   36.7080 C   0  0  0  0  0  0  0  0  0  0  0  0
   43.2630   23.0640   36.4150 C   0  0  0  0  0  0  0  0  0  0  0  0
   43.5490   21.7220   36.4170 N   0  0  0  0  0  0  0  0  0  0  0  0
   42.6150   20.7830   36.6860 C   0  0  0  0  0  0  0  0  0  0  0  0
   41.3450   21.1510   36.9670 N   0  0  0  0  0  0  0  0  0  0  0  0
   39.6410   22.8640   37.2830 C   0  0  0  0  0  0  0  0  0  0  0  0
   38.6000   22.9390   36.3720 C   0  0  0  0  0  0  0  0  0  0  0  0
   37.5270   23.3880   37.0960 C   0  0  0  0  0  0  0  0  0  0  0  0
   37.9320   23.5700   38.3940 C   0  0  0  0  0  0  0  0  0  0  0  0
   39.2070   23.2460   38.4680 O   0  0  0  0  0  0  0  0  0  0  0  0
   44.2960   24.0850   36.1190 C   0  0  0  0  0  0  0  0  0  0  0  0
   45.0010   24.3920   37.4010 C   0  0  0  0  0  0  0  0  0  0  0  0
   44.8200   25.8300   37.8660 C   0  0  0  0  0  0  0  0  0  0  0  0
   45.7880   25.8340   39.0500 C   0  0  0  0  0  0  0  0  0  0  0  0
   46.9330   24.9770   38.5750 C   0  0  0  0  0  0  0  0  0  0  0  0
   46.5200   24.3910   37.2320 C   0  0  0  0  0  0  0  0  0  0  0  0
   41.6478   24.5051   36.7224 H   0  0  0  0  0  0  0  0  0  0  0  0
   42.8887   19.7176   36.6763 H   0  0  0  0  0  0  0  0  0  0  0  0
   38.6287   22.6918   35.3005 H   0  0  0  0  0  0  0  0  0  0  0  0
   36.5156   23.5709   36.7042 H   0  0  0  0  0  0  0  0  0  0  0  0
   37.3041   23.9235   39.2251 H   0  0  0  0  0  0  0  0  0  0  0  0
   45.0114   23.6932   35.3810 H   0  0  0  0  0  0  0  0  0  0  0  0
   43.8364   24.9929   35.7013 H   0  0  0  0  0  0  0  0  0  0  0  0
   44.5868   23.6334   38.0815 H   0  0  0  0  0  0  0  0  0  0  0  0
   45.1159   26.5525   37.0911 H   0  0  0  0  0  0  0  0  0  0  0  0
   43.7859   26.1190   38.1048 H   0  0  0  0  0  0  0  0  0  0  0  0
   46.1290   26.8553   39.2750 H   0  0  0  0  0  0  0  0  0  0  0  0
   45.3302   25.4596   39.9775 H   0  0  0  0  0  0  0  0  0  0  0  0
   47.8399   25.5885   38.4580 H   0  0  0  0  0  0  0  0  0  0  0  0
   47.1556   24.1804   39.3002 H   0  0  0  0  0  0  0  0  0  0  0  0
   46.9148   23.3740   37.0911 H   0  0  0  0  0  0  0  0  0  0  0  0
   46.8898   24.9390   36.3528 H   0  0  0  0  0  0  0  0  0  0  0  0
  1  7  1  0
  2  1  2  0
  3  4  2  0
  3  2  1  0
  4  5  1  0
  5  6  2  0
  6  1  1  0
  7 11  1  0
  8  9  1  0
  8  7  2  0
  9 10  2  0
 10 11  1  0
 12  3  1  0
 12 13  1  0
 13 14  1  0
 14 15  1  0
 16 15  1  0
 17 13  1  0
 17 16  1  0
  2 18  1  0
  5 19  1  0
  8 20  1  0
  9 21  1  0
 10 22  1  0
 12 23  1  0
 12 24  1  0
 13 25  1  0
 14 26  1  0
 14 27  1  0
 15 28  1  0
 15 29  1  0
 16 30  1  0
 16 31  1  0
 17 32  1  0
 17 33  1  0
M  ISO  8  18  14  19  14  20  14  21  14  22  14  23   8  24   8  25  13
M  ISO  8  26  13  27  13  28  13  29  13  30  13  31  13  32  13  33  13
M  END
>  <minimizedAffinity>  (1) 
-5.16251707

>  <minimizedRMSD>  (1) 
0.866193056

$$$$
