
     RDKit          3D

 25 27  0  0  0  0  0  0  0  0999 V2000
   41.0590   22.4920   37.0190 C   0  0  0  0  0  0  0  0  0  0  0  0
   41.9470   23.5240   36.6980 C   0  0  0  0  0  0  0  0  0  0  0  0
   43.2870   23.1930   36.4260 C   0  0  0  0  0  0  0  0  0  0  0  0
   43.6460   21.8680   36.4930 N   0  0  0  0  0  0  0  0  0  0  0  0
   42.7610   20.9020   36.8050 C   0  0  0  0  0  0  0  0  0  0  0  0
   41.4770   21.2340   37.0640 N   0  0  0  0  0  0  0  0  0  0  0  0
   39.6780   22.8560   37.2960 C   0  0  0  0  0  0  0  0  0  0  0  0
   38.6490   22.8520   36.3700 C   0  0  0  0  0  0  0  0  0  0  0  0
   37.5430   23.2600   37.0740 C   0  0  0  0  0  0  0  0  0  0  0  0
   37.9150   23.4970   38.3770 C   0  0  0  0  0  0  0  0  0  0  0  0
   39.2020   23.2400   38.4570 O   0  0  0  0  0  0  0  0  0  0  0  0
   44.2750   24.2530   36.0780 C   0  0  0  0  0  0  0  0  0  0  0  0
   44.9590   24.7800   37.2810 C   0  0  0  0  0  0  0  0  0  0  0  0
   44.6150   25.5680   38.3140 N   0  0  0  0  0  0  0  0  0  0  0  0
   45.6290   25.7170   39.1120 O   0  0  0  0  0  0  0  0  0  0  0  0
   46.6610   25.0390   38.6360 C   0  0  0  0  0  0  0  0  0  0  0  0
   46.2430   24.4510   37.4870 N   0  0  0  0  0  0  0  0  0  0  0  0
   41.6058   24.5690   36.6592 H   0  0  0  0  0  0  0  0  0  0  0  0
   43.0810   19.8505   36.8487 H   0  0  0  0  0  0  0  0  0  0  0  0
   38.7050   22.5816   35.3052 H   0  0  0  0  0  0  0  0  0  0  0  0
   36.5289   23.3777   36.6645 H   0  0  0  0  0  0  0  0  0  0  0  0
   37.2617   23.8361   39.1944 H   0  0  0  0  0  0  0  0  0  0  0  0
   45.0276   23.8291   35.3969 H   0  0  0  0  0  0  0  0  0  0  0  0
   43.7338   25.0828   35.6000 H   0  0  0  0  0  0  0  0  0  0  0  0
   47.6627   24.9663   39.0846 H   0  0  0  0  0  0  0  0  0  0  0  0
  1  6  1  0
  1  7  1  0
  2  1  2  0
  3  4  2  0
  3  2  1  0
  4  5  1  0
  5  6  2  0
  7 11  1  0
  8  9  1  0
  8  7  2  0
  9 10  2  0
 10 11  1  0
 12  3  1  0
 12 13  1  0
 13 17  1  0
 13 14  2  0
 14 15  1  0
 16 15  1  0
 17 16  2  0
  2 18  1  0
  5 19  1  0
  8 20  1  0
  9 21  1  0
 10 22  1  0
 12 23  1  0
 12 24  1  0
 16 25  1  0
M  ISO  8  18  14  19  14  20  14  21  14  22  14  23   8  24   8  25  14
M  END
>  <minimizedAffinity>  (1) 
-4.62381649

>  <minimizedRMSD>  (1) 
0.881016433

$$$$
