
     RDKit          3D

 40 41  0  0  0  0  0  0  0  0999 V2000
   38.3080   26.5700   34.4080 C   0  0  0  0  0  0  0  0  0  0  0  0
   37.1660   27.3770   34.9340 C   0  0  0  0  0  0  0  0  0  0  0  0
   38.6860   27.1110   33.0390 C   0  0  0  0  0  0  0  0  0  0  0  0
   39.5290   26.8920   35.2770 C   0  0  0  0  0  0  0  0  0  0  0  0
   40.8010   26.8150   34.4790 C   0  0  0  0  0  0  0  0  0  0  0  0
   41.7010   25.8270   34.6190 N   0  0  0  0  0  0  0  0  0  0  0  0
   42.6860   26.0470   33.7880 O   0  0  0  0  0  0  0  0  0  0  0  0
   42.4780   27.1360   33.1070 C   0  0  0  0  0  0  0  0  0  0  0  0
   41.2950   27.6270   33.5320 N   0  0  0  0  0  0  0  0  0  0  0  0
   38.0940   24.8080   34.4390 S   0  0  0  0  0  0  0  0  0  0  0  0
   38.7800   23.3720   38.1910 C   0  0  0  0  0  0  0  0  0  0  0  0
   38.1830   24.0150   37.0830 C   0  0  0  0  0  0  0  0  0  0  0  0
   38.8150   24.0100   35.8560 C   0  0  0  0  0  0  0  0  0  0  0  0
   40.0150   23.3670   35.7760 N   0  0  0  0  0  0  0  0  0  0  0  0
   40.5710   22.7630   36.8250 C   0  0  0  0  0  0  0  0  0  0  0  0
   39.9720   22.7550   38.0380 N   0  0  0  0  0  0  0  0  0  0  0  0
   41.8880   22.1020   36.5820 C   0  0  0  0  0  0  0  0  0  0  0  0
   43.0360   23.0680   36.6660 C   0  0  0  0  0  0  0  0  0  0  0  0
   41.9310   21.4930   35.1820 C   0  0  0  0  0  0  0  0  0  0  0  0
   42.1330   20.9560   37.5450 C   0  0  0  0  0  0  0  0  0  0  0  0
   37.1839   27.3643   36.0338 H   0  0  0  0  0  0  0  0  0  0  0  0
   37.2550   28.4139   34.5777 H   0  0  0  0  0  0  0  0  0  0  0  0
   36.2183   26.9469   34.5777 H   0  0  0  0  0  0  0  0  0  0  0  0
   39.3123   28.0073   33.1591 H   0  0  0  0  0  0  0  0  0  0  0  0
   39.2459   26.3442   32.4835 H   0  0  0  0  0  0  0  0  0  0  0  0
   37.7734   27.3730   32.4835 H   0  0  0  0  0  0  0  0  0  0  0  0
   39.4217   27.9084   35.6837 H   0  0  0  0  0  0  0  0  0  0  0  0
   39.5826   26.1523   36.0894 H   0  0  0  0  0  0  0  0  0  0  0  0
   43.1349   27.5696   32.3386 H   0  0  0  0  0  0  0  0  0  0  0  0
   38.2782   23.3739   39.1699 H   0  0  0  0  0  0  0  0  0  0  0  0
   37.2128   24.5204   37.1988 H   0  0  0  0  0  0  0  0  0  0  0  0
   43.2718   23.2664   37.7220 H   0  0  0  0  0  0  0  0  0  0  0  0
   43.9166   22.6352   36.1688 H   0  0  0  0  0  0  0  0  0  0  0  0
   42.7600   24.0096   36.1688 H   0  0  0  0  0  0  0  0  0  0  0  0
   42.0083   20.3985   35.2605 H   0  0  0  0  0  0  0  0  0  0  0  0
   41.0119   21.7577   34.6386 H   0  0  0  0  0  0  0  0  0  0  0  0
   42.8038   21.8842   34.6386 H   0  0  0  0  0  0  0  0  0  0  0  0
   42.0546   21.3229   38.5791 H   0  0  0  0  0  0  0  0  0  0  0  0
   41.3828   20.1693   37.3772 H   0  0  0  0  0  0  0  0  0  0  0  0
   43.1394   20.5448   37.3772 H   0  0  0  0  0  0  0  0  0  0  0  0
  1 10  1  0
  1  2  1  0
  1  4  1  0
  3  1  1  0
  5  6  2  0
  5  4  1  0
  7  6  1  0
  8  9  2  0
  8  7  1  0
  9  5  1  0
 10 13  1  0
 12 11  2  0
 13 12  1  0
 14 13  2  0
 14 15  1  0
 15 16  2  0
 16 11  1  0
 17 18  1  0
 17 15  1  0
 17 20  1  0
 19 17  1  0
  2 21  1  0
  2 22  1  0
  2 23  1  0
  3 24  1  0
  3 25  1  0
  3 26  1  0
  4 27  1  0
  4 28  1  0
  8 29  1  0
 11 30  1  0
 12 31  1  0
 18 32  1  0
 18 33  1  0
 18 34  1  0
 19 35  1  0
 19 36  1  0
 19 37  1  0
 20 38  1  0
 20 39  1  0
 20 40  1  0
M  ISO  8  21   8  22   8  23   8  24   8  25   8  26   8  27   8  28   8
M  ISO  8  29  14  30  14  31  14  32   8  33   8  34   8  35   8  36   8
M  ISO  4  37   8  38   8  39   8  40   8
M  END
>  <minimizedAffinity>  (1) 
-4.73013401

>  <minimizedRMSD>  (1) 
0.943472803

$$$$
