
     RDKit          3D

 35 37  0  0  0  0  0  0  0  0999 V2000
   38.3390   26.7270   34.2630 C   0  0  0  0  0  0  0  0  0  0  0  0
   37.2820   27.6100   34.8570 C   0  0  0  0  0  0  0  0  0  0  0  0
   38.6620   27.2460   32.8810 C   0  0  0  0  0  0  0  0  0  0  0  0
   39.6330   26.9690   35.0700 C   0  0  0  0  0  0  0  0  0  0  0  0
   40.8400   26.7550   34.2150 C   0  0  0  0  0  0  0  0  0  0  0  0
   41.4940   25.5780   34.1220 N   0  0  0  0  0  0  0  0  0  0  0  0
   42.4850   25.7390   33.3010 O   0  0  0  0  0  0  0  0  0  0  0  0
   42.5310   26.9560   32.8410 C   0  0  0  0  0  0  0  0  0  0  0  0
   41.5010   27.5990   33.4100 N   0  0  0  0  0  0  0  0  0  0  0  0
   38.0120   24.9720   34.3170 S   0  0  0  0  0  0  0  0  0  0  0  0
   38.3880   23.7610   38.1970 C   0  0  0  0  0  0  0  0  0  0  0  0
   37.9400   24.4060   37.0210 C   0  0  0  0  0  0  0  0  0  0  0  0
   38.5680   24.1670   35.7980 C   0  0  0  0  0  0  0  0  0  0  0  0
   39.6060   23.3000   35.8140 N   0  0  0  0  0  0  0  0  0  0  0  0
   40.0220   22.6970   36.9240 C   0  0  0  0  0  0  0  0  0  0  0  0
   39.4400   22.9060   38.1090 N   0  0  0  0  0  0  0  0  0  0  0  0
   41.1460   21.7620   36.9260 C   0  0  0  0  0  0  0  0  0  0  0  0
   41.9940   21.4240   35.8820 C   0  0  0  0  0  0  0  0  0  0  0  0
   42.9130   20.5040   36.3260 C   0  0  0  0  0  0  0  0  0  0  0  0
   42.6010   20.3020   37.6360 N   0  0  0  0  0  0  0  0  0  0  0  0
   41.5570   21.0460   37.9860 N   0  0  0  0  0  0  0  0  0  0  0  0
   37.3388   27.5625   35.9545 H   0  0  0  0  0  0  0  0  0  0  0  0
   37.4418   28.6468   34.5261 H   0  0  0  0  0  0  0  0  0  0  0  0
   36.2902   27.2682   34.5261 H   0  0  0  0  0  0  0  0  0  0  0  0
   39.2415   28.1772   32.9652 H   0  0  0  0  0  0  0  0  0  0  0  0
   39.2523   26.4947   32.3359 H   0  0  0  0  0  0  0  0  0  0  0  0
   37.7273   27.4439   32.3359 H   0  0  0  0  0  0  0  0  0  0  0  0
   39.6358   28.0030   35.4454 H   0  0  0  0  0  0  0  0  0  0  0  0
   39.6640   26.2571   35.9080 H   0  0  0  0  0  0  0  0  0  0  0  0
   43.2630   27.3708   32.1325 H   0  0  0  0  0  0  0  0  0  0  0  0
   37.8951   23.9476   39.1625 H   0  0  0  0  0  0  0  0  0  0  0  0
   37.0895   25.1018   37.0707 H   0  0  0  0  0  0  0  0  0  0  0  0
   41.9396   21.8283   34.8604 H   0  0  0  0  0  0  0  0  0  0  0  0
   43.7232   20.0337   35.7495 H   0  0  0  0  0  0  0  0  0  0  0  0
   43.1038   19.6621   38.2673 H   0  0  0  0  0  0  0  0  0  0  0  0
  1 10  1  0
  1  2  1  0
  1  4  1  0
  3  1  1  0
  5  4  1  0
  6  5  2  0
  7  6  1  0
  8  7  1  0
  8  9  2  0
  9  5  1  0
 10 13  1  0
 12 11  2  0
 13 14  2  0
 13 12  1  0
 14 15  1  0
 15 17  1  0
 15 16  2  0
 16 11  1  0
 17 21  2  0
 18 19  2  0
 18 17  1  0
 19 20  1  0
 20 21  1  0
  2 22  1  0
  2 23  1  0
  2 24  1  0
  3 25  1  0
  3 26  1  0
  3 27  1  0
  4 28  1  0
  4 29  1  0
  8 30  1  0
 11 31  1  0
 12 32  1  0
 18 33  1  0
 19 34  1  0
 20 35  1  0
M  ISO  8  22   8  23   8  24   8  25   8  26   8  27   8  28   8  29   8
M  ISO  6  30  14  31  14  32  14  33  14  34  14  35   9
M  END
>  <minimizedAffinity>  (1) 
-4.71281624

>  <minimizedRMSD>  (1) 
0.837727368

$$$$
