
     RDKit          3D

 38 42  0  0  0  0  0  0  0  0999 V2000
   44.4750   23.9780   36.0220 C   0  0  0  0  0  0  0  0  0  0  0  0
   41.1970   22.3680   37.0380 C   0  0  0  0  0  0  0  0  0  0  0  0
   42.1240   23.3520   36.6830 C   0  0  0  0  0  0  0  0  0  0  0  0
   43.4460   22.9580   36.4090 C   0  0  0  0  0  0  0  0  0  0  0  0
   43.7430   21.6130   36.5110 N   0  0  0  0  0  0  0  0  0  0  0  0
   42.8270   20.6910   36.8560 C   0  0  0  0  0  0  0  0  0  0  0  0
   41.5720   21.0990   37.1120 N   0  0  0  0  0  0  0  0  0  0  0  0
   39.8330   22.8040   37.3180 C   0  0  0  0  0  0  0  0  0  0  0  0
   38.8150   22.8690   36.3710 C   0  0  0  0  0  0  0  0  0  0  0  0
   37.7300   23.3270   37.0840 C   0  0  0  0  0  0  0  0  0  0  0  0
   38.1110   23.5170   38.3990 C   0  0  0  0  0  0  0  0  0  0  0  0
   39.3920   23.1890   38.4940 O   0  0  0  0  0  0  0  0  0  0  0  0
   44.9020   24.7620   37.1580 N   0  0  0  0  0  0  0  0  0  0  0  0
   44.2550   25.6140   37.9200 N   0  0  0  0  0  0  0  0  0  0  0  0
   44.9980   26.1390   38.8760 C   0  0  0  0  0  0  0  0  0  0  0  0
   46.2760   25.5850   38.7440 C   0  0  0  0  0  0  0  0  0  0  0  0
   46.1520   24.7280   37.6480 C   0  0  0  0  0  0  0  0  0  0  0  0
   47.3170   23.9830   37.2350 N   0  0  0  0  0  0  0  0  0  0  0  0
   47.6800   23.4430   36.0630 C   0  0  0  0  0  0  0  0  0  0  0  0
   48.8760   22.8420   36.2000 N   0  0  0  0  0  0  0  0  0  0  0  0
   49.3080   22.9830   37.4660 C   0  0  0  0  0  0  0  0  0  0  0  0
   50.4340   22.5850   38.1600 C   0  0  0  0  0  0  0  0  0  0  0  0
   50.5570   22.9040   39.4650 N   0  0  0  0  0  0  0  0  0  0  0  0
   49.5840   23.6090   40.0850 C   0  0  0  0  0  0  0  0  0  0  0  0
   48.4930   23.9980   39.4200 N   0  0  0  0  0  0  0  0  0  0  0  0
   48.3150   23.7110   38.1270 C   0  0  0  0  0  0  0  0  0  0  0  0
   45.3479   23.4607   35.5972 H   0  0  0  0  0  0  0  0  0  0  0  0
   44.0238   24.6586   35.2850 H   0  0  0  0  0  0  0  0  0  0  0  0
   41.8267   24.4092   36.6194 H   0  0  0  0  0  0  0  0  0  0  0  0
   43.0984   19.6274   36.9271 H   0  0  0  0  0  0  0  0  0  0  0  0
   38.8656   22.6139   35.3022 H   0  0  0  0  0  0  0  0  0  0  0  0
   36.7257   23.5113   36.6748 H   0  0  0  0  0  0  0  0  0  0  0  0
   37.4687   23.8749   39.2171 H   0  0  0  0  0  0  0  0  0  0  0  0
   44.6749   26.8709   39.6309 H   0  0  0  0  0  0  0  0  0  0  0  0
   47.1678   25.7786   39.3582 H   0  0  0  0  0  0  0  0  0  0  0  0
   47.0919   23.4847   35.1343 H   0  0  0  0  0  0  0  0  0  0  0  0
   51.2243   22.0124   37.6525 H   0  0  0  0  0  0  0  0  0  0  0  0
   49.6922   23.8651   41.1493 H   0  0  0  0  0  0  0  0  0  0  0  0
  1  4  1  0
  1 13  1  0
  2  7  1  0
  2  8  1  0
  3  2  2  0
  4  5  2  0
  4  3  1  0
  5  6  1  0
  6  7  2  0
  8 12  1  0
  9 10  1  0
  9  8  2  0
 10 11  2  0
 11 12  1  0
 13 17  1  0
 13 14  1  0
 14 15  2  0
 16 15  1  0
 17 16  2  0
 18 17  1  0
 18 26  1  0
 19 20  2  0
 19 18  1  0
 20 21  1  0
 21 26  2  0
 21 22  1  0
 22 23  2  0
 23 24  1  0
 25 24  2  0
 26 25  1  0
  1 27  1  0
  1 28  1  0
  3 29  1  0
  6 30  1  0
  9 31  1  0
 10 32  1  0
 11 33  1  0
 15 34  1  0
 16 35  1  0
 19 36  1  0
 22 37  1  0
 24 38  1  0
M  ISO  8  27   8  28   8  29  14  30  14  31  14  32  14  33  14  34  14
M  ISO  4  35  14  36  14  37  14  38  14
M  END
>  <minimizedAffinity>  (1) 
-5.36985779

>  <minimizedRMSD>  (1) 
0.884246111

$$$$
