
     RDKit          3D

 35 38  0  0  0  0  0  0  0  0999 V2000
   44.2830   24.1940   35.9920 C   0  0  0  0  0  0  0  0  0  0  0  0
   41.0830   22.4380   37.0120 C   0  0  0  0  0  0  0  0  0  0  0  0
   41.9820   23.4300   36.6540 C   0  0  0  0  0  0  0  0  0  0  0  0
   43.3180   23.1220   36.3790 C   0  0  0  0  0  0  0  0  0  0  0  0
   43.6480   21.8010   36.4910 N   0  0  0  0  0  0  0  0  0  0  0  0
   42.7680   20.8420   36.8400 C   0  0  0  0  0  0  0  0  0  0  0  0
   41.4990   21.2020   37.0910 N   0  0  0  0  0  0  0  0  0  0  0  0
   39.7000   22.8350   37.2830 C   0  0  0  0  0  0  0  0  0  0  0  0
   38.6810   22.8540   36.3450 C   0  0  0  0  0  0  0  0  0  0  0  0
   37.5840   23.2860   37.0460 C   0  0  0  0  0  0  0  0  0  0  0  0
   37.9520   23.5120   38.3560 C   0  0  0  0  0  0  0  0  0  0  0  0
   39.2350   23.2250   38.4420 O   0  0  0  0  0  0  0  0  0  0  0  0
   44.9360   24.7540   37.1420 N   0  0  0  0  0  0  0  0  0  0  0  0
   44.4840   25.6330   38.0320 N   0  0  0  0  0  0  0  0  0  0  0  0
   45.3950   25.9210   38.9540 C   0  0  0  0  0  0  0  0  0  0  0  0
   46.5410   25.2050   38.6890 C   0  0  0  0  0  0  0  0  0  0  0  0
   46.2030   24.4840   37.5400 C   0  0  0  0  0  0  0  0  0  0  0  0
   47.1730   23.5800   36.9300 C   0  0  0  0  0  0  0  0  0  0  0  0
   48.4120   23.3290   37.4760 C   0  0  0  0  0  0  0  0  0  0  0  0
   49.3680   22.4980   36.9660 C   0  0  0  0  0  0  0  0  0  0  0  0
   49.0930   21.8550   35.8180 N   0  0  0  0  0  0  0  0  0  0  0  0
   47.8890   22.0650   35.2360 C   0  0  0  0  0  0  0  0  0  0  0  0
   46.9920   22.8940   35.7910 N   0  0  0  0  0  0  0  0  0  0  0  0
   45.0434   23.7658   35.3223 H   0  0  0  0  0  0  0  0  0  0  0  0
   43.7241   24.9960   35.4876 H   0  0  0  0  0  0  0  0  0  0  0  0
   41.6402   24.4733   36.5853 H   0  0  0  0  0  0  0  0  0  0  0  0
   43.0814   19.7904   36.9173 H   0  0  0  0  0  0  0  0  0  0  0  0
   38.7384   22.5841   35.2802 H   0  0  0  0  0  0  0  0  0  0  0  0
   36.5753   23.4289   36.6311 H   0  0  0  0  0  0  0  0  0  0  0  0
   37.3011   23.8634   39.1702 H   0  0  0  0  0  0  0  0  0  0  0  0
   45.2567   26.6184   39.7933 H   0  0  0  0  0  0  0  0  0  0  0  0
   47.4900   25.2013   39.2452 H   0  0  0  0  0  0  0  0  0  0  0  0
   48.6553   23.8486   38.4145 H   0  0  0  0  0  0  0  0  0  0  0  0
   50.3317   22.3593   37.4779 H   0  0  0  0  0  0  0  0  0  0  0  0
   47.6430   21.5494   34.2960 H   0  0  0  0  0  0  0  0  0  0  0  0
  1  4  1  0
  1 13  1  0
  2  7  1  0
  2  8  1  0
  3  2  2  0
  4  5  2  0
  4  3  1  0
  5  6  1  0
  6  7  2  0
  8 12  1  0
  9 10  1  0
  9  8  2  0
 10 11  2  0
 11 12  1  0
 13 17  1  0
 13 14  1  0
 14 15  2  0
 16 15  1  0
 17 16  2  0
 18 19  2  0
 18 17  1  0
 20 19  1  0
 21 20  2  0
 22 23  2  0
 22 21  1  0
 23 18  1  0
  1 24  1  0
  1 25  1  0
  3 26  1  0
  6 27  1  0
  9 28  1  0
 10 29  1  0
 11 30  1  0
 15 31  1  0
 16 32  1  0
 19 33  1  0
 20 34  1  0
 22 35  1  0
M  ISO  8  24   8  25   8  26  14  27  14  28  14  29  14  30  14  31  14
M  ISO  4  32  14  33  14  34  14  35  14
M  END
>  <minimizedAffinity>  (1) 
-4.98697138

>  <minimizedRMSD>  (1) 
0.271194756

$$$$
