
     RDKit          3D

 39 41  0  0  0  0  0  0  0  0999 V2000
   41.0640   22.4620   37.0400 C   0  0  0  0  0  0  0  0  0  0  0  0
   42.0030   23.4100   36.6350 C   0  0  0  0  0  0  0  0  0  0  0  0
   43.3290   22.9870   36.3790 C   0  0  0  0  0  0  0  0  0  0  0  0
   43.5870   21.6560   36.5540 N   0  0  0  0  0  0  0  0  0  0  0  0
   42.6670   20.7590   36.9470 C   0  0  0  0  0  0  0  0  0  0  0  0
   41.4170   21.1990   37.1800 N   0  0  0  0  0  0  0  0  0  0  0  0
   39.7020   22.9340   37.2960 C   0  0  0  0  0  0  0  0  0  0  0  0
   38.7360   23.1370   36.3400 C   0  0  0  0  0  0  0  0  0  0  0  0
   37.6380   23.5730   37.0370 C   0  0  0  0  0  0  0  0  0  0  0  0
   37.9680   23.6220   38.3920 C   0  0  0  0  0  0  0  0  0  0  0  0
   39.2200   23.2270   38.4920 O   0  0  0  0  0  0  0  0  0  0  0  0
   44.3450   23.9850   35.9450 C   0  0  0  0  0  0  0  0  0  0  0  0
   44.9690   24.6420   37.0770 N   0  0  0  0  0  0  0  0  0  0  0  0
   44.4400   25.4140   38.0170 N   0  0  0  0  0  0  0  0  0  0  0  0
   45.3230   25.8370   38.8970 C   0  0  0  0  0  0  0  0  0  0  0  0
   46.5370   25.3100   38.5210 C   0  0  0  0  0  0  0  0  0  0  0  0
   46.2940   24.5530   37.3630 C   0  0  0  0  0  0  0  0  0  0  0  0
   47.3930   23.8240   36.6570 C   0  0  0  0  0  0  0  0  0  0  0  0
   48.6600   23.7300   37.5220 C   0  0  0  0  0  0  0  0  0  0  0  0
   47.0570   22.3780   36.3850 C   0  0  0  0  0  0  0  0  0  0  0  0
   47.8130   24.5510   35.3940 C   0  0  0  0  0  0  0  0  0  0  0  0
   41.7186   24.4660   36.5168 H   0  0  0  0  0  0  0  0  0  0  0  0
   42.9277   19.6979   37.0743 H   0  0  0  0  0  0  0  0  0  0  0  0
   38.8239   22.9836   35.2543 H   0  0  0  0  0  0  0  0  0  0  0  0
   36.6633   23.8388   36.6019 H   0  0  0  0  0  0  0  0  0  0  0  0
   37.3094   23.9309   39.2171 H   0  0  0  0  0  0  0  0  0  0  0  0
   45.1212   23.4716   35.3585 H   0  0  0  0  0  0  0  0  0  0  0  0
   43.8369   24.7513   35.3411 H   0  0  0  0  0  0  0  0  0  0  0  0
   45.1282   26.4854   39.7640 H   0  0  0  0  0  0  0  0  0  0  0  0
   47.5038   25.4528   39.0259 H   0  0  0  0  0  0  0  0  0  0  0  0
   48.3802   23.7508   38.5856 H   0  0  0  0  0  0  0  0  0  0  0  0
   49.1868   22.7903   37.2997 H   0  0  0  0  0  0  0  0  0  0  0  0
   49.3197   24.5817   37.2997 H   0  0  0  0  0  0  0  0  0  0  0  0
   46.9331   21.8446   37.3390 H   0  0  0  0  0  0  0  0  0  0  0  0
   46.1217   22.3210   35.8089 H   0  0  0  0  0  0  0  0  0  0  0  0
   47.8714   21.9144   35.8089 H   0  0  0  0  0  0  0  0  0  0  0  0
   48.3466   25.4746   35.6628 H   0  0  0  0  0  0  0  0  0  0  0  0
   48.4762   23.9036   34.8016 H   0  0  0  0  0  0  0  0  0  0  0  0
   46.9208   24.8021   34.8016 H   0  0  0  0  0  0  0  0  0  0  0  0
  1  6  1  0
  1  7  1  0
  2  1  2  0
  3  4  2  0
  3  2  1  0
  4  5  1  0
  5  6  2  0
  7 11  1  0
  8  9  1  0
  8  7  2  0
  9 10  2  0
 10 11  1  0
 12  3  1  0
 12 13  1  0
 13 17  1  0
 13 14  1  0
 14 15  2  0
 16 15  1  0
 17 16  2  0
 18 17  1  0
 18 19  1  0
 20 18  1  0
 21 18  1  0
  2 22  1  0
  5 23  1  0
  8 24  1  0
  9 25  1  0
 10 26  1  0
 12 27  1  0
 12 28  1  0
 15 29  1  0
 16 30  1  0
 19 31  1  0
 19 32  1  0
 19 33  1  0
 20 34  1  0
 20 35  1  0
 20 36  1  0
 21 37  1  0
 21 38  1  0
 21 39  1  0
M  ISO  8  22  14  23  14  24  14  25  14  26  14  27   8  28   8  29  14
M  ISO  8  30  14  31   8  32   8  33   8  34   8  35   8  36   8  37   8
M  ISO  2  38   8  39   8
M  END
>  <minimizedAffinity>  (1) 
-5.00687218

>  <minimizedRMSD>  (1) 
0.407435715

$$$$
