
     RDKit          3D

 34 35  0  0  0  0  0  0  0  0999 V2000
   38.2150   26.6310   34.3250 C   0  0  0  0  0  0  0  0  0  0  0  0
   37.0210   27.3940   34.7700 C   0  0  0  0  0  0  0  0  0  0  0  0
   38.6070   27.1310   32.9440 C   0  0  0  0  0  0  0  0  0  0  0  0
   39.3930   27.0500   35.2120 C   0  0  0  0  0  0  0  0  0  0  0  0
   40.7000   26.8330   34.5340 C   0  0  0  0  0  0  0  0  0  0  0  0
   41.5130   25.7740   34.7860 N   0  0  0  0  0  0  0  0  0  0  0  0
   42.5630   25.8890   34.0300 O   0  0  0  0  0  0  0  0  0  0  0  0
   42.5030   26.9560   33.2900 C   0  0  0  0  0  0  0  0  0  0  0  0
   41.3460   27.5510   33.5970 N   0  0  0  0  0  0  0  0  0  0  0  0
   38.0950   24.8660   34.4180 S   0  0  0  0  0  0  0  0  0  0  0  0
   38.0740   23.9350   38.3730 C   0  0  0  0  0  0  0  0  0  0  0  0
   37.7520   24.4810   37.1220 C   0  0  0  0  0  0  0  0  0  0  0  0
   38.5040   24.1750   36.0010 C   0  0  0  0  0  0  0  0  0  0  0  0
   39.5470   23.3350   36.1860 N   0  0  0  0  0  0  0  0  0  0  0  0
   39.8590   22.8130   37.3720 C   0  0  0  0  0  0  0  0  0  0  0  0
   39.1370   23.1010   38.4700 N   0  0  0  0  0  0  0  0  0  0  0  0
   41.0120   21.8830   37.5800 C   0  0  0  0  0  0  0  0  0  0  0  0
   42.1760   22.2060   36.6900 C   0  0  0  0  0  0  0  0  0  0  0  0
   36.9881   27.4150   35.8693 H   0  0  0  0  0  0  0  0  0  0  0  0
   37.0789   28.4228   34.3851 H   0  0  0  0  0  0  0  0  0  0  0  0
   36.1117   26.9092   34.3851 H   0  0  0  0  0  0  0  0  0  0  0  0
   39.2829   27.9931   33.0444 H   0  0  0  0  0  0  0  0  0  0  0  0
   39.1177   26.3267   32.3942 H   0  0  0  0  0  0  0  0  0  0  0  0
   37.7041   27.4350   32.3942 H   0  0  0  0  0  0  0  0  0  0  0  0
   39.2920   28.1176   35.4572 H   0  0  0  0  0  0  0  0  0  0  0  0
   39.3729   26.4318   36.1216 H   0  0  0  0  0  0  0  0  0  0  0  0
   43.2513   27.2991   32.5604 H   0  0  0  0  0  0  0  0  0  0  0  0
   37.4730   24.1800   39.2611 H   0  0  0  0  0  0  0  0  0  0  0  0
   36.8917   25.1604   37.0306 H   0  0  0  0  0  0  0  0  0  0  0  0
   41.3384   21.9541   38.6280 H   0  0  0  0  0  0  0  0  0  0  0  0
   40.6720   20.8668   37.3314 H   0  0  0  0  0  0  0  0  0  0  0  0
   43.0532   22.4494   37.3075 H   0  0  0  0  0  0  0  0  0  0  0  0
   42.4042   21.3372   36.0550 H   0  0  0  0  0  0  0  0  0  0  0  0
   41.9239   23.0681   36.0550 H   0  0  0  0  0  0  0  0  0  0  0  0
  1 10  1  0
  1  2  1  0
  1  4  1  0
  3  1  1  0
  5  6  2  0
  5  4  1  0
  7  6  1  0
  8  9  2  0
  8  7  1  0
  9  5  1  0
 10 13  1  0
 11 16  2  0
 12 11  1  0
 13 14  1  0
 13 12  2  0
 14 15  2  0
 15 17  1  0
 15 16  1  0
 18 17  1  0
  2 19  1  0
  2 20  1  0
  2 21  1  0
  3 22  1  0
  3 23  1  0
  3 24  1  0
  4 25  1  0
  4 26  1  0
  8 27  1  0
 11 28  1  0
 12 29  1  0
 17 30  1  0
 17 31  1  0
 18 32  1  0
 18 33  1  0
 18 34  1  0
M  ISO  8  19   8  20   8  21   8  22   8  23   8  24   8  25   8  26   8
M  ISO  8  27  14  28  14  29  14  30   8  31   8  32   8  33   8  34   8
M  END
>  <minimizedAffinity>  (1) 
-4.66494226

>  <minimizedRMSD>  (1) 
0.303847581

$$$$
