
     RDKit          3D

 29 31  0  0  0  0  0  0  0  0999 V2000
   41.0650   22.4910   36.9990 C   0  0  0  0  0  0  0  0  0  0  0  0
   41.9470   23.5040   36.6460 C   0  0  0  0  0  0  0  0  0  0  0  0
   43.2840   23.1990   36.3680 C   0  0  0  0  0  0  0  0  0  0  0  0
   43.6430   21.8740   36.4670 N   0  0  0  0  0  0  0  0  0  0  0  0
   42.7640   20.9090   36.8120 C   0  0  0  0  0  0  0  0  0  0  0  0
   41.4900   21.2440   37.0710 N   0  0  0  0  0  0  0  0  0  0  0  0
   39.6750   22.8560   37.2820 C   0  0  0  0  0  0  0  0  0  0  0  0
   38.6510   22.8550   36.3410 C   0  0  0  0  0  0  0  0  0  0  0  0
   37.5510   23.2610   37.0650 C   0  0  0  0  0  0  0  0  0  0  0  0
   37.9310   23.4880   38.3780 C   0  0  0  0  0  0  0  0  0  0  0  0
   39.2160   23.2300   38.4520 O   0  0  0  0  0  0  0  0  0  0  0  0
   44.2570   24.2590   35.9880 C   0  0  0  0  0  0  0  0  0  0  0  0
   44.9870   24.7450   37.1420 N   0  0  0  0  0  0  0  0  0  0  0  0
   44.6310   25.5100   38.1470 N   0  0  0  0  0  0  0  0  0  0  0  0
   45.6160   25.7170   39.0010 C   0  0  0  0  0  0  0  0  0  0  0  0
   46.7490   25.0340   38.5450 C   0  0  0  0  0  0  0  0  0  0  0  0
   46.2930   24.4490   37.3850 C   0  0  0  0  0  0  0  0  0  0  0  0
   47.1590   23.6120   36.5420 C   0  0  0  0  0  0  0  0  0  0  0  0
   47.1540   22.3340   36.5900 O   0  0  0  0  0  0  0  0  0  0  0  0
   41.5951   24.5444   36.5850 H   0  0  0  0  0  0  0  0  0  0  0  0
   43.0881   19.8600   36.8801 H   0  0  0  0  0  0  0  0  0  0  0  0
   38.7060   22.5929   35.2741 H   0  0  0  0  0  0  0  0  0  0  0  0
   36.5340   23.3850   36.6646 H   0  0  0  0  0  0  0  0  0  0  0  0
   37.2807   23.8206   39.2005 H   0  0  0  0  0  0  0  0  0  0  0  0
   44.9712   23.8452   35.2609 H   0  0  0  0  0  0  0  0  0  0  0  0
   43.6992   25.1006   35.5516 H   0  0  0  0  0  0  0  0  0  0  0  0
   45.5563   26.3239   39.9165 H   0  0  0  0  0  0  0  0  0  0  0  0
   47.7498   24.9785   38.9982 H   0  0  0  0  0  0  0  0  0  0  0  0
   47.8429   24.1078   35.8374 H   0  0  0  0  0  0  0  0  0  0  0  0
  1  6  1  0
  1  7  1  0
  2  1  2  0
  3  4  2  0
  3  2  1  0
  4  5  1  0
  5  6  2  0
  7 11  1  0
  8  9  1  0
  8  7  2  0
  9 10  2  0
 10 11  1  0
 12  3  1  0
 12 13  1  0
 13 17  1  0
 13 14  1  0
 14 15  2  0
 16 15  1  0
 17 16  2  0
 18 19  2  0
 18 17  1  0
  2 20  1  0
  5 21  1  0
  8 22  1  0
  9 23  1  0
 10 24  1  0
 12 25  1  0
 12 26  1  0
 15 27  1  0
 16 28  1  0
 18 29  1  0
M  ISO  8  20  14  21  14  22  14  23  14  24  14  25   8  26   8  27  14
M  ISO  2  28  14  29   6
M  END
>  <minimizedAffinity>  (1) 
-4.7618618

>  <minimizedRMSD>  (1) 
0.0686925054

$$$$
