
     RDKit          3D

 31 32  0  0  0  0  0  0  0  0999 V2000
   38.2380   26.6140   34.3220 C   0  0  0  0  0  0  0  0  0  0  0  0
   37.0190   27.3530   34.7690 C   0  0  0  0  0  0  0  0  0  0  0  0
   38.6120   27.1040   32.9320 C   0  0  0  0  0  0  0  0  0  0  0  0
   39.4070   27.0460   35.2110 C   0  0  0  0  0  0  0  0  0  0  0  0
   40.7200   26.8210   34.5370 C   0  0  0  0  0  0  0  0  0  0  0  0
   41.5300   25.7700   34.7780 N   0  0  0  0  0  0  0  0  0  0  0  0
   42.5750   25.8900   34.0260 O   0  0  0  0  0  0  0  0  0  0  0  0
   42.5190   26.9600   33.2900 C   0  0  0  0  0  0  0  0  0  0  0  0
   41.3560   27.5570   33.6020 N   0  0  0  0  0  0  0  0  0  0  0  0
   38.1360   24.8340   34.4100 S   0  0  0  0  0  0  0  0  0  0  0  0
   38.0700   23.9490   38.3870 C   0  0  0  0  0  0  0  0  0  0  0  0
   37.7590   24.4820   37.1360 C   0  0  0  0  0  0  0  0  0  0  0  0
   38.5200   24.1640   36.0080 C   0  0  0  0  0  0  0  0  0  0  0  0
   39.5620   23.3160   36.2060 N   0  0  0  0  0  0  0  0  0  0  0  0
   39.8600   22.8050   37.4050 C   0  0  0  0  0  0  0  0  0  0  0  0
   39.1240   23.1160   38.4880 N   0  0  0  0  0  0  0  0  0  0  0  0
   41.0260   21.8730   37.5560 C   0  0  0  0  0  0  0  0  0  0  0  0
   36.9852   27.3735   35.8683 H   0  0  0  0  0  0  0  0  0  0  0  0
   37.0527   28.3828   34.3839 H   0  0  0  0  0  0  0  0  0  0  0  0
   36.1215   26.8468   34.3839 H   0  0  0  0  0  0  0  0  0  0  0  0
   39.2774   27.9758   33.0172 H   0  0  0  0  0  0  0  0  0  0  0  0
   39.1285   26.3004   32.3866 H   0  0  0  0  0  0  0  0  0  0  0  0
   37.7006   27.3903   32.3866 H   0  0  0  0  0  0  0  0  0  0  0  0
   39.3031   28.1163   35.4428 H   0  0  0  0  0  0  0  0  0  0  0  0
   39.3831   26.4418   36.1299 H   0  0  0  0  0  0  0  0  0  0  0  0
   43.2683   27.3053   32.5625 H   0  0  0  0  0  0  0  0  0  0  0  0
   37.4678   24.2033   39.2717 H   0  0  0  0  0  0  0  0  0  0  0  0
   36.9012   25.1633   37.0359 H   0  0  0  0  0  0  0  0  0  0  0  0
   41.2294   21.7104   38.6247 H   0  0  0  0  0  0  0  0  0  0  0  0
   40.7910   20.9111   37.0770 H   0  0  0  0  0  0  0  0  0  0  0  0
   41.9125   22.3142   37.0770 H   0  0  0  0  0  0  0  0  0  0  0  0
  1 10  1  0
  1  2  1  0
  1  4  1  0
  3  1  1  0
  5  6  2  0
  5  4  1  0
  7  6  1  0
  8  9  2  0
  8  7  1  0
  9  5  1  0
 10 13  1  0
 11 16  2  0
 12 11  1  0
 13 14  1  0
 13 12  2  0
 14 15  2  0
 15 17  1  0
 15 16  1  0
  2 18  1  0
  2 19  1  0
  2 20  1  0
  3 21  1  0
  3 22  1  0
  3 23  1  0
  4 24  1  0
  4 25  1  0
  8 26  1  0
 11 27  1  0
 12 28  1  0
 17 29  1  0
 17 30  1  0
 17 31  1  0
M  ISO  8  18   8  19   8  20   8  21   8  22   8  23   8  24   8  25   8
M  ISO  6  26  14  27  14  28  14  29   8  30   8  31   8
M  END
>  <minimizedAffinity>  (1) 
-4.63264227

>  <minimizedRMSD>  (1) 
0.165702611

$$$$
