
     RDKit          3D

 44 48  0  0  0  0  0  0  0  0999 V2000
   44.9740   24.7080   37.0970 N   0  0  0  0  0  0  0  0  0  0  0  0
   44.6000   25.4740   38.1020 N   0  0  0  0  0  0  0  0  0  0  0  0
   45.5710   25.7070   38.9650 C   0  0  0  0  0  0  0  0  0  0  0  0
   46.7130   25.0540   38.5290 C   0  0  0  0  0  0  0  0  0  0  0  0
   46.2850   24.4310   37.3390 C   0  0  0  0  0  0  0  0  0  0  0  0
   47.1840   23.5950   36.4930 C   0  0  0  0  0  0  0  0  0  0  0  0
   47.8530   24.1620   35.3690 C   0  0  0  0  0  0  0  0  0  0  0  0
   48.7970   22.7580   34.6960 S   0  0  0  0  0  0  0  0  0  0  0  0
   48.1300   21.6090   36.0570 C   0  0  0  0  0  0  0  0  0  0  0  0
   47.4710   22.3070   36.6440 N   0  0  0  0  0  0  0  0  0  0  0  0
   48.3600   20.1790   36.3440 N   0  0  0  0  0  0  0  0  0  0  0  0
   49.6520   19.8280   36.2810 C   0  0  0  0  0  0  0  0  0  0  0  0
   49.8990   18.5010   36.5440 C   0  0  0  0  0  0  0  0  0  0  0  0
   48.8720   17.6150   36.8480 C   0  0  0  0  0  0  0  0  0  0  0  0
   49.2880   16.2860   37.0930 N   0  0  0  0  0  0  0  0  0  0  0  0
   47.5940   18.0620   36.8880 N   0  0  0  0  0  0  0  0  0  0  0  0
   47.3360   19.3520   36.6350 C   0  0  0  0  0  0  0  0  0  0  0  0
   46.1570   19.7990   36.6640 O   0  0  0  0  0  0  0  0  0  0  0  0
   44.2310   24.2260   35.9650 C   0  0  0  0  0  0  0  0  0  0  0  0
   41.0410   22.4650   37.0070 C   0  0  0  0  0  0  0  0  0  0  0  0
   41.9430   23.4550   36.6420 C   0  0  0  0  0  0  0  0  0  0  0  0
   43.2700   23.1510   36.3550 C   0  0  0  0  0  0  0  0  0  0  0  0
   43.6120   21.8330   36.4570 N   0  0  0  0  0  0  0  0  0  0  0  0
   42.7180   20.8720   36.8150 C   0  0  0  0  0  0  0  0  0  0  0  0
   41.4530   21.2340   37.0790 N   0  0  0  0  0  0  0  0  0  0  0  0
   39.6610   22.8640   37.2930 C   0  0  0  0  0  0  0  0  0  0  0  0
   38.6440   22.9010   36.3690 C   0  0  0  0  0  0  0  0  0  0  0  0
   37.5550   23.3240   37.0730 C   0  0  0  0  0  0  0  0  0  0  0  0
   37.9280   23.5310   38.3910 C   0  0  0  0  0  0  0  0  0  0  0  0
   39.2090   23.2380   38.4680 O   0  0  0  0  0  0  0  0  0  0  0  0
   45.4879   26.3168   39.8767 H   0  0  0  0  0  0  0  0  0  0  0  0
   47.7084   25.0282   38.9964 H   0  0  0  0  0  0  0  0  0  0  0  0
   47.8095   25.1967   34.9982 H   0  0  0  0  0  0  0  0  0  0  0  0
   50.4509   20.5441   36.0383 H   0  0  0  0  0  0  0  0  0  0  0  0
   50.9347   18.1316   36.5130 H   0  0  0  0  0  0  0  0  0  0  0  0
   48.5921   15.5632   37.3257 H   0  0  0  0  0  0  0  0  0  0  0  0
   50.2869   16.0407   37.0388 H   0  0  0  0  0  0  0  0  0  0  0  0
   44.9346   23.8233   35.2215 H   0  0  0  0  0  0  0  0  0  0  0  0
   43.6565   25.0661   35.5477 H   0  0  0  0  0  0  0  0  0  0  0  0
   41.6024   24.4990   36.5785 H   0  0  0  0  0  0  0  0  0  0  0  0
   43.0261   19.8185   36.8867 H   0  0  0  0  0  0  0  0  0  0  0  0
   38.6966   22.6463   35.3002 H   0  0  0  0  0  0  0  0  0  0  0  0
   36.5462   23.4758   36.6617 H   0  0  0  0  0  0  0  0  0  0  0  0
   37.2808   23.8731   39.2120 H   0  0  0  0  0  0  0  0  0  0  0  0
  1  5  1  0
  1  2  1  0
  2  3  2  0
  4  3  1  0
  5  4  2  0
  6 10  1  0
  6  5  1  0
  7  6  2  0
  8  7  1  0
  8  9  1  0
  9 11  1  0
  9 10  2  0
 11 17  1  0
 12 11  1  0
 12 13  2  0
 13 14  1  0
 14 16  2  0
 14 15  1  0
 17 18  2  0
 17 16  1  0
 19 22  1  0
 19  1  1  0
 20 25  1  0
 20 26  1  0
 21 20  2  0
 22 23  2  0
 22 21  1  0
 23 24  1  0
 24 25  2  0
 26 30  1  0
 27 28  1  0
 27 26  2  0
 28 29  2  0
 29 30  1  0
  3 31  1  0
  4 32  1  0
  7 33  1  0
 12 34  1  0
 13 35  1  0
 15 36  1  0
 15 37  1  0
 19 38  1  0
 19 39  1  0
 21 40  1  0
 24 41  1  0
 27 42  1  0
 28 43  1  0
 29 44  1  0
M  ISO  8  31  14  32  14  33  14  34  14  35  14  38   8  39   8  40  14
M  ISO  4  41  14  42  14  43  14  44  14
M  END
>  <minimizedAffinity>  (1) 
-5.33201599

>  <minimizedRMSD>  (1) 
0.529375792

$$$$
