
     RDKit          3D

 48 52  0  0  0  0  0  0  0  0999 V2000
   44.9050   24.8950   37.1260 N   0  0  0  0  0  0  0  0  0  0  0  0
   44.5750   25.7150   38.1120 N   0  0  0  0  0  0  0  0  0  0  0  0
   45.5590   25.8990   38.9680 C   0  0  0  0  0  0  0  0  0  0  0  0
   46.6500   25.1580   38.5540 C   0  0  0  0  0  0  0  0  0  0  0  0
   46.1900   24.5430   37.3880 C   0  0  0  0  0  0  0  0  0  0  0  0
   47.0310   23.6210   36.5580 C   0  0  0  0  0  0  0  0  0  0  0  0
   47.8630   24.1390   35.5240 C   0  0  0  0  0  0  0  0  0  0  0  0
   48.6480   22.6350   34.8420 S   0  0  0  0  0  0  0  0  0  0  0  0
   47.7210   21.5430   36.0730 C   0  0  0  0  0  0  0  0  0  0  0  0
   47.1160   22.2910   36.6590 N   0  0  0  0  0  0  0  0  0  0  0  0
   47.7340   20.1350   36.2460 N   0  0  0  0  0  0  0  0  0  0  0  0
   48.9500   19.5850   36.8050 C   0  0  0  0  0  0  0  0  0  0  0  0
   48.7290   18.3410   37.6040 C   0  0  0  0  0  0  0  0  0  0  0  0
   47.6080   17.4820   37.0690 C   0  0  0  0  0  0  0  0  0  0  0  0
   46.3410   18.2230   36.8040 C   0  0  0  0  0  0  0  0  0  0  0  0
   46.5570   19.3860   35.8650 C   0  0  0  0  0  0  0  0  0  0  0  0
   44.1200   24.4460   36.0010 C   0  0  0  0  0  0  0  0  0  0  0  0
   41.0290   22.5200   37.0270 C   0  0  0  0  0  0  0  0  0  0  0  0
   41.8820   23.5420   36.6780 C   0  0  0  0  0  0  0  0  0  0  0  0
   43.2190   23.3150   36.3740 C   0  0  0  0  0  0  0  0  0  0  0  0
   43.6200   22.0110   36.4490 N   0  0  0  0  0  0  0  0  0  0  0  0
   42.7820   21.0060   36.7930 C   0  0  0  0  0  0  0  0  0  0  0  0
   41.4980   21.3110   37.0720 N   0  0  0  0  0  0  0  0  0  0  0  0
   39.6350   22.8490   37.3290 C   0  0  0  0  0  0  0  0  0  0  0  0
   38.6030   22.8030   36.4010 C   0  0  0  0  0  0  0  0  0  0  0  0
   37.5010   23.1850   37.1220 C   0  0  0  0  0  0  0  0  0  0  0  0
   37.8710   23.4450   38.4190 C   0  0  0  0  0  0  0  0  0  0  0  0
   39.1730   23.2260   38.4920 O   0  0  0  0  0  0  0  0  0  0  0  0
   45.5192   26.5365   39.8636 H   0  0  0  0  0  0  0  0  0  0  0  0
   47.6392   25.0735   39.0276 H   0  0  0  0  0  0  0  0  0  0  0  0
   47.9994   25.1852   35.2128 H   0  0  0  0  0  0  0  0  0  0  0  0
   49.6381   19.3510   35.9793 H   0  0  0  0  0  0  0  0  0  0  0  0
   49.3622   20.3407   37.4898 H   0  0  0  0  0  0  0  0  0  0  0  0
   49.6569   17.7503   37.5952 H   0  0  0  0  0  0  0  0  0  0  0  0
   48.4465   18.6513   38.6208 H   0  0  0  0  0  0  0  0  0  0  0  0
   47.9437   17.0251   36.1264 H   0  0  0  0  0  0  0  0  0  0  0  0
   47.3816   16.7383   37.8472 H   0  0  0  0  0  0  0  0  0  0  0  0
   45.6123   17.5327   36.3540 H   0  0  0  0  0  0  0  0  0  0  0  0
   45.9709   18.6203   37.7607 H   0  0  0  0  0  0  0  0  0  0  0  0
   45.6794   20.0482   35.9016 H   0  0  0  0  0  0  0  0  0  0  0  0
   46.6980   18.9977   34.8455 H   0  0  0  0  0  0  0  0  0  0  0  0
   44.7991   24.1126   35.2025 H   0  0  0  0  0  0  0  0  0  0  0  0
   43.4952   25.2852   35.6614 H   0  0  0  0  0  0  0  0  0  0  0  0
   41.4936   24.5704   36.6384 H   0  0  0  0  0  0  0  0  0  0  0  0
   43.1387   19.9667   36.8439 H   0  0  0  0  0  0  0  0  0  0  0  0
   38.6569   22.5255   35.3379 H   0  0  0  0  0  0  0  0  0  0  0  0
   36.4792   23.2700   36.7236 H   0  0  0  0  0  0  0  0  0  0  0  0
   37.2126   23.7717   39.2374 H   0  0  0  0  0  0  0  0  0  0  0  0
  1  5  1  0
  1  2  1  0
  2  3  2  0
  4  3  1  0
  5  4  2  0
  6 10  1  0
  6  5  1  0
  7  6  2  0
  8  7  1  0
  8  9  1  0
  9 11  1  0
  9 10  2  0
 11 12  1  0
 12 13  1  0
 14 13  1  0
 15 14  1  0
 16 11  1  0
 16 15  1  0
 17 20  1  0
 17  1  1  0
 18 23  1  0
 18 24  1  0
 19 18  2  0
 20 21  2  0
 20 19  1  0
 21 22  1  0
 22 23  2  0
 24 28  1  0
 25 26  1  0
 25 24  2  0
 26 27  2  0
 27 28  1  0
  3 29  1  0
  4 30  1  0
  7 31  1  0
 12 32  1  0
 12 33  1  0
 13 34  1  0
 13 35  1  0
 14 36  1  0
 14 37  1  0
 15 38  1  0
 15 39  1  0
 16 40  1  0
 16 41  1  0
 17 42  1  0
 17 43  1  0
 19 44  1  0
 22 45  1  0
 25 46  1  0
 26 47  1  0
 27 48  1  0
M  ISO  8  29  14  30  14  31  14  32  13  33  13  34  13  35  13  36  13
M  ISO  8  37  13  38  13  39  13  40  13  41  13  42   8  43   8  44  14
M  ISO  4  45  14  46  14  47  14  48  14
M  END
>  <minimizedAffinity>  (1) 
-5.25362349

>  <minimizedRMSD>  (1) 
0.244493693

$$$$
