
     RDKit          3D

 46 50  0  0  0  0  0  0  0  0999 V2000
   44.1320   24.4210   36.0710 C   0  0  0  0  0  0  0  0  0  0  0  0
   41.0080   22.5250   37.0380 C   0  0  0  0  0  0  0  0  0  0  0  0
   41.8680   23.5480   36.7150 C   0  0  0  0  0  0  0  0  0  0  0  0
   43.2140   23.2950   36.4210 C   0  0  0  0  0  0  0  0  0  0  0  0
   43.5980   21.9850   36.4800 N   0  0  0  0  0  0  0  0  0  0  0  0
   42.7360   20.9990   36.8010 C   0  0  0  0  0  0  0  0  0  0  0  0
   41.4610   21.3040   37.0710 N   0  0  0  0  0  0  0  0  0  0  0  0
   39.6120   22.8700   37.3330 C   0  0  0  0  0  0  0  0  0  0  0  0
   38.5820   22.8170   36.4140 C   0  0  0  0  0  0  0  0  0  0  0  0
   37.4830   23.2200   37.1360 C   0  0  0  0  0  0  0  0  0  0  0  0
   37.8630   23.4990   38.4340 C   0  0  0  0  0  0  0  0  0  0  0  0
   39.1550   23.2700   38.4940 O   0  0  0  0  0  0  0  0  0  0  0  0
   44.9410   24.8140   37.1840 N   0  0  0  0  0  0  0  0  0  0  0  0
   44.6500   25.5730   38.2300 N   0  0  0  0  0  0  0  0  0  0  0  0
   45.6600   25.7180   39.0630 C   0  0  0  0  0  0  0  0  0  0  0  0
   46.7310   25.0110   38.5640 C   0  0  0  0  0  0  0  0  0  0  0  0
   46.2360   24.4490   37.3680 C   0  0  0  0  0  0  0  0  0  0  0  0
   47.0600   23.5820   36.4660 C   0  0  0  0  0  0  0  0  0  0  0  0
   48.1130   24.1560   35.6970 C   0  0  0  0  0  0  0  0  0  0  0  0
   48.7720   22.7080   34.8040 S   0  0  0  0  0  0  0  0  0  0  0  0
   47.4920   21.5590   35.6330 C   0  0  0  0  0  0  0  0  0  0  0  0
   46.9290   22.2750   36.2790 N   0  0  0  0  0  0  0  0  0  0  0  0
   47.4480   20.0990   35.3370 C   0  0  0  0  0  0  0  0  0  0  0  0
   46.0510   19.5380   35.3600 C   0  0  0  0  0  0  0  0  0  0  0  0
   45.9000   18.8010   36.6670 C   0  0  0  0  0  0  0  0  0  0  0  0
   47.3080   18.3730   37.0510 C   0  0  0  0  0  0  0  0  0  0  0  0
   48.2390   19.3580   36.3890 C   0  0  0  0  0  0  0  0  0  0  0  0
   44.7891   24.1019   35.2485 H   0  0  0  0  0  0  0  0  0  0  0  0
   43.5169   25.2834   35.7745 H   0  0  0  0  0  0  0  0  0  0  0  0
   41.4930   24.5817   36.6870 H   0  0  0  0  0  0  0  0  0  0  0  0
   43.0774   19.9541   36.8406 H   0  0  0  0  0  0  0  0  0  0  0  0
   38.6296   22.5222   35.3553 H   0  0  0  0  0  0  0  0  0  0  0  0
   36.4601   23.3066   36.7409 H   0  0  0  0  0  0  0  0  0  0  0  0
   37.2143   23.8436   39.2528 H   0  0  0  0  0  0  0  0  0  0  0  0
   45.6496   26.3022   39.9950 H   0  0  0  0  0  0  0  0  0  0  0  0
   47.7372   24.9083   38.9965 H   0  0  0  0  0  0  0  0  0  0  0  0
   48.4440   25.2041   35.6529 H   0  0  0  0  0  0  0  0  0  0  0  0
   47.8637   19.9698   34.3268 H   0  0  0  0  0  0  0  0  0  0  0  0
   45.3145   20.3526   35.2971 H   0  0  0  0  0  0  0  0  0  0  0  0
   45.8808   18.8663   34.5057 H   0  0  0  0  0  0  0  0  0  0  0  0
   45.4753   19.4631   37.4359 H   0  0  0  0  0  0  0  0  0  0  0  0
   45.2201   17.9410   36.5769 H   0  0  0  0  0  0  0  0  0  0  0  0
   47.4323   18.4050   38.1435 H   0  0  0  0  0  0  0  0  0  0  0  0
   47.5172   17.3425   36.7282 H   0  0  0  0  0  0  0  0  0  0  0  0
   49.0783   18.8237   35.9199 H   0  0  0  0  0  0  0  0  0  0  0  0
   48.6484   20.0603   37.1301 H   0  0  0  0  0  0  0  0  0  0  0  0
  1  4  1  0
  1 13  1  0
  2  7  1  0
  2  8  1  0
  3  2  2  0
  4  5  2  0
  4  3  1  0
  5  6  1  0
  6  7  2  0
  8 12  1  0
  9 10  1  0
  9  8  2  0
 10 11  2  0
 11 12  1  0
 13 17  1  0
 13 14  1  0
 14 15  2  0
 16 15  1  0
 17 16  2  0
 18 17  1  0
 19 18  2  0
 20 21  1  0
 20 19  1  0
 21 22  2  0
 22 18  1  0
 23 24  1  0
 23 21  1  0
 23 27  1  0
 24 25  1  0
 25 26  1  0
 27 26  1  0
  1 28  1  0
  1 29  1  0
  3 30  1  0
  6 31  1  0
  9 32  1  0
 10 33  1  0
 11 34  1  0
 15 35  1  0
 16 36  1  0
 19 37  1  0
 23 38  1  0
 24 39  1  0
 24 40  1  0
 25 41  1  0
 25 42  1  0
 26 43  1  0
 26 44  1  0
 27 45  1  0
 27 46  1  0
M  ISO  8  28   8  29   8  30  14  31  14  32  14  33  14  34  14  35  14
M  ISO  8  36  14  37  14  38  13  39  13  40  13  41  13  42  13  43  13
M  ISO  3  44  13  45  13  46  13
M  END
>  <minimizedAffinity>  (1) 
-5.06207895

>  <minimizedRMSD>  (1) 
0.685964227

$$$$
