
     RDKit          3D

 46 50  0  0  0  0  0  0  0  0999 V2000
   44.1530   24.4110   36.0450 C   0  0  0  0  0  0  0  0  0  0  0  0
   41.0380   22.5120   37.0190 C   0  0  0  0  0  0  0  0  0  0  0  0
   41.8960   23.5470   36.6880 C   0  0  0  0  0  0  0  0  0  0  0  0
   43.2420   23.2830   36.3990 C   0  0  0  0  0  0  0  0  0  0  0  0
   43.6280   21.9650   36.4660 N   0  0  0  0  0  0  0  0  0  0  0  0
   42.7660   20.9760   36.7910 C   0  0  0  0  0  0  0  0  0  0  0  0
   41.4910   21.2780   37.0600 N   0  0  0  0  0  0  0  0  0  0  0  0
   39.6350   22.8580   37.3140 C   0  0  0  0  0  0  0  0  0  0  0  0
   38.6050   22.8070   36.3920 C   0  0  0  0  0  0  0  0  0  0  0  0
   37.5100   23.2090   37.1160 C   0  0  0  0  0  0  0  0  0  0  0  0
   37.8920   23.4810   38.4050 C   0  0  0  0  0  0  0  0  0  0  0  0
   39.1880   23.2540   38.4800 O   0  0  0  0  0  0  0  0  0  0  0  0
   44.9310   24.8360   37.1720 N   0  0  0  0  0  0  0  0  0  0  0  0
   44.5970   25.6050   38.1960 N   0  0  0  0  0  0  0  0  0  0  0  0
   45.5830   25.7840   39.0500 C   0  0  0  0  0  0  0  0  0  0  0  0
   46.6900   25.0870   38.5900 C   0  0  0  0  0  0  0  0  0  0  0  0
   46.2320   24.5050   37.4040 C   0  0  0  0  0  0  0  0  0  0  0  0
   47.0910   23.6520   36.5330 C   0  0  0  0  0  0  0  0  0  0  0  0
   47.9880   24.2460   35.5770 C   0  0  0  0  0  0  0  0  0  0  0  0
   48.7480   22.7810   34.7810 S   0  0  0  0  0  0  0  0  0  0  0  0
   47.7380   21.6060   35.8620 C   0  0  0  0  0  0  0  0  0  0  0  0
   47.1310   22.3130   36.5020 N   0  0  0  0  0  0  0  0  0  0  0  0
   47.7520   20.1890   35.8120 N   0  0  0  0  0  0  0  0  0  0  0  0
   47.9830   19.2350   36.8440 C   0  0  0  0  0  0  0  0  0  0  0  0
   46.8740   18.2170   36.8490 C   0  0  0  0  0  0  0  0  0  0  0  0
   46.5750   17.7220   35.6130 O   0  0  0  0  0  0  0  0  0  0  0  0
   47.3140   18.2040   34.5580 C   0  0  0  0  0  0  0  0  0  0  0  0
   47.4460   19.6950   34.4910 C   0  0  0  0  0  0  0  0  0  0  0  0
   44.8332   24.0828   35.2453 H   0  0  0  0  0  0  0  0  0  0  0  0
   43.5365   25.2595   35.7134 H   0  0  0  0  0  0  0  0  0  0  0  0
   41.5201   24.5801   36.6517 H   0  0  0  0  0  0  0  0  0  0  0  0
   43.1099   19.9320   36.8339 H   0  0  0  0  0  0  0  0  0  0  0  0
   38.6520   22.5145   35.3327 H   0  0  0  0  0  0  0  0  0  0  0  0
   36.4863   23.2989   36.7237 H   0  0  0  0  0  0  0  0  0  0  0  0
   37.2398   23.8238   39.2218 H   0  0  0  0  0  0  0  0  0  0  0  0
   45.5366   26.3839   39.9709 H   0  0  0  0  0  0  0  0  0  0  0  0
   47.6874   25.0105   39.0475 H   0  0  0  0  0  0  0  0  0  0  0  0
   48.1713   25.3116   35.3750 H   0  0  0  0  0  0  0  0  0  0  0  0
   48.9434   18.7290   36.6664 H   0  0  0  0  0  0  0  0  0  0  0  0
   48.0114   19.7487   37.8163 H   0  0  0  0  0  0  0  0  0  0  0  0
   47.1755   17.3789   37.4946 H   0  0  0  0  0  0  0  0  0  0  0  0
   45.9718   18.7280   37.2162 H   0  0  0  0  0  0  0  0  0  0  0  0
   48.3253   17.7771   34.6295 H   0  0  0  0  0  0  0  0  0  0  0  0
   46.7710   17.9076   33.6484 H   0  0  0  0  0  0  0  0  0  0  0  0
   48.2561   19.9647   33.7974 H   0  0  0  0  0  0  0  0  0  0  0  0
   46.5066   20.1401   34.1312 H   0  0  0  0  0  0  0  0  0  0  0  0
  1  4  1  0
  1 13  1  0
  2  7  1  0
  2  8  1  0
  3  2  2  0
  4  5  2  0
  4  3  1  0
  5  6  1  0
  6  7  2  0
  8 12  1  0
  9 10  1  0
  9  8  2  0
 10 11  2  0
 11 12  1  0
 13 17  1  0
 13 14  1  0
 14 15  2  0
 16 15  1  0
 17 16  2  0
 18 17  1  0
 19 18  2  0
 20 19  1  0
 20 21  1  0
 21 22  2  0
 22 18  1  0
 23 21  1  0
 23 24  1  0
 24 25  1  0
 26 25  1  0
 27 26  1  0
 28 27  1  0
 28 23  1  0
  1 29  1  0
  1 30  1  0
  3 31  1  0
  6 32  1  0
  9 33  1  0
 10 34  1  0
 11 35  1  0
 15 36  1  0
 16 37  1  0
 19 38  1  0
 24 39  1  0
 24 40  1  0
 25 41  1  0
 25 42  1  0
 27 43  1  0
 27 44  1  0
 28 45  1  0
 28 46  1  0
M  ISO  8  29   8  30   8  31  14  32  14  33  14  34  14  35  14  36  14
M  ISO  8  37  14  38  14  39  13  40  13  41  13  42  13  43  13  44  13
M  ISO  2  45  13  46  13
M  END
>  <minimizedAffinity>  (1) 
-5.20399666

>  <minimizedRMSD>  (1) 
0.116775766

$$$$
