
     RDKit          3D

 39 43  0  0  0  0  0  0  0  0999 V2000
   44.2260   24.2880   35.9750 C   0  0  0  0  0  0  0  0  0  0  0  0
   41.0680   22.4630   37.0050 C   0  0  0  0  0  0  0  0  0  0  0  0
   41.9510   23.4780   36.6480 C   0  0  0  0  0  0  0  0  0  0  0  0
   43.2980   23.1870   36.3550 C   0  0  0  0  0  0  0  0  0  0  0  0
   43.6470   21.8680   36.4470 N   0  0  0  0  0  0  0  0  0  0  0  0
   42.7750   20.8980   36.7950 C   0  0  0  0  0  0  0  0  0  0  0  0
   41.4990   21.2350   37.0650 N   0  0  0  0  0  0  0  0  0  0  0  0
   39.6840   22.8460   37.2950 C   0  0  0  0  0  0  0  0  0  0  0  0
   38.6660   22.8480   36.3520 C   0  0  0  0  0  0  0  0  0  0  0  0
   37.5760   23.2680   37.0700 C   0  0  0  0  0  0  0  0  0  0  0  0
   37.9380   23.5030   38.3830 C   0  0  0  0  0  0  0  0  0  0  0  0
   39.2160   23.2290   38.4430 O   0  0  0  0  0  0  0  0  0  0  0  0
   44.9380   24.7880   37.1150 N   0  0  0  0  0  0  0  0  0  0  0  0
   44.5420   25.6030   38.0890 N   0  0  0  0  0  0  0  0  0  0  0  0
   45.4890   25.8400   38.9760 C   0  0  0  0  0  0  0  0  0  0  0  0
   46.6240   25.1510   38.6050 C   0  0  0  0  0  0  0  0  0  0  0  0
   46.2380   24.4950   37.4210 C   0  0  0  0  0  0  0  0  0  0  0  0
   47.1470   23.6160   36.6440 C   0  0  0  0  0  0  0  0  0  0  0  0
   48.2200   24.1670   35.8840 C   0  0  0  0  0  0  0  0  0  0  0  0
   49.0070   22.6950   35.1430 S   0  0  0  0  0  0  0  0  0  0  0  0
   47.7490   21.5510   35.9860 C   0  0  0  0  0  0  0  0  0  0  0  0
   47.1080   22.2910   36.5450 N   0  0  0  0  0  0  0  0  0  0  0  0
   47.6680   20.1280   35.9080 N   0  0  0  0  0  0  0  0  0  0  0  0
   46.7190   19.3740   36.5150 C   0  0  0  0  0  0  0  0  0  0  0  0
   46.9720   18.0870   36.2110 N   0  0  0  0  0  0  0  0  0  0  0  0
   48.0670   18.0530   35.4250 C   0  0  0  0  0  0  0  0  0  0  0  0
   48.4720   19.3130   35.2570 N   0  0  0  0  0  0  0  0  0  0  0  0
   44.9499   23.9081   35.2391 H   0  0  0  0  0  0  0  0  0  0  0  0
   43.6322   25.1103   35.5492 H   0  0  0  0  0  0  0  0  0  0  0  0
   41.5938   24.5170   36.5941 H   0  0  0  0  0  0  0  0  0  0  0  0
   43.1012   19.8493   36.8571 H   0  0  0  0  0  0  0  0  0  0  0  0
   38.7203   22.5781   35.2870 H   0  0  0  0  0  0  0  0  0  0  0  0
   36.5631   23.3986   36.6614 H   0  0  0  0  0  0  0  0  0  0  0  0
   37.2900   23.8470   39.2026 H   0  0  0  0  0  0  0  0  0  0  0  0
   45.3896   26.4810   39.8644 H   0  0  0  0  0  0  0  0  0  0  0  0
   47.5991   25.1210   39.1132 H   0  0  0  0  0  0  0  0  0  0  0  0
   48.5050   25.2234   35.7712 H   0  0  0  0  0  0  0  0  0  0  0  0
   45.8940   19.7453   37.1408 H   0  0  0  0  0  0  0  0  0  0  0  0
   48.5385   17.1540   35.0013 H   0  0  0  0  0  0  0  0  0  0  0  0
  1  4  1  0
  1 13  1  0
  2  7  1  0
  2  8  1  0
  3  2  2  0
  4  5  2  0
  4  3  1  0
  5  6  1  0
  6  7  2  0
  8 12  1  0
  9 10  1  0
  9  8  2  0
 10 11  2  0
 11 12  1  0
 13 17  1  0
 13 14  1  0
 14 15  2  0
 16 15  1  0
 17 16  2  0
 18 17  1  0
 19 18  2  0
 20 19  1  0
 20 21  1  0
 21 22  2  0
 22 18  1  0
 23 21  1  0
 23 24  1  0
 25 24  2  0
 26 25  1  0
 27 26  2  0
 27 23  1  0
  1 28  1  0
  1 29  1  0
  3 30  1  0
  6 31  1  0
  9 32  1  0
 10 33  1  0
 11 34  1  0
 15 35  1  0
 16 36  1  0
 19 37  1  0
 24 38  1  0
 26 39  1  0
M  ISO  8  28   8  29   8  30  14  31  14  32  14  33  14  34  14  35  14
M  ISO  4  36  14  37  14  38  14  39  14
M  END
>  <minimizedAffinity>  (1) 
-5.13779354

>  <minimizedRMSD>  (1) 
0.21761778

$$$$
