
     RDKit          3D

 49 53  0  0  0  0  0  0  0  0999 V2000
   44.2010   24.3050   35.9540 C   0  0  0  0  0  0  0  0  0  0  0  0
   41.0610   22.4820   37.0110 C   0  0  0  0  0  0  0  0  0  0  0  0
   41.9380   23.4790   36.6440 C   0  0  0  0  0  0  0  0  0  0  0  0
   43.2800   23.2010   36.3480 C   0  0  0  0  0  0  0  0  0  0  0  0
   43.6420   21.8910   36.4500 N   0  0  0  0  0  0  0  0  0  0  0  0
   42.7750   20.9220   36.8110 C   0  0  0  0  0  0  0  0  0  0  0  0
   41.5040   21.2550   37.0800 N   0  0  0  0  0  0  0  0  0  0  0  0
   39.6750   22.8530   37.3030 C   0  0  0  0  0  0  0  0  0  0  0  0
   38.6520   22.8500   36.3680 C   0  0  0  0  0  0  0  0  0  0  0  0
   37.5570   23.2570   37.0780 C   0  0  0  0  0  0  0  0  0  0  0  0
   37.9270   23.4890   38.3830 C   0  0  0  0  0  0  0  0  0  0  0  0
   39.2130   23.2280   38.4530 O   0  0  0  0  0  0  0  0  0  0  0  0
   44.9290   24.8190   37.0850 N   0  0  0  0  0  0  0  0  0  0  0  0
   44.5440   25.6540   38.0310 N   0  0  0  0  0  0  0  0  0  0  0  0
   45.4900   25.9030   38.9150 C   0  0  0  0  0  0  0  0  0  0  0  0
   46.6100   25.1890   38.5530 C   0  0  0  0  0  0  0  0  0  0  0  0
   46.2220   24.5120   37.3910 C   0  0  0  0  0  0  0  0  0  0  0  0
   47.1220   23.5950   36.6200 C   0  0  0  0  0  0  0  0  0  0  0  0
   48.0480   24.1370   35.6720 C   0  0  0  0  0  0  0  0  0  0  0  0
   48.8680   22.6280   35.0390 S   0  0  0  0  0  0  0  0  0  0  0  0
   47.8110   21.5220   36.1720 C   0  0  0  0  0  0  0  0  0  0  0  0
   47.1780   22.2710   36.7040 N   0  0  0  0  0  0  0  0  0  0  0  0
   47.9710   20.0070   36.1760 C   0  0  0  0  0  0  0  0  0  0  0  0
   48.9660   19.6130   37.2390 C   0  0  0  0  0  0  0  0  0  0  0  0
   49.1350   18.1200   37.1530 C   0  0  0  0  0  0  0  0  0  0  0  0
   47.8060   17.4570   37.4170 C   0  0  0  0  0  0  0  0  0  0  0  0
   46.8030   17.8860   36.3870 C   0  0  0  0  0  0  0  0  0  0  0  0
   46.6360   19.3840   36.4730 C   0  0  0  0  0  0  0  0  0  0  0  0
   44.9178   23.9238   35.2118 H   0  0  0  0  0  0  0  0  0  0  0  0
   43.5969   25.1227   35.5340 H   0  0  0  0  0  0  0  0  0  0  0  0
   41.5774   24.5163   36.5818 H   0  0  0  0  0  0  0  0  0  0  0  0
   43.1056   19.8753   36.8835 H   0  0  0  0  0  0  0  0  0  0  0  0
   38.7081   22.5824   35.3025 H   0  0  0  0  0  0  0  0  0  0  0  0
   36.5423   23.3795   36.6712 H   0  0  0  0  0  0  0  0  0  0  0  0
   37.2763   23.8256   39.2035 H   0  0  0  0  0  0  0  0  0  0  0  0
   45.4001   26.5652   39.7887 H   0  0  0  0  0  0  0  0  0  0  0  0
   47.5855   25.1577   39.0603 H   0  0  0  0  0  0  0  0  0  0  0  0
   48.2216   25.1875   35.3958 H   0  0  0  0  0  0  0  0  0  0  0  0
   48.3340   19.6603   35.1972 H   0  0  0  0  0  0  0  0  0  0  0  0
   49.9290   20.1130   37.0587 H   0  0  0  0  0  0  0  0  0  0  0  0
   48.6122   19.9108   38.2371 H   0  0  0  0  0  0  0  0  0  0  0  0
   49.4899   17.8467   36.1483 H   0  0  0  0  0  0  0  0  0  0  0  0
   49.8704   17.7866   37.9000 H   0  0  0  0  0  0  0  0  0  0  0  0
   47.9289   16.3648   37.3725 H   0  0  0  0  0  0  0  0  0  0  0  0
   47.4476   17.7527   38.4141 H   0  0  0  0  0  0  0  0  0  0  0  0
   45.8386   17.3937   36.5811 H   0  0  0  0  0  0  0  0  0  0  0  0
   47.1511   17.6034   35.3825 H   0  0  0  0  0  0  0  0  0  0  0  0
   46.3061   19.6674   37.4834 H   0  0  0  0  0  0  0  0  0  0  0  0
   45.8790   19.7306   35.7540 H   0  0  0  0  0  0  0  0  0  0  0  0
  1  4  1  0
  1 13  1  0
  2  7  1  0
  2  8  1  0
  3  2  2  0
  4  5  2  0
  4  3  1  0
  5  6  1  0
  6  7  2  0
  8 12  1  0
  9 10  1  0
  9  8  2  0
 10 11  2  0
 11 12  1  0
 13 17  1  0
 13 14  1  0
 14 15  2  0
 16 15  1  0
 17 16  2  0
 18 22  1  0
 18 17  1  0
 19 18  2  0
 20 19  1  0
 20 21  1  0
 21 23  1  0
 21 22  2  0
 23 28  1  0
 23 24  1  0
 25 24  1  0
 25 26  1  0
 27 28  1  0
 27 26  1  0
  1 29  1  0
  1 30  1  0
  3 31  1  0
  6 32  1  0
  9 33  1  0
 10 34  1  0
 11 35  1  0
 15 36  1  0
 16 37  1  0
 19 38  1  0
 23 39  1  0
 24 40  1  0
 24 41  1  0
 25 42  1  0
 25 43  1  0
 26 44  1  0
 26 45  1  0
 27 46  1  0
 27 47  1  0
 28 48  1  0
 28 49  1  0
M  ISO  8  29   8  30   8  31  14  32  14  33  14  34  14  35  14  36  14
M  ISO  8  37  14  38  14  39  13  40  13  41  13  42  13  43  13  44  13
M  ISO  5  45  13  46  13  47  13  48  13  49  13
M  END
>  <minimizedAffinity>  (1) 
-5.04023027

>  <minimizedRMSD>  (1) 
0.310989738

$$$$
