
     RDKit          3D

 43 47  0  0  0  0  0  0  0  0999 V2000
   44.9460   24.7910   37.1050 N   0  0  0  0  0  0  0  0  0  0  0  0
   44.5570   25.6040   38.0730 N   0  0  0  0  0  0  0  0  0  0  0  0
   45.5100   25.8460   38.9580 C   0  0  0  0  0  0  0  0  0  0  0  0
   46.6360   25.1480   38.5680 C   0  0  0  0  0  0  0  0  0  0  0  0
   46.2360   24.4940   37.3920 C   0  0  0  0  0  0  0  0  0  0  0  0
   47.1410   23.6030   36.5970 C   0  0  0  0  0  0  0  0  0  0  0  0
   48.1410   24.1720   35.7360 C   0  0  0  0  0  0  0  0  0  0  0  0
   48.9300   22.6910   35.0340 S   0  0  0  0  0  0  0  0  0  0  0  0
   47.7850   21.5530   36.0130 C   0  0  0  0  0  0  0  0  0  0  0  0
   47.1460   22.2740   36.5750 N   0  0  0  0  0  0  0  0  0  0  0  0
   47.8870   20.0440   35.9060 C   0  0  0  0  0  0  0  0  0  0  0  0
   46.8930   19.3450   36.5380 C   0  0  0  0  0  0  0  0  0  0  0  0
   46.9960   17.9730   36.4330 C   0  0  0  0  0  0  0  0  0  0  0  0
   48.0480   17.3830   35.7290 C   0  0  0  0  0  0  0  0  0  0  0  0
   49.0110   18.1610   35.1180 C   0  0  0  0  0  0  0  0  0  0  0  0
   48.9420   19.5370   35.2000 C   0  0  0  0  0  0  0  0  0  0  0  0
   44.2080   24.2930   35.9660 C   0  0  0  0  0  0  0  0  0  0  0  0
   41.0660   22.4760   37.0090 C   0  0  0  0  0  0  0  0  0  0  0  0
   41.9440   23.4710   36.6470 C   0  0  0  0  0  0  0  0  0  0  0  0
   43.2830   23.1940   36.3530 C   0  0  0  0  0  0  0  0  0  0  0  0
   43.6470   21.8850   36.4490 N   0  0  0  0  0  0  0  0  0  0  0  0
   42.7730   20.9090   36.8060 C   0  0  0  0  0  0  0  0  0  0  0  0
   41.5000   21.2440   37.0760 N   0  0  0  0  0  0  0  0  0  0  0  0
   39.6780   22.8530   37.3020 C   0  0  0  0  0  0  0  0  0  0  0  0
   38.6600   22.8530   36.3690 C   0  0  0  0  0  0  0  0  0  0  0  0
   37.5600   23.2650   37.0770 C   0  0  0  0  0  0  0  0  0  0  0  0
   37.9270   23.4980   38.3830 C   0  0  0  0  0  0  0  0  0  0  0  0
   39.2120   23.2320   38.4520 O   0  0  0  0  0  0  0  0  0  0  0  0
   45.4214   26.4887   39.8463 H   0  0  0  0  0  0  0  0  0  0  0  0
   47.6175   25.1127   39.0634 H   0  0  0  0  0  0  0  0  0  0  0  0
   48.3705   25.2315   35.5493 H   0  0  0  0  0  0  0  0  0  0  0  0
   46.0769   19.8385   37.0861 H   0  0  0  0  0  0  0  0  0  0  0  0
   46.2383   17.3346   36.9108 H   0  0  0  0  0  0  0  0  0  0  0  0
   48.1100   16.2869   35.6606 H   0  0  0  0  0  0  0  0  0  0  0  0
   49.8338   17.6839   34.5654 H   0  0  0  0  0  0  0  0  0  0  0  0
   49.6916   20.1872   34.7253 H   0  0  0  0  0  0  0  0  0  0  0  0
   44.9193   23.9143   35.2172 H   0  0  0  0  0  0  0  0  0  0  0  0
   43.6091   25.1192   35.5551 H   0  0  0  0  0  0  0  0  0  0  0  0
   41.5846   24.5089   36.5873 H   0  0  0  0  0  0  0  0  0  0  0  0
   43.1017   19.8614   36.8731 H   0  0  0  0  0  0  0  0  0  0  0  0
   38.7179   22.5845   35.3038 H   0  0  0  0  0  0  0  0  0  0  0  0
   36.5469   23.3893   36.6669 H   0  0  0  0  0  0  0  0  0  0  0  0
   37.2767   23.8379   39.2025 H   0  0  0  0  0  0  0  0  0  0  0  0
  1  5  1  0
  1  2  1  0
  2  3  2  0
  4  3  1  0
  5  4  2  0
  6  5  1  0
  7  6  2  0
  8  7  1  0
  8  9  1  0
  9 10  2  0
 10  6  1  0
 11  9  1  0
 11 12  2  0
 13 12  1  0
 14 13  2  0
 15 16  2  0
 15 14  1  0
 16 11  1  0
 17 20  1  0
 17  1  1  0
 18 23  1  0
 18 24  1  0
 19 18  2  0
 20 21  2  0
 20 19  1  0
 21 22  1  0
 22 23  2  0
 24 28  1  0
 25 26  1  0
 25 24  2  0
 26 27  2  0
 27 28  1  0
  3 29  1  0
  4 30  1  0
  7 31  1  0
 12 32  1  0
 13 33  1  0
 14 34  1  0
 15 35  1  0
 16 36  1  0
 17 37  1  0
 17 38  1  0
 19 39  1  0
 22 40  1  0
 25 41  1  0
 26 42  1  0
 27 43  1  0
M  ISO  8  29  14  30  14  31  14  32  14  33  14  34  14  35  14  36  14
M  ISO  7  37   8  38   8  39  14  40  14  41  14  42  14  43  14
M  END
>  <minimizedAffinity>  (1) 
-4.96917391

>  <minimizedRMSD>  (1) 
0.299732834

$$$$
