
     RDKit          3D

 38 42  0  0  0  0  0  0  0  0999 V2000
   44.2040   24.2970   35.9660 C   0  0  0  0  0  0  0  0  0  0  0  0
   41.0590   22.4740   37.0110 C   0  0  0  0  0  0  0  0  0  0  0  0
   41.9360   23.4790   36.6480 C   0  0  0  0  0  0  0  0  0  0  0  0
   43.2720   23.1940   36.3550 C   0  0  0  0  0  0  0  0  0  0  0  0
   43.6410   21.8770   36.4510 N   0  0  0  0  0  0  0  0  0  0  0  0
   42.7660   20.9180   36.8070 C   0  0  0  0  0  0  0  0  0  0  0  0
   41.4950   21.2540   37.0770 N   0  0  0  0  0  0  0  0  0  0  0  0
   39.6720   22.8540   37.3040 C   0  0  0  0  0  0  0  0  0  0  0  0
   38.6500   22.8590   36.3710 C   0  0  0  0  0  0  0  0  0  0  0  0
   37.5540   23.2680   37.0620 C   0  0  0  0  0  0  0  0  0  0  0  0
   37.9200   23.4990   38.3740 C   0  0  0  0  0  0  0  0  0  0  0  0
   39.2130   23.2320   38.4650 O   0  0  0  0  0  0  0  0  0  0  0  0
   44.9380   24.7900   37.1000 N   0  0  0  0  0  0  0  0  0  0  0  0
   44.5650   25.5950   38.0730 N   0  0  0  0  0  0  0  0  0  0  0  0
   45.5190   25.8320   38.9540 C   0  0  0  0  0  0  0  0  0  0  0  0
   46.6490   25.1350   38.5630 C   0  0  0  0  0  0  0  0  0  0  0  0
   46.2410   24.4880   37.3840 C   0  0  0  0  0  0  0  0  0  0  0  0
   47.1360   23.6020   36.5840 C   0  0  0  0  0  0  0  0  0  0  0  0
   48.0670   24.1660   35.6570 C   0  0  0  0  0  0  0  0  0  0  0  0
   48.8840   22.6750   34.9700 S   0  0  0  0  0  0  0  0  0  0  0  0
   47.8310   21.5450   36.0510 C   0  0  0  0  0  0  0  0  0  0  0  0
   47.1980   22.2760   36.6090 N   0  0  0  0  0  0  0  0  0  0  0  0
   47.9280   20.0770   36.0520 C   0  0  0  0  0  0  0  0  0  0  0  0
   48.8440   19.3140   35.4760 N   0  0  0  0  0  0  0  0  0  0  0  0
   48.5280   18.0630   35.7430 O   0  0  0  0  0  0  0  0  0  0  0  0
   47.4380   18.0080   36.4710 C   0  0  0  0  0  0  0  0  0  0  0  0
   47.0490   19.2820   36.6720 N   0  0  0  0  0  0  0  0  0  0  0  0
   44.9149   23.9172   35.2175 H   0  0  0  0  0  0  0  0  0  0  0  0
   43.6074   25.1244   35.5543 H   0  0  0  0  0  0  0  0  0  0  0  0
   41.5771   24.5171   36.5890 H   0  0  0  0  0  0  0  0  0  0  0  0
   43.0896   19.8689   36.8760 H   0  0  0  0  0  0  0  0  0  0  0  0
   38.7114   22.5912   35.3059 H   0  0  0  0  0  0  0  0  0  0  0  0
   36.5435   23.3942   36.6461 H   0  0  0  0  0  0  0  0  0  0  0  0
   37.2625   23.8397   39.1874 H   0  0  0  0  0  0  0  0  0  0  0  0
   45.4312   26.4722   39.8442 H   0  0  0  0  0  0  0  0  0  0  0  0
   47.6312   25.0966   39.0568 H   0  0  0  0  0  0  0  0  0  0  0  0
   48.2472   25.2243   35.4171 H   0  0  0  0  0  0  0  0  0  0  0  0
   46.9400   17.1007   36.8437 H   0  0  0  0  0  0  0  0  0  0  0  0
  1  4  1  0
  1 13  1  0
  2  7  1  0
  2  8  1  0
  3  2  2  0
  4  5  2  0
  4  3  1  0
  5  6  1  0
  6  7  2  0
  8 12  1  0
  9 10  1  0
  9  8  2  0
 10 11  2  0
 11 12  1  0
 13 17  1  0
 13 14  1  0
 14 15  2  0
 16 15  1  0
 17 16  2  0
 18 22  1  0
 18 17  1  0
 19 18  2  0
 20 19  1  0
 20 21  1  0
 21 23  1  0
 21 22  2  0
 23 27  1  0
 24 25  1  0
 24 23  2  0
 25 26  1  0
 26 27  2  0
  1 28  1  0
  1 29  1  0
  3 30  1  0
  6 31  1  0
  9 32  1  0
 10 33  1  0
 11 34  1  0
 15 35  1  0
 16 36  1  0
 19 37  1  0
 26 38  1  0
M  ISO  8  28   8  29   8  30  14  31  14  32  14  33  14  34  14  35  14
M  ISO  3  36  14  37  14  38  14
M  END
>  <minimizedAffinity>  (1) 
-4.89846039

>  <minimizedRMSD>  (1) 
0.23796162

$$$$
