
     RDKit          3D

 39 42  0  0  0  0  0  0  0  0999 V2000
   44.2100   24.2980   35.9800 C   0  0  0  0  0  0  0  0  0  0  0  0
   41.0620   22.4760   37.0090 C   0  0  0  0  0  0  0  0  0  0  0  0
   41.9440   23.4780   36.6530 C   0  0  0  0  0  0  0  0  0  0  0  0
   43.2780   23.2000   36.3610 C   0  0  0  0  0  0  0  0  0  0  0  0
   43.6410   21.8940   36.4490 N   0  0  0  0  0  0  0  0  0  0  0  0
   42.7750   20.9120   36.7990 C   0  0  0  0  0  0  0  0  0  0  0  0
   41.4990   21.2440   37.0690 N   0  0  0  0  0  0  0  0  0  0  0  0
   39.6760   22.8520   37.3010 C   0  0  0  0  0  0  0  0  0  0  0  0
   38.6600   22.8560   36.3710 C   0  0  0  0  0  0  0  0  0  0  0  0
   37.5560   23.2630   37.0660 C   0  0  0  0  0  0  0  0  0  0  0  0
   37.9240   23.4930   38.3740 C   0  0  0  0  0  0  0  0  0  0  0  0
   39.2130   23.2300   38.4610 O   0  0  0  0  0  0  0  0  0  0  0  0
   44.9500   24.7850   37.1100 N   0  0  0  0  0  0  0  0  0  0  0  0
   44.5740   25.5940   38.0940 N   0  0  0  0  0  0  0  0  0  0  0  0
   45.5330   25.8270   38.9690 C   0  0  0  0  0  0  0  0  0  0  0  0
   46.6520   25.1340   38.5700 C   0  0  0  0  0  0  0  0  0  0  0  0
   46.2440   24.4840   37.3850 C   0  0  0  0  0  0  0  0  0  0  0  0
   47.1450   23.5990   36.5800 C   0  0  0  0  0  0  0  0  0  0  0  0
   48.1200   24.1780   35.7130 C   0  0  0  0  0  0  0  0  0  0  0  0
   48.9160   22.6920   35.0000 S   0  0  0  0  0  0  0  0  0  0  0  0
   47.7890   21.5440   36.0020 C   0  0  0  0  0  0  0  0  0  0  0  0
   47.1570   22.2740   36.5650 N   0  0  0  0  0  0  0  0  0  0  0  0
   47.8970   20.0570   35.9020 C   0  0  0  0  0  0  0  0  0  0  0  0
   46.6250   19.5080   36.4550 C   0  0  0  0  0  0  0  0  0  0  0  0
   44.9173   23.9196   35.2273 H   0  0  0  0  0  0  0  0  0  0  0  0
   43.6127   25.1297   35.5781 H   0  0  0  0  0  0  0  0  0  0  0  0
   41.5859   24.5167   36.5989 H   0  0  0  0  0  0  0  0  0  0  0  0
   43.1081   19.8655   36.8611 H   0  0  0  0  0  0  0  0  0  0  0  0
   38.7232   22.5905   35.3054 H   0  0  0  0  0  0  0  0  0  0  0  0
   36.5446   23.3862   36.6515 H   0  0  0  0  0  0  0  0  0  0  0  0
   37.2678   23.8313   39.1895 H   0  0  0  0  0  0  0  0  0  0  0  0
   45.4520   26.4643   39.8619 H   0  0  0  0  0  0  0  0  0  0  0  0
   47.6360   25.0952   39.0602 H   0  0  0  0  0  0  0  0  0  0  0  0
   48.3364   25.2396   35.5230 H   0  0  0  0  0  0  0  0  0  0  0  0
   48.0183   19.7535   34.8517 H   0  0  0  0  0  0  0  0  0  0  0  0
   48.7697   19.6808   36.4560 H   0  0  0  0  0  0  0  0  0  0  0  0
   46.6653   19.5254   37.5541 H   0  0  0  0  0  0  0  0  0  0  0  0
   45.7799   20.1215   36.1093 H   0  0  0  0  0  0  0  0  0  0  0  0
   46.4917   18.4723   36.1093 H   0  0  0  0  0  0  0  0  0  0  0  0
  1  4  1  0
  1 13  1  0
  2  7  1  0
  2  8  1  0
  3  2  2  0
  4  5  2  0
  4  3  1  0
  5  6  1  0
  6  7  2  0
  8 12  1  0
  9 10  1  0
  9  8  2  0
 10 11  2  0
 11 12  1  0
 13 17  1  0
 13 14  1  0
 14 15  2  0
 16 15  1  0
 17 16  2  0
 18 17  1  0
 19 18  2  0
 20 19  1  0
 20 21  1  0
 21 22  2  0
 22 18  1  0
 23 21  1  0
 23 24  1  0
  1 25  1  0
  1 26  1  0
  3 27  1  0
  6 28  1  0
  9 29  1  0
 10 30  1  0
 11 31  1  0
 15 32  1  0
 16 33  1  0
 19 34  1  0
 23 35  1  0
 23 36  1  0
 24 37  1  0
 24 38  1  0
 24 39  1  0
M  ISO  8  25   8  26   8  27  14  28  14  29  14  30  14  31  14  32  14
M  ISO  7  33  14  34  14  35   8  36   8  37   8  38   8  39   8
M  END
>  <minimizedAffinity>  (1) 
-4.8669529

>  <minimizedRMSD>  (1) 
0.30111441

$$$$
