
     RDKit          3D

 29 30  0  0  0  0  0  0  0  0999 V2000
   38.2220   26.6170   34.3050 C   0  0  0  0  0  0  0  0  0  0  0  0
   37.0160   27.3870   34.7590 C   0  0  0  0  0  0  0  0  0  0  0  0
   38.6120   27.1310   32.9330 C   0  0  0  0  0  0  0  0  0  0  0  0
   39.3820   27.0580   35.2070 C   0  0  0  0  0  0  0  0  0  0  0  0
   40.6960   26.8350   34.5300 C   0  0  0  0  0  0  0  0  0  0  0  0
   41.5130   25.7810   34.7780 N   0  0  0  0  0  0  0  0  0  0  0  0
   42.5640   25.8890   34.0260 O   0  0  0  0  0  0  0  0  0  0  0  0
   42.5010   26.9500   33.2910 C   0  0  0  0  0  0  0  0  0  0  0  0
   41.3370   27.5550   33.5940 N   0  0  0  0  0  0  0  0  0  0  0  0
   38.1120   24.8550   34.3970 S   0  0  0  0  0  0  0  0  0  0  0  0
   38.0770   23.9410   38.3600 C   0  0  0  0  0  0  0  0  0  0  0  0
   37.7470   24.4900   37.1090 C   0  0  0  0  0  0  0  0  0  0  0  0
   38.5070   24.1710   36.0000 C   0  0  0  0  0  0  0  0  0  0  0  0
   39.5580   23.3260   36.1740 N   0  0  0  0  0  0  0  0  0  0  0  0
   39.8620   22.8090   37.3720 C   0  0  0  0  0  0  0  0  0  0  0  0
   39.1440   23.0990   38.4640 N   0  0  0  0  0  0  0  0  0  0  0  0
   41.2790   21.7140   37.4110 S   0  0  0  0  0  0  0  0  0  0  0  0
   36.9858   27.4063   35.8584 H   0  0  0  0  0  0  0  0  0  0  0  0
   37.0726   28.4165   34.3756 H   0  0  0  0  0  0  0  0  0  0  0  0
   36.1059   26.9025   34.3756 H   0  0  0  0  0  0  0  0  0  0  0  0
   39.2736   28.0029   33.0425 H   0  0  0  0  0  0  0  0  0  0  0  0
   39.1382   26.3386   32.3805 H   0  0  0  0  0  0  0  0  0  0  0  0
   37.7072   27.4244   32.3805 H   0  0  0  0  0  0  0  0  0  0  0  0
   39.2724   28.1279   35.4380 H   0  0  0  0  0  0  0  0  0  0  0  0
   39.3561   26.4618   36.1311 H   0  0  0  0  0  0  0  0  0  0  0  0
   43.2504   27.2915   32.5618 H   0  0  0  0  0  0  0  0  0  0  0  0
   37.4785   24.1890   39.2490 H   0  0  0  0  0  0  0  0  0  0  0  0
   36.8879   25.1703   37.0132 H   0  0  0  0  0  0  0  0  0  0  0  0
   41.6180   21.4520   38.7123 H   0  0  0  0  0  0  0  0  0  0  0  0
  1 10  1  0
  1  2  1  0
  1  4  1  0
  3  1  1  0
  5  6  2  0
  5  4  1  0
  7  6  1  0
  8  9  2  0
  8  7  1  0
  9  5  1  0
 10 13  1  0
 11 16  2  0
 12 11  1  0
 13 14  1  0
 13 12  2  0
 14 15  2  0
 15 17  1  0
 15 16  1  0
  2 18  1  0
  2 19  1  0
  2 20  1  0
  3 21  1  0
  3 22  1  0
  3 23  1  0
  4 24  1  0
  4 25  1  0
  8 26  1  0
 11 27  1  0
 12 28  1  0
 17 29  1  0
M  ISO  8  18   8  19   8  20   8  21   8  22   8  23   8  24   8  25   8
M  ISO  4  26  14  27  14  28  14  29  11
M  END
>  <minimizedAffinity>  (1) 
-4.46452332

>  <minimizedRMSD>  (1) 
0.195046574

$$$$
