
     RDKit          3D

 35 38  0  0  0  0  0  0  0  0999 V2000
   44.2190   24.2750   35.9730 C   0  0  0  0  0  0  0  0  0  0  0  0
   41.0650   22.4710   37.0020 C   0  0  0  0  0  0  0  0  0  0  0  0
   41.9480   23.4660   36.6450 C   0  0  0  0  0  0  0  0  0  0  0  0
   43.2850   23.1780   36.3570 C   0  0  0  0  0  0  0  0  0  0  0  0
   43.6490   21.8660   36.4530 N   0  0  0  0  0  0  0  0  0  0  0  0
   42.7670   20.9050   36.8050 C   0  0  0  0  0  0  0  0  0  0  0  0
   41.4960   21.2410   37.0700 N   0  0  0  0  0  0  0  0  0  0  0  0
   39.6750   22.8500   37.2890 C   0  0  0  0  0  0  0  0  0  0  0  0
   38.6550   22.8560   36.3600 C   0  0  0  0  0  0  0  0  0  0  0  0
   37.5610   23.2730   37.0790 C   0  0  0  0  0  0  0  0  0  0  0  0
   37.9350   23.5010   38.3830 C   0  0  0  0  0  0  0  0  0  0  0  0
   39.2180   23.2300   38.4460 O   0  0  0  0  0  0  0  0  0  0  0  0
   44.9520   24.7670   37.0950 N   0  0  0  0  0  0  0  0  0  0  0  0
   44.5680   25.5760   38.0710 N   0  0  0  0  0  0  0  0  0  0  0  0
   45.5220   25.8210   38.9530 C   0  0  0  0  0  0  0  0  0  0  0  0
   46.6460   25.1310   38.5580 C   0  0  0  0  0  0  0  0  0  0  0  0
   46.2460   24.4780   37.3810 C   0  0  0  0  0  0  0  0  0  0  0  0
   47.1500   23.5930   36.5780 C   0  0  0  0  0  0  0  0  0  0  0  0
   48.0730   24.1850   35.6380 C   0  0  0  0  0  0  0  0  0  0  0  0
   48.9020   22.7040   34.9570 S   0  0  0  0  0  0  0  0  0  0  0  0
   47.8720   21.5570   36.0470 C   0  0  0  0  0  0  0  0  0  0  0  0
   47.2280   22.2720   36.6110 N   0  0  0  0  0  0  0  0  0  0  0  0
   48.1790   20.1030   35.8690 C   0  0  0  0  0  0  0  0  0  0  0  0
   47.9300   19.2550   36.7300 O   0  0  0  0  0  0  0  0  0  0  0  0
   44.9286   23.8923   35.2247 H   0  0  0  0  0  0  0  0  0  0  0  0
   43.6220   25.1042   35.5656 H   0  0  0  0  0  0  0  0  0  0  0  0
   41.5946   24.5060   36.5855 H   0  0  0  0  0  0  0  0  0  0  0  0
   43.0888   19.8554   36.8737 H   0  0  0  0  0  0  0  0  0  0  0  0
   38.7057   22.5895   35.2940 H   0  0  0  0  0  0  0  0  0  0  0  0
   36.5461   23.4039   36.6755 H   0  0  0  0  0  0  0  0  0  0  0  0
   37.2897   23.8414   39.2062 H   0  0  0  0  0  0  0  0  0  0  0  0
   45.4335   26.4614   39.8430 H   0  0  0  0  0  0  0  0  0  0  0  0
   47.6292   25.0987   39.0502 H   0  0  0  0  0  0  0  0  0  0  0  0
   48.2345   25.2458   35.3958 H   0  0  0  0  0  0  0  0  0  0  0  0
   48.6474   19.7759   34.9290 H   0  0  0  0  0  0  0  0  0  0  0  0
  1  4  1  0
  1 13  1  0
  2  7  1  0
  2  8  1  0
  3  2  2  0
  4  5  2  0
  4  3  1  0
  5  6  1  0
  6  7  2  0
  8 12  1  0
  9 10  1  0
  9  8  2  0
 10 11  2  0
 11 12  1  0
 13 17  1  0
 13 14  1  0
 14 15  2  0
 16 15  1  0
 17 16  2  0
 18 22  1  0
 18 17  1  0
 19 18  2  0
 20 19  1  0
 20 21  1  0
 21 22  2  0
 23 21  1  0
 23 24  2  0
  1 25  1  0
  1 26  1  0
  3 27  1  0
  6 28  1  0
  9 29  1  0
 10 30  1  0
 11 31  1  0
 15 32  1  0
 16 33  1  0
 19 34  1  0
 23 35  1  0
M  ISO  8  25   8  26   8  27  14  28  14  29  14  30  14  31  14  32  14
M  ISO  3  33  14  34  14  35   6
M  END
>  <minimizedAffinity>  (1) 
-4.76245546

>  <minimizedRMSD>  (1) 
0.107037216

$$$$
