
     RDKit          3D

 36 39  0  0  0  0  0  0  0  0999 V2000
   44.2110   24.2830   35.9730 C   0  0  0  0  0  0  0  0  0  0  0  0
   41.0610   22.4740   37.0080 C   0  0  0  0  0  0  0  0  0  0  0  0
   41.9440   23.4750   36.6480 C   0  0  0  0  0  0  0  0  0  0  0  0
   43.2830   23.1860   36.3570 C   0  0  0  0  0  0  0  0  0  0  0  0
   43.6430   21.8750   36.4510 N   0  0  0  0  0  0  0  0  0  0  0  0
   42.7670   20.9070   36.8050 C   0  0  0  0  0  0  0  0  0  0  0  0
   41.4960   21.2410   37.0730 N   0  0  0  0  0  0  0  0  0  0  0  0
   39.6750   22.8540   37.2980 C   0  0  0  0  0  0  0  0  0  0  0  0
   38.6520   22.8560   36.3580 C   0  0  0  0  0  0  0  0  0  0  0  0
   37.5600   23.2710   37.0750 C   0  0  0  0  0  0  0  0  0  0  0  0
   37.9260   23.5040   38.3840 C   0  0  0  0  0  0  0  0  0  0  0  0
   39.2090   23.2340   38.4520 O   0  0  0  0  0  0  0  0  0  0  0  0
   44.9500   24.7750   37.1030 N   0  0  0  0  0  0  0  0  0  0  0  0
   44.5660   25.5820   38.0770 N   0  0  0  0  0  0  0  0  0  0  0  0
   45.5270   25.8210   38.9580 C   0  0  0  0  0  0  0  0  0  0  0  0
   46.6480   25.1300   38.5590 C   0  0  0  0  0  0  0  0  0  0  0  0
   46.2470   24.4790   37.3800 C   0  0  0  0  0  0  0  0  0  0  0  0
   47.1470   23.5960   36.5760 C   0  0  0  0  0  0  0  0  0  0  0  0
   48.0890   24.1780   35.6480 C   0  0  0  0  0  0  0  0  0  0  0  0
   48.9000   22.6840   34.9620 S   0  0  0  0  0  0  0  0  0  0  0  0
   47.8390   21.5510   36.0350 C   0  0  0  0  0  0  0  0  0  0  0  0
   47.1990   22.2680   36.6010 N   0  0  0  0  0  0  0  0  0  0  0  0
   48.1480   20.0810   35.8260 C   0  0  0  0  0  0  0  0  0  0  0  0
   48.8490   19.6820   34.8660 O   0  0  0  0  0  0  0  0  0  0  0  0
   47.6170   19.2240   36.7430 O   0  0  0  0  0  0  0  0  0  0  0  0
   44.9193   23.9039   35.2217 H   0  0  0  0  0  0  0  0  0  0  0  0
   43.6123   25.1121   35.5679 H   0  0  0  0  0  0  0  0  0  0  0  0
   41.5893   24.5146   36.5892 H   0  0  0  0  0  0  0  0  0  0  0  0
   43.0931   19.8586   36.8723 H   0  0  0  0  0  0  0  0  0  0  0  0
   38.7056   22.5884   35.2924 H   0  0  0  0  0  0  0  0  0  0  0  0
   36.5460   23.3987   36.6682 H   0  0  0  0  0  0  0  0  0  0  0  0
   37.2763   23.8459   39.2031 H   0  0  0  0  0  0  0  0  0  0  0  0
   45.4432   26.4589   39.8502 H   0  0  0  0  0  0  0  0  0  0  0  0
   47.6317   25.0952   39.0500 H   0  0  0  0  0  0  0  0  0  0  0  0
   48.2713   25.2374   35.4148 H   0  0  0  0  0  0  0  0  0  0  0  0
   47.7809   18.2509   36.6641 H   0  0  0  0  0  0  0  0  0  0  0  0
  1  4  1  0
  1 13  1  0
  2  7  1  0
  2  8  1  0
  3  2  2  0
  4  5  2  0
  4  3  1  0
  5  6  1  0
  6  7  2  0
  8 12  1  0
  9 10  1  0
  9  8  2  0
 10 11  2  0
 11 12  1  0
 13 17  1  0
 13 14  1  0
 14 15  2  0
 16 15  1  0
 17 16  2  0
 18 22  1  0
 18 17  1  0
 19 18  2  0
 20 19  1  0
 20 21  1  0
 21 22  2  0
 23 21  1  0
 23 25  1  0
 24 23  2  0
  1 26  1  0
  1 27  1  0
  3 28  1  0
  6 29  1  0
  9 30  1  0
 10 31  1  0
 11 32  1  0
 15 33  1  0
 16 34  1  0
 19 35  1  0
 25 36  1  0
M  ISO  8  26   8  27   8  28  14  29  14  30  14  31  14  32  14  33  14
M  ISO  3  34  14  35  14  36   3
M  END
>  <minimizedAffinity>  (1) 
-4.79172659

>  <minimizedRMSD>  (1) 
0.124253176

$$$$
