
     RDKit          3D

 49 53  0  0  0  0  0  0  0  0999 V2000
   44.9730   24.7990   37.1890 N   0  0  0  0  0  0  0  0  0  0  0  0
   44.6530   25.5760   38.2120 N   0  0  0  0  0  0  0  0  0  0  0  0
   45.6220   25.7430   39.0750 C   0  0  0  0  0  0  0  0  0  0  0  0
   46.7050   25.0320   38.6260 C   0  0  0  0  0  0  0  0  0  0  0  0
   46.2710   24.4440   37.4320 C   0  0  0  0  0  0  0  0  0  0  0  0
   47.1320   23.5580   36.5740 C   0  0  0  0  0  0  0  0  0  0  0  0
   48.0420   24.1120   35.6560 C   0  0  0  0  0  0  0  0  0  0  0  0
   48.7880   22.6300   34.9190 S   0  0  0  0  0  0  0  0  0  0  0  0
   47.7270   21.4700   35.9900 C   0  0  0  0  0  0  0  0  0  0  0  0
   47.1460   22.2250   36.5680 N   0  0  0  0  0  0  0  0  0  0  0  0
   48.3990   25.3890   35.2910 N   0  0  0  0  0  0  0  0  0  0  0  0
   49.4610   25.6710   34.3550 C   0  0  0  0  0  0  0  0  0  0  0  0
   49.7470   27.1720   34.4880 C   0  0  0  0  0  0  0  0  0  0  0  0
   49.9460   27.4740   35.8340 O   0  0  0  0  0  0  0  0  0  0  0  0
   48.7580   27.4030   36.5590 C   0  0  0  0  0  0  0  0  0  0  0  0
   47.7280   26.5420   35.8240 C   0  0  0  0  0  0  0  0  0  0  0  0
   47.8230   19.9980   35.9040 C   0  0  0  0  0  0  0  0  0  0  0  0
   47.4540   19.5290   34.6610 F   0  0  0  0  0  0  0  0  0  0  0  0
   46.9430   19.5240   36.8670 F   0  0  0  0  0  0  0  0  0  0  0  0
   49.0990   19.5480   36.2690 F   0  0  0  0  0  0  0  0  0  0  0  0
   44.2060   24.3740   36.0460 C   0  0  0  0  0  0  0  0  0  0  0  0
   41.0660   22.5140   36.9990 C   0  0  0  0  0  0  0  0  0  0  0  0
   41.9420   23.5190   36.6760 C   0  0  0  0  0  0  0  0  0  0  0  0
   43.2810   23.2550   36.3920 C   0  0  0  0  0  0  0  0  0  0  0  0
   43.6590   21.9470   36.4550 N   0  0  0  0  0  0  0  0  0  0  0  0
   42.7870   20.9690   36.7740 C   0  0  0  0  0  0  0  0  0  0  0  0
   41.5090   21.2860   37.0370 N   0  0  0  0  0  0  0  0  0  0  0  0
   39.6710   22.8690   37.2850 C   0  0  0  0  0  0  0  0  0  0  0  0
   38.6510   22.8580   36.3520 C   0  0  0  0  0  0  0  0  0  0  0  0
   37.5540   23.2550   37.0730 C   0  0  0  0  0  0  0  0  0  0  0  0
   37.9170   23.4870   38.3720 C   0  0  0  0  0  0  0  0  0  0  0  0
   39.2150   23.2380   38.4490 O   0  0  0  0  0  0  0  0  0  0  0  0
   45.5762   26.3450   39.9945 H   0  0  0  0  0  0  0  0  0  0  0  0
   47.6943   24.9434   39.0986 H   0  0  0  0  0  0  0  0  0  0  0  0
   49.1420   25.4311   33.3300 H   0  0  0  0  0  0  0  0  0  0  0  0
   50.3566   25.0679   34.5649 H   0  0  0  0  0  0  0  0  0  0  0  0
   50.6497   27.4286   33.9142 H   0  0  0  0  0  0  0  0  0  0  0  0
   48.8970   27.7504   34.0970 H   0  0  0  0  0  0  0  0  0  0  0  0
   48.9622   26.9596   37.5447 H   0  0  0  0  0  0  0  0  0  0  0  0
   48.3525   28.4189   36.6749 H   0  0  0  0  0  0  0  0  0  0  0  0
   47.2765   27.1209   35.0048 H   0  0  0  0  0  0  0  0  0  0  0  0
   46.9326   26.2300   36.5168 H   0  0  0  0  0  0  0  0  0  0  0  0
   44.8958   24.0367   35.2583 H   0  0  0  0  0  0  0  0  0  0  0  0
   43.6021   25.2259   35.7001 H   0  0  0  0  0  0  0  0  0  0  0  0
   41.5796   24.5570   36.6403 H   0  0  0  0  0  0  0  0  0  0  0  0
   43.1196   19.9214   36.8183 H   0  0  0  0  0  0  0  0  0  0  0  0
   38.7061   22.5938   35.2856 H   0  0  0  0  0  0  0  0  0  0  0  0
   36.5374   23.3695   36.6688 H   0  0  0  0  0  0  0  0  0  0  0  0
   37.2599   23.8156   39.1907 H   0  0  0  0  0  0  0  0  0  0  0  0
  1  5  1  0
  1  2  1  0
  2  3  2  0
  4  3  1  0
  5  4  2  0
  6  5  1  0
  7  6  2  0
  8  7  1  0
  8  9  1  0
  9 10  2  0
 10  6  1  0
 11  7  1  0
 11 16  1  0
 12 13  1  0
 12 11  1  0
 13 14  1  0
 14 15  1  0
 16 15  1  0
 17  9  1  0
 17 20  1  0
 17 19  1  0
 18 17  1  0
 21 24  1  0
 21  1  1  0
 22 27  1  0
 22 28  1  0
 23 22  2  0
 24 25  2  0
 24 23  1  0
 25 26  1  0
 26 27  2  0
 28 32  1  0
 29 30  1  0
 29 28  2  0
 30 31  2  0
 31 32  1  0
  3 33  1  0
  4 34  1  0
 12 35  1  0
 12 36  1  0
 13 37  1  0
 13 38  1  0
 15 39  1  0
 15 40  1  0
 16 41  1  0
 16 42  1  0
 21 43  1  0
 21 44  1  0
 23 45  1  0
 26 46  1  0
 29 47  1  0
 30 48  1  0
 31 49  1  0
M  ISO  8  33  14  34  14  35  13  36  13  37  13  38  13  39  13  40  13
M  ISO  8  41  13  42  13  43   8  44   8  45  14  46  14  47  14  48  14
M  ISO  1  49  14
M  END
>  <minimizedAffinity>  (1) 
-5.2221899

>  <minimizedRMSD>  (1) 
0.0880628824

$$$$
