
     RDKit          3D

 38 41  0  0  0  0  0  0  0  0999 V2000
   44.1610   24.3990   36.0280 C   0  0  0  0  0  0  0  0  0  0  0  0
   41.0400   22.5130   37.0160 C   0  0  0  0  0  0  0  0  0  0  0  0
   41.9080   23.5230   36.6820 C   0  0  0  0  0  0  0  0  0  0  0  0
   43.2450   23.2720   36.3870 C   0  0  0  0  0  0  0  0  0  0  0  0
   43.6360   21.9560   36.4530 N   0  0  0  0  0  0  0  0  0  0  0  0
   42.7780   20.9750   36.7820 C   0  0  0  0  0  0  0  0  0  0  0  0
   41.4980   21.2790   37.0560 N   0  0  0  0  0  0  0  0  0  0  0  0
   39.6500   22.8520   37.3120 C   0  0  0  0  0  0  0  0  0  0  0  0
   38.6190   22.8050   36.3890 C   0  0  0  0  0  0  0  0  0  0  0  0
   37.5220   23.1990   37.1080 C   0  0  0  0  0  0  0  0  0  0  0  0
   37.8940   23.4690   38.4110 C   0  0  0  0  0  0  0  0  0  0  0  0
   39.1930   23.2370   38.4570 O   0  0  0  0  0  0  0  0  0  0  0  0
   44.9340   24.8360   37.1610 N   0  0  0  0  0  0  0  0  0  0  0  0
   44.5930   25.6150   38.1770 N   0  0  0  0  0  0  0  0  0  0  0  0
   45.5570   25.8080   39.0420 C   0  0  0  0  0  0  0  0  0  0  0  0
   46.6610   25.1130   38.6030 C   0  0  0  0  0  0  0  0  0  0  0  0
   46.2250   24.5120   37.4110 C   0  0  0  0  0  0  0  0  0  0  0  0
   47.0940   23.6400   36.5570 C   0  0  0  0  0  0  0  0  0  0  0  0
   47.9610   24.2100   35.5820 C   0  0  0  0  0  0  0  0  0  0  0  0
   48.7530   22.7450   34.8620 S   0  0  0  0  0  0  0  0  0  0  0  0
   47.7860   21.5770   35.9970 C   0  0  0  0  0  0  0  0  0  0  0  0
   47.1770   22.3140   36.5840 N   0  0  0  0  0  0  0  0  0  0  0  0
   47.9460   20.1100   35.9520 C   0  0  0  0  0  0  0  0  0  0  0  0
   47.6220   19.6020   34.7100 F   0  0  0  0  0  0  0  0  0  0  0  0
   47.0500   19.6150   36.8900 F   0  0  0  0  0  0  0  0  0  0  0  0
   49.2200   19.7090   36.3640 F   0  0  0  0  0  0  0  0  0  0  0  0
   48.1360   25.5750   35.2770 N   0  0  0  0  0  0  0  0  0  0  0  0
   44.8468   24.0631   35.2363 H   0  0  0  0  0  0  0  0  0  0  0  0
   43.5472   25.2445   35.6839 H   0  0  0  0  0  0  0  0  0  0  0  0
   41.5370   24.5580   36.6466 H   0  0  0  0  0  0  0  0  0  0  0  0
   43.1211   19.9308   36.8266 H   0  0  0  0  0  0  0  0  0  0  0  0
   38.6692   22.5187   35.3281 H   0  0  0  0  0  0  0  0  0  0  0  0
   36.5007   23.2871   36.7091 H   0  0  0  0  0  0  0  0  0  0  0  0
   37.2464   23.8053   39.2341 H   0  0  0  0  0  0  0  0  0  0  0  0
   45.4955   26.4168   39.9561 H   0  0  0  0  0  0  0  0  0  0  0  0
   47.6522   25.0444   39.0751 H   0  0  0  0  0  0  0  0  0  0  0  0
   48.8008   25.8575   34.5428 H   0  0  0  0  0  0  0  0  0  0  0  0
   47.5991   26.2899   35.7884 H   0  0  0  0  0  0  0  0  0  0  0  0
  1  4  1  0
  1 13  1  0
  2  7  1  0
  2  8  1  0
  3  2  2  0
  4  5  2  0
  4  3  1  0
  5  6  1  0
  6  7  2  0
  8 12  1  0
  9 10  1  0
  9  8  2  0
 10 11  2  0
 11 12  1  0
 13 17  1  0
 13 14  1  0
 14 15  2  0
 16 15  1  0
 17 16  2  0
 18 22  1  0
 18 17  1  0
 19 18  2  0
 20 19  1  0
 20 21  1  0
 21 22  2  0
 23 21  1  0
 23 26  1  0
 23 25  1  0
 24 23  1  0
 27 19  1  0
  1 28  1  0
  1 29  1  0
  3 30  1  0
  6 31  1  0
  9 32  1  0
 10 33  1  0
 11 34  1  0
 15 35  1  0
 16 36  1  0
 27 37  1  0
 27 38  1  0
M  ISO  8  28   8  29   8  30  14  31  14  32  14  33  14  34  14  35  14
M  ISO  1  36  14
M  END
>  <minimizedAffinity>  (1) 
-5.00364256

>  <minimizedRMSD>  (1) 
0.0947941467

$$$$
