
     RDKit          3D

 42 45  0  0  0  0  0  0  0  0999 V2000
   44.1390   24.4300   36.0510 C   0  0  0  0  0  0  0  0  0  0  0  0
   41.0250   22.5240   37.0250 C   0  0  0  0  0  0  0  0  0  0  0  0
   41.8900   23.5380   36.6980 C   0  0  0  0  0  0  0  0  0  0  0  0
   43.2270   23.3060   36.4020 C   0  0  0  0  0  0  0  0  0  0  0  0
   43.6290   21.9900   36.4560 N   0  0  0  0  0  0  0  0  0  0  0  0
   42.7700   21.0010   36.7770 C   0  0  0  0  0  0  0  0  0  0  0  0
   41.4860   21.3010   37.0540 N   0  0  0  0  0  0  0  0  0  0  0  0
   39.6330   22.8550   37.3240 C   0  0  0  0  0  0  0  0  0  0  0  0
   38.6040   22.8050   36.3930 C   0  0  0  0  0  0  0  0  0  0  0  0
   37.5060   23.1930   37.1210 C   0  0  0  0  0  0  0  0  0  0  0  0
   37.8750   23.4570   38.4190 C   0  0  0  0  0  0  0  0  0  0  0  0
   39.1720   23.2350   38.4770 O   0  0  0  0  0  0  0  0  0  0  0  0
   44.9150   24.8600   37.1920 N   0  0  0  0  0  0  0  0  0  0  0  0
   44.5840   25.6320   38.2140 N   0  0  0  0  0  0  0  0  0  0  0  0
   45.5630   25.8040   39.0680 C   0  0  0  0  0  0  0  0  0  0  0  0
   46.6560   25.1040   38.6150 C   0  0  0  0  0  0  0  0  0  0  0  0
   46.2130   24.5140   37.4220 C   0  0  0  0  0  0  0  0  0  0  0  0
   47.0740   23.6450   36.5630 C   0  0  0  0  0  0  0  0  0  0  0  0
   47.9340   24.2330   35.5990 C   0  0  0  0  0  0  0  0  0  0  0  0
   48.7250   22.7700   34.8560 S   0  0  0  0  0  0  0  0  0  0  0  0
   47.7530   21.5920   35.9810 C   0  0  0  0  0  0  0  0  0  0  0  0
   47.1520   22.3260   36.5730 N   0  0  0  0  0  0  0  0  0  0  0  0
   47.9070   20.1190   35.9190 C   0  0  0  0  0  0  0  0  0  0  0  0
   47.5150   19.6290   34.6840 F   0  0  0  0  0  0  0  0  0  0  0  0
   47.0640   19.6180   36.9040 F   0  0  0  0  0  0  0  0  0  0  0  0
   49.1950   19.7160   36.2450 F   0  0  0  0  0  0  0  0  0  0  0  0
   48.1440   25.6330   35.2720 C   0  0  0  0  0  0  0  0  0  0  0  0
   49.1960   26.2890   36.0760 C   0  0  0  0  0  0  0  0  0  0  0  0
   44.8246   24.0991   35.2569 H   0  0  0  0  0  0  0  0  0  0  0  0
   43.5261   25.2781   35.7117 H   0  0  0  0  0  0  0  0  0  0  0  0
   41.5113   24.5704   36.6693 H   0  0  0  0  0  0  0  0  0  0  0  0
   43.1151   19.9571   36.8124 H   0  0  0  0  0  0  0  0  0  0  0  0
   38.6557   22.5232   35.3310 H   0  0  0  0  0  0  0  0  0  0  0  0
   36.4835   23.2797   36.7247 H   0  0  0  0  0  0  0  0  0  0  0  0
   37.2213   23.7860   39.2402 H   0  0  0  0  0  0  0  0  0  0  0  0
   45.5180   26.4047   39.9884 H   0  0  0  0  0  0  0  0  0  0  0  0
   47.6493   25.0248   39.0808 H   0  0  0  0  0  0  0  0  0  0  0  0
   48.4269   25.7013   34.2112 H   0  0  0  0  0  0  0  0  0  0  0  0
   47.2021   26.1556   35.4950 H   0  0  0  0  0  0  0  0  0  0  0  0
   48.9782   26.1532   37.1456 H   0  0  0  0  0  0  0  0  0  0  0  0
   50.1717   25.8390   35.8404 H   0  0  0  0  0  0  0  0  0  0  0  0
   49.2212   27.3632   35.8404 H   0  0  0  0  0  0  0  0  0  0  0  0
  1  4  1  0
  1 13  1  0
  2  7  1  0
  2  8  1  0
  3  2  2  0
  4  5  2  0
  4  3  1  0
  5  6  1  0
  6  7  2  0
  8 12  1  0
  9 10  1  0
  9  8  2  0
 10 11  2  0
 11 12  1  0
 13 17  1  0
 13 14  1  0
 14 15  2  0
 16 15  1  0
 17 16  2  0
 18 22  1  0
 18 17  1  0
 19 18  2  0
 20 19  1  0
 20 21  1  0
 21 22  2  0
 23 21  1  0
 23 26  1  0
 23 25  1  0
 24 23  1  0
 27 19  1  0
 27 28  1  0
  1 29  1  0
  1 30  1  0
  3 31  1  0
  6 32  1  0
  9 33  1  0
 10 34  1  0
 11 35  1  0
 15 36  1  0
 16 37  1  0
 27 38  1  0
 27 39  1  0
 28 40  1  0
 28 41  1  0
 28 42  1  0
M  ISO  8  29   8  30   8  31  14  32  14  33  14  34  14  35  14  36  14
M  ISO  6  37  14  38   8  39   8  40   8  41   8  42   8
M  END
>  <minimizedAffinity>  (1) 
-4.89770985

>  <minimizedRMSD>  (1) 
0.249733016

$$$$
