
     RDKit          3D

 26 27  0  0  0  0  0  0  0  0999 V2000
   37.3710   22.1670   34.2390 C   0  0  0  0  0  0  0  0  0  0  0  0
   36.4670   21.1090   34.1450 C   0  0  0  0  0  0  0  0  0  0  0  0
   35.8810   21.1290   32.9150 C   0  0  0  0  0  0  0  0  0  0  0  0
   36.4510   22.2160   32.2800 C   0  0  0  0  0  0  0  0  0  0  0  0
   37.3370   22.8100   33.1050 O   0  0  0  0  0  0  0  0  0  0  0  0
   38.1550   22.4070   35.4430 C   0  0  0  0  0  0  0  0  0  0  0  0
   39.4770   22.0380   35.6040 C   0  0  0  0  0  0  0  0  0  0  0  0
   40.1310   22.3110   36.7820 C   0  0  0  0  0  0  0  0  0  0  0  0
   39.4360   22.9450   37.7600 N   0  0  0  0  0  0  0  0  0  0  0  0
   38.1460   23.3040   37.6010 C   0  0  0  0  0  0  0  0  0  0  0  0
   37.4910   23.0390   36.4410 N   0  0  0  0  0  0  0  0  0  0  0  0
   41.5480   21.9320   36.9960 C   0  0  0  0  0  0  0  0  0  0  0  0
   41.6810   21.1510   38.1140 F   0  0  0  0  0  0  0  0  0  0  0  0
   42.0310   21.2580   35.9160 F   0  0  0  0  0  0  0  0  0  0  0  0
   42.2420   23.1350   37.1650 F   0  0  0  0  0  0  0  0  0  0  0  0
   34.8680   20.2340   32.3300 C   0  0  0  0  0  0  0  0  0  0  0  0
   35.1930   18.7560   32.5630 C   0  0  0  0  0  0  0  0  0  0  0  0
   36.2600   20.3751   34.9378 H   0  0  0  0  0  0  0  0  0  0  0  0
   36.2175   22.5465   31.2571 H   0  0  0  0  0  0  0  0  0  0  0  0
   40.0070   21.5249   34.7880 H   0  0  0  0  0  0  0  0  0  0  0  0
   37.6188   23.8167   38.4190 H   0  0  0  0  0  0  0  0  0  0  0  0
   34.8167   20.4182   31.2468 H   0  0  0  0  0  0  0  0  0  0  0  0
   33.9069   20.4482   32.8204 H   0  0  0  0  0  0  0  0  0  0  0  0
   35.2369   18.5562   33.6438 H   0  0  0  0  0  0  0  0  0  0  0  0
   34.4106   18.1321   32.1063 H   0  0  0  0  0  0  0  0  0  0  0  0
   36.1650   18.5179   32.1063 H   0  0  0  0  0  0  0  0  0  0  0  0
  1  6  1  0
  2  1  2  0
  3  2  1  0
  4  3  2  0
  4  5  1  0
  5  1  1  0
  6  7  2  0
  6 11  1  0
  7  8  1  0
  8 12  1  0
  8  9  2  0
 10  9  1  0
 11 10  2  0
 12 15  1  0
 12 13  1  0
 14 12  1  0
 16 17  1  0
 16  3  1  0
  2 18  1  0
  4 19  1  0
  7 20  1  0
 10 21  1  0
 16 22  1  0
 16 23  1  0
 17 24  1  0
 17 25  1  0
 17 26  1  0
M  ISO  8  18  14  19  14  20  14  21  14  22   8  23   8  24   8  25   8
M  ISO  1  26   8
M  END
>  <minimizedAffinity>  (1) 
-4.72332478

>  <minimizedRMSD>  (1) 
0.858027995

$$$$
