
     RDKit          3D

 37 39  0  0  0  0  0  0  0  0999 V2000
   38.1300   22.4200   35.4260 C   0  0  0  0  0  0  0  0  0  0  0  0
   39.4870   22.1920   35.5670 C   0  0  0  0  0  0  0  0  0  0  0  0
   40.1380   22.4920   36.7370 C   0  0  0  0  0  0  0  0  0  0  0  0
   39.4200   23.0160   37.7470 N   0  0  0  0  0  0  0  0  0  0  0  0
   38.0830   23.2440   37.6200 C   0  0  0  0  0  0  0  0  0  0  0  0
   37.4490   22.9450   36.4600 N   0  0  0  0  0  0  0  0  0  0  0  0
   41.5290   22.2770   36.9330 N   0  0  0  0  0  0  0  0  0  0  0  0
   42.5710   23.2270   36.6410 C   0  0  0  0  0  0  0  0  0  0  0  0
   43.8470   22.5800   36.1510 C   0  0  0  0  0  0  0  0  0  0  0  0
   43.6580   21.2510   35.6330 N   0  0  0  0  0  0  0  0  0  0  0  0
   43.0310   20.3540   36.5670 C   0  0  0  0  0  0  0  0  0  0  0  0
   42.0290   21.0440   37.4600 C   0  0  0  0  0  0  0  0  0  0  0  0
   37.3640   22.1370   34.2360 C   0  0  0  0  0  0  0  0  0  0  0  0
   36.4690   21.0680   34.1770 C   0  0  0  0  0  0  0  0  0  0  0  0
   35.8830   21.0350   32.9360 C   0  0  0  0  0  0  0  0  0  0  0  0
   36.4510   22.1000   32.2790 C   0  0  0  0  0  0  0  0  0  0  0  0
   37.3190   22.7190   33.0870 O   0  0  0  0  0  0  0  0  0  0  0  0
   34.8730   20.0830   32.4090 C   0  0  0  0  0  0  0  0  0  0  0  0
   35.2690   18.6280   32.6540 C   0  0  0  0  0  0  0  0  0  0  0  0
   40.0536   21.7631   34.7273 H   0  0  0  0  0  0  0  0  0  0  0  0
   37.5168   23.6716   38.4606 H   0  0  0  0  0  0  0  0  0  0  0  0
   42.2080   23.9163   35.8644 H   0  0  0  0  0  0  0  0  0  0  0  0
   42.8090   23.7497   37.5792 H   0  0  0  0  0  0  0  0  0  0  0  0
   44.2704   23.2072   35.3527 H   0  0  0  0  0  0  0  0  0  0  0  0
   44.5188   22.4953   37.0179 H   0  0  0  0  0  0  0  0  0  0  0  0
   43.0673   21.3102   34.7913 H   0  0  0  0  0  0  0  0  0  0  0  0
   42.5132   19.5647   36.0023 H   0  0  0  0  0  0  0  0  0  0  0  0
   43.8214   19.9434   37.2125 H   0  0  0  0  0  0  0  0  0  0  0  0
   42.5126   21.2519   38.4259 H   0  0  0  0  0  0  0  0  0  0  0  0
   41.1676   20.3663   37.5535 H   0  0  0  0  0  0  0  0  0  0  0  0
   36.2651   20.3627   34.9961 H   0  0  0  0  0  0  0  0  0  0  0  0
   36.2258   22.3985   31.2445 H   0  0  0  0  0  0  0  0  0  0  0  0
   34.7659   20.2435   31.3261 H   0  0  0  0  0  0  0  0  0  0  0  0
   33.9259   20.2688   32.9366 H   0  0  0  0  0  0  0  0  0  0  0  0
   35.3204   18.4393   33.7365 H   0  0  0  0  0  0  0  0  0  0  0  0
   34.5193   17.9627   32.2010 H   0  0  0  0  0  0  0  0  0  0  0  0
   36.2525   18.4344   32.2010 H   0  0  0  0  0  0  0  0  0  0  0  0
  1  2  2  0
  1  6  1  0
  2  3  1  0
  3  7  1  0
  3  4  2  0
  5  4  1  0
  6  5  2  0
  7 12  1  0
  8  7  1  0
  9  8  1  0
 10  9  1  0
 10 11  1  0
 11 12  1  0
 13  1  1  0
 14 13  2  0
 15 14  1  0
 16 15  2  0
 16 17  1  0
 17 13  1  0
 18 19  1  0
 18 15  1  0
  2 20  1  0
  5 21  1  0
  8 22  1  0
  8 23  1  0
  9 24  1  0
  9 25  1  0
 10 26  1  0
 11 27  1  0
 11 28  1  0
 12 29  1  0
 12 30  1  0
 14 31  1  0
 16 32  1  0
 18 33  1  0
 18 34  1  0
 19 35  1  0
 19 36  1  0
 19 37  1  0
M  ISO  8  20  14  21  14  22  13  23  13  24  13  25  13  26   5  27  13
M  ISO  8  28  13  29  13  30  13  31  14  32  14  33   8  34   8  35   8
M  ISO  2  36   8  37   8
M  END
>  <minimizedAffinity>  (1) 
-5.00507116

>  <minimizedRMSD>  (1) 
0.899858952

$$$$
