
     RDKit          3D

 31 33  0  0  0  0  0  0  0  0999 V2000
   38.0830   22.5250   34.7980 C   0  0  0  0  0  0  0  0  0  0  0  0
   39.4050   22.9300   34.7610 C   0  0  0  0  0  0  0  0  0  0  0  0
   40.0360   23.3580   35.9060 C   0  0  0  0  0  0  0  0  0  0  0  0
   39.3290   23.3710   37.0530 N   0  0  0  0  0  0  0  0  0  0  0  0
   38.0210   22.9700   37.0880 C   0  0  0  0  0  0  0  0  0  0  0  0
   37.4170   22.5550   35.9680 N   0  0  0  0  0  0  0  0  0  0  0  0
   37.3190   22.0590   33.6550 C   0  0  0  0  0  0  0  0  0  0  0  0
   36.3810   21.0590   33.7570 C   0  0  0  0  0  0  0  0  0  0  0  0
   35.8280   20.8420   32.5080 C   0  0  0  0  0  0  0  0  0  0  0  0
   36.4780   21.7450   31.6870 C   0  0  0  0  0  0  0  0  0  0  0  0
   37.3540   22.4490   32.4070 O   0  0  0  0  0  0  0  0  0  0  0  0
   34.7720   19.8570   32.1250 C   0  0  0  0  0  0  0  0  0  0  0  0
   35.1790   18.4310   32.5290 C   0  0  0  0  0  0  0  0  0  0  0  0
   41.4190   23.7760   35.8420 C   0  0  0  0  0  0  0  0  0  0  0  0
   42.4030   23.0870   36.5360 C   0  0  0  0  0  0  0  0  0  0  0  0
   43.6710   23.6090   36.3710 C   0  0  0  0  0  0  0  0  0  0  0  0
   43.9750   24.6840   35.6200 N   0  0  0  0  0  0  0  0  0  0  0  0
   42.9900   25.3140   34.9700 C   0  0  0  0  0  0  0  0  0  0  0  0
   41.7330   24.8500   35.0930 N   0  0  0  0  0  0  0  0  0  0  0  0
   39.9558   22.9097   33.8091 H   0  0  0  0  0  0  0  0  0  0  0  0
   37.4656   22.9888   38.0373 H   0  0  0  0  0  0  0  0  0  0  0  0
   36.1146   20.5210   34.6787 H   0  0  0  0  0  0  0  0  0  0  0  0
   36.3007   21.8646   30.6080 H   0  0  0  0  0  0  0  0  0  0  0  0
   33.8325   20.1207   32.6326 H   0  0  0  0  0  0  0  0  0  0  0  0
   34.6412   19.8890   31.0333 H   0  0  0  0  0  0  0  0  0  0  0  0
   35.2013   18.3529   33.6260 H   0  0  0  0  0  0  0  0  0  0  0  0
   34.4498   17.7132   32.1251 H   0  0  0  0  0  0  0  0  0  0  0  0
   36.1772   18.2062   32.1251 H   0  0  0  0  0  0  0  0  0  0  0  0
   42.1927   22.2060   37.1602 H   0  0  0  0  0  0  0  0  0  0  0  0
   44.4977   23.1066   36.8946 H   0  0  0  0  0  0  0  0  0  0  0  0
   43.2037   26.1948   34.3467 H   0  0  0  0  0  0  0  0  0  0  0  0
  1  6  1  0
  2  1  2  0
  2  3  1  0
  3  4  2  0
  4  5  1  0
  6  5  2  0
  7  8  2  0
  7  1  1  0
  9  8  1  0
 10 11  1  0
 10  9  2  0
 11  7  1  0
 12  9  1  0
 12 13  1  0
 14  3  1  0
 14 15  2  0
 16 15  1  0
 17 16  2  0
 18 19  2  0
 18 17  1  0
 19 14  1  0
  2 20  1  0
  5 21  1  0
  8 22  1  0
 10 23  1  0
 12 24  1  0
 12 25  1  0
 13 26  1  0
 13 27  1  0
 13 28  1  0
 15 29  1  0
 16 30  1  0
 18 31  1  0
M  ISO  8  20  14  21  14  22  14  23  14  24   8  25   8  26   8  27   8
M  ISO  4  28   8  29  14  30  14  31  14
M  END
>  <minimizedAffinity>  (1) 
-4.57179403

>  <minimizedRMSD>  (1) 
2.0276351

$$$$
