
     RDKit          3D

 30 32  0  0  0  0  0  0  0  0999 V2000
   38.0240   22.3790   35.1350 C   0  0  0  0  0  0  0  0  0  0  0  0
   39.3970   22.2130   35.1840 C   0  0  0  0  0  0  0  0  0  0  0  0
   40.0890   22.5150   36.3410 C   0  0  0  0  0  0  0  0  0  0  0  0
   39.3910   22.9690   37.4000 N   0  0  0  0  0  0  0  0  0  0  0  0
   38.0400   23.1330   37.3560 C   0  0  0  0  0  0  0  0  0  0  0  0
   37.3700   22.8410   36.2360 N   0  0  0  0  0  0  0  0  0  0  0  0
   37.1850   22.0990   33.9860 C   0  0  0  0  0  0  0  0  0  0  0  0
   36.3560   21.0000   33.9200 C   0  0  0  0  0  0  0  0  0  0  0  0
   35.6890   20.9910   32.7280 C   0  0  0  0  0  0  0  0  0  0  0  0
   36.1550   22.1210   32.0930 C   0  0  0  0  0  0  0  0  0  0  0  0
   37.0450   22.7600   32.8690 O   0  0  0  0  0  0  0  0  0  0  0  0
   34.6970   20.0180   32.2050 C   0  0  0  0  0  0  0  0  0  0  0  0
   35.1270   18.5760   32.4430 C   0  0  0  0  0  0  0  0  0  0  0  0
   41.5360   22.3390   36.3860 C   0  0  0  0  0  0  0  0  0  0  0  0
   42.4770   23.3470   36.3240 C   0  0  0  0  0  0  0  0  0  0  0  0
   43.6840   22.6710   36.4040 C   0  0  0  0  0  0  0  0  0  0  0  0
   43.4740   21.3310   36.5080 N   0  0  0  0  0  0  0  0  0  0  0  0
   42.1520   21.1590   36.4940 N   0  0  0  0  0  0  0  0  0  0  0  0
   39.9376   21.8405   34.3014 H   0  0  0  0  0  0  0  0  0  0  0  0
   37.5008   23.5049   38.2398 H   0  0  0  0  0  0  0  0  0  0  0  0
   36.2475   20.2424   34.7101 H   0  0  0  0  0  0  0  0  0  0  0  0
   35.8423   22.4529   31.0920 H   0  0  0  0  0  0  0  0  0  0  0  0
   34.5789   20.1788   31.1232 H   0  0  0  0  0  0  0  0  0  0  0  0
   33.7492   20.1810   32.7389 H   0  0  0  0  0  0  0  0  0  0  0  0
   35.1842   18.3842   33.5246 H   0  0  0  0  0  0  0  0  0  0  0  0
   34.3930   17.8946   31.9881 H   0  0  0  0  0  0  0  0  0  0  0  0
   36.1143   18.4080   31.9881 H   0  0  0  0  0  0  0  0  0  0  0  0
   42.3086   24.4302   36.2327 H   0  0  0  0  0  0  0  0  0  0  0  0
   44.6736   23.1509   36.3859 H   0  0  0  0  0  0  0  0  0  0  0  0
   44.1923   20.5966   36.5826 H   0  0  0  0  0  0  0  0  0  0  0  0
  1  2  2  0
  1  6  1  0
  2  3  1  0
  3 14  1  0
  3  4  2  0
  5  4  1  0
  6  5  2  0
  7  1  1  0
  8  7  2  0
  9  8  1  0
 10  9  2  0
 10 11  1  0
 11  7  1  0
 12 13  1  0
 12  9  1  0
 14 18  2  0
 15 14  1  0
 15 16  2  0
 16 17  1  0
 18 17  1  0
  2 19  1  0
  5 20  1  0
  8 21  1  0
 10 22  1  0
 12 23  1  0
 12 24  1  0
 13 25  1  0
 13 26  1  0
 13 27  1  0
 15 28  1  0
 16 29  1  0
 17 30  1  0
M  ISO  8  19  14  20  14  21  14  22  14  23   8  24   8  25   8  26   8
M  ISO  4  27   8  28  14  29  14  30   9
M  END
>  <minimizedAffinity>  (1) 
-4.45662308

>  <minimizedRMSD>  (1) 
1.24505198

$$$$
