
     RDKit          3D

 30 32  0  0  0  0  0  0  0  0999 V2000
   37.4090   22.0610   34.4580 C   0  0  0  0  0  0  0  0  0  0  0  0
   36.4380   21.0600   34.4240 C   0  0  0  0  0  0  0  0  0  0  0  0
   35.9620   20.9440   33.1390 C   0  0  0  0  0  0  0  0  0  0  0  0
   36.6770   21.8970   32.4370 C   0  0  0  0  0  0  0  0  0  0  0  0
   37.5180   22.5340   33.2480 O   0  0  0  0  0  0  0  0  0  0  0  0
   38.0950   22.4120   35.6870 C   0  0  0  0  0  0  0  0  0  0  0  0
   39.4780   22.2980   35.8700 C   0  0  0  0  0  0  0  0  0  0  0  0
   40.0220   22.6600   37.0790 C   0  0  0  0  0  0  0  0  0  0  0  0
   39.2160   23.1130   38.0540 N   0  0  0  0  0  0  0  0  0  0  0  0
   37.8700   23.2190   37.8610 C   0  0  0  0  0  0  0  0  0  0  0  0
   37.3090   22.8710   36.6840 N   0  0  0  0  0  0  0  0  0  0  0  0
   41.4780   22.5430   37.2790 C   0  0  0  0  0  0  0  0  0  0  0  0
   41.9310   21.0970   37.5020 C   0  0  0  0  0  0  0  0  0  0  0  0
   42.3730   21.8760   36.3220 C   0  0  0  0  0  0  0  0  0  0  0  0
   34.9300   20.0300   32.6020 C   0  0  0  0  0  0  0  0  0  0  0  0
   35.3300   18.5710   32.7210 C   0  0  0  0  0  0  0  0  0  0  0  0
   36.1069   20.4609   35.2850 H   0  0  0  0  0  0  0  0  0  0  0  0
   36.5663   22.0996   31.3615 H   0  0  0  0  0  0  0  0  0  0  0  0
   40.1197   21.9243   35.0585 H   0  0  0  0  0  0  0  0  0  0  0  0
   37.2330   23.5933   38.6759 H   0  0  0  0  0  0  0  0  0  0  0  0
   41.5402   23.5307   37.7592 H   0  0  0  0  0  0  0  0  0  0  0  0
   42.6424   20.8566   38.3058 H   0  0  0  0  0  0  0  0  0  0  0  0
   41.4300   20.1314   37.6651 H   0  0  0  0  0  0  0  0  0  0  0  0
   41.9976   21.6085   35.3232 H   0  0  0  0  0  0  0  0  0  0  0  0
   43.3567   22.1245   35.8969 H   0  0  0  0  0  0  0  0  0  0  0  0
   34.7673   20.2661   31.5400 H   0  0  0  0  0  0  0  0  0  0  0  0
   34.0135   20.1754   33.1926 H   0  0  0  0  0  0  0  0  0  0  0  0
   35.4051   18.2969   33.7837 H   0  0  0  0  0  0  0  0  0  0  0  0
   34.5712   17.9418   32.2328 H   0  0  0  0  0  0  0  0  0  0  0  0
   36.3036   18.4167   32.2328 H   0  0  0  0  0  0  0  0  0  0  0  0
  1  6  1  0
  2  1  2  0
  3  2  1  0
  4  3  2  0
  4  5  1  0
  5  1  1  0
  6  7  2  0
  6 11  1  0
  7  8  1  0
  8 12  1  0
  8  9  2  0
 10  9  1  0
 11 10  2  0
 12 13  1  0
 14 12  1  0
 14 13  1  0
 15 16  1  0
 15  3  1  0
  2 17  1  0
  4 18  1  0
  7 19  1  0
 10 20  1  0
 12 21  1  0
 13 22  1  0
 13 23  1  0
 14 24  1  0
 14 25  1  0
 15 26  1  0
 15 27  1  0
 16 28  1  0
 16 29  1  0
 16 30  1  0
M  ISO  8  17  14  18  14  19  14  20  14  21  13  22  13  23  13  24  13
M  ISO  6  25  13  26   8  27   8  28   8  29   8  30   8
M  END
>  <minimizedAffinity>  (1) 
-4.59510612

>  <minimizedRMSD>  (1) 
0.595446765

$$$$
