
     RDKit          3D

 35 36  0  0  0  0  0  0  0  0999 V2000
   37.0090   22.3700   32.9190 C   0  0  0  0  0  0  0  0  0  0  0  0
   36.2650   21.2500   33.2800 C   0  0  0  0  0  0  0  0  0  0  0  0
   35.6060   20.7700   32.1780 C   0  0  0  0  0  0  0  0  0  0  0  0
   35.9910   21.6410   31.1740 C   0  0  0  0  0  0  0  0  0  0  0  0
   36.8210   22.5710   31.6610 O   0  0  0  0  0  0  0  0  0  0  0  0
   37.8100   23.0820   33.9000 C   0  0  0  0  0  0  0  0  0  0  0  0
   38.1410   24.4230   33.8290 C   0  0  0  0  0  0  0  0  0  0  0  0
   38.9050   25.0200   34.8040 C   0  0  0  0  0  0  0  0  0  0  0  0
   39.3170   24.2450   35.8310 N   0  0  0  0  0  0  0  0  0  0  0  0
   38.9930   22.9240   35.9070 C   0  0  0  0  0  0  0  0  0  0  0  0
   38.2450   22.3360   34.9540 N   0  0  0  0  0  0  0  0  0  0  0  0
   39.2700   26.4400   34.7500 C   0  0  0  0  0  0  0  0  0  0  0  0
   38.6730   27.2310   35.9020 C   0  0  0  0  0  0  0  0  0  0  0  0
   38.7960   27.0770   33.4430 C   0  0  0  0  0  0  0  0  0  0  0  0
   40.7810   26.5430   34.7640 C   0  0  0  0  0  0  0  0  0  0  0  0
   34.6970   19.6180   32.0200 C   0  0  0  0  0  0  0  0  0  0  0  0
   35.2720   18.3470   32.6540 C   0  0  0  0  0  0  0  0  0  0  0  0
   36.2140   20.8182   34.2904 H   0  0  0  0  0  0  0  0  0  0  0  0
   35.6621   21.5780   30.1262 H   0  0  0  0  0  0  0  0  0  0  0  0
   37.7868   25.0226   32.9775 H   0  0  0  0  0  0  0  0  0  0  0  0
   39.3481   22.3280   36.7606 H   0  0  0  0  0  0  0  0  0  0  0  0
   39.0026   26.7943   36.8563 H   0  0  0  0  0  0  0  0  0  0  0  0
   39.0090   28.2767   35.8418 H   0  0  0  0  0  0  0  0  0  0  0  0
   37.5753   27.1946   35.8418 H   0  0  0  0  0  0  0  0  0  0  0  0
   38.1532   27.9408   33.6681 H   0  0  0  0  0  0  0  0  0  0  0  0
   39.6675   27.4104   32.8604 H   0  0  0  0  0  0  0  0  0  0  0  0
   38.2264   26.3380   32.8604 H   0  0  0  0  0  0  0  0  0  0  0  0
   41.1372   26.5673   35.8044 H   0  0  0  0  0  0  0  0  0  0  0  0
   41.2127   25.6722   34.2489 H   0  0  0  0  0  0  0  0  0  0  0  0
   41.0905   27.4643   34.2489 H   0  0  0  0  0  0  0  0  0  0  0  0
   33.7369   19.8534   32.5026 H   0  0  0  0  0  0  0  0  0  0  0  0
   34.5643   19.4328   30.9439 H   0  0  0  0  0  0  0  0  0  0  0  0
   35.2327   18.4338   33.7499 H   0  0  0  0  0  0  0  0  0  0  0  0
   34.6797   17.4772   32.3336 H   0  0  0  0  0  0  0  0  0  0  0  0
   36.3163   18.2176   32.3336 H   0  0  0  0  0  0  0  0  0  0  0  0
  1  2  2  0
  1  6  1  0
  3  2  1  0
  4  5  1  0
  4  3  2  0
  5  1  1  0
  6 11  1  0
  7  6  2  0
  7  8  1  0
  8  9  2  0
  9 10  1  0
 11 10  2  0
 12 15  1  0
 12  8  1  0
 12 13  1  0
 14 12  1  0
 16  3  1  0
 16 17  1  0
  2 18  1  0
  4 19  1  0
  7 20  1  0
 10 21  1  0
 13 22  1  0
 13 23  1  0
 13 24  1  0
 14 25  1  0
 14 26  1  0
 14 27  1  0
 15 28  1  0
 15 29  1  0
 15 30  1  0
 16 31  1  0
 16 32  1  0
 17 33  1  0
 17 34  1  0
 17 35  1  0
M  ISO  8  18  14  19  14  20  14  21  14  22   8  23   8  24   8  25   8
M  ISO  8  26   8  27   8  28   8  29   8  30   8  31   8  32   8  33   8
M  ISO  2  34   8  35   8
M  END
>  <minimizedAffinity>  (1) 
-4.82320166

>  <minimizedRMSD>  (1) 
3.60330033

$$$$
