
     RDKit          3D

 51 53  0  0  0  0  0  0  0  0999 V2000
   37.7920   23.0890   33.8840 C   0  0  0  0  0  0  0  0  0  0  0  0
   38.1260   24.4290   33.8210 C   0  0  0  0  0  0  0  0  0  0  0  0
   38.8900   25.0310   34.7900 C   0  0  0  0  0  0  0  0  0  0  0  0
   39.3010   24.2510   35.8100 N   0  0  0  0  0  0  0  0  0  0  0  0
   38.9790   22.9250   35.8870 C   0  0  0  0  0  0  0  0  0  0  0  0
   38.2310   22.3430   34.9340 N   0  0  0  0  0  0  0  0  0  0  0  0
   36.9910   22.3770   32.9020 C   0  0  0  0  0  0  0  0  0  0  0  0
   36.3200   21.1980   33.2380 C   0  0  0  0  0  0  0  0  0  0  0  0
   35.6510   20.7450   32.1430 C   0  0  0  0  0  0  0  0  0  0  0  0
   35.9470   21.6880   31.1610 C   0  0  0  0  0  0  0  0  0  0  0  0
   36.7430   22.6370   31.6560 O   0  0  0  0  0  0  0  0  0  0  0  0
   34.8010   19.5510   31.9700 C   0  0  0  0  0  0  0  0  0  0  0  0
   35.2510   18.4080   32.8660 C   0  0  0  0  0  0  0  0  0  0  0  0
   35.7670   17.3070   32.0050 C   0  0  0  0  0  0  0  0  0  0  0  0
   35.3800   15.9630   32.5180 C   0  0  0  0  0  0  0  0  0  0  0  0
   35.9290   14.7980   31.7810 C   0  0  0  0  0  0  0  0  0  0  0  0
   37.2820   14.9400   31.1920 C   0  0  0  0  0  0  0  0  0  0  0  0
   37.6520   16.3510   30.8210 C   0  0  0  0  0  0  0  0  0  0  0  0
   37.2990   17.3240   31.9240 C   0  0  0  0  0  0  0  0  0  0  0  0
   39.2500   26.4470   34.7330 C   0  0  0  0  0  0  0  0  0  0  0  0
   38.6630   27.2320   35.9000 C   0  0  0  0  0  0  0  0  0  0  0  0
   38.7760   27.0910   33.4460 C   0  0  0  0  0  0  0  0  0  0  0  0
   40.7670   26.5430   34.7620 C   0  0  0  0  0  0  0  0  0  0  0  0
   37.7698   25.0295   32.9710 H   0  0  0  0  0  0  0  0  0  0  0  0
   39.3361   22.3273   36.7386 H   0  0  0  0  0  0  0  0  0  0  0  0
   36.3309   20.7151   34.2263 H   0  0  0  0  0  0  0  0  0  0  0  0
   35.5772   21.6547   30.1256 H   0  0  0  0  0  0  0  0  0  0  0  0
   33.7624   19.8130   32.2204 H   0  0  0  0  0  0  0  0  0  0  0  0
   34.8819   19.2201   30.9241 H   0  0  0  0  0  0  0  0  0  0  0  0
   36.0476   18.7564   33.5399 H   0  0  0  0  0  0  0  0  0  0  0  0
   34.4058   18.0484   33.4712 H   0  0  0  0  0  0  0  0  0  0  0  0
   35.3201   17.4802   31.0149 H   0  0  0  0  0  0  0  0  0  0  0  0
   35.7207   15.8911   33.5614 H   0  0  0  0  0  0  0  0  0  0  0  0
   34.2888   15.9030   32.3931 H   0  0  0  0  0  0  0  0  0  0  0  0
   35.9610   13.9500   32.4809 H   0  0  0  0  0  0  0  0  0  0  0  0
   35.2586   14.6691   30.9185 H   0  0  0  0  0  0  0  0  0  0  0  0
   38.0164   14.5725   31.9238 H   0  0  0  0  0  0  0  0  0  0  0  0
   37.2811   14.3590   30.2579 H   0  0  0  0  0  0  0  0  0  0  0  0
   38.7350   16.3994   30.6345 H   0  0  0  0  0  0  0  0  0  0  0  0
   37.0870   16.6307   29.9196 H   0  0  0  0  0  0  0  0  0  0  0  0
   37.7388   17.0000   32.8788 H   0  0  0  0  0  0  0  0  0  0  0  0
   37.6874   18.3328   31.7204 H   0  0  0  0  0  0  0  0  0  0  0  0
   38.9973   26.7849   36.8478 H   0  0  0  0  0  0  0  0  0  0  0  0
   39.0033   28.2767   35.8473 H   0  0  0  0  0  0  0  0  0  0  0  0
   37.5647   27.2010   35.8473 H   0  0  0  0  0  0  0  0  0  0  0  0
   38.1391   27.9563   33.6819 H   0  0  0  0  0  0  0  0  0  0  0  0
   39.6457   27.4245   32.8609 H   0  0  0  0  0  0  0  0  0  0  0  0
   38.1990   26.3597   32.8609 H   0  0  0  0  0  0  0  0  0  0  0  0
   41.1131   26.5649   35.8059 H   0  0  0  0  0  0  0  0  0  0  0  0
   41.1995   25.6704   34.2505 H   0  0  0  0  0  0  0  0  0  0  0  0
   41.0860   27.4631   34.2505 H   0  0  0  0  0  0  0  0  0  0  0  0
  1  6  1  0
  2  1  2  0
  2  3  1  0
  3  4  2  0
  4  5  1  0
  6  5  2  0
  7  8  2  0
  7  1  1  0
  9  8  1  0
 10 11  1  0
 10  9  2  0
 11  7  1  0
 12  9  1  0
 12 13  1  0
 14 15  1  0
 14 13  1  0
 16 15  1  0
 17 16  1  0
 18 17  1  0
 18 19  1  0
 19 14  1  0
 20 23  1  0
 20  3  1  0
 20 21  1  0
 22 20  1  0
  2 24  1  0
  5 25  1  0
  8 26  1  0
 10 27  1  0
 12 28  1  0
 12 29  1  0
 13 30  1  0
 13 31  1  0
 14 32  1  0
 15 33  1  0
 15 34  1  0
 16 35  1  0
 16 36  1  0
 17 37  1  0
 17 38  1  0
 18 39  1  0
 18 40  1  0
 19 41  1  0
 19 42  1  0
 21 43  1  0
 21 44  1  0
 21 45  1  0
 22 46  1  0
 22 47  1  0
 22 48  1  0
 23 49  1  0
 23 50  1  0
 23 51  1  0
M  ISO  8  24  14  25  14  26  14  27  14  28   8  29   8  30   8  31   8
M  ISO  8  32  13  33  13  34  13  35  13  36  13  37  13  38  13  39  13
M  ISO  8  40  13  41  13  42  13  43   8  44   8  45   8  46   8  47   8
M  ISO  4  48   8  49   8  50   8  51   8
M  END
>  <minimizedAffinity>  (1) 
-5.27051258

>  <minimizedRMSD>  (1) 
1.30498731

$$$$
