
     RDKit          3D

 45 47  0  0  0  0  0  0  0  0999 V2000
   36.9580   22.4690   32.9020 C   0  0  0  0  0  0  0  0  0  0  0  0
   36.3090   21.2770   33.2300 C   0  0  0  0  0  0  0  0  0  0  0  0
   35.6050   20.8400   32.1270 C   0  0  0  0  0  0  0  0  0  0  0  0
   35.8700   21.8130   31.1660 C   0  0  0  0  0  0  0  0  0  0  0  0
   36.6690   22.7510   31.6680 O   0  0  0  0  0  0  0  0  0  0  0  0
   37.7830   23.1830   33.8510 C   0  0  0  0  0  0  0  0  0  0  0  0
   38.1510   24.5050   33.7860 C   0  0  0  0  0  0  0  0  0  0  0  0
   38.9410   25.0840   34.7420 C   0  0  0  0  0  0  0  0  0  0  0  0
   39.3510   24.2980   35.7640 N   0  0  0  0  0  0  0  0  0  0  0  0
   38.9980   22.9830   35.8480 C   0  0  0  0  0  0  0  0  0  0  0  0
   38.2210   22.4220   34.9050 N   0  0  0  0  0  0  0  0  0  0  0  0
   39.3370   26.4980   34.6760 C   0  0  0  0  0  0  0  0  0  0  0  0
   38.7240   27.3230   35.7800 C   0  0  0  0  0  0  0  0  0  0  0  0
   38.9450   27.1160   33.3400 C   0  0  0  0  0  0  0  0  0  0  0  0
   40.8560   26.5530   34.7710 C   0  0  0  0  0  0  0  0  0  0  0  0
   34.7690   19.6340   31.9930 C   0  0  0  0  0  0  0  0  0  0  0  0
   35.2510   18.4880   32.8680 C   0  0  0  0  0  0  0  0  0  0  0  0
   35.8010   17.4200   32.0140 C   0  0  0  0  0  0  0  0  0  0  0  0
   36.6200   17.5360   30.9170 C   0  0  0  0  0  0  0  0  0  0  0  0
   37.0520   16.4360   30.2100 C   0  0  0  0  0  0  0  0  0  0  0  0
   36.6620   15.1700   30.5960 C   0  0  0  0  0  0  0  0  0  0  0  0
   35.8290   15.0130   31.7080 C   0  0  0  0  0  0  0  0  0  0  0  0
   35.4210   16.1460   32.3860 C   0  0  0  0  0  0  0  0  0  0  0  0
   36.3519   20.7706   34.2056 H   0  0  0  0  0  0  0  0  0  0  0  0
   35.4753   21.8067   30.1393 H   0  0  0  0  0  0  0  0  0  0  0  0
   37.8005   25.1159   32.9411 H   0  0  0  0  0  0  0  0  0  0  0  0
   39.3521   22.3764   36.6945 H   0  0  0  0  0  0  0  0  0  0  0  0
   39.0277   26.9143   36.7550 H   0  0  0  0  0  0  0  0  0  0  0  0
   39.0696   28.3639   35.6950 H   0  0  0  0  0  0  0  0  0  0  0  0
   37.6277   27.2925   35.6950 H   0  0  0  0  0  0  0  0  0  0  0  0
   38.3634   28.0328   33.5167 H   0  0  0  0  0  0  0  0  0  0  0  0
   39.8527   27.3618   32.7693 H   0  0  0  0  0  0  0  0  0  0  0  0
   38.3358   26.3996   32.7693 H   0  0  0  0  0  0  0  0  0  0  0  0
   41.1571   26.5639   35.8289 H   0  0  0  0  0  0  0  0  0  0  0  0
   41.2865   25.6699   34.2763 H   0  0  0  0  0  0  0  0  0  0  0  0
   41.2215   27.4650   34.2763 H   0  0  0  0  0  0  0  0  0  0  0  0
   33.7376   19.8867   32.2801 H   0  0  0  0  0  0  0  0  0  0  0  0
   34.8291   19.3017   30.9461 H   0  0  0  0  0  0  0  0  0  0  0  0
   36.0329   18.8512   33.5512 H   0  0  0  0  0  0  0  0  0  0  0  0
   34.4084   18.0931   33.4546 H   0  0  0  0  0  0  0  0  0  0  0  0
   36.9402   18.5375   30.5938 H   0  0  0  0  0  0  0  0  0  0  0  0
   37.7084   16.5667   29.3370 H   0  0  0  0  0  0  0  0  0  0  0  0
   37.0043   14.2896   30.0323 H   0  0  0  0  0  0  0  0  0  0  0  0
   35.5067   14.0133   32.0348 H   0  0  0  0  0  0  0  0  0  0  0  0
   34.7645   16.0275   33.2606 H   0  0  0  0  0  0  0  0  0  0  0  0
  1  2  2  0
  1  6  1  0
  3  2  1  0
  4  5  1  0
  4  3  2  0
  5  1  1  0
  6 11  1  0
  7  6  2  0
  7  8  1  0
  8  9  2  0
  9 10  1  0
 11 10  2  0
 12  8  1  0
 12 15  1  0
 12 13  1  0
 14 12  1  0
 16  3  1  0
 16 17  1  0
 18 23  1  0
 18 17  1  0
 19 18  2  0
 20 21  2  0
 20 19  1  0
 21 22  1  0
 22 23  2  0
  2 24  1  0
  4 25  1  0
  7 26  1  0
 10 27  1  0
 13 28  1  0
 13 29  1  0
 13 30  1  0
 14 31  1  0
 14 32  1  0
 14 33  1  0
 15 34  1  0
 15 35  1  0
 15 36  1  0
 16 37  1  0
 16 38  1  0
 17 39  1  0
 17 40  1  0
 19 41  1  0
 20 42  1  0
 21 43  1  0
 22 44  1  0
 23 45  1  0
M  ISO  8  24  14  25  14  26  14  27  14  28   8  29   8  30   8  31   8
M  ISO  8  32   8  33   8  34   8  35   8  36   8  37   8  38   8  39   8
M  ISO  6  40   8  41  14  42  14  43  14  44  14  45  14
M  END
>  <minimizedAffinity>  (1) 
-5.28382444

>  <minimizedRMSD>  (1) 
1.05176914

$$$$
