
     RDKit          3D

 42 44  0  0  0  0  0  0  0  0999 V2000
   37.6820   21.9390   34.8940 C   0  0  0  0  0  0  0  0  0  0  0  0
   37.3430   21.5830   33.5980 C   0  0  0  0  0  0  0  0  0  0  0  0
   36.1960   20.8650   33.3390 C   0  0  0  0  0  0  0  0  0  0  0  0
   35.4170   20.5210   34.4000 N   0  0  0  0  0  0  0  0  0  0  0  0
   35.7550   20.8720   35.6660 C   0  0  0  0  0  0  0  0  0  0  0  0
   36.8690   21.5710   35.9280 N   0  0  0  0  0  0  0  0  0  0  0  0
   38.8700   22.6950   35.2620 C   0  0  0  0  0  0  0  0  0  0  0  0
   39.1520   23.9100   34.6310 C   0  0  0  0  0  0  0  0  0  0  0  0
   40.3240   24.4210   35.1570 C   0  0  0  0  0  0  0  0  0  0  0  0
   40.6880   23.4600   36.0970 C   0  0  0  0  0  0  0  0  0  0  0  0
   39.7950   22.4680   36.1150 O   0  0  0  0  0  0  0  0  0  0  0  0
   41.0460   25.6630   34.8370 C   0  0  0  0  0  0  0  0  0  0  0  0
   40.1120   26.8720   34.8560 C   0  0  0  0  0  0  0  0  0  0  0  0
   39.6110   27.0590   33.4740 C   0  0  0  0  0  0  0  0  0  0  0  0
   38.3520   27.2390   32.9910 C   0  0  0  0  0  0  0  0  0  0  0  0
   38.1290   27.3910   31.6490 C   0  0  0  0  0  0  0  0  0  0  0  0
   39.1880   27.3640   30.7700 C   0  0  0  0  0  0  0  0  0  0  0  0
   40.6650   27.0930   31.9660 S   0  0  0  0  0  0  0  0  0  0  0  0
   35.8080   20.4730   31.9860 C   0  0  0  0  0  0  0  0  0  0  0  0
   36.8820   19.6550   31.2860 C   0  0  0  0  0  0  0  0  0  0  0  0
   35.5310   21.7090   31.1220 C   0  0  0  0  0  0  0  0  0  0  0  0
   34.5220   19.6940   32.0570 C   0  0  0  0  0  0  0  0  0  0  0  0
   37.9985   21.8777   32.7652 H   0  0  0  0  0  0  0  0  0  0  0  0
   35.0992   20.5760   36.4981 H   0  0  0  0  0  0  0  0  0  0  0  0
   38.5424   24.3814   33.8460 H   0  0  0  0  0  0  0  0  0  0  0  0
   41.5835   23.5111   36.7337 H   0  0  0  0  0  0  0  0  0  0  0  0
   41.4909   25.5703   33.8353 H   0  0  0  0  0  0  0  0  0  0  0  0
   41.8255   25.8160   35.5979 H   0  0  0  0  0  0  0  0  0  0  0  0
   39.2707   26.6879   35.5404 H   0  0  0  0  0  0  0  0  0  0  0  0
   40.6425   27.7704   35.2045 H   0  0  0  0  0  0  0  0  0  0  0  0
   37.5016   27.2627   33.6884 H   0  0  0  0  0  0  0  0  0  0  0  0
   37.1051   27.5345   31.2736 H   0  0  0  0  0  0  0  0  0  0  0  0
   39.1880   27.4695   29.6751 H   0  0  0  0  0  0  0  0  0  0  0  0
   37.5207   19.1685   32.0379 H   0  0  0  0  0  0  0  0  0  0  0  0
   36.4069   18.8879   30.6569 H   0  0  0  0  0  0  0  0  0  0  0  0
   37.4953   20.3169   30.6569 H   0  0  0  0  0  0  0  0  0  0  0  0
   35.3370   22.5748   31.7721 H   0  0  0  0  0  0  0  0  0  0  0  0
   36.4051   21.9159   30.4870 H   0  0  0  0  0  0  0  0  0  0  0  0
   34.6523   21.5230   30.4870 H   0  0  0  0  0  0  0  0  0  0  0  0
   34.2506   19.5296   33.1102 H   0  0  0  0  0  0  0  0  0  0  0  0
   33.7225   20.2598   31.5563 H   0  0  0  0  0  0  0  0  0  0  0  0
   34.6531   18.7234   31.5563 H   0  0  0  0  0  0  0  0  0  0  0  0
  1  7  1  0
  1  6  1  0
  2  1  2  0
  3  2  1  0
  3  4  2  0
  4  5  1  0
  5  6  2  0
  7 11  1  0
  8  9  1  0
  8  7  2  0
  9 10  2  0
 10 11  1  0
 12 13  1  0
 12  9  1  0
 14 13  1  0
 15 14  2  0
 16 15  1  0
 17 16  2  0
 17 18  1  0
 18 14  1  0
 19 22  1  0
 19  3  1  0
 20 19  1  0
 21 19  1  0
  2 23  1  0
  5 24  1  0
  8 25  1  0
 10 26  1  0
 12 27  1  0
 12 28  1  0
 13 29  1  0
 13 30  1  0
 15 31  1  0
 16 32  1  0
 17 33  1  0
 20 34  1  0
 20 35  1  0
 20 36  1  0
 21 37  1  0
 21 38  1  0
 21 39  1  0
 22 40  1  0
 22 41  1  0
 22 42  1  0
M  ISO  8  23  14  24  14  25  14  26  14  27   8  28   8  29   8  30   8
M  ISO  8  31  14  32  14  33  14  34   8  35   8  36   8  37   8  38   8
M  ISO  4  39   8  40   8  41   8  42   8
M  END
>  <minimizedAffinity>  (1) 
-5.02946663

>  <minimizedRMSD>  (1) 
8.21629906

$$$$
