
     RDKit          3D

 42 44  0  0  0  0  0  0  0  0999 V2000
   37.7820   23.1670   33.8580 C   0  0  0  0  0  0  0  0  0  0  0  0
   38.1480   24.5070   33.7760 C   0  0  0  0  0  0  0  0  0  0  0  0
   38.9450   25.0800   34.7500 C   0  0  0  0  0  0  0  0  0  0  0  0
   39.3440   24.2920   35.7670 N   0  0  0  0  0  0  0  0  0  0  0  0
   38.9830   22.9840   35.8420 C   0  0  0  0  0  0  0  0  0  0  0  0
   38.2130   22.4160   34.9080 N   0  0  0  0  0  0  0  0  0  0  0  0
   36.9500   22.4790   32.8850 C   0  0  0  0  0  0  0  0  0  0  0  0
   36.3140   21.2770   33.2100 C   0  0  0  0  0  0  0  0  0  0  0  0
   35.5990   20.8500   32.1150 C   0  0  0  0  0  0  0  0  0  0  0  0
   35.8380   21.8280   31.1630 C   0  0  0  0  0  0  0  0  0  0  0  0
   36.6410   22.7620   31.6760 O   0  0  0  0  0  0  0  0  0  0  0  0
   34.7650   19.6270   31.9830 C   0  0  0  0  0  0  0  0  0  0  0  0
   35.2920   18.4900   32.8820 C   0  0  0  0  0  0  0  0  0  0  0  0
   35.6530   17.2960   32.0920 C   0  0  0  0  0  0  0  0  0  0  0  0
   36.6040   17.4460   31.1000 C   0  0  0  0  0  0  0  0  0  0  0  0
   36.7610   16.1870   30.5130 C   0  0  0  0  0  0  0  0  0  0  0  0
   35.9140   15.3450   31.1600 N   0  0  0  0  0  0  0  0  0  0  0  0
   35.2450   16.0100   32.1120 N   0  0  0  0  0  0  0  0  0  0  0  0
   39.3430   26.4920   34.6820 C   0  0  0  0  0  0  0  0  0  0  0  0
   38.7090   27.3150   35.7880 C   0  0  0  0  0  0  0  0  0  0  0  0
   38.9600   27.1120   33.3360 C   0  0  0  0  0  0  0  0  0  0  0  0
   40.8490   26.5530   34.7660 C   0  0  0  0  0  0  0  0  0  0  0  0
   37.8001   25.1161   32.9286 H   0  0  0  0  0  0  0  0  0  0  0  0
   39.3325   22.3783   36.6911 H   0  0  0  0  0  0  0  0  0  0  0  0
   36.3751   20.7595   34.1788 H   0  0  0  0  0  0  0  0  0  0  0  0
   35.4289   21.8336   30.1419 H   0  0  0  0  0  0  0  0  0  0  0  0
   33.7314   19.8648   32.2748 H   0  0  0  0  0  0  0  0  0  0  0  0
   34.8060   19.2899   30.9367 H   0  0  0  0  0  0  0  0  0  0  0  0
   36.1831   18.8446   33.4206 H   0  0  0  0  0  0  0  0  0  0  0  0
   34.4941   18.2092   33.5852 H   0  0  0  0  0  0  0  0  0  0  0  0
   37.1320   18.3716   30.8269 H   0  0  0  0  0  0  0  0  0  0  0  0
   37.4394   15.9282   29.6867 H   0  0  0  0  0  0  0  0  0  0  0  0
   35.8023   14.3429   30.9499 H   0  0  0  0  0  0  0  0  0  0  0  0
   39.0171   26.9150   36.7653 H   0  0  0  0  0  0  0  0  0  0  0  0
   39.0367   28.3614   35.7002 H   0  0  0  0  0  0  0  0  0  0  0  0
   37.6136   27.2652   35.7002 H   0  0  0  0  0  0  0  0  0  0  0  0
   38.3889   28.0364   33.5073 H   0  0  0  0  0  0  0  0  0  0  0  0
   39.8720   27.3446   32.7667 H   0  0  0  0  0  0  0  0  0  0  0  0
   38.3438   26.4006   32.7667 H   0  0  0  0  0  0  0  0  0  0  0  0
   41.1571   26.5655   35.8219 H   0  0  0  0  0  0  0  0  0  0  0  0
   41.2800   25.6716   34.2687 H   0  0  0  0  0  0  0  0  0  0  0  0
   41.2073   27.4664   34.2687 H   0  0  0  0  0  0  0  0  0  0  0  0
  1  6  1  0
  2  1  2  0
  2  3  1  0
  3  4  2  0
  4  5  1  0
  6  5  2  0
  7  8  2  0
  7  1  1  0
  9  8  1  0
 10 11  1  0
 10  9  2  0
 11  7  1  0
 12  9  1  0
 12 13  1  0
 14 18  2  0
 14 13  1  0
 15 14  1  0
 16 15  2  0
 16 17  1  0
 17 18  1  0
 19  3  1  0
 19 22  1  0
 19 20  1  0
 21 19  1  0
  2 23  1  0
  5 24  1  0
  8 25  1  0
 10 26  1  0
 12 27  1  0
 12 28  1  0
 13 29  1  0
 13 30  1  0
 15 31  1  0
 16 32  1  0
 17 33  1  0
 20 34  1  0
 20 35  1  0
 20 36  1  0
 21 37  1  0
 21 38  1  0
 21 39  1  0
 22 40  1  0
 22 41  1  0
 22 42  1  0
M  ISO  8  23  14  24  14  25  14  26  14  27   8  28   8  29   8  30   8
M  ISO  8  31  14  32  14  33   9  34   8  35   8  36   8  37   8  38   8
M  ISO  4  39   8  40   8  41   8  42   8
M  END
>  <minimizedAffinity>  (1) 
-5.06676292

>  <minimizedRMSD>  (1) 
1.28310609

$$$$
