
     RDKit          3D

 42 44  0  0  0  0  0  0  0  0999 V2000
   37.7810   23.1020   33.8870 C   0  0  0  0  0  0  0  0  0  0  0  0
   38.1170   24.4400   33.8250 C   0  0  0  0  0  0  0  0  0  0  0  0
   38.8840   25.0380   34.7900 C   0  0  0  0  0  0  0  0  0  0  0  0
   39.3000   24.2560   35.8100 N   0  0  0  0  0  0  0  0  0  0  0  0
   38.9780   22.9290   35.8860 C   0  0  0  0  0  0  0  0  0  0  0  0
   38.2240   22.3550   34.9330 N   0  0  0  0  0  0  0  0  0  0  0  0
   36.9700   22.3990   32.8990 C   0  0  0  0  0  0  0  0  0  0  0  0
   36.3500   21.1880   33.2300 C   0  0  0  0  0  0  0  0  0  0  0  0
   35.6580   20.7480   32.1290 C   0  0  0  0  0  0  0  0  0  0  0  0
   35.8940   21.7260   31.1710 C   0  0  0  0  0  0  0  0  0  0  0  0
   36.6760   22.6800   31.6780 O   0  0  0  0  0  0  0  0  0  0  0  0
   34.8410   19.5210   31.9760 C   0  0  0  0  0  0  0  0  0  0  0  0
   35.3360   18.3960   32.9120 C   0  0  0  0  0  0  0  0  0  0  0  0
   35.7320   17.3240   31.9840 N   0  0  0  0  0  0  0  0  0  0  0  0
   36.5250   17.4750   30.9290 N   0  0  0  0  0  0  0  0  0  0  0  0
   36.6960   16.3070   30.2830 C   0  0  0  0  0  0  0  0  0  0  0  0
   35.9480   15.3740   31.0040 C   0  0  0  0  0  0  0  0  0  0  0  0
   35.3520   16.0380   32.0690 C   0  0  0  0  0  0  0  0  0  0  0  0
   39.2510   26.4570   34.7420 C   0  0  0  0  0  0  0  0  0  0  0  0
   38.6480   27.2350   35.9110 C   0  0  0  0  0  0  0  0  0  0  0  0
   38.7880   27.0930   33.4420 C   0  0  0  0  0  0  0  0  0  0  0  0
   40.7600   26.5540   34.7590 C   0  0  0  0  0  0  0  0  0  0  0  0
   37.7589   25.0425   32.9772 H   0  0  0  0  0  0  0  0  0  0  0  0
   39.3387   22.3272   36.7332 H   0  0  0  0  0  0  0  0  0  0  0  0
   36.4074   20.6779   34.2029 H   0  0  0  0  0  0  0  0  0  0  0  0
   35.4949   21.7151   30.1460 H   0  0  0  0  0  0  0  0  0  0  0  0
   33.7941   19.7550   32.2196 H   0  0  0  0  0  0  0  0  0  0  0  0
   34.9304   19.1720   30.9367 H   0  0  0  0  0  0  0  0  0  0  0  0
   36.1941   18.7332   33.5120 H   0  0  0  0  0  0  0  0  0  0  0  0
   34.5725   18.0748   33.6358 H   0  0  0  0  0  0  0  0  0  0  0  0
   37.2969   16.1258   29.3796 H   0  0  0  0  0  0  0  0  0  0  0  0
   35.8484   14.3037   30.7704 H   0  0  0  0  0  0  0  0  0  0  0  0
   34.6961   15.5964   32.8337 H   0  0  0  0  0  0  0  0  0  0  0  0
   38.9893   26.7946   36.8595 H   0  0  0  0  0  0  0  0  0  0  0  0
   38.9702   28.2854   35.8575 H   0  0  0  0  0  0  0  0  0  0  0  0
   37.5504   27.1850   35.8575 H   0  0  0  0  0  0  0  0  0  0  0  0
   38.1541   27.9638   33.6652 H   0  0  0  0  0  0  0  0  0  0  0  0
   39.6635   27.4164   32.8598 H   0  0  0  0  0  0  0  0  0  0  0  0
   38.2113   26.3592   32.8598 H   0  0  0  0  0  0  0  0  0  0  0  0
   41.1142   26.5768   35.8001 H   0  0  0  0  0  0  0  0  0  0  0  0
   41.1893   25.6816   34.2446 H   0  0  0  0  0  0  0  0  0  0  0  0
   41.0741   27.4742   34.2446 H   0  0  0  0  0  0  0  0  0  0  0  0
  1  6  1  0
  2  1  2  0
  2  3  1  0
  3  4  2  0
  4  5  1  0
  6  5  2  0
  7  8  2  0
  7  1  1  0
  9  8  1  0
 10 11  1  0
 10  9  2  0
 11  7  1  0
 12  9  1  0
 12 13  1  0
 14 18  1  0
 14 13  1  0
 15 14  1  0
 16 15  2  0
 16 17  1  0
 17 18  2  0
 19 22  1  0
 19  3  1  0
 19 20  1  0
 21 19  1  0
  2 23  1  0
  5 24  1  0
  8 25  1  0
 10 26  1  0
 12 27  1  0
 12 28  1  0
 13 29  1  0
 13 30  1  0
 16 31  1  0
 17 32  1  0
 18 33  1  0
 20 34  1  0
 20 35  1  0
 20 36  1  0
 21 37  1  0
 21 38  1  0
 21 39  1  0
 22 40  1  0
 22 41  1  0
 22 42  1  0
M  ISO  8  23  14  24  14  25  14  26  14  27   8  28   8  29   8  30   8
M  ISO  8  31  14  32  14  33  14  34   8  35   8  36   8  37   8  38   8
M  ISO  4  39   8  40   8  41   8  42   8
M  END
>  <minimizedAffinity>  (1) 
-4.90930128

>  <minimizedRMSD>  (1) 
1.10154545

$$$$
