
     RDKit          3D

 51 54  0  0  0  0  0  0  0  0999 V2000
   39.3910   23.9480   35.3190 C   0  0  0  0  0  0  0  0  0  0  0  0
   40.6600   23.5200   35.0240 C   0  0  0  0  0  0  0  0  0  0  0  0
   41.6790   24.3800   34.6920 C   0  0  0  0  0  0  0  0  0  0  0  0
   41.3670   25.6930   34.6700 N   0  0  0  0  0  0  0  0  0  0  0  0
   40.1260   26.1500   34.9560 C   0  0  0  0  0  0  0  0  0  0  0  0
   39.1250   25.2870   35.2820 N   0  0  0  0  0  0  0  0  0  0  0  0
   38.2710   23.1050   35.6720 C   0  0  0  0  0  0  0  0  0  0  0  0
   37.6800   22.2630   34.7340 C   0  0  0  0  0  0  0  0  0  0  0  0
   36.6470   21.5800   35.3320 C   0  0  0  0  0  0  0  0  0  0  0  0
   36.6590   22.0460   36.6240 C   0  0  0  0  0  0  0  0  0  0  0  0
   37.6390   22.9480   36.7800 O   0  0  0  0  0  0  0  0  0  0  0  0
   35.7250   20.5880   34.7830 C   0  0  0  0  0  0  0  0  0  0  0  0
   35.8690   20.4050   33.2580 C   0  0  0  0  0  0  0  0  0  0  0  0
   34.9740   21.2560   32.5580 N   0  0  0  0  0  0  0  0  0  0  0  0
   43.0400   23.9580   34.3730 C   0  0  0  0  0  0  0  0  0  0  0  0
   43.9250   25.1180   34.0020 C   0  0  0  0  0  0  0  0  0  0  0  0
   43.0030   23.0330   33.1310 C   0  0  0  0  0  0  0  0  0  0  0  0
   43.5770   23.1200   35.4920 C   0  0  0  0  0  0  0  0  0  0  0  0
   44.9250   23.4000   35.9660 C   0  0  0  0  0  0  0  0  0  0  0  0
   45.9350   22.6790   35.3840 N   0  0  0  0  0  0  0  0  0  0  0  0
   47.2140   22.7600   35.7360 C   0  0  0  0  0  0  0  0  0  0  0  0
   47.6590   23.5780   36.7270 N   0  0  0  0  0  0  0  0  0  0  0  0
   46.7220   24.3100   37.3340 C   0  0  0  0  0  0  0  0  0  0  0  0
   47.0310   25.2060   38.3440 C   0  0  0  0  0  0  0  0  0  0  0  0
   46.0690   25.9870   38.9600 C   0  0  0  0  0  0  0  0  0  0  0  0
   44.7330   25.8880   38.5710 C   0  0  0  0  0  0  0  0  0  0  0  0
   44.4440   24.9900   37.5650 C   0  0  0  0  0  0  0  0  0  0  0  0
   45.4010   24.2250   36.9670 C   0  0  0  0  0  0  0  0  0  0  0  0
   40.8715   22.4409   35.0545 H   0  0  0  0  0  0  0  0  0  0  0  0
   39.9237   27.2308   34.9247 H   0  0  0  0  0  0  0  0  0  0  0  0
   37.9895   22.1605   33.6834 H   0  0  0  0  0  0  0  0  0  0  0  0
   35.9656   21.7259   37.4156 H   0  0  0  0  0  0  0  0  0  0  0  0
   35.9194   19.6217   35.2712 H   0  0  0  0  0  0  0  0  0  0  0  0
   34.7037   20.9488   34.9746 H   0  0  0  0  0  0  0  0  0  0  0  0
   36.9007   20.6463   32.9623 H   0  0  0  0  0  0  0  0  0  0  0  0
   35.6307   19.3612   33.0057 H   0  0  0  0  0  0  0  0  0  0  0  0
   34.4105   21.7918   33.2335 H   0  0  0  0  0  0  0  0  0  0  0  0
   35.5105   21.9063   31.9663 H   0  0  0  0  0  0  0  0  0  0  0  0
   44.2956   25.6037   34.9167 H   0  0  0  0  0  0  0  0  0  0  0  0
   44.7771   24.7542   33.4091 H   0  0  0  0  0  0  0  0  0  0  0  0
   43.3490   25.8437   33.4091 H   0  0  0  0  0  0  0  0  0  0  0  0
   42.9610   21.9832   33.4568 H   0  0  0  0  0  0  0  0  0  0  0  0
   42.1134   23.2654   32.5271 H   0  0  0  0  0  0  0  0  0  0  0  0
   43.9083   23.1936   32.5271 H   0  0  0  0  0  0  0  0  0  0  0  0
   42.8968   23.2415   36.3479 H   0  0  0  0  0  0  0  0  0  0  0  0
   43.6372   22.1049   35.0724 H   0  0  0  0  0  0  0  0  0  0  0  0
   47.9460   22.1369   35.2013 H   0  0  0  0  0  0  0  0  0  0  0  0
   48.0780   25.3001   38.6679 H   0  0  0  0  0  0  0  0  0  0  0  0
   46.3582   26.6870   39.7577 H   0  0  0  0  0  0  0  0  0  0  0  0
   43.9481   26.4967   39.0437 H   0  0  0  0  0  0  0  0  0  0  0  0
   43.4007   24.8870   37.2321 H   0  0  0  0  0  0  0  0  0  0  0  0
  1  7  1  0
  2  1  2  0
  3  2  1  0
  4  3  2  0
  4  5  1  0
  5  6  2  0
  6  1  1  0
  7 11  1  0
  8  9  1  0
  8  7  2  0
  9 10  2  0
 10 11  1  0
 12  9  1  0
 13 12  1  0
 14 13  1  0
 15  3  1  0
 15 18  1  0
 16 15  1  0
 17 15  1  0
 18 19  1  0
 19 28  2  0
 20 21  2  0
 20 19  1  0
 21 22  1  0
 22 23  2  0
 23 24  1  0
 24 25  2  0
 26 25  1  0
 27 26  2  0
 28 23  1  0
 28 27  1  0
  2 29  1  0
  5 30  1  0
  8 31  1  0
 10 32  1  0
 12 33  1  0
 12 34  1  0
 13 35  1  0
 13 36  1  0
 14 37  1  0
 14 38  1  0
 16 39  1  0
 16 40  1  0
 16 41  1  0
 17 42  1  0
 17 43  1  0
 17 44  1  0
 18 45  1  0
 18 46  1  0
 21 47  1  0
 24 48  1  0
 25 49  1  0
 26 50  1  0
 27 51  1  0
M  ISO  8  29  14  30  14  31  14  32  14  33   8  34   8  35   8  36   8
M  ISO  8  37   5  38   5  39   8  40   8  41   8  42   8  43   8  44   8
M  ISO  7  45   8  46   8  47  14  48  14  49  14  50  14  51  14
M  END
>  <minimizedAffinity>  (1) 
-5.29126072

>  <minimizedRMSD>  (1) 
4.02532816

$$$$
