
     RDKit          3D

 39 40  0  0  0  0  0  0  0  0999 V2000
   37.8450   23.0750   33.8840 C   0  0  0  0  0  0  0  0  0  0  0  0
   38.2890   24.3650   33.8110 C   0  0  0  0  0  0  0  0  0  0  0  0
   39.0690   24.9520   34.7520 C   0  0  0  0  0  0  0  0  0  0  0  0
   39.4120   24.1730   35.8220 N   0  0  0  0  0  0  0  0  0  0  0  0
   38.9890   22.8940   35.9240 C   0  0  0  0  0  0  0  0  0  0  0  0
   38.2160   22.3260   34.9820 N   0  0  0  0  0  0  0  0  0  0  0  0
   37.0150   22.3830   32.9260 C   0  0  0  0  0  0  0  0  0  0  0  0
   36.2900   21.2410   33.2780 C   0  0  0  0  0  0  0  0  0  0  0  0
   35.5970   20.7990   32.1800 C   0  0  0  0  0  0  0  0  0  0  0  0
   35.9380   21.7060   31.1950 C   0  0  0  0  0  0  0  0  0  0  0  0
   36.7770   22.6220   31.6860 O   0  0  0  0  0  0  0  0  0  0  0  0
   34.7000   19.6550   32.0180 C   0  0  0  0  0  0  0  0  0  0  0  0
   35.2640   18.3660   32.6450 C   0  0  0  0  0  0  0  0  0  0  0  0
   36.3820   17.8640   31.9200 N   0  0  0  0  0  0  0  0  0  0  0  0
   39.5340   26.3410   34.6540 C   0  0  0  0  0  0  0  0  0  0  0  0
   38.9240   27.2150   35.7190 C   0  0  0  0  0  0  0  0  0  0  0  0
   39.2470   26.9160   33.2780 C   0  0  0  0  0  0  0  0  0  0  0  0
   41.0460   26.3240   34.8070 C   0  0  0  0  0  0  0  0  0  0  0  0
   41.6850   27.4400   34.1430 N   0  0  0  0  0  0  0  0  0  0  0  0
   37.9960   24.9636   32.9359 H   0  0  0  0  0  0  0  0  0  0  0  0
   39.2852   22.3011   36.8019 H   0  0  0  0  0  0  0  0  0  0  0  0
   36.2773   20.7730   34.2734 H   0  0  0  0  0  0  0  0  0  0  0  0
   35.5720   21.6778   30.1581 H   0  0  0  0  0  0  0  0  0  0  0  0
   33.7393   19.8898   32.4995 H   0  0  0  0  0  0  0  0  0  0  0  0
   34.5804   19.4758   30.9393 H   0  0  0  0  0  0  0  0  0  0  0  0
   35.5778   18.5812   33.6771 H   0  0  0  0  0  0  0  0  0  0  0  0
   34.4728   17.6022   32.6202 H   0  0  0  0  0  0  0  0  0  0  0  0
   37.1026   17.5404   32.5810 H   0  0  0  0  0  0  0  0  0  0  0  0
   36.0816   17.0770   31.3273 H   0  0  0  0  0  0  0  0  0  0  0  0
   39.1951   26.8266   36.7118 H   0  0  0  0  0  0  0  0  0  0  0  0
   39.3023   28.2423   35.6114 H   0  0  0  0  0  0  0  0  0  0  0  0
   37.8293   27.2142   35.6114 H   0  0  0  0  0  0  0  0  0  0  0  0
   38.7581   27.8956   33.3846 H   0  0  0  0  0  0  0  0  0  0  0  0
   40.1911   27.0356   32.7263 H   0  0  0  0  0  0  0  0  0  0  0  0
   38.5839   26.2333   32.7263 H   0  0  0  0  0  0  0  0  0  0  0  0
   41.2922   26.3635   35.8784 H   0  0  0  0  0  0  0  0  0  0  0  0
   41.4179   25.4005   34.3392 H   0  0  0  0  0  0  0  0  0  0  0  0
   42.0580   28.0914   34.8483 H   0  0  0  0  0  0  0  0  0  0  0  0
   42.4557   27.0935   33.5541 H   0  0  0  0  0  0  0  0  0  0  0  0
  1  6  1  0
  2  1  2  0
  2  3  1  0
  3  4  2  0
  4  5  1  0
  6  5  2  0
  7  8  2  0
  7  1  1  0
  9  8  1  0
 10 11  1  0
 10  9  2  0
 11  7  1  0
 12  9  1  0
 12 13  1  0
 14 13  1  0
 15  3  1  0
 15 18  1  0
 15 16  1  0
 17 15  1  0
 19 18  1  0
  2 20  1  0
  5 21  1  0
  8 22  1  0
 10 23  1  0
 12 24  1  0
 12 25  1  0
 13 26  1  0
 13 27  1  0
 14 28  1  0
 14 29  1  0
 16 30  1  0
 16 31  1  0
 16 32  1  0
 17 33  1  0
 17 34  1  0
 17 35  1  0
 18 36  1  0
 18 37  1  0
 19 38  1  0
 19 39  1  0
M  ISO  8  20  14  21  14  22  14  23  14  24   8  25   8  26   8  27   8
M  ISO  8  28   5  29   5  30   8  31   8  32   8  33   8  34   8  35   8
M  ISO  4  36   8  37   8  38   5  39   5
M  END
>  <minimizedAffinity>  (1) 
-4.64034081

>  <minimizedRMSD>  (1) 
0.307710588

$$$$
