
     RDKit          3D

 48 50  0  0  0  0  0  0  0  0999 V2000
   37.5320   22.8920   33.8440 C   0  0  0  0  0  0  0  0  0  0  0  0
   37.9160   24.1970   33.5860 C   0  0  0  0  0  0  0  0  0  0  0  0
   38.4390   25.0010   34.5420 C   0  0  0  0  0  0  0  0  0  0  0  0
   38.5710   24.4550   35.7880 N   0  0  0  0  0  0  0  0  0  0  0  0
   38.2040   23.1880   36.0630 C   0  0  0  0  0  0  0  0  0  0  0  0
   37.6830   22.3950   35.1000 N   0  0  0  0  0  0  0  0  0  0  0  0
   36.9620   21.9920   32.8580 C   0  0  0  0  0  0  0  0  0  0  0  0
   36.0720   20.9790   33.2580 C   0  0  0  0  0  0  0  0  0  0  0  0
   35.6830   20.2740   32.1440 C   0  0  0  0  0  0  0  0  0  0  0  0
   36.3530   20.8910   31.1190 C   0  0  0  0  0  0  0  0  0  0  0  0
   37.0950   21.8980   31.5920 O   0  0  0  0  0  0  0  0  0  0  0  0
   34.7780   19.1370   32.0140 C   0  0  0  0  0  0  0  0  0  0  0  0
   35.2960   17.8690   32.6950 C   0  0  0  0  0  0  0  0  0  0  0  0
   36.5270   17.4370   32.1210 N   0  0  0  0  0  0  0  0  0  0  0  0
   38.8650   26.3730   34.3330 C   0  0  0  0  0  0  0  0  0  0  0  0
   39.1900   27.0960   35.6360 C   0  0  0  0  0  0  0  0  0  0  0  0
   37.7170   27.1670   33.6700 C   0  0  0  0  0  0  0  0  0  0  0  0
   39.9970   26.4240   33.3670 C   0  0  0  0  0  0  0  0  0  0  0  0
   41.3110   26.2720   33.8930 N   0  0  0  0  0  0  0  0  0  0  0  0
   41.7490   25.3310   34.7480 C   0  0  0  0  0  0  0  0  0  0  0  0
   43.0300   25.2050   35.2200 C   0  0  0  0  0  0  0  0  0  0  0  0
   43.9820   26.1090   34.7980 C   0  0  0  0  0  0  0  0  0  0  0  0
   45.2850   25.9190   35.3260 N   0  0  0  0  0  0  0  0  0  0  0  0
   43.5730   27.0630   33.9410 N   0  0  0  0  0  0  0  0  0  0  0  0
   42.3040   27.1310   33.5180 C   0  0  0  0  0  0  0  0  0  0  0  0
   42.1150   28.0810   32.7270 O   0  0  0  0  0  0  0  0  0  0  0  0
   37.7918   24.5949   32.5681 H   0  0  0  0  0  0  0  0  0  0  0  0
   38.3297   22.7945   37.0825 H   0  0  0  0  0  0  0  0  0  0  0  0
   35.7426   20.7837   34.2892 H   0  0  0  0  0  0  0  0  0  0  0  0
   36.2893   20.5996   30.0602 H   0  0  0  0  0  0  0  0  0  0  0  0
   33.8121   19.4063   32.4663 H   0  0  0  0  0  0  0  0  0  0  0  0
   34.6862   18.9154   30.9405 H   0  0  0  0  0  0  0  0  0  0  0  0
   35.4524   18.0752   33.7641 H   0  0  0  0  0  0  0  0  0  0  0  0
   34.5505   17.0721   32.5564 H   0  0  0  0  0  0  0  0  0  0  0  0
   37.1925   17.2034   32.8716 H   0  0  0  0  0  0  0  0  0  0  0  0
   36.3605   16.6041   31.5383 H   0  0  0  0  0  0  0  0  0  0  0  0
   38.9049   26.4617   36.4883 H   0  0  0  0  0  0  0  0  0  0  0  0
   40.2690   27.3056   35.6797 H   0  0  0  0  0  0  0  0  0  0  0  0
   38.6306   28.0421   35.6797 H   0  0  0  0  0  0  0  0  0  0  0  0
   37.0786   27.6085   34.4495 H   0  0  0  0  0  0  0  0  0  0  0  0
   38.1385   27.9675   33.0443 H   0  0  0  0  0  0  0  0  0  0  0  0
   37.1167   26.4902   33.0443 H   0  0  0  0  0  0  0  0  0  0  0  0
   39.9549   27.3991   32.8596 H   0  0  0  0  0  0  0  0  0  0  0  0
   39.8511   25.5506   32.7144 H   0  0  0  0  0  0  0  0  0  0  0  0
   41.0119   24.5948   35.1011 H   0  0  0  0  0  0  0  0  0  0  0  0
   43.2930   24.3992   35.9211 H   0  0  0  0  0  0  0  0  0  0  0  0
   46.0481   26.5558   35.0557 H   0  0  0  0  0  0  0  0  0  0  0  0
   45.4679   25.1442   35.9796 H   0  0  0  0  0  0  0  0  0  0  0  0
  1  6  1  0
  2  1  2  0
  2  3  1  0
  3  4  2  0
  4  5  1  0
  6  5  2  0
  7  8  2  0
  7  1  1  0
  9  8  1  0
 10 11  1  0
 10  9  2  0
 11  7  1  0
 12  9  1  0
 12 13  1  0
 14 13  1  0
 15  3  1  0
 15 16  1  0
 17 15  1  0
 18 19  1  0
 18 15  1  0
 19 20  1  0
 20 21  2  0
 22 21  1  0
 22 23  1  0
 24 22  2  0
 25 19  1  0
 25 24  1  0
 26 25  2  0
  2 27  1  0
  5 28  1  0
  8 29  1  0
 10 30  1  0
 12 31  1  0
 12 32  1  0
 13 33  1  0
 13 34  1  0
 14 35  1  0
 14 36  1  0
 16 37  1  0
 16 38  1  0
 16 39  1  0
 17 40  1  0
 17 41  1  0
 17 42  1  0
 18 43  1  0
 18 44  1  0
 20 45  1  0
 21 46  1  0
 23 47  1  0
 23 48  1  0
M  ISO  8  27  14  28  14  29  14  30  14  31   8  32   8  33   8  34   8
M  ISO  8  35   5  36   5  37   8  38   8  39   8  40   8  41   8  42   8
M  ISO  4  43   8  44   8  45  14  46  14
M  END
>  <minimizedAffinity>  (1) 
-4.92713976

>  <minimizedRMSD>  (1) 
1.7867775

$$$$
