
     RDKit          3D

 44 46  0  0  0  0  0  0  0  0999 V2000
   37.8080   22.9610   33.9480 C   0  0  0  0  0  0  0  0  0  0  0  0
   38.1120   24.2910   33.8800 C   0  0  0  0  0  0  0  0  0  0  0  0
   38.8270   24.9410   34.8500 C   0  0  0  0  0  0  0  0  0  0  0  0
   39.2290   24.1960   35.9030 N   0  0  0  0  0  0  0  0  0  0  0  0
   38.9440   22.8810   35.9970 C   0  0  0  0  0  0  0  0  0  0  0  0
   38.2360   22.2360   35.0400 N   0  0  0  0  0  0  0  0  0  0  0  0
   37.0560   22.1850   32.9730 C   0  0  0  0  0  0  0  0  0  0  0  0
   36.2310   21.1300   33.3580 C   0  0  0  0  0  0  0  0  0  0  0  0
   35.6580   20.5920   32.2200 C   0  0  0  0  0  0  0  0  0  0  0  0
   36.1670   21.3530   31.2070 C   0  0  0  0  0  0  0  0  0  0  0  0
   36.9960   22.2930   31.6900 O   0  0  0  0  0  0  0  0  0  0  0  0
   34.7230   19.4760   32.0850 C   0  0  0  0  0  0  0  0  0  0  0  0
   35.2650   18.1620   32.6430 C   0  0  0  0  0  0  0  0  0  0  0  0
   35.5240   17.2210   31.5980 N   0  0  0  0  0  0  0  0  0  0  0  0
   39.1440   26.3660   34.7610 C   0  0  0  0  0  0  0  0  0  0  0  0
   40.6460   26.6110   34.7490 C   0  0  0  0  0  0  0  0  0  0  0  0
   38.5710   27.1360   35.9420 C   0  0  0  0  0  0  0  0  0  0  0  0
   38.5020   26.9200   33.5260 C   0  0  0  0  0  0  0  0  0  0  0  0
   39.4180   27.2600   32.4070 C   0  0  0  0  0  0  0  0  0  0  0  0
   38.6660   27.6800   31.1360 C   0  0  0  0  0  0  0  0  0  0  0  0
   39.5200   26.4640   31.1710 C   0  0  0  0  0  0  0  0  0  0  0  0
   37.7671   24.8652   33.0074 H   0  0  0  0  0  0  0  0  0  0  0  0
   39.2959   22.3180   36.8740 H   0  0  0  0  0  0  0  0  0  0  0  0
   36.0643   20.7847   34.3890 H   0  0  0  0  0  0  0  0  0  0  0  0
   35.9306   21.2152   30.1416 H   0  0  0  0  0  0  0  0  0  0  0  0
   33.7978   19.7287   32.6237 H   0  0  0  0  0  0  0  0  0  0  0  0
   34.5489   19.3256   31.0093 H   0  0  0  0  0  0  0  0  0  0  0  0
   36.2010   18.3620   33.1851 H   0  0  0  0  0  0  0  0  0  0  0  0
   34.5088   17.7329   33.3169 H   0  0  0  0  0  0  0  0  0  0  0  0
   35.7745   16.3108   32.0099 H   0  0  0  0  0  0  0  0  0  0  0  0
   34.6812   17.1140   31.0157 H   0  0  0  0  0  0  0  0  0  0  0  0
   41.0159   26.6713   35.7832 H   0  0  0  0  0  0  0  0  0  0  0  0
   41.1484   25.7829   34.2276 H   0  0  0  0  0  0  0  0  0  0  0  0
   40.8592   27.5558   34.2276 H   0  0  0  0  0  0  0  0  0  0  0  0
   38.9134   26.6759   36.8806 H   0  0  0  0  0  0  0  0  0  0  0  0
   38.9132   28.1805   35.8995 H   0  0  0  0  0  0  0  0  0  0  0  0
   37.4722   27.1082   35.8995 H   0  0  0  0  0  0  0  0  0  0  0  0
   37.7841   26.1728   33.1569 H   0  0  0  0  0  0  0  0  0  0  0  0
   38.0461   27.8728   33.8332 H   0  0  0  0  0  0  0  0  0  0  0  0
   40.1951   27.6312   33.0913 H   0  0  0  0  0  0  0  0  0  0  0  0
   38.9866   28.5667   30.5694 H   0  0  0  0  0  0  0  0  0  0  0  0
   37.6200   27.9003   30.8765 H   0  0  0  0  0  0  0  0  0  0  0  0
   39.0514   25.4699   31.1252 H   0  0  0  0  0  0  0  0  0  0  0  0
   40.3628   26.1059   30.5616 H   0  0  0  0  0  0  0  0  0  0  0  0
  1  6  1  0
  2  1  2  0
  2  3  1  0
  3  4  2  0
  4  5  1  0
  6  5  2  0
  7  8  2  0
  7  1  1  0
  9  8  1  0
 10 11  1  0
 10  9  2  0
 11  7  1  0
 12  9  1  0
 12 13  1  0
 14 13  1  0
 15  3  1  0
 15 17  1  0
 16 15  1  0
 18 15  1  0
 19 18  1  0
 20 21  1  0
 20 19  1  0
 21 19  1  0
  2 22  1  0
  5 23  1  0
  8 24  1  0
 10 25  1  0
 12 26  1  0
 12 27  1  0
 13 28  1  0
 13 29  1  0
 14 30  1  0
 14 31  1  0
 16 32  1  0
 16 33  1  0
 16 34  1  0
 17 35  1  0
 17 36  1  0
 17 37  1  0
 18 38  1  0
 18 39  1  0
 19 40  1  0
 20 41  1  0
 20 42  1  0
 21 43  1  0
 21 44  1  0
M  ISO  8  22  14  23  14  24  14  25  14  26   8  27   8  28   8  29   8
M  ISO  8  30   5  31   5  32   8  33   8  34   8  35   8  36   8  37   8
M  ISO  7  38   8  39   8  40  13  41  13  42  13  43  13  44  13
M  END
>  <minimizedAffinity>  (1) 
-4.91847229

>  <minimizedRMSD>  (1) 
2.34494495

$$$$
