
     RDKit          3D

 35 38  0  0  1  0  0  0  0  0999 V2000
   39.9350   22.6660   37.7130 C   0  0  0  0  0  0  0  0  0  0  0  0
   39.0340   23.4250   38.5010 C   0  0  0  0  0  0  0  0  0  0  0  0
   37.7850   23.6750   37.9550 C   0  0  0  0  0  0  0  0  0  0  0  0
   37.5130   23.1820   36.7200 N   0  0  0  0  0  0  0  0  0  0  0  0
   38.3960   22.4590   35.9920 C   0  0  0  0  0  0  0  0  0  0  0  0
   39.6290   22.1930   36.4900 N   0  0  0  0  0  0  0  0  0  0  0  0
   37.9960   21.9950   34.7080 N   0  0  0  0  0  0  0  0  0  0  0  0
   36.6700   21.4090   34.6070 C   0  0  0  0  0  0  0  0  0  0  0  0
   36.2690   21.1410   33.1860 C   0  0  0  0  0  0  0  0  0  0  0  0
   36.8700   22.1190   32.3370 N   0  0  0  0  0  0  0  0  0  0  0  0
   38.2960   21.8160   32.2850 C   0  0  0  0  0  0  0  0  0  0  0  0
   38.9480   22.1480   33.6080 C   0  0  1  0  0  0  0  0  0  0  0  0
   39.4960   23.4900   33.5970 N   0  0  0  0  0  0  0  0  0  0  0  0
   40.8210   23.7610   33.7040 C   0  0  0  0  0  0  0  0  0  0  0  0
   41.0160   25.0920   33.6630 N   0  0  0  0  0  0  0  0  0  0  0  0
   39.8400   25.7100   33.5280 C   0  0  0  0  0  0  0  0  0  0  0  0
   39.3150   26.9800   33.4250 C   0  0  0  0  0  0  0  0  0  0  0  0
   38.0050   27.1790   33.2970 N   0  0  0  0  0  0  0  0  0  0  0  0
   37.1110   26.1690   33.2620 C   0  0  0  0  0  0  0  0  0  0  0  0
   37.5740   24.9000   33.3610 N   0  0  0  0  0  0  0  0  0  0  0  0
   38.8950   24.6900   33.4900 C   0  0  0  0  0  0  0  0  0  0  0  0
   40.9341   22.4527   38.1209 H   0  0  0  0  0  0  0  0  0  0  0  0
   39.3126   23.7976   39.4978 H   0  0  0  0  0  0  0  0  0  0  0  0
   37.0337   24.2578   38.5081 H   0  0  0  0  0  0  0  0  0  0  0  0
   36.6605   20.4592   35.1617 H   0  0  0  0  0  0  0  0  0  0  0  0
   35.9525   22.1290   35.0275 H   0  0  0  0  0  0  0  0  0  0  0  0
   36.6097   20.1377   32.8904 H   0  0  0  0  0  0  0  0  0  0  0  0
   35.1741   21.1942   33.0943 H   0  0  0  0  0  0  0  0  0  0  0  0
   36.4621   22.0669   31.3926 H   0  0  0  0  0  0  0  0  0  0  0  0
   38.4326   20.7457   32.0708 H   0  0  0  0  0  0  0  0  0  0  0  0
   38.7629   22.4197   31.4928 H   0  0  0  0  0  0  0  0  0  0  0  0
   39.7761   21.4404   33.7617 H   0  0  0  0  0  0  0  0  0  0  0  0
   41.6154   23.0073   33.8084 H   0  0  0  0  0  0  0  0  0  0  0  0
   39.9920   27.8467   33.4490 H   0  0  0  0  0  0  0  0  0  0  0  0
   36.0349   26.3708   33.1559 H   0  0  0  0  0  0  0  0  0  0  0  0
  1  2  2  0
  3  2  1  0
  4  3  2  0
  5  6  2  0
  5  4  1  0
  6  1  1  0
  7  5  1  0
  8  7  1  0
  9  8  1  0
 10  9  1  0
 11 10  1  0
 11 12  1  0
 12  7  1  0
 13 12  1  0
 13 14  1  0
 15 14  2  0
 16 15  1  0
 17 16  2  0
 18 17  1  0
 19 18  2  0
 19 20  1  0
 20 21  2  0
 21 16  1  0
 21 13  1  0
  1 22  1  0
  2 23  1  0
  3 24  1  0
  8 25  1  0
  8 26  1  0
  9 27  1  0
  9 28  1  0
 10 29  1  0
 11 30  1  0
 11 31  1  0
 12 32  1  1
 14 33  1  0
 17 34  1  0
 19 35  1  0
M  ISO  8  22  14  23  14  24  14  25  13  26  13  27  13  28  13  29   5
M  ISO  6  30  13  31  13  32  13  33  14  34  14  35  14
M  END
>  <minimizedAffinity>  (1) 
-5.03118277

>  <minimizedRMSD>  (1) 
1.13977814

$$$$
