
     RDKit          3D

 37 39  0  0  1  0  0  0  0  0999 V2000
   39.7060   23.0160   37.1410 C   0  0  0  0  0  0  0  0  0  0  0  0
   38.9020   23.3910   38.2380 C   0  0  0  0  0  0  0  0  0  0  0  0
   37.5330   23.2090   38.1120 C   0  0  0  0  0  0  0  0  0  0  0  0
   37.0290   22.6860   36.9560 N   0  0  0  0  0  0  0  0  0  0  0  0
   37.8410   22.3400   35.9240 C   0  0  0  0  0  0  0  0  0  0  0  0
   39.1720   22.5110   36.0350 N   0  0  0  0  0  0  0  0  0  0  0  0
   37.2270   21.8010   34.7560 N   0  0  0  0  0  0  0  0  0  0  0  0
   36.2000   20.7900   34.9450 C   0  0  0  0  0  0  0  0  0  0  0  0
   35.4790   20.4420   33.6820 C   0  0  0  0  0  0  0  0  0  0  0  0
   35.4810   21.5670   32.8140 N   0  0  0  0  0  0  0  0  0  0  0  0
   36.8650   21.7460   32.3460 C   0  0  0  0  0  0  0  0  0  0  0  0
   37.6910   22.3230   33.4640 C   0  0  1  0  0  0  0  0  0  0  0  0
   37.6650   23.7730   33.4440 N   0  0  0  0  0  0  0  0  0  0  0  0
   38.2610   24.5420   34.3940 C   0  0  0  0  0  0  0  0  0  0  0  0
   38.2630   25.9050   34.4170 C   0  0  0  0  0  0  0  0  0  0  0  0
   38.9220   26.6980   35.4650 C   0  0  0  0  0  0  0  0  0  0  0  0
   37.6150   26.5630   33.4100 C   0  0  0  0  0  0  0  0  0  0  0  0
   37.5740   27.8310   33.3650 O   0  0  0  0  0  0  0  0  0  0  0  0
   37.0130   25.8350   32.4520 N   0  0  0  0  0  0  0  0  0  0  0  0
   37.0490   24.4900   32.4870 C   0  0  0  0  0  0  0  0  0  0  0  0
   36.4620   23.8860   31.5570 O   0  0  0  0  0  0  0  0  0  0  0  0
   40.7967   23.1445   37.2031 H   0  0  0  0  0  0  0  0  0  0  0  0
   39.3425   23.8101   39.1547 H   0  0  0  0  0  0  0  0  0  0  0  0
   36.8588   23.4837   38.9366 H   0  0  0  0  0  0  0  0  0  0  0  0
   36.6740   19.8792   35.3397 H   0  0  0  0  0  0  0  0  0  0  0  0
   35.4573   21.2038   35.6429 H   0  0  0  0  0  0  0  0  0  0  0  0
   35.9853   19.5981   33.1906 H   0  0  0  0  0  0  0  0  0  0  0  0
   34.4420   20.1594   33.9160 H   0  0  0  0  0  0  0  0  0  0  0  0
   34.8558   21.3972   32.0132 H   0  0  0  0  0  0  0  0  0  0  0  0
   37.2809   20.7732   32.0447 H   0  0  0  0  0  0  0  0  0  0  0  0
   36.8797   22.4285   31.4834 H   0  0  0  0  0  0  0  0  0  0  0  0
   38.7366   22.0139   33.3182 H   0  0  0  0  0  0  0  0  0  0  0  0
   38.7840   24.0220   35.2102 H   0  0  0  0  0  0  0  0  0  0  0  0
   38.6139   26.3272   36.4537 H   0  0  0  0  0  0  0  0  0  0  0  0
   40.0134   26.6060   35.3627 H   0  0  0  0  0  0  0  0  0  0  0  0
   38.6318   27.7541   35.3627 H   0  0  0  0  0  0  0  0  0  0  0  0
   36.5195   26.3119   31.6839 H   0  0  0  0  0  0  0  0  0  0  0  0
  1  2  2  0
  3  2  1  0
  4  3  2  0
  5  6  2  0
  5  4  1  0
  6  1  1  0
  7  8  1  0
  7  5  1  0
  9  8  1  0
 10  9  1  0
 11 10  1  0
 11 12  1  0
 12  7  1  0
 13 12  1  0
 13 14  1  0
 14 15  2  0
 15 16  1  0
 17 15  1  0
 18 17  2  0
 19 20  1  0
 19 17  1  0
 20 13  1  0
 21 20  2  0
  1 22  1  0
  2 23  1  0
  3 24  1  0
  8 25  1  0
  8 26  1  0
  9 27  1  0
  9 28  1  0
 10 29  1  0
 11 30  1  0
 11 31  1  0
 12 32  1  6
 14 33  1  0
 16 34  1  0
 16 35  1  0
 16 36  1  0
 19 37  1  0
M  ISO  8  22  14  23  14  24  14  25  13  26  13  27  13  28  13  29   5
M  ISO  8  30  13  31  13  32  13  33  14  34   8  35   8  36   8  37   9
M  END
>  <minimizedAffinity>  (1) 
-5.53443956

>  <minimizedRMSD>  (1) 
0.854366541

$$$$
