
     RDKit          3D

 49 52  0  0  0  0  0  0  0  0999 V2000
   38.7290   23.2790   38.2080 C   0  0  0  0  0  0  0  0  0  0  0  0
   38.0760   23.9500   37.1620 C   0  0  0  0  0  0  0  0  0  0  0  0
   38.6450   24.1310   35.9270 C   0  0  0  0  0  0  0  0  0  0  0  0
   39.8940   23.6170   35.7640 N   0  0  0  0  0  0  0  0  0  0  0  0
   40.5320   22.9800   36.7340 C   0  0  0  0  0  0  0  0  0  0  0  0
   39.9830   22.7930   37.9600 N   0  0  0  0  0  0  0  0  0  0  0  0
   41.8780   22.4440   36.5110 C   0  0  0  0  0  0  0  0  0  0  0  0
   43.1670   22.9340   36.4130 C   0  0  0  0  0  0  0  0  0  0  0  0
   43.9800   21.8280   36.1890 C   0  0  0  0  0  0  0  0  0  0  0  0
   43.1330   20.7340   36.1650 C   0  0  0  0  0  0  0  0  0  0  0  0
   41.9060   21.1250   36.3560 O   0  0  0  0  0  0  0  0  0  0  0  0
   43.6200   19.4130   35.9540 N   0  0  0  0  0  0  0  0  0  0  0  0
   43.3150   18.7320   34.7100 C   0  0  0  0  0  0  0  0  0  0  0  0
   43.1440   17.2610   35.1050 C   0  0  0  0  0  0  0  0  0  0  0  0
   42.5990   17.1760   36.4420 N   0  0  0  0  0  0  0  0  0  0  0  0
   43.5040   17.5940   37.4670 C   0  0  0  0  0  0  0  0  0  0  0  0
   44.4180   18.7030   36.9350 C   0  0  0  0  0  0  0  0  0  0  0  0
   37.8140   24.9830   34.6040 S   0  0  0  0  0  0  0  0  0  0  0  0
   38.0710   26.7500   34.6020 C   0  0  0  0  0  0  0  0  0  0  0  0
   38.9510   27.2860   35.6860 C   0  0  0  0  0  0  0  0  0  0  0  0
   36.7800   27.5540   34.5890 C   0  0  0  0  0  0  0  0  0  0  0  0
   38.7280   27.0930   33.2440 C   0  0  0  0  0  0  0  0  0  0  0  0
   37.7190   27.4030   32.2050 C   0  0  0  0  0  0  0  0  0  0  0  0
   37.0480   26.4540   31.5000 N   0  0  0  0  0  0  0  0  0  0  0  0
   36.2430   27.0590   30.6740 O   0  0  0  0  0  0  0  0  0  0  0  0
   36.3460   28.3630   30.7940 C   0  0  0  0  0  0  0  0  0  0  0  0
   37.2560   28.5760   31.7400 N   0  0  0  0  0  0  0  0  0  0  0  0
   38.2502   23.1491   39.1898 H   0  0  0  0  0  0  0  0  0  0  0  0
   37.0658   24.3472   37.3402 H   0  0  0  0  0  0  0  0  0  0  0  0
   43.4847   23.9839   36.4953 H   0  0  0  0  0  0  0  0  0  0  0  0
   45.0721   21.8238   36.0578 H   0  0  0  0  0  0  0  0  0  0  0  0
   44.1401   18.8476   33.9918 H   0  0  0  0  0  0  0  0  0  0  0  0
   42.4177   19.1392   34.2212 H   0  0  0  0  0  0  0  0  0  0  0  0
   42.4584   16.7700   34.3987 H   0  0  0  0  0  0  0  0  0  0  0  0
   44.1230   16.7601   35.0779 H   0  0  0  0  0  0  0  0  0  0  0  0
   41.7600   17.7717   36.4882 H   0  0  0  0  0  0  0  0  0  0  0  0
   42.9317   17.9738   38.3262 H   0  0  0  0  0  0  0  0  0  0  0  0
   44.1185   16.7368   37.7793 H   0  0  0  0  0  0  0  0  0  0  0  0
   45.3143   18.2722   36.4648 H   0  0  0  0  0  0  0  0  0  0  0  0
   44.7702   19.3671   37.7381 H   0  0  0  0  0  0  0  0  0  0  0  0
   38.5248   27.0264   36.6663 H   0  0  0  0  0  0  0  0  0  0  0  0
   39.9549   26.8459   35.5945 H   0  0  0  0  0  0  0  0  0  0  0  0
   39.0205   28.3800   35.5945 H   0  0  0  0  0  0  0  0  0  0  0  0
   36.4612   27.7525   35.6229 H   0  0  0  0  0  0  0  0  0  0  0  0
   36.9473   28.5079   34.0673 H   0  0  0  0  0  0  0  0  0  0  0  0
   35.9977   26.9831   34.0673 H   0  0  0  0  0  0  0  0  0  0  0  0
   39.3824   27.9672   33.3763 H   0  0  0  0  0  0  0  0  0  0  0  0
   39.3014   26.2152   32.9113 H   0  0  0  0  0  0  0  0  0  0  0  0
   35.7915   29.1249   30.2266 H   0  0  0  0  0  0  0  0  0  0  0  0
  2  1  2  0
  3  2  1  0
  4  3  2  0
  4  5  1  0
  5  6  2  0
  6  1  1  0
  7  5  1  0
  8  7  2  0
  9  8  1  0
 10  9  2  0
 10 11  1  0
 11  7  1  0
 12 10  1  0
 12 17  1  0
 13 14  1  0
 13 12  1  0
 14 15  1  0
 15 16  1  0
 17 16  1  0
 18  3  1  0
 19 18  1  0
 19 20  1  0
 21 19  1  0
 22 19  1  0
 23 22  1  0
 24 23  2  0
 25 26  1  0
 25 24  1  0
 26 27  2  0
 27 23  1  0
  1 28  1  0
  2 29  1  0
  8 30  1  0
  9 31  1  0
 13 32  1  0
 13 33  1  0
 14 34  1  0
 14 35  1  0
 15 36  1  0
 16 37  1  0
 16 38  1  0
 17 39  1  0
 17 40  1  0
 20 41  1  0
 20 42  1  0
 20 43  1  0
 21 44  1  0
 21 45  1  0
 21 46  1  0
 22 47  1  0
 22 48  1  0
 26 49  1  0
M  ISO  8  28  14  29  14  30  14  31  14  32  13  33  13  34  13  35  13
M  ISO  8  36   5  37  13  38  13  39  13  40  13  41   8  42   8  43   8
M  ISO  6  44   8  45   8  46   8  47   8  48   8  49  14
M  END
>  <minimizedAffinity>  (1) 
-5.22252131

>  <minimizedRMSD>  (1) 
1.4786818

$$$$
