
     RDKit          3D

 38 41  0  0  1  0  0  0  0  0999 V2000
   39.8840   22.8880   37.8770 C   0  0  0  0  0  0  0  0  0  0  0  0
   38.7640   23.3080   38.6030 C   0  0  0  0  0  0  0  0  0  0  0  0
   37.8330   24.0740   37.9170 C   0  0  0  0  0  0  0  0  0  0  0  0
   38.0350   24.3830   36.6040 N   0  0  0  0  0  0  0  0  0  0  0  0
   39.1500   23.9480   35.9360 C   0  0  0  0  0  0  0  0  0  0  0  0
   40.0460   23.2100   36.5950 N   0  0  0  0  0  0  0  0  0  0  0  0
   39.2730   24.3210   34.5720 N   0  0  0  0  0  0  0  0  0  0  0  0
   38.0970   24.2150   33.7270 C   0  0  0  0  0  0  0  0  0  0  0  0
   38.2850   24.8180   32.3830 C   0  0  0  0  0  0  0  0  0  0  0  0
   39.2220   25.9030   32.4790 N   0  0  0  0  0  0  0  0  0  0  0  0
   40.5420   25.3010   32.7140 C   0  0  0  0  0  0  0  0  0  0  0  0
   40.5860   24.7880   34.1410 C   0  0  2  0  0  0  0  0  0  0  0  0
   41.6810   23.8670   34.4110 C   0  0  0  0  0  0  0  0  0  0  0  0
   41.7940   22.5630   33.9090 C   0  0  0  0  0  0  0  0  0  0  0  0
   42.9230   21.9830   34.3460 N   0  0  0  0  0  0  0  0  0  0  0  0
   43.6060   22.8400   35.1420 C   0  0  0  0  0  0  0  0  0  0  0  0
   44.7940   22.7900   35.8490 C   0  0  0  0  0  0  0  0  0  0  0  0
   45.2360   23.8710   36.5950 C   0  0  0  0  0  0  0  0  0  0  0  0
   44.4730   25.0290   36.6350 C   0  0  0  0  0  0  0  0  0  0  0  0
   43.3030   25.0300   35.9170 C   0  0  0  0  0  0  0  0  0  0  0  0
   42.8250   23.9810   35.1630 C   0  0  0  0  0  0  0  0  0  0  0  0
   40.6495   22.2768   38.3775 H   0  0  0  0  0  0  0  0  0  0  0  0
   38.6289   23.0445   39.6624 H   0  0  0  0  0  0  0  0  0  0  0  0
   36.9302   24.4329   38.4329 H   0  0  0  0  0  0  0  0  0  0  0  0
   37.8521   23.1500   33.6010 H   0  0  0  0  0  0  0  0  0  0  0  0
   37.2872   24.7698   34.2234 H   0  0  0  0  0  0  0  0  0  0  0  0
   37.3212   25.1960   32.0112 H   0  0  0  0  0  0  0  0  0  0  0  0
   38.6698   24.0578   31.6873 H   0  0  0  0  0  0  0  0  0  0  0  0
   39.2295   26.4442   31.6027 H   0  0  0  0  0  0  0  0  0  0  0  0
   40.7001   24.4672   32.0142 H   0  0  0  0  0  0  0  0  0  0  0  0
   41.3326   26.0494   32.5564 H   0  0  0  0  0  0  0  0  0  0  0  0
   40.8333   25.6462   34.7831 H   0  0  0  0  0  0  0  0  0  0  0  0
   41.0586   22.0813   33.2479 H   0  0  0  0  0  0  0  0  0  0  0  0
   43.2254   21.0269   34.1106 H   0  0  0  0  0  0  0  0  0  0  0  0
   45.4006   21.8729   35.8184 H   0  0  0  0  0  0  0  0  0  0  0  0
   46.1835   23.8114   37.1506 H   0  0  0  0  0  0  0  0  0  0  0  0
   44.7913   25.9071   37.2161 H   0  0  0  0  0  0  0  0  0  0  0  0
   42.6955   25.9465   35.9463 H   0  0  0  0  0  0  0  0  0  0  0  0
  1  2  2  0
  3  2  1  0
  4  3  2  0
  5  6  2  0
  5  4  1  0
  6  1  1  0
  7  5  1  0
  8  7  1  0
  9 10  1  0
  9  8  1  0
 10 11  1  0
 11 12  1  0
 12 13  1  0
 12  7  1  0
 13 21  1  0
 14 15  1  0
 14 13  2  0
 15 16  1  0
 16 21  2  0
 16 17  1  0
 17 18  2  0
 18 19  1  0
 20 19  2  0
 21 20  1  0
  1 22  1  0
  2 23  1  0
  3 24  1  0
  8 25  1  0
  8 26  1  0
  9 27  1  0
  9 28  1  0
 10 29  1  0
 11 30  1  0
 11 31  1  0
 12 32  1  1
 14 33  1  0
 15 34  1  0
 17 35  1  0
 18 36  1  0
 19 37  1  0
 20 38  1  0
M  ISO  8  22  14  23  14  24  14  25  13  26  13  27  13  28  13  29   5
M  ISO  8  30  13  31  13  32  13  33  14  34   9  35  14  36  14  37  14
M  ISO  1  38  14
M  END
>  <minimizedAffinity>  (1) 
-4.93761826

>  <minimizedRMSD>  (1) 
4.23520327

$$$$
