
     RDKit          3D

 31 33  0  0  1  0  0  0  0  0999 V2000
   39.8630   22.7400   37.3890 C   0  0  0  0  0  0  0  0  0  0  0  0
   39.0750   23.3820   38.3500 C   0  0  0  0  0  0  0  0  0  0  0  0
   37.7110   23.4420   38.1010 C   0  0  0  0  0  0  0  0  0  0  0  0
   37.1900   22.8930   36.9640 N   0  0  0  0  0  0  0  0  0  0  0  0
   38.0020   22.2770   36.0560 C   0  0  0  0  0  0  0  0  0  0  0  0
   39.3240   22.2170   36.2940 N   0  0  0  0  0  0  0  0  0  0  0  0
   37.3990   21.7270   34.8960 N   0  0  0  0  0  0  0  0  0  0  0  0
   36.1740   20.9870   35.0680 C   0  0  0  0  0  0  0  0  0  0  0  0
   35.5230   20.5990   33.7730 C   0  0  0  0  0  0  0  0  0  0  0  0
   35.8150   21.6030   32.8120 N   0  0  0  0  0  0  0  0  0  0  0  0
   37.2300   21.4770   32.4690 C   0  0  0  0  0  0  0  0  0  0  0  0
   38.0740   21.9580   33.6100 C   0  0  1  0  0  0  0  0  0  0  0  0
   38.3890   23.3960   33.4010 C   0  0  0  0  0  0  0  0  0  0  0  0
   39.6310   23.9570   33.2390 C   0  0  0  0  0  0  0  0  0  0  0  0
   39.4900   25.3200   33.0710 C   0  0  0  0  0  0  0  0  0  0  0  0
   38.1140   25.5390   33.1390 C   0  0  0  0  0  0  0  0  0  0  0  0
   37.5430   24.3960   33.3300 O   0  0  0  0  0  0  0  0  0  0  0  0
   40.9497   22.6670   37.5433 H   0  0  0  0  0  0  0  0  0  0  0  0
   39.5151   23.8181   39.2589 H   0  0  0  0  0  0  0  0  0  0  0  0
   37.0449   23.9351   38.8243 H   0  0  0  0  0  0  0  0  0  0  0  0
   36.3972   20.0705   35.6339 H   0  0  0  0  0  0  0  0  0  0  0  0
   35.4705   21.6444   35.5999 H   0  0  0  0  0  0  0  0  0  0  0  0
   35.9190   19.6309   33.4324 H   0  0  0  0  0  0  0  0  0  0  0  0
   34.4352   20.5059   33.9072 H   0  0  0  0  0  0  0  0  0  0  0  0
   35.2350   21.4662   31.9719 H   0  0  0  0  0  0  0  0  0  0  0  0
   37.4630   20.4221   32.2619 H   0  0  0  0  0  0  0  0  0  0  0  0
   37.4432   22.0857   31.5779 H   0  0  0  0  0  0  0  0  0  0  0  0
   39.0154   21.3898   33.6420 H   0  0  0  0  0  0  0  0  0  0  0  0
   40.5848   23.4091   33.2425 H   0  0  0  0  0  0  0  0  0  0  0  0
   40.2841   26.0656   32.9179 H   0  0  0  0  0  0  0  0  0  0  0  0
   37.6063   26.5105   33.0466 H   0  0  0  0  0  0  0  0  0  0  0  0
  1  2  2  0
  3  2  1  0
  4  3  2  0
  5  6  2  0
  5  4  1  0
  6  1  1  0
  7  8  1  0
  7  5  1  0
  9  8  1  0
 10  9  1  0
 11 10  1  0
 11 12  1  0
 12  7  1  0
 13 12  1  0
 14 13  2  0
 15 16  2  0
 15 14  1  0
 16 17  1  0
 17 13  1  0
  1 18  1  0
  2 19  1  0
  3 20  1  0
  8 21  1  0
  8 22  1  0
  9 23  1  0
  9 24  1  0
 10 25  1  0
 11 26  1  0
 11 27  1  0
 12 28  1  1
 14 29  1  0
 15 30  1  0
 16 31  1  0
M  ISO  8  18  14  19  14  20  14  21  13  22  13  23  13  24  13  25   5
M  ISO  6  26  13  27  13  28  13  29  14  30  14  31  14
M  END
>  <minimizedAffinity>  (1) 
-4.46328735

>  <minimizedRMSD>  (1) 
0.0515845306

$$$$
