
     RDKit          3D

 31 33  0  0  1  0  0  0  0  0999 V2000
   39.8290   22.9320   37.7130 C   0  0  0  0  0  0  0  0  0  0  0  0
   38.7050   23.1850   38.5040 C   0  0  0  0  0  0  0  0  0  0  0  0
   37.7630   24.0610   37.9870 C   0  0  0  0  0  0  0  0  0  0  0  0
   37.9650   24.6260   36.7610 N   0  0  0  0  0  0  0  0  0  0  0  0
   39.0640   24.3560   36.0270 C   0  0  0  0  0  0  0  0  0  0  0  0
   39.9620   23.5150   36.5310 N   0  0  0  0  0  0  0  0  0  0  0  0
   39.2230   24.9770   34.7660 N   0  0  0  0  0  0  0  0  0  0  0  0
   38.0480   24.9720   33.8840 C   0  0  0  0  0  0  0  0  0  0  0  0
   38.1920   25.8830   32.7080 C   0  0  0  0  0  0  0  0  0  0  0  0
   39.0910   26.9590   33.0370 N   0  0  0  0  0  0  0  0  0  0  0  0
   40.4170   26.3560   33.1360 C   0  0  0  0  0  0  0  0  0  0  0  0
   40.4960   25.5800   34.4270 C   0  0  2  0  0  0  0  0  0  0  0  0
   41.6780   24.7770   34.5460 C   0  0  0  0  0  0  0  0  0  0  0  0
   42.7040   25.1940   35.3020 C   0  0  0  0  0  0  0  0  0  0  0  0
   43.8950   24.6140   35.5850 C   0  0  0  0  0  0  0  0  0  0  0  0
   43.9510   23.2970   34.8810 C   0  0  0  0  0  0  0  0  0  0  0  0
   42.2930   23.1770   33.9700 S   0  0  0  0  0  0  0  0  0  0  0  0
   40.6081   22.2445   38.0742 H   0  0  0  0  0  0  0  0  0  0  0  0
   38.5741   22.7122   39.4886 H   0  0  0  0  0  0  0  0  0  0  0  0
   36.8565   24.2998   38.5625 H   0  0  0  0  0  0  0  0  0  0  0  0
   37.8915   23.9474   33.5157 H   0  0  0  0  0  0  0  0  0  0  0  0
   37.1935   25.3331   34.4751 H   0  0  0  0  0  0  0  0  0  0  0  0
   37.2078   26.2965   32.4427 H   0  0  0  0  0  0  0  0  0  0  0  0
   38.5960   25.3175   31.8554 H   0  0  0  0  0  0  0  0  0  0  0  0
   39.0777   27.6759   32.2975 H   0  0  0  0  0  0  0  0  0  0  0  0
   40.5806   25.6781   32.2853 H   0  0  0  0  0  0  0  0  0  0  0  0
   41.1889   27.1395   33.1199 H   0  0  0  0  0  0  0  0  0  0  0  0
   40.6596   26.2877   35.2531 H   0  0  0  0  0  0  0  0  0  0  0  0
   42.5524   26.1762   35.7735 H   0  0  0  0  0  0  0  0  0  0  0  0
   44.6843   25.0389   36.2226 H   0  0  0  0  0  0  0  0  0  0  0  0
   44.7699   22.5626   34.8895 H   0  0  0  0  0  0  0  0  0  0  0  0
  1  2  2  0
  3  2  1  0
  4  3  2  0
  5  6  2  0
  5  4  1  0
  6  1  1  0
  7  5  1  0
  8  7  1  0
  9 10  1  0
  9  8  1  0
 10 11  1  0
 11 12  1  0
 12 13  1  0
 12  7  1  0
 13 14  2  0
 14 15  1  0
 16 15  2  0
 17 13  1  0
 17 16  1  0
  1 18  1  0
  2 19  1  0
  3 20  1  0
  8 21  1  0
  8 22  1  0
  9 23  1  0
  9 24  1  0
 10 25  1  0
 11 26  1  0
 11 27  1  0
 12 28  1  1
 14 29  1  0
 15 30  1  0
 16 31  1  0
M  ISO  8  18  14  19  14  20  14  21  13  22  13  23  13  24  13  25   5
M  ISO  6  26  13  27  13  28  13  29  14  30  14  31  14
M  END
>  <minimizedAffinity>  (1) 
-4.06702995

>  <minimizedRMSD>  (1) 
3.81031895

$$$$
