
     RDKit          3D

 31 32  0  0  1  0  0  0  0  0999 V2000
   39.8410   22.7110   37.0870 C   0  0  0  0  0  0  0  0  0  0  0  0
   39.0490   23.2500   38.1350 C   0  0  0  0  0  0  0  0  0  0  0  0
   37.6540   23.2670   37.9430 C   0  0  0  0  0  0  0  0  0  0  0  0
   37.1500   22.7760   36.7830 N   0  0  0  0  0  0  0  0  0  0  0  0
   37.9410   22.2720   35.8090 C   0  0  0  0  0  0  0  0  0  0  0  0
   39.2800   22.2470   35.9760 N   0  0  0  0  0  0  0  0  0  0  0  0
   37.3300   21.7770   34.6250 N   0  0  0  0  0  0  0  0  0  0  0  0
   36.1540   20.9360   34.7830 C   0  0  0  0  0  0  0  0  0  0  0  0
   35.4550   20.6790   33.4790 C   0  0  0  0  0  0  0  0  0  0  0  0
   35.6450   21.7960   32.6210 N   0  0  0  0  0  0  0  0  0  0  0  0
   37.0520   21.7600   32.1890 C   0  0  0  0  0  0  0  0  0  0  0  0
   37.9460   22.1580   33.3320 C   0  0  2  0  0  0  0  0  0  0  0  0
   39.1500   21.3150   33.2710 N   0  0  0  0  0  0  0  0  0  0  0  0
   40.3920   21.8990   32.9200 C   0  0  0  0  0  0  0  0  0  0  0  0
   40.6170   23.1420   33.1070 N   0  0  0  0  0  0  0  0  0  0  0  0
   41.4230   21.1010   32.3460 N   0  0  0  0  0  0  0  0  0  0  0  0
   39.9220   23.8020   33.5220 H   0  0  0  0  0  0  0  0  0  0  0  0
   40.9350   22.6772   37.1968 H   0  0  0  0  0  0  0  0  0  0  0  0
   39.5056   23.6378   39.0576 H   0  0  0  0  0  0  0  0  0  0  0  0
   36.9861   23.6705   38.7183 H   0  0  0  0  0  0  0  0  0  0  0  0
   36.4640   19.9724   35.2136 H   0  0  0  0  0  0  0  0  0  0  0  0
   35.4499   21.4643   35.4427 H   0  0  0  0  0  0  0  0  0  0  0  0
   35.8738   19.7774   33.0081 H   0  0  0  0  0  0  0  0  0  0  0  0
   34.3802   20.5282   33.6583 H   0  0  0  0  0  0  0  0  0  0  0  0
   35.0207   21.7273   31.8046 H   0  0  0  0  0  0  0  0  0  0  0  0
   37.3080   20.7412   31.8627 H   0  0  0  0  0  0  0  0  0  0  0  0
   37.1941   22.4628   31.3548 H   0  0  0  0  0  0  0  0  0  0  0  0
   38.1350   23.2393   33.2615 H   0  0  0  0  0  0  0  0  0  0  0  0
   39.0905   20.3085   33.4817 H   0  0  0  0  0  0  0  0  0  0  0  0
   41.2668   20.0958   32.1848 H   0  0  0  0  0  0  0  0  0  0  0  0
   42.3247   21.5292   32.0921 H   0  0  0  0  0  0  0  0  0  0  0  0
  1  2  2  0
  3  2  1  0
  4  3  2  0
  5  6  2  0
  5  4  1  0
  6  1  1  0
  7  8  1  0
  7  5  1  0
  9  8  1  0
 10  9  1  0
 11 10  1  0
 11 12  1  0
 12  7  1  0
 13 12  1  0
 14 15  2  0
 14 13  1  0
 15 17  1  0
 16 14  1  0
  1 18  1  0
  2 19  1  0
  3 20  1  0
  8 21  1  0
  8 22  1  0
  9 23  1  0
  9 24  1  0
 10 25  1  0
 11 26  1  0
 11 27  1  0
 12 28  1  1
 13 29  1  0
 16 30  1  0
 16 31  1  0
M  ISO  8  18  14  19  14  20  14  21  13  22  13  23  13  24  13  25   5
M  ISO  3  26  13  27  13  28  13
M  END
>  <minimizedAffinity>  (1) 
-3.90638328

>  <minimizedRMSD>  (1) 
1.0654422

$$$$
