
     RDKit          3D

 25 26  0  0  1  0  0  0  0  0999 V2000
   39.8290   22.7630   36.9110 C   0  0  0  0  0  0  0  0  0  0  0  0
   39.0630   23.2310   37.9840 C   0  0  0  0  0  0  0  0  0  0  0  0
   37.6610   23.1920   37.8540 C   0  0  0  0  0  0  0  0  0  0  0  0
   37.1370   22.7020   36.7000 N   0  0  0  0  0  0  0  0  0  0  0  0
   37.9100   22.2590   35.6850 C   0  0  0  0  0  0  0  0  0  0  0  0
   39.2440   22.2990   35.8140 N   0  0  0  0  0  0  0  0  0  0  0  0
   37.2540   21.7660   34.5160 N   0  0  0  0  0  0  0  0  0  0  0  0
   36.1180   20.9000   34.6890 C   0  0  0  0  0  0  0  0  0  0  0  0
   35.3870   20.6330   33.4080 C   0  0  0  0  0  0  0  0  0  0  0  0
   35.5130   21.7720   32.5460 N   0  0  0  0  0  0  0  0  0  0  0  0
   36.9140   21.7750   32.0890 C   0  0  0  0  0  0  0  0  0  0  0  0
   37.8160   22.2010   33.2170 C   0  0  2  0  0  0  0  0  0  0  0  0
   39.4560   21.4370   33.0940 S   0  0  0  0  0  0  0  0  0  0  0  0
   40.9269   22.7798   36.9773 H   0  0  0  0  0  0  0  0  0  0  0  0
   39.5392   23.6162   38.8977 H   0  0  0  0  0  0  0  0  0  0  0  0
   37.0082   23.5484   38.6644 H   0  0  0  0  0  0  0  0  0  0  0  0
   36.4670   19.9413   35.1002 H   0  0  0  0  0  0  0  0  0  0  0  0
   35.4175   21.4067   35.3691 H   0  0  0  0  0  0  0  0  0  0  0  0
   35.8190   19.7494   32.9154 H   0  0  0  0  0  0  0  0  0  0  0  0
   34.3240   20.4473   33.6213 H   0  0  0  0  0  0  0  0  0  0  0  0
   34.8737   21.6868   31.7429 H   0  0  0  0  0  0  0  0  0  0  0  0
   37.1932   20.7632   31.7600 H   0  0  0  0  0  0  0  0  0  0  0  0
   37.0218   22.4794   31.2510 H   0  0  0  0  0  0  0  0  0  0  0  0
   37.8974   23.2960   33.1508 H   0  0  0  0  0  0  0  0  0  0  0  0
   39.9484   21.2076   34.3517 H   0  0  0  0  0  0  0  0  0  0  0  0
  1  2  2  0
  3  2  1  0
  4  3  2  0
  5  6  2  0
  5  4  1  0
  6  1  1  0
  7  8  1  0
  7  5  1  0
  9  8  1  0
 10  9  1  0
 11 10  1  0
 11 12  1  0
 12  7  1  0
 13 12  1  0
  1 14  1  0
  2 15  1  0
  3 16  1  0
  8 17  1  0
  8 18  1  0
  9 19  1  0
  9 20  1  0
 10 21  1  0
 11 22  1  0
 11 23  1  0
 12 24  1  1
 13 25  1  0
M  ISO  8  14  14  15  14  16  14  17  13  18  13  19  13  20  13  21   5
M  ISO  4  22  13  23  13  24  13  25  11
M  END
>  <minimizedAffinity>  (1) 
-3.80959725

>  <minimizedRMSD>  (1) 
0.48465988

$$$$
