
     RDKit          3D

 47 49  0  0  0  0  0  0  0  0999 V2000
   37.6240   25.0870   34.7440 S   0  0  0  0  0  0  0  0  0  0  0  0
   38.5580   23.2830   38.2880 C   0  0  0  0  0  0  0  0  0  0  0  0
   37.8920   23.9710   37.2630 C   0  0  0  0  0  0  0  0  0  0  0  0
   38.4730   24.2160   36.0360 C   0  0  0  0  0  0  0  0  0  0  0  0
   39.7420   23.7490   35.8710 N   0  0  0  0  0  0  0  0  0  0  0  0
   40.3880   23.0970   36.8260 C   0  0  0  0  0  0  0  0  0  0  0  0
   39.8320   22.8470   38.0380 N   0  0  0  0  0  0  0  0  0  0  0  0
   41.7530   22.6160   36.5910 C   0  0  0  0  0  0  0  0  0  0  0  0
   43.0090   23.1440   36.4230 C   0  0  0  0  0  0  0  0  0  0  0  0
   43.8600   22.0540   36.2390 C   0  0  0  0  0  0  0  0  0  0  0  0
   43.0590   20.9300   36.3070 C   0  0  0  0  0  0  0  0  0  0  0  0
   41.8240   21.2890   36.5160 O   0  0  0  0  0  0  0  0  0  0  0  0
   43.6520   19.5720   36.1500 C   0  0  0  0  0  0  0  0  0  0  0  0
   45.1540   19.6110   36.4130 C   0  0  0  0  0  0  0  0  0  0  0  0
   43.4120   19.1650   34.6960 C   0  0  0  0  0  0  0  0  0  0  0  0
   43.0510   18.5490   37.0570 C   0  0  0  0  0  0  0  0  0  0  0  0
   37.9820   26.8180   34.6520 C   0  0  0  0  0  0  0  0  0  0  0  0
   38.8840   27.3460   35.7360 C   0  0  0  0  0  0  0  0  0  0  0  0
   36.7600   27.6950   34.5860 C   0  0  0  0  0  0  0  0  0  0  0  0
   38.6990   27.0590   33.3050 C   0  0  0  0  0  0  0  0  0  0  0  0
   37.7210   27.3630   32.2260 C   0  0  0  0  0  0  0  0  0  0  0  0
   37.0050   26.4020   31.5710 N   0  0  0  0  0  0  0  0  0  0  0  0
   36.2430   26.9830   30.6920 O   0  0  0  0  0  0  0  0  0  0  0  0
   36.4100   28.2770   30.7210 C   0  0  0  0  0  0  0  0  0  0  0  0
   37.3300   28.5260   31.6750 N   0  0  0  0  0  0  0  0  0  0  0  0
   38.0739   23.1000   39.2587 H   0  0  0  0  0  0  0  0  0  0  0  0
   36.8677   24.3287   37.4444 H   0  0  0  0  0  0  0  0  0  0  0  0
   43.2873   24.2082   36.4317 H   0  0  0  0  0  0  0  0  0  0  0  0
   44.9471   22.0833   36.0735 H   0  0  0  0  0  0  0  0  0  0  0  0
   45.3363   19.6157   37.4978 H   0  0  0  0  0  0  0  0  0  0  0  0
   45.6277   18.7249   35.9654 H   0  0  0  0  0  0  0  0  0  0  0  0
   45.5811   20.5205   35.9654 H   0  0  0  0  0  0  0  0  0  0  0  0
   42.8534   18.2178   34.6678 H   0  0  0  0  0  0  0  0  0  0  0  0
   42.8313   19.9484   34.1870 H   0  0  0  0  0  0  0  0  0  0  0  0
   44.3786   19.0360   34.1870 H   0  0  0  0  0  0  0  0  0  0  0  0
   43.2225   18.8409   38.1036 H   0  0  0  0  0  0  0  0  0  0  0  0
   41.9695   18.4812   36.8677 H   0  0  0  0  0  0  0  0  0  0  0  0
   43.5183   17.5714   36.8677 H   0  0  0  0  0  0  0  0  0  0  0  0
   38.4593   27.0974   36.7198 H   0  0  0  0  0  0  0  0  0  0  0  0
   39.8795   26.8880   35.6400 H   0  0  0  0  0  0  0  0  0  0  0  0
   38.9721   28.4383   35.6400 H   0  0  0  0  0  0  0  0  0  0  0  0
   36.4255   27.9351   35.6060 H   0  0  0  0  0  0  0  0  0  0  0  0
   37.0045   28.6250   34.0519 H   0  0  0  0  0  0  0  0  0  0  0  0
   35.9572   27.1657   34.0519 H   0  0  0  0  0  0  0  0  0  0  0  0
   39.3907   27.9075   33.4127 H   0  0  0  0  0  0  0  0  0  0  0  0
   39.2480   26.1456   33.0325 H   0  0  0  0  0  0  0  0  0  0  0  0
   35.8998   29.0198   30.0902 H   0  0  0  0  0  0  0  0  0  0  0  0
  1  4  1  0
  3  2  2  0
  4  3  1  0
  5  4  2  0
  5  6  1  0
  6  7  2  0
  7  2  1  0
  8  6  1  0
  9  8  2  0
 10 11  2  0
 10  9  1  0
 11 12  1  0
 12  8  1  0
 13 11  1  0
 13 14  1  0
 13 16  1  0
 15 13  1  0
 17  1  1  0
 17 18  1  0
 19 17  1  0
 20 17  1  0
 21 20  1  0
 22 21  2  0
 23 24  1  0
 23 22  1  0
 24 25  2  0
 25 21  1  0
  2 26  1  0
  3 27  1  0
  9 28  1  0
 10 29  1  0
 14 30  1  0
 14 31  1  0
 14 32  1  0
 15 33  1  0
 15 34  1  0
 15 35  1  0
 16 36  1  0
 16 37  1  0
 16 38  1  0
 18 39  1  0
 18 40  1  0
 18 41  1  0
 19 42  1  0
 19 43  1  0
 19 44  1  0
 20 45  1  0
 20 46  1  0
 24 47  1  0
M  ISO  8  26  14  27  14  28  14  29  14  30   8  31   8  32   8  33   8
M  ISO  8  34   8  35   8  36   8  37   8  38   8  39   8  40   8  41   8
M  ISO  6  42   8  43   8  44   8  45   8  46   8  47  14
M  END
>  <minimizedAffinity>  (1) 
-5.15512037

>  <minimizedRMSD>  (1) 
1.33149886

$$$$
