
     RDKit          3D

 46 49  0  0  1  0  0  0  0  0999 V2000
   39.7000   22.9150   37.9990 C   0  0  0  0  0  0  0  0  0  0  0  0
   38.4550   23.3460   38.4810 C   0  0  0  0  0  0  0  0  0  0  0  0
   37.7020   24.1490   37.6410 C   0  0  0  0  0  0  0  0  0  0  0  0
   38.2070   24.4610   36.4250 N   0  0  0  0  0  0  0  0  0  0  0  0
   39.4210   24.0260   35.9840 C   0  0  0  0  0  0  0  0  0  0  0  0
   40.1560   23.2470   36.7980 N   0  0  0  0  0  0  0  0  0  0  0  0
   39.8180   24.4340   34.6910 N   0  0  0  0  0  0  0  0  0  0  0  0
   38.8620   24.3380   33.6050 C   0  0  0  0  0  0  0  0  0  0  0  0
   39.3330   24.9930   32.3440 C   0  0  0  0  0  0  0  0  0  0  0  0
   40.2450   26.0460   32.6590 N   0  0  0  0  0  0  0  0  0  0  0  0
   41.4610   25.3890   33.1380 C   0  0  0  0  0  0  0  0  0  0  0  0
   41.1960   24.9240   34.5680 C   0  0  2  0  0  0  0  0  0  0  0  0
   42.1640   23.9040   35.0280 C   0  0  0  0  0  0  0  0  0  0  0  0
   43.1470   24.2450   35.9250 C   0  0  0  0  0  0  0  0  0  0  0  0
   44.1050   23.3930   36.4340 C   0  0  0  0  0  0  0  0  0  0  0  0
   44.0460   22.0840   35.9840 C   0  0  0  0  0  0  0  0  0  0  0  0
   43.0570   21.7510   35.0850 C   0  0  0  0  0  0  0  0  0  0  0  0
   42.1580   22.6300   34.6300 N   0  0  0  0  0  0  0  0  0  0  0  0
   42.9460   20.4200   34.5850 N   0  0  0  0  0  0  0  0  0  0  0  0
   43.4140   19.3620   35.2830 C   0  0  0  0  0  0  0  0  0  0  0  0
   43.3180   18.0660   34.8220 C   0  0  0  0  0  0  0  0  0  0  0  0
   43.8200   16.8910   35.5620 C   0  0  0  0  0  0  0  0  0  0  0  0
   42.7210   17.8080   33.5980 C   0  0  0  0  0  0  0  0  0  0  0  0
   42.6000   16.6680   33.1220 O   0  0  0  0  0  0  0  0  0  0  0  0
   42.2560   18.8960   32.9160 N   0  0  0  0  0  0  0  0  0  0  0  0
   42.3700   20.1430   33.3990 C   0  0  0  0  0  0  0  0  0  0  0  0
   41.9070   21.0700   32.6850 O   0  0  0  0  0  0  0  0  0  0  0  0
   40.3230   22.2763   38.6424 H   0  0  0  0  0  0  0  0  0  0  0  0
   38.0938   23.0594   39.4797 H   0  0  0  0  0  0  0  0  0  0  0  0
   36.7168   24.5243   37.9547 H   0  0  0  0  0  0  0  0  0  0  0  0
   38.6747   23.2741   33.3973 H   0  0  0  0  0  0  0  0  0  0  0  0
   37.9503   24.8637   33.9251 H   0  0  0  0  0  0  0  0  0  0  0  0
   38.4695   25.4071   31.8027 H   0  0  0  0  0  0  0  0  0  0  0  0
   39.8412   24.2476   31.7147 H   0  0  0  0  0  0  0  0  0  0  0  0
   40.4476   26.6082   31.8201 H   0  0  0  0  0  0  0  0  0  0  0  0
   41.6980   24.5251   32.4996 H   0  0  0  0  0  0  0  0  0  0  0  0
   42.3147   26.0819   33.1069 H   0  0  0  0  0  0  0  0  0  0  0  0
   41.3307   25.7957   35.2252 H   0  0  0  0  0  0  0  0  0  0  0  0
   43.1724   25.2900   36.2677 H   0  0  0  0  0  0  0  0  0  0  0  0
   44.8672   23.7313   37.1514 H   0  0  0  0  0  0  0  0  0  0  0  0
   44.7683   21.3321   36.3346 H   0  0  0  0  0  0  0  0  0  0  0  0
   43.8906   19.5417   36.2580 H   0  0  0  0  0  0  0  0  0  0  0  0
   43.7405   17.0772   36.6432 H   0  0  0  0  0  0  0  0  0  0  0  0
   43.2208   16.0074   35.2970 H   0  0  0  0  0  0  0  0  0  0  0  0
   44.8727   16.7131   35.2970 H   0  0  0  0  0  0  0  0  0  0  0  0
   41.8033   18.7550   32.0016 H   0  0  0  0  0  0  0  0  0  0  0  0
  1  2  2  0
  3  2  1  0
  4  3  2  0
  5  4  1  0
  5  6  2  0
  6  1  1  0
  7  5  1  0
  8  7  1  0
  9 10  1  0
  9  8  1  0
 10 11  1  0
 11 12  1  0
 12  7  1  0
 12 13  1  0
 13 14  2  0
 14 15  1  0
 16 15  2  0
 17 16  1  0
 18 13  1  0
 18 17  2  0
 19 17  1  0
 19 20  1  0
 21 20  2  0
 21 22  1  0
 23 21  1  0
 24 23  2  0
 25 26  1  0
 25 23  1  0
 26 19  1  0
 27 26  2  0
  1 28  1  0
  2 29  1  0
  3 30  1  0
  8 31  1  0
  8 32  1  0
  9 33  1  0
  9 34  1  0
 10 35  1  0
 11 36  1  0
 11 37  1  0
 12 38  1  1
 14 39  1  0
 15 40  1  0
 16 41  1  0
 20 42  1  0
 22 43  1  0
 22 44  1  0
 22 45  1  0
 25 46  1  0
M  ISO  8  28  14  29  14  30  14  31  13  32  13  33  13  34  13  35   5
M  ISO  8  36  13  37  13  38  13  39  14  40  14  41  14  42  14  43   8
M  ISO  3  44   8  45   8  46   9
M  END
>  <minimizedAffinity>  (1) 
-4.94964361

>  <minimizedRMSD>  (1) 
1.7247442

$$$$
