
     RDKit          3D

 44 47  0  0  0  0  0  0  0  0999 V2000
   39.7897   22.9275   37.7119 C   0  0  0  0  0  0  0  0  0  0  0  0
   38.6814   23.1731   38.5217 C   0  0  0  0  0  0  0  0  0  0  0  0
   37.7307   24.0841   38.0477 C   0  0  0  0  0  0  0  0  0  0  0  0
   37.9545   24.6596   36.8411 N   0  0  0  0  0  0  0  0  0  0  0  0
   39.0473   24.3978   36.0754 C   0  0  0  0  0  0  0  0  0  0  0  0
   39.9514   23.5306   36.5276 N   0  0  0  0  0  0  0  0  0  0  0  0
   39.1401   25.0763   34.8411 N   0  0  0  0  0  0  0  0  0  0  0  0
   37.9724   25.1479   33.9955 C   0  0  0  0  0  0  0  0  0  0  0  0
   38.1350   26.0658   32.8257 C   0  0  0  0  0  0  0  0  0  0  0  0
   39.0761   27.0867   33.1434 N   0  0  0  0  0  0  0  0  0  0  0  0
   40.3889   26.4217   33.2037 C   0  0  0  0  0  0  0  0  0  0  0  0
   40.4495   25.6597   34.5251 C   0  0  2  0  0  0  0  0  0  0  0  0
   41.5123   24.6237   34.5408 C   0  0  0  0  0  0  0  0  0  0  0  0
   42.5963   24.7733   35.3768 C   0  0  0  0  0  0  0  0  0  0  0  0
   43.6485   23.8898   35.4933 C   0  0  0  0  0  0  0  0  0  0  0  0
   43.5735   22.7587   34.6782 C   0  0  0  0  0  0  0  0  0  0  0  0
   42.4821   22.6265   33.8489 C   0  0  0  0  0  0  0  0  0  0  0  0
   41.4882   23.5221   33.7802 N   0  0  0  0  0  0  0  0  0  0  0  0
   40.5012   22.2103   38.1257 H   0  0  0  0  0  0  0  0  0  0  0  0
   38.5236   22.7091   39.4697 H   0  0  0  0  0  0  0  0  0  0  0  0
   36.8301   24.3537   38.5888 H   0  0  0  0  0  0  0  0  0  0  0  0
   37.0519   25.3333   34.5912 H   0  0  0  0  0  0  0  0  0  0  0  0
   37.8340   24.1113   33.5694 H   0  0  0  0  0  0  0  0  0  0  0  0
   38.4028   25.5518   31.8867 H   0  0  0  0  0  0  0  0  0  0  0  0
   37.1417   26.5529   32.6471 H   0  0  0  0  0  0  0  0  0  0  0  0
   39.0886   27.9130   32.5222 H   0  0  0  0  0  0  0  0  0  0  0  0
   41.1628   27.2127   33.1936 H   0  0  0  0  0  0  0  0  0  0  0  0
   40.4352   25.7176   32.3622 H   0  0  0  0  0  0  0  0  0  0  0  0
   40.6587   26.4071   35.2886 H   0  0  0  0  0  0  0  0  0  0  0  0
   42.6462   25.6529   36.0050 H   0  0  0  0  0  0  0  0  0  0  0  0
   44.4635   24.0781   36.1730 H   0  0  0  0  0  0  0  0  0  0  0  0
   44.3746   22.0524   34.7441 H   0  0  0  0  0  0  0  0  0  0  0  0
   42.5042   21.4409   33.0628 N   0  0  0  0  0  0  0  0  0  0  0  0
   42.7768   21.4140   31.7444 C   0  0  0  0  0  0  0  0  0  0  0  0
   42.7691   20.1898   31.0790 C   0  0  0  0  0  0  0  0  0  0  0  0
   42.4789   19.0518   31.8134 C   0  0  0  0  0  0  0  0  0  0  0  0
   42.4599   17.7811   31.1756 N   0  0  0  0  0  0  0  0  0  0  0  0
   42.2135   19.1370   33.1312 N   0  0  0  0  0  0  0  0  0  0  0  0
   42.2211   20.3357   33.7819 C   0  0  0  0  0  0  0  0  0  0  0  0
   41.9619   20.2912   34.9956 O   0  0  0  0  0  0  0  0  0  0  0  0
   42.9925   22.3521   31.2519 H   0  0  0  0  0  0  0  0  0  0  0  0
   42.9889   20.1698   30.0171 H   0  0  0  0  0  0  0  0  0  0  0  0
   41.7609   17.1880   30.6456 H   0  0  0  0  0  0  0  0  0  0  0  0
   41.4573   17.8044   30.8496 H   0  0  0  0  0  0  0  0  0  0  0  0
  1  2  2  0
  3  2  1  0
  4  3  2  0
  5  6  2  0
  5  4  1  0
  6  1  1  0
  7  5  1  0
  8  7  1  0
  9 10  1  0
  9  8  1  0
 10 11  1  0
 11 12  1  0
 12 13  1  0
 12  7  1  0
 13 14  2  0
 14 15  1  0
 16 15  2  0
 17 16  1  0
 18 17  2  0
 18 13  1  0
  1 19  1  0
  2 20  1  0
  3 21  1  0
  8 22  1  0
  8 23  1  0
  9 24  1  0
  9 25  1  0
 10 26  1  0
 11 27  1  0
 11 28  1  0
 12 29  1  1
 14 30  1  0
 15 31  1  0
 16 32  1  0
 33 34  1  0
 34 35  2  0
 35 36  1  0
 36 37  1  0
 36 38  2  0
 38 39  1  0
 39 40  2  0
 39 33  1  0
 34 41  1  0
 35 42  1  0
 37 43  1  0
 37 44  1  0
 17 33  1  0
M  END
>  <DihAtoms>  (1) 
15,16,32,33

>  <DihDeg>  (1) 
44.205304045362226

$$$$
