
     RDKit          3D

 43 46  0  0  1  0  0  0  0  0999 V2000
   39.5730   23.1270   38.0850 C   0  0  0  0  0  0  0  0  0  0  0  0
   38.2520   23.3990   38.4640 C   0  0  0  0  0  0  0  0  0  0  0  0
   37.3980   23.8680   37.4830 C   0  0  0  0  0  0  0  0  0  0  0  0
   37.8890   24.0350   36.2250 N   0  0  0  0  0  0  0  0  0  0  0  0
   39.1780   23.7610   35.8880 C   0  0  0  0  0  0  0  0  0  0  0  0
   40.0090   23.3060   36.8380 N   0  0  0  0  0  0  0  0  0  0  0  0
   39.5500   23.9800   34.5440 N   0  0  0  0  0  0  0  0  0  0  0  0
   38.6720   23.5080   33.4980 C   0  0  0  0  0  0  0  0  0  0  0  0
   39.0670   23.9830   32.1310 C   0  0  0  0  0  0  0  0  0  0  0  0
   39.7610   25.2330   32.2390 N   0  0  0  0  0  0  0  0  0  0  0  0
   41.0540   24.9190   32.8440 C   0  0  0  0  0  0  0  0  0  0  0  0
   40.8210   24.6830   34.3330 C   0  0  2  0  0  0  0  0  0  0  0  0
   41.9410   23.9650   34.9890 C   0  0  0  0  0  0  0  0  0  0  0  0
   42.9340   24.6830   35.6140 C   0  0  0  0  0  0  0  0  0  0  0  0
   44.0220   24.1480   36.2630 C   0  0  0  0  0  0  0  0  0  0  0  0
   44.0960   22.7550   36.2710 C   0  0  0  0  0  0  0  0  0  0  0  0
   43.0910   22.0550   35.6400 C   0  0  0  0  0  0  0  0  0  0  0  0
   42.0500   22.6340   35.0210 N   0  0  0  0  0  0  0  0  0  0  0  0
   43.2060   20.6310   35.6730 N   0  0  0  0  0  0  0  0  0  0  0  0
   43.6490   20.0580   34.5240 C   0  0  0  0  0  0  0  0  0  0  0  0
   43.7950   18.6930   34.4520 C   0  0  0  0  0  0  0  0  0  0  0  0
   43.4880   17.8990   35.5600 C   0  0  0  0  0  0  0  0  0  0  0  0
   43.6010   16.6260   35.5620 O   0  0  0  0  0  0  0  0  0  0  0  0
   43.0530   18.5150   36.6760 N   0  0  0  0  0  0  0  0  0  0  0  0
   42.9140   19.8530   36.7330 C   0  0  0  0  0  0  0  0  0  0  0  0
   42.5160   20.5160   37.7270 O   0  0  0  0  0  0  0  0  0  0  0  0
   40.2758   22.7522   38.8437 H   0  0  0  0  0  0  0  0  0  0  0  0
   37.9089   23.2460   39.4979 H   0  0  0  0  0  0  0  0  0  0  0  0
   36.3479   24.1003   37.7137 H   0  0  0  0  0  0  0  0  0  0  0  0
   38.6841   22.4081   33.5022 H   0  0  0  0  0  0  0  0  0  0  0  0
   37.6707   23.9129   33.7064 H   0  0  0  0  0  0  0  0  0  0  0  0
   38.1655   24.1166   31.5150 H   0  0  0  0  0  0  0  0  0  0  0  0
   39.7262   23.2381   31.6614 H   0  0  0  0  0  0  0  0  0  0  0  0
   39.8931   25.6517   31.3073 H   0  0  0  0  0  0  0  0  0  0  0  0
   41.4744   24.0136   32.3819 H   0  0  0  0  0  0  0  0  0  0  0  0
   41.7636   25.7453   32.6901 H   0  0  0  0  0  0  0  0  0  0  0  0
   40.7698   25.6726   34.8106 H   0  0  0  0  0  0  0  0  0  0  0  0
   42.8506   25.7796   35.5928 H   0  0  0  0  0  0  0  0  0  0  0  0
   44.7845   24.7777   36.7446 H   0  0  0  0  0  0  0  0  0  0  0  0
   44.9289   22.2329   36.7646 H   0  0  0  0  0  0  0  0  0  0  0  0
   43.8904   20.6849   33.6529 H   0  0  0  0  0  0  0  0  0  0  0  0
   44.1533   18.2261   33.5227 H   0  0  0  0  0  0  0  0  0  0  0  0
   42.8213   17.9494   37.5050 H   0  0  0  0  0  0  0  0  0  0  0  0
  1  2  2  0
  3  2  1  0
  4  3  2  0
  5  4  1  0
  5  6  2  0
  6  1  1  0
  7  5  1  0
  8  7  1  0
  9 10  1  0
  9  8  1  0
 10 11  1  0
 11 12  1  0
 12  7  1  0
 12 13  1  0
 13 18  1  0
 13 14  2  0
 14 15  1  0
 15 16  2  0
 17 19  1  0
 17 16  1  0
 18 17  2  0
 19 25  1  0
 20 19  1  0
 21 20  2  0
 21 22  1  0
 22 23  2  0
 22 24  1  0
 24 25  1  0
 25 26  2  0
  1 27  1  0
  2 28  1  0
  3 29  1  0
  8 30  1  0
  8 31  1  0
  9 32  1  0
  9 33  1  0
 10 34  1  0
 11 35  1  0
 11 36  1  0
 12 37  1  1
 14 38  1  0
 15 39  1  0
 16 40  1  0
 20 41  1  0
 21 42  1  0
 24 43  1  0
M  ISO  8  27  14  28  14  29  14  30  13  31  13  32  13  33  13  34   5
M  ISO  8  35  13  36  13  37  13  38  14  39  14  40  14  41  14  42  14
M  ISO  1  43   9
M  END
>  <minimizedAffinity>  (1) 
-5.24104834

>  <minimizedRMSD>  (1) 
2.4479959

$$$$
