
     RDKit          3D

 40 42  0  0  1  0  0  0  0  0999 V2000
   39.6640   22.9440   38.0390 C   0  0  0  0  0  0  0  0  0  0  0  0
   38.4250   23.3850   38.5010 C   0  0  0  0  0  0  0  0  0  0  0  0
   37.6440   24.1330   37.6180 C   0  0  0  0  0  0  0  0  0  0  0  0
   38.1480   24.3730   36.3810 N   0  0  0  0  0  0  0  0  0  0  0  0
   39.3600   23.9300   35.9600 C   0  0  0  0  0  0  0  0  0  0  0  0
   40.1020   23.2150   36.8090 N   0  0  0  0  0  0  0  0  0  0  0  0
   39.7470   24.2610   34.6440 N   0  0  0  0  0  0  0  0  0  0  0  0
   38.7840   24.0980   33.5740 C   0  0  0  0  0  0  0  0  0  0  0  0
   39.2450   24.6670   32.2710 C   0  0  0  0  0  0  0  0  0  0  0  0
   40.1520   25.7490   32.5170 N   0  0  0  0  0  0  0  0  0  0  0  0
   41.3740   25.1360   33.0280 C   0  0  0  0  0  0  0  0  0  0  0  0
   41.1220   24.7520   34.4840 C   0  0  2  0  0  0  0  0  0  0  0  0
   42.1020   23.7650   34.9950 C   0  0  0  0  0  0  0  0  0  0  0  0
   43.0540   24.1570   35.9050 C   0  0  0  0  0  0  0  0  0  0  0  0
   44.0180   23.3470   36.4590 C   0  0  0  0  0  0  0  0  0  0  0  0
   44.0030   22.0250   36.0450 C   0  0  0  0  0  0  0  0  0  0  0  0
   43.0420   21.6410   35.1310 C   0  0  0  0  0  0  0  0  0  0  0  0
   42.1260   22.4790   34.6250 N   0  0  0  0  0  0  0  0  0  0  0  0
   42.9800   20.2900   34.6690 N   0  0  0  0  0  0  0  0  0  0  0  0
   43.6460   19.2100   35.3030 C   0  0  0  0  0  0  0  0  0  0  0  0
   44.6010   19.5470   36.1230 N   0  0  0  0  0  0  0  0  0  0  0  0
   43.2360   17.8600   35.0050 N   0  0  0  0  0  0  0  0  0  0  0  0
   45.0990   18.7450   36.5960 H   0  0  0  0  0  0  0  0  0  0  0  0
   40.3021   22.3524   38.7119 H   0  0  0  0  0  0  0  0  0  0  0  0
   38.0772   23.1534   39.5185 H   0  0  0  0  0  0  0  0  0  0  0  0
   36.6556   24.5141   37.9143 H   0  0  0  0  0  0  0  0  0  0  0  0
   38.5926   23.0234   33.4374 H   0  0  0  0  0  0  0  0  0  0  0  0
   37.8767   24.6471   33.8662 H   0  0  0  0  0  0  0  0  0  0  0  0
   38.3775   25.0371   31.7050 H   0  0  0  0  0  0  0  0  0  0  0  0
   39.7555   23.8853   31.6894 H   0  0  0  0  0  0  0  0  0  0  0  0
   40.3453   26.2604   31.6440 H   0  0  0  0  0  0  0  0  0  0  0  0
   41.6182   24.2389   32.4401 H   0  0  0  0  0  0  0  0  0  0  0  0
   42.2188   25.8365   32.9532 H   0  0  0  0  0  0  0  0  0  0  0  0
   41.2551   25.6602   35.0902 H   0  0  0  0  0  0  0  0  0  0  0  0
   43.0444   25.2115   36.2181 H   0  0  0  0  0  0  0  0  0  0  0  0
   44.7537   23.7248   37.1843 H   0  0  0  0  0  0  0  0  0  0  0  0
   44.7356   21.3021   36.4333 H   0  0  0  0  0  0  0  0  0  0  0  0
   42.4201   20.0892   33.8281 H   0  0  0  0  0  0  0  0  0  0  0  0
   43.7105   17.0658   35.4578 H   0  0  0  0  0  0  0  0  0  0  0  0
   42.4686   17.6899   34.3393 H   0  0  0  0  0  0  0  0  0  0  0  0
  1  2  2  0
  3  2  1  0
  4  3  2  0
  5  4  1  0
  5  6  2  0
  6  1  1  0
  7  5  1  0
  8  7  1  0
  9 10  1  0
  9  8  1  0
 10 11  1  0
 11 12  1  0
 12  7  1  0
 12 13  1  0
 13 14  2  0
 14 15  1  0
 16 15  2  0
 17 16  1  0
 18 13  1  0
 18 17  2  0
 19 17  1  0
 19 20  1  0
 20 21  2  0
 21 23  1  0
 22 20  1  0
  1 24  1  0
  2 25  1  0
  3 26  1  0
  8 27  1  0
  8 28  1  0
  9 29  1  0
  9 30  1  0
 10 31  1  0
 11 32  1  0
 11 33  1  0
 12 34  1  1
 14 35  1  0
 15 36  1  0
 16 37  1  0
 19 38  1  0
 22 39  1  0
 22 40  1  0
M  ISO  8  24  14  25  14  26  14  27  13  28  13  29  13  30  13  31   5
M  ISO  6  32  13  33  13  34  13  35  14  36  14  37  14
M  END
>  <minimizedAffinity>  (1) 
-4.62839031

>  <minimizedRMSD>  (1) 
1.52558434

$$$$
