
     RDKit          3D

 39 42  0  0  1  0  0  0  0  0999 V2000
   39.6980   22.9420   37.9890 C   0  0  0  0  0  0  0  0  0  0  0  0
   38.4340   23.3310   38.4590 C   0  0  0  0  0  0  0  0  0  0  0  0
   37.6610   24.1190   37.6140 C   0  0  0  0  0  0  0  0  0  0  0  0
   38.1740   24.4530   36.4050 N   0  0  0  0  0  0  0  0  0  0  0  0
   39.4030   24.0590   35.9800 C   0  0  0  0  0  0  0  0  0  0  0  0
   40.1510   23.3040   36.7860 N   0  0  0  0  0  0  0  0  0  0  0  0
   39.8010   24.4860   34.6940 N   0  0  0  0  0  0  0  0  0  0  0  0
   38.8570   24.3920   33.6050 C   0  0  0  0  0  0  0  0  0  0  0  0
   39.3230   25.0560   32.3510 C   0  0  0  0  0  0  0  0  0  0  0  0
   40.2060   26.1310   32.6830 N   0  0  0  0  0  0  0  0  0  0  0  0
   41.4390   25.5000   33.1640 C   0  0  0  0  0  0  0  0  0  0  0  0
   41.1740   24.9970   34.5820 C   0  0  2  0  0  0  0  0  0  0  0  0
   42.1560   23.9950   35.0330 C   0  0  0  0  0  0  0  0  0  0  0  0
   43.1310   24.3290   35.9370 C   0  0  0  0  0  0  0  0  0  0  0  0
   44.1020   23.5310   36.4560 C   0  0  0  0  0  0  0  0  0  0  0  0
   44.0700   22.2280   35.9920 C   0  0  0  0  0  0  0  0  0  0  0  0
   43.0890   21.8540   35.0690 C   0  0  0  0  0  0  0  0  0  0  0  0
   42.1820   22.7420   34.6320 N   0  0  0  0  0  0  0  0  0  0  0  0
   43.0230   20.4650   34.5480 C   0  0  0  0  0  0  0  0  0  0  0  0
   42.5520   20.2500   33.2810 C   0  0  0  0  0  0  0  0  0  0  0  0
   42.6410   18.4040   33.0440 S   0  0  0  0  0  0  0  0  0  0  0  0
   43.3380   18.2600   34.8040 C   0  0  0  0  0  0  0  0  0  0  0  0
   43.3530   19.3330   35.1130 N   0  0  0  0  0  0  0  0  0  0  0  0
   40.3363   22.3187   38.6325 H   0  0  0  0  0  0  0  0  0  0  0  0
   38.0712   23.0260   39.4516 H   0  0  0  0  0  0  0  0  0  0  0  0
   36.6610   24.4618   37.9182 H   0  0  0  0  0  0  0  0  0  0  0  0
   38.6792   23.3280   33.3897 H   0  0  0  0  0  0  0  0  0  0  0  0
   37.9423   24.9126   33.9250 H   0  0  0  0  0  0  0  0  0  0  0  0
   38.4561   25.4498   31.8002 H   0  0  0  0  0  0  0  0  0  0  0  0
   39.8536   24.3250   31.7233 H   0  0  0  0  0  0  0  0  0  0  0  0
   40.3986   26.7071   31.8512 H   0  0  0  0  0  0  0  0  0  0  0  0
   41.7092   24.6572   32.5108 H   0  0  0  0  0  0  0  0  0  0  0  0
   42.2709   26.2197   33.1572 H   0  0  0  0  0  0  0  0  0  0  0  0
   41.2908   25.8588   35.2556 H   0  0  0  0  0  0  0  0  0  0  0  0
   43.1274   25.3722   36.2859 H   0  0  0  0  0  0  0  0  0  0  0  0
   44.8474   23.8899   37.1810 H   0  0  0  0  0  0  0  0  0  0  0  0
   44.8089   21.4939   36.3457 H   0  0  0  0  0  0  0  0  0  0  0  0
   42.1984   21.0022   32.5605 H   0  0  0  0  0  0  0  0  0  0  0  0
   43.6434   17.3648   35.3656 H   0  0  0  0  0  0  0  0  0  0  0  0
  1  2  2  0
  3  2  1  0
  4  3  2  0
  5  4  1  0
  5  6  2  0
  6  1  1  0
  7  5  1  0
  8  7  1  0
  9 10  1  0
  9  8  1  0
 10 11  1  0
 11 12  1  0
 12  7  1  0
 12 13  1  0
 13 14  2  0
 14 15  1  0
 16 15  2  0
 17 16  1  0
 18 13  1  0
 18 17  2  0
 19 17  1  0
 19 23  1  0
 20 19  2  0
 21 20  1  0
 21 22  1  0
 22 23  2  0
  1 24  1  0
  2 25  1  0
  3 26  1  0
  8 27  1  0
  8 28  1  0
  9 29  1  0
  9 30  1  0
 10 31  1  0
 11 32  1  0
 11 33  1  0
 12 34  1  1
 14 35  1  0
 15 36  1  0
 16 37  1  0
 20 38  1  0
 22 39  1  0
M  ISO  8  24  14  25  14  26  14  27  13  28  13  29  13  30  13  31   5
M  ISO  8  32  13  33  13  34  13  35  14  36  14  37  14  38  14  39  14
M  END
>  <minimizedAffinity>  (1) 
-4.45904255

>  <minimizedRMSD>  (1) 
1.52696359

$$$$
