
     RDKit          3D

 39 41  0  0  1  0  0  0  0  0999 V2000
   39.7140   22.8920   37.9550 C   0  0  0  0  0  0  0  0  0  0  0  0
   38.4760   23.3100   38.4600 C   0  0  0  0  0  0  0  0  0  0  0  0
   37.7150   24.1340   37.6470 C   0  0  0  0  0  0  0  0  0  0  0  0
   38.2140   24.4750   36.4360 N   0  0  0  0  0  0  0  0  0  0  0  0
   39.4220   24.0540   35.9690 C   0  0  0  0  0  0  0  0  0  0  0  0
   40.1600   23.2560   36.7530 N   0  0  0  0  0  0  0  0  0  0  0  0
   39.8130   24.4920   34.6860 N   0  0  0  0  0  0  0  0  0  0  0  0
   38.8430   24.4280   33.6090 C   0  0  0  0  0  0  0  0  0  0  0  0
   39.3070   25.1100   32.3580 C   0  0  0  0  0  0  0  0  0  0  0  0
   40.2230   26.1590   32.6990 N   0  0  0  0  0  0  0  0  0  0  0  0
   41.4400   25.4980   33.1570 C   0  0  0  0  0  0  0  0  0  0  0  0
   41.1930   24.9780   34.5680 C   0  0  2  0  0  0  0  0  0  0  0  0
   42.1520   23.9380   34.9820 C   0  0  0  0  0  0  0  0  0  0  0  0
   43.1010   24.2440   35.9530 C   0  0  0  0  0  0  0  0  0  0  0  0
   44.0500   23.3630   36.4320 C   0  0  0  0  0  0  0  0  0  0  0  0
   44.0330   22.0900   35.8900 C   0  0  0  0  0  0  0  0  0  0  0  0
   43.0830   21.8170   34.9320 C   0  0  0  0  0  0  0  0  0  0  0  0
   42.1790   22.6920   34.4890 N   0  0  0  0  0  0  0  0  0  0  0  0
   42.9910   20.4710   34.2930 C   0  0  0  0  0  0  0  0  0  0  0  0
   43.3480   19.3560   35.2170 C   0  0  0  0  0  0  0  0  0  0  0  0
   40.3433   22.2370   38.5755 H   0  0  0  0  0  0  0  0  0  0  0  0
   38.1248   22.9987   39.4549 H   0  0  0  0  0  0  0  0  0  0  0  0
   36.7319   24.5012   37.9767 H   0  0  0  0  0  0  0  0  0  0  0  0
   38.6452   23.3708   33.3785 H   0  0  0  0  0  0  0  0  0  0  0  0
   37.9381   24.9515   33.9513 H   0  0  0  0  0  0  0  0  0  0  0  0
   38.4414   25.5361   31.8297 H   0  0  0  0  0  0  0  0  0  0  0  0
   39.8102   24.3802   31.7067 H   0  0  0  0  0  0  0  0  0  0  0  0
   40.4217   26.7427   31.8739 H   0  0  0  0  0  0  0  0  0  0  0  0
   41.6836   24.6596   32.4878 H   0  0  0  0  0  0  0  0  0  0  0  0
   42.2827   26.2050   33.1531 H   0  0  0  0  0  0  0  0  0  0  0  0
   41.3480   25.8234   35.2544 H   0  0  0  0  0  0  0  0  0  0  0  0
   43.0945   25.2622   36.3692 H   0  0  0  0  0  0  0  0  0  0  0  0
   44.7790   23.6567   37.2016 H   0  0  0  0  0  0  0  0  0  0  0  0
   44.7529   21.3236   36.2131 H   0  0  0  0  0  0  0  0  0  0  0  0
   41.9587   20.3193   33.9446 H   0  0  0  0  0  0  0  0  0  0  0  0
   43.7140   20.4527   33.4641 H   0  0  0  0  0  0  0  0  0  0  0  0
   43.2398   19.6938   36.2582 H   0  0  0  0  0  0  0  0  0  0  0  0
   42.6784   18.5021   35.0371 H   0  0  0  0  0  0  0  0  0  0  0  0
   44.3891   19.0498   35.0371 H   0  0  0  0  0  0  0  0  0  0  0  0
  1  2  2  0
  3  2  1  0
  4  3  2  0
  5  4  1  0
  5  6  2  0
  6  1  1  0
  7  5  1  0
  8  7  1  0
  9 10  1  0
  9  8  1  0
 10 11  1  0
 11 12  1  0
 12  7  1  0
 12 13  1  0
 13 14  2  0
 14 15  1  0
 16 15  2  0
 17 16  1  0
 18 17  2  0
 18 13  1  0
 19 17  1  0
 19 20  1  0
  1 21  1  0
  2 22  1  0
  3 23  1  0
  8 24  1  0
  8 25  1  0
  9 26  1  0
  9 27  1  0
 10 28  1  0
 11 29  1  0
 11 30  1  0
 12 31  1  1
 14 32  1  0
 15 33  1  0
 16 34  1  0
 19 35  1  0
 19 36  1  0
 20 37  1  0
 20 38  1  0
 20 39  1  0
M  ISO  8  21  14  22  14  23  14  24  13  25  13  26  13  27  13  28   5
M  ISO  8  29  13  30  13  31  13  32  14  33  14  34  14  35   8  36   8
M  ISO  3  37   8  38   8  39   8
M  END
>  <minimizedAffinity>  (1) 
-4.20231533

>  <minimizedRMSD>  (1) 
1.17301047

$$$$
