
     RDKit          3D

 36 38  0  0  1  0  0  0  0  0999 V2000
   39.7140   22.9340   38.0040 C   0  0  0  0  0  0  0  0  0  0  0  0
   38.4670   23.3450   38.4740 C   0  0  0  0  0  0  0  0  0  0  0  0
   37.6680   24.0780   37.5960 C   0  0  0  0  0  0  0  0  0  0  0  0
   38.1530   24.3390   36.3600 N   0  0  0  0  0  0  0  0  0  0  0  0
   39.3780   23.9220   35.9340 C   0  0  0  0  0  0  0  0  0  0  0  0
   40.1460   23.2150   36.7790 N   0  0  0  0  0  0  0  0  0  0  0  0
   39.7500   24.2690   34.6170 N   0  0  0  0  0  0  0  0  0  0  0  0
   38.7910   24.0900   33.5500 C   0  0  0  0  0  0  0  0  0  0  0  0
   39.2280   24.6930   32.2520 C   0  0  0  0  0  0  0  0  0  0  0  0
   40.1040   25.7770   32.4950 N   0  0  0  0  0  0  0  0  0  0  0  0
   41.3520   25.1970   32.9990 C   0  0  0  0  0  0  0  0  0  0  0  0
   41.1120   24.7920   34.4500 C   0  0  2  0  0  0  0  0  0  0  0  0
   42.1220   23.8290   34.9550 C   0  0  0  0  0  0  0  0  0  0  0  0
   43.0550   24.2370   35.8780 C   0  0  0  0  0  0  0  0  0  0  0  0
   44.0380   23.4370   36.4250 C   0  0  0  0  0  0  0  0  0  0  0  0
   44.0620   22.1210   35.9900 C   0  0  0  0  0  0  0  0  0  0  0  0
   43.1180   21.7300   35.0630 C   0  0  0  0  0  0  0  0  0  0  0  0
   42.1830   22.5510   34.5640 N   0  0  0  0  0  0  0  0  0  0  0  0
   43.1060   20.3260   34.5680 C   0  0  0  0  0  0  0  0  0  0  0  0
   42.9420   19.4060   35.5820 F   0  0  0  0  0  0  0  0  0  0  0  0
   42.0420   20.2250   33.6650 F   0  0  0  0  0  0  0  0  0  0  0  0
   44.2890   20.0840   33.9030 F   0  0  0  0  0  0  0  0  0  0  0  0
   40.3660   22.3542   38.6739 H   0  0  0  0  0  0  0  0  0  0  0  0
   38.1283   23.1020   39.4920 H   0  0  0  0  0  0  0  0  0  0  0  0
   36.6724   24.4335   37.8998 H   0  0  0  0  0  0  0  0  0  0  0  0
   38.6347   23.0117   33.3987 H   0  0  0  0  0  0  0  0  0  0  0  0
   37.8675   24.6050   33.8531 H   0  0  0  0  0  0  0  0  0  0  0  0
   38.3461   25.0531   31.7019 H   0  0  0  0  0  0  0  0  0  0  0  0
   39.7519   23.9306   31.6568 H   0  0  0  0  0  0  0  0  0  0  0  0
   40.2793   26.2956   31.6225 H   0  0  0  0  0  0  0  0  0  0  0  0
   41.6245   24.3141   32.4021 H   0  0  0  0  0  0  0  0  0  0  0  0
   42.1747   25.9238   32.9291 H   0  0  0  0  0  0  0  0  0  0  0  0
   41.2220   25.7003   35.0606 H   0  0  0  0  0  0  0  0  0  0  0  0
   43.0152   25.2857   36.2075 H   0  0  0  0  0  0  0  0  0  0  0  0
   44.7590   23.8207   37.1618 H   0  0  0  0  0  0  0  0  0  0  0  0
   44.8102   21.4108   36.3719 H   0  0  0  0  0  0  0  0  0  0  0  0
  1  2  2  0
  3  2  1  0
  4  3  2  0
  5  4  1  0
  5  6  2  0
  6  1  1  0
  7  5  1  0
  8  7  1  0
  9 10  1  0
  9  8  1  0
 10 11  1  0
 11 12  1  0
 12  7  1  0
 12 13  1  0
 13 14  2  0
 14 15  1  0
 16 15  2  0
 17 16  1  0
 18 13  1  0
 18 17  2  0
 19 17  1  0
 19 20  1  0
 21 19  1  0
 22 19  1  0
  1 23  1  0
  2 24  1  0
  3 25  1  0
  8 26  1  0
  8 27  1  0
  9 28  1  0
  9 29  1  0
 10 30  1  0
 11 31  1  0
 11 32  1  0
 12 33  1  1
 14 34  1  0
 15 35  1  0
 16 36  1  0
M  ISO  8  23  14  24  14  25  14  26  13  27  13  28  13  29  13  30   5
M  ISO  6  31  13  32  13  33  13  34  14  35  14  36  14
M  END
>  <minimizedAffinity>  (1) 
-4.33881569

>  <minimizedRMSD>  (1) 
1.42486322

$$$$
