
     RDKit          3D

 34 36  0  0  1  0  0  0  0  0999 V2000
   39.7940   22.9300   37.7050 C   0  0  0  0  0  0  0  0  0  0  0  0
   38.6720   23.1790   38.5260 C   0  0  0  0  0  0  0  0  0  0  0  0
   37.7310   24.0820   38.0540 C   0  0  0  0  0  0  0  0  0  0  0  0
   37.9490   24.6610   36.8460 N   0  0  0  0  0  0  0  0  0  0  0  0
   39.0400   24.4010   36.0780 C   0  0  0  0  0  0  0  0  0  0  0  0
   39.9510   23.5270   36.5330 N   0  0  0  0  0  0  0  0  0  0  0  0
   39.1330   25.0810   34.8420 N   0  0  0  0  0  0  0  0  0  0  0  0
   37.9570   25.1610   33.9980 C   0  0  0  0  0  0  0  0  0  0  0  0
   38.1310   26.0790   32.8310 C   0  0  0  0  0  0  0  0  0  0  0  0
   39.0840   27.0880   33.1450 N   0  0  0  0  0  0  0  0  0  0  0  0
   40.3830   26.4200   33.2060 C   0  0  0  0  0  0  0  0  0  0  0  0
   40.4470   25.6540   34.5240 C   0  0  2  0  0  0  0  0  0  0  0  0
   41.5020   24.6120   34.5330 C   0  0  0  0  0  0  0  0  0  0  0  0
   42.6010   24.7590   35.3480 C   0  0  0  0  0  0  0  0  0  0  0  0
   43.6480   23.8670   35.4560 C   0  0  0  0  0  0  0  0  0  0  0  0
   43.5540   22.7360   34.6590 C   0  0  0  0  0  0  0  0  0  0  0  0
   42.4420   22.6000   33.8400 C   0  0  0  0  0  0  0  0  0  0  0  0
   41.4570   23.5050   33.7830 N   0  0  0  0  0  0  0  0  0  0  0  0
   42.4420   21.1000   32.8650 S   0  0  0  0  0  0  0  0  0  0  0  0
   40.5600   22.2194   38.0490 H   0  0  0  0  0  0  0  0  0  0  0  0
   38.5498   22.6784   39.4978 H   0  0  0  0  0  0  0  0  0  0  0  0
   36.8331   24.3222   38.6423 H   0  0  0  0  0  0  0  0  0  0  0  0
   37.7292   24.1536   33.6195 H   0  0  0  0  0  0  0  0  0  0  0  0
   37.1400   25.5658   34.6133 H   0  0  0  0  0  0  0  0  0  0  0  0
   37.1666   26.5505   32.5911 H   0  0  0  0  0  0  0  0  0  0  0  0
   38.4882   25.5008   31.9661 H   0  0  0  0  0  0  0  0  0  0  0  0
   39.0898   27.8132   32.4136 H   0  0  0  0  0  0  0  0  0  0  0  0
   40.4861   25.7226   32.3616 H   0  0  0  0  0  0  0  0  0  0  0  0
   41.1986   27.1557   33.1470 H   0  0  0  0  0  0  0  0  0  0  0  0
   40.7223   26.3757   35.3072 H   0  0  0  0  0  0  0  0  0  0  0  0
   42.6489   25.6668   35.9674 H   0  0  0  0  0  0  0  0  0  0  0  0
   44.5003   24.0413   36.1292 H   0  0  0  0  0  0  0  0  0  0  0  0
   44.3402   21.9669   34.6756 H   0  0  0  0  0  0  0  0  0  0  0  0
   43.7337   20.7171   32.6161 H   0  0  0  0  0  0  0  0  0  0  0  0
  1  2  2  0
  3  2  1  0
  4  3  2  0
  5  6  2  0
  5  4  1  0
  6  1  1  0
  7  5  1  0
  8  7  1  0
  9 10  1  0
  9  8  1  0
 10 11  1  0
 11 12  1  0
 12 13  1  0
 12  7  1  0
 13 14  2  0
 14 15  1  0
 16 15  2  0
 17 16  1  0
 18 17  2  0
 18 13  1  0
 19 17  1  0
  1 20  1  0
  2 21  1  0
  3 22  1  0
  8 23  1  0
  8 24  1  0
  9 25  1  0
  9 26  1  0
 10 27  1  0
 11 28  1  0
 11 29  1  0
 12 30  1  1
 14 31  1  0
 15 32  1  0
 16 33  1  0
 19 34  1  0
M  ISO  8  20  14  21  14  22  14  23  13  24  13  25  13  26  13  27   5
M  ISO  7  28  13  29  13  30  13  31  14  32  14  33  14  34  11
M  END
>  <minimizedAffinity>  (1) 
-4.14028645

>  <minimizedRMSD>  (1) 
0.0258472078

$$$$
