
     RDKit          3D

 41 46  0  0  0  0  0  0  0  0999 V2000
   37.6730   22.9300   33.6180 C   0  0  0  0  0  0  0  0  0  0  0  0
   37.3680   24.1420   32.9980 C   0  0  0  0  0  0  0  0  0  0  0  0
   38.1570   25.2370   33.2780 C   0  0  0  0  0  0  0  0  0  0  0  0
   39.2060   25.0630   34.1610 N   0  0  0  0  0  0  0  0  0  0  0  0
   39.4800   23.8990   34.7410 C   0  0  0  0  0  0  0  0  0  0  0  0
   38.7250   22.8380   34.4770 N   0  0  0  0  0  0  0  0  0  0  0  0
   36.9350   21.7420   33.4080 N   0  0  0  0  0  0  0  0  0  0  0  0
   36.1680   21.1950   34.3930 C   0  0  0  0  0  0  0  0  0  0  0  0
   35.5550   20.0680   33.9790 N   0  0  0  0  0  0  0  0  0  0  0  0
   35.9250   19.8710   32.6990 C   0  0  0  0  0  0  0  0  0  0  0  0
   35.6620   18.9240   31.7090 C   0  0  0  0  0  0  0  0  0  0  0  0
   36.2140   19.0260   30.4890 N   0  0  0  0  0  0  0  0  0  0  0  0
   37.0370   20.0650   30.2250 C   0  0  0  0  0  0  0  0  0  0  0  0
   37.3260   21.0140   31.1490 N   0  0  0  0  0  0  0  0  0  0  0  0
   36.7700   20.9100   32.3760 C   0  0  0  0  0  0  0  0  0  0  0  0
   34.7750   17.8850   32.1470 N   0  0  0  0  0  0  0  0  0  0  0  0
   37.8390   26.5060   32.6310 C   0  0  0  0  0  0  0  0  0  0  0  0
   36.7770   27.3320   33.0500 C   0  0  0  0  0  0  0  0  0  0  0  0
   36.8210   28.3990   32.2000 N   0  0  0  0  0  0  0  0  0  0  0  0
   37.8370   28.1990   31.3530 C   0  0  0  0  0  0  0  0  0  0  0  0
   38.4660   27.0720   31.5880 N   0  0  0  0  0  0  0  0  0  0  0  0
   43.0620   26.7930   31.4680 N   0  0  0  0  0  0  0  0  0  0  0  0
   42.5820   27.4860   32.5250 C   0  0  0  0  0  0  0  0  0  0  0  0
   41.2470   27.5270   32.4960 N   0  0  0  0  0  0  0  0  0  0  0  0
   40.8170   26.8490   31.4000 C   0  0  0  0  0  0  0  0  0  0  0  0
   39.5790   26.5690   30.8760 C   0  0  0  0  0  0  0  0  0  0  0  0
   39.4640   25.8520   29.7420 N   0  0  0  0  0  0  0  0  0  0  0  0
   40.5990   25.4280   29.1550 C   0  0  0  0  0  0  0  0  0  0  0  0
   41.8380   25.6910   29.6540 N   0  0  0  0  0  0  0  0  0  0  0  0
   41.9760   26.4130   30.7990 C   0  0  0  0  0  0  0  0  0  0  0  0
   36.5191   24.2218   32.3031 H   0  0  0  0  0  0  0  0  0  0  0  0
   40.3280   23.8144   35.4365 H   0  0  0  0  0  0  0  0  0  0  0  0
   36.0622   21.6208   35.4017 H   0  0  0  0  0  0  0  0  0  0  0  0
   37.4884   20.1434   29.2249 H   0  0  0  0  0  0  0  0  0  0  0  0
   34.5085   17.1288   31.5004 H   0  0  0  0  0  0  0  0  0  0  0  0
   34.4047   17.8952   33.1081 H   0  0  0  0  0  0  0  0  0  0  0  0
   36.0717   27.1565   33.8757 H   0  0  0  0  0  0  0  0  0  0  0  0
   38.1134   28.8995   30.5512 H   0  0  0  0  0  0  0  0  0  0  0  0
   44.0466   26.6021   31.2333 H   0  0  0  0  0  0  0  0  0  0  0  0
   43.2053   27.9522   33.3023 H   0  0  0  0  0  0  0  0  0  0  0  0
   40.5215   24.8410   28.2279 H   0  0  0  0  0  0  0  0  0  0  0  0
  1  6  2  0
  2  3  2  0
  2  1  1  0
  3  4  1  0
  4  5  2  0
  6  5  1  0
  7  1  1  0
  7  8  1  0
  9  8  2  0
 10  9  1  0
 11 16  1  0
 11 10  2  0
 12 11  1  0
 13 12  2  0
 13 14  1  0
 14 15  2  0
 15 10  1  0
 15  7  1  0
 17 18  2  0
 17  3  1  0
 19 18  1  0
 20 21  1  0
 20 19  2  0
 21 17  1  0
 22 23  1  0
 24 23  2  0
 25 24  1  0
 26 25  2  0
 26 21  1  0
 27 26  1  0
 28 29  1  0
 28 27  2  0
 29 30  2  0
 30 25  1  0
 30 22  1  0
  2 31  1  0
  5 32  1  0
  8 33  1  0
 13 34  1  0
 16 35  1  0
 16 36  1  0
 18 37  1  0
 20 38  1  0
 22 39  1  0
 23 40  1  0
 28 41  1  0
M  ISO  8  31  14  32  14  33  14  34  14  37  14  38  14  39   9  40  14
M  ISO  1  41  14
M  END
>  <minimizedAffinity>  (1) 
-5.32576227

>  <minimizedRMSD>  (1) 
2.30572271

$$$$
