
     RDKit          3D

 43 47  0  0  0  0  0  0  0  0999 V2000
   37.2180   22.0920   33.4850 C   0  0  0  0  0  0  0  0  0  0  0  0
   37.1700   23.2550   32.7210 C   0  0  0  0  0  0  0  0  0  0  0  0
   37.6530   24.4250   33.2700 C   0  0  0  0  0  0  0  0  0  0  0  0
   38.1550   24.3600   34.5540 N   0  0  0  0  0  0  0  0  0  0  0  0
   38.1930   23.2370   35.2720 C   0  0  0  0  0  0  0  0  0  0  0  0
   37.7240   22.1040   34.7370 N   0  0  0  0  0  0  0  0  0  0  0  0
   36.7520   20.8380   33.0210 N   0  0  0  0  0  0  0  0  0  0  0  0
   35.6390   20.2550   33.5280 C   0  0  0  0  0  0  0  0  0  0  0  0
   35.3960   19.0710   32.9300 N   0  0  0  0  0  0  0  0  0  0  0  0
   36.3530   18.8670   32.0200 C   0  0  0  0  0  0  0  0  0  0  0  0
   36.6680   17.8700   31.0970 C   0  0  0  0  0  0  0  0  0  0  0  0
   37.7470   17.9890   30.3070 N   0  0  0  0  0  0  0  0  0  0  0  0
   38.5320   19.0950   30.4140 C   0  0  0  0  0  0  0  0  0  0  0  0
   38.2600   20.0890   31.3000 N   0  0  0  0  0  0  0  0  0  0  0  0
   37.1840   19.9660   32.0880 C   0  0  0  0  0  0  0  0  0  0  0  0
   35.7680   16.7780   31.0930 N   0  0  0  0  0  0  0  0  0  0  0  0
   37.6050   25.6400   32.4750 C   0  0  0  0  0  0  0  0  0  0  0  0
   36.4030   26.1580   31.9500 C   0  0  0  0  0  0  0  0  0  0  0  0
   36.7710   27.2880   31.2750 N   0  0  0  0  0  0  0  0  0  0  0  0
   38.0970   27.4200   31.4000 C   0  0  0  0  0  0  0  0  0  0  0  0
   38.6140   26.4360   32.1180 N   0  0  0  0  0  0  0  0  0  0  0  0
   40.0040   26.2880   32.4340 C   0  0  0  0  0  0  0  0  0  0  0  0
   40.8660   27.0620   31.4330 C   0  0  0  0  0  0  0  0  0  0  0  0
   42.1730   27.3490   32.1040 C   0  0  0  0  0  0  0  0  0  0  0  0
   41.8350   27.3830   33.5790 C   0  0  0  0  0  0  0  0  0  0  0  0
   40.3840   27.0040   33.7160 C   0  0  0  0  0  0  0  0  0  0  0  0
   36.7560   23.2413   31.7020 H   0  0  0  0  0  0  0  0  0  0  0  0
   38.6050   23.2421   36.2919 H   0  0  0  0  0  0  0  0  0  0  0  0
   35.0156   20.6903   34.3229 H   0  0  0  0  0  0  0  0  0  0  0  0
   39.4141   19.1876   29.7633 H   0  0  0  0  0  0  0  0  0  0  0  0
   35.9162   15.9908   30.4455 H   0  0  0  0  0  0  0  0  0  0  0  0
   34.9647   16.7704   31.7376 H   0  0  0  0  0  0  0  0  0  0  0  0
   35.3902   25.7431   32.0598 H   0  0  0  0  0  0  0  0  0  0  0  0
   38.6824   28.2417   30.9617 H   0  0  0  0  0  0  0  0  0  0  0  0
   40.1614   25.1997   32.4633 H   0  0  0  0  0  0  0  0  0  0  0  0
   40.3692   28.0038   31.1569 H   0  0  0  0  0  0  0  0  0  0  0  0
   41.0188   26.4765   30.5144 H   0  0  0  0  0  0  0  0  0  0  0  0
   42.9039   26.5554   31.8897 H   0  0  0  0  0  0  0  0  0  0  0  0
   42.6282   28.2876   31.7548 H   0  0  0  0  0  0  0  0  0  0  0  0
   42.4645   26.6656   34.1258 H   0  0  0  0  0  0  0  0  0  0  0  0
   42.0166   28.3843   33.9966 H   0  0  0  0  0  0  0  0  0  0  0  0
   39.7664   27.9049   33.8457 H   0  0  0  0  0  0  0  0  0  0  0  0
   40.2214   26.3616   34.5940 H   0  0  0  0  0  0  0  0  0  0  0  0
  1  6  2  0
  2  3  2  0
  2  1  1  0
  3  4  1  0
  4  5  2  0
  6  5  1  0
  7  1  1  0
  7  8  1  0
  9  8  2  0
 10 15  2  0
 10  9  1  0
 11 10  1  0
 12 13  1  0
 12 11  2  0
 13 14  2  0
 14 15  1  0
 15  7  1  0
 16 11  1  0
 17  3  1  0
 18 17  2  0
 19 20  2  0
 19 18  1  0
 20 21  1  0
 21 22  1  0
 21 17  1  0
 22 26  1  0
 23 24  1  0
 23 22  1  0
 24 25  1  0
 25 26  1  0
  2 27  1  0
  5 28  1  0
  8 29  1  0
 13 30  1  0
 16 31  1  0
 16 32  1  0
 18 33  1  0
 20 34  1  0
 22 35  1  0
 23 36  1  0
 23 37  1  0
 24 38  1  0
 24 39  1  0
 25 40  1  0
 25 41  1  0
 26 42  1  0
 26 43  1  0
M  ISO  8  27  14  28  14  29  14  30  14  33  14  34  14  35  13  36  13
M  ISO  7  37  13  38  13  39  13  40  13  41  13  42  13  43  13
M  END
>  <minimizedAffinity>  (1) 
-5.07192278

>  <minimizedRMSD>  (1) 
1.65077913

$$$$
