
     RDKit          3D

 46 50  0  0  0  0  0  0  0  0999 V2000
   37.6860   22.9300   33.6240 C   0  0  0  0  0  0  0  0  0  0  0  0
   37.3930   24.1360   32.9870 C   0  0  0  0  0  0  0  0  0  0  0  0
   38.1910   25.2240   33.2710 C   0  0  0  0  0  0  0  0  0  0  0  0
   39.2290   25.0520   34.1670 N   0  0  0  0  0  0  0  0  0  0  0  0
   39.4890   23.8830   34.7650 C   0  0  0  0  0  0  0  0  0  0  0  0
   38.7250   22.8290   34.4960 N   0  0  0  0  0  0  0  0  0  0  0  0
   36.9430   21.7440   33.4180 N   0  0  0  0  0  0  0  0  0  0  0  0
   36.1800   21.1970   34.3970 C   0  0  0  0  0  0  0  0  0  0  0  0
   35.5680   20.0760   33.9720 N   0  0  0  0  0  0  0  0  0  0  0  0
   35.9330   19.8790   32.6910 C   0  0  0  0  0  0  0  0  0  0  0  0
   35.6520   18.9270   31.7220 C   0  0  0  0  0  0  0  0  0  0  0  0
   36.2120   19.0360   30.4890 N   0  0  0  0  0  0  0  0  0  0  0  0
   37.0320   20.0730   30.2310 C   0  0  0  0  0  0  0  0  0  0  0  0
   37.3250   21.0190   31.1570 N   0  0  0  0  0  0  0  0  0  0  0  0
   36.7740   20.9120   32.3770 C   0  0  0  0  0  0  0  0  0  0  0  0
   34.7620   17.8890   32.1560 N   0  0  0  0  0  0  0  0  0  0  0  0
   37.9050   26.4950   32.6180 C   0  0  0  0  0  0  0  0  0  0  0  0
   36.8340   27.3210   32.9700 C   0  0  0  0  0  0  0  0  0  0  0  0
   36.9230   28.3880   32.1320 N   0  0  0  0  0  0  0  0  0  0  0  0
   37.9830   28.1990   31.3370 C   0  0  0  0  0  0  0  0  0  0  0  0
   38.6000   27.0580   31.6070 N   0  0  0  0  0  0  0  0  0  0  0  0
   39.7790   26.5450   30.9380 C   0  0  0  0  0  0  0  0  0  0  0  0
   40.9090   27.5160   31.0790 C   0  0  0  0  0  0  0  0  0  0  0  0
   41.1650   28.4050   29.9180 C   0  0  0  0  0  0  0  0  0  0  0  0
   41.0290   27.7410   28.5730 C   0  0  0  0  0  0  0  0  0  0  0  0
   39.6140   27.2240   28.5090 C   0  0  0  0  0  0  0  0  0  0  0  0
   39.4950   26.1190   29.5230 C   0  0  0  0  0  0  0  0  0  0  0  0
   36.5530   24.2163   32.2814 H   0  0  0  0  0  0  0  0  0  0  0  0
   40.3269   23.7954   35.4723 H   0  0  0  0  0  0  0  0  0  0  0  0
   36.0748   21.6159   35.4087 H   0  0  0  0  0  0  0  0  0  0  0  0
   37.4813   20.1555   29.2303 H   0  0  0  0  0  0  0  0  0  0  0  0
   34.4937   17.1358   31.5067 H   0  0  0  0  0  0  0  0  0  0  0  0
   34.3912   17.8969   33.1169 H   0  0  0  0  0  0  0  0  0  0  0  0
   36.0827   27.1460   33.7542 H   0  0  0  0  0  0  0  0  0  0  0  0
   38.3026   28.9042   30.5556 H   0  0  0  0  0  0  0  0  0  0  0  0
   40.0978   25.6165   31.4342 H   0  0  0  0  0  0  0  0  0  0  0  0
   40.6947   28.1547   31.9486 H   0  0  0  0  0  0  0  0  0  0  0  0
   41.8138   26.8984   31.1788 H   0  0  0  0  0  0  0  0  0  0  0  0
   40.4498   29.2396   29.9616 H   0  0  0  0  0  0  0  0  0  0  0  0
   42.2134   28.7277   29.9998 H   0  0  0  0  0  0  0  0  0  0  0  0
   41.2075   28.4684   27.7673 H   0  0  0  0  0  0  0  0  0  0  0  0
   41.7615   26.9301   28.4468 H   0  0  0  0  0  0  0  0  0  0  0  0
   38.9069   28.0320   28.7480 H   0  0  0  0  0  0  0  0  0  0  0  0
   39.3801   26.8535   27.5000 H   0  0  0  0  0  0  0  0  0  0  0  0
   38.4699   25.7222   29.4817 H   0  0  0  0  0  0  0  0  0  0  0  0
   40.2546   25.3677   29.2613 H   0  0  0  0  0  0  0  0  0  0  0  0
  1  6  2  0
  2  3  2  0
  2  1  1  0
  3  4  1  0
  4  5  2  0
  6  5  1  0
  7  1  1  0
  7  8  1  0
  9  8  2  0
 10  9  1  0
 11 16  1  0
 11 10  2  0
 12 11  1  0
 13 12  2  0
 13 14  1  0
 14 15  2  0
 15 10  1  0
 15  7  1  0
 17 18  2  0
 17  3  1  0
 19 18  1  0
 20 21  1  0
 20 19  2  0
 21 17  1  0
 22 23  1  0
 22 21  1  0
 24 23  1  0
 25 24  1  0
 26 25  1  0
 26 27  1  0
 27 22  1  0
  2 28  1  0
  5 29  1  0
  8 30  1  0
 13 31  1  0
 16 32  1  0
 16 33  1  0
 18 34  1  0
 20 35  1  0
 22 36  1  0
 23 37  1  0
 23 38  1  0
 24 39  1  0
 24 40  1  0
 25 41  1  0
 25 42  1  0
 26 43  1  0
 26 44  1  0
 27 45  1  0
 27 46  1  0
M  ISO  8  28  14  29  14  30  14  31  14  34  14  35  14  36  13  37  13
M  ISO  8  38  13  39  13  40  13  41  13  42  13  43  13  44  13  45  13
M  ISO  1  46  13
M  END
>  <minimizedAffinity>  (1) 
-5.1976037

>  <minimizedRMSD>  (1) 
1.81932795

$$$$
