
     RDKit          3D

 38 42  0  0  0  0  0  0  0  0999 V2000
   37.7160   22.9850   33.5640 C   0  0  0  0  0  0  0  0  0  0  0  0
   37.3770   24.2020   32.9560 C   0  0  0  0  0  0  0  0  0  0  0  0
   38.1640   25.3060   33.2050 C   0  0  0  0  0  0  0  0  0  0  0  0
   39.2460   25.1320   34.0490 N   0  0  0  0  0  0  0  0  0  0  0  0
   39.5400   23.9570   34.6120 C   0  0  0  0  0  0  0  0  0  0  0  0
   38.7860   22.8860   34.3770 N   0  0  0  0  0  0  0  0  0  0  0  0
   36.9700   21.7950   33.3700 N   0  0  0  0  0  0  0  0  0  0  0  0
   36.2100   21.2600   34.3770 C   0  0  0  0  0  0  0  0  0  0  0  0
   35.5870   20.1370   33.9810 N   0  0  0  0  0  0  0  0  0  0  0  0
   35.9300   19.9210   32.7140 C   0  0  0  0  0  0  0  0  0  0  0  0
   35.6420   18.9560   31.7410 C   0  0  0  0  0  0  0  0  0  0  0  0
   36.1830   19.0470   30.5100 N   0  0  0  0  0  0  0  0  0  0  0  0
   37.0130   20.0830   30.2160 C   0  0  0  0  0  0  0  0  0  0  0  0
   37.3240   21.0470   31.1310 N   0  0  0  0  0  0  0  0  0  0  0  0
   36.7840   20.9540   32.3540 C   0  0  0  0  0  0  0  0  0  0  0  0
   34.7660   17.9390   32.1870 N   0  0  0  0  0  0  0  0  0  0  0  0
   37.8180   26.5680   32.5790 C   0  0  0  0  0  0  0  0  0  0  0  0
   36.7650   27.3870   33.0400 C   0  0  0  0  0  0  0  0  0  0  0  0
   36.7540   28.4540   32.2140 N   0  0  0  0  0  0  0  0  0  0  0  0
   37.7480   28.2740   31.3120 C   0  0  0  0  0  0  0  0  0  0  0  0
   38.3840   27.1500   31.5260 N   0  0  0  0  0  0  0  0  0  0  0  0
   39.4790   26.6690   30.7550 C   0  0  0  0  0  0  0  0  0  0  0  0
   40.7850   27.0140   31.0350 C   0  0  0  0  0  0  0  0  0  0  0  0
   41.8030   26.5090   30.2410 C   0  0  0  0  0  0  0  0  0  0  0  0
   41.4880   25.6820   29.2010 N   0  0  0  0  0  0  0  0  0  0  0  0
   40.2100   25.3520   28.9370 C   0  0  0  0  0  0  0  0  0  0  0  0
   39.2320   25.8470   29.7130 N   0  0  0  0  0  0  0  0  0  0  0  0
   36.5014   24.2743   32.2942 H   0  0  0  0  0  0  0  0  0  0  0  0
   40.4132   23.8739   35.2758 H   0  0  0  0  0  0  0  0  0  0  0  0
   36.1210   21.6952   35.3833 H   0  0  0  0  0  0  0  0  0  0  0  0
   37.4481   20.1464   29.2077 H   0  0  0  0  0  0  0  0  0  0  0  0
   34.4903   17.1799   31.5478 H   0  0  0  0  0  0  0  0  0  0  0  0
   34.4037   17.9575   33.1510 H   0  0  0  0  0  0  0  0  0  0  0  0
   36.0955   27.1961   33.8917 H   0  0  0  0  0  0  0  0  0  0  0  0
   37.9896   28.9806   30.5043 H   0  0  0  0  0  0  0  0  0  0  0  0
   41.0158   27.6817   31.8781 H   0  0  0  0  0  0  0  0  0  0  0  0
   42.8514   26.7712   30.4462 H   0  0  0  0  0  0  0  0  0  0  0  0
   39.9696   24.6850   28.0959 H   0  0  0  0  0  0  0  0  0  0  0  0
  1  6  2  0
  2  3  2  0
  2  1  1  0
  3  4  1  0
  4  5  2  0
  6  5  1  0
  7  1  1  0
  7  8  1  0
  9  8  2  0
 10  9  1  0
 11 16  1  0
 11 10  2  0
 12 11  1  0
 13 12  2  0
 13 14  1  0
 14 15  2  0
 15 10  1  0
 15  7  1  0
 17 18  2  0
 17  3  1  0
 19 18  1  0
 20 21  1  0
 20 19  2  0
 21 17  1  0
 22 23  2  0
 22 21  1  0
 24 23  1  0
 25 24  2  0
 26 25  1  0
 26 27  2  0
 27 22  1  0
  2 28  1  0
  5 29  1  0
  8 30  1  0
 13 31  1  0
 16 32  1  0
 16 33  1  0
 18 34  1  0
 20 35  1  0
 23 36  1  0
 24 37  1  0
 26 38  1  0
M  ISO  8  28  14  29  14  30  14  31  14  34  14  35  14  36  14  37  14
M  ISO  1  38  14
M  END
>  <minimizedAffinity>  (1) 
-5.05892038

>  <minimizedRMSD>  (1) 
1.65408254

$$$$
