
     RDKit          3D

 33 36  0  0  0  0  0  0  0  0999 V2000
   37.7070   22.9680   33.5720 C   0  0  0  0  0  0  0  0  0  0  0  0
   37.4300   24.1580   32.8870 C   0  0  0  0  0  0  0  0  0  0  0  0
   38.2120   25.2640   33.1350 C   0  0  0  0  0  0  0  0  0  0  0  0
   39.2290   25.1170   34.0580 N   0  0  0  0  0  0  0  0  0  0  0  0
   39.4710   23.9690   34.6980 C   0  0  0  0  0  0  0  0  0  0  0  0
   38.7130   22.9030   34.4550 N   0  0  0  0  0  0  0  0  0  0  0  0
   36.9630   21.7830   33.3860 N   0  0  0  0  0  0  0  0  0  0  0  0
   36.2050   21.2450   34.3940 C   0  0  0  0  0  0  0  0  0  0  0  0
   35.5790   20.1160   34.0010 N   0  0  0  0  0  0  0  0  0  0  0  0
   35.9310   19.9070   32.7170 C   0  0  0  0  0  0  0  0  0  0  0  0
   35.6340   18.9410   31.7610 C   0  0  0  0  0  0  0  0  0  0  0  0
   36.1740   19.0330   30.5240 N   0  0  0  0  0  0  0  0  0  0  0  0
   36.9900   20.0580   30.2350 C   0  0  0  0  0  0  0  0  0  0  0  0
   37.2990   21.0160   31.1420 N   0  0  0  0  0  0  0  0  0  0  0  0
   36.7710   20.9360   32.3710 C   0  0  0  0  0  0  0  0  0  0  0  0
   34.7540   17.9130   32.2080 N   0  0  0  0  0  0  0  0  0  0  0  0
   37.9290   26.5020   32.4250 C   0  0  0  0  0  0  0  0  0  0  0  0
   37.1240   27.5140   32.9550 C   0  0  0  0  0  0  0  0  0  0  0  0
   37.1040   28.4900   32.0030 N   0  0  0  0  0  0  0  0  0  0  0  0
   37.8620   28.0620   30.9750 C   0  0  0  0  0  0  0  0  0  0  0  0
   38.3630   26.8690   31.2160 N   0  0  0  0  0  0  0  0  0  0  0  0
   39.2170   26.1310   30.3170 C   0  0  0  0  0  0  0  0  0  0  0  0
   38.5430   24.9870   29.9030 F   0  0  0  0  0  0  0  0  0  0  0  0
   40.4050   25.7440   30.9510 F   0  0  0  0  0  0  0  0  0  0  0  0
   39.5730   26.9080   29.2200 F   0  0  0  0  0  0  0  0  0  0  0  0
   36.6026   24.2081   32.1639 H   0  0  0  0  0  0  0  0  0  0  0  0
   40.2950   23.9056   35.4240 H   0  0  0  0  0  0  0  0  0  0  0  0
   36.1178   21.6806   35.4003 H   0  0  0  0  0  0  0  0  0  0  0  0
   37.4235   20.1229   29.2261 H   0  0  0  0  0  0  0  0  0  0  0  0
   34.4793   17.1553   31.5666 H   0  0  0  0  0  0  0  0  0  0  0  0
   34.3927   17.9277   33.1724 H   0  0  0  0  0  0  0  0  0  0  0  0
   36.6157   27.5216   33.9305 H   0  0  0  0  0  0  0  0  0  0  0  0
   38.0394   28.6355   30.0532 H   0  0  0  0  0  0  0  0  0  0  0  0
  1  6  2  0
  2  3  2  0
  2  1  1  0
  3  4  1  0
  4  5  2  0
  6  5  1  0
  7  1  1  0
  7  8  1  0
  9  8  2  0
 10  9  1  0
 11 16  1  0
 11 10  2  0
 12 11  1  0
 13 12  2  0
 13 14  1  0
 14 15  2  0
 15 10  1  0
 15  7  1  0
 17 18  2  0
 17  3  1  0
 19 18  1  0
 20 21  1  0
 20 19  2  0
 21 17  1  0
 22 24  1  0
 22 21  1  0
 23 22  1  0
 25 22  1  0
  2 26  1  0
  5 27  1  0
  8 28  1  0
 13 29  1  0
 16 30  1  0
 16 31  1  0
 18 32  1  0
 20 33  1  0
M  ISO  6  26  14  27  14  28  14  29  14  32  14  33  14
M  END
>  <minimizedAffinity>  (1) 
-4.92755032

>  <minimizedRMSD>  (1) 
1.45034945

$$$$
