
     RDKit          3D

 42 45  0  0  0  0  0  0  0  0999 V2000
   37.2620   21.9460   34.4350 C   0  0  0  0  0  0  0  0  0  0  0  0
   38.0510   23.0780   34.2620 C   0  0  0  0  0  0  0  0  0  0  0  0
   38.4000   23.8430   35.3520 C   0  0  0  0  0  0  0  0  0  0  0  0
   37.9240   23.4180   36.5820 N   0  0  0  0  0  0  0  0  0  0  0  0
   37.1670   22.3320   36.7380 C   0  0  0  0  0  0  0  0  0  0  0  0
   36.8340   21.5960   35.6780 N   0  0  0  0  0  0  0  0  0  0  0  0
   36.8560   21.1010   33.3820 N   0  0  0  0  0  0  0  0  0  0  0  0
   35.5540   20.8000   33.1720 C   0  0  0  0  0  0  0  0  0  0  0  0
   35.4080   19.9730   32.1070 N   0  0  0  0  0  0  0  0  0  0  0  0
   36.6280   19.7330   31.6190 C   0  0  0  0  0  0  0  0  0  0  0  0
   37.1520   18.9830   30.5590 C   0  0  0  0  0  0  0  0  0  0  0  0
   38.4800   18.9620   30.3420 N   0  0  0  0  0  0  0  0  0  0  0  0
   39.3070   19.6720   31.1560 C   0  0  0  0  0  0  0  0  0  0  0  0
   38.8290   20.4080   32.1900 N   0  0  0  0  0  0  0  0  0  0  0  0
   37.5030   20.4300   32.4090 C   0  0  0  0  0  0  0  0  0  0  0  0
   36.1720   18.3000   29.8020 N   0  0  0  0  0  0  0  0  0  0  0  0
   39.2220   25.0240   35.1470 C   0  0  0  0  0  0  0  0  0  0  0  0
   38.6450   26.3110   35.0060 C   0  0  0  0  0  0  0  0  0  0  0  0
   39.7090   27.1450   34.8320 N   0  0  0  0  0  0  0  0  0  0  0  0
   40.8220   26.3760   34.8730 C   0  0  0  0  0  0  0  0  0  0  0  0
   40.5430   25.1070   35.0610 N   0  0  0  0  0  0  0  0  0  0  0  0
   41.5410   24.0860   35.1470 C   0  0  0  0  0  0  0  0  0  0  0  0
   41.6490   23.3850   33.8010 C   0  0  0  0  0  0  0  0  0  0  0  0
   42.9190   24.7420   35.3430 C   0  0  0  0  0  0  0  0  0  0  0  0
   41.3870   23.1270   36.2840 C   0  0  0  0  0  0  0  0  0  0  0  0
   38.3954   23.3615   33.2565 H   0  0  0  0  0  0  0  0  0  0  0  0
   36.8176   22.0436   37.7404 H   0  0  0  0  0  0  0  0  0  0  0  0
   34.7221   21.1769   33.7851 H   0  0  0  0  0  0  0  0  0  0  0  0
   40.3910   19.6486   30.9708 H   0  0  0  0  0  0  0  0  0  0  0  0
   36.4536   17.7194   28.9992 H   0  0  0  0  0  0  0  0  0  0  0  0
   35.1766   18.3831   30.0535 H   0  0  0  0  0  0  0  0  0  0  0  0
   37.5780   26.5770   35.0313 H   0  0  0  0  0  0  0  0  0  0  0  0
   41.8433   26.7692   34.7616 H   0  0  0  0  0  0  0  0  0  0  0  0
   41.8147   22.3093   33.9601 H   0  0  0  0  0  0  0  0  0  0  0  0
   40.7175   23.5327   33.2349 H   0  0  0  0  0  0  0  0  0  0  0  0
   42.4928   23.8062   33.2349 H   0  0  0  0  0  0  0  0  0  0  0  0
   43.1281   24.8415   36.4183 H   0  0  0  0  0  0  0  0  0  0  0  0
   43.6931   24.1158   34.8754 H   0  0  0  0  0  0  0  0  0  0  0  0
   42.9210   25.7377   34.8754 H   0  0  0  0  0  0  0  0  0  0  0  0
   41.4743   23.6704   37.2364 H   0  0  0  0  0  0  0  0  0  0  0  0
   40.3999   22.6450   36.2260 H   0  0  0  0  0  0  0  0  0  0  0  0
   42.1735   22.3602   36.2260 H   0  0  0  0  0  0  0  0  0  0  0  0
  1  6  1  0
  2  1  2  0
  2  3  1  0
  3  4  2  0
  4  5  1  0
  6  5  2  0
  7  1  1  0
  8  7  1  0
  9  8  2  0
 10  9  1  0
 10 15  2  0
 11 10  1  0
 12 11  2  0
 12 13  1  0
 13 14  2  0
 14 15  1  0
 15  7  1  0
 16 11  1  0
 17  3  1  0
 18 17  2  0
 19 20  2  0
 19 18  1  0
 20 21  1  0
 21 17  1  0
 21 22  1  0
 22 24  1  0
 22 25  1  0
 23 22  1  0
  2 26  1  0
  5 27  1  0
  8 28  1  0
 13 29  1  0
 16 30  1  0
 16 31  1  0
 18 32  1  0
 20 33  1  0
 23 34  1  0
 23 35  1  0
 23 36  1  0
 24 37  1  0
 24 38  1  0
 24 39  1  0
 25 40  1  0
 25 41  1  0
 25 42  1  0
M  ISO  8  26  14  27  14  28  14  29  14  32  14  33  14  34   8  35   8
M  ISO  7  36   8  37   8  38   8  39   8  40   8  41   8  42   8
M  END
>  <minimizedAffinity>  (1) 
-4.85729361

>  <minimizedRMSD>  (1) 
3.02235675

$$$$
