
     RDKit          3D

 25 26  0  0  0  0  0  0  0  0999 V2000
   38.1540   23.0430   34.6010 C   0  0  0  0  0  0  0  0  0  0  0  0
   37.9980   21.8720   34.1430 O   0  0  0  0  0  0  0  0  0  0  0  0
   39.9250   22.7960   37.8010 C   0  0  0  0  0  0  0  0  0  0  0  0
   39.0010   23.3040   38.7120 C   0  0  0  0  0  0  0  0  0  0  0  0
   37.7580   23.7320   38.2110 C   0  0  0  0  0  0  0  0  0  0  0  0
   37.5290   23.6240   36.8490 N   0  0  0  0  0  0  0  0  0  0  0  0
   38.4620   23.1270   36.0350 C   0  0  0  0  0  0  0  0  0  0  0  0
   39.6800   22.7000   36.4790 N   0  0  0  0  0  0  0  0  0  0  0  0
   37.7960   26.4630   32.0660 C   0  0  0  0  0  0  0  0  0  0  0  0
   38.5660   26.4680   33.2050 C   0  0  0  0  0  0  0  0  0  0  0  0
   38.6990   25.3710   34.0460 C   0  0  0  0  0  0  0  0  0  0  0  0
   38.0290   24.2090   33.7320 C   0  0  0  0  0  0  0  0  0  0  0  0
   37.2390   24.1620   32.5880 C   0  0  0  0  0  0  0  0  0  0  0  0
   37.1270   25.2820   31.7650 C   0  0  0  0  0  0  0  0  0  0  0  0
   37.6920   27.8950   31.0700 S   0  0  0  0  0  0  0  0  0  0  0  0
   36.3450   28.0870   30.4710 O   0  0  0  0  0  0  0  0  0  0  0  0
   38.7680   27.7980   30.0310 O   0  0  0  0  0  0  0  0  0  0  0  0
   40.9010   22.4571   38.1787 H   0  0  0  0  0  0  0  0  0  0  0  0
   39.2352   23.3681   39.7849 H   0  0  0  0  0  0  0  0  0  0  0  0
   36.9889   24.1413   38.8825 H   0  0  0  0  0  0  0  0  0  0  0  0
   39.1058   27.3907   33.4641 H   0  0  0  0  0  0  0  0  0  0  0  0
   39.3280   25.4288   34.9466 H   0  0  0  0  0  0  0  0  0  0  0  0
   36.7006   23.2377   32.3316 H   0  0  0  0  0  0  0  0  0  0  0  0
   36.4993   25.2303   30.8632 H   0  0  0  0  0  0  0  0  0  0  0  0
   37.8817   29.0082   31.8457 H   0  0  0  0  0  0  0  0  0  0  0  0
  1  7  1  0
  2  1  2  0
  3  4  2  0
  5  4  1  0
  6  5  2  0
  7  8  2  0
  7  6  1  0
  8  3  1  0
  9 10  2  0
 10 11  1  0
 12 11  2  0
 12  1  1  0
 13 12  1  0
 14  9  1  0
 14 13  2  0
 15  9  1  0
 16 15  2  0
 17 15  2  0
  3 18  1  0
  4 19  1  0
  5 20  1  0
 10 21  1  0
 11 22  1  0
 13 23  1  0
 14 24  1  0
 15 25  1  0
M  ISO  8  18  14  19  14  20  14  21  14  22  14  23  14  24  14  25  11
M  END
>  <minimizedAffinity>  (1) 
-4.07873821

>  <minimizedRMSD>  (1) 
3.1410799

$$$$
