
     RDKit          3D

 28 29  0  0  0  0  0  0  0  0999 V2000
   39.7620   22.8190   37.9410 C   0  0  0  0  0  0  0  0  0  0  0  0
   38.9370   23.4820   38.8630 C   0  0  0  0  0  0  0  0  0  0  0  0
   37.8490   24.2140   38.3600 C   0  0  0  0  0  0  0  0  0  0  0  0
   37.6670   24.2280   37.0040 N   0  0  0  0  0  0  0  0  0  0  0  0
   38.4750   23.5820   36.1610 C   0  0  0  0  0  0  0  0  0  0  0  0
   39.5270   22.8740   36.6170 N   0  0  0  0  0  0  0  0  0  0  0  0
   38.2420   23.6270   34.7120 C   0  0  0  0  0  0  0  0  0  0  0  0
   37.6680   22.6020   34.2390 O   0  0  0  0  0  0  0  0  0  0  0  0
   38.7080   24.8480   34.0200 C   0  0  0  0  0  0  0  0  0  0  0  0
   39.7630   25.5840   34.7970 C   0  0  0  0  0  0  0  0  0  0  0  0
   40.0210   26.9310   34.2260 C   0  0  0  0  0  0  0  0  0  0  0  0
   39.4700   27.1910   32.8610 C   0  0  0  0  0  0  0  0  0  0  0  0
   38.0400   26.7580   32.6870 C   0  0  0  0  0  0  0  0  0  0  0  0
   37.5760   25.8240   33.7780 C   0  0  0  0  0  0  0  0  0  0  0  0
   40.6217   22.2403   38.3097 H   0  0  0  0  0  0  0  0  0  0  0  0
   39.1360   23.4300   39.9436 H   0  0  0  0  0  0  0  0  0  0  0  0
   37.1677   24.7565   39.0320 H   0  0  0  0  0  0  0  0  0  0  0  0
   39.1248   24.4913   33.0666 H   0  0  0  0  0  0  0  0  0  0  0  0
   39.4268   25.6959   35.8384 H   0  0  0  0  0  0  0  0  0  0  0  0
   40.6961   25.0037   34.7463 H   0  0  0  0  0  0  0  0  0  0  0  0
   39.5846   27.6737   34.9101 H   0  0  0  0  0  0  0  0  0  0  0  0
   41.1136   26.9980   34.1177 H   0  0  0  0  0  0  0  0  0  0  0  0
   39.5310   28.2713   32.6631 H   0  0  0  0  0  0  0  0  0  0  0  0
   40.0708   26.5973   32.1563 H   0  0  0  0  0  0  0  0  0  0  0  0
   37.3987   27.6517   32.6929 H   0  0  0  0  0  0  0  0  0  0  0  0
   37.9719   26.2139   31.7334 H   0  0  0  0  0  0  0  0  0  0  0  0
   37.3597   26.3900   34.6961 H   0  0  0  0  0  0  0  0  0  0  0  0
   36.6543   25.2992   33.4864 H   0  0  0  0  0  0  0  0  0  0  0  0
  1  2  2  0
  3  2  1  0
  4  3  2  0
  5  6  2  0
  5  4  1  0
  6  1  1  0
  7  5  1  0
  8  7  2  0
  9  7  1  0
  9 10  1  0
 11 10  1  0
 12 11  1  0
 13 12  1  0
 13 14  1  0
 14  9  1  0
  1 15  1  0
  2 16  1  0
  3 17  1  0
  9 18  1  0
 10 19  1  0
 10 20  1  0
 11 21  1  0
 11 22  1  0
 12 23  1  0
 12 24  1  0
 13 25  1  0
 13 26  1  0
 14 27  1  0
 14 28  1  0
M  ISO  8  15  14  16  14  17  14  18  13  19  13  20  13  21  13  22  13
M  ISO  6  23  13  24  13  25  13  26  13  27  13  28  13
M  END
>  <minimizedAffinity>  (1) 
-4.07573032

>  <minimizedRMSD>  (1) 
2.42723083

$$$$
