
     RDKit          3D

 30 32  0  0  1  0  0  0  0  0999 V2000
   37.0400   21.8010   35.3710 C   0  0  0  0  0  0  0  0  0  0  0  0
   36.0370   21.1550   35.8500 O   0  0  0  0  0  0  0  0  0  0  0  0
   37.0780   21.8670   33.9150 C   0  0  0  0  0  0  0  0  0  0  0  0
   37.7280   22.9800   33.3690 C   0  0  0  0  0  0  0  0  0  0  0  0
   37.8640   23.2250   32.0290 C   0  0  0  0  0  0  0  0  0  0  0  0
   37.3220   22.3040   31.1630 C   0  0  0  0  0  0  0  0  0  0  0  0
   36.6740   21.1930   31.6480 C   0  0  0  0  0  0  0  0  0  0  0  0
   36.1230   20.2570   30.7880 C   0  0  0  0  0  0  0  0  0  0  0  0
   35.4860   19.1600   31.3250 C   0  0  0  0  0  0  0  0  0  0  0  0
   35.3730   18.9570   32.6910 C   0  0  0  0  0  0  0  0  0  0  0  0
   35.9210   19.8890   33.5470 C   0  0  0  0  0  0  0  0  0  0  0  0
   36.5570   20.9820   32.9970 C   0  0  0  0  0  0  0  0  0  0  0  0
   40.1000   22.5370   37.2480 C   0  0  0  0  0  0  0  0  0  0  0  0
   39.6420   23.3630   38.2940 C   0  0  0  0  0  0  0  0  0  0  0  0
   38.2680   23.6560   38.3380 C   0  0  0  0  0  0  0  0  0  0  0  0
   37.4600   23.1240   37.3630 N   0  0  0  0  0  0  0  0  0  0  0  0
   37.9520   22.3480   36.3950 C   0  0  0  0  0  0  0  0  0  0  0  0
   39.2640   22.0400   36.3170 N   0  0  0  0  0  0  0  0  0  0  0  0
   36.4533   22.7311   35.3967 H   0  0  0  0  0  0  0  0  0  0  0  0
   36.0719   21.1775   36.8391 H   0  0  0  0  0  0  0  0  0  0  0  0
   38.1611   23.7111   34.0676 H   0  0  0  0  0  0  0  0  0  0  0  0
   38.3849   24.1209   31.6603 H   0  0  0  0  0  0  0  0  0  0  0  0
   37.4075   22.4573   30.0771 H   0  0  0  0  0  0  0  0  0  0  0  0
   36.1928   20.3872   29.6980 H   0  0  0  0  0  0  0  0  0  0  0  0
   35.0498   18.4158   30.6424 H   0  0  0  0  0  0  0  0  0  0  0  0
   34.8561   18.0695   33.0850 H   0  0  0  0  0  0  0  0  0  0  0  0
   35.8527   19.7641   34.6378 H   0  0  0  0  0  0  0  0  0  0  0  0
   41.1707   22.2914   37.1906 H   0  0  0  0  0  0  0  0  0  0  0  0
   40.3347   23.7639   39.0486 H   0  0  0  0  0  0  0  0  0  0  0  0
   37.8513   24.2938   39.1314 H   0  0  0  0  0  0  0  0  0  0  0  0
  1  2  1  0
  1 17  1  0
  3  1  1  0
  4  3  2  0
  5  4  1  0
  6  7  1  0
  6  5  2  0
  7 12  2  0
  8  9  2  0
  8  7  1  0
  9 10  1  0
 10 11  2  0
 12 11  1  0
 12  3  1  0
 13 14  2  0
 14 15  1  0
 16 15  2  0
 17 16  1  0
 18 17  2  0
 18 13  1  0
  1 19  1  0
  2 20  1  0
  4 21  1  0
  5 22  1  0
  6 23  1  0
  8 24  1  0
  9 25  1  0
 10 26  1  0
 11 27  1  0
 13 28  1  0
 14 29  1  0
 15 30  1  0
M  ISO  8  19   8  20   3  21  14  22  14  23  14  24  14  25  14  26  14
M  ISO  4  27  14  28  14  29  14  30  14
M  END
>  <minimizedAffinity>  (1) 
-4.78414106

>  <minimizedRMSD>  (1) 
1.88354039

$$$$
