
     RDKit          3D

 20 21  0  0  0  0  0  0  0  0999 V2000
   39.9360   22.6900   37.6320 C   0  0  0  0  0  0  0  0  0  0  0  0
   39.1230   23.3500   38.5800 C   0  0  0  0  0  0  0  0  0  0  0  0
   37.8690   23.7920   38.1580 C   0  0  0  0  0  0  0  0  0  0  0  0
   37.5040   23.5590   36.8500 N   0  0  0  0  0  0  0  0  0  0  0  0
   38.3150   22.9290   35.9980 C   0  0  0  0  0  0  0  0  0  0  0  0
   39.5320   22.4870   36.3640 N   0  0  0  0  0  0  0  0  0  0  0  0
   37.8500   22.7200   34.6190 C   0  0  0  0  0  0  0  0  0  0  0  0
   37.3710   21.5710   34.3700 O   0  0  0  0  0  0  0  0  0  0  0  0
   37.9070   23.7280   33.5630 C   0  0  0  0  0  0  0  0  0  0  0  0
   37.1530   23.4430   32.4450 C   0  0  0  0  0  0  0  0  0  0  0  0
   37.2090   24.4110   31.4340 C   0  0  0  0  0  0  0  0  0  0  0  0
   37.9580   25.5400   31.5640 N   0  0  0  0  0  0  0  0  0  0  0  0
   38.6710   25.7500   32.6890 C   0  0  0  0  0  0  0  0  0  0  0  0
   38.6340   24.8230   33.6900 N   0  0  0  0  0  0  0  0  0  0  0  0
   40.9294   22.3310   37.9392 H   0  0  0  0  0  0  0  0  0  0  0  0
   39.4661   23.5095   39.6129 H   0  0  0  0  0  0  0  0  0  0  0  0
   37.1905   24.3121   38.8502 H   0  0  0  0  0  0  0  0  0  0  0  0
   36.5531   22.5255   32.3536 H   0  0  0  0  0  0  0  0  0  0  0  0
   36.6323   24.2545   30.5105 H   0  0  0  0  0  0  0  0  0  0  0  0
   39.2775   26.6610   32.7991 H   0  0  0  0  0  0  0  0  0  0  0  0
  1  2  2  0
  3  2  1  0
  4  3  2  0
  5  6  2  0
  5  4  1  0
  6  1  1  0
  7  5  1  0
  8  7  2  0
  9 14  1  0
  9  7  1  0
 10  9  2  0
 11 12  2  0
 11 10  1  0
 12 13  1  0
 13 14  2  0
  1 15  1  0
  2 16  1  0
  3 17  1  0
 10 18  1  0
 11 19  1  0
 13 20  1  0
M  ISO  6  15  14  16  14  17  14  18  14  19  14  20  14
M  END
>  <minimizedAffinity>  (1) 
-3.62466598

>  <minimizedRMSD>  (1) 
1.7049669

$$$$
