
     RDKit          3D

 22 23  0  0  0  0  0  0  0  0999 V2000
   37.3440   22.0690   34.6270 C   0  0  0  0  0  0  0  0  0  0  0  0
   36.5460   21.0780   34.7680 O   0  0  0  0  0  0  0  0  0  0  0  0
   40.0590   22.4250   37.0840 C   0  0  0  0  0  0  0  0  0  0  0  0
   39.4370   23.1290   38.1410 C   0  0  0  0  0  0  0  0  0  0  0  0
   38.0840   23.4540   37.9820 C   0  0  0  0  0  0  0  0  0  0  0  0
   37.4540   23.0760   36.8220 N   0  0  0  0  0  0  0  0  0  0  0  0
   38.1020   22.4030   35.8420 C   0  0  0  0  0  0  0  0  0  0  0  0
   39.3940   22.0830   35.9790 N   0  0  0  0  0  0  0  0  0  0  0  0
   37.3970   22.7060   33.3350 C   0  0  0  0  0  0  0  0  0  0  0  0
   36.5640   22.2500   32.3490 C   0  0  0  0  0  0  0  0  0  0  0  0
   36.6270   22.8830   31.1090 C   0  0  0  0  0  0  0  0  0  0  0  0
   37.5050   23.9460   30.8560 C   0  0  0  0  0  0  0  0  0  0  0  0
   38.3230   24.3630   31.8800 C   0  0  0  0  0  0  0  0  0  0  0  0
   38.2870   23.7550   33.1400 C   0  0  0  0  0  0  0  0  0  0  0  0
   41.1206   22.1517   37.1753 H   0  0  0  0  0  0  0  0  0  0  0  0
   39.9917   23.4092   39.0486 H   0  0  0  0  0  0  0  0  0  0  0  0
   37.5393   23.9988   38.7672 H   0  0  0  0  0  0  0  0  0  0  0  0
   35.8708   21.4151   32.5287 H   0  0  0  0  0  0  0  0  0  0  0  0
   35.9653   22.5367   30.3014 H   0  0  0  0  0  0  0  0  0  0  0  0
   37.5387   24.4314   29.8695 H   0  0  0  0  0  0  0  0  0  0  0  0
   39.0220   25.1940   31.7045 H   0  0  0  0  0  0  0  0  0  0  0  0
   38.9444   24.0977   33.9526 H   0  0  0  0  0  0  0  0  0  0  0  0
  1  2  2  0
  1  7  1  0
  3  4  2  0
  5  4  1  0
  6  5  2  0
  7  8  2  0
  7  6  1  0
  8  3  1  0
  9  1  1  0
 10  9  2  0
 11 10  1  0
 12 11  2  0
 12 13  1  0
 13 14  2  0
 14  9  1  0
  3 15  1  0
  4 16  1  0
  5 17  1  0
 10 18  1  0
 11 19  1  0
 12 20  1  0
 13 21  1  0
 14 22  1  0
M  ISO  8  15  14  16  14  17  14  18  14  19  14  20  14  21  14  22  14
M  END
>  <minimizedAffinity>  (1) 
-3.69066548

>  <minimizedRMSD>  (1) 
1.26953721

$$$$
