
     RDKit          3D

 14 14  0  0  0  0  0  0  0  0999 V2000
   39.9900   22.6760   37.5760 C   0  0  0  0  0  0  0  0  0  0  0  0
   39.1340   23.2980   38.4870 C   0  0  0  0  0  0  0  0  0  0  0  0
   37.7950   23.4810   38.1020 C   0  0  0  0  0  0  0  0  0  0  0  0
   37.4120   23.0380   36.8500 N   0  0  0  0  0  0  0  0  0  0  0  0
   38.2770   22.4500   36.0220 C   0  0  0  0  0  0  0  0  0  0  0  0
   39.5640   22.2660   36.3780 N   0  0  0  0  0  0  0  0  0  0  0  0
   37.8070   22.0010   34.7060 C   0  0  0  0  0  0  0  0  0  0  0  0
   36.7000   21.3900   34.7030 O   0  0  0  0  0  0  0  0  0  0  0  0
   38.5530   22.2410   33.5130 N   0  0  0  0  0  0  0  0  0  0  0  0
   41.0432   22.5194   37.8521 H   0  0  0  0  0  0  0  0  0  0  0  0
   39.4948   23.6327   39.4707 H   0  0  0  0  0  0  0  0  0  0  0  0
   37.0727   23.9628   38.7774 H   0  0  0  0  0  0  0  0  0  0  0  0
   38.1934   21.9118   32.6057 H   0  0  0  0  0  0  0  0  0  0  0  0
   39.4510   22.7434   33.5594 H   0  0  0  0  0  0  0  0  0  0  0  0
  1  2  2  0
  3  2  1  0
  4  3  2  0
  5  6  2  0
  5  4  1  0
  6  1  1  0
  7  5  1  0
  8  7  2  0
  9  7  1  0
  1 10  1  0
  2 11  1  0
  3 12  1  0
  9 13  1  0
  9 14  1  0
M  ISO  3  10  14  11  14  12  14
M  END
>  <minimizedAffinity>  (1) 
-2.94947982

>  <minimizedRMSD>  (1) 
0.0185490791

$$$$
