
     RDKit          3D

 29 30  0  0  0  0  0  0  0  0999 V2000
   37.9920   24.1080   34.5100 C   0  0  0  0  0  0  0  0  0  0  0  0
   37.7440   25.4420   34.1930 C   0  0  0  0  0  0  0  0  0  0  0  0
   37.2410   25.7340   32.9100 C   0  0  0  0  0  0  0  0  0  0  0  0
   37.0220   24.7110   32.0490 N   0  0  0  0  0  0  0  0  0  0  0  0
   37.2770   23.4350   32.4020 C   0  0  0  0  0  0  0  0  0  0  0  0
   37.7590   23.1280   33.6230 N   0  0  0  0  0  0  0  0  0  0  0  0
   38.5020   23.7320   35.7900 C   0  0  0  0  0  0  0  0  0  0  0  0
   37.9080   23.9960   37.0430 C   0  0  0  0  0  0  0  0  0  0  0  0
   38.5450   23.5560   38.1730 C   0  0  0  0  0  0  0  0  0  0  0  0
   39.7690   22.8580   38.0310 C   0  0  0  0  0  0  0  0  0  0  0  0
   39.9680   22.8620   36.1410 S   0  0  0  0  0  0  0  0  0  0  0  0
   36.9470   27.1010   32.4830 C   0  0  0  0  0  0  0  0  0  0  0  0
   38.2130   27.6600   31.8260 C   0  0  0  0  0  0  0  0  0  0  0  0
   35.7540   27.2380   31.5880 C   0  0  0  0  0  0  0  0  0  0  0  0
   36.6410   27.9540   33.7260 C   0  0  0  0  0  0  0  0  0  0  0  0
   37.9352   26.2428   34.9225 H   0  0  0  0  0  0  0  0  0  0  0  0
   37.0879   22.6279   31.6789 H   0  0  0  0  0  0  0  0  0  0  0  0
   36.9557   24.5424   37.1104 H   0  0  0  0  0  0  0  0  0  0  0  0
   38.1154   23.7407   39.1686 H   0  0  0  0  0  0  0  0  0  0  0  0
   40.4251   22.4304   38.8034 H   0  0  0  0  0  0  0  0  0  0  0  0
   38.9229   27.9734   32.6056 H   0  0  0  0  0  0  0  0  0  0  0  0
   38.6754   26.8824   31.2003 H   0  0  0  0  0  0  0  0  0  0  0  0
   37.9498   28.5256   31.2003 H   0  0  0  0  0  0  0  0  0  0  0  0
   34.8462   27.3422   32.2004 H   0  0  0  0  0  0  0  0  0  0  0  0
   35.8722   28.1285   30.9531 H   0  0  0  0  0  0  0  0  0  0  0  0
   35.6673   26.3439   30.9531 H   0  0  0  0  0  0  0  0  0  0  0  0
   36.8510   27.3685   34.6332 H   0  0  0  0  0  0  0  0  0  0  0  0
   37.2720   28.8550   33.7168 H   0  0  0  0  0  0  0  0  0  0  0  0
   35.5812   28.2485   33.7168 H   0  0  0  0  0  0  0  0  0  0  0  0
  1  7  1  0
  2  1  2  0
  3  2  1  0
  4  5  1  0
  4  3  2  0
  5  6  2  0
  6  1  1  0
  7 11  1  0
  7  8  2  0
  8  9  1  0
 10  9  2  0
 11 10  1  0
 12  3  1  0
 12 15  1  0
 13 12  1  0
 14 12  1  0
  2 16  1  0
  5 17  1  0
  8 18  1  0
  9 19  1  0
 10 20  1  0
 13 21  1  0
 13 22  1  0
 13 23  1  0
 14 24  1  0
 14 25  1  0
 14 26  1  0
 15 27  1  0
 15 28  1  0
 15 29  1  0
M  ISO  8  16  14  17  14  18  14  19  14  20  14  21   8  22   8  23   8
M  ISO  6  24   8  25   8  26   8  27   8  28   8  29   8
M  END
>  <minimizedAffinity>  (1) 
-4.11289358

>  <minimizedRMSD>  (1) 
5.7249341

$$$$
