
     RDKit          3D

 41 44  0  0  1  0  0  0  0  0999 V2000
   37.1320   21.8600   34.8440 C   0  0  0  0  0  0  0  0  0  0  0  0
   36.2710   20.9730   35.0840 O   0  0  0  0  0  0  0  0  0  0  0  0
   37.2430   22.2510   33.4880 N   0  0  0  0  0  0  0  0  0  0  0  0
   36.9550   21.2460   32.4910 C   0  0  0  0  0  0  0  0  0  0  0  0
   36.8140   21.8470   31.1220 C   0  0  0  0  0  0  0  0  0  0  0  0
   36.2360   23.0740   31.0640 O   0  0  0  0  0  0  0  0  0  0  0  0
   36.5580   23.9650   32.0240 C   0  0  0  0  0  0  0  0  0  0  0  0
   37.6100   23.5700   32.9820 C   0  0  2  0  0  0  0  0  0  0  0  0
   38.9950   23.7250   32.5910 C   0  0  0  0  0  0  0  0  0  0  0  0
   39.6970   23.0360   31.6220 C   0  0  0  0  0  0  0  0  0  0  0  0
   41.0240   23.2080   31.2960 C   0  0  0  0  0  0  0  0  0  0  0  0
   41.7400   24.1570   31.9940 C   0  0  0  0  0  0  0  0  0  0  0  0
   41.1050   24.8840   32.9760 C   0  0  0  0  0  0  0  0  0  0  0  0
   41.9040   25.8060   33.6120 C   0  0  0  0  0  0  0  0  0  0  0  0
   41.3490   26.5820   34.6070 C   0  0  0  0  0  0  0  0  0  0  0  0
   40.0220   26.4160   34.9380 C   0  0  0  0  0  0  0  0  0  0  0  0
   39.2740   25.4730   34.2650 C   0  0  0  0  0  0  0  0  0  0  0  0
   39.7720   24.6750   33.2650 C   0  0  0  0  0  0  0  0  0  0  0  0
   39.8490   22.6760   37.1570 C   0  0  0  0  0  0  0  0  0  0  0  0
   39.1650   23.2880   38.2250 C   0  0  0  0  0  0  0  0  0  0  0  0
   37.7770   23.4100   38.1350 C   0  0  0  0  0  0  0  0  0  0  0  0
   37.1940   22.9260   37.0140 N   0  0  0  0  0  0  0  0  0  0  0  0
   37.8760   22.3430   36.0030 C   0  0  0  0  0  0  0  0  0  0  0  0
   39.2160   22.2180   36.0790 N   0  0  0  0  0  0  0  0  0  0  0  0
   37.7753   20.5132   32.4760 H   0  0  0  0  0  0  0  0  0  0  0  0
   36.0016   20.7647   32.7543 H   0  0  0  0  0  0  0  0  0  0  0  0
   37.8205   21.9289   30.6859 H   0  0  0  0  0  0  0  0  0  0  0  0
   36.1369   21.1757   30.5735 H   0  0  0  0  0  0  0  0  0  0  0  0
   36.8942   24.8849   31.5232 H   0  0  0  0  0  0  0  0  0  0  0  0
   35.6464   24.0724   32.6302 H   0  0  0  0  0  0  0  0  0  0  0  0
   37.6199   24.3167   33.7896 H   0  0  0  0  0  0  0  0  0  0  0  0
   39.1417   22.2747   31.0545 H   0  0  0  0  0  0  0  0  0  0  0  0
   41.4970   22.6079   30.5047 H   0  0  0  0  0  0  0  0  0  0  0  0
   42.8028   24.3309   31.7698 H   0  0  0  0  0  0  0  0  0  0  0  0
   42.9617   25.9213   33.3328 H   0  0  0  0  0  0  0  0  0  0  0  0
   41.9616   27.3288   35.1332 H   0  0  0  0  0  0  0  0  0  0  0  0
   39.5648   27.0281   35.7294 H   0  0  0  0  0  0  0  0  0  0  0  0
   38.2172   25.3533   34.5456 H   0  0  0  0  0  0  0  0  0  0  0  0
   40.9426   22.5729   37.2153 H   0  0  0  0  0  0  0  0  0  0  0  0
   39.7091   23.6597   39.1058 H   0  0  0  0  0  0  0  0  0  0  0  0
   37.1860   23.8770   38.9367 H   0  0  0  0  0  0  0  0  0  0  0  0
  1  2  2  0
  1 23  1  0
  3  1  1  0
  4  3  1  0
  5  4  1  0
  6  5  1  0
  6  7  1  0
  7  8  1  0
  8  3  1  0
  9  8  1  0
  9 18  1  0
 10  9  2  0
 11 10  1  0
 11 12  2  0
 12 13  1  0
 13 18  2  0
 13 14  1  0
 14 15  2  0
 15 16  1  0
 17 16  2  0
 18 17  1  0
 19 20  2  0
 21 20  1  0
 22 21  2  0
 23 24  2  0
 23 22  1  0
 24 19  1  0
  4 25  1  0
  4 26  1  0
  5 27  1  0
  5 28  1  0
  7 29  1  0
  7 30  1  0
  8 31  1  1
 10 32  1  0
 11 33  1  0
 12 34  1  0
 14 35  1  0
 15 36  1  0
 16 37  1  0
 17 38  1  0
 19 39  1  0
 20 40  1  0
 21 41  1  0
M  ISO  8  25  13  26  13  27  13  28  13  29  13  30  13  31  13  32  14
M  ISO  8  33  14  34  14  35  14  36  14  37  14  38  14  39  14  40  14
M  ISO  1  41  14
M  END
>  <minimizedAffinity>  (1) 
-5.24040556

>  <minimizedRMSD>  (1) 
2.4394455

$$$$
