
     RDKit          3D

 35 37  0  0  1  0  0  0  0  0999 V2000
   37.0880   21.7690   34.8380 C   0  0  0  0  0  0  0  0  0  0  0  0
   36.2070   20.9310   35.1500 O   0  0  0  0  0  0  0  0  0  0  0  0
   37.2510   22.0850   33.4610 N   0  0  0  0  0  0  0  0  0  0  0  0
   36.9110   20.9920   32.5520 C   0  0  0  0  0  0  0  0  0  0  0  0
   36.7800   21.4730   31.1330 C   0  0  0  0  0  0  0  0  0  0  0  0
   36.2580   22.7200   30.9660 O   0  0  0  0  0  0  0  0  0  0  0  0
   36.5260   23.6740   31.8970 C   0  0  0  0  0  0  0  0  0  0  0  0
   37.6870   23.2780   32.8040 C   0  0  1  0  0  0  0  0  0  0  0  0
   39.8020   22.5820   37.1880 C   0  0  0  0  0  0  0  0  0  0  0  0
   39.1700   23.4250   38.0940 C   0  0  0  0  0  0  0  0  0  0  0  0
   37.8380   23.7120   37.9080 C   0  0  0  0  0  0  0  0  0  0  0  0
   37.2300   23.1380   36.8290 N   0  0  0  0  0  0  0  0  0  0  0  0
   37.8490   22.3240   35.9570 C   0  0  0  0  0  0  0  0  0  0  0  0
   39.1530   22.0510   36.1530 N   0  0  0  0  0  0  0  0  0  0  0  0
   38.1310   24.3420   33.6290 N   0  0  0  0  0  0  0  0  0  0  0  0
   37.1890   25.2120   34.0800 C   0  0  0  0  0  0  0  0  0  0  0  0
   37.5630   26.2770   34.8940 C   0  0  0  0  0  0  0  0  0  0  0  0
   38.8980   26.3900   35.2030 C   0  0  0  0  0  0  0  0  0  0  0  0
   39.2770   27.3380   35.9360 O   0  0  0  0  0  0  0  0  0  0  0  0
   39.8570   25.5500   34.7760 N   0  0  0  0  0  0  0  0  0  0  0  0
   39.4230   24.5340   33.9870 C   0  0  0  0  0  0  0  0  0  0  0  0
   40.2260   23.6820   33.5240 O   0  0  0  0  0  0  0  0  0  0  0  0
   37.7023   20.2294   32.5989 H   0  0  0  0  0  0  0  0  0  0  0  0
   35.9430   20.5731   32.8642 H   0  0  0  0  0  0  0  0  0  0  0  0
   37.7835   21.4662   30.6825 H   0  0  0  0  0  0  0  0  0  0  0  0
   36.0641   20.7880   30.6551 H   0  0  0  0  0  0  0  0  0  0  0  0
   36.7820   24.6113   31.3813 H   0  0  0  0  0  0  0  0  0  0  0  0
   35.6311   23.7966   32.5249 H   0  0  0  0  0  0  0  0  0  0  0  0
   38.6144   23.0614   32.2535 H   0  0  0  0  0  0  0  0  0  0  0  0
   40.8672   22.3468   37.3293 H   0  0  0  0  0  0  0  0  0  0  0  0
   39.7236   23.8538   38.9423 H   0  0  0  0  0  0  0  0  0  0  0  0
   37.2890   24.3722   38.5955 H   0  0  0  0  0  0  0  0  0  0  0  0
   36.1336   25.0746   33.8022 H   0  0  0  0  0  0  0  0  0  0  0  0
   36.8230   26.9969   35.2736 H   0  0  0  0  0  0  0  0  0  0  0  0
   40.8484   25.6686   35.0290 H   0  0  0  0  0  0  0  0  0  0  0  0
  1  2  2  0
  1 13  1  0
  3  1  1  0
  4  3  1  0
  5  4  1  0
  6  5  1  0
  6  7  1  0
  7  8  1  0
  8  3  1  0
  8 15  1  0
  9 10  2  0
 11 10  1  0
 12 11  2  0
 13 14  2  0
 13 12  1  0
 14  9  1  0
 15 21  1  0
 15 16  1  0
 16 17  2  0
 17 18  1  0
 18 19  2  0
 20 18  1  0
 21 20  1  0
 22 21  2  0
  4 23  1  0
  4 24  1  0
  5 25  1  0
  5 26  1  0
  7 27  1  0
  7 28  1  0
  8 29  1  6
  9 30  1  0
 10 31  1  0
 11 32  1  0
 16 33  1  0
 17 34  1  0
 20 35  1  0
M  ISO  8  23  13  24  13  25  13  26  13  27  13  28  13  29  13  30  14
M  ISO  5  31  14  32  14  33  14  34  14  35   9
M  END
>  <minimizedAffinity>  (1) 
-4.97348356

>  <minimizedRMSD>  (1) 
0.675226212

$$$$
