
     RDKit          3D

 28 29  0  0  1  0  0  0  0  0999 V2000
   37.8750   22.9240   34.6970 C   0  0  0  0  0  0  0  0  0  0  0  0
   37.2150   21.8930   34.4400 O   0  0  0  0  0  0  0  0  0  0  0  0
   38.1100   23.9030   33.6790 N   0  0  0  0  0  0  0  0  0  0  0  0
   38.1870   23.2830   32.3410 C   0  0  0  0  0  0  0  0  0  0  0  0
   38.0920   24.3310   31.2590 C   0  0  0  0  0  0  0  0  0  0  0  0
   37.2320   25.3470   31.5120 O   0  0  0  0  0  0  0  0  0  0  0  0
   37.1470   25.8100   32.7840 C   0  0  0  0  0  0  0  0  0  0  0  0
   38.2780   25.2920   33.6840 C   0  0  1  0  0  0  0  0  0  0  0  0
   40.0250   22.8320   37.6800 C   0  0  0  0  0  0  0  0  0  0  0  0
   39.1400   23.2220   38.7030 C   0  0  0  0  0  0  0  0  0  0  0  0
   37.8370   23.5000   38.3610 C   0  0  0  0  0  0  0  0  0  0  0  0
   37.4970   23.3790   37.0570 N   0  0  0  0  0  0  0  0  0  0  0  0
   38.3480   23.0050   36.0790 C   0  0  0  0  0  0  0  0  0  0  0  0
   39.6130   22.7370   36.4310 N   0  0  0  0  0  0  0  0  0  0  0  0
   38.2320   26.1580   34.8510 C   0  0  0  0  0  0  0  0  0  0  0  0
   38.1850   27.5100   34.6930 F   0  0  0  0  0  0  0  0  0  0  0  0
   36.9900   25.8870   35.4780 F   0  0  0  0  0  0  0  0  0  0  0  0
   39.1260   25.7780   35.8470 F   0  0  0  0  0  0  0  0  0  0  0  0
   39.1448   22.7508   32.2446 H   0  0  0  0  0  0  0  0  0  0  0  0
   37.3468   22.5821   32.2280 H   0  0  0  0  0  0  0  0  0  0  0  0
   37.7685   23.8345   30.3322 H   0  0  0  0  0  0  0  0  0  0  0  0
   39.0904   24.7874   31.1886 H   0  0  0  0  0  0  0  0  0  0  0  0
   37.1914   26.9089   32.7615 H   0  0  0  0  0  0  0  0  0  0  0  0
   36.1974   25.4478   33.2049 H   0  0  0  0  0  0  0  0  0  0  0  0
   39.3454   25.3638   33.4282 H   0  0  0  0  0  0  0  0  0  0  0  0
   41.0727   22.6038   37.9255 H   0  0  0  0  0  0  0  0  0  0  0  0
   39.4807   23.3021   39.7458 H   0  0  0  0  0  0  0  0  0  0  0  0
   37.1006   23.8085   39.1177 H   0  0  0  0  0  0  0  0  0  0  0  0
  1 13  1  0
  2  1  2  0
  3  8  1  0
  3  1  1  0
  4  3  1  0
  5  6  1  0
  5  4  1  0
  6  7  1  0
  7  8  1  0
  8 15  1  0
  9 10  2  0
 11 10  1  0
 12 11  2  0
 13 14  2  0
 13 12  1  0
 14  9  1  0
 15 17  1  0
 15 18  1  0
 16 15  1  0
  4 19  1  0
  4 20  1  0
  5 21  1  0
  5 22  1  0
  7 23  1  0
  7 24  1  0
  8 25  1  6
  9 26  1  0
 10 27  1  0
 11 28  1  0
M  ISO  8  19  13  20  13  21  13  22  13  23  13  24  13  25  13  26  14
M  ISO  2  27  14  28  14
M  END
>  <minimizedAffinity>  (1) 
-4.59716511

>  <minimizedRMSD>  (1) 
1.99586582

$$$$
