
     RDKit          3D

 29 30  0  0  0  0  0  0  0  0999 V2000
   37.8940   22.7710   34.6940 C   0  0  0  0  0  0  0  0  0  0  0  0
   38.2580   24.0530   34.2860 C   0  0  0  0  0  0  0  0  0  0  0  0
   38.4550   25.0400   35.2670 C   0  0  0  0  0  0  0  0  0  0  0  0
   38.2810   24.7020   36.5810 N   0  0  0  0  0  0  0  0  0  0  0  0
   37.9290   23.4550   36.9360 C   0  0  0  0  0  0  0  0  0  0  0  0
   37.7360   22.4920   36.0000 N   0  0  0  0  0  0  0  0  0  0  0  0
   37.6910   21.7690   33.7210 N   0  0  0  0  0  0  0  0  0  0  0  0
   36.5330   21.1720   33.4020 C   0  0  0  0  0  0  0  0  0  0  0  0
   36.7770   20.2490   32.4000 C   0  0  0  0  0  0  0  0  0  0  0  0
   38.0880   20.3010   32.1250 N   0  0  0  0  0  0  0  0  0  0  0  0
   38.6380   21.2250   32.9310 C   0  0  0  0  0  0  0  0  0  0  0  0
   38.8410   26.4150   34.9290 C   0  0  0  0  0  0  0  0  0  0  0  0
   38.2890   26.7120   33.5380 C   0  0  0  0  0  0  0  0  0  0  0  0
   38.4050   27.4440   35.9270 C   0  0  0  0  0  0  0  0  0  0  0  0
   40.3720   26.4960   34.8670 C   0  0  0  0  0  0  0  0  0  0  0  0
   38.3883   24.2873   33.2192 H   0  0  0  0  0  0  0  0  0  0  0  0
   37.7954   23.2114   38.0003 H   0  0  0  0  0  0  0  0  0  0  0  0
   35.5547   21.3807   33.8595 H   0  0  0  0  0  0  0  0  0  0  0  0
   36.0343   19.5952   31.9193 H   0  0  0  0  0  0  0  0  0  0  0  0
   39.7037   21.4972   32.9441 H   0  0  0  0  0  0  0  0  0  0  0  0
   37.3237   27.2314   33.6298 H   0  0  0  0  0  0  0  0  0  0  0  0
   38.9982   27.3503   32.9907 H   0  0  0  0  0  0  0  0  0  0  0  0
   38.1471   25.7684   32.9907 H   0  0  0  0  0  0  0  0  0  0  0  0
   38.5678   27.0598   36.9448 H   0  0  0  0  0  0  0  0  0  0  0  0
   38.9905   28.3642   35.7845 H   0  0  0  0  0  0  0  0  0  0  0  0
   37.3366   27.6634   35.7845 H   0  0  0  0  0  0  0  0  0  0  0  0
   40.7797   26.5176   35.8884 H   0  0  0  0  0  0  0  0  0  0  0  0
   40.7644   25.6174   34.3341 H   0  0  0  0  0  0  0  0  0  0  0  0
   40.6695   27.4111   34.3341 H   0  0  0  0  0  0  0  0  0  0  0  0
  1  6  1  0
  2  1  2  0
  2  3  1  0
  3  4  2  0
  4  5  1  0
  6  5  2  0
  7  1  1  0
  8  7  1  0
  9  8  2  0
 10  9  1  0
 10 11  2  0
 11  7  1  0
 12  3  1  0
 12 14  1  0
 13 12  1  0
 15 12  1  0
  2 16  1  0
  5 17  1  0
  8 18  1  0
  9 19  1  0
 11 20  1  0
 13 21  1  0
 13 22  1  0
 13 23  1  0
 14 24  1  0
 14 25  1  0
 14 26  1  0
 15 27  1  0
 15 28  1  0
 15 29  1  0
M  ISO  8  16  14  17  14  18  14  19  14  20  14  21   8  22   8  23   8
M  ISO  6  24   8  25   8  26   8  27   8  28   8  29   8
M  END
>  <minimizedAffinity>  (1) 
-4.06574965

>  <minimizedRMSD>  (1) 
5.93038273

$$$$
