
     RDKit          3D

 31 33  0  0  1  0  0  0  0  0999 V2000
   37.4230   21.9980   34.7700 C   0  0  0  0  0  0  0  0  0  0  0  0
   36.4370   21.2540   34.9550 O   0  0  0  0  0  0  0  0  0  0  0  0
   37.7430   22.3550   33.4260 N   0  0  0  0  0  0  0  0  0  0  0  0
   37.3810   21.3290   32.4420 C   0  0  0  0  0  0  0  0  0  0  0  0
   37.5150   21.8580   31.0340 C   0  0  0  0  0  0  0  0  0  0  0  0
   37.0780   23.1400   30.8740 O   0  0  0  0  0  0  0  0  0  0  0  0
   37.3600   24.0370   31.8400 C   0  0  0  0  0  0  0  0  0  0  0  0
   38.3520   23.5300   32.8780 C   0  0  1  0  0  0  0  0  0  0  0  0
   40.0430   22.5900   37.2900 C   0  0  0  0  0  0  0  0  0  0  0  0
   39.3650   23.3060   38.2690 C   0  0  0  0  0  0  0  0  0  0  0  0
   38.0340   23.5700   38.0530 C   0  0  0  0  0  0  0  0  0  0  0  0
   37.4770   23.1170   36.9090 N   0  0  0  0  0  0  0  0  0  0  0  0
   38.1520   22.4240   35.9730 C   0  0  0  0  0  0  0  0  0  0  0  0
   39.4510   22.1630   36.1760 N   0  0  0  0  0  0  0  0  0  0  0  0
   38.4160   24.6580   33.8730 C   0  0  0  0  0  0  0  0  0  0  0  0
   39.6400   25.0540   34.4130 C   0  0  0  0  0  0  0  0  0  0  0  0
   39.2030   26.4280   35.5190 S   0  0  0  0  0  0  0  0  0  0  0  0
   37.3810   26.2460   35.0630 C   0  0  0  0  0  0  0  0  0  0  0  0
   37.4120   25.3690   34.3170 N   0  0  0  0  0  0  0  0  0  0  0  0
   38.0464   20.4618   32.5652 H   0  0  0  0  0  0  0  0  0  0  0  0
   36.3334   21.0379   32.6087 H   0  0  0  0  0  0  0  0  0  0  0  0
   38.5770   21.8177   30.7500 H   0  0  0  0  0  0  0  0  0  0  0  0
   36.8789   21.2257   30.3971 H   0  0  0  0  0  0  0  0  0  0  0  0
   37.7823   24.9356   31.3665 H   0  0  0  0  0  0  0  0  0  0  0  0
   36.4187   24.2438   32.3703 H   0  0  0  0  0  0  0  0  0  0  0  0
   39.3618   23.2742   32.5247 H   0  0  0  0  0  0  0  0  0  0  0  0
   41.1096   22.3673   37.4409 H   0  0  0  0  0  0  0  0  0  0  0  0
   39.8743   23.6483   39.1819 H   0  0  0  0  0  0  0  0  0  0  0  0
   37.4407   24.1327   38.7888 H   0  0  0  0  0  0  0  0  0  0  0  0
   40.6368   24.6328   34.2154 H   0  0  0  0  0  0  0  0  0  0  0  0
   36.5158   26.8257   35.4170 H   0  0  0  0  0  0  0  0  0  0  0  0
  1  2  2  0
  1 13  1  0
  3  1  1  0
  4  3  1  0
  5  4  1  0
  6  5  1  0
  6  7  1  0
  7  8  1  0
  8  3  1  0
  8 15  1  0
  9 10  2  0
 11 10  1  0
 12 11  2  0
 13 14  2  0
 13 12  1  0
 14  9  1  0
 15 19  1  0
 15 16  2  0
 16 17  1  0
 18 17  1  0
 19 18  2  0
  4 20  1  0
  4 21  1  0
  5 22  1  0
  5 23  1  0
  7 24  1  0
  7 25  1  0
  8 26  1  6
  9 27  1  0
 10 28  1  0
 11 29  1  0
 16 30  1  0
 18 31  1  0
M  ISO  8  20  13  21  13  22  13  23  13  24  13  25  13  26  13  27  14
M  ISO  4  28  14  29  14  30  14  31  14
M  END
>  <minimizedAffinity>  (1) 
-4.56142807

>  <minimizedRMSD>  (1) 
0.659852147

$$$$
