
     RDKit          3D

 26 27  0  0  1  0  0  0  0  0999 V2000
   36.9980   21.7380   34.9430 C   0  0  0  0  0  0  0  0  0  0  0  0
   36.0590   20.9720   35.3020 O   0  0  0  0  0  0  0  0  0  0  0  0
   37.1400   21.9820   33.5670 N   0  0  0  0  0  0  0  0  0  0  0  0
   36.7200   20.9130   32.6840 C   0  0  0  0  0  0  0  0  0  0  0  0
   36.6150   21.3820   31.2470 C   0  0  0  0  0  0  0  0  0  0  0  0
   36.1330   22.6480   31.0860 O   0  0  0  0  0  0  0  0  0  0  0  0
   36.5290   23.6040   31.9660 C   0  0  0  0  0  0  0  0  0  0  0  0
   37.6490   23.1530   32.8850 C   0  0  2  0  0  0  0  0  0  0  0  0
   39.8590   22.6200   37.0750 C   0  0  0  0  0  0  0  0  0  0  0  0
   39.2530   23.2850   38.1480 C   0  0  0  0  0  0  0  0  0  0  0  0
   37.8840   23.4220   38.1280 C   0  0  0  0  0  0  0  0  0  0  0  0
   37.2080   22.9010   37.0650 N   0  0  0  0  0  0  0  0  0  0  0  0
   37.8080   22.2650   36.0420 C   0  0  0  0  0  0  0  0  0  0  0  0
   39.1500   22.1310   36.0620 N   0  0  0  0  0  0  0  0  0  0  0  0
   38.8020   22.8630   32.1520 O   0  0  0  0  0  0  0  0  0  0  0  0
   37.4540   20.0956   32.7395 H   0  0  0  0  0  0  0  0  0  0  0  0
   35.7253   20.5721   33.0071 H   0  0  0  0  0  0  0  0  0  0  0  0
   37.6194   21.3403   30.8005 H   0  0  0  0  0  0  0  0  0  0  0  0
   35.8908   20.7136   30.7584 H   0  0  0  0  0  0  0  0  0  0  0  0
   36.8764   24.4789   31.3969 H   0  0  0  0  0  0  0  0  0  0  0  0
   35.6625   23.8377   32.6020 H   0  0  0  0  0  0  0  0  0  0  0  0
   37.9365   23.9357   33.6024 H   0  0  0  0  0  0  0  0  0  0  0  0
   40.9523   22.4987   37.0700 H   0  0  0  0  0  0  0  0  0  0  0  0
   39.8518   23.6848   38.9797 H   0  0  0  0  0  0  0  0  0  0  0  0
   37.3525   23.9351   38.9430 H   0  0  0  0  0  0  0  0  0  0  0  0
   39.5495   22.6750   32.7733 H   0  0  0  0  0  0  0  0  0  0  0  0
  1  2  2  0
  1 13  1  0
  3  1  1  0
  4  3  1  0
  5  4  1  0
  6  5  1  0
  6  7  1  0
  7  8  1  0
  8  3  1  0
  9 10  2  0
 11 10  1  0
 12 11  2  0
 13 14  2  0
 13 12  1  0
 14  9  1  0
 15  8  1  0
  4 16  1  0
  4 17  1  0
  5 18  1  0
  5 19  1  0
  7 20  1  0
  7 21  1  0
  8 22  1  1
  9 23  1  0
 10 24  1  0
 11 25  1  0
 15 26  1  0
M  ISO  8  16  13  17  13  18  13  19  13  20  13  21  13  22  13  23  14
M  ISO  3  24  14  25  14  26   3
M  END
>  <minimizedAffinity>  (1) 
-4.08792686

>  <minimizedRMSD>  (1) 
0.0210550074

$$$$
