
     RDKit          3D

 28 29  0  0  0  0  0  0  0  0999 V2000
   37.8660   22.7070   34.3610 C   0  0  0  0  0  0  0  0  0  0  0  0
   38.0710   24.0630   34.1320 C   0  0  0  0  0  0  0  0  0  0  0  0
   38.8170   24.8220   35.0340 C   0  0  0  0  0  0  0  0  0  0  0  0
   39.3150   24.1810   36.1160 N   0  0  0  0  0  0  0  0  0  0  0  0
   39.1080   22.8730   36.3220 C   0  0  0  0  0  0  0  0  0  0  0  0
   38.3930   22.1410   35.4590 N   0  0  0  0  0  0  0  0  0  0  0  0
   37.0710   21.9230   33.3900 C   0  0  0  0  0  0  0  0  0  0  0  0
   36.1080   20.9580   33.8720 C   0  0  0  0  0  0  0  0  0  0  0  0
   35.4210   20.2870   32.2670 S   0  0  0  0  0  0  0  0  0  0  0  0
   36.5570   21.4300   31.2640 C   0  0  0  0  0  0  0  0  0  0  0  0
   37.1280   21.9920   32.0890 N   0  0  0  0  0  0  0  0  0  0  0  0
   39.0700   26.2530   34.8480 C   0  0  0  0  0  0  0  0  0  0  0  0
   38.4500   26.6570   33.5160 C   0  0  0  0  0  0  0  0  0  0  0  0
   38.5460   27.1050   35.9870 C   0  0  0  0  0  0  0  0  0  0  0  0
   40.5860   26.4850   34.8000 C   0  0  0  0  0  0  0  0  0  0  0  0
   37.6437   24.5387   33.2370 H   0  0  0  0  0  0  0  0  0  0  0  0
   39.5330   22.3927   37.2157 H   0  0  0  0  0  0  0  0  0  0  0  0
   35.8486   20.6900   34.9068 H   0  0  0  0  0  0  0  0  0  0  0  0
   36.6464   21.5295   30.1722 H   0  0  0  0  0  0  0  0  0  0  0  0
   37.5413   27.2491   33.6991 H   0  0  0  0  0  0  0  0  0  0  0  0
   39.1709   27.2592   32.9436 H   0  0  0  0  0  0  0  0  0  0  0  0
   38.1903   25.7543   32.9436 H   0  0  0  0  0  0  0  0  0  0  0  0
   38.8275   26.6473   36.9468 H   0  0  0  0  0  0  0  0  0  0  0  0
   38.9802   28.1135   35.9203 H   0  0  0  0  0  0  0  0  0  0  0  0
   37.4501   27.1725   35.9203 H   0  0  0  0  0  0  0  0  0  0  0  0
   40.9803   26.5453   35.8251 H   0  0  0  0  0  0  0  0  0  0  0  0
   41.0681   25.6502   34.2702 H   0  0  0  0  0  0  0  0  0  0  0  0
   40.7964   27.4258   34.2702 H   0  0  0  0  0  0  0  0  0  0  0  0
  1  6  1  0
  2  1  2  0
  2  3  1  0
  3  4  2  0
  4  5  1  0
  6  5  2  0
  7  8  2  0
  7  1  1  0
  9  8  1  0
 10 11  2  0
 10  9  1  0
 11  7  1  0
 12  3  1  0
 12 14  1  0
 13 12  1  0
 15 12  1  0
  2 16  1  0
  5 17  1  0
  8 18  1  0
 10 19  1  0
 13 20  1  0
 13 21  1  0
 13 22  1  0
 14 23  1  0
 14 24  1  0
 14 25  1  0
 15 26  1  0
 15 27  1  0
 15 28  1  0
M  ISO  8  16  14  17  14  18  14  19  14  20   8  21   8  22   8  23   8
M  ISO  5  24   8  25   8  26   8  27   8  28   8
M  END
>  <minimizedAffinity>  (1) 
-3.99648857

>  <minimizedRMSD>  (1) 
6.43303919

$$$$
