
     RDKit          3D

 33 35  0  0  1  0  0  0  0  0999 V2000
   37.5090   21.8210   34.7940 C   0  0  0  0  0  0  0  0  0  0  0  0
   36.4360   21.2310   35.0290 O   0  0  0  0  0  0  0  0  0  0  0  0
   37.8510   22.0380   33.4380 N   0  0  0  0  0  0  0  0  0  0  0  0
   37.3330   21.0180   32.5090 C   0  0  0  0  0  0  0  0  0  0  0  0
   37.4600   21.4500   31.0800 C   0  0  0  0  0  0  0  0  0  0  0  0
   37.2310   22.7770   30.8510 O   0  0  0  0  0  0  0  0  0  0  0  0
   37.6870   23.6660   31.7540 C   0  0  0  0  0  0  0  0  0  0  0  0
   38.6210   23.0750   32.7840 C   0  0  1  0  0  0  0  0  0  0  0  0
   40.2660   22.2800   37.1940 C   0  0  0  0  0  0  0  0  0  0  0  0
   39.6700   23.0450   38.1990 C   0  0  0  0  0  0  0  0  0  0  0  0
   38.3450   23.3890   38.0400 C   0  0  0  0  0  0  0  0  0  0  0  0
   37.7370   22.9490   36.9130 N   0  0  0  0  0  0  0  0  0  0  0  0
   38.3010   22.2250   35.9610 C   0  0  0  0  0  0  0  0  0  0  0  0
   39.5920   21.8890   36.1140 N   0  0  0  0  0  0  0  0  0  0  0  0
   38.9960   24.1910   33.6930 C   0  0  0  0  0  0  0  0  0  0  0  0
   40.1740   24.6450   34.1160 N   0  0  0  0  0  0  0  0  0  0  0  0
   40.0080   25.6730   34.8970 O   0  0  0  0  0  0  0  0  0  0  0  0
   38.7140   25.9070   34.9960 C   0  0  0  0  0  0  0  0  0  0  0  0
   38.0360   25.0000   34.2550 N   0  0  0  0  0  0  0  0  0  0  0  0
   38.0600   26.9750   35.7770 C   0  0  0  0  0  0  0  0  0  0  0  0
   38.1450   26.6980   37.1380 F   0  0  0  0  0  0  0  0  0  0  0  0
   36.7650   27.0990   35.3420 F   0  0  0  0  0  0  0  0  0  0  0  0
   38.6710   28.1900   35.5920 F   0  0  0  0  0  0  0  0  0  0  0  0
   37.9004   20.0864   32.6509 H   0  0  0  0  0  0  0  0  0  0  0  0
   36.2653   20.8682   32.7270 H   0  0  0  0  0  0  0  0  0  0  0  0
   38.4814   21.2180   30.7438 H   0  0  0  0  0  0  0  0  0  0  0  0
   36.6808   20.9058   30.5262 H   0  0  0  0  0  0  0  0  0  0  0  0
   38.2246   24.4604   31.2156 H   0  0  0  0  0  0  0  0  0  0  0  0
   36.8093   24.0419   32.3002 H   0  0  0  0  0  0  0  0  0  0  0  0
   39.5492   22.6355   32.3900 H   0  0  0  0  0  0  0  0  0  0  0  0
   41.3226   21.9921   37.2975 H   0  0  0  0  0  0  0  0  0  0  0  0
   40.2381   23.3618   39.0861 H   0  0  0  0  0  0  0  0  0  0  0  0
   37.8092   23.9898   38.7897 H   0  0  0  0  0  0  0  0  0  0  0  0
  1  2  2  0
  1 13  1  0
  3  1  1  0
  4  3  1  0
  5  4  1  0
  6  5  1  0
  6  7  1  0
  7  8  1  0
  8  3  1  0
  8 15  1  0
  9 10  2  0
 11 10  1  0
 12 11  2  0
 13 14  2  0
 13 12  1  0
 14  9  1  0
 15 16  2  0
 15 19  1  0
 16 17  1  0
 17 18  1  0
 18 20  1  0
 19 18  2  0
 20 21  1  0
 22 20  1  0
 23 20  1  0
  4 24  1  0
  4 25  1  0
  5 26  1  0
  5 27  1  0
  7 28  1  0
  7 29  1  0
  8 30  1  6
  9 31  1  0
 10 32  1  0
 11 33  1  0
M  ISO  8  24  13  25  13  26  13  27  13  28  13  29  13  30  13  31  14
M  ISO  2  32  14  33  14
M  END
>  <minimizedAffinity>  (1) 
-5.30043936

>  <minimizedRMSD>  (1) 
0.953884363

$$$$
