
     RDKit          3D

 42 44  0  0  1  0  0  0  0  0999 V2000
   36.8290   21.5690   34.9190 C   0  0  0  0  0  0  0  0  0  0  0  0
   35.8360   21.0840   35.4960 O   0  0  0  0  0  0  0  0  0  0  0  0
   36.8330   21.5710   33.5050 N   0  0  0  0  0  0  0  0  0  0  0  0
   36.0740   20.4610   32.8980 C   0  0  0  0  0  0  0  0  0  0  0  0
   35.8660   20.6660   31.4310 C   0  0  0  0  0  0  0  0  0  0  0  0
   35.6090   21.9620   31.0630 O   0  0  0  0  0  0  0  0  0  0  0  0
   36.2950   22.9420   31.6750 C   0  0  0  0  0  0  0  0  0  0  0  0
   37.4410   22.4510   32.5290 C   0  0  1  0  0  0  0  0  0  0  0  0
   40.1050   22.2090   36.4850 C   0  0  0  0  0  0  0  0  0  0  0  0
   39.7970   23.1360   37.4690 C   0  0  0  0  0  0  0  0  0  0  0  0
   38.4770   23.5340   37.5880 C   0  0  0  0  0  0  0  0  0  0  0  0
   37.5990   22.9730   36.7220 N   0  0  0  0  0  0  0  0  0  0  0  0
   37.8950   22.0900   35.7850 C   0  0  0  0  0  0  0  0  0  0  0  0
   39.1830   21.7020   35.6690 N   0  0  0  0  0  0  0  0  0  0  0  0
   38.0460   23.6700   33.1420 C   0  0  0  0  0  0  0  0  0  0  0  0
   37.5160   24.6930   33.8080 N   0  0  0  0  0  0  0  0  0  0  0  0
   38.4470   25.5260   34.1750 O   0  0  0  0  0  0  0  0  0  0  0  0
   39.6050   25.0600   33.7530 C   0  0  0  0  0  0  0  0  0  0  0  0
   39.4040   23.8940   33.0970 N   0  0  0  0  0  0  0  0  0  0  0  0
   40.9790   25.6480   33.9200 C   0  0  0  0  0  0  0  0  0  0  0  0
   41.7980   24.9000   34.9420 C   0  0  0  0  0  0  0  0  0  0  0  0
   41.7460   25.5450   32.6090 C   0  0  0  0  0  0  0  0  0  0  0  0
   40.9160   27.0950   34.3180 C   0  0  0  0  0  0  0  0  0  0  0  0
   36.6298   19.5242   33.0512 H   0  0  0  0  0  0  0  0  0  0  0  0
   35.0863   20.4186   33.3804 H   0  0  0  0  0  0  0  0  0  0  0  0
   36.7747   20.3350   30.9068 H   0  0  0  0  0  0  0  0  0  0  0  0
   34.9729   20.0838   31.1601 H   0  0  0  0  0  0  0  0  0  0  0  0
   36.7013   23.6130   30.9039 H   0  0  0  0  0  0  0  0  0  0  0  0
   35.5902   23.4492   32.3503 H   0  0  0  0  0  0  0  0  0  0  0  0
   38.2330   21.9039   31.9965 H   0  0  0  0  0  0  0  0  0  0  0  0
   41.1490   21.8805   36.3744 H   0  0  0  0  0  0  0  0  0  0  0  0
   40.5753   23.5412   38.1324 H   0  0  0  0  0  0  0  0  0  0  0  0
   38.1580   24.2660   38.3445 H   0  0  0  0  0  0  0  0  0  0  0  0
   41.4782   25.1921   35.9531 H   0  0  0  0  0  0  0  0  0  0  0  0
   41.6509   23.8180   34.8091 H   0  0  0  0  0  0  0  0  0  0  0  0
   42.8622   25.1444   34.8091 H   0  0  0  0  0  0  0  0  0  0  0  0
   42.8159   25.4013   32.8204 H   0  0  0  0  0  0  0  0  0  0  0  0
   41.3686   24.6895   32.0296 H   0  0  0  0  0  0  0  0  0  0  0  0
   41.6077   26.4698   32.0296 H   0  0  0  0  0  0  0  0  0  0  0  0
   40.9126   27.1737   35.4152 H   0  0  0  0  0  0  0  0  0  0  0  0
   41.7919   27.6246   33.9151 H   0  0  0  0  0  0  0  0  0  0  0  0
   39.9973   27.5464   33.9151 H   0  0  0  0  0  0  0  0  0  0  0  0
  1  2  2  0
  1 13  1  0
  3  1  1  0
  4  3  1  0
  5  4  1  0
  6  5  1  0
  6  7  1  0
  7  8  1  0
  8 15  1  0
  8  3  1  0
  9 10  2  0
 10 11  1  0
 12 11  2  0
 13 12  1  0
 14 13  2  0
 14  9  1  0
 15 16  2  0
 16 17  1  0
 18 20  1  0
 18 17  1  0
 19 15  1  0
 19 18  2  0
 20 23  1  0
 20 21  1  0
 22 20  1  0
  4 24  1  0
  4 25  1  0
  5 26  1  0
  5 27  1  0
  7 28  1  0
  7 29  1  0
  8 30  1  6
  9 31  1  0
 10 32  1  0
 11 33  1  0
 21 34  1  0
 21 35  1  0
 21 36  1  0
 22 37  1  0
 22 38  1  0
 22 39  1  0
 23 40  1  0
 23 41  1  0
 23 42  1  0
M  ISO  8  24  13  25  13  26  13  27  13  28  13  29  13  30  13  31  14
M  ISO  8  32  14  33  14  34   8  35   8  36   8  37   8  38   8  39   8
M  ISO  3  40   8  41   8  42   8
M  END
>  <minimizedAffinity>  (1) 
-4.65656471

>  <minimizedRMSD>  (1) 
3.00092149

$$$$
