
     RDKit          3D

 31 33  0  0  1  0  0  0  0  0999 V2000
   37.5360   21.9050   34.7980 C   0  0  0  0  0  0  0  0  0  0  0  0
   36.4730   21.2740   34.9620 O   0  0  0  0  0  0  0  0  0  0  0  0
   37.9860   22.0940   33.4700 N   0  0  0  0  0  0  0  0  0  0  0  0
   37.5940   21.0210   32.5370 C   0  0  0  0  0  0  0  0  0  0  0  0
   37.8330   21.4040   31.1130 C   0  0  0  0  0  0  0  0  0  0  0  0
   37.5710   22.7170   30.8140 O   0  0  0  0  0  0  0  0  0  0  0  0
   37.9010   23.6520   31.7200 C   0  0  0  0  0  0  0  0  0  0  0  0
   38.7670   23.1430   32.8490 C   0  0  1  0  0  0  0  0  0  0  0  0
   40.0090   22.4970   37.4610 C   0  0  0  0  0  0  0  0  0  0  0  0
   39.3410   23.3520   38.3200 C   0  0  0  0  0  0  0  0  0  0  0  0
   38.0490   23.7200   37.9820 C   0  0  0  0  0  0  0  0  0  0  0  0
   37.5600   23.2020   36.8310 N   0  0  0  0  0  0  0  0  0  0  0  0
   38.2030   22.3850   36.0130 C   0  0  0  0  0  0  0  0  0  0  0  0
   39.4570   22.0290   36.3430 N   0  0  0  0  0  0  0  0  0  0  0  0
   39.0040   24.3080   33.7420 C   0  0  0  0  0  0  0  0  0  0  0  0
   40.0700   24.6900   34.4470 N   0  0  0  0  0  0  0  0  0  0  0  0
   39.8090   25.8070   35.0730 O   0  0  0  0  0  0  0  0  0  0  0  0
   38.5830   26.1650   34.7870 C   0  0  0  0  0  0  0  0  0  0  0  0
   38.0280   25.2560   33.9510 N   0  0  0  0  0  0  0  0  0  0  0  0
   37.6890   27.5870   35.3420 S   0  0  0  0  0  0  0  0  0  0  0  0
   38.1810   20.1192   32.7657 H   0  0  0  0  0  0  0  0  0  0  0  0
   36.5169   20.8368   32.6636 H   0  0  0  0  0  0  0  0  0  0  0  0
   38.8892   21.2049   30.8787 H   0  0  0  0  0  0  0  0  0  0  0  0
   37.1321   20.8061   30.5120 H   0  0  0  0  0  0  0  0  0  0  0  0
   38.4455   24.4560   31.2032 H   0  0  0  0  0  0  0  0  0  0  0  0
   36.9606   23.9974   32.1743 H   0  0  0  0  0  0  0  0  0  0  0  0
   39.7469   22.7361   32.5586 H   0  0  0  0  0  0  0  0  0  0  0  0
   41.0358   22.1921   37.7114 H   0  0  0  0  0  0  0  0  0  0  0  0
   39.8186   23.7258   39.2377 H   0  0  0  0  0  0  0  0  0  0  0  0
   37.4536   24.3955   38.6138 H   0  0  0  0  0  0  0  0  0  0  0  0
   37.6739   27.6110   36.7117 H   0  0  0  0  0  0  0  0  0  0  0  0
  1  2  2  0
  1 13  1  0
  3  1  1  0
  4  3  1  0
  5  4  1  0
  6  5  1  0
  6  7  1  0
  7  8  1  0
  8  3  1  0
  8 15  1  0
  9 10  2  0
 11 10  1  0
 12 11  2  0
 13 14  2  0
 13 12  1  0
 14  9  1  0
 15 19  1  0
 15 16  2  0
 16 17  1  0
 18 17  1  0
 18 20  1  0
 19 18  2  0
  4 21  1  0
  4 22  1  0
  5 23  1  0
  5 24  1  0
  7 25  1  0
  7 26  1  0
  8 27  1  6
  9 28  1  0
 10 29  1  0
 11 30  1  0
 20 31  1  0
M  ISO  8  21  13  22  13  23  13  24  13  25  13  26  13  27  13  28  14
M  ISO  3  29  14  30  14  31  11
M  END
>  <minimizedAffinity>  (1) 
-4.59898472

>  <minimizedRMSD>  (1) 
0.783997834

$$$$
