
     RDKit          3D

 32 34  0  0  1  0  0  0  0  0999 V2000
   37.4530   21.9340   34.9000 C   0  0  0  0  0  0  0  0  0  0  0  0
   36.4260   21.2560   35.1000 O   0  0  0  0  0  0  0  0  0  0  0  0
   37.8480   22.1490   33.5590 N   0  0  0  0  0  0  0  0  0  0  0  0
   37.4690   21.0620   32.6360 C   0  0  0  0  0  0  0  0  0  0  0  0
   37.6380   21.4610   31.2050 C   0  0  0  0  0  0  0  0  0  0  0  0
   37.3130   22.7590   30.9200 O   0  0  0  0  0  0  0  0  0  0  0  0
   37.6330   23.7070   31.8170 C   0  0  0  0  0  0  0  0  0  0  0  0
   38.5600   23.2320   32.9120 C   0  0  1  0  0  0  0  0  0  0  0  0
   39.9860   22.5780   37.5000 C   0  0  0  0  0  0  0  0  0  0  0  0
   39.3230   23.4490   38.3600 C   0  0  0  0  0  0  0  0  0  0  0  0
   38.0320   23.8020   38.0430 C   0  0  0  0  0  0  0  0  0  0  0  0
   37.5180   23.2640   36.9110 N   0  0  0  0  0  0  0  0  0  0  0  0
   38.1450   22.4370   36.0940 C   0  0  0  0  0  0  0  0  0  0  0  0
   39.4130   22.0890   36.4030 N   0  0  0  0  0  0  0  0  0  0  0  0
   38.7770   24.4040   33.8040 C   0  0  0  0  0  0  0  0  0  0  0  0
   39.8280   24.8000   34.5230 N   0  0  0  0  0  0  0  0  0  0  0  0
   39.5620   25.9090   35.1400 O   0  0  0  0  0  0  0  0  0  0  0  0
   38.3260   26.2620   34.8380 C   0  0  0  0  0  0  0  0  0  0  0  0
   37.7900   25.3440   33.9990 N   0  0  0  0  0  0  0  0  0  0  0  0
   37.5700   27.4420   35.2910 C   0  0  0  0  0  0  0  0  0  0  0  0
   36.6030   27.9230   34.6510 O   0  0  0  0  0  0  0  0  0  0  0  0
   38.1033   20.1864   32.8383 H   0  0  0  0  0  0  0  0  0  0  0  0
   36.4068   20.8291   32.8017 H   0  0  0  0  0  0  0  0  0  0  0  0
   38.6919   21.3060   30.9307 H   0  0  0  0  0  0  0  0  0  0  0  0
   36.9379   20.8376   30.6295 H   0  0  0  0  0  0  0  0  0  0  0  0
   38.1232   24.5353   31.2844 H   0  0  0  0  0  0  0  0  0  0  0  0
   36.6954   24.0117   32.3049 H   0  0  0  0  0  0  0  0  0  0  0  0
   39.5445   22.8687   32.5822 H   0  0  0  0  0  0  0  0  0  0  0  0
   41.0194   22.2837   37.7354 H   0  0  0  0  0  0  0  0  0  0  0  0
   39.8148   23.8415   39.2623 H   0  0  0  0  0  0  0  0  0  0  0  0
   37.4472   24.4857   38.6759 H   0  0  0  0  0  0  0  0  0  0  0  0
   37.8665   27.9244   36.2341 H   0  0  0  0  0  0  0  0  0  0  0  0
  1  2  2  0
  1 13  1  0
  3  1  1  0
  4  3  1  0
  5  4  1  0
  6  5  1  0
  6  7  1  0
  7  8  1  0
  8  3  1  0
  8 15  1  0
  9 10  2  0
 11 10  1  0
 12 11  2  0
 13 14  2  0
 13 12  1  0
 14  9  1  0
 15 19  1  0
 15 16  2  0
 16 17  1  0
 18 17  1  0
 18 20  1  0
 19 18  2  0
 21 20  2  0
  4 22  1  0
  4 23  1  0
  5 24  1  0
  5 25  1  0
  7 26  1  0
  7 27  1  0
  8 28  1  6
  9 29  1  0
 10 30  1  0
 11 31  1  0
 20 32  1  0
M  ISO  8  22  13  23  13  24  13  25  13  26  13  27  13  28  13  29  14
M  ISO  3  30  14  31  14  32   6
M  END
>  <minimizedAffinity>  (1) 
-4.74456406

>  <minimizedRMSD>  (1) 
0.682436347

$$$$
