
     RDKit          3D

 27 28  0  0  0  0  0  0  0  0999 V2000
   37.6360   25.8560   33.4610 C   0  0  0  0  0  0  0  0  0  0  0  0
   37.8050   24.7000   34.2200 C   0  0  0  0  0  0  0  0  0  0  0  0
   38.7220   24.7400   35.2930 C   0  0  0  0  0  0  0  0  0  0  0  0
   39.3930   25.8980   35.5320 N   0  0  0  0  0  0  0  0  0  0  0  0
   39.2000   26.9900   34.7740 C   0  0  0  0  0  0  0  0  0  0  0  0
   38.3390   26.9890   33.7500 N   0  0  0  0  0  0  0  0  0  0  0  0
   36.6610   25.6930   32.3790 C   0  0  0  0  0  0  0  0  0  0  0  0
   35.9380   26.5080   31.5970 N   0  0  0  0  0  0  0  0  0  0  0  0
   35.2150   25.7940   30.7810 O   0  0  0  0  0  0  0  0  0  0  0  0
   35.4510   24.5330   31.0120 C   0  0  0  0  0  0  0  0  0  0  0  0
   36.3490   24.4230   32.0030 N   0  0  0  0  0  0  0  0  0  0  0  0
   38.9630   23.5740   36.1470 C   0  0  0  0  0  0  0  0  0  0  0  0
   38.2310   22.3890   35.5200 C   0  0  0  0  0  0  0  0  0  0  0  0
   40.4120   23.2610   36.3750 C   0  0  0  0  0  0  0  0  0  0  0  0
   38.3640   23.8530   37.5340 C   0  0  0  0  0  0  0  0  0  0  0  0
   37.2411   23.7839   33.9903 H   0  0  0  0  0  0  0  0  0  0  0  0
   39.7634   27.9072   35.0006 H   0  0  0  0  0  0  0  0  0  0  0  0
   34.9866   23.6908   30.4781 H   0  0  0  0  0  0  0  0  0  0  0  0
   37.8316   21.7424   36.3152 H   0  0  0  0  0  0  0  0  0  0  0  0
   37.4030   22.7576   34.8966 H   0  0  0  0  0  0  0  0  0  0  0  0
   38.9313   21.8136   34.8966 H   0  0  0  0  0  0  0  0  0  0  0  0
   40.6121   23.2178   37.4558 H   0  0  0  0  0  0  0  0  0  0  0  0
   40.6537   22.2899   35.9182 H   0  0  0  0  0  0  0  0  0  0  0  0
   41.0329   24.0457   35.9182 H   0  0  0  0  0  0  0  0  0  0  0  0
   39.0698   23.5243   38.3111 H   0  0  0  0  0  0  0  0  0  0  0  0
   38.1759   24.9314   37.6420 H   0  0  0  0  0  0  0  0  0  0  0  0
   37.4175   23.3031   37.6420 H   0  0  0  0  0  0  0  0  0  0  0  0
  1  6  1  0
  1  2  2  0
  2  3  1  0
  3  4  2  0
  3 12  1  0
  5  4  1  0
  6  5  2  0
  7  1  1  0
  8  7  2  0
  9 10  1  0
  9  8  1  0
 10 11  2  0
 11  7  1  0
 12 14  1  0
 12 15  1  0
 13 12  1  0
  2 16  1  0
  5 17  1  0
 10 18  1  0
 13 19  1  0
 13 20  1  0
 13 21  1  0
 14 22  1  0
 14 23  1  0
 14 24  1  0
 15 25  1  0
 15 26  1  0
 15 27  1  0
M  ISO  8  16  14  17  14  18  14  19   8  20   8  21   8  22   8  23   8
M  ISO  4  24   8  25   8  26   8  27   8
M  END
>  <minimizedAffinity>  (1) 
-3.9055531

>  <minimizedRMSD>  (1) 
7.51996326

$$$$
