
     RDKit          3D

 24 24  0  0  0  0  0  0  0  0999 V2000
   38.5620   23.7170   37.0370 C   0  0  0  0  0  0  0  0  0  0  0  0
   41.6360   21.5610   37.2790 C   0  0  0  0  0  0  0  0  0  0  0  0
   40.3620   22.0580   37.5600 C   0  0  0  0  0  0  0  0  0  0  0  0
   39.8790   23.1360   36.8090 C   0  0  0  0  0  0  0  0  0  0  0  0
   40.6720   23.6510   35.8400 N   0  0  0  0  0  0  0  0  0  0  0  0
   41.8950   23.1560   35.5860 C   0  0  0  0  0  0  0  0  0  0  0  0
   42.3850   22.1120   36.3010 N   0  0  0  0  0  0  0  0  0  0  0  0
   42.1970   20.4690   37.9980 N   0  0  0  0  0  0  0  0  0  0  0  0
   38.3610   23.8550   38.5410 C   0  0  0  0  0  0  0  0  0  0  0  0
   38.3480   25.0450   36.3390 C   0  0  0  0  0  0  0  0  0  0  0  0
   37.4800   22.7860   36.4950 C   0  0  0  0  0  0  0  0  0  0  0  0
   39.7493   21.6109   38.3566 H   0  0  0  0  0  0  0  0  0  0  0  0
   42.5068   23.6027   34.7884 H   0  0  0  0  0  0  0  0  0  0  0  0
   43.1403   20.1283   37.7636 H   0  0  0  0  0  0  0  0  0  0  0  0
   41.6598   20.0191   38.7529 H   0  0  0  0  0  0  0  0  0  0  0  0
   39.1566   23.3088   39.0689 H   0  0  0  0  0  0  0  0  0  0  0  0
   38.3990   24.9184   38.8200 H   0  0  0  0  0  0  0  0  0  0  0  0
   37.3823   23.4375   38.8200 H   0  0  0  0  0  0  0  0  0  0  0  0
   38.2202   25.8379   37.0907 H   0  0  0  0  0  0  0  0  0  0  0  0
   39.2209   25.2734   35.7098 H   0  0  0  0  0  0  0  0  0  0  0  0
   37.4475   24.9876   35.7098 H   0  0  0  0  0  0  0  0  0  0  0  0
   36.9411   22.3223   37.3344 H   0  0  0  0  0  0  0  0  0  0  0  0
   36.7739   23.3633   35.8801 H   0  0  0  0  0  0  0  0  0  0  0  0
   37.9455   22.0017   35.8801 H   0  0  0  0  0  0  0  0  0  0  0  0
  1  9  1  0
  2  3  2  0
  2  8  1  0
  4  1  1  0
  4  3  1  0
  5  4  2  0
  6  5  1  0
  6  7  2  0
  7  2  1  0
 10  1  1  0
 11  1  1  0
  3 12  1  0
  6 13  1  0
  8 14  1  0
  8 15  1  0
  9 16  1  0
  9 17  1  0
  9 18  1  0
 10 19  1  0
 10 20  1  0
 10 21  1  0
 11 22  1  0
 11 23  1  0
 11 24  1  0
M  ISO  8  12  14  13  14  16   8  17   8  18   8  19   8  20   8  21   8
M  ISO  3  22   8  23   8  24   8
M  END
>  <minimizedAffinity>  (1) 
-3.87630415

>  <minimizedRMSD>  (1) 
0.777244151

$$$$
