
     RDKit          3D

 31 34  0  0  0  0  0  0  0  0999 V2000
   39.5840   22.7820   37.2490 C   0  0  0  0  0  0  0  0  0  0  0  0
   38.6360   23.4490   36.4810 C   0  0  0  0  0  0  0  0  0  0  0  0
   37.7550   23.9970   37.3520 N   0  0  0  0  0  0  0  0  0  0  0  0
   38.1730   23.6650   38.6030 C   0  0  0  0  0  0  0  0  0  0  0  0
   39.2790   22.9270   38.5590 N   0  0  0  0  0  0  0  0  0  0  0  0
   38.4960   23.6020   35.0840 N   0  0  0  0  0  0  0  0  0  0  0  0
   39.0110   24.4730   34.1680 C   0  0  0  0  0  0  0  0  0  0  0  0
   38.5310   24.1520   32.9510 N   0  0  0  0  0  0  0  0  0  0  0  0
   37.7220   23.1010   33.0600 C   0  0  0  0  0  0  0  0  0  0  0  0
   37.0040   22.4210   32.0830 C   0  0  0  0  0  0  0  0  0  0  0  0
   37.0640   22.7780   30.8950 O   0  0  0  0  0  0  0  0  0  0  0  0
   36.2360   21.3600   32.4480 N   0  0  0  0  0  0  0  0  0  0  0  0
   36.2260   21.0370   33.7530 C   0  0  0  0  0  0  0  0  0  0  0  0
   35.4570   19.9420   34.2630 N   0  0  0  0  0  0  0  0  0  0  0  0
   36.9100   21.6750   34.7220 N   0  0  0  0  0  0  0  0  0  0  0  0
   37.6880   22.7370   34.4080 C   0  0  0  0  0  0  0  0  0  0  0  0
   42.6280   20.6290   37.0190 C   0  0  0  0  0  0  0  0  0  0  0  0
   41.5400   21.3350   37.5490 C   0  0  0  0  0  0  0  0  0  0  0  0
   40.7050   22.0580   36.6810 C   0  0  0  0  0  0  0  0  0  0  0  0
   41.0120   22.0310   35.3430 N   0  0  0  0  0  0  0  0  0  0  0  0
   42.0660   21.3400   34.8900 C   0  0  0  0  0  0  0  0  0  0  0  0
   42.8660   20.6490   35.7000 N   0  0  0  0  0  0  0  0  0  0  0  0
   37.6633   23.9672   39.5298 H   0  0  0  0  0  0  0  0  0  0  0  0
   39.7987   22.5431   39.3612 H   0  0  0  0  0  0  0  0  0  0  0  0
   39.7029   25.2996   34.3871 H   0  0  0  0  0  0  0  0  0  0  0  0
   35.6875   20.8285   31.7569 H   0  0  0  0  0  0  0  0  0  0  0  0
   35.4747   19.7250   35.2697 H   0  0  0  0  0  0  0  0  0  0  0  0
   34.8862   19.3714   33.6231 H   0  0  0  0  0  0  0  0  0  0  0  0
   43.2886   20.0568   37.6870 H   0  0  0  0  0  0  0  0  0  0  0  0
   41.3422   21.3233   38.6310 H   0  0  0  0  0  0  0  0  0  0  0  0
   42.2784   21.3433   33.8107 H   0  0  0  0  0  0  0  0  0  0  0  0
  1  5  1  0
  2  1  2  0
  2  3  1  0
  3  4  2  0
  5  4  1  0
  6  2  1  0
  7  6  1  0
  8  9  1  0
  8  7  2  0
  9 16  2  0
 10 12  1  0
 10  9  1  0
 11 10  2  0
 12 13  1  0
 13 14  1  0
 13 15  2  0
 16 15  1  0
 16  6  1  0
 17 18  2  0
 19  1  1  0
 19 18  1  0
 20 19  2  0
 21 20  1  0
 21 22  2  0
 22 17  1  0
  4 23  1  0
  5 24  1  0
  7 25  1  0
 12 26  1  0
 14 27  1  0
 14 28  1  0
 17 29  1  0
 18 30  1  0
 21 31  1  0
M  ISO  7  23  14  24   9  25  14  26   9  29  14  30  14  31  14
M  END
>  <minimizedAffinity>  (1) 
-5.78233242

>  <minimizedRMSD>  (1) 
0.757225275

$$$$
