
     RDKit          3D

 30 33  0  0  0  0  0  0  0  0999 V2000
   39.4160   22.8080   37.2530 C   0  0  0  0  0  0  0  0  0  0  0  0
   38.4210   23.4530   36.5320 C   0  0  0  0  0  0  0  0  0  0  0  0
   37.5390   23.9420   37.4380 N   0  0  0  0  0  0  0  0  0  0  0  0
   38.0100   23.5880   38.6660 C   0  0  0  0  0  0  0  0  0  0  0  0
   39.1430   22.9040   38.5710 N   0  0  0  0  0  0  0  0  0  0  0  0
   42.5490   20.8170   36.8950 C   0  0  0  0  0  0  0  0  0  0  0  0
   41.4510   21.4530   37.4790 C   0  0  0  0  0  0  0  0  0  0  0  0
   40.5610   22.1430   36.6510 C   0  0  0  0  0  0  0  0  0  0  0  0
   40.8180   22.1570   35.3030 N   0  0  0  0  0  0  0  0  0  0  0  0
   41.8770   21.5370   34.7830 C   0  0  0  0  0  0  0  0  0  0  0  0
   42.7380   20.8710   35.5730 N   0  0  0  0  0  0  0  0  0  0  0  0
   38.2550   23.6300   35.1400 N   0  0  0  0  0  0  0  0  0  0  0  0
   38.6650   24.7920   34.5540 C   0  0  0  0  0  0  0  0  0  0  0  0
   38.4250   24.7770   33.2280 N   0  0  0  0  0  0  0  0  0  0  0  0
   37.8540   23.5960   32.9330 C   0  0  0  0  0  0  0  0  0  0  0  0
   37.3680   22.9440   31.8040 C   0  0  0  0  0  0  0  0  0  0  0  0
   36.8390   21.7170   31.8660 N   0  0  0  0  0  0  0  0  0  0  0  0
   36.7800   21.0970   33.0790 C   0  0  0  0  0  0  0  0  0  0  0  0
   37.2350   21.6750   34.2280 N   0  0  0  0  0  0  0  0  0  0  0  0
   37.7640   22.9100   34.1440 C   0  0  0  0  0  0  0  0  0  0  0  0
   37.5160   23.7480   30.6210 N   0  0  0  0  0  0  0  0  0  0  0  0
   37.5142   23.8374   39.6157 H   0  0  0  0  0  0  0  0  0  0  0  0
   39.7020   22.5228   39.3476 H   0  0  0  0  0  0  0  0  0  0  0  0
   43.2626   20.2682   37.5271 H   0  0  0  0  0  0  0  0  0  0  0  0
   41.2903   21.4118   38.5664 H   0  0  0  0  0  0  0  0  0  0  0  0
   42.0486   21.5703   33.6970 H   0  0  0  0  0  0  0  0  0  0  0  0
   39.1302   25.6306   35.0929 H   0  0  0  0  0  0  0  0  0  0  0  0
   36.3469   20.0873   33.1335 H   0  0  0  0  0  0  0  0  0  0  0  0
   37.9392   24.6849   30.6847 H   0  0  0  0  0  0  0  0  0  0  0  0
   37.1988   23.3870   29.7100 H   0  0  0  0  0  0  0  0  0  0  0  0
  1  5  1  0
  2  1  2  0
  2  3  1  0
  3  4  2  0
  5  4  1  0
  6  7  2  0
  8  1  1  0
  8  7  1  0
  9  8  2  0
 10  9  1  0
 10 11  2  0
 11  6  1  0
 12  2  1  0
 13 12  1  0
 14 13  2  0
 15 14  1  0
 15 20  2  0
 16 17  2  0
 16 15  1  0
 17 18  1  0
 18 19  2  0
 20 19  1  0
 20 12  1  0
 21 16  1  0
  4 22  1  0
  5 23  1  0
  6 24  1  0
  7 25  1  0
 10 26  1  0
 13 27  1  0
 18 28  1  0
 21 29  1  0
 21 30  1  0
M  ISO  7  22  14  23   9  24  14  25  14  26  14  27  14  28  14
M  END
>  <minimizedAffinity>  (1) 
-5.46397161

>  <minimizedRMSD>  (1) 
0.894284725

$$$$
