
     RDKit          3D

 33 35  0  0  0  0  0  0  0  0999 V2000
   39.5110   23.1080   37.5160 C   0  0  0  0  0  0  0  0  0  0  0  0
   38.6990   24.1010   36.9630 C   0  0  0  0  0  0  0  0  0  0  0  0
   37.6040   24.1590   37.7750 N   0  0  0  0  0  0  0  0  0  0  0  0
   37.7690   23.2480   38.7500 C   0  0  0  0  0  0  0  0  0  0  0  0
   38.9110   22.6090   38.6080 N   0  0  0  0  0  0  0  0  0  0  0  0
   42.5910   21.1260   36.8210 C   0  0  0  0  0  0  0  0  0  0  0  0
   41.3580   21.5120   37.3530 C   0  0  0  0  0  0  0  0  0  0  0  0
   40.7910   22.7240   36.9530 C   0  0  0  0  0  0  0  0  0  0  0  0
   41.4930   23.4670   36.0490 N   0  0  0  0  0  0  0  0  0  0  0  0
   42.6680   23.0650   35.5620 C   0  0  0  0  0  0  0  0  0  0  0  0
   43.2230   21.9120   35.9340 N   0  0  0  0  0  0  0  0  0  0  0  0
   38.8840   24.9630   35.7660 C   0  0  0  0  0  0  0  0  0  0  0  0
   38.1310   24.3430   34.6060 C   0  0  0  0  0  0  0  0  0  0  0  0
   38.3000   25.2690   33.4200 C   0  0  0  0  0  0  0  0  0  0  0  0
   37.5200   26.5270   33.7430 C   0  0  0  0  0  0  0  0  0  0  0  0
   38.2010   27.2210   34.9010 C   0  0  0  0  0  0  0  0  0  0  0  0
   38.3500   26.3340   36.1000 C   0  0  0  0  0  0  0  0  0  0  0  0
   37.0464   23.0616   39.5581 H   0  0  0  0  0  0  0  0  0  0  0  0
   39.2758   21.8654   39.2202 H   0  0  0  0  0  0  0  0  0  0  0  0
   43.0464   20.1736   37.1302 H   0  0  0  0  0  0  0  0  0  0  0  0
   40.8396   20.8683   38.0789 H   0  0  0  0  0  0  0  0  0  0  0  0
   43.1925   23.7018   34.8344 H   0  0  0  0  0  0  0  0  0  0  0  0
   39.9432   25.0501   35.4823 H   0  0  0  0  0  0  0  0  0  0  0  0
   38.5467   23.3516   34.3730 H   0  0  0  0  0  0  0  0  0  0  0  0
   37.0670   24.2142   34.8538 H   0  0  0  0  0  0  0  0  0  0  0  0
   37.9011   24.7976   32.5097 H   0  0  0  0  0  0  0  0  0  0  0  0
   39.3613   25.4941   33.2387 H   0  0  0  0  0  0  0  0  0  0  0  0
   37.5060   27.1917   32.8667 H   0  0  0  0  0  0  0  0  0  0  0  0
   36.4831   26.2734   34.0086 H   0  0  0  0  0  0  0  0  0  0  0  0
   39.2007   27.5465   34.5776 H   0  0  0  0  0  0  0  0  0  0  0  0
   37.5709   28.0736   35.1945 H   0  0  0  0  0  0  0  0  0  0  0  0
   37.3639   26.2187   36.5736 H   0  0  0  0  0  0  0  0  0  0  0  0
   39.0787   26.8128   36.7706 H   0  0  0  0  0  0  0  0  0  0  0  0
  1  5  1  0
  2  1  2  0
  2  3  1  0
  3  4  2  0
  5  4  1  0
  6  7  2  0
  8  7  1  0
  8  1  1  0
  9  8  2  0
 10 11  2  0
 10  9  1  0
 11  6  1  0
 12 17  1  0
 12  2  1  0
 13 12  1  0
 14 15  1  0
 14 13  1  0
 15 16  1  0
 16 17  1  0
  4 18  1  0
  5 19  1  0
  6 20  1  0
  7 21  1  0
 10 22  1  0
 12 23  1  0
 13 24  1  0
 13 25  1  0
 14 26  1  0
 14 27  1  0
 15 28  1  0
 15 29  1  0
 16 30  1  0
 16 31  1  0
 17 32  1  0
 17 33  1  0
M  ISO  8  18  14  19   9  20  14  21  14  22  14  23  13  24  13  25  13
M  ISO  8  26  13  27  13  28  13  29  13  30  13  31  13  32  13  33  13
M  END
>  <minimizedAffinity>  (1) 
-5.0118947

>  <minimizedRMSD>  (1) 
1.50923681

$$$$
