
     RDKit          3D

 27 29  0  0  0  0  0  0  0  0999 V2000
   39.4080   22.8880   37.2580 C   0  0  0  0  0  0  0  0  0  0  0  0
   38.5000   23.8200   36.7700 C   0  0  0  0  0  0  0  0  0  0  0  0
   37.6880   24.1240   37.8140 N   0  0  0  0  0  0  0  0  0  0  0  0
   38.1070   23.3910   38.8870 C   0  0  0  0  0  0  0  0  0  0  0  0
   39.1440   22.6430   38.5590 N   0  0  0  0  0  0  0  0  0  0  0  0
   42.5080   21.0240   36.3420 C   0  0  0  0  0  0  0  0  0  0  0  0
   41.4910   21.5950   37.1210 C   0  0  0  0  0  0  0  0  0  0  0  0
   40.4720   22.2890   36.4480 C   0  0  0  0  0  0  0  0  0  0  0  0
   40.5200   22.3730   35.0850 N   0  0  0  0  0  0  0  0  0  0  0  0
   41.5190   21.8060   34.3890 C   0  0  0  0  0  0  0  0  0  0  0  0
   42.5070   21.1360   35.0040 N   0  0  0  0  0  0  0  0  0  0  0  0
   38.3690   24.3940   35.4700 N   0  0  0  0  0  0  0  0  0  0  0  0
   38.3820   23.5210   34.4240 C   0  0  0  0  0  0  0  0  0  0  0  0
   38.2560   24.0570   33.1540 C   0  0  0  0  0  0  0  0  0  0  0  0
   38.1280   25.4280   33.0750 C   0  0  0  0  0  0  0  0  0  0  0  0
   38.0140   25.9050   31.9110 O   0  0  0  0  0  0  0  0  0  0  0  0
   38.1120   26.3020   34.0980 N   0  0  0  0  0  0  0  0  0  0  0  0
   38.2390   25.7300   35.3170 C   0  0  0  0  0  0  0  0  0  0  0  0
   38.2350   26.4690   36.3280 O   0  0  0  0  0  0  0  0  0  0  0  0
   37.6451   23.4197   39.8849 H   0  0  0  0  0  0  0  0  0  0  0  0
   39.6541   21.9962   39.1774 H   0  0  0  0  0  0  0  0  0  0  0  0
   43.3220   20.4739   36.8367 H   0  0  0  0  0  0  0  0  0  0  0  0
   41.4914   21.5028   38.2171 H   0  0  0  0  0  0  0  0  0  0  0  0
   41.5281   21.8922   33.2924 H   0  0  0  0  0  0  0  0  0  0  0  0
   38.4880   22.4376   34.5819 H   0  0  0  0  0  0  0  0  0  0  0  0
   38.2579   23.4229   32.2551 H   0  0  0  0  0  0  0  0  0  0  0  0
   38.0117   27.3184   33.9643 H   0  0  0  0  0  0  0  0  0  0  0  0
  1  5  1  0
  2  1  2  0
  2  3  1  0
  3  4  2  0
  5  4  1  0
  6  7  2  0
  8  7  1  0
  8  1  1  0
  9  8  2  0
 10 11  2  0
 10  9  1  0
 11  6  1  0
 12  2  1  0
 13 12  1  0
 14 13  2  0
 15 14  1  0
 15 17  1  0
 16 15  2  0
 17 18  1  0
 18 12  1  0
 18 19  2  0
  4 20  1  0
  5 21  1  0
  6 22  1  0
  7 23  1  0
 10 24  1  0
 13 25  1  0
 14 26  1  0
 17 27  1  0
M  ISO  8  20  14  21   9  22  14  23  14  24  14  25  14  26  14  27   9
M  END
>  <minimizedAffinity>  (1) 
-4.94344521

>  <minimizedRMSD>  (1) 
0.739638746

$$$$
