
     RDKit          3D

 29 30  0  0  0  0  0  0  0  0999 V2000
   42.0420   22.2120   36.1270 C   0  0  0  0  0  0  0  0  0  0  0  0
   40.7790   22.3300   36.7030 C   0  0  0  0  0  0  0  0  0  0  0  0
   39.9700   23.4140   36.3540 C   0  0  0  0  0  0  0  0  0  0  0  0
   40.4650   24.3180   35.4540 N   0  0  0  0  0  0  0  0  0  0  0  0
   41.6850   24.1780   34.9150 C   0  0  0  0  0  0  0  0  0  0  0  0
   42.4770   23.1290   35.2470 N   0  0  0  0  0  0  0  0  0  0  0  0
   42.8750   21.0740   36.5000 C   0  0  0  0  0  0  0  0  0  0  0  0
   44.0780   20.7280   35.9210 C   0  0  0  0  0  0  0  0  0  0  0  0
   44.4990   19.5840   36.6010 C   0  0  0  0  0  0  0  0  0  0  0  0
   43.5640   19.2820   37.5450 N   0  0  0  0  0  0  0  0  0  0  0  0
   42.5810   20.1950   37.4740 N   0  0  0  0  0  0  0  0  0  0  0  0
   38.6350   23.6210   36.9060 C   0  0  0  0  0  0  0  0  0  0  0  0
   38.7300   23.3800   38.4110 C   0  0  0  0  0  0  0  0  0  0  0  0
   38.0710   25.0050   36.6440 C   0  0  0  0  0  0  0  0  0  0  0  0
   37.6650   22.6340   36.2900 C   0  0  0  0  0  0  0  0  0  0  0  0
   40.4232   21.5789   37.4236 H   0  0  0  0  0  0  0  0  0  0  0  0
   42.0481   24.9247   34.1935 H   0  0  0  0  0  0  0  0  0  0  0  0
   44.5954   21.2437   35.0986 H   0  0  0  0  0  0  0  0  0  0  0  0
   45.4255   19.0232   36.4081 H   0  0  0  0  0  0  0  0  0  0  0  0
   43.6040   18.4890   38.2011 H   0  0  0  0  0  0  0  0  0  0  0  0
   38.3780   24.2730   38.9483 H   0  0  0  0  0  0  0  0  0  0  0  0
   38.1046   22.5173   38.6844 H   0  0  0  0  0  0  0  0  0  0  0  0
   39.7758   23.1761   38.6844 H   0  0  0  0  0  0  0  0  0  0  0  0
   37.8671   25.5053   37.6022 H   0  0  0  0  0  0  0  0  0  0  0  0
   38.8002   25.5955   36.0699 H   0  0  0  0  0  0  0  0  0  0  0  0
   37.1368   24.9176   36.0699 H   0  0  0  0  0  0  0  0  0  0  0  0
   37.1346   22.0943   37.0884 H   0  0  0  0  0  0  0  0  0  0  0  0
   36.9374   23.1750   35.6672 H   0  0  0  0  0  0  0  0  0  0  0  0
   38.2186   21.9159   35.6672 H   0  0  0  0  0  0  0  0  0  0  0  0
  1  7  1  0
  1  2  2  0
  3  2  1  0
  3 12  1  0
  4  3  2  0
  5  6  2  0
  5  4  1  0
  6  1  1  0
  7 11  2  0
  8  7  1  0
  8  9  2  0
  9 10  1  0
 11 10  1  0
 12 13  1  0
 14 12  1  0
 15 12  1  0
  2 16  1  0
  5 17  1  0
  8 18  1  0
  9 19  1  0
 10 20  1  0
 13 21  1  0
 13 22  1  0
 13 23  1  0
 14 24  1  0
 14 25  1  0
 14 26  1  0
 15 27  1  0
 15 28  1  0
 15 29  1  0
M  ISO  8  16  14  17  14  18  14  19  14  20   9  21   8  22   8  23   8
M  ISO  6  24   8  25   8  26   8  27   8  28   8  29   8
M  END
>  <minimizedAffinity>  (1) 
-3.85297346

>  <minimizedRMSD>  (1) 
1.52304363

$$$$
