
     RDKit          3D

 31 33  0  0  0  0  0  0  0  0999 V2000
   39.4480   22.9380   37.2300 C   0  0  0  0  0  0  0  0  0  0  0  0
   38.7410   23.9260   36.5540 C   0  0  0  0  0  0  0  0  0  0  0  0
   37.7850   24.3690   37.4110 N   0  0  0  0  0  0  0  0  0  0  0  0
   37.9370   23.6530   38.5570 C   0  0  0  0  0  0  0  0  0  0  0  0
   38.9400   22.7770   38.4710 N   0  0  0  0  0  0  0  0  0  0  0  0
   42.5480   20.8740   36.9410 C   0  0  0  0  0  0  0  0  0  0  0  0
   41.4710   21.5730   37.4920 C   0  0  0  0  0  0  0  0  0  0  0  0
   40.5590   22.2170   36.6410 C   0  0  0  0  0  0  0  0  0  0  0  0
   40.7980   22.1110   35.3010 N   0  0  0  0  0  0  0  0  0  0  0  0
   41.8360   21.4370   34.8020 C   0  0  0  0  0  0  0  0  0  0  0  0
   42.7000   20.8260   35.6090 N   0  0  0  0  0  0  0  0  0  0  0  0
   38.8730   24.4600   35.2510 N   0  0  0  0  0  0  0  0  0  0  0  0
   38.2290   24.1550   33.9860 C   0  0  0  0  0  0  0  0  0  0  0  0
   37.5600   25.4610   33.5650 C   0  0  0  0  0  0  0  0  0  0  0  0
   38.5440   26.4420   33.2750 N   0  0  0  0  0  0  0  0  0  0  0  0
   39.8610   26.1600   33.7770 C   0  0  0  0  0  0  0  0  0  0  0  0
   39.8560   25.5410   35.1500 C   0  0  0  0  0  0  0  0  0  0  0  0
   37.3073   23.7808   39.4498 H   0  0  0  0  0  0  0  0  0  0  0  0
   39.2587   22.1187   39.1962 H   0  0  0  0  0  0  0  0  0  0  0  0
   43.2690   20.3647   37.5973 H   0  0  0  0  0  0  0  0  0  0  0  0
   41.3389   21.6183   38.5831 H   0  0  0  0  0  0  0  0  0  0  0  0
   41.9789   21.3859   33.7125 H   0  0  0  0  0  0  0  0  0  0  0  0
   38.9724   23.8416   33.2382 H   0  0  0  0  0  0  0  0  0  0  0  0
   37.5082   23.3288   34.0752 H   0  0  0  0  0  0  0  0  0  0  0  0
   36.9479   25.2836   32.6684 H   0  0  0  0  0  0  0  0  0  0  0  0
   36.9242   25.8211   34.3872 H   0  0  0  0  0  0  0  0  0  0  0  0
   38.6073   26.5359   32.2512 H   0  0  0  0  0  0  0  0  0  0  0  0
   40.3578   25.4660   33.0831 H   0  0  0  0  0  0  0  0  0  0  0  0
   40.3922   27.1201   33.8547 H   0  0  0  0  0  0  0  0  0  0  0  0
   40.8561   25.1349   35.3620 H   0  0  0  0  0  0  0  0  0  0  0  0
   39.5858   26.3205   35.8776 H   0  0  0  0  0  0  0  0  0  0  0  0
  1  5  1  0
  2  1  2  0
  2  3  1  0
  3  4  2  0
  5  4  1  0
  6  7  2  0
  8  1  1  0
  8  7  1  0
  9  8  2  0
 10  9  1  0
 10 11  2  0
 11  6  1  0
 12  2  1  0
 13 12  1  0
 14 13  1  0
 15 14  1  0
 15 16  1  0
 16 17  1  0
 17 12  1  0
  4 18  1  0
  5 19  1  0
  6 20  1  0
  7 21  1  0
 10 22  1  0
 13 23  1  0
 13 24  1  0
 14 25  1  0
 14 26  1  0
 15 27  1  0
 16 28  1  0
 16 29  1  0
 17 30  1  0
 17 31  1  0
M  ISO  8  18  14  19   9  20  14  21  14  22  14  23  13  24  13  25  13
M  ISO  6  26  13  27   5  28  13  29  13  30  13  31  13
M  END
>  <minimizedAffinity>  (1) 
-4.58695602

>  <minimizedRMSD>  (1) 
1.1590476

$$$$
