
     RDKit          3D

 24 26  0  0  0  0  0  0  0  0999 V2000
   39.4240   22.9460   37.3070 C   0  0  0  0  0  0  0  0  0  0  0  0
   38.6870   23.9190   36.6490 C   0  0  0  0  0  0  0  0  0  0  0  0
   37.7340   24.3350   37.5340 N   0  0  0  0  0  0  0  0  0  0  0  0
   37.9180   23.6240   38.6650 C   0  0  0  0  0  0  0  0  0  0  0  0
   38.9270   22.7880   38.5410 N   0  0  0  0  0  0  0  0  0  0  0  0
   42.5270   20.9240   36.9480 C   0  0  0  0  0  0  0  0  0  0  0  0
   41.4480   21.5990   37.5270 C   0  0  0  0  0  0  0  0  0  0  0  0
   40.5440   22.2460   36.7020 C   0  0  0  0  0  0  0  0  0  0  0  0
   40.7700   22.1810   35.3430 N   0  0  0  0  0  0  0  0  0  0  0  0
   41.8160   21.5240   34.8280 C   0  0  0  0  0  0  0  0  0  0  0  0
   42.6940   20.8970   35.6100 N   0  0  0  0  0  0  0  0  0  0  0  0
   38.8570   24.4400   35.2630 C   0  0  0  0  0  0  0  0  0  0  0  0
   39.5990   25.7670   35.1380 C   0  0  0  0  0  0  0  0  0  0  0  0
   38.1300   25.6940   34.8940 C   0  0  0  0  0  0  0  0  0  0  0  0
   37.3051   23.7290   39.5724 H   0  0  0  0  0  0  0  0  0  0  0  0
   39.2705   22.1342   39.2589 H   0  0  0  0  0  0  0  0  0  0  0  0
   43.2513   20.4066   37.5943 H   0  0  0  0  0  0  0  0  0  0  0  0
   41.3197   21.6156   38.6194 H   0  0  0  0  0  0  0  0  0  0  0  0
   41.9538   21.5011   33.7369 H   0  0  0  0  0  0  0  0  0  0  0  0
   38.9409   23.4370   34.8191 H   0  0  0  0  0  0  0  0  0  0  0  0
   39.9844   26.2702   36.0370 H   0  0  0  0  0  0  0  0  0  0  0  0
   40.4687   26.1249   34.5675 H   0  0  0  0  0  0  0  0  0  0  0  0
   37.4339   26.1528   35.6116 H   0  0  0  0  0  0  0  0  0  0  0  0
   37.4730   25.9857   34.0614 H   0  0  0  0  0  0  0  0  0  0  0  0
  1  5  1  0
  2  1  2  0
  2  3  1  0
  3  4  2  0
  5  4  1  0
  6  7  2  0
  8  1  1  0
  8  7  1  0
  9  8  2  0
 10  9  1  0
 10 11  2  0
 11  6  1  0
 12  2  1  0
 13 12  1  0
 14 13  1  0
 14 12  1  0
  4 15  1  0
  5 16  1  0
  6 17  1  0
  7 18  1  0
 10 19  1  0
 12 20  1  0
 13 21  1  0
 13 22  1  0
 14 23  1  0
 14 24  1  0
M  ISO  8  15  14  16   9  17  14  18  14  19  14  20  13  21  13  22  13
M  ISO  2  23  13  24  13
M  END
>  <minimizedAffinity>  (1) 
-4.23798609

>  <minimizedRMSD>  (1) 
0.646530569

$$$$
