
     RDKit          3D

 19 20  0  0  0  0  0  0  0  0999 V2000
   39.4570   22.8750   37.2900 C   0  0  0  0  0  0  0  0  0  0  0  0
   38.6310   23.7480   36.5890 C   0  0  0  0  0  0  0  0  0  0  0  0
   37.7050   24.1880   37.4780 N   0  0  0  0  0  0  0  0  0  0  0  0
   37.9690   23.6010   38.6610 C   0  0  0  0  0  0  0  0  0  0  0  0
   39.0190   22.8140   38.5540 N   0  0  0  0  0  0  0  0  0  0  0  0
   42.5490   20.8450   36.9720 C   0  0  0  0  0  0  0  0  0  0  0  0
   41.4690   21.5120   37.5630 C   0  0  0  0  0  0  0  0  0  0  0  0
   40.5980   22.1680   36.7070 C   0  0  0  0  0  0  0  0  0  0  0  0
   40.8390   22.1300   35.3530 N   0  0  0  0  0  0  0  0  0  0  0  0
   41.8840   21.4790   34.8390 C   0  0  0  0  0  0  0  0  0  0  0  0
   42.7360   20.8410   35.6360 N   0  0  0  0  0  0  0  0  0  0  0  0
   38.7940   24.0620   35.2140 N   0  0  0  0  0  0  0  0  0  0  0  0
   37.3907   23.7567   39.5837 H   0  0  0  0  0  0  0  0  0  0  0  0
   39.4316   22.2498   39.3105 H   0  0  0  0  0  0  0  0  0  0  0  0
   43.2641   20.3100   37.6142 H   0  0  0  0  0  0  0  0  0  0  0  0
   41.3191   21.5153   38.6527 H   0  0  0  0  0  0  0  0  0  0  0  0
   42.0416   21.4700   33.7504 H   0  0  0  0  0  0  0  0  0  0  0  0
   38.1457   24.7178   34.7551 H   0  0  0  0  0  0  0  0  0  0  0  0
   39.5605   23.6340   34.6753 H   0  0  0  0  0  0  0  0  0  0  0  0
  1  5  1  0
  2  1  2  0
  2  3  1  0
  3  4  2  0
  5  4  1  0
  6  7  2  0
  8  1  1  0
  8  7  1  0
  9  8  2  0
 10  9  1  0
 10 11  2  0
 11  6  1  0
 12  2  1  0
  4 13  1  0
  5 14  1  0
  6 15  1  0
  7 16  1  0
 10 17  1  0
 12 18  1  0
 12 19  1  0
M  ISO  5  13  14  14   9  15  14  16  14  17  14
M  END
>  <minimizedAffinity>  (1) 
-3.92219853

>  <minimizedRMSD>  (1) 
0.126881257

$$$$
