
     RDKit          3D

 29 30  0  0  0  0  0  0  0  0999 V2000
   41.8050   21.8610   36.1200 C   0  0  0  0  0  0  0  0  0  0  0  0
   40.5580   22.0800   36.7030 C   0  0  0  0  0  0  0  0  0  0  0  0
   39.8990   23.2830   36.4560 C   0  0  0  0  0  0  0  0  0  0  0  0
   40.5090   24.1860   35.6540 N   0  0  0  0  0  0  0  0  0  0  0  0
   41.7090   23.9660   35.0970 C   0  0  0  0  0  0  0  0  0  0  0  0
   42.3580   22.8140   35.3250 N   0  0  0  0  0  0  0  0  0  0  0  0
   42.4870   20.5950   36.3870 C   0  0  0  0  0  0  0  0  0  0  0  0
   43.1750   19.8740   35.4380 C   0  0  0  0  0  0  0  0  0  0  0  0
   43.6670   18.7650   36.0620 N   0  0  0  0  0  0  0  0  0  0  0  0
   43.2920   18.8020   37.3630 C   0  0  0  0  0  0  0  0  0  0  0  0
   42.5620   19.9400   37.5510 N   0  0  0  0  0  0  0  0  0  0  0  0
   38.5870   23.5950   37.0270 C   0  0  0  0  0  0  0  0  0  0  0  0
   38.6900   23.3810   38.5430 C   0  0  0  0  0  0  0  0  0  0  0  0
   38.0910   24.9860   36.7110 C   0  0  0  0  0  0  0  0  0  0  0  0
   37.5450   22.6400   36.4750 C   0  0  0  0  0  0  0  0  0  0  0  0
   40.1010   21.3151   37.3481 H   0  0  0  0  0  0  0  0  0  0  0  0
   42.1626   24.7323   34.4512 H   0  0  0  0  0  0  0  0  0  0  0  0
   43.3037   20.1409   34.3786 H   0  0  0  0  0  0  0  0  0  0  0  0
   43.5323   18.0507   38.1296 H   0  0  0  0  0  0  0  0  0  0  0  0
   42.1397   20.2435   38.4401 H   0  0  0  0  0  0  0  0  0  0  0  0
   38.2703   24.2531   39.0658 H   0  0  0  0  0  0  0  0  0  0  0  0
   38.1275   22.4787   38.8250 H   0  0  0  0  0  0  0  0  0  0  0  0
   39.7461   23.2578   38.8250 H   0  0  0  0  0  0  0  0  0  0  0  0
   37.8977   25.5281   37.6484 H   0  0  0  0  0  0  0  0  0  0  0  0
   38.8530   25.5232   36.1272 H   0  0  0  0  0  0  0  0  0  0  0  0
   37.1610   24.9199   36.1272 H   0  0  0  0  0  0  0  0  0  0  0  0
   37.0151   22.1543   37.3076 H   0  0  0  0  0  0  0  0  0  0  0  0
   36.8254   23.1988   35.8586 H   0  0  0  0  0  0  0  0  0  0  0  0
   38.0391   21.8746   35.8586 H   0  0  0  0  0  0  0  0  0  0  0  0
  1  7  1  0
  1  2  2  0
  3  2  1  0
  3 12  1  0
  4  3  2  0
  5  6  2  0
  5  4  1  0
  6  1  1  0
  7 11  1  0
  8  9  1  0
  8  7  2  0
  9 10  2  0
 10 11  1  0
 12 13  1  0
 14 12  1  0
 15 12  1  0
  2 16  1  0
  5 17  1  0
  8 18  1  0
 10 19  1  0
 11 20  1  0
 13 21  1  0
 13 22  1  0
 13 23  1  0
 14 24  1  0
 14 25  1  0
 14 26  1  0
 15 27  1  0
 15 28  1  0
 15 29  1  0
M  ISO  8  16  14  17  14  18  14  19  14  20   9  21   8  22   8  23   8
M  ISO  6  24   8  25   8  26   8  27   8  28   8  29   8
M  END
>  <minimizedAffinity>  (1) 
-3.80241656

>  <minimizedRMSD>  (1) 
1.67908871

$$$$
