
     RDKit          3D

 40 43  0  0  0  0  0  0  0  0999 V2000
   39.1860   24.5250   35.2950 C   0  0  0  0  0  0  0  0  0  0  0  0
   40.0110   25.6230   35.3080 C   0  0  0  0  0  0  0  0  0  0  0  0
   40.2980   26.3090   34.1500 C   0  0  0  0  0  0  0  0  0  0  0  0
   39.7520   25.8990   32.9330 C   0  0  0  0  0  0  0  0  0  0  0  0
   38.9170   24.7780   32.9490 C   0  0  0  0  0  0  0  0  0  0  0  0
   38.6310   24.0930   34.1090 C   0  0  0  0  0  0  0  0  0  0  0  0
   37.7840   22.9510   34.1500 N   0  0  0  0  0  0  0  0  0  0  0  0
   37.0650   22.4750   35.1790 C   0  0  0  0  0  0  0  0  0  0  0  0
   36.3080   21.3390   34.9870 C   0  0  0  0  0  0  0  0  0  0  0  0
   35.5420   20.8750   36.1720 C   0  0  0  0  0  0  0  0  0  0  0  0
   36.2760   20.6910   33.7680 C   0  0  0  0  0  0  0  0  0  0  0  0
   35.5450   19.6480   33.6860 O   0  0  0  0  0  0  0  0  0  0  0  0
   37.0100   21.1980   32.7600 N   0  0  0  0  0  0  0  0  0  0  0  0
   37.7510   22.3160   32.9640 C   0  0  0  0  0  0  0  0  0  0  0  0
   38.3770   22.6490   31.9020 O   0  0  0  0  0  0  0  0  0  0  0  0
   39.6450   22.8330   37.1710 C   0  0  0  0  0  0  0  0  0  0  0  0
   38.9700   23.9000   36.5810 C   0  0  0  0  0  0  0  0  0  0  0  0
   38.0260   24.2550   37.4960 N   0  0  0  0  0  0  0  0  0  0  0  0
   38.1400   23.4450   38.5570 C   0  0  0  0  0  0  0  0  0  0  0  0
   39.1110   22.5730   38.3920 N   0  0  0  0  0  0  0  0  0  0  0  0
   42.7470   20.8160   36.7360 C   0  0  0  0  0  0  0  0  0  0  0  0
   41.6940   21.4940   37.3750 C   0  0  0  0  0  0  0  0  0  0  0  0
   40.7610   22.1140   36.5470 C   0  0  0  0  0  0  0  0  0  0  0  0
   40.9070   22.0390   35.1770 N   0  0  0  0  0  0  0  0  0  0  0  0
   41.9450   21.3690   34.6340 C   0  0  0  0  0  0  0  0  0  0  0  0
   42.8590   20.7620   35.4050 N   0  0  0  0  0  0  0  0  0  0  0  0
   40.4493   25.9594   36.2592 H   0  0  0  0  0  0  0  0  0  0  0  0
   40.9616   27.1856   34.1839 H   0  0  0  0  0  0  0  0  0  0  0  0
   39.9700   26.4365   31.9983 H   0  0  0  0  0  0  0  0  0  0  0  0
   38.4737   24.4316   32.0038 H   0  0  0  0  0  0  0  0  0  0  0  0
   37.0796   22.9812   36.1555 H   0  0  0  0  0  0  0  0  0  0  0  0
   36.0606   21.1891   37.0898 H   0  0  0  0  0  0  0  0  0  0  0  0
   34.5337   21.3143   36.1519 H   0  0  0  0  0  0  0  0  0  0  0  0
   35.4644   19.7779   36.1519 H   0  0  0  0  0  0  0  0  0  0  0  0
   37.0091   20.7392   31.8378 H   0  0  0  0  0  0  0  0  0  0  0  0
   37.5029   23.5018   39.4519 H   0  0  0  0  0  0  0  0  0  0  0  0
   39.4062   21.8416   39.0544 H   0  0  0  0  0  0  0  0  0  0  0  0
   43.5055   20.3122   37.3531 H   0  0  0  0  0  0  0  0  0  0  0  0
   41.6113   21.5328   38.4712 H   0  0  0  0  0  0  0  0  0  0  0  0
   42.0431   21.3199   33.5395 H   0  0  0  0  0  0  0  0  0  0  0  0
  1  2  2  0
  1 17  1  0
  3  2  1  0
  4  5  1  0
  4  3  2  0
  5  6  2  0
  6  7  1  0
  6  1  1  0
  7  8  1  0
  9  8  2  0
  9 10  1  0
 11  9  1  0
 12 11  2  0
 13 14  1  0
 13 11  1  0
 14  7  1  0
 15 14  2  0
 16 20  1  0
 17 16  2  0
 17 18  1  0
 18 19  2  0
 20 19  1  0
 21 22  2  0
 23 16  1  0
 23 22  1  0
 24 23  2  0
 25 24  1  0
 25 26  2  0
 26 21  1  0
  2 27  1  0
  3 28  1  0
  4 29  1  0
  5 30  1  0
  8 31  1  0
 10 32  1  0
 10 33  1  0
 10 34  1  0
 13 35  1  0
 19 36  1  0
 20 37  1  0
 21 38  1  0
 22 39  1  0
 25 40  1  0
M  ISO  8  27  14  28  14  29  14  30  14  31  14  32   8  33   8  34   8
M  ISO  6  35   9  36  14  37   9  38  14  39  14  40  14
M  END
>  <minimizedAffinity>  (1) 
-5.72269392

>  <minimizedRMSD>  (1) 
1.02504981

$$$$
