
     RDKit          3D

 40 43  0  0  0  0  0  0  0  0999 V2000
   39.4740   22.8430   37.3040 C   0  0  0  0  0  0  0  0  0  0  0  0
   38.6450   23.7180   36.6040 C   0  0  0  0  0  0  0  0  0  0  0  0
   37.7290   24.1270   37.5180 N   0  0  0  0  0  0  0  0  0  0  0  0
   38.0050   23.5250   38.6920 C   0  0  0  0  0  0  0  0  0  0  0  0
   39.0590   22.7390   38.5950 N   0  0  0  0  0  0  0  0  0  0  0  0
   38.7040   24.1280   35.2170 C   0  0  0  0  0  0  0  0  0  0  0  0
   39.4210   25.2800   34.9820 C   0  0  0  0  0  0  0  0  0  0  0  0
   39.5500   25.7740   33.6960 C   0  0  0  0  0  0  0  0  0  0  0  0
   38.9560   25.1110   32.6190 C   0  0  0  0  0  0  0  0  0  0  0  0
   38.2400   23.9510   32.8970 C   0  0  0  0  0  0  0  0  0  0  0  0
   38.1060   23.4510   34.1780 C   0  0  0  0  0  0  0  0  0  0  0  0
   37.3750   22.2650   34.4650 N   0  0  0  0  0  0  0  0  0  0  0  0
   36.9930   21.7780   35.7760 C   0  0  0  0  0  0  0  0  0  0  0  0
   35.6840   21.0160   35.7260 C   0  0  0  0  0  0  0  0  0  0  0  0
   35.6570   20.1110   34.6690 O   0  0  0  0  0  0  0  0  0  0  0  0
   35.6340   20.8420   33.4820 C   0  0  0  0  0  0  0  0  0  0  0  0
   36.9900   21.4890   33.3130 C   0  0  0  0  0  0  0  0  0  0  0  0
   42.5940   20.8410   36.9760 C   0  0  0  0  0  0  0  0  0  0  0  0
   41.5110   21.4950   37.5630 C   0  0  0  0  0  0  0  0  0  0  0  0
   40.6220   22.1460   36.7150 C   0  0  0  0  0  0  0  0  0  0  0  0
   40.8470   22.1150   35.3600 N   0  0  0  0  0  0  0  0  0  0  0  0
   41.9120   21.4670   34.8460 C   0  0  0  0  0  0  0  0  0  0  0  0
   42.7760   20.8380   35.6310 N   0  0  0  0  0  0  0  0  0  0  0  0
   37.4241   23.6711   39.6146 H   0  0  0  0  0  0  0  0  0  0  0  0
   39.4799   22.1663   39.3405 H   0  0  0  0  0  0  0  0  0  0  0  0
   39.8939   25.8106   35.8216 H   0  0  0  0  0  0  0  0  0  0  0  0
   40.1244   26.6955   33.5202 H   0  0  0  0  0  0  0  0  0  0  0  0
   39.0508   25.4914   31.5912 H   0  0  0  0  0  0  0  0  0  0  0  0
   37.7626   23.4116   32.0656 H   0  0  0  0  0  0  0  0  0  0  0  0
   37.7814   21.1097   36.1527 H   0  0  0  0  0  0  0  0  0  0  0  0
   36.8628   22.6442   36.4414 H   0  0  0  0  0  0  0  0  0  0  0  0
   35.5550   20.4661   36.6699 H   0  0  0  0  0  0  0  0  0  0  0  0
   34.8698   21.7409   35.5786 H   0  0  0  0  0  0  0  0  0  0  0  0
   35.4304   20.1721   32.6336 H   0  0  0  0  0  0  0  0  0  0  0  0
   34.8442   21.6069   33.5164 H   0  0  0  0  0  0  0  0  0  0  0  0
   37.7400   20.7008   33.1511 H   0  0  0  0  0  0  0  0  0  0  0  0
   36.9314   22.1718   32.4525 H   0  0  0  0  0  0  0  0  0  0  0  0
   43.3169   20.3158   37.6175 H   0  0  0  0  0  0  0  0  0  0  0  0
   41.3659   21.4958   38.6534 H   0  0  0  0  0  0  0  0  0  0  0  0
   42.0667   21.4601   33.7570 H   0  0  0  0  0  0  0  0  0  0  0  0
  1  5  1  0
  2  1  2  0
  2  3  1  0
  3  4  2  0
  5  4  1  0
  6  2  1  0
  7  6  2  0
  8  7  1  0
  9 10  1  0
  9  8  2  0
 10 11  2  0
 11 12  1  0
 11  6  1  0
 12 13  1  0
 14 13  1  0
 15 14  1  0
 16 15  1  0
 17 16  1  0
 17 12  1  0
 18 19  2  0
 20  1  1  0
 20 19  1  0
 21 20  2  0
 22 21  1  0
 22 23  2  0
 23 18  1  0
  4 24  1  0
  5 25  1  0
  7 26  1  0
  8 27  1  0
  9 28  1  0
 10 29  1  0
 13 30  1  0
 13 31  1  0
 14 32  1  0
 14 33  1  0
 16 34  1  0
 16 35  1  0
 17 36  1  0
 17 37  1  0
 18 38  1  0
 19 39  1  0
 22 40  1  0
M  ISO  8  24  14  25   9  26  14  27  14  28  14  29  14  30  13  31  13
M  ISO  8  32  13  33  13  34  13  35  13  36  13  37  13  38  14  39  14
M  ISO  1  40  14
M  END
>  <minimizedAffinity>  (1) 
-5.76378822

>  <minimizedRMSD>  (1) 
0.165503517

$$$$
