
     RDKit          3D

 37 40  0  0  0  0  0  0  0  0999 V2000
   39.6030   25.1310   34.8160 C   0  0  0  0  0  0  0  0  0  0  0  0
   40.2880   26.2860   35.1710 C   0  0  0  0  0  0  0  0  0  0  0  0
   40.9300   27.0280   34.1950 C   0  0  0  0  0  0  0  0  0  0  0  0
   40.8960   26.6310   32.8540 C   0  0  0  0  0  0  0  0  0  0  0  0
   40.1980   25.4690   32.5460 C   0  0  0  0  0  0  0  0  0  0  0  0
   39.5550   24.7170   33.5020 C   0  0  0  0  0  0  0  0  0  0  0  0
   38.8380   23.5270   33.1920 N   0  0  0  0  0  0  0  0  0  0  0  0
   39.5260   22.3680   33.2440 C   0  0  0  0  0  0  0  0  0  0  0  0
   38.9180   21.1640   32.9610 C   0  0  0  0  0  0  0  0  0  0  0  0
   37.5620   21.1840   32.6180 C   0  0  0  0  0  0  0  0  0  0  0  0
   36.9310   20.1160   32.3430 O   0  0  0  0  0  0  0  0  0  0  0  0
   36.8800   22.3560   32.5690 N   0  0  0  0  0  0  0  0  0  0  0  0
   37.5330   23.4970   32.8570 C   0  0  0  0  0  0  0  0  0  0  0  0
   36.9260   24.5970   32.8200 O   0  0  0  0  0  0  0  0  0  0  0  0
   39.4880   23.4370   36.7400 C   0  0  0  0  0  0  0  0  0  0  0  0
   38.9730   24.4400   35.9210 C   0  0  0  0  0  0  0  0  0  0  0  0
   37.7150   24.6410   36.3860 N   0  0  0  0  0  0  0  0  0  0  0  0
   37.4900   23.8190   37.4130 C   0  0  0  0  0  0  0  0  0  0  0  0
   38.5450   23.0710   37.6580 N   0  0  0  0  0  0  0  0  0  0  0  0
   42.3780   21.1030   36.9750 C   0  0  0  0  0  0  0  0  0  0  0  0
   41.0710   21.5950   37.1110 C   0  0  0  0  0  0  0  0  0  0  0  0
   40.8280   22.8750   36.6240 C   0  0  0  0  0  0  0  0  0  0  0  0
   41.8600   23.5750   36.0490 N   0  0  0  0  0  0  0  0  0  0  0  0
   43.1050   23.0390   35.9470 C   0  0  0  0  0  0  0  0  0  0  0  0
   43.3580   21.8140   36.4070 N   0  0  0  0  0  0  0  0  0  0  0  0
   40.3200   26.6091   36.2220 H   0  0  0  0  0  0  0  0  0  0  0  0
   41.4739   27.9415   34.4773 H   0  0  0  0  0  0  0  0  0  0  0  0
   41.4026   27.2164   32.0726 H   0  0  0  0  0  0  0  0  0  0  0  0
   40.1582   25.1380   31.4977 H   0  0  0  0  0  0  0  0  0  0  0  0
   40.5914   22.3841   33.5172 H   0  0  0  0  0  0  0  0  0  0  0  0
   39.4800   20.2193   33.0034 H   0  0  0  0  0  0  0  0  0  0  0  0
   35.8816   22.3721   32.3162 H   0  0  0  0  0  0  0  0  0  0  0  0
   36.5482   23.7727   37.9794 H   0  0  0  0  0  0  0  0  0  0  0  0
   38.6402   22.3553   38.3925 H   0  0  0  0  0  0  0  0  0  0  0  0
   42.6052   20.0941   37.3498 H   0  0  0  0  0  0  0  0  0  0  0  0
   40.2762   20.9968   37.5805 H   0  0  0  0  0  0  0  0  0  0  0  0
   43.9121   23.6224   35.4799 H   0  0  0  0  0  0  0  0  0  0  0  0
  1  2  2  0
  1 16  1  0
  3  2  1  0
  4  3  2  0
  5  4  1  0
  5  6  2  0
  6  1  1  0
  7  8  1  0
  7  6  1  0
  9  8  2  0
 10  9  1  0
 11 10  2  0
 12 10  1  0
 12 13  1  0
 13  7  1  0
 14 13  2  0
 15 19  1  0
 16 17  1  0
 16 15  2  0
 17 18  2  0
 18 19  1  0
 20 21  2  0
 22 15  1  0
 22 21  1  0
 23 22  2  0
 24 23  1  0
 24 25  2  0
 25 20  1  0
  2 26  1  0
  3 27  1  0
  4 28  1  0
  5 29  1  0
  8 30  1  0
  9 31  1  0
 12 32  1  0
 18 33  1  0
 19 34  1  0
 20 35  1  0
 21 36  1  0
 24 37  1  0
M  ISO  8  26  14  27  14  28  14  29  14  30  14  31  14  32   9  33  14
M  ISO  4  34   9  35  14  36  14  37  14
M  END
>  <minimizedAffinity>  (1) 
-5.36630869

>  <minimizedRMSD>  (1) 
2.24776983

$$$$
