
     RDKit          3D

 39 42  0  0  0  0  0  0  0  0999 V2000
   39.5400   23.1440   37.4360 C   0  0  0  0  0  0  0  0  0  0  0  0
   38.7110   24.0340   36.7630 C   0  0  0  0  0  0  0  0  0  0  0  0
   37.5980   24.1190   37.5300 N   0  0  0  0  0  0  0  0  0  0  0  0
   37.7750   23.3130   38.6000 C   0  0  0  0  0  0  0  0  0  0  0  0
   38.9400   22.7110   38.5700 N   0  0  0  0  0  0  0  0  0  0  0  0
   38.9250   24.7470   35.5110 C   0  0  0  0  0  0  0  0  0  0  0  0
   39.2290   26.0720   35.6500 C   0  0  0  0  0  0  0  0  0  0  0  0
   39.4550   26.8540   34.5330 C   0  0  0  0  0  0  0  0  0  0  0  0
   39.3740   26.2930   33.2530 C   0  0  0  0  0  0  0  0  0  0  0  0
   39.0660   24.9570   33.1530 C   0  0  0  0  0  0  0  0  0  0  0  0
   38.8360   24.1500   34.2500 C   0  0  0  0  0  0  0  0  0  0  0  0
   38.5140   22.7630   34.1870 N   0  0  0  0  0  0  0  0  0  0  0  0
   37.3940   21.8840   34.4740 C   0  0  0  0  0  0  0  0  0  0  0  0
   37.1700   21.2940   33.0840 C   0  0  0  0  0  0  0  0  0  0  0  0
   38.6000   21.0510   32.6510 C   0  0  0  0  0  0  0  0  0  0  0  0
   39.4630   21.7370   33.7210 C   0  0  0  0  0  0  0  0  0  0  0  0
   42.6000   21.1330   36.7590 C   0  0  0  0  0  0  0  0  0  0  0  0
   41.3210   21.4650   37.2200 C   0  0  0  0  0  0  0  0  0  0  0  0
   40.8820   22.7570   36.9580 C   0  0  0  0  0  0  0  0  0  0  0  0
   41.6980   23.6350   36.2770 N   0  0  0  0  0  0  0  0  0  0  0  0
   42.9240   23.2400   35.8620 C   0  0  0  0  0  0  0  0  0  0  0  0
   43.3730   22.0080   36.0980 N   0  0  0  0  0  0  0  0  0  0  0  0
   37.0318   23.1780   39.3997 H   0  0  0  0  0  0  0  0  0  0  0  0
   39.3183   22.0490   39.2625 H   0  0  0  0  0  0  0  0  0  0  0  0
   39.2940   26.5174   36.6537 H   0  0  0  0  0  0  0  0  0  0  0  0
   39.6992   27.9201   34.6501 H   0  0  0  0  0  0  0  0  0  0  0  0
   39.5514   26.9026   32.3547 H   0  0  0  0  0  0  0  0  0  0  0  0
   38.9995   24.5089   32.1506 H   0  0  0  0  0  0  0  0  0  0  0  0
   37.6583   21.1103   35.2099 H   0  0  0  0  0  0  0  0  0  0  0  0
   36.5167   22.3757   34.9196 H   0  0  0  0  0  0  0  0  0  0  0  0
   36.5949   20.3574   33.1287 H   0  0  0  0  0  0  0  0  0  0  0  0
   36.5885   21.9337   32.4038 H   0  0  0  0  0  0  0  0  0  0  0  0
   38.8147   19.9728   32.6144 H   0  0  0  0  0  0  0  0  0  0  0  0
   38.7992   21.4468   31.6442 H   0  0  0  0  0  0  0  0  0  0  0  0
   39.7439   21.0431   34.5270 H   0  0  0  0  0  0  0  0  0  0  0  0
   40.4284   22.1239   33.3629 H   0  0  0  0  0  0  0  0  0  0  0  0
   42.9849   20.1195   36.9451 H   0  0  0  0  0  0  0  0  0  0  0  0
   40.6954   20.7404   37.7619 H   0  0  0  0  0  0  0  0  0  0  0  0
   43.5634   23.9511   35.3183 H   0  0  0  0  0  0  0  0  0  0  0  0
  1  5  1  0
  2  1  2  0
  2  3  1  0
  3  4  2  0
  5  4  1  0
  6  7  2  0
  6  2  1  0
  8  7  1  0
  9  8  2  0
 10  9  1  0
 10 11  2  0
 11  6  1  0
 12 11  1  0
 12 13  1  0
 14 13  1  0
 15 14  1  0
 15 16  1  0
 16 12  1  0
 17 18  2  0
 19 18  1  0
 19  1  1  0
 20 19  2  0
 21 22  2  0
 21 20  1  0
 22 17  1  0
  4 23  1  0
  5 24  1  0
  7 25  1  0
  8 26  1  0
  9 27  1  0
 10 28  1  0
 13 29  1  0
 13 30  1  0
 14 31  1  0
 14 32  1  0
 15 33  1  0
 15 34  1  0
 16 35  1  0
 16 36  1  0
 17 37  1  0
 18 38  1  0
 21 39  1  0
M  ISO  8  23  14  24   9  25  14  26  14  27  14  28  14  29  13  30  13
M  ISO  8  31  13  32  13  33  13  34  13  35  13  36  13  37  14  38  14
M  ISO  1  39  14
M  END
>  <minimizedAffinity>  (1) 
-5.39250469

>  <minimizedRMSD>  (1) 
1.64236152

$$$$
