
     RDKit          3D

 40 43  0  0  0  0  0  0  0  0999 V2000
   39.5390   23.1720   37.3710 C   0  0  0  0  0  0  0  0  0  0  0  0
   38.7370   24.0620   36.6740 C   0  0  0  0  0  0  0  0  0  0  0  0
   37.5950   24.1590   37.4080 N   0  0  0  0  0  0  0  0  0  0  0  0
   37.7270   23.3610   38.4840 C   0  0  0  0  0  0  0  0  0  0  0  0
   38.8850   22.7530   38.4920 N   0  0  0  0  0  0  0  0  0  0  0  0
   38.9990   24.7730   35.4200 C   0  0  0  0  0  0  0  0  0  0  0  0
   39.4080   26.0700   35.5670 C   0  0  0  0  0  0  0  0  0  0  0  0
   39.6790   26.8210   34.4370 C   0  0  0  0  0  0  0  0  0  0  0  0
   39.5450   26.2900   33.1680 C   0  0  0  0  0  0  0  0  0  0  0  0
   39.1290   24.9780   33.0650 C   0  0  0  0  0  0  0  0  0  0  0  0
   38.8430   24.1770   34.1640 C   0  0  0  0  0  0  0  0  0  0  0  0
   38.3980   22.7750   34.0850 C   0  0  0  0  0  0  0  0  0  0  0  0
   37.3130   22.6340   33.0240 C   0  0  0  0  0  0  0  0  0  0  0  0
   37.6520   21.3270   32.2970 C   0  0  0  0  0  0  0  0  0  0  0  0
   39.1760   21.4260   32.3240 C   0  0  0  0  0  0  0  0  0  0  0  0
   39.4240   21.7740   33.7540 C   0  0  0  0  0  0  0  0  0  0  0  0
   42.5860   21.1180   36.7920 C   0  0  0  0  0  0  0  0  0  0  0  0
   41.2990   21.4640   37.2220 C   0  0  0  0  0  0  0  0  0  0  0  0
   40.8880   22.7660   36.9370 C   0  0  0  0  0  0  0  0  0  0  0  0
   41.7310   23.6220   36.2710 N   0  0  0  0  0  0  0  0  0  0  0  0
   42.9580   23.2190   35.8870 C   0  0  0  0  0  0  0  0  0  0  0  0
   43.3890   21.9780   36.1430 N   0  0  0  0  0  0  0  0  0  0  0  0
   36.9571   23.2359   39.2597 H   0  0  0  0  0  0  0  0  0  0  0  0
   39.2325   22.0918   39.2012 H   0  0  0  0  0  0  0  0  0  0  0  0
   39.5198   26.5096   36.5691 H   0  0  0  0  0  0  0  0  0  0  0  0
   40.0085   27.8642   34.5512 H   0  0  0  0  0  0  0  0  0  0  0  0
   39.7620   26.8911   32.2727 H   0  0  0  0  0  0  0  0  0  0  0  0
   39.0180   24.5437   32.0605 H   0  0  0  0  0  0  0  0  0  0  0  0
   38.0583   22.5638   35.1097 H   0  0  0  0  0  0  0  0  0  0  0  0
   36.3188   22.5724   33.4907 H   0  0  0  0  0  0  0  0  0  0  0  0
   37.2822   23.4958   32.3411 H   0  0  0  0  0  0  0  0  0  0  0  0
   37.2579   21.3122   31.2701 H   0  0  0  0  0  0  0  0  0  0  0  0
   37.2295   20.4146   32.7431 H   0  0  0  0  0  0  0  0  0  0  0  0
   39.6461   20.4684   32.0557 H   0  0  0  0  0  0  0  0  0  0  0  0
   39.5921   22.1489   31.6069 H   0  0  0  0  0  0  0  0  0  0  0  0
   39.3170   20.8848   34.3926 H   0  0  0  0  0  0  0  0  0  0  0  0
   40.4425   22.1568   33.9157 H   0  0  0  0  0  0  0  0  0  0  0  0
   42.9544   20.1013   36.9936 H   0  0  0  0  0  0  0  0  0  0  0  0
   40.6508   20.7513   37.7529 H   0  0  0  0  0  0  0  0  0  0  0  0
   43.6162   23.9213   35.3545 H   0  0  0  0  0  0  0  0  0  0  0  0
  1  5  1  0
  2  1  2  0
  2  3  1  0
  3  4  2  0
  4  5  1  0
  6  7  2  0
  6  2  1  0
  8  7  1  0
  9  8  2  0
 10  9  1  0
 10 11  2  0
 11  6  1  0
 12 11  1  0
 13 12  1  0
 14 15  1  0
 14 13  1  0
 15 16  1  0
 16 12  1  0
 17 18  2  0
 19 18  1  0
 19  1  1  0
 20 19  2  0
 21 22  2  0
 21 20  1  0
 22 17  1  0
  4 23  1  0
  5 24  1  0
  7 25  1  0
  8 26  1  0
  9 27  1  0
 10 28  1  0
 12 29  1  0
 13 30  1  0
 13 31  1  0
 14 32  1  0
 14 33  1  0
 15 34  1  0
 15 35  1  0
 16 36  1  0
 16 37  1  0
 17 38  1  0
 18 39  1  0
 21 40  1  0
M  ISO  8  23  14  24   9  25  14  26  14  27  14  28  14  29  13  30  13
M  ISO  8  31  13  32  13  33  13  34  13  35  13  36  13  37  13  38  14
M  ISO  2  39  14  40  14
M  END
>  <minimizedAffinity>  (1) 
-5.22701836

>  <minimizedRMSD>  (1) 
1.2527684

$$$$
