
     RDKit          3D

 34 37  0  0  0  0  0  0  0  0999 V2000
   39.5930   22.7780   37.2170 C   0  0  0  0  0  0  0  0  0  0  0  0
   38.8950   23.7130   36.4620 C   0  0  0  0  0  0  0  0  0  0  0  0
   37.9190   24.1740   37.2900 N   0  0  0  0  0  0  0  0  0  0  0  0
   38.0430   23.5380   38.4670 C   0  0  0  0  0  0  0  0  0  0  0  0
   39.0420   22.6950   38.4510 N   0  0  0  0  0  0  0  0  0  0  0  0
   39.1080   24.1500   35.0850 C   0  0  0  0  0  0  0  0  0  0  0  0
   40.0140   25.1710   34.9350 C   0  0  0  0  0  0  0  0  0  0  0  0
   40.2900   25.6600   33.6740 C   0  0  0  0  0  0  0  0  0  0  0  0
   39.6710   25.1430   32.5510 C   0  0  0  0  0  0  0  0  0  0  0  0
   38.7620   24.1130   32.7390 C   0  0  0  0  0  0  0  0  0  0  0  0
   38.4740   23.6130   33.9870 C   0  0  0  0  0  0  0  0  0  0  0  0
   37.5210   22.5250   34.2370 C   0  0  0  0  0  0  0  0  0  0  0  0
   37.2280   22.0000   35.5010 C   0  0  0  0  0  0  0  0  0  0  0  0
   36.3100   20.9810   35.5600 C   0  0  0  0  0  0  0  0  0  0  0  0
   35.7340   20.5470   34.3390 C   0  0  0  0  0  0  0  0  0  0  0  0
   36.4830   21.5680   33.1180 S   0  0  0  0  0  0  0  0  0  0  0  0
   42.6530   20.6710   37.1200 C   0  0  0  0  0  0  0  0  0  0  0  0
   41.5610   21.3870   37.6360 C   0  0  0  0  0  0  0  0  0  0  0  0
   40.7390   22.0230   36.7240 C   0  0  0  0  0  0  0  0  0  0  0  0
   41.0270   21.9230   35.3750 N   0  0  0  0  0  0  0  0  0  0  0  0
   42.0970   21.2150   34.9400 C   0  0  0  0  0  0  0  0  0  0  0  0
   42.9020   20.5950   35.8080 N   0  0  0  0  0  0  0  0  0  0  0  0
   37.3871   23.7054   39.3341 H   0  0  0  0  0  0  0  0  0  0  0  0
   39.3492   22.0878   39.2242 H   0  0  0  0  0  0  0  0  0  0  0  0
   40.5173   25.5971   35.8154 H   0  0  0  0  0  0  0  0  0  0  0  0
   41.0171   26.4775   33.5603 H   0  0  0  0  0  0  0  0  0  0  0  0
   39.8913   25.5339   31.5467 H   0  0  0  0  0  0  0  0  0  0  0  0
   38.2556   23.6825   31.8625 H   0  0  0  0  0  0  0  0  0  0  0  0
   37.7130   22.3877   36.4090 H   0  0  0  0  0  0  0  0  0  0  0  0
   36.0317   20.5185   36.5184 H   0  0  0  0  0  0  0  0  0  0  0  0
   34.9882   19.7524   34.1894 H   0  0  0  0  0  0  0  0  0  0  0  0
   43.3272   20.1546   37.8191 H   0  0  0  0  0  0  0  0  0  0  0  0
   41.3680   21.4396   38.7177 H   0  0  0  0  0  0  0  0  0  0  0  0
   42.3052   21.1499   33.8618 H   0  0  0  0  0  0  0  0  0  0  0  0
  1  5  1  0
  2  1  2  0
  2  3  1  0
  3  4  2  0
  5  4  1  0
  6  2  1  0
  7  6  2  0
  8  7  1  0
  9 10  1  0
  9  8  2  0
 10 11  2  0
 11 12  1  0
 11  6  1  0
 12 13  2  0
 13 14  1  0
 15 14  2  0
 16 12  1  0
 16 15  1  0
 17 18  2  0
 19  1  1  0
 19 18  1  0
 20 19  2  0
 21 20  1  0
 21 22  2  0
 22 17  1  0
  4 23  1  0
  5 24  1  0
  7 25  1  0
  8 26  1  0
  9 27  1  0
 10 28  1  0
 13 29  1  0
 14 30  1  0
 15 31  1  0
 17 32  1  0
 18 33  1  0
 21 34  1  0
M  ISO  8  23  14  24   9  25  14  26  14  27  14  28  14  29  14  30  14
M  ISO  4  31  14  32  14  33  14  34  14
M  END
>  <minimizedAffinity>  (1) 
-5.32601881

>  <minimizedRMSD>  (1) 
0.498531669

$$$$
