
     RDKit          3D

 28 30  0  0  0  0  0  0  0  0999 V2000
   39.4820   22.8710   37.2960 C   0  0  0  0  0  0  0  0  0  0  0  0
   38.6760   23.7370   36.5770 C   0  0  0  0  0  0  0  0  0  0  0  0
   37.7310   24.1530   37.4670 N   0  0  0  0  0  0  0  0  0  0  0  0
   37.9820   23.5520   38.6450 C   0  0  0  0  0  0  0  0  0  0  0  0
   39.0340   22.7710   38.5750 N   0  0  0  0  0  0  0  0  0  0  0  0
   38.7650   24.1500   35.1920 C   0  0  0  0  0  0  0  0  0  0  0  0
   39.4480   25.3420   34.9810 C   0  0  0  0  0  0  0  0  0  0  0  0
   39.5860   25.8200   33.6880 C   0  0  0  0  0  0  0  0  0  0  0  0
   39.0620   25.1410   32.6040 C   0  0  0  0  0  0  0  0  0  0  0  0
   38.3900   23.9610   32.8530 C   0  0  0  0  0  0  0  0  0  0  0  0
   38.2340   23.4550   34.1290 C   0  0  0  0  0  0  0  0  0  0  0  0
   37.3720   21.9380   34.4540 S   0  0  0  0  0  0  0  0  0  0  0  0
   42.5850   20.8230   37.0130 C   0  0  0  0  0  0  0  0  0  0  0  0
   41.4910   21.4740   37.6000 C   0  0  0  0  0  0  0  0  0  0  0  0
   40.6440   22.1690   36.7520 C   0  0  0  0  0  0  0  0  0  0  0  0
   40.9140   22.1870   35.3860 N   0  0  0  0  0  0  0  0  0  0  0  0
   41.9990   21.5280   34.8950 C   0  0  0  0  0  0  0  0  0  0  0  0
   42.8270   20.8530   35.6930 N   0  0  0  0  0  0  0  0  0  0  0  0
   37.3797   23.6976   39.5539 H   0  0  0  0  0  0  0  0  0  0  0  0
   39.4366   22.2006   39.3322 H   0  0  0  0  0  0  0  0  0  0  0  0
   39.8733   25.8984   35.8293 H   0  0  0  0  0  0  0  0  0  0  0  0
   40.1261   26.7634   33.5198 H   0  0  0  0  0  0  0  0  0  0  0  0
   39.1763   25.5268   31.5802 H   0  0  0  0  0  0  0  0  0  0  0  0
   37.9638   23.4041   32.0055 H   0  0  0  0  0  0  0  0  0  0  0  0
   37.2671   21.7533   35.8074 H   0  0  0  0  0  0  0  0  0  0  0  0
   43.2748   20.2635   37.6620 H   0  0  0  0  0  0  0  0  0  0  0  0
   41.3131   21.4348   38.6848 H   0  0  0  0  0  0  0  0  0  0  0  0
   42.1977   21.5529   33.8134 H   0  0  0  0  0  0  0  0  0  0  0  0
  1  5  1  0
  2  1  2  0
  2  3  1  0
  3  4  2  0
  5  4  1  0
  6  2  1  0
  7  6  2  0
  8  7  1  0
  9 10  1  0
  9  8  2  0
 10 11  2  0
 11 12  1  0
 11  6  1  0
 13 14  2  0
 15  1  1  0
 15 14  1  0
 16 15  2  0
 17 16  1  0
 17 18  2  0
 18 13  1  0
  4 19  1  0
  5 20  1  0
  7 21  1  0
  8 22  1  0
  9 23  1  0
 10 24  1  0
 12 25  1  0
 13 26  1  0
 14 27  1  0
 17 28  1  0
M  ISO  8  19  14  20   9  21  14  22  14  23  14  24  14  25  11  26  14
M  ISO  2  27  14  28  14
M  END
>  <minimizedAffinity>  (1) 
-4.81815004

>  <minimizedRMSD>  (1) 
0.12898542

$$$$
