
     RDKit          3D

 28 30  0  0  0  0  0  0  0  0999 V2000
   39.4320   22.8940   37.3050 C   0  0  0  0  0  0  0  0  0  0  0  0
   38.6150   23.7730   36.6310 C   0  0  0  0  0  0  0  0  0  0  0  0
   37.7020   24.1850   37.5490 N   0  0  0  0  0  0  0  0  0  0  0  0
   37.9690   23.5770   38.7140 C   0  0  0  0  0  0  0  0  0  0  0  0
   39.0220   22.7800   38.6010 N   0  0  0  0  0  0  0  0  0  0  0  0
   38.6680   24.2030   35.2400 C   0  0  0  0  0  0  0  0  0  0  0  0
   39.2780   25.4230   35.0290 C   0  0  0  0  0  0  0  0  0  0  0  0
   39.3790   25.9200   33.7390 C   0  0  0  0  0  0  0  0  0  0  0  0
   38.8840   25.2300   32.6510 C   0  0  0  0  0  0  0  0  0  0  0  0
   38.2770   24.0070   32.9100 C   0  0  0  0  0  0  0  0  0  0  0  0
   38.1540   23.4700   34.1830 C   0  0  0  0  0  0  0  0  0  0  0  0
   37.5630   22.2700   34.4670 O   0  0  0  0  0  0  0  0  0  0  0  0
   42.5610   20.9110   36.9310 C   0  0  0  0  0  0  0  0  0  0  0  0
   41.4930   21.5680   37.5570 C   0  0  0  0  0  0  0  0  0  0  0  0
   40.5760   22.1880   36.7120 C   0  0  0  0  0  0  0  0  0  0  0  0
   40.7510   22.1340   35.3410 N   0  0  0  0  0  0  0  0  0  0  0  0
   41.8130   21.4760   34.8230 C   0  0  0  0  0  0  0  0  0  0  0  0
   42.7060   20.8730   35.5980 N   0  0  0  0  0  0  0  0  0  0  0  0
   37.3916   23.7204   39.6392 H   0  0  0  0  0  0  0  0  0  0  0  0
   39.4429   22.1964   39.3380 H   0  0  0  0  0  0  0  0  0  0  0  0
   39.6806   25.9960   35.8773 H   0  0  0  0  0  0  0  0  0  0  0  0
   39.8677   26.8922   33.5778 H   0  0  0  0  0  0  0  0  0  0  0  0
   38.9659   25.6286   31.6290 H   0  0  0  0  0  0  0  0  0  0  0  0
   37.8732   23.4352   32.0615 H   0  0  0  0  0  0  0  0  0  0  0  0
   37.5128   21.9522   35.4033 H   0  0  0  0  0  0  0  0  0  0  0  0
   43.3106   20.4061   37.5581 H   0  0  0  0  0  0  0  0  0  0  0  0
   41.3854   21.5925   38.6515 H   0  0  0  0  0  0  0  0  0  0  0  0
   41.9400   21.4396   33.7310 H   0  0  0  0  0  0  0  0  0  0  0  0
  1  5  1  0
  2  1  2  0
  2  3  1  0
  3  4  2  0
  5  4  1  0
  6  2  1  0
  7  6  2  0
  8  7  1  0
  9 10  1  0
  9  8  2  0
 10 11  2  0
 11 12  1  0
 11  6  1  0
 13 14  2  0
 15  1  1  0
 15 14  1  0
 16 15  2  0
 17 16  1  0
 17 18  2  0
 18 13  1  0
  4 19  1  0
  5 20  1  0
  7 21  1  0
  8 22  1  0
  9 23  1  0
 10 24  1  0
 12 25  1  0
 13 26  1  0
 14 27  1  0
 17 28  1  0
M  ISO  8  19  14  20   9  21  14  22  14  23  14  24  14  25   3  26  14
M  ISO  2  27  14  28  14
M  END
>  <minimizedAffinity>  (1) 
-4.89126873

>  <minimizedRMSD>  (1) 
0.106594928

$$$$
