
     RDKit          3D

 53 56  0  0  0  0  0  0  0  0999 V2000
   38.1460   23.3740   35.1980 C   0  0  0  0  0  0  0  0  0  0  0  0
   37.7120   22.1880   34.6850 C   0  0  0  0  0  0  0  0  0  0  0  0
   37.4480   22.0130   33.3460 C   0  0  0  0  0  0  0  0  0  0  0  0
   37.6250   23.0750   32.4800 C   0  0  0  0  0  0  0  0  0  0  0  0
   38.0630   24.2620   33.0250 C   0  0  0  0  0  0  0  0  0  0  0  0
   38.3480   24.4940   34.3830 C   0  0  0  0  0  0  0  0  0  0  0  0
   39.4390   22.8650   37.3560 C   0  0  0  0  0  0  0  0  0  0  0  0
   38.3650   23.3480   36.6300 C   0  0  0  0  0  0  0  0  0  0  0  0
   37.5010   23.8210   37.5540 N   0  0  0  0  0  0  0  0  0  0  0  0
   38.0410   23.6280   38.7710 C   0  0  0  0  0  0  0  0  0  0  0  0
   39.2210   23.0470   38.6820 N   0  0  0  0  0  0  0  0  0  0  0  0
   42.5410   20.8550   36.9360 C   0  0  0  0  0  0  0  0  0  0  0  0
   41.4170   21.4180   37.5390 C   0  0  0  0  0  0  0  0  0  0  0  0
   40.6240   22.2530   36.7680 C   0  0  0  0  0  0  0  0  0  0  0  0
   40.9920   22.4790   35.4540 N   0  0  0  0  0  0  0  0  0  0  0  0
   42.0870   21.9090   34.9260 C   0  0  0  0  0  0  0  0  0  0  0  0
   42.8560   21.1040   35.6590 N   0  0  0  0  0  0  0  0  0  0  0  0
   42.4760   22.1280   33.5760 N   0  0  0  0  0  0  0  0  0  0  0  0
   42.7530   23.4490   33.0470 C   0  0  0  0  0  0  0  0  0  0  0  0
   41.5900   23.7780   32.1150 C   0  0  0  0  0  0  0  0  0  0  0  0
   41.1590   22.6260   31.3810 N   0  0  0  0  0  0  0  0  0  0  0  0
   42.2070   21.6310   31.2120 C   0  0  0  0  0  0  0  0  0  0  0  0
   42.6500   21.1040   32.5660 C   0  0  0  0  0  0  0  0  0  0  0  0
   38.8050   25.7390   34.9200 C   0  0  0  0  0  0  0  0  0  0  0  0
   38.5480   26.7450   33.7610 C   0  0  0  0  0  0  0  0  0  0  0  0
   38.2810   26.3880   36.1010 C   0  0  0  0  0  0  0  0  0  0  0  0
   40.3260   25.6900   35.0330 C   0  0  0  0  0  0  0  0  0  0  0  0
   37.5672   21.3379   35.3679 H   0  0  0  0  0  0  0  0  0  0  0  0
   37.1003   21.0396   32.9696 H   0  0  0  0  0  0  0  0  0  0  0  0
   37.4250   22.9770   31.4028 H   0  0  0  0  0  0  0  0  0  0  0  0
   38.2029   25.1067   32.3344 H   0  0  0  0  0  0  0  0  0  0  0  0
   37.5604   23.9173   39.7172 H   0  0  0  0  0  0  0  0  0  0  0  0
   39.8466   22.7859   39.4575 H   0  0  0  0  0  0  0  0  0  0  0  0
   43.1867   20.1878   37.5259 H   0  0  0  0  0  0  0  0  0  0  0  0
   41.1685   21.2069   38.5895 H   0  0  0  0  0  0  0  0  0  0  0  0
   42.8091   24.1842   33.8633 H   0  0  0  0  0  0  0  0  0  0  0  0
   43.7164   23.4782   32.5169 H   0  0  0  0  0  0  0  0  0  0  0  0
   40.7481   24.1547   32.7144 H   0  0  0  0  0  0  0  0  0  0  0  0
   41.9308   24.5365   31.3949 H   0  0  0  0  0  0  0  0  0  0  0  0
   40.3729   22.1915   31.8851 H   0  0  0  0  0  0  0  0  0  0  0  0
   41.8230   20.7977   30.6052 H   0  0  0  0  0  0  0  0  0  0  0  0
   43.0670   22.0961   30.7079 H   0  0  0  0  0  0  0  0  0  0  0  0
   42.0447   20.2244   32.8306 H   0  0  0  0  0  0  0  0  0  0  0  0
   43.7124   20.8233   32.5149 H   0  0  0  0  0  0  0  0  0  0  0  0
   38.2962   27.7305   34.1799 H   0  0  0  0  0  0  0  0  0  0  0  0
   39.4532   26.8302   33.1419 H   0  0  0  0  0  0  0  0  0  0  0  0
   37.7128   26.3855   33.1419 H   0  0  0  0  0  0  0  0  0  0  0  0
   38.6803   25.8935   36.9988 H   0  0  0  0  0  0  0  0  0  0  0  0
   38.5808   27.4463   36.1013 H   0  0  0  0  0  0  0  0  0  0  0  0
   37.1832   26.3179   36.1013 H   0  0  0  0  0  0  0  0  0  0  0  0
   40.6147   25.6807   36.0944 H   0  0  0  0  0  0  0  0  0  0  0  0
   40.7009   24.7793   34.5430 H   0  0  0  0  0  0  0  0  0  0  0  0
   40.7588   26.5747   34.5430 H   0  0  0  0  0  0  0  0  0  0  0  0
  1  8  1  0
  2  1  2  0
  3  2  1  0
  4  5  1  0
  4  3  2  0
  5  6  2  0
  6 24  1  0
  6  1  1  0
  7 11  1  0
  8  7  2  0
  8  9  1  0
  9 10  2  0
 11 10  1  0
 12 13  2  0
 14  7  1  0
 14 13  1  0
 15 14  2  0
 16 15  1  0
 16 17  2  0
 17 12  1  0
 18 16  1  0
 19 18  1  0
 20 19  1  0
 21 20  1  0
 22 21  1  0
 22 23  1  0
 23 18  1  0
 24 27  1  0
 24 26  1  0
 25 24  1  0
  2 28  1  0
  3 29  1  0
  4 30  1  0
  5 31  1  0
 10 32  1  0
 11 33  1  0
 12 34  1  0
 13 35  1  0
 19 36  1  0
 19 37  1  0
 20 38  1  0
 20 39  1  0
 21 40  1  0
 22 41  1  0
 22 42  1  0
 23 43  1  0
 23 44  1  0
 25 45  1  0
 25 46  1  0
 25 47  1  0
 26 48  1  0
 26 49  1  0
 26 50  1  0
 27 51  1  0
 27 52  1  0
 27 53  1  0
M  ISO  8  28  14  29  14  30  14  31  14  32  14  33   9  34  14  35  14
M  ISO  8  36  13  37  13  38  13  39  13  40   5  41  13  42  13  43  13
M  ISO  8  44  13  45   8  46   8  47   8  48   8  49   8  50   8  51   8
M  ISO  2  52   8  53   8
M  END
>  <minimizedAffinity>  (1) 
-5.76748943

>  <minimizedRMSD>  (1) 
0.502217531

$$$$
