
     RDKit          3D

 45 48  0  0  0  0  0  0  0  0999 V2000
   38.0820   23.2080   35.2440 C   0  0  0  0  0  0  0  0  0  0  0  0
   37.5890   22.0160   34.7770 C   0  0  0  0  0  0  0  0  0  0  0  0
   37.2300   21.8360   33.4630 C   0  0  0  0  0  0  0  0  0  0  0  0
   37.3660   22.8840   32.5730 C   0  0  0  0  0  0  0  0  0  0  0  0
   37.8610   24.0630   33.0730 C   0  0  0  0  0  0  0  0  0  0  0  0
   38.2460   24.3120   34.4030 C   0  0  0  0  0  0  0  0  0  0  0  0
   39.5140   22.7050   37.3090 C   0  0  0  0  0  0  0  0  0  0  0  0
   38.4020   23.1950   36.6620 C   0  0  0  0  0  0  0  0  0  0  0  0
   37.6130   23.6880   37.6330 N   0  0  0  0  0  0  0  0  0  0  0  0
   38.2170   23.5080   38.8140 C   0  0  0  0  0  0  0  0  0  0  0  0
   39.3870   22.9070   38.6510 N   0  0  0  0  0  0  0  0  0  0  0  0
   42.6720   20.8210   36.7330 C   0  0  0  0  0  0  0  0  0  0  0  0
   41.6050   21.4140   37.4080 C   0  0  0  0  0  0  0  0  0  0  0  0
   40.6460   22.0730   36.6440 C   0  0  0  0  0  0  0  0  0  0  0  0
   40.8070   22.0990   35.2710 N   0  0  0  0  0  0  0  0  0  0  0  0
   41.8560   21.5100   34.6750 C   0  0  0  0  0  0  0  0  0  0  0  0
   42.7830   20.8760   35.3960 N   0  0  0  0  0  0  0  0  0  0  0  0
   41.9850   21.5600   33.2580 N   0  0  0  0  0  0  0  0  0  0  0  0
   41.2290   20.7320   32.5050 C   0  0  0  0  0  0  0  0  0  0  0  0
   41.5070   20.9420   31.1860 N   0  0  0  0  0  0  0  0  0  0  0  0
   42.4540   21.9220   31.1500 C   0  0  0  0  0  0  0  0  0  0  0  0
   42.7330   22.2870   32.4180 N   0  0  0  0  0  0  0  0  0  0  0  0
   38.7610   25.5570   34.8870 C   0  0  0  0  0  0  0  0  0  0  0  0
   38.5030   26.5340   33.7080 C   0  0  0  0  0  0  0  0  0  0  0  0
   38.3070   26.2560   36.0670 C   0  0  0  0  0  0  0  0  0  0  0  0
   40.2790   25.4540   34.9660 C   0  0  0  0  0  0  0  0  0  0  0  0
   37.4773   21.1759   35.4782 H   0  0  0  0  0  0  0  0  0  0  0  0
   36.8378   20.8663   33.1227 H   0  0  0  0  0  0  0  0  0  0  0  0
   37.0905   22.7787   31.5133 H   0  0  0  0  0  0  0  0  0  0  0  0
   37.9672   24.8962   32.3627 H   0  0  0  0  0  0  0  0  0  0  0  0
   37.8004   23.8159   39.7844 H   0  0  0  0  0  0  0  0  0  0  0  0
   40.0603   22.6467   39.3857 H   0  0  0  0  0  0  0  0  0  0  0  0
   43.4441   20.2935   37.3123 H   0  0  0  0  0  0  0  0  0  0  0  0
   41.5244   21.3627   38.5038 H   0  0  0  0  0  0  0  0  0  0  0  0
   40.5031   20.0028   32.8941 H   0  0  0  0  0  0  0  0  0  0  0  0
   42.9119   22.3428   30.2426 H   0  0  0  0  0  0  0  0  0  0  0  0
   38.2410   27.5260   34.1045 H   0  0  0  0  0  0  0  0  0  0  0  0
   39.4110   26.6133   33.0921 H   0  0  0  0  0  0  0  0  0  0  0  0
   37.6742   26.1547   33.0921 H   0  0  0  0  0  0  0  0  0  0  0  0
   38.6532   25.7230   36.9648 H   0  0  0  0  0  0  0  0  0  0  0  0
   38.7143   27.2778   36.0673 H   0  0  0  0  0  0  0  0  0  0  0  0
   37.2079   26.2994   36.0673 H   0  0  0  0  0  0  0  0  0  0  0  0
   40.5907   25.4329   36.0207 H   0  0  0  0  0  0  0  0  0  0  0  0
   40.6104   24.5313   34.4672 H   0  0  0  0  0  0  0  0  0  0  0  0
   40.7320   26.3235   34.4672 H   0  0  0  0  0  0  0  0  0  0  0  0
  1  8  1  0
  2  1  2  0
  3  2  1  0
  4  5  1  0
  4  3  2  0
  5  6  2  0
  6 23  1  0
  6  1  1  0
  7 11  1  0
  8  7  2  0
  8  9  1  0
  9 10  2  0
 11 10  1  0
 12 13  2  0
 14  7  1  0
 14 13  1  0
 15 14  2  0
 16 15  1  0
 16 17  2  0
 17 12  1  0
 18 16  1  0
 19 18  1  0
 20 19  2  0
 21 20  1  0
 21 22  2  0
 22 18  1  0
 23 26  1  0
 23 25  1  0
 24 23  1  0
  2 27  1  0
  3 28  1  0
  4 29  1  0
  5 30  1  0
 10 31  1  0
 11 32  1  0
 12 33  1  0
 13 34  1  0
 19 35  1  0
 21 36  1  0
 24 37  1  0
 24 38  1  0
 24 39  1  0
 25 40  1  0
 25 41  1  0
 25 42  1  0
 26 43  1  0
 26 44  1  0
 26 45  1  0
M  ISO  8  27  14  28  14  29  14  30  14  31  14  32   9  33  14  34  14
M  ISO  8  35  14  36  14  37   8  38   8  39   8  40   8  41   8  42   8
M  ISO  3  43   8  44   8  45   8
M  END
>  <minimizedAffinity>  (1) 
-5.69341135

>  <minimizedRMSD>  (1) 
0.0914953873

$$$$
