
     RDKit          3D

 45 48  0  0  0  0  0  0  0  0999 V2000
   38.1180   23.3570   35.1900 C   0  0  0  0  0  0  0  0  0  0  0  0
   37.6390   22.1910   34.6820 C   0  0  0  0  0  0  0  0  0  0  0  0
   37.3590   22.0270   33.3450 C   0  0  0  0  0  0  0  0  0  0  0  0
   37.5670   23.0790   32.4750 C   0  0  0  0  0  0  0  0  0  0  0  0
   38.0510   24.2470   33.0120 C   0  0  0  0  0  0  0  0  0  0  0  0
   38.3600   24.4750   34.3800 C   0  0  0  0  0  0  0  0  0  0  0  0
   39.4150   22.8170   37.3410 C   0  0  0  0  0  0  0  0  0  0  0  0
   38.3490   23.3310   36.6180 C   0  0  0  0  0  0  0  0  0  0  0  0
   37.5120   23.8380   37.5490 N   0  0  0  0  0  0  0  0  0  0  0  0
   38.0470   23.6380   38.7620 C   0  0  0  0  0  0  0  0  0  0  0  0
   39.2120   23.0150   38.6670 N   0  0  0  0  0  0  0  0  0  0  0  0
   42.5710   20.8880   36.9440 C   0  0  0  0  0  0  0  0  0  0  0  0
   41.4810   21.5030   37.5520 C   0  0  0  0  0  0  0  0  0  0  0  0
   40.5650   22.1650   36.7330 C   0  0  0  0  0  0  0  0  0  0  0  0
   40.7980   22.1710   35.3700 N   0  0  0  0  0  0  0  0  0  0  0  0
   41.8660   21.5620   34.8400 C   0  0  0  0  0  0  0  0  0  0  0  0
   42.7530   20.9230   35.6080 N   0  0  0  0  0  0  0  0  0  0  0  0
   42.0620   21.6020   33.3730 C   0  0  0  0  0  0  0  0  0  0  0  0
   43.2150   21.1680   32.7810 C   0  0  0  0  0  0  0  0  0  0  0  0
   42.8840   21.4540   30.9830 S   0  0  0  0  0  0  0  0  0  0  0  0
   41.1580   22.1430   31.4070 C   0  0  0  0  0  0  0  0  0  0  0  0
   41.1420   22.0560   32.5360 N   0  0  0  0  0  0  0  0  0  0  0  0
   38.8650   25.7130   34.8910 C   0  0  0  0  0  0  0  0  0  0  0  0
   38.6550   26.7120   33.7350 C   0  0  0  0  0  0  0  0  0  0  0  0
   38.3640   26.3790   36.0720 C   0  0  0  0  0  0  0  0  0  0  0  0
   40.3800   25.5920   35.0300 C   0  0  0  0  0  0  0  0  0  0  0  0
   37.4687   21.3463   35.3658 H   0  0  0  0  0  0  0  0  0  0  0  0
   36.9730   21.0667   32.9725 H   0  0  0  0  0  0  0  0  0  0  0  0
   37.3545   22.9858   31.3997 H   0  0  0  0  0  0  0  0  0  0  0  0
   38.2147   25.0844   32.3178 H   0  0  0  0  0  0  0  0  0  0  0  0
   37.5812   23.9494   39.7086 H   0  0  0  0  0  0  0  0  0  0  0  0
   39.8344   22.7384   39.4397 H   0  0  0  0  0  0  0  0  0  0  0  0
   43.3044   20.3587   37.5701 H   0  0  0  0  0  0  0  0  0  0  0  0
   41.3455   21.4686   38.6431 H   0  0  0  0  0  0  0  0  0  0  0  0
   44.1160   20.7520   33.2556 H   0  0  0  0  0  0  0  0  0  0  0  0
   40.3796   22.5258   30.7306 H   0  0  0  0  0  0  0  0  0  0  0  0
   38.4452   27.7103   34.1466 H   0  0  0  0  0  0  0  0  0  0  0  0
   39.5640   26.7539   33.1169 H   0  0  0  0  0  0  0  0  0  0  0  0
   37.8061   26.3844   33.1169 H   0  0  0  0  0  0  0  0  0  0  0  0
   38.7463   25.8708   36.9695 H   0  0  0  0  0  0  0  0  0  0  0  0
   38.7000   27.4264   36.0726 H   0  0  0  0  0  0  0  0  0  0  0  0
   37.2645   26.3466   36.0726 H   0  0  0  0  0  0  0  0  0  0  0  0
   40.6498   25.5704   36.0962 H   0  0  0  0  0  0  0  0  0  0  0  0
   40.7196   24.6639   34.5470 H   0  0  0  0  0  0  0  0  0  0  0  0
   40.8626   26.4545   34.5470 H   0  0  0  0  0  0  0  0  0  0  0  0
  1  8  1  0
  2  1  2  0
  3  2  1  0
  4  5  1  0
  4  3  2  0
  5  6  2  0
  6 23  1  0
  6  1  1  0
  7 11  1  0
  8  7  2  0
  8  9  1  0
  9 10  2  0
 11 10  1  0
 12 13  2  0
 14  7  1  0
 14 13  1  0
 15 14  2  0
 16 15  1  0
 16 17  2  0
 17 12  1  0
 18 16  1  0
 19 18  2  0
 20 21  1  0
 20 19  1  0
 21 22  2  0
 22 18  1  0
 23 26  1  0
 23 25  1  0
 24 23  1  0
  2 27  1  0
  3 28  1  0
  4 29  1  0
  5 30  1  0
 10 31  1  0
 11 32  1  0
 12 33  1  0
 13 34  1  0
 19 35  1  0
 21 36  1  0
 24 37  1  0
 24 38  1  0
 24 39  1  0
 25 40  1  0
 25 41  1  0
 25 42  1  0
 26 43  1  0
 26 44  1  0
 26 45  1  0
M  ISO  8  27  14  28  14  29  14  30  14  31  14  32   9  33  14  34  14
M  ISO  8  35  14  36  14  37   8  38   8  39   8  40   8  41   8  42   8
M  ISO  3  43   8  44   8  45   8
M  END
>  <minimizedAffinity>  (1) 
-5.44794321

>  <minimizedRMSD>  (1) 
0.603199601

$$$$
