
     RDKit          3D

 49 52  0  0  0  0  0  0  0  0999 V2000
   39.4020   22.8270   37.3440 C   0  0  0  0  0  0  0  0  0  0  0  0
   38.3470   23.3390   36.6250 C   0  0  0  0  0  0  0  0  0  0  0  0
   37.5010   23.8430   37.5490 N   0  0  0  0  0  0  0  0  0  0  0  0
   38.0330   23.6370   38.7640 C   0  0  0  0  0  0  0  0  0  0  0  0
   39.1930   23.0200   38.6720 N   0  0  0  0  0  0  0  0  0  0  0  0
   38.1210   23.3700   35.1960 C   0  0  0  0  0  0  0  0  0  0  0  0
   37.6310   22.1880   34.6920 C   0  0  0  0  0  0  0  0  0  0  0  0
   37.3500   22.0200   33.3560 C   0  0  0  0  0  0  0  0  0  0  0  0
   37.5670   23.0740   32.4800 C   0  0  0  0  0  0  0  0  0  0  0  0
   38.0580   24.2330   33.0220 C   0  0  0  0  0  0  0  0  0  0  0  0
   38.3630   24.4690   34.3690 C   0  0  0  0  0  0  0  0  0  0  0  0
   38.8770   25.6970   34.8950 C   0  0  0  0  0  0  0  0  0  0  0  0
   38.6610   26.7070   33.7320 C   0  0  0  0  0  0  0  0  0  0  0  0
   38.3910   26.3770   36.0770 C   0  0  0  0  0  0  0  0  0  0  0  0
   40.3920   25.5850   35.0070 C   0  0  0  0  0  0  0  0  0  0  0  0
   42.5610   20.9000   36.9820 C   0  0  0  0  0  0  0  0  0  0  0  0
   41.4620   21.5080   37.5880 C   0  0  0  0  0  0  0  0  0  0  0  0
   40.5690   22.1760   36.7540 C   0  0  0  0  0  0  0  0  0  0  0  0
   40.8130   22.2000   35.4000 N   0  0  0  0  0  0  0  0  0  0  0  0
   41.8880   21.5980   34.8650 C   0  0  0  0  0  0  0  0  0  0  0  0
   42.7610   20.9490   35.6580 N   0  0  0  0  0  0  0  0  0  0  0  0
   42.1600   21.6180   33.4320 C   0  0  0  0  0  0  0  0  0  0  0  0
   43.2950   21.0580   32.8840 C   0  0  0  0  0  0  0  0  0  0  0  0
   43.6100   21.0420   31.5420 C   0  0  0  0  0  0  0  0  0  0  0  0
   42.6870   21.6510   30.6860 C   0  0  0  0  0  0  0  0  0  0  0  0
   41.5290   22.2280   31.1870 C   0  0  0  0  0  0  0  0  0  0  0  0
   41.2660   22.2130   32.5420 C   0  0  0  0  0  0  0  0  0  0  0  0
   37.5629   23.9427   39.7103 H   0  0  0  0  0  0  0  0  0  0  0  0
   39.8128   22.7417   39.4462 H   0  0  0  0  0  0  0  0  0  0  0  0
   37.4578   21.3481   35.3809 H   0  0  0  0  0  0  0  0  0  0  0  0
   36.9578   21.0611   32.9863 H   0  0  0  0  0  0  0  0  0  0  0  0
   37.3555   22.9838   31.4043 H   0  0  0  0  0  0  0  0  0  0  0  0
   38.2310   25.0666   32.3255 H   0  0  0  0  0  0  0  0  0  0  0  0
   38.4479   27.7034   34.1465 H   0  0  0  0  0  0  0  0  0  0  0  0
   39.5695   26.7538   33.1135 H   0  0  0  0  0  0  0  0  0  0  0  0
   37.8129   26.3781   33.1135 H   0  0  0  0  0  0  0  0  0  0  0  0
   38.7603   25.8603   36.9752 H   0  0  0  0  0  0  0  0  0  0  0  0
   38.7524   27.4159   36.0770 H   0  0  0  0  0  0  0  0  0  0  0  0
   37.2910   26.3714   36.0770 H   0  0  0  0  0  0  0  0  0  0  0  0
   40.6806   25.5637   36.0682 H   0  0  0  0  0  0  0  0  0  0  0  0
   40.7285   24.6595   34.5168 H   0  0  0  0  0  0  0  0  0  0  0  0
   40.8609   26.4509   34.5168 H   0  0  0  0  0  0  0  0  0  0  0  0
   43.2866   20.3632   37.6108 H   0  0  0  0  0  0  0  0  0  0  0  0
   41.3074   21.4620   38.6761 H   0  0  0  0  0  0  0  0  0  0  0  0
   44.0081   20.5849   33.5751 H   0  0  0  0  0  0  0  0  0  0  0  0
   44.5336   20.5773   31.1664 H   0  0  0  0  0  0  0  0  0  0  0  0
   42.8812   21.6728   29.6035 H   0  0  0  0  0  0  0  0  0  0  0  0
   40.8140   22.7017   30.4982 H   0  0  0  0  0  0  0  0  0  0  0  0
   40.3431   22.6744   32.9233 H   0  0  0  0  0  0  0  0  0  0  0  0
  1  5  1  0
  2  1  2  0
  2  3  1  0
  3  4  2  0
  5  4  1  0
  6  2  1  0
  7  6  2  0
  8  7  1  0
  9 10  1  0
  9  8  2  0
 10 11  2  0
 11 12  1  0
 11  6  1  0
 12 15  1  0
 12 14  1  0
 13 12  1  0
 16 17  2  0
 18  1  1  0
 18 17  1  0
 19 18  2  0
 20 19  1  0
 20 21  2  0
 21 16  1  0
 22 20  1  0
 23 22  2  0
 24 23  1  0
 25 26  1  0
 25 24  2  0
 26 27  2  0
 27 22  1  0
  4 28  1  0
  5 29  1  0
  7 30  1  0
  8 31  1  0
  9 32  1  0
 10 33  1  0
 13 34  1  0
 13 35  1  0
 13 36  1  0
 14 37  1  0
 14 38  1  0
 14 39  1  0
 15 40  1  0
 15 41  1  0
 15 42  1  0
 16 43  1  0
 17 44  1  0
 23 45  1  0
 24 46  1  0
 25 47  1  0
 26 48  1  0
 27 49  1  0
M  ISO  8  28  14  29   9  30  14  31  14  32  14  33  14  34   8  35   8
M  ISO  8  36   8  37   8  38   8  39   8  40   8  41   8  42   8  43  14
M  ISO  6  44  14  45  14  46  14  47  14  48  14  49  14
M  END
>  <minimizedAffinity>  (1) 
-5.44874668

>  <minimizedRMSD>  (1) 
0.444067329

$$$$
