
     RDKit          3D

 42 44  0  0  0  0  0  0  0  0999 V2000
   38.1000   23.2140   35.2320 C   0  0  0  0  0  0  0  0  0  0  0  0
   37.6150   22.0360   34.7620 C   0  0  0  0  0  0  0  0  0  0  0  0
   37.2720   21.8580   33.4430 C   0  0  0  0  0  0  0  0  0  0  0  0
   37.4200   22.9000   32.5480 C   0  0  0  0  0  0  0  0  0  0  0  0
   37.9140   24.0790   33.0570 C   0  0  0  0  0  0  0  0  0  0  0  0
   38.2830   24.3210   34.4020 C   0  0  0  0  0  0  0  0  0  0  0  0
   39.5000   22.7100   37.3100 C   0  0  0  0  0  0  0  0  0  0  0  0
   38.4020   23.1990   36.6540 C   0  0  0  0  0  0  0  0  0  0  0  0
   37.6040   23.6920   37.6260 N   0  0  0  0  0  0  0  0  0  0  0  0
   38.2090   23.5020   38.8100 C   0  0  0  0  0  0  0  0  0  0  0  0
   39.3680   22.9050   38.6520 N   0  0  0  0  0  0  0  0  0  0  0  0
   42.6790   20.8340   36.7670 C   0  0  0  0  0  0  0  0  0  0  0  0
   41.5980   21.4190   37.4320 C   0  0  0  0  0  0  0  0  0  0  0  0
   40.6490   22.0760   36.6710 C   0  0  0  0  0  0  0  0  0  0  0  0
   40.8280   22.1140   35.2910 N   0  0  0  0  0  0  0  0  0  0  0  0
   41.8830   21.5360   34.7080 C   0  0  0  0  0  0  0  0  0  0  0  0
   42.8030   20.9000   35.4330 N   0  0  0  0  0  0  0  0  0  0  0  0
   42.0320   21.6030   33.2220 C   0  0  0  0  0  0  0  0  0  0  0  0
   38.7980   25.5640   34.8850 C   0  0  0  0  0  0  0  0  0  0  0  0
   38.5560   26.5460   33.7130 C   0  0  0  0  0  0  0  0  0  0  0  0
   38.3170   26.2580   36.0660 C   0  0  0  0  0  0  0  0  0  0  0  0
   40.3190   25.4560   34.9800 C   0  0  0  0  0  0  0  0  0  0  0  0
   37.4924   21.1954   35.4608 H   0  0  0  0  0  0  0  0  0  0  0  0
   36.8807   20.8885   33.1009 H   0  0  0  0  0  0  0  0  0  0  0  0
   37.1570   22.7928   31.4853 H   0  0  0  0  0  0  0  0  0  0  0  0
   38.0337   24.9138   32.3508 H   0  0  0  0  0  0  0  0  0  0  0  0
   37.7903   23.8055   39.7809 H   0  0  0  0  0  0  0  0  0  0  0  0
   40.0373   22.6397   39.3886 H   0  0  0  0  0  0  0  0  0  0  0  0
   43.4470   20.3065   37.3518 H   0  0  0  0  0  0  0  0  0  0  0  0
   41.5051   21.3586   38.5264 H   0  0  0  0  0  0  0  0  0  0  0  0
   43.0087   22.0422   32.9709 H   0  0  0  0  0  0  0  0  0  0  0  0
   41.9668   20.5889   32.8009 H   0  0  0  0  0  0  0  0  0  0  0  0
   41.2301   22.2272   32.8009 H   0  0  0  0  0  0  0  0  0  0  0  0
   38.3108   27.5409   34.1130 H   0  0  0  0  0  0  0  0  0  0  0  0
   39.4647   26.6123   33.0966 H   0  0  0  0  0  0  0  0  0  0  0  0
   37.7206   26.1825   33.0966 H   0  0  0  0  0  0  0  0  0  0  0  0
   38.6761   25.7399   36.9675 H   0  0  0  0  0  0  0  0  0  0  0  0
   38.6934   27.2916   36.0627 H   0  0  0  0  0  0  0  0  0  0  0  0
   37.2171   26.2683   36.0627 H   0  0  0  0  0  0  0  0  0  0  0  0
   40.6197   25.4346   36.0379 H   0  0  0  0  0  0  0  0  0  0  0  0
   40.6526   24.5319   34.4853 H   0  0  0  0  0  0  0  0  0  0  0  0
   40.7798   26.3237   34.4853 H   0  0  0  0  0  0  0  0  0  0  0  0
  1  8  1  0
  2  1  2  0
  3  2  1  0
  4  5  1  0
  4  3  2  0
  5  6  2  0
  6 19  1  0
  6  1  1  0
  7 11  1  0
  8  7  2  0
  8  9  1  0
  9 10  2  0
 11 10  1  0
 12 13  2  0
 14  7  1  0
 14 13  1  0
 15 14  2  0
 16 15  1  0
 16 17  2  0
 17 12  1  0
 18 16  1  0
 19 22  1  0
 19 21  1  0
 20 19  1  0
  2 23  1  0
  3 24  1  0
  4 25  1  0
  5 26  1  0
 10 27  1  0
 11 28  1  0
 12 29  1  0
 13 30  1  0
 18 31  1  0
 18 32  1  0
 18 33  1  0
 20 34  1  0
 20 35  1  0
 20 36  1  0
 21 37  1  0
 21 38  1  0
 21 39  1  0
 22 40  1  0
 22 41  1  0
 22 42  1  0
M  ISO  8  23  14  24  14  25  14  26  14  27  14  28   9  29  14  30  14
M  ISO  8  31   8  32   8  33   8  34   8  35   8  36   8  37   8  38   8
M  ISO  4  39   8  40   8  41   8  42   8
M  END
>  <minimizedAffinity>  (1) 
-5.55737829

>  <minimizedRMSD>  (1) 
0.0480758958

$$$$
