
     RDKit          3D

 40 42  0  0  0  0  0  0  0  0999 V2000
   38.0850   23.1950   35.2350 C   0  0  0  0  0  0  0  0  0  0  0  0
   37.5950   22.0120   34.7660 C   0  0  0  0  0  0  0  0  0  0  0  0
   37.2370   21.8300   33.4510 C   0  0  0  0  0  0  0  0  0  0  0  0
   37.3730   22.8800   32.5580 C   0  0  0  0  0  0  0  0  0  0  0  0
   37.8690   24.0600   33.0600 C   0  0  0  0  0  0  0  0  0  0  0  0
   38.2540   24.3040   34.4020 C   0  0  0  0  0  0  0  0  0  0  0  0
   39.5150   22.7000   37.3090 C   0  0  0  0  0  0  0  0  0  0  0  0
   38.4010   23.1810   36.6500 C   0  0  0  0  0  0  0  0  0  0  0  0
   37.6080   23.6670   37.6270 N   0  0  0  0  0  0  0  0  0  0  0  0
   38.2210   23.4820   38.8060 C   0  0  0  0  0  0  0  0  0  0  0  0
   39.3900   22.8930   38.6440 N   0  0  0  0  0  0  0  0  0  0  0  0
   42.6790   20.8280   36.7280 C   0  0  0  0  0  0  0  0  0  0  0  0
   41.6100   21.4120   37.4030 C   0  0  0  0  0  0  0  0  0  0  0  0
   40.6510   22.0760   36.6350 C   0  0  0  0  0  0  0  0  0  0  0  0
   40.8190   22.1130   35.2680 N   0  0  0  0  0  0  0  0  0  0  0  0
   41.8700   21.5330   34.6690 C   0  0  0  0  0  0  0  0  0  0  0  0
   42.7970   20.8940   35.3740 N   0  0  0  0  0  0  0  0  0  0  0  0
   41.8370   21.7350   32.8880 S   0  0  0  0  0  0  0  0  0  0  0  0
   38.7690   25.5560   34.8800 C   0  0  0  0  0  0  0  0  0  0  0  0
   38.5110   26.5320   33.7110 C   0  0  0  0  0  0  0  0  0  0  0  0
   38.2920   26.2350   36.0630 C   0  0  0  0  0  0  0  0  0  0  0  0
   40.2890   25.4460   34.9670 C   0  0  0  0  0  0  0  0  0  0  0  0
   37.4818   21.1713   35.4664 H   0  0  0  0  0  0  0  0  0  0  0  0
   36.8462   20.8595   33.1113 H   0  0  0  0  0  0  0  0  0  0  0  0
   37.0975   22.7749   31.4983 H   0  0  0  0  0  0  0  0  0  0  0  0
   37.9774   24.8949   32.3520 H   0  0  0  0  0  0  0  0  0  0  0  0
   37.8040   23.7818   39.7787 H   0  0  0  0  0  0  0  0  0  0  0  0
   40.0652   22.6344   39.3776 H   0  0  0  0  0  0  0  0  0  0  0  0
   43.4503   20.2980   37.3061 H   0  0  0  0  0  0  0  0  0  0  0  0
   41.5243   21.3526   38.4981 H   0  0  0  0  0  0  0  0  0  0  0  0
   41.6217   23.0529   32.5818 H   0  0  0  0  0  0  0  0  0  0  0  0
   38.2492   27.5225   34.1113 H   0  0  0  0  0  0  0  0  0  0  0  0
   39.4184   26.6138   33.0946 H   0  0  0  0  0  0  0  0  0  0  0  0
   37.6817   26.1547   33.0946 H   0  0  0  0  0  0  0  0  0  0  0  0
   38.6590   25.7125   36.9587 H   0  0  0  0  0  0  0  0  0  0  0  0
   38.6619   27.2710   36.0654 H   0  0  0  0  0  0  0  0  0  0  0  0
   37.1920   26.2384   36.0654 H   0  0  0  0  0  0  0  0  0  0  0  0
   40.5952   25.4238   36.0233 H   0  0  0  0  0  0  0  0  0  0  0  0
   40.6188   24.5216   34.4702 H   0  0  0  0  0  0  0  0  0  0  0  0
   40.7484   26.3132   34.4702 H   0  0  0  0  0  0  0  0  0  0  0  0
  1  8  1  0
  2  1  2  0
  3  2  1  0
  4  5  1  0
  4  3  2  0
  5  6  2  0
  6 19  1  0
  6  1  1  0
  7 11  1  0
  8  7  2  0
  8  9  1  0
  9 10  2  0
 11 10  1  0
 12 13  2  0
 14  7  1  0
 14 13  1  0
 15 14  2  0
 16 15  1  0
 16 17  2  0
 17 12  1  0
 18 16  1  0
 19 22  1  0
 19 21  1  0
 20 19  1  0
  2 23  1  0
  3 24  1  0
  4 25  1  0
  5 26  1  0
 10 27  1  0
 11 28  1  0
 12 29  1  0
 13 30  1  0
 18 31  1  0
 20 32  1  0
 20 33  1  0
 20 34  1  0
 21 35  1  0
 21 36  1  0
 21 37  1  0
 22 38  1  0
 22 39  1  0
 22 40  1  0
M  ISO  8  23  14  24  14  25  14  26  14  27  14  28   9  29  14  30  14
M  ISO  8  31  11  32   8  33   8  34   8  35   8  36   8  37   8  38   8
M  ISO  2  39   8  40   8
M  END
>  <minimizedAffinity>  (1) 
-5.5585041

>  <minimizedRMSD>  (1) 
0.0342041664

$$$$
