
     RDKit          3D

 46 49  0  0  0  0  0  0  0  0999 V2000
   38.1200   23.3630   35.1980 C   0  0  0  0  0  0  0  0  0  0  0  0
   37.6440   22.1940   34.6920 C   0  0  0  0  0  0  0  0  0  0  0  0
   37.3580   22.0280   33.3580 C   0  0  0  0  0  0  0  0  0  0  0  0
   37.5540   23.0670   32.4860 C   0  0  0  0  0  0  0  0  0  0  0  0
   38.0350   24.2390   33.0170 C   0  0  0  0  0  0  0  0  0  0  0  0
   38.3480   24.4770   34.3790 C   0  0  0  0  0  0  0  0  0  0  0  0
   39.4160   22.8330   37.3330 C   0  0  0  0  0  0  0  0  0  0  0  0
   38.3570   23.3420   36.6210 C   0  0  0  0  0  0  0  0  0  0  0  0
   37.5240   23.8500   37.5580 N   0  0  0  0  0  0  0  0  0  0  0  0
   38.0670   23.6500   38.7670 C   0  0  0  0  0  0  0  0  0  0  0  0
   39.2340   23.0260   38.6720 N   0  0  0  0  0  0  0  0  0  0  0  0
   42.5450   20.8470   36.9340 C   0  0  0  0  0  0  0  0  0  0  0  0
   41.4580   21.4560   37.5280 C   0  0  0  0  0  0  0  0  0  0  0  0
   40.5710   22.1780   36.7400 C   0  0  0  0  0  0  0  0  0  0  0  0
   40.8420   22.2420   35.3830 N   0  0  0  0  0  0  0  0  0  0  0  0
   41.9130   21.6340   34.8490 C   0  0  0  0  0  0  0  0  0  0  0  0
   42.7570   20.9450   35.6050 N   0  0  0  0  0  0  0  0  0  0  0  0
   42.0680   21.8010   33.3570 C   0  0  0  0  0  0  0  0  0  0  0  0
   42.6780   20.8340   32.5020 C   0  0  0  0  0  0  0  0  0  0  0  0
   42.7290   21.1560   31.1810 C   0  0  0  0  0  0  0  0  0  0  0  0
   42.2450   22.3130   30.6630 C   0  0  0  0  0  0  0  0  0  0  0  0
   41.5890   23.1650   32.1650 S   0  0  0  0  0  0  0  0  0  0  0  0
   38.8500   25.7150   34.8920 C   0  0  0  0  0  0  0  0  0  0  0  0
   38.6140   26.7130   33.7260 C   0  0  0  0  0  0  0  0  0  0  0  0
   38.3470   26.3890   36.0680 C   0  0  0  0  0  0  0  0  0  0  0  0
   40.3660   25.6100   35.0090 C   0  0  0  0  0  0  0  0  0  0  0  0
   37.4816   21.3486   35.3768 H   0  0  0  0  0  0  0  0  0  0  0  0
   36.9732   21.0648   32.9916 H   0  0  0  0  0  0  0  0  0  0  0  0
   37.3366   22.9672   31.4123 H   0  0  0  0  0  0  0  0  0  0  0  0
   38.1925   25.0735   32.3178 H   0  0  0  0  0  0  0  0  0  0  0  0
   37.6050   23.9627   39.7150 H   0  0  0  0  0  0  0  0  0  0  0  0
   39.8633   22.7486   39.4388 H   0  0  0  0  0  0  0  0  0  0  0  0
   43.2494   20.2728   37.5537 H   0  0  0  0  0  0  0  0  0  0  0  0
   41.2962   21.3705   38.6127 H   0  0  0  0  0  0  0  0  0  0  0  0
   43.0821   19.8864   32.8877 H   0  0  0  0  0  0  0  0  0  0  0  0
   43.1907   20.4344   30.4909 H   0  0  0  0  0  0  0  0  0  0  0  0
   42.2436   22.6555   29.6177 H   0  0  0  0  0  0  0  0  0  0  0  0
   38.3791   27.7065   34.1356 H   0  0  0  0  0  0  0  0  0  0  0  0
   39.5219   26.7764   33.1082 H   0  0  0  0  0  0  0  0  0  0  0  0
   37.7738   26.3631   33.1082 H   0  0  0  0  0  0  0  0  0  0  0  0
   38.7240   25.8839   36.9695 H   0  0  0  0  0  0  0  0  0  0  0  0
   38.6870   27.4351   36.0646 H   0  0  0  0  0  0  0  0  0  0  0  0
   37.2474   26.3608   36.0646 H   0  0  0  0  0  0  0  0  0  0  0  0
   40.6513   25.5902   36.0712 H   0  0  0  0  0  0  0  0  0  0  0  0
   40.7084   24.6860   34.5201 H   0  0  0  0  0  0  0  0  0  0  0  0
   40.8325   26.4780   34.5201 H   0  0  0  0  0  0  0  0  0  0  0  0
  1  8  1  0
  2  1  2  0
  3  2  1  0
  4  5  1  0
  4  3  2  0
  5  6  2  0
  6 23  1  0
  6  1  1  0
  7 11  1  0
  8  7  2  0
  8  9  1  0
  9 10  2  0
 11 10  1  0
 12 13  2  0
 14  7  1  0
 14 13  1  0
 15 14  2  0
 16 15  1  0
 16 17  2  0
 17 12  1  0
 18 16  1  0
 19 18  2  0
 20 19  1  0
 21 20  2  0
 21 22  1  0
 22 18  1  0
 23 26  1  0
 23 25  1  0
 24 23  1  0
  2 27  1  0
  3 28  1  0
  4 29  1  0
  5 30  1  0
 10 31  1  0
 11 32  1  0
 12 33  1  0
 13 34  1  0
 19 35  1  0
 20 36  1  0
 21 37  1  0
 24 38  1  0
 24 39  1  0
 24 40  1  0
 25 41  1  0
 25 42  1  0
 25 43  1  0
 26 44  1  0
 26 45  1  0
 26 46  1  0
M  ISO  8  27  14  28  14  29  14  30  14  31  14  32   9  33  14  34  14
M  ISO  8  35  14  36  14  37  14  38   8  39   8  40   8  41   8  42   8
M  ISO  4  43   8  44   8  45   8  46   8
M  END
>  <minimizedAffinity>  (1) 
-5.43822622

>  <minimizedRMSD>  (1) 
0.243064448

$$$$
