
     RDKit          3D

 45 47  0  0  0  0  0  0  0  0999 V2000
   38.1260   23.3750   35.1730 C   0  0  0  0  0  0  0  0  0  0  0  0
   37.6560   22.2070   34.6620 C   0  0  0  0  0  0  0  0  0  0  0  0
   37.3640   22.0490   33.3260 C   0  0  0  0  0  0  0  0  0  0  0  0
   37.5520   23.1150   32.4630 C   0  0  0  0  0  0  0  0  0  0  0  0
   38.0270   24.2780   33.0100 C   0  0  0  0  0  0  0  0  0  0  0  0
   38.3440   24.4990   34.3650 C   0  0  0  0  0  0  0  0  0  0  0  0
   39.4320   22.8100   37.2970 C   0  0  0  0  0  0  0  0  0  0  0  0
   38.3720   23.3390   36.5990 C   0  0  0  0  0  0  0  0  0  0  0  0
   37.5550   23.8490   37.5470 N   0  0  0  0  0  0  0  0  0  0  0  0
   38.0980   23.6350   38.7480 C   0  0  0  0  0  0  0  0  0  0  0  0
   39.2530   22.9980   38.6330 N   0  0  0  0  0  0  0  0  0  0  0  0
   42.5900   20.8830   36.8750 C   0  0  0  0  0  0  0  0  0  0  0  0
   41.5100   21.5000   37.4900 C   0  0  0  0  0  0  0  0  0  0  0  0
   40.5800   22.1450   36.6980 C   0  0  0  0  0  0  0  0  0  0  0  0
   40.7810   22.1390   35.3190 N   0  0  0  0  0  0  0  0  0  0  0  0
   41.8420   21.5310   34.7700 C   0  0  0  0  0  0  0  0  0  0  0  0
   42.7430   20.9050   35.5390 N   0  0  0  0  0  0  0  0  0  0  0  0
   41.9440   21.5970   33.2660 C   0  0  0  0  0  0  0  0  0  0  0  0
   41.4240   22.9350   32.7820 C   0  0  0  0  0  0  0  0  0  0  0  0
   38.8410   25.7340   34.8930 C   0  0  0  0  0  0  0  0  0  0  0  0
   38.6590   26.7340   33.7220 C   0  0  0  0  0  0  0  0  0  0  0  0
   38.3060   26.4150   36.0570 C   0  0  0  0  0  0  0  0  0  0  0  0
   40.3510   25.6130   35.0620 C   0  0  0  0  0  0  0  0  0  0  0  0
   37.5031   21.3556   35.3415 H   0  0  0  0  0  0  0  0  0  0  0  0
   36.9859   21.0874   32.9488 H   0  0  0  0  0  0  0  0  0  0  0  0
   37.3305   23.0323   31.3887 H   0  0  0  0  0  0  0  0  0  0  0  0
   38.1757   25.1237   32.3225 H   0  0  0  0  0  0  0  0  0  0  0  0
   37.6474   23.9454   39.7023 H   0  0  0  0  0  0  0  0  0  0  0  0
   39.8830   22.7063   39.3939 H   0  0  0  0  0  0  0  0  0  0  0  0
   43.3373   20.3646   37.4936 H   0  0  0  0  0  0  0  0  0  0  0  0
   41.3969   21.4760   38.5839 H   0  0  0  0  0  0  0  0  0  0  0  0
   42.9956   21.4817   32.9645 H   0  0  0  0  0  0  0  0  0  0  0  0
   41.3442   20.7887   32.8223 H   0  0  0  0  0  0  0  0  0  0  0  0
   41.1781   23.5677   33.6476 H   0  0  0  0  0  0  0  0  0  0  0  0
   42.1953   23.4298   32.1735 H   0  0  0  0  0  0  0  0  0  0  0  0
   40.5210   22.7791   32.1735 H   0  0  0  0  0  0  0  0  0  0  0  0
   38.4757   27.7410   34.1249 H   0  0  0  0  0  0  0  0  0  0  0  0
   39.5697   26.7460   33.1052 H   0  0  0  0  0  0  0  0  0  0  0  0
   37.8025   26.4244   33.1052 H   0  0  0  0  0  0  0  0  0  0  0  0
   38.6848   25.9328   36.9702 H   0  0  0  0  0  0  0  0  0  0  0  0
   38.6200   27.4691   36.0417 H   0  0  0  0  0  0  0  0  0  0  0  0
   37.2075   26.3594   36.0417 H   0  0  0  0  0  0  0  0  0  0  0  0
   40.5996   25.5931   36.1334 H   0  0  0  0  0  0  0  0  0  0  0  0
   40.6998   24.6840   34.5873 H   0  0  0  0  0  0  0  0  0  0  0  0
   40.8433   26.4746   34.5873 H   0  0  0  0  0  0  0  0  0  0  0  0
  1  8  1  0
  2  1  2  0
  3  2  1  0
  4  5  1  0
  4  3  2  0
  5  6  2  0
  6 20  1  0
  6  1  1  0
  7 11  1  0
  8  7  2  0
  8  9  1  0
  9 10  2  0
 11 10  1  0
 12 13  2  0
 14  7  1  0
 14 13  1  0
 15 14  2  0
 16 15  1  0
 16 17  2  0
 17 12  1  0
 18 16  1  0
 19 18  1  0
 20 23  1  0
 20 22  1  0
 21 20  1  0
  2 24  1  0
  3 25  1  0
  4 26  1  0
  5 27  1  0
 10 28  1  0
 11 29  1  0
 12 30  1  0
 13 31  1  0
 18 32  1  0
 18 33  1  0
 19 34  1  0
 19 35  1  0
 19 36  1  0
 21 37  1  0
 21 38  1  0
 21 39  1  0
 22 40  1  0
 22 41  1  0
 22 42  1  0
 23 43  1  0
 23 44  1  0
 23 45  1  0
M  ISO  8  24  14  25  14  26  14  27  14  28  14  29   9  30  14  31  14
M  ISO  8  32   8  33   8  34   8  35   8  36   8  37   8  38   8  39   8
M  ISO  6  40   8  41   8  42   8  43   8  44   8  45   8
M  END
>  <minimizedAffinity>  (1) 
-5.39315033

>  <minimizedRMSD>  (1) 
0.397742391

$$$$
