
     RDKit          3D

 34 37  0  0  1  0  0  0  0  0999 V2000
   37.8570   26.2830   36.2900 C   0  0  1  0  0  0  0  0  0  0  0  0
   38.5660   27.3600   35.5320 C   0  0  0  0  0  0  0  0  0  0  0  0
   37.3840   26.6940   34.9640 C   0  0  1  0  0  0  0  0  0  0  0  0
   37.5880   26.0410   33.7210 N   0  0  0  0  0  0  0  0  0  0  0  0
   37.6340   24.7150   33.4460 C   0  0  0  0  0  0  0  0  0  0  0  0
   37.8380   24.1770   32.2150 C   0  0  0  0  0  0  0  0  0  0  0  0
   38.0130   25.0280   31.1410 C   0  0  0  0  0  0  0  0  0  0  0  0
   38.2060   24.5890   29.9720 O   0  0  0  0  0  0  0  0  0  0  0  0
   37.9810   26.3740   31.3200 N   0  0  0  0  0  0  0  0  0  0  0  0
   37.7740   26.8030   32.5850 C   0  0  0  0  0  0  0  0  0  0  0  0
   37.7450   28.0710   32.7480 O   0  0  0  0  0  0  0  0  0  0  0  0
   38.1510   27.3230   30.2720 C   0  0  0  0  0  0  0  0  0  0  0  0
   39.3290   27.7340   29.6780 C   0  0  0  0  0  0  0  0  0  0  0  0
   38.9790   28.6650   28.7180 C   0  0  0  0  0  0  0  0  0  0  0  0
   37.6050   28.7890   28.7600 C   0  0  0  0  0  0  0  0  0  0  0  0
   37.1730   27.9790   29.6910 O   0  0  0  0  0  0  0  0  0  0  0  0
   38.5350   24.9910   36.5740 C   0  0  0  0  0  0  0  0  0  0  0  0
   38.0420   24.2750   37.6630 C   0  0  0  0  0  0  0  0  0  0  0  0
   38.6460   23.0590   37.9760 C   0  0  0  0  0  0  0  0  0  0  0  0
   39.6950   22.6420   37.1880 N   0  0  0  0  0  0  0  0  0  0  0  0
   40.1270   23.3820   36.1460 C   0  0  0  0  0  0  0  0  0  0  0  0
   39.5550   24.5470   35.8380 N   0  0  0  0  0  0  0  0  0  0  0  0
   37.3688   26.1776   37.2701 H   0  0  0  0  0  0  0  0  0  0  0  0
   38.5023   28.4054   35.8684 H   0  0  0  0  0  0  0  0  0  0  0  0
   39.6009   27.5324   35.2016 H   0  0  0  0  0  0  0  0  0  0  0  0
   36.3617   26.9256   34.6305 H   0  0  0  0  0  0  0  0  0  0  0  0
   37.4952   24.0186   34.2861 H   0  0  0  0  0  0  0  0  0  0  0  0
   37.8633   23.0860   32.0765 H   0  0  0  0  0  0  0  0  0  0  0  0
   40.3447   27.3886   29.9211 H   0  0  0  0  0  0  0  0  0  0  0  0
   39.6649   29.2043   28.0482 H   0  0  0  0  0  0  0  0  0  0  0  0
   36.9889   29.4461   28.1286 H   0  0  0  0  0  0  0  0  0  0  0  0
   37.2003   24.6586   38.2583 H   0  0  0  0  0  0  0  0  0  0  0  0
   38.2963   22.4524   38.8244 H   0  0  0  0  0  0  0  0  0  0  0  0
   40.9680   23.0173   35.5380 H   0  0  0  0  0  0  0  0  0  0  0  0
  1 17  1  0
  2  1  1  0
  3  2  1  0
  3  1  1  0
  4  3  1  0
  5  4  1  0
  6  5  2  0
  7  9  1  0
  7  6  1  0
  8  7  2  0
  9 10  1  0
 10 11  2  0
 10  4  1  0
 12  9  1  0
 13 12  2  0
 14 15  2  0
 14 13  1  0
 15 16  1  0
 16 12  1  0
 17 18  2  0
 18 19  1  0
 20 19  2  0
 21 20  1  0
 22 21  2  0
 22 17  1  0
  1 23  1  1
  2 24  1  0
  2 25  1  0
  3 26  1  1
  5 27  1  0
  6 28  1  0
 13 29  1  0
 14 30  1  0
 15 31  1  0
 18 32  1  0
 19 33  1  0
 21 34  1  0
M  ISO  8  23  13  24  13  25  13  26  13  27  14  28  14  29  14  30  14
M  ISO  4  31  14  32  14  33  14  34  14
M  END
>  <minimizedAffinity>  (1) 
-4.77466869

>  <minimizedRMSD>  (1) 
1.19199443

$$$$
