
     RDKit          3D

 36 39  0  0  1  0  0  0  0  0999 V2000
   37.5530   25.9460   33.6140 N   0  0  0  0  0  0  0  0  0  0  0  0
   37.6190   24.6330   33.2790 C   0  0  0  0  0  0  0  0  0  0  0  0
   37.9330   24.1660   32.0340 C   0  0  0  0  0  0  0  0  0  0  0  0
   38.2060   25.0810   31.0270 C   0  0  0  0  0  0  0  0  0  0  0  0
   38.5010   24.7040   29.8610 O   0  0  0  0  0  0  0  0  0  0  0  0
   38.1580   26.4130   31.2850 N   0  0  0  0  0  0  0  0  0  0  0  0
   37.8380   26.7640   32.5460 C   0  0  0  0  0  0  0  0  0  0  0  0
   37.7960   28.0240   32.7800 O   0  0  0  0  0  0  0  0  0  0  0  0
   37.7230   26.1220   36.1990 C   0  0  1  0  0  0  0  0  0  0  0  0
   38.3220   27.3030   35.5020 C   0  0  0  0  0  0  0  0  0  0  0  0
   37.2420   26.5220   34.8730 C   0  0  1  0  0  0  0  0  0  0  0  0
   38.5470   24.9140   36.4620 C   0  0  0  0  0  0  0  0  0  0  0  0
   38.1530   24.1310   37.5440 C   0  0  0  0  0  0  0  0  0  0  0  0
   38.8930   22.9920   37.8420 C   0  0  0  0  0  0  0  0  0  0  0  0
   39.9740   22.7070   37.0410 N   0  0  0  0  0  0  0  0  0  0  0  0
   40.3080   23.5040   36.0050 C   0  0  0  0  0  0  0  0  0  0  0  0
   39.6110   24.5980   35.7060 N   0  0  0  0  0  0  0  0  0  0  0  0
   38.4230   27.4160   30.3100 C   0  0  0  0  0  0  0  0  0  0  0  0
   39.7240   27.8090   30.0710 C   0  0  0  0  0  0  0  0  0  0  0  0
   40.0000   28.7830   29.1290 C   0  0  0  0  0  0  0  0  0  0  0  0
   38.9690   29.3850   28.4020 C   0  0  0  0  0  0  0  0  0  0  0  0
   37.6650   28.9610   28.6730 C   0  0  0  0  0  0  0  0  0  0  0  0
   37.4260   27.9970   29.6100 N   0  0  0  0  0  0  0  0  0  0  0  0
   37.4048   23.8930   34.0642 H   0  0  0  0  0  0  0  0  0  0  0  0
   37.9687   23.0850   31.8336 H   0  0  0  0  0  0  0  0  0  0  0  0
   37.2199   25.9222   37.1566 H   0  0  0  0  0  0  0  0  0  0  0  0
   38.1251   28.3204   35.8709 H   0  0  0  0  0  0  0  0  0  0  0  0
   39.3382   27.6083   35.2121 H   0  0  0  0  0  0  0  0  0  0  0  0
   36.2089   26.6421   34.5147 H   0  0  0  0  0  0  0  0  0  0  0  0
   37.2767   24.4070   38.1489 H   0  0  0  0  0  0  0  0  0  0  0  0
   38.6235   22.3424   38.6878 H   0  0  0  0  0  0  0  0  0  0  0  0
   41.1814   23.2423   35.3897 H   0  0  0  0  0  0  0  0  0  0  0  0
   40.5471   27.3443   30.6336 H   0  0  0  0  0  0  0  0  0  0  0  0
   41.0418   29.0872   28.9499 H   0  0  0  0  0  0  0  0  0  0  0  0
   39.1751   30.1595   27.6486 H   0  0  0  0  0  0  0  0  0  0  0  0
   36.8224   29.4087   28.1256 H   0  0  0  0  0  0  0  0  0  0  0  0
  1 11  1  0
  2  1  1  0
  3  2  2  0
  4  6  1  0
  4  3  1  0
  5  4  2  0
  6  7  1  0
  7  8  2  0
  7  1  1  0
  9 12  1  0
 10  9  1  0
 11 10  1  0
 11  9  1  0
 12 13  2  0
 13 14  1  0
 15 14  2  0
 16 15  1  0
 17 16  2  0
 17 12  1  0
 18  6  1  0
 19 18  2  0
 20 19  1  0
 21 22  1  0
 21 20  2  0
 22 23  2  0
 23 18  1  0
  2 24  1  0
  3 25  1  0
  9 26  1  1
 10 27  1  0
 10 28  1  0
 11 29  1  1
 13 30  1  0
 14 31  1  0
 16 32  1  0
 19 33  1  0
 20 34  1  0
 21 35  1  0
 22 36  1  0
M  ISO  8  24  14  25  14  26  13  27  13  28  13  29  13  30  14  31  14
M  ISO  5  32  14  33  14  34  14  35  14  36  14
M  END
>  <minimizedAffinity>  (1) 
-4.83438015

>  <minimizedRMSD>  (1) 
1.25209451

$$$$
