
     RDKit          3D

 34 37  0  0  1  0  0  0  0  0999 V2000
   37.5970   26.0020   33.9230 N   0  0  0  0  0  0  0  0  0  0  0  0
   37.6960   24.6660   33.7110 C   0  0  0  0  0  0  0  0  0  0  0  0
   37.8180   24.0750   32.4890 C   0  0  0  0  0  0  0  0  0  0  0  0
   37.8440   24.8840   31.3570 C   0  0  0  0  0  0  0  0  0  0  0  0
   37.9550   24.3900   30.2090 O   0  0  0  0  0  0  0  0  0  0  0  0
   37.7490   26.2300   31.4850 N   0  0  0  0  0  0  0  0  0  0  0  0
   37.6330   26.7090   32.7420 C   0  0  0  0  0  0  0  0  0  0  0  0
   37.5440   27.9810   32.8420 O   0  0  0  0  0  0  0  0  0  0  0  0
   37.1210   28.5090   28.8110 N   0  0  0  0  0  0  0  0  0  0  0  0
   36.7180   27.7560   29.8190 N   0  0  0  0  0  0  0  0  0  0  0  0
   37.7670   27.1260   30.3800 C   0  0  0  0  0  0  0  0  0  0  0  0
   38.8800   27.5200   29.6660 C   0  0  0  0  0  0  0  0  0  0  0  0
   38.4690   28.3860   28.6870 C   0  0  0  0  0  0  0  0  0  0  0  0
   37.9960   26.3080   36.4690 C   0  0  1  0  0  0  0  0  0  0  0  0
   38.7510   27.3030   35.6450 C   0  0  0  0  0  0  0  0  0  0  0  0
   37.4770   26.6970   35.1540 C   0  0  1  0  0  0  0  0  0  0  0  0
   38.5980   24.9850   36.7730 C   0  0  0  0  0  0  0  0  0  0  0  0
   38.0730   24.3080   37.8740 C   0  0  0  0  0  0  0  0  0  0  0  0
   38.6020   23.0690   38.2120 C   0  0  0  0  0  0  0  0  0  0  0  0
   39.6150   22.5870   37.4350 N   0  0  0  0  0  0  0  0  0  0  0  0
   40.0890   23.2770   36.3820 C   0  0  0  0  0  0  0  0  0  0  0  0
   39.5960   24.4680   36.0390 N   0  0  0  0  0  0  0  0  0  0  0  0
   37.6763   24.0091   34.5931 H   0  0  0  0  0  0  0  0  0  0  0  0
   37.8943   22.9813   32.3994 H   0  0  0  0  0  0  0  0  0  0  0  0
   36.5143   29.0925   28.2175 H   0  0  0  0  0  0  0  0  0  0  0  0
   39.9149   27.1960   29.8503 H   0  0  0  0  0  0  0  0  0  0  0  0
   39.1073   28.8857   27.9435 H   0  0  0  0  0  0  0  0  0  0  0  0
   37.5470   26.2762   37.4727 H   0  0  0  0  0  0  0  0  0  0  0  0
   38.7812   28.3609   35.9450 H   0  0  0  0  0  0  0  0  0  0  0  0
   39.7790   27.3872   35.2627 H   0  0  0  0  0  0  0  0  0  0  0  0
   36.4513   26.9746   34.8698 H   0  0  0  0  0  0  0  0  0  0  0  0
   37.2550   24.7474   38.4637 H   0  0  0  0  0  0  0  0  0  0  0  0
   38.2197   22.4991   39.0717 H   0  0  0  0  0  0  0  0  0  0  0  0
   40.9073   22.8463   35.7862 H   0  0  0  0  0  0  0  0  0  0  0  0
  1 16  1  0
  2  1  1  0
  3  2  2  0
  4  6  1  0
  4  3  1  0
  5  4  2  0
  6  7  1  0
  7  8  2  0
  7  1  1  0
  9 10  1  0
 10 11  2  0
 11  6  1  0
 12 11  1  0
 13  9  1  0
 13 12  2  0
 14 17  1  0
 15 14  1  0
 16 15  1  0
 16 14  1  0
 17 18  2  0
 18 19  1  0
 20 19  2  0
 21 20  1  0
 22 21  2  0
 22 17  1  0
  2 23  1  0
  3 24  1  0
  9 25  1  0
 12 26  1  0
 13 27  1  0
 14 28  1  1
 15 29  1  0
 15 30  1  0
 16 31  1  1
 18 32  1  0
 19 33  1  0
 21 34  1  0
M  ISO  8  23  14  24  14  25   9  26  14  27  14  28  13  29  13  30  13
M  ISO  4  31  13  32  14  33  14  34  14
M  END
>  <minimizedAffinity>  (1) 
-5.25290775

>  <minimizedRMSD>  (1) 
1.03210354

$$$$
