
     RDKit          3D

 33 36  0  0  1  0  0  0  0  0999 V2000
   37.7210   26.1080   36.2000 C   0  0  1  0  0  0  0  0  0  0  0  0
   38.3020   27.3130   35.5310 C   0  0  0  0  0  0  0  0  0  0  0  0
   37.2310   26.5370   34.8870 C   0  0  1  0  0  0  0  0  0  0  0  0
   37.5420   26.0000   33.6110 N   0  0  0  0  0  0  0  0  0  0  0  0
   37.6870   24.6980   33.2600 C   0  0  0  0  0  0  0  0  0  0  0  0
   37.9950   24.2610   32.0020 C   0  0  0  0  0  0  0  0  0  0  0  0
   38.1750   25.2000   30.9940 C   0  0  0  0  0  0  0  0  0  0  0  0
   38.4610   24.8600   29.8180 O   0  0  0  0  0  0  0  0  0  0  0  0
   38.0440   26.5190   31.2750 N   0  0  0  0  0  0  0  0  0  0  0  0
   37.7390   26.8470   32.5500 C   0  0  0  0  0  0  0  0  0  0  0  0
   37.6220   28.0970   32.7880 O   0  0  0  0  0  0  0  0  0  0  0  0
   38.2140   27.5560   30.2980 C   0  0  0  0  0  0  0  0  0  0  0  0
   37.1010   28.2160   29.5120 C   0  0  0  0  0  0  0  0  0  0  0  0
   38.1110   29.3690   28.5350 S   0  0  0  0  0  0  0  0  0  0  0  0
   39.7640   28.8100   29.2970 C   0  0  0  0  0  0  0  0  0  0  0  0
   39.4950   27.9160   30.1230 N   0  0  0  0  0  0  0  0  0  0  0  0
   38.5580   24.9030   36.4290 C   0  0  0  0  0  0  0  0  0  0  0  0
   38.1570   24.0660   37.4690 C   0  0  0  0  0  0  0  0  0  0  0  0
   38.9080   22.9240   37.7340 C   0  0  0  0  0  0  0  0  0  0  0  0
   40.0030   22.6950   36.9490 N   0  0  0  0  0  0  0  0  0  0  0  0
   40.3480   23.5360   35.9560 C   0  0  0  0  0  0  0  0  0  0  0  0
   39.6420   24.6360   35.6850 N   0  0  0  0  0  0  0  0  0  0  0  0
   37.2250   25.8777   37.1545 H   0  0  0  0  0  0  0  0  0  0  0  0
   38.0943   28.3182   35.9266 H   0  0  0  0  0  0  0  0  0  0  0  0
   39.3133   27.6379   35.2450 H   0  0  0  0  0  0  0  0  0  0  0  0
   36.1950   26.6531   34.5359 H   0  0  0  0  0  0  0  0  0  0  0  0
   37.5467   23.9392   34.0439 H   0  0  0  0  0  0  0  0  0  0  0  0
   38.0984   23.1862   31.7917 H   0  0  0  0  0  0  0  0  0  0  0  0
   36.0139   28.0489   29.5274 H   0  0  0  0  0  0  0  0  0  0  0  0
   40.7634   29.2006   29.0550 H   0  0  0  0  0  0  0  0  0  0  0  0
   37.2654   24.3029   38.0681 H   0  0  0  0  0  0  0  0  0  0  0  0
   38.6308   22.2330   38.5437 H   0  0  0  0  0  0  0  0  0  0  0  0
   41.2379   23.3101   35.3501 H   0  0  0  0  0  0  0  0  0  0  0  0
  1 17  1  0
  2  1  1  0
  3  2  1  0
  3  1  1  0
  4  3  1  0
  5  4  1  0
  6  5  2  0
  7  9  1  0
  7  6  1  0
  8  7  2  0
  9 10  1  0
 10 11  2  0
 10  4  1  0
 12  9  1  0
 13 12  2  0
 14 15  1  0
 14 13  1  0
 15 16  2  0
 16 12  1  0
 17 18  2  0
 18 19  1  0
 20 19  2  0
 21 20  1  0
 22 21  2  0
 22 17  1  0
  1 23  1  1
  2 24  1  0
  2 25  1  0
  3 26  1  1
  5 27  1  0
  6 28  1  0
 13 29  1  0
 15 30  1  0
 18 31  1  0
 19 32  1  0
 21 33  1  0
M  ISO  8  23  13  24  13  25  13  26  13  27  14  28  14  29  14  30  14
M  ISO  3  31  14  32  14  33  14
M  END
>  <minimizedAffinity>  (1) 
-4.56232262

>  <minimizedRMSD>  (1) 
1.16981518

$$$$
