
     RDKit          3D

 47 51  0  0  1  0  0  0  0  0999 V2000
   37.9510   26.3530   36.4880 C   0  0  1  0  0  0  0  0  0  0  0  0
   38.6770   27.3520   35.6710 C   0  0  0  0  0  0  0  0  0  0  0  0
   37.4360   26.7020   35.1460 C   0  0  1  0  0  0  0  0  0  0  0  0
   37.5990   26.0220   33.9260 N   0  0  0  0  0  0  0  0  0  0  0  0
   37.7170   24.6990   33.7250 C   0  0  0  0  0  0  0  0  0  0  0  0
   37.8790   24.0960   32.5070 C   0  0  0  0  0  0  0  0  0  0  0  0
   37.9220   24.9080   31.3660 C   0  0  0  0  0  0  0  0  0  0  0  0
   38.0690   24.4110   30.2260 O   0  0  0  0  0  0  0  0  0  0  0  0
   37.8060   26.2540   31.4910 N   0  0  0  0  0  0  0  0  0  0  0  0
   37.6520   26.7410   32.7420 C   0  0  0  0  0  0  0  0  0  0  0  0
   37.5450   28.0100   32.8320 O   0  0  0  0  0  0  0  0  0  0  0  0
   37.1090   28.4960   28.7990 N   0  0  0  0  0  0  0  0  0  0  0  0
   36.7440   27.7340   29.8040 N   0  0  0  0  0  0  0  0  0  0  0  0
   37.8210   27.1450   30.3790 C   0  0  0  0  0  0  0  0  0  0  0  0
   38.9130   27.5730   29.6830 C   0  0  0  0  0  0  0  0  0  0  0  0
   38.4530   28.4190   28.6960 C   0  0  0  0  0  0  0  0  0  0  0  0
   38.5770   25.0420   36.7970 C   0  0  0  0  0  0  0  0  0  0  0  0
   38.0630   24.3560   37.9020 C   0  0  0  0  0  0  0  0  0  0  0  0
   38.5840   23.1310   38.2580 C   0  0  0  0  0  0  0  0  0  0  0  0
   39.5950   22.6540   37.4920 N   0  0  0  0  0  0  0  0  0  0  0  0
   40.0730   23.3440   36.4260 C   0  0  0  0  0  0  0  0  0  0  0  0
   39.5840   24.5240   36.0690 N   0  0  0  0  0  0  0  0  0  0  0  0
   41.1820   22.6610   35.7060 C   0  0  0  0  0  0  0  0  0  0  0  0
   42.2830   22.1910   36.6180 C   0  0  0  0  0  0  0  0  0  0  0  0
   43.3960   23.2120   36.5590 C   0  0  0  0  0  0  0  0  0  0  0  0
   42.9330   24.3350   35.6640 C   0  0  0  0  0  0  0  0  0  0  0  0
   41.8540   23.7060   34.8320 C   0  0  0  0  0  0  0  0  0  0  0  0
   37.4992   26.3306   37.4907 H   0  0  0  0  0  0  0  0  0  0  0  0
   38.6637   28.4137   35.9585 H   0  0  0  0  0  0  0  0  0  0  0  0
   39.7108   27.4638   35.3122 H   0  0  0  0  0  0  0  0  0  0  0  0
   36.4056   26.9290   34.8349 H   0  0  0  0  0  0  0  0  0  0  0  0
   37.6805   24.0478   34.6107 H   0  0  0  0  0  0  0  0  0  0  0  0
   37.9729   23.0030   32.4261 H   0  0  0  0  0  0  0  0  0  0  0  0
   36.4835   29.0517   28.1982 H   0  0  0  0  0  0  0  0  0  0  0  0
   39.9606   27.2962   29.8727 H   0  0  0  0  0  0  0  0  0  0  0  0
   39.0739   28.9410   27.9530 H   0  0  0  0  0  0  0  0  0  0  0  0
   37.2418   24.7949   38.4877 H   0  0  0  0  0  0  0  0  0  0  0  0
   38.1984   22.5683   39.1210 H   0  0  0  0  0  0  0  0  0  0  0  0
   40.7412   21.8031   35.1772 H   0  0  0  0  0  0  0  0  0  0  0  0
   41.9060   22.1069   37.6480 H   0  0  0  0  0  0  0  0  0  0  0  0
   42.6494   21.2031   36.3022 H   0  0  0  0  0  0  0  0  0  0  0  0
   43.6060   23.5976   37.5676 H   0  0  0  0  0  0  0  0  0  0  0  0
   44.3181   22.7583   36.1666 H   0  0  0  0  0  0  0  0  0  0  0  0
   42.5335   25.1704   36.2578 H   0  0  0  0  0  0  0  0  0  0  0  0
   43.7465   24.7589   35.0569 H   0  0  0  0  0  0  0  0  0  0  0  0
   41.1231   24.4669   34.5209 H   0  0  0  0  0  0  0  0  0  0  0  0
   42.2710   23.2513   33.9213 H   0  0  0  0  0  0  0  0  0  0  0  0
  1 17  1  0
  2  1  1  0
  3  2  1  0
  3  1  1  0
  4  3  1  0
  5  4  1  0
  6  5  2  0
  7  9  1  0
  7  6  1  0
  8  7  2  0
  9 10  1  0
 10 11  2  0
 10  4  1  0
 12 13  1  0
 13 14  2  0
 14  9  1  0
 15 14  1  0
 16 12  1  0
 16 15  2  0
 17 18  2  0
 18 19  1  0
 20 19  2  0
 21 20  1  0
 22 21  2  0
 22 17  1  0
 23 21  1  0
 23 24  1  0
 25 24  1  0
 26 25  1  0
 27 26  1  0
 27 23  1  0
  1 28  1  1
  2 29  1  0
  2 30  1  0
  3 31  1  1
  5 32  1  0
  6 33  1  0
 12 34  1  0
 15 35  1  0
 16 36  1  0
 18 37  1  0
 19 38  1  0
 23 39  1  0
 24 40  1  0
 24 41  1  0
 25 42  1  0
 25 43  1  0
 26 44  1  0
 26 45  1  0
 27 46  1  0
 27 47  1  0
M  ISO  8  28  13  29  13  30  13  31  13  32  14  33  14  34   9  35  14
M  ISO  8  36  14  37  14  38  14  39  13  40  13  41  13  42  13  43  13
M  ISO  4  44  13  45  13  46  13  47  13
M  END
>  <minimizedAffinity>  (1) 
-6.18024206

>  <minimizedRMSD>  (1) 
0.0717924163

$$$$
