
     RDKit          3D

 47 51  0  0  1  0  0  0  0  0999 V2000
   37.8840   26.3870   36.4690 C   0  0  1  0  0  0  0  0  0  0  0  0
   38.6010   27.3870   35.6430 C   0  0  0  0  0  0  0  0  0  0  0  0
   37.3680   26.7270   35.1240 C   0  0  1  0  0  0  0  0  0  0  0  0
   37.5260   26.0370   33.9090 N   0  0  0  0  0  0  0  0  0  0  0  0
   37.6120   24.7110   33.7180 C   0  0  0  0  0  0  0  0  0  0  0  0
   37.7670   24.1000   32.5030 C   0  0  0  0  0  0  0  0  0  0  0  0
   37.8410   24.9060   31.3590 C   0  0  0  0  0  0  0  0  0  0  0  0
   37.9830   24.3970   30.2210 O   0  0  0  0  0  0  0  0  0  0  0  0
   37.7590   26.2630   31.4780 N   0  0  0  0  0  0  0  0  0  0  0  0
   37.6090   26.7460   32.7220 C   0  0  0  0  0  0  0  0  0  0  0  0
   37.5340   28.0250   32.8070 O   0  0  0  0  0  0  0  0  0  0  0  0
   37.1550   28.4990   28.7630 N   0  0  0  0  0  0  0  0  0  0  0  0
   36.7550   27.7590   29.7720 N   0  0  0  0  0  0  0  0  0  0  0  0
   37.8080   27.1400   30.3610 C   0  0  0  0  0  0  0  0  0  0  0  0
   38.9200   27.5260   29.6700 C   0  0  0  0  0  0  0  0  0  0  0  0
   38.5100   28.3780   28.6690 C   0  0  0  0  0  0  0  0  0  0  0  0
   38.5220   25.0830   36.7820 C   0  0  0  0  0  0  0  0  0  0  0  0
   38.0350   24.4090   37.9060 C   0  0  0  0  0  0  0  0  0  0  0  0
   38.5660   23.1870   38.2720 C   0  0  0  0  0  0  0  0  0  0  0  0
   39.5680   22.7040   37.4820 N   0  0  0  0  0  0  0  0  0  0  0  0
   40.0180   23.3850   36.3970 C   0  0  0  0  0  0  0  0  0  0  0  0
   39.5120   24.5570   36.0420 N   0  0  0  0  0  0  0  0  0  0  0  0
   41.0790   22.8030   35.6180 N   0  0  0  0  0  0  0  0  0  0  0  0
   42.2930   23.0970   36.1710 C   0  0  0  0  0  0  0  0  0  0  0  0
   43.4670   22.6350   35.5820 C   0  0  0  0  0  0  0  0  0  0  0  0
   44.8150   22.9330   36.1520 C   0  0  0  0  0  0  0  0  0  0  0  0
   43.3420   21.8770   34.4310 C   0  0  0  0  0  0  0  0  0  0  0  0
   44.3650   21.4470   33.8770 O   0  0  0  0  0  0  0  0  0  0  0  0
   42.1160   21.6200   33.9330 N   0  0  0  0  0  0  0  0  0  0  0  0
   40.9900   22.0740   34.5150 C   0  0  0  0  0  0  0  0  0  0  0  0
   39.8200   21.8830   34.1220 O   0  0  0  0  0  0  0  0  0  0  0  0
   37.4327   26.3659   37.4720 H   0  0  0  0  0  0  0  0  0  0  0  0
   38.5800   28.4503   35.9238 H   0  0  0  0  0  0  0  0  0  0  0  0
   39.6335   27.5039   35.2821 H   0  0  0  0  0  0  0  0  0  0  0  0
   36.3376   26.9495   34.8098 H   0  0  0  0  0  0  0  0  0  0  0  0
   37.5534   24.0655   34.6068 H   0  0  0  0  0  0  0  0  0  0  0  0
   37.8318   23.0046   32.4265 H   0  0  0  0  0  0  0  0  0  0  0  0
   36.5527   29.0689   28.1520 H   0  0  0  0  0  0  0  0  0  0  0  0
   39.9545   27.2136   29.8753 H   0  0  0  0  0  0  0  0  0  0  0  0
   39.1573   28.8710   27.9287 H   0  0  0  0  0  0  0  0  0  0  0  0
   37.2247   24.8540   38.5022 H   0  0  0  0  0  0  0  0  0  0  0  0
   38.2014   22.6348   39.1507 H   0  0  0  0  0  0  0  0  0  0  0  0
   42.3434   23.7028   37.0878 H   0  0  0  0  0  0  0  0  0  0  0  0
   44.7595   22.9207   37.2505 H   0  0  0  0  0  0  0  0  0  0  0  0
   45.5330   22.1719   35.8126 H   0  0  0  0  0  0  0  0  0  0  0  0
   45.1453   23.9258   35.8126 H   0  0  0  0  0  0  0  0  0  0  0  0
   42.0377   21.0552   33.0752 H   0  0  0  0  0  0  0  0  0  0  0  0
  1 17  1  0
  2  1  1  0
  3  2  1  0
  3  1  1  0
  4  3  1  0
  5  4  1  0
  6  5  2  0
  7  9  1  0
  7  6  1  0
  8  7  2  0
  9 10  1  0
 10 11  2  0
 10  4  1  0
 12 13  1  0
 13 14  2  0
 14  9  1  0
 15 14  1  0
 16 12  1  0
 16 15  2  0
 17 18  2  0
 18 19  1  0
 20 19  2  0
 21 20  1  0
 22 21  2  0
 22 17  1  0
 23 24  1  0
 23 21  1  0
 25 26  1  0
 25 24  2  0
 27 25  1  0
 28 27  2  0
 29 27  1  0
 29 30  1  0
 30 23  1  0
 31 30  2  0
  1 32  1  1
  2 33  1  0
  2 34  1  0
  3 35  1  1
  5 36  1  0
  6 37  1  0
 12 38  1  0
 15 39  1  0
 16 40  1  0
 18 41  1  0
 19 42  1  0
 24 43  1  0
 26 44  1  0
 26 45  1  0
 26 46  1  0
 29 47  1  0
M  ISO  8  32  13  33  13  34  13  35  13  36  14  37  14  38   9  39  14
M  ISO  8  40  14  41  14  42  14  43  14  44   8  45   8  46   8  47   9
M  END
>  <minimizedAffinity>  (1) 
-6.45818043

>  <minimizedRMSD>  (1) 
0.103443883

$$$$
