
     RDKit          3D

 50 55  0  0  1  0  0  0  0  0999 V2000
   38.0220   26.2270   36.4680 C   0  0  1  0  0  0  0  0  0  0  0  0
   38.7090   27.2670   35.6640 C   0  0  0  0  0  0  0  0  0  0  0  0
   37.4690   26.5900   35.1470 C   0  0  1  0  0  0  0  0  0  0  0  0
   37.6330   25.9320   33.9160 N   0  0  0  0  0  0  0  0  0  0  0  0
   37.7660   24.6160   33.6940 C   0  0  0  0  0  0  0  0  0  0  0  0
   37.9240   24.0390   32.4620 C   0  0  0  0  0  0  0  0  0  0  0  0
   37.9470   24.8660   31.3360 C   0  0  0  0  0  0  0  0  0  0  0  0
   38.0880   24.3940   30.1820 O   0  0  0  0  0  0  0  0  0  0  0  0
   37.8150   26.2170   31.4800 N   0  0  0  0  0  0  0  0  0  0  0  0
   37.6680   26.6760   32.7470 C   0  0  0  0  0  0  0  0  0  0  0  0
   37.5450   27.9420   32.8590 O   0  0  0  0  0  0  0  0  0  0  0  0
   37.0760   28.5010   28.8430 N   0  0  0  0  0  0  0  0  0  0  0  0
   36.7200   27.7240   29.8360 N   0  0  0  0  0  0  0  0  0  0  0  0
   37.8050   27.1250   30.3880 C   0  0  0  0  0  0  0  0  0  0  0  0
   38.8860   27.5690   29.6840 C   0  0  0  0  0  0  0  0  0  0  0  0
   38.4250   28.4310   28.7160 C   0  0  0  0  0  0  0  0  0  0  0  0
   38.6790   24.9340   36.7590 C   0  0  0  0  0  0  0  0  0  0  0  0
   38.1790   24.1880   37.8120 C   0  0  0  0  0  0  0  0  0  0  0  0
   38.7650   22.9880   38.1400 C   0  0  0  0  0  0  0  0  0  0  0  0
   39.8340   22.6010   37.3810 N   0  0  0  0  0  0  0  0  0  0  0  0
   40.3110   23.3340   36.3610 C   0  0  0  0  0  0  0  0  0  0  0  0
   39.7210   24.4910   36.0690 N   0  0  0  0  0  0  0  0  0  0  0  0
   41.4550   22.6950   35.7190 C   0  0  0  0  0  0  0  0  0  0  0  0
   41.2830   21.6510   34.8280 C   0  0  0  0  0  0  0  0  0  0  0  0
   42.2990   20.9970   34.1840 C   0  0  0  0  0  0  0  0  0  0  0  0
   43.5920   21.3550   34.3960 C   0  0  0  0  0  0  0  0  0  0  0  0
   43.8290   22.3890   35.2750 C   0  0  0  0  0  0  0  0  0  0  0  0
   45.1420   22.7530   35.4890 C   0  0  0  0  0  0  0  0  0  0  0  0
   45.4630   23.7780   36.3540 C   0  0  0  0  0  0  0  0  0  0  0  0
   44.4000   24.4160   36.9880 C   0  0  0  0  0  0  0  0  0  0  0  0
   43.1050   24.0160   36.7390 C   0  0  0  0  0  0  0  0  0  0  0  0
   42.7670   23.0100   35.8930 C   0  0  0  0  0  0  0  0  0  0  0  0
   37.5881   26.1677   37.4771 H   0  0  0  0  0  0  0  0  0  0  0  0
   38.6727   28.3207   35.9776 H   0  0  0  0  0  0  0  0  0  0  0  0
   39.7323   27.4168   35.2893 H   0  0  0  0  0  0  0  0  0  0  0  0
   36.4277   26.7989   34.8605 H   0  0  0  0  0  0  0  0  0  0  0  0
   37.7467   23.9490   34.5685 H   0  0  0  0  0  0  0  0  0  0  0  0
   38.0304   22.9488   32.3612 H   0  0  0  0  0  0  0  0  0  0  0  0
   36.4422   29.0664   28.2603 H   0  0  0  0  0  0  0  0  0  0  0  0
   39.9353   27.2887   29.8586 H   0  0  0  0  0  0  0  0  0  0  0  0
   39.0377   28.9654   27.9750 H   0  0  0  0  0  0  0  0  0  0  0  0
   37.3146   24.5542   38.3854 H   0  0  0  0  0  0  0  0  0  0  0  0
   38.3925   22.3709   38.9709 H   0  0  0  0  0  0  0  0  0  0  0  0
   40.2539   21.3219   34.6216 H   0  0  0  0  0  0  0  0  0  0  0  0
   42.0665   20.1758   33.4900 H   0  0  0  0  0  0  0  0  0  0  0  0
   44.4184   20.8390   33.8853 H   0  0  0  0  0  0  0  0  0  0  0  0
   45.9453   22.2176   34.9617 H   0  0  0  0  0  0  0  0  0  0  0  0
   46.5063   24.0766   36.5341 H   0  0  0  0  0  0  0  0  0  0  0  0
   44.5944   25.2410   37.6891 H   0  0  0  0  0  0  0  0  0  0  0  0
   42.2934   24.5459   37.2591 H   0  0  0  0  0  0  0  0  0  0  0  0
  1 17  1  0
  2  1  1  0
  3  2  1  0
  3  1  1  0
  4  3  1  0
  5  4  1  0
  6  5  2  0
  7  9  1  0
  7  6  1  0
  8  7  2  0
  9 10  1  0
 10 11  2  0
 10  4  1  0
 12 13  1  0
 13 14  2  0
 14  9  1  0
 15 14  1  0
 16 12  1  0
 16 15  2  0
 17 18  2  0
 18 19  1  0
 20 19  2  0
 21 20  1  0
 22 21  2  0
 22 17  1  0
 23 32  1  0
 23 21  1  0
 24 23  2  0
 25 26  2  0
 25 24  1  0
 26 27  1  0
 27 28  1  0
 27 32  2  0
 28 29  2  0
 29 30  1  0
 31 30  2  0
 32 31  1  0
  1 33  1  1
  2 34  1  0
  2 35  1  0
  3 36  1  1
  5 37  1  0
  6 38  1  0
 12 39  1  0
 15 40  1  0
 16 41  1  0
 18 42  1  0
 19 43  1  0
 24 44  1  0
 25 45  1  0
 26 46  1  0
 28 47  1  0
 29 48  1  0
 30 49  1  0
 31 50  1  0
M  ISO  8  33  13  34  13  35  13  36  13  37  14  38  14  39   9  40  14
M  ISO  8  41  14  42  14  43  14  44  14  45  14  46  14  47  14  48  14
M  ISO  2  49  14  50  14
M  END
>  <minimizedAffinity>  (1) 
-6.68652153

>  <minimizedRMSD>  (1) 
0.597494006

$$$$
