
     RDKit          3D

 44 48  0  0  1  0  0  0  0  0999 V2000
   37.9880   26.4190   36.5170 C   0  0  1  0  0  0  0  0  0  0  0  0
   38.8120   27.3340   35.6920 C   0  0  0  0  0  0  0  0  0  0  0  0
   37.5210   26.7900   35.1650 C   0  0  1  0  0  0  0  0  0  0  0  0
   37.6310   26.0810   33.9550 N   0  0  0  0  0  0  0  0  0  0  0  0
   37.6930   24.7510   33.7810 C   0  0  0  0  0  0  0  0  0  0  0  0
   37.8050   24.1180   32.5730 C   0  0  0  0  0  0  0  0  0  0  0  0
   37.8570   24.9060   31.4140 C   0  0  0  0  0  0  0  0  0  0  0  0
   37.9590   24.3790   30.2820 O   0  0  0  0  0  0  0  0  0  0  0  0
   37.7950   26.2650   31.5160 N   0  0  0  0  0  0  0  0  0  0  0  0
   37.6870   26.7720   32.7550 C   0  0  0  0  0  0  0  0  0  0  0  0
   37.6310   28.0470   32.8220 O   0  0  0  0  0  0  0  0  0  0  0  0
   37.1300   28.4650   28.7850 N   0  0  0  0  0  0  0  0  0  0  0  0
   36.7590   27.7450   29.8160 N   0  0  0  0  0  0  0  0  0  0  0  0
   37.8210   27.1240   30.3830 C   0  0  0  0  0  0  0  0  0  0  0  0
   38.9120   27.4880   29.6520 C   0  0  0  0  0  0  0  0  0  0  0  0
   38.4690   28.3290   28.6530 C   0  0  0  0  0  0  0  0  0  0  0  0
   38.4920   25.0620   36.8520 C   0  0  0  0  0  0  0  0  0  0  0  0
   37.9360   24.4480   37.9740 C   0  0  0  0  0  0  0  0  0  0  0  0
   38.3440   23.1910   38.3550 C   0  0  0  0  0  0  0  0  0  0  0  0
   39.2940   22.6030   37.5930 N   0  0  0  0  0  0  0  0  0  0  0  0
   39.8160   23.2230   36.5110 C   0  0  0  0  0  0  0  0  0  0  0  0
   39.4350   24.4360   36.1270 N   0  0  0  0  0  0  0  0  0  0  0  0
   40.8030   22.4540   35.8320 N   0  0  0  0  0  0  0  0  0  0  0  0
   40.8770   22.6770   34.4930 C   0  0  0  0  0  0  0  0  0  0  0  0
   41.7940   21.9980   33.6980 C   0  0  0  0  0  0  0  0  0  0  0  0
   42.6310   21.0850   34.3220 C   0  0  0  0  0  0  0  0  0  0  0  0
   43.4610   20.4660   33.6330 O   0  0  0  0  0  0  0  0  0  0  0  0
   42.5280   20.8940   35.6480 N   0  0  0  0  0  0  0  0  0  0  0  0
   41.6380   21.5520   36.4130 C   0  0  0  0  0  0  0  0  0  0  0  0
   41.4990   21.4150   37.6400 O   0  0  0  0  0  0  0  0  0  0  0  0
   37.5246   26.4549   37.5140 H   0  0  0  0  0  0  0  0  0  0  0  0
   38.8932   28.3973   35.9617 H   0  0  0  0  0  0  0  0  0  0  0  0
   39.8552   27.3450   35.3431 H   0  0  0  0  0  0  0  0  0  0  0  0
   36.5176   27.1027   34.8402 H   0  0  0  0  0  0  0  0  0  0  0  0
   37.6504   24.1201   34.6811 H   0  0  0  0  0  0  0  0  0  0  0  0
   37.8530   23.0207   32.5126 H   0  0  0  0  0  0  0  0  0  0  0  0
   36.5137   29.0313   28.1847 H   0  0  0  0  0  0  0  0  0  0  0  0
   39.9507   27.1706   29.8261 H   0  0  0  0  0  0  0  0  0  0  0  0
   39.0947   28.8055   27.8840 H   0  0  0  0  0  0  0  0  0  0  0  0
   37.1658   24.9727   38.5583 H   0  0  0  0  0  0  0  0  0  0  0  0
   37.9185   22.6886   39.2362 H   0  0  0  0  0  0  0  0  0  0  0  0
   40.1986   23.4085   34.0296 H   0  0  0  0  0  0  0  0  0  0  0  0
   41.8533   22.1783   32.6145 H   0  0  0  0  0  0  0  0  0  0  0  0
   43.1576   20.2145   36.0983 H   0  0  0  0  0  0  0  0  0  0  0  0
  1 17  1  0
  2  1  1  0
  3  2  1  0
  3  1  1  0
  4  3  1  0
  5  4  1  0
  6  5  2  0
  7  9  1  0
  7  6  1  0
  8  7  2  0
  9 10  1  0
 10 11  2  0
 10  4  1  0
 12 13  1  0
 13 14  2  0
 14  9  1  0
 15 14  1  0
 16 12  1  0
 16 15  2  0
 17 18  2  0
 18 19  1  0
 20 19  2  0
 21 20  1  0
 22 21  2  0
 22 17  1  0
 23 29  1  0
 23 21  1  0
 24 23  1  0
 25 26  1  0
 25 24  2  0
 26 28  1  0
 27 26  2  0
 28 29  1  0
 29 30  2  0
  1 31  1  1
  2 32  1  0
  2 33  1  0
  3 34  1  1
  5 35  1  0
  6 36  1  0
 12 37  1  0
 15 38  1  0
 16 39  1  0
 18 40  1  0
 19 41  1  0
 24 42  1  0
 25 43  1  0
 28 44  1  0
M  ISO  8  31  13  32  13  33  13  34  13  35  14  36  14  37   9  38  14
M  ISO  6  39  14  40  14  41  14  42  14  43  14  44   9
M  END
>  <minimizedAffinity>  (1) 
-6.40819311

>  <minimizedRMSD>  (1) 
0.309624463

$$$$
