
     RDKit          3D

 37 40  0  0  1  0  0  0  0  0999 V2000
   37.9950   26.3550   36.4900 C   0  0  1  0  0  0  0  0  0  0  0  0
   38.7730   27.3130   35.6710 C   0  0  0  0  0  0  0  0  0  0  0  0
   37.4920   26.7270   35.1500 C   0  0  1  0  0  0  0  0  0  0  0  0
   37.6160   26.0430   33.9290 N   0  0  0  0  0  0  0  0  0  0  0  0
   37.7020   24.7170   33.7380 C   0  0  0  0  0  0  0  0  0  0  0  0
   37.8280   24.1030   32.5150 C   0  0  0  0  0  0  0  0  0  0  0  0
   37.8700   24.9110   31.3690 C   0  0  0  0  0  0  0  0  0  0  0  0
   37.9850   24.4040   30.2290 O   0  0  0  0  0  0  0  0  0  0  0  0
   37.7860   26.2650   31.4910 N   0  0  0  0  0  0  0  0  0  0  0  0
   37.6640   26.7550   32.7430 C   0  0  0  0  0  0  0  0  0  0  0  0
   37.5870   28.0260   32.8280 O   0  0  0  0  0  0  0  0  0  0  0  0
   37.1100   28.5010   28.7990 N   0  0  0  0  0  0  0  0  0  0  0  0
   36.7340   27.7620   29.8150 N   0  0  0  0  0  0  0  0  0  0  0  0
   37.8050   27.1440   30.3730 C   0  0  0  0  0  0  0  0  0  0  0  0
   38.8970   27.5330   29.6510 C   0  0  0  0  0  0  0  0  0  0  0  0
   38.4470   28.3850   28.6640 C   0  0  0  0  0  0  0  0  0  0  0  0
   38.5560   25.0140   36.8010 C   0  0  0  0  0  0  0  0  0  0  0  0
   38.0520   24.3760   37.9380 C   0  0  0  0  0  0  0  0  0  0  0  0
   38.5250   23.1320   38.2920 C   0  0  0  0  0  0  0  0  0  0  0  0
   39.4760   22.5880   37.4960 N   0  0  0  0  0  0  0  0  0  0  0  0
   39.9400   23.2300   36.4090 C   0  0  0  0  0  0  0  0  0  0  0  0
   39.5000   24.4300   36.0450 N   0  0  0  0  0  0  0  0  0  0  0  0
   40.9640   22.5280   35.6390 C   0  0  0  0  0  0  0  0  0  0  0  0
   41.1930   22.8610   34.4490 O   0  0  0  0  0  0  0  0  0  0  0  0
   41.7410   21.4870   36.1180 O   0  0  0  0  0  0  0  0  0  0  0  0
   37.5435   26.3580   37.4931 H   0  0  0  0  0  0  0  0  0  0  0  0
   38.8178   28.3741   35.9573 H   0  0  0  0  0  0  0  0  0  0  0  0
   39.8103   27.3691   35.3093 H   0  0  0  0  0  0  0  0  0  0  0  0
   36.4723   27.0041   34.8444 H   0  0  0  0  0  0  0  0  0  0  0  0
   37.6691   24.0725   34.6288 H   0  0  0  0  0  0  0  0  0  0  0  0
   37.8941   23.0078   32.4368 H   0  0  0  0  0  0  0  0  0  0  0  0
   36.4908   29.0719   28.2060 H   0  0  0  0  0  0  0  0  0  0  0  0
   39.9387   27.2250   29.8239 H   0  0  0  0  0  0  0  0  0  0  0  0
   39.0674   28.8810   27.9031 H   0  0  0  0  0  0  0  0  0  0  0  0
   37.2795   24.8664   38.5485 H   0  0  0  0  0  0  0  0  0  0  0  0
   38.1477   22.6045   39.1805 H   0  0  0  0  0  0  0  0  0  0  0  0
   42.4158   21.0623   35.5312 H   0  0  0  0  0  0  0  0  0  0  0  0
  1 17  1  0
  2  1  1  0
  3  2  1  0
  3  1  1  0
  4  3  1  0
  5  4  1  0
  6  5  2  0
  7  9  1  0
  7  6  1  0
  8  7  2  0
  9 10  1  0
 10 11  2  0
 10  4  1  0
 12 13  1  0
 13 14  2  0
 14  9  1  0
 15 14  1  0
 16 12  1  0
 16 15  2  0
 17 18  2  0
 18 19  1  0
 20 19  2  0
 21 20  1  0
 22 21  2  0
 22 17  1  0
 23 25  1  0
 23 21  1  0
 24 23  2  0
  1 26  1  1
  2 27  1  0
  2 28  1  0
  3 29  1  1
  5 30  1  0
  6 31  1  0
 12 32  1  0
 15 33  1  0
 16 34  1  0
 18 35  1  0
 19 36  1  0
 25 37  1  0
M  ISO  8  26  13  27  13  28  13  29  13  30  14  31  14  32   9  33  14
M  ISO  4  34  14  35  14  36  14  37   3
M  END
>  <minimizedAffinity>  (1) 
-5.43254709

>  <minimizedRMSD>  (1) 
0.135009035

$$$$
