
     RDKit          3D

 39 41  0  0  0  0  0  0  0  0999 V2000
   38.2940   23.7760   34.6900 N   0  0  0  0  0  0  0  0  0  0  0  0
   38.3260   22.8250   33.7580 N   0  0  0  0  0  0  0  0  0  0  0  0
   38.0790   23.3150   32.5460 C   0  0  0  0  0  0  0  0  0  0  0  0
   37.8750   24.6850   32.7360 C   0  0  0  0  0  0  0  0  0  0  0  0
   38.0140   24.9560   34.0890 C   0  0  0  0  0  0  0  0  0  0  0  0
   37.5130   23.8970   36.9810 C   0  0  0  0  0  0  0  0  0  0  0  0
   38.5140   23.5780   36.0630 C   0  0  0  0  0  0  0  0  0  0  0  0
   39.7380   23.0600   36.5070 C   0  0  0  0  0  0  0  0  0  0  0  0
   39.8670   22.9000   37.8630 N   0  0  0  0  0  0  0  0  0  0  0  0
   38.9040   23.2080   38.7260 C   0  0  0  0  0  0  0  0  0  0  0  0
   37.7200   23.7090   38.2900 N   0  0  0  0  0  0  0  0  0  0  0  0
   37.8770   26.2390   34.6720 N   0  0  0  0  0  0  0  0  0  0  0  0
   38.9670   26.9570   35.2640 C   0  0  0  0  0  0  0  0  0  0  0  0
   40.1270   26.8070   34.6500 N   0  0  0  0  0  0  0  0  0  0  0  0
   38.6880   27.7460   36.4330 N   0  0  0  0  0  0  0  0  0  0  0  0
   40.9040   27.3460   35.0910 H   0  0  0  0  0  0  0  0  0  0  0  0
   37.5800   25.5560   31.6490 N   0  0  0  0  0  0  0  0  0  0  0  0
   38.5220   25.9130   30.6160 C   0  0  0  0  0  0  0  0  0  0  0  0
   38.6850   27.3810   30.4250 C   0  0  0  0  0  0  0  0  0  0  0  0
   37.5210   28.1620   30.9960 C   0  0  0  0  0  0  0  0  0  0  0  0
   36.2790   27.3530   30.6010 C   0  0  0  0  0  0  0  0  0  0  0  0
   36.2700   26.1620   31.5090 C   0  0  0  0  0  0  0  0  0  0  0  0
   38.0430   22.7604   31.5967 H   0  0  0  0  0  0  0  0  0  0  0  0
   36.5533   24.3032   36.6289 H   0  0  0  0  0  0  0  0  0  0  0  0
   40.5471   22.7974   35.8096 H   0  0  0  0  0  0  0  0  0  0  0  0
   39.0679   23.0556   39.8030 H   0  0  0  0  0  0  0  0  0  0  0  0
   36.9458   26.6791   34.6706 H   0  0  0  0  0  0  0  0  0  0  0  0
   39.4440   28.2770   36.8884 H   0  0  0  0  0  0  0  0  0  0  0  0
   37.7321   27.7803   36.8151 H   0  0  0  0  0  0  0  0  0  0  0  0
   39.5017   25.4877   30.8794 H   0  0  0  0  0  0  0  0  0  0  0  0
   38.1256   25.5116   29.6717 H   0  0  0  0  0  0  0  0  0  0  0  0
   39.6090   27.7036   30.9271 H   0  0  0  0  0  0  0  0  0  0  0  0
   38.7282   27.5793   29.3439 H   0  0  0  0  0  0  0  0  0  0  0  0
   37.6035   28.2368   32.0903 H   0  0  0  0  0  0  0  0  0  0  0  0
   37.4847   29.1934   30.6152 H   0  0  0  0  0  0  0  0  0  0  0  0
   35.3681   27.9527   30.7449 H   0  0  0  0  0  0  0  0  0  0  0  0
   36.3050   27.0576   29.5417 H   0  0  0  0  0  0  0  0  0  0  0  0
   35.9210   26.4795   32.5027 H   0  0  0  0  0  0  0  0  0  0  0  0
   35.6015   25.4100   31.0646 H   0  0  0  0  0  0  0  0  0  0  0  0
  1  7  1  0
  2  1  1  0
  3  4  1  0
  3  2  2  0
  4  5  2  0
  5 12  1  0
  5  1  1  0
  6 11  2  0
  7  8  2  0
  7  6  1  0
  8  9  1  0
  9 10  2  0
 11 10  1  0
 12 13  1  0
 13 15  1  0
 14 16  1  0
 14 13  2  0
 17  4  1  0
 18 17  1  0
 19 18  1  0
 19 20  1  0
 21 20  1  0
 21 22  1  0
 22 17  1  0
  3 23  1  0
  6 24  1  0
  8 25  1  0
 10 26  1  0
 12 27  1  0
 15 28  1  0
 15 29  1  0
 18 30  1  0
 18 31  1  0
 19 32  1  0
 19 33  1  0
 20 34  1  0
 20 35  1  0
 21 36  1  0
 21 37  1  0
 22 38  1  0
 22 39  1  0
M  ISO  8  23  14  24  14  25  14  26  14  30  13  31  13  32  13  33  13
M  ISO  6  34  13  35  13  36  13  37  13  38  13  39  13
M  END
>  <minimizedAffinity>  (1) 
-5.30411148

>  <minimizedRMSD>  (1) 
1.2361902

$$$$
