
     RDKit          3D

 31 32  0  0  0  0  0  0  0  0999 V2000
   38.0260   24.1260   34.2770 N   0  0  0  0  0  0  0  0  0  0  0  0
   37.8380   23.3790   33.1900 N   0  0  0  0  0  0  0  0  0  0  0  0
   37.2650   24.0760   32.2180 C   0  0  0  0  0  0  0  0  0  0  0  0
   37.0710   25.3470   32.7090 C   0  0  0  0  0  0  0  0  0  0  0  0
   37.5620   25.3600   34.0210 C   0  0  0  0  0  0  0  0  0  0  0  0
   37.8260   23.5740   36.6210 C   0  0  0  0  0  0  0  0  0  0  0  0
   38.6060   23.6850   35.4670 C   0  0  0  0  0  0  0  0  0  0  0  0
   39.9650   23.3530   35.5090 C   0  0  0  0  0  0  0  0  0  0  0  0
   40.4620   22.9300   36.7070 N   0  0  0  0  0  0  0  0  0  0  0  0
   39.7100   22.8270   37.8090 C   0  0  0  0  0  0  0  0  0  0  0  0
   38.3850   23.1510   37.7660 N   0  0  0  0  0  0  0  0  0  0  0  0
   37.5470   26.5000   34.8920 N   0  0  0  0  0  0  0  0  0  0  0  0
   38.7250   27.1260   35.3870 C   0  0  0  0  0  0  0  0  0  0  0  0
   39.7300   27.1640   34.5480 N   0  0  0  0  0  0  0  0  0  0  0  0
   38.6890   27.6380   36.7300 N   0  0  0  0  0  0  0  0  0  0  0  0
   40.5840   27.6240   34.9270 H   0  0  0  0  0  0  0  0  0  0  0  0
   36.5080   26.4930   32.0830 N   0  0  0  0  0  0  0  0  0  0  0  0
   35.9820   26.4510   30.7800 C   0  0  0  0  0  0  0  0  0  0  0  0
   35.2090   25.4840   30.4630 N   0  0  0  0  0  0  0  0  0  0  0  0
   36.2940   27.4720   29.8220 N   0  0  0  0  0  0  0  0  0  0  0  0
   34.9110   24.7080   31.0570 H   0  0  0  0  0  0  0  0  0  0  0  0
   36.9973   23.7100   31.2158 H   0  0  0  0  0  0  0  0  0  0  0  0
   36.7572   23.8324   36.5914 H   0  0  0  0  0  0  0  0  0  0  0  0
   40.6034   23.4297   34.6165 H   0  0  0  0  0  0  0  0  0  0  0  0
   40.1604   22.4807   38.7509 H   0  0  0  0  0  0  0  0  0  0  0  0
   36.6346   26.8859   35.1741 H   0  0  0  0  0  0  0  0  0  0  0  0
   39.5199   28.0986   37.1280 H   0  0  0  0  0  0  0  0  0  0  0  0
   37.8324   27.5442   37.2941 H   0  0  0  0  0  0  0  0  0  0  0  0
   36.4848   27.3829   32.6012 H   0  0  0  0  0  0  0  0  0  0  0  0
   35.8993   27.4246   28.8718 H   0  0  0  0  0  0  0  0  0  0  0  0
   36.9128   28.2525   30.0843 H   0  0  0  0  0  0  0  0  0  0  0  0
  1  7  1  0
  2  1  1  0
  3  4  1  0
  3  2  2  0
  4  5  2  0
  5  1  1  0
  5 12  1  0
  6 11  2  0
  7  8  2  0
  7  6  1  0
  8  9  1  0
  9 10  2  0
 11 10  1  0
 12 13  1  0
 13 15  1  0
 14 16  1  0
 14 13  2  0
 17  4  1  0
 18 17  1  0
 19 18  2  0
 19 21  1  0
 20 18  1  0
  3 22  1  0
  6 23  1  0
  8 24  1  0
 10 25  1  0
 12 26  1  0
 15 27  1  0
 15 28  1  0
 17 29  1  0
 20 30  1  0
 20 31  1  0
M  ISO  4  22  14  23  14  24  14  25  14
M  END
>  <minimizedAffinity>  (1) 
-5.13347435

>  <minimizedRMSD>  (1) 
1.0472647

$$$$
