
     RDKit          3D

 30 31  0  0  0  0  0  0  0  0999 V2000
   38.0440   23.6950   34.7240 N   0  0  0  0  0  0  0  0  0  0  0  0
   37.9890   22.7210   33.8310 N   0  0  0  0  0  0  0  0  0  0  0  0
   37.6480   23.1560   32.6280 C   0  0  0  0  0  0  0  0  0  0  0  0
   37.4770   24.5190   32.7810 C   0  0  0  0  0  0  0  0  0  0  0  0
   37.7290   24.8600   34.1120 C   0  0  0  0  0  0  0  0  0  0  0  0
   37.4760   23.8950   37.0660 C   0  0  0  0  0  0  0  0  0  0  0  0
   38.3750   23.5430   36.0770 C   0  0  0  0  0  0  0  0  0  0  0  0
   39.6400   23.0280   36.4380 C   0  0  0  0  0  0  0  0  0  0  0  0
   39.8870   22.9110   37.7820 N   0  0  0  0  0  0  0  0  0  0  0  0
   38.9990   23.2600   38.7130 C   0  0  0  0  0  0  0  0  0  0  0  0
   37.7910   23.7520   38.3700 N   0  0  0  0  0  0  0  0  0  0  0  0
   37.6550   26.1780   34.6630 N   0  0  0  0  0  0  0  0  0  0  0  0
   38.7920   26.8960   35.1250 C   0  0  0  0  0  0  0  0  0  0  0  0
   39.8870   26.7200   34.4210 N   0  0  0  0  0  0  0  0  0  0  0  0
   38.6270   27.7200   36.2930 N   0  0  0  0  0  0  0  0  0  0  0  0
   40.7120   27.2460   34.7740 H   0  0  0  0  0  0  0  0  0  0  0  0
   37.0880   25.4930   31.7230 C   0  0  0  0  0  0  0  0  0  0  0  0
   35.7130   25.2350   31.1560 C   0  0  0  0  0  0  0  0  0  0  0  0
   37.5274   22.5633   31.7092 H   0  0  0  0  0  0  0  0  0  0  0  0
   36.4910   24.2969   36.7863 H   0  0  0  0  0  0  0  0  0  0  0  0
   40.3854   22.7370   35.6832 H   0  0  0  0  0  0  0  0  0  0  0  0
   39.2553   23.1450   39.7765 H   0  0  0  0  0  0  0  0  0  0  0  0
   36.7316   26.6296   34.7284 H   0  0  0  0  0  0  0  0  0  0  0  0
   39.4250   28.2570   36.6613 H   0  0  0  0  0  0  0  0  0  0  0  0
   37.7109   27.7728   36.7608 H   0  0  0  0  0  0  0  0  0  0  0  0
   37.1041   26.5043   32.1554 H   0  0  0  0  0  0  0  0  0  0  0  0
   37.8079   25.3857   30.8982 H   0  0  0  0  0  0  0  0  0  0  0  0
   34.9961   25.1005   31.9794 H   0  0  0  0  0  0  0  0  0  0  0  0
   35.4048   26.0910   30.5377 H   0  0  0  0  0  0  0  0  0  0  0  0
   35.7361   24.3255   30.5377 H   0  0  0  0  0  0  0  0  0  0  0  0
  1  7  1  0
  2  1  1  0
  3  4  1  0
  3  2  2  0
  4  5  2  0
  5 12  1  0
  5  1  1  0
  6 11  2  0
  7  8  2  0
  7  6  1  0
  8  9  1  0
  9 10  2  0
 11 10  1  0
 12 13  1  0
 13 15  1  0
 14 16  1  0
 14 13  2  0
 17  4  1  0
 18 17  1  0
  3 19  1  0
  6 20  1  0
  8 21  1  0
 10 22  1  0
 12 23  1  0
 15 24  1  0
 15 25  1  0
 17 26  1  0
 17 27  1  0
 18 28  1  0
 18 29  1  0
 18 30  1  0
M  ISO  8  19  14  20  14  21  14  22  14  26   8  27   8  28   8  29   8
M  ISO  1  30   8
M  END
>  <minimizedAffinity>  (1) 
-4.68936062

>  <minimizedRMSD>  (1) 
0.163060173

$$$$
