
     RDKit          3D

 32 34  0  0  0  0  0  0  0  0999 V2000
   38.3840   23.8770   34.6110 N   0  0  0  0  0  0  0  0  0  0  0  0
   38.5070   22.9930   33.6210 N   0  0  0  0  0  0  0  0  0  0  0  0
   38.3030   23.5570   32.4330 C   0  0  0  0  0  0  0  0  0  0  0  0
   38.0360   24.8810   32.7040 C   0  0  0  0  0  0  0  0  0  0  0  0
   38.0860   25.0860   34.0770 C   0  0  0  0  0  0  0  0  0  0  0  0
   37.4620   23.7310   36.8450 C   0  0  0  0  0  0  0  0  0  0  0  0
   38.5400   23.5870   35.9720 C   0  0  0  0  0  0  0  0  0  0  0  0
   39.7780   23.1530   36.4530 C   0  0  0  0  0  0  0  0  0  0  0  0
   39.8530   22.8890   37.7960 N   0  0  0  0  0  0  0  0  0  0  0  0
   38.8220   23.0280   38.6240 C   0  0  0  0  0  0  0  0  0  0  0  0
   37.6230   23.4500   38.1500 N   0  0  0  0  0  0  0  0  0  0  0  0
   37.8640   26.3240   34.7540 N   0  0  0  0  0  0  0  0  0  0  0  0
   38.9180   27.0530   35.3900 C   0  0  0  0  0  0  0  0  0  0  0  0
   40.0820   27.0110   34.7840 N   0  0  0  0  0  0  0  0  0  0  0  0
   38.5900   27.7460   36.6100 N   0  0  0  0  0  0  0  0  0  0  0  0
   40.8290   27.5640   35.2590 H   0  0  0  0  0  0  0  0  0  0  0  0
   37.7440   25.9180   31.7200 C   0  0  0  0  0  0  0  0  0  0  0  0
   38.7370   26.3570   30.8690 C   0  0  0  0  0  0  0  0  0  0  0  0
   38.3840   27.3430   29.9620 C   0  0  0  0  0  0  0  0  0  0  0  0
   37.1400   27.8740   29.8820 N   0  0  0  0  0  0  0  0  0  0  0  0
   36.1930   27.4040   30.7470 C   0  0  0  0  0  0  0  0  0  0  0  0
   36.5120   26.4460   31.6370 N   0  0  0  0  0  0  0  0  0  0  0  0
   38.3397   23.0707   31.4470 H   0  0  0  0  0  0  0  0  0  0  0  0
   36.4864   24.0722   36.4684 H   0  0  0  0  0  0  0  0  0  0  0  0
   40.6464   23.0297   35.7891 H   0  0  0  0  0  0  0  0  0  0  0  0
   38.9413   22.8008   39.6936 H   0  0  0  0  0  0  0  0  0  0  0  0
   36.9082   26.7066   34.7855 H   0  0  0  0  0  0  0  0  0  0  0  0
   39.3136   28.2853   37.1065 H   0  0  0  0  0  0  0  0  0  0  0  0
   37.6319   27.7021   36.9856 H   0  0  0  0  0  0  0  0  0  0  0  0
   39.7564   25.9455   30.9085 H   0  0  0  0  0  0  0  0  0  0  0  0
   39.1544   27.7144   29.2702 H   0  0  0  0  0  0  0  0  0  0  0  0
   35.1704   27.8082   30.7162 H   0  0  0  0  0  0  0  0  0  0  0  0
  1  7  1  0
  2  1  1  0
  3  4  1  0
  3  2  2  0
  4  5  2  0
  5  1  1  0
  5 12  1  0
  6 11  2  0
  7  8  2  0
  7  6  1  0
  8  9  1  0
  9 10  2  0
 11 10  1  0
 12 13  1  0
 13 15  1  0
 14 16  1  0
 14 13  2  0
 17  4  1  0
 18 17  2  0
 19 18  1  0
 20 19  2  0
 20 21  1  0
 21 22  2  0
 22 17  1  0
  3 23  1  0
  6 24  1  0
  8 25  1  0
 10 26  1  0
 12 27  1  0
 15 28  1  0
 15 29  1  0
 18 30  1  0
 19 31  1  0
 21 32  1  0
M  ISO  7  23  14  24  14  25  14  26  14  30  14  31  14  32  14
M  END
>  <minimizedAffinity>  (1) 
-4.81625557

>  <minimizedRMSD>  (1) 
0.7147488

$$$$
