
     RDKit          3D

 26 27  0  0  0  0  0  0  0  0999 V2000
   38.0790   23.6880   34.7260 N   0  0  0  0  0  0  0  0  0  0  0  0
   38.0190   22.6960   33.8450 N   0  0  0  0  0  0  0  0  0  0  0  0
   37.7140   23.1430   32.6250 C   0  0  0  0  0  0  0  0  0  0  0  0
   37.5770   24.5090   32.7660 C   0  0  0  0  0  0  0  0  0  0  0  0
   37.8060   24.8550   34.0920 C   0  0  0  0  0  0  0  0  0  0  0  0
   37.4570   23.9170   37.0570 C   0  0  0  0  0  0  0  0  0  0  0  0
   38.3760   23.5500   36.0930 C   0  0  0  0  0  0  0  0  0  0  0  0
   39.6310   23.0280   36.4820 C   0  0  0  0  0  0  0  0  0  0  0  0
   39.8590   22.9190   37.8220 N   0  0  0  0  0  0  0  0  0  0  0  0
   38.9540   23.2810   38.7440 C   0  0  0  0  0  0  0  0  0  0  0  0
   37.7610   23.7750   38.3590 N   0  0  0  0  0  0  0  0  0  0  0  0
   37.7560   26.1770   34.6340 N   0  0  0  0  0  0  0  0  0  0  0  0
   38.8910   26.8330   35.1840 C   0  0  0  0  0  0  0  0  0  0  0  0
   40.0310   26.5840   34.5790 N   0  0  0  0  0  0  0  0  0  0  0  0
   38.6690   27.6860   36.3270 N   0  0  0  0  0  0  0  0  0  0  0  0
   40.8500   27.0710   35.0020 H   0  0  0  0  0  0  0  0  0  0  0  0
   37.2440   25.4680   31.7160 C   0  0  0  0  0  0  0  0  0  0  0  0
   36.0570   25.5250   31.2980 O   0  0  0  0  0  0  0  0  0  0  0  0
   37.5971   22.5505   31.7056 H   0  0  0  0  0  0  0  0  0  0  0  0
   36.4792   24.3243   36.7602 H   0  0  0  0  0  0  0  0  0  0  0  0
   40.3855   22.7251   35.7411 H   0  0  0  0  0  0  0  0  0  0  0  0
   39.1859   23.1745   39.8140 H   0  0  0  0  0  0  0  0  0  0  0  0
   36.8558   26.6774   34.6256 H   0  0  0  0  0  0  0  0  0  0  0  0
   39.4605   28.1826   36.7604 H   0  0  0  0  0  0  0  0  0  0  0  0
   37.7191   27.7981   36.7092 H   0  0  0  0  0  0  0  0  0  0  0  0
   38.0167   26.1294   31.2972 H   0  0  0  0  0  0  0  0  0  0  0  0
  1  7  1  0
  2  1  1  0
  3  4  1  0
  3  2  2  0
  4  5  2  0
  5 12  1  0
  5  1  1  0
  6 11  2  0
  7  8  2  0
  7  6  1  0
  8  9  1  0
  9 10  2  0
 11 10  1  0
 12 13  1  0
 13 15  1  0
 14 16  1  0
 14 13  2  0
 17  4  1  0
 18 17  2  0
  3 19  1  0
  6 20  1  0
  8 21  1  0
 10 22  1  0
 12 23  1  0
 15 24  1  0
 15 25  1  0
 17 26  1  0
M  ISO  5  19  14  20  14  21  14  22  14  26   6
M  END
>  <minimizedAffinity>  (1) 
-4.57612896

>  <minimizedRMSD>  (1) 
0.0575126298

$$$$
