
     RDKit          3D

 43 46  0  0  0  0  0  0  0  0999 V2000
   39.5150   23.6840   34.5010 N   0  0  0  0  0  0  0  0  0  0  0  0
   40.0430   22.7690   33.7010 N   0  0  0  0  0  0  0  0  0  0  0  0
   40.2650   23.2700   32.4850 C   0  0  0  0  0  0  0  0  0  0  0  0
   39.8390   24.5960   32.5460 C   0  0  0  0  0  0  0  0  0  0  0  0
   39.3660   24.8520   33.8220 C   0  0  0  0  0  0  0  0  0  0  0  0
   39.9290   25.4410   31.4140 N   0  0  0  0  0  0  0  0  0  0  0  0
   40.9330   26.0610   30.7600 C   0  0  0  0  0  0  0  0  0  0  0  0
   40.4030   26.7730   29.6920 C   0  0  0  0  0  0  0  0  0  0  0  0
   39.0620   26.5670   29.7180 N   0  0  0  0  0  0  0  0  0  0  0  0
   38.7920   25.7580   30.7650 C   0  0  0  0  0  0  0  0  0  0  0  0
   37.4070   25.4670   30.9020 N   0  0  0  0  0  0  0  0  0  0  0  0
   36.6640   24.2220   31.1490 C   0  0  0  0  0  0  0  0  0  0  0  0
   35.2080   24.6190   31.0610 C   0  0  0  0  0  0  0  0  0  0  0  0
   35.1890   26.0990   31.3750 C   0  0  0  0  0  0  0  0  0  0  0  0
   36.4790   26.5750   30.7850 C   0  0  0  0  0  0  0  0  0  0  0  0
   37.8360   23.6750   36.2550 C   0  0  0  0  0  0  0  0  0  0  0  0
   39.1600   23.4830   35.8500 C   0  0  0  0  0  0  0  0  0  0  0  0
   40.1280   23.0910   36.7840 C   0  0  0  0  0  0  0  0  0  0  0  0
   39.6950   22.9180   38.0740 N   0  0  0  0  0  0  0  0  0  0  0  0
   38.4390   23.1020   38.4510 C   0  0  0  0  0  0  0  0  0  0  0  0
   37.4930   23.4840   37.5390 N   0  0  0  0  0  0  0  0  0  0  0  0
   38.8530   26.0980   34.2510 N   0  0  0  0  0  0  0  0  0  0  0  0
   39.5320   26.9570   35.1650 C   0  0  0  0  0  0  0  0  0  0  0  0
   40.8540   26.9800   35.0290 N   0  0  0  0  0  0  0  0  0  0  0  0
   38.7440   27.6880   36.1140 N   0  0  0  0  0  0  0  0  0  0  0  0
   41.3310   27.6200   35.7000 H   0  0  0  0  0  0  0  0  0  0  0  0
   40.6937   22.7473   31.6172 H   0  0  0  0  0  0  0  0  0  0  0  0
   41.9984   26.0107   31.0290 H   0  0  0  0  0  0  0  0  0  0  0  0
   40.9608   27.3841   28.9671 H   0  0  0  0  0  0  0  0  0  0  0  0
   36.9070   23.4676   30.3862 H   0  0  0  0  0  0  0  0  0  0  0  0
   36.9148   23.7742   32.1219 H   0  0  0  0  0  0  0  0  0  0  0  0
   34.8164   24.4327   30.0501 H   0  0  0  0  0  0  0  0  0  0  0  0
   34.5782   24.0405   31.7529 H   0  0  0  0  0  0  0  0  0  0  0  0
   34.3289   26.5944   30.9009 H   0  0  0  0  0  0  0  0  0  0  0  0
   35.0925   26.3170   32.4489 H   0  0  0  0  0  0  0  0  0  0  0  0
   36.8540   27.4474   31.3402 H   0  0  0  0  0  0  0  0  0  0  0  0
   36.3520   26.8843   29.7370 H   0  0  0  0  0  0  0  0  0  0  0  0
   37.0755   23.9824   35.5221 H   0  0  0  0  0  0  0  0  0  0  0  0
   41.1781   22.9307   36.4983 H   0  0  0  0  0  0  0  0  0  0  0  0
   38.1547   22.9470   39.5023 H   0  0  0  0  0  0  0  0  0  0  0  0
   37.9399   26.4016   33.8837 H   0  0  0  0  0  0  0  0  0  0  0  0
   39.2026   28.3172   36.7883 H   0  0  0  0  0  0  0  0  0  0  0  0
   37.7193   27.5839   36.1214 H   0  0  0  0  0  0  0  0  0  0  0  0
  1 17  1  0
  2  1  1  0
  3  4  1  0
  3  2  2  0
  4  5  2  0
  5 22  1  0
  5  1  1  0
  6  4  1  0
  7  6  1  0
  8  9  1  0
  8  7  2  0
  9 10  2  0
 10 11  1  0
 10  6  1  0
 11 12  1  0
 13 12  1  0
 13 14  1  0
 15 11  1  0
 15 14  1  0
 16 21  2  0
 17 16  1  0
 17 18  2  0
 18 19  1  0
 19 20  2  0
 21 20  1  0
 22 23  1  0
 23 25  1  0
 24 23  2  0
 24 26  1  0
  3 27  1  0
  7 28  1  0
  8 29  1  0
 12 30  1  0
 12 31  1  0
 13 32  1  0
 13 33  1  0
 14 34  1  0
 14 35  1  0
 15 36  1  0
 15 37  1  0
 16 38  1  0
 18 39  1  0
 20 40  1  0
 22 41  1  0
 25 42  1  0
 25 43  1  0
M  ISO  8  27  14  28  14  29  14  30  13  31  13  32  13  33  13  34  13
M  ISO  6  35  13  36  13  37  13  38  14  39  14  40  14
M  END
>  <minimizedAffinity>  (1) 
-5.64031315

>  <minimizedRMSD>  (1) 
2.51017618

$$$$
