
     RDKit          3D

 38 41  0  0  0  0  0  0  0  0999 V2000
   39.4650   23.5180   34.6500 N   0  0  0  0  0  0  0  0  0  0  0  0
   39.9570   22.5470   33.8990 N   0  0  0  0  0  0  0  0  0  0  0  0
   40.1710   22.9700   32.6490 C   0  0  0  0  0  0  0  0  0  0  0  0
   39.7790   24.2950   32.6460 C   0  0  0  0  0  0  0  0  0  0  0  0
   39.3330   24.6390   33.9140 C   0  0  0  0  0  0  0  0  0  0  0  0
   37.8140   23.6450   36.4370 C   0  0  0  0  0  0  0  0  0  0  0  0
   39.1310   23.3950   36.0180 C   0  0  0  0  0  0  0  0  0  0  0  0
   40.0880   23.0300   36.9550 C   0  0  0  0  0  0  0  0  0  0  0  0
   39.6860   22.9330   38.2550 N   0  0  0  0  0  0  0  0  0  0  0  0
   38.4300   23.1720   38.6470 C   0  0  0  0  0  0  0  0  0  0  0  0
   37.4830   23.5320   37.7320 N   0  0  0  0  0  0  0  0  0  0  0  0
   38.8500   25.9340   34.2860 N   0  0  0  0  0  0  0  0  0  0  0  0
   39.5940   26.8240   35.1260 C   0  0  0  0  0  0  0  0  0  0  0  0
   40.9070   26.8020   34.9380 N   0  0  0  0  0  0  0  0  0  0  0  0
   38.8580   27.6270   36.0590 N   0  0  0  0  0  0  0  0  0  0  0  0
   41.4230   27.4620   35.5560 H   0  0  0  0  0  0  0  0  0  0  0  0
   39.8620   25.1010   31.4640 N   0  0  0  0  0  0  0  0  0  0  0  0
   40.8330   25.8060   30.8510 C   0  0  0  0  0  0  0  0  0  0  0  0
   40.2710   26.3820   29.7180 C   0  0  0  0  0  0  0  0  0  0  0  0
   38.9770   26.0160   29.6710 N   0  0  0  0  0  0  0  0  0  0  0  0
   38.7160   25.2320   30.7350 C   0  0  0  0  0  0  0  0  0  0  0  0
   37.3590   24.6930   30.9200 C   0  0  0  0  0  0  0  0  0  0  0  0
   36.2270   25.4780   31.1710 C   0  0  0  0  0  0  0  0  0  0  0  0
   35.1340   24.6350   31.2890 C   0  0  0  0  0  0  0  0  0  0  0  0
   35.6640   23.3680   31.1020 C   0  0  0  0  0  0  0  0  0  0  0  0
   36.9580   23.4350   30.8890 O   0  0  0  0  0  0  0  0  0  0  0  0
   40.5723   22.3890   31.8055 H   0  0  0  0  0  0  0  0  0  0  0  0
   37.0506   23.9347   35.7000 H   0  0  0  0  0  0  0  0  0  0  0  0
   41.1284   22.8272   36.6611 H   0  0  0  0  0  0  0  0  0  0  0  0
   38.1593   23.0783   39.7091 H   0  0  0  0  0  0  0  0  0  0  0  0
   37.9304   26.2381   33.9355 H   0  0  0  0  0  0  0  0  0  0  0  0
   39.3555   28.2799   36.6812 H   0  0  0  0  0  0  0  0  0  0  0  0
   37.8319   27.5508   36.1068 H   0  0  0  0  0  0  0  0  0  0  0  0
   41.8762   25.9068   31.1851 H   0  0  0  0  0  0  0  0  0  0  0  0
   40.7908   27.0223   28.9901 H   0  0  0  0  0  0  0  0  0  0  0  0
   36.2087   26.5743   31.2592 H   0  0  0  0  0  0  0  0  0  0  0  0
   34.0868   24.9082   31.4858 H   0  0  0  0  0  0  0  0  0  0  0  0
   35.0813   22.4354   31.1284 H   0  0  0  0  0  0  0  0  0  0  0  0
  1  7  1  0
  2  1  1  0
  3  2  2  0
  4  3  1  0
  4  5  2  0
  5 12  1  0
  5  1  1  0
  6 11  2  0
  7  6  1  0
  7  8  2  0
  8  9  1  0
  9 10  2  0
 11 10  1  0
 12 13  1  0
 13 15  1  0
 14 13  2  0
 14 16  1  0
 17  4  1  0
 18 17  1  0
 19 18  2  0
 20 19  1  0
 20 21  2  0
 21 22  1  0
 21 17  1  0
 22 23  2  0
 23 24  1  0
 25 24  2  0
 26 22  1  0
 26 25  1  0
  3 27  1  0
  6 28  1  0
  8 29  1  0
 10 30  1  0
 12 31  1  0
 15 32  1  0
 15 33  1  0
 18 34  1  0
 19 35  1  0
 23 36  1  0
 24 37  1  0
 25 38  1  0
M  ISO  8  27  14  28  14  29  14  30  14  34  14  35  14  36  14  37  14
M  ISO  1  38  14
M  END
>  <minimizedAffinity>  (1) 
-5.5083251

>  <minimizedRMSD>  (1) 
2.3185029

$$$$
