
     RDKit          3D

 38 41  0  0  0  0  0  0  0  0999 V2000
   38.9510   23.8290   34.6060 N   0  0  0  0  0  0  0  0  0  0  0  0
   39.2850   22.9520   33.6660 N   0  0  0  0  0  0  0  0  0  0  0  0
   39.2330   23.4980   32.4510 C   0  0  0  0  0  0  0  0  0  0  0  0
   38.8360   24.8160   32.6700 C   0  0  0  0  0  0  0  0  0  0  0  0
   38.6600   25.0160   34.0310 C   0  0  0  0  0  0  0  0  0  0  0  0
   37.7120   23.7580   36.6960 C   0  0  0  0  0  0  0  0  0  0  0  0
   38.9090   23.5630   35.9850 C   0  0  0  0  0  0  0  0  0  0  0  0
   40.0330   23.1080   36.6620 C   0  0  0  0  0  0  0  0  0  0  0  0
   39.8960   22.8760   38.0030 N   0  0  0  0  0  0  0  0  0  0  0  0
   38.7560   23.0650   38.6650 C   0  0  0  0  0  0  0  0  0  0  0  0
   37.6430   23.5120   38.0120 N   0  0  0  0  0  0  0  0  0  0  0  0
   38.2550   26.2410   34.6260 N   0  0  0  0  0  0  0  0  0  0  0  0
   39.1340   27.0360   35.4430 C   0  0  0  0  0  0  0  0  0  0  0  0
   40.4020   27.0480   35.0460 N   0  0  0  0  0  0  0  0  0  0  0  0
   38.5740   27.7160   36.5670 N   0  0  0  0  0  0  0  0  0  0  0  0
   41.0240   27.6290   35.6500 H   0  0  0  0  0  0  0  0  0  0  0  0
   38.6690   25.7220   31.5770 N   0  0  0  0  0  0  0  0  0  0  0  0
   39.5220   26.4180   30.7820 C   0  0  0  0  0  0  0  0  0  0  0  0
   38.7420   27.1360   29.8850 C   0  0  0  0  0  0  0  0  0  0  0  0
   37.4560   26.8730   30.1440 N   0  0  0  0  0  0  0  0  0  0  0  0
   37.4180   26.0110   31.1740 C   0  0  0  0  0  0  0  0  0  0  0  0
   36.0980   25.5420   31.6790 C   0  0  0  0  0  0  0  0  0  0  0  0
   35.6340   24.1520   31.1910 C   0  0  0  0  0  0  0  0  0  0  0  0
   34.9490   25.4170   30.7860 C   0  0  0  0  0  0  0  0  0  0  0  0
   39.4546   23.0149   31.4879 H   0  0  0  0  0  0  0  0  0  0  0  0
   36.8186   24.1178   36.1645 H   0  0  0  0  0  0  0  0  0  0  0  0
   40.9890   22.9419   36.1439 H   0  0  0  0  0  0  0  0  0  0  0  0
   38.7106   22.8597   39.7447 H   0  0  0  0  0  0  0  0  0  0  0  0
   37.2934   26.5737   34.4663 H   0  0  0  0  0  0  0  0  0  0  0  0
   39.1756   28.2931   37.1719 H   0  0  0  0  0  0  0  0  0  0  0  0
   37.5685   27.6293   36.7728 H   0  0  0  0  0  0  0  0  0  0  0  0
   40.6206   26.4139   30.8378 H   0  0  0  0  0  0  0  0  0  0  0  0
   39.1170   27.8058   29.0971 H   0  0  0  0  0  0  0  0  0  0  0  0
   36.2505   26.0518   32.6417 H   0  0  0  0  0  0  0  0  0  0  0  0
   36.2362   23.5873   30.4640 H   0  0  0  0  0  0  0  0  0  0  0  0
   35.3349   23.2050   31.6640 H   0  0  0  0  0  0  0  0  0  0  0  0
   35.0303   25.7680   29.7467 H   0  0  0  0  0  0  0  0  0  0  0  0
   33.9070   25.7660   30.8353 H   0  0  0  0  0  0  0  0  0  0  0  0
  1  7  1  0
  2  1  1  0
  3  4  1  0
  3  2  2  0
  4  5  2  0
  5  1  1  0
  5 12  1  0
  6 11  2  0
  7  8  2  0
  7  6  1  0
  8  9  1  0
  9 10  2  0
 11 10  1  0
 12 13  1  0
 13 15  1  0
 14 13  2  0
 14 16  1  0
 17  4  1  0
 18 17  1  0
 19 20  1  0
 19 18  2  0
 20 21  2  0
 21 17  1  0
 21 22  1  0
 23 22  1  0
 24 23  1  0
 24 22  1  0
  3 25  1  0
  6 26  1  0
  8 27  1  0
 10 28  1  0
 12 29  1  0
 15 30  1  0
 15 31  1  0
 18 32  1  0
 19 33  1  0
 22 34  1  0
 23 35  1  0
 23 36  1  0
 24 37  1  0
 24 38  1  0
M  ISO  8  25  14  26  14  27  14  28  14  32  14  33  14  34  13  35  13
M  ISO  3  36  13  37  13  38  13
M  END
>  <minimizedAffinity>  (1) 
-5.2212801

>  <minimizedRMSD>  (1) 
1.52155602

$$$$
