
     RDKit          3D

 33 35  0  0  0  0  0  0  0  0999 V2000
   38.9790   24.3020   33.7180 N   0  0  0  0  0  0  0  0  0  0  0  0
   39.1770   23.6320   32.5850 N   0  0  0  0  0  0  0  0  0  0  0  0
   38.8850   24.3970   31.5250 C   0  0  0  0  0  0  0  0  0  0  0  0
   38.4810   25.6160   32.0620 C   0  0  0  0  0  0  0  0  0  0  0  0
   38.5430   25.5480   33.4390 C   0  0  0  0  0  0  0  0  0  0  0  0
   38.0980   23.4990   35.8390 C   0  0  0  0  0  0  0  0  0  0  0  0
   39.1950   23.7790   35.0040 C   0  0  0  0  0  0  0  0  0  0  0  0
   40.4820   23.5360   35.4640 C   0  0  0  0  0  0  0  0  0  0  0  0
   40.5910   23.0230   36.7410 N   0  0  0  0  0  0  0  0  0  0  0  0
   39.5420   22.7630   37.5160 C   0  0  0  0  0  0  0  0  0  0  0  0
   38.2800   23.0000   37.0680 N   0  0  0  0  0  0  0  0  0  0  0  0
   38.2010   26.6160   34.3240 N   0  0  0  0  0  0  0  0  0  0  0  0
   39.1320   27.1310   35.2980 C   0  0  0  0  0  0  0  0  0  0  0  0
   40.4010   27.1710   34.9060 N   0  0  0  0  0  0  0  0  0  0  0  0
   38.6010   27.5380   36.5650 N   0  0  0  0  0  0  0  0  0  0  0  0
   41.0390   27.5630   35.6190 H   0  0  0  0  0  0  0  0  0  0  0  0
   38.0870   26.6910   31.2150 N   0  0  0  0  0  0  0  0  0  0  0  0
   38.7300   27.6820   30.5690 C   0  0  0  0  0  0  0  0  0  0  0  0
   37.7840   28.4330   29.8890 C   0  0  0  0  0  0  0  0  0  0  0  0
   36.5890   27.8870   30.1330 N   0  0  0  0  0  0  0  0  0  0  0  0
   36.7590   26.8240   30.9400 C   0  0  0  0  0  0  0  0  0  0  0  0
   35.6100   26.0200   31.3810 C   0  0  0  0  0  0  0  0  0  0  0  0
   34.8570   25.3580   30.5930 O   0  0  0  0  0  0  0  0  0  0  0  0
   38.9502   24.1219   30.4619 H   0  0  0  0  0  0  0  0  0  0  0  0
   37.0773   23.6926   35.4774 H   0  0  0  0  0  0  0  0  0  0  0  0
   41.3674   23.7412   34.8443 H   0  0  0  0  0  0  0  0  0  0  0  0
   39.6960   22.3538   38.5254 H   0  0  0  0  0  0  0  0  0  0  0  0
   37.2603   27.0312   34.2647 H   0  0  0  0  0  0  0  0  0  0  0  0
   39.2292   27.9118   37.2906 H   0  0  0  0  0  0  0  0  0  0  0  0
   37.5910   27.4568   36.7502 H   0  0  0  0  0  0  0  0  0  0  0  0
   39.8149   27.8636   30.5791 H   0  0  0  0  0  0  0  0  0  0  0  0
   37.9808   29.3162   29.2635 H   0  0  0  0  0  0  0  0  0  0  0  0
   35.3859   25.9874   32.4574 H   0  0  0  0  0  0  0  0  0  0  0  0
  1  7  1  0
  2  1  1  0
  3  4  1  0
  3  2  2  0
  4  5  2  0
  5  1  1  0
  5 12  1  0
  6 11  2  0
  7  8  2  0
  7  6  1  0
  8  9  1  0
  9 10  2  0
 11 10  1  0
 12 13  1  0
 13 15  1  0
 14 13  2  0
 14 16  1  0
 17  4  1  0
 18 17  1  0
 19 20  1  0
 19 18  2  0
 20 21  2  0
 21 17  1  0
 21 22  1  0
 23 22  2  0
  3 24  1  0
  6 25  1  0
  8 26  1  0
 10 27  1  0
 12 28  1  0
 15 29  1  0
 15 30  1  0
 18 31  1  0
 19 32  1  0
 22 33  1  0
M  ISO  7  24  14  25  14  26  14  27  14  31  14  32  14  33   6
M  END
>  <minimizedAffinity>  (1) 
-4.85348749

>  <minimizedRMSD>  (1) 
1.68899262

$$$$
