
     RDKit          3D

 34 36  0  0  0  0  0  0  0  0999 V2000
   38.2510   23.9120   34.6180 N   0  0  0  0  0  0  0  0  0  0  0  0
   38.3250   23.0600   33.6080 N   0  0  0  0  0  0  0  0  0  0  0  0
   38.0420   23.6640   32.4490 C   0  0  0  0  0  0  0  0  0  0  0  0
   37.7760   24.9850   32.7850 C   0  0  0  0  0  0  0  0  0  0  0  0
   37.9080   25.1380   34.1500 C   0  0  0  0  0  0  0  0  0  0  0  0
   37.4610   23.6350   36.8980 C   0  0  0  0  0  0  0  0  0  0  0  0
   38.4910   23.5950   35.9670 C   0  0  0  0  0  0  0  0  0  0  0  0
   39.7820   23.2320   36.3830 C   0  0  0  0  0  0  0  0  0  0  0  0
   39.9420   22.9370   37.7130 N   0  0  0  0  0  0  0  0  0  0  0  0
   38.9400   22.9820   38.5840 C   0  0  0  0  0  0  0  0  0  0  0  0
   37.6870   23.3340   38.1790 N   0  0  0  0  0  0  0  0  0  0  0  0
   37.7100   26.3640   34.8570 N   0  0  0  0  0  0  0  0  0  0  0  0
   38.7950   27.1120   35.4100 C   0  0  0  0  0  0  0  0  0  0  0  0
   39.9090   27.1230   34.6890 N   0  0  0  0  0  0  0  0  0  0  0  0
   38.5960   27.7650   36.6580 N   0  0  0  0  0  0  0  0  0  0  0  0
   40.6840   27.6760   35.1050 H   0  0  0  0  0  0  0  0  0  0  0  0
   37.4310   25.9390   31.7860 N   0  0  0  0  0  0  0  0  0  0  0  0
   38.0270   27.0240   31.2480 C   0  0  0  0  0  0  0  0  0  0  0  0
   37.1600   27.5450   30.2910 C   0  0  0  0  0  0  0  0  0  0  0  0
   36.0670   26.7740   30.2670 N   0  0  0  0  0  0  0  0  0  0  0  0
   36.2220   25.7920   31.1740 C   0  0  0  0  0  0  0  0  0  0  0  0
   35.1400   24.7640   31.3690 C   0  0  0  0  0  0  0  0  0  0  0  0
   38.0238   23.2122   31.4462 H   0  0  0  0  0  0  0  0  0  0  0  0
   36.4478   23.9178   36.5763 H   0  0  0  0  0  0  0  0  0  0  0  0
   40.6241   23.1864   35.6767 H   0  0  0  0  0  0  0  0  0  0  0  0
   39.1228   22.7334   39.6398 H   0  0  0  0  0  0  0  0  0  0  0  0
   36.7509   26.7214   34.9722 H   0  0  0  0  0  0  0  0  0  0  0  0
   39.3599   28.3113   37.0810 H   0  0  0  0  0  0  0  0  0  0  0  0
   37.6880   27.6915   37.1387 H   0  0  0  0  0  0  0  0  0  0  0  0
   39.0162   27.4234   31.5163 H   0  0  0  0  0  0  0  0  0  0  0  0
   37.3414   28.4321   29.6663 H   0  0  0  0  0  0  0  0  0  0  0  0
   34.9738   24.6061   32.4449 H   0  0  0  0  0  0  0  0  0  0  0  0
   34.2091   25.1184   30.9023 H   0  0  0  0  0  0  0  0  0  0  0  0
   35.4463   23.8162   30.9023 H   0  0  0  0  0  0  0  0  0  0  0  0
  1  7  1  0
  2  1  1  0
  3  4  1  0
  3  2  2  0
  4  5  2  0
  5  1  1  0
  5 12  1  0
  6 11  2  0
  7  8  2  0
  7  6  1  0
  8  9  1  0
  9 10  2  0
 11 10  1  0
 12 13  1  0
 13 15  1  0
 14 16  1  0
 14 13  2  0
 17  4  1  0
 18 17  1  0
 19 18  2  0
 20 19  1  0
 20 21  2  0
 21 22  1  0
 21 17  1  0
  3 23  1  0
  6 24  1  0
  8 25  1  0
 10 26  1  0
 12 27  1  0
 15 28  1  0
 15 29  1  0
 18 30  1  0
 19 31  1  0
 22 32  1  0
 22 33  1  0
 22 34  1  0
M  ISO  8  23  14  24  14  25  14  26  14  30  14  31  14  32   8  33   8
M  ISO  1  34   8
M  END
>  <minimizedAffinity>  (1) 
-4.72754097

>  <minimizedRMSD>  (1) 
0.650686443

$$$$
