
     RDKit          3D

 17 18  0  0  0  0  0  0  0  0999 V2000
   39.9530   22.6580   37.4480 C   0  0  0  0  0  0  0  0  0  0  0  0
   39.2650   23.3520   38.4570 C   0  0  0  0  0  0  0  0  0  0  0  0
   37.8960   23.5720   38.3120 C   0  0  0  0  0  0  0  0  0  0  0  0
   37.2930   23.0950   37.1850 N   0  0  0  0  0  0  0  0  0  0  0  0
   37.9730   22.4300   36.2260 C   0  0  0  0  0  0  0  0  0  0  0  0
   39.2920   22.2190   36.3690 N   0  0  0  0  0  0  0  0  0  0  0  0
   37.3860   21.9110   35.0290 C   0  0  0  0  0  0  0  0  0  0  0  0
   36.3080   21.1110   35.1410 C   0  0  0  0  0  0  0  0  0  0  0  0
   35.5700   20.4960   34.1870 C   0  0  0  0  0  0  0  0  0  0  0  0
   36.1790   20.8640   32.8850 C   0  0  0  0  0  0  0  0  0  0  0  0
   37.6790   22.0090   33.2290 S   0  0  0  0  0  0  0  0  0  0  0  0
   41.0335   22.4753   37.5439 H   0  0  0  0  0  0  0  0  0  0  0  0
   39.7981   23.7162   39.3476 H   0  0  0  0  0  0  0  0  0  0  0  0
   37.3219   24.1115   39.0797 H   0  0  0  0  0  0  0  0  0  0  0  0
   35.9738   20.9281   36.1729 H   0  0  0  0  0  0  0  0  0  0  0  0
   34.6929   19.8514   34.3457 H   0  0  0  0  0  0  0  0  0  0  0  0
   35.8307   20.5369   31.8942 H   0  0  0  0  0  0  0  0  0  0  0  0
  1  2  2  0
  3  2  1  0
  4  3  2  0
  5  6  2  0
  5  4  1  0
  6  1  1  0
  7  8  2  0
  7  5  1  0
  9  8  1  0
 10 11  1  0
 10  9  2  0
 11  7  1  0
  1 12  1  0
  2 13  1  0
  3 14  1  0
  8 15  1  0
  9 16  1  0
 10 17  1  0
M  ISO  6  12  14  13  14  14  14  15  14  16  14  17  14
M  END
>  <minimizedAffinity>  (1) 
-3.66596913

>  <minimizedRMSD>  (1) 
1.26066351

$$$$
