
     RDKit          3D

 20 21  0  0  0  0  0  0  0  0999 V2000
   37.3860   21.8950   34.8590 C   0  0  0  0  0  0  0  0  0  0  0  0
   36.3110   21.1120   34.9440 C   0  0  0  0  0  0  0  0  0  0  0  0
   35.6040   20.5510   33.9500 C   0  0  0  0  0  0  0  0  0  0  0  0
   36.2250   20.9510   32.6580 C   0  0  0  0  0  0  0  0  0  0  0  0
   37.7070   22.0550   33.0530 S   0  0  0  0  0  0  0  0  0  0  0  0
   39.9580   22.6100   37.2750 C   0  0  0  0  0  0  0  0  0  0  0  0
   39.2740   23.2490   38.3090 C   0  0  0  0  0  0  0  0  0  0  0  0
   37.9100   23.4450   38.1860 C   0  0  0  0  0  0  0  0  0  0  0  0
   37.2750   23.0040   37.0480 N   0  0  0  0  0  0  0  0  0  0  0  0
   37.9860   22.3840   36.0620 C   0  0  0  0  0  0  0  0  0  0  0  0
   39.3250   22.1840   36.1670 N   0  0  0  0  0  0  0  0  0  0  0  0
   36.0150   20.7330   31.2090 C   0  0  0  0  0  0  0  0  0  0  0  0
   35.1650   21.6920   30.6670 F   0  0  0  0  0  0  0  0  0  0  0  0
   37.2160   20.8370   30.5450 F   0  0  0  0  0  0  0  0  0  0  0  0
   35.3820   19.5430   31.0780 F   0  0  0  0  0  0  0  0  0  0  0  0
   35.9562   20.8970   35.9628 H   0  0  0  0  0  0  0  0  0  0  0  0
   34.7198   19.9077   34.0697 H   0  0  0  0  0  0  0  0  0  0  0  0
   41.0424   22.4503   37.3678 H   0  0  0  0  0  0  0  0  0  0  0  0
   39.8098   23.5912   39.2067 H   0  0  0  0  0  0  0  0  0  0  0  0
   37.3427   23.9451   38.9848 H   0  0  0  0  0  0  0  0  0  0  0  0
  1  2  2  0
  1 10  1  0
  3  2  1  0
  4  5  1  0
  4  3  2  0
  5  1  1  0
  6  7  2  0
  8  7  1  0
  9  8  2  0
 10 11  2  0
 10  9  1  0
 11  6  1  0
 12  4  1  0
 13 12  1  0
 14 12  1  0
 15 12  1  0
  2 16  1  0
  3 17  1  0
  6 18  1  0
  7 19  1  0
  8 20  1  0
M  ISO  5  16  14  17  14  18  14  19  14  20  14
M  END
>  <minimizedAffinity>  (1) 
-4.64307594

>  <minimizedRMSD>  (1) 
0.276478708

$$$$
