
     RDKit          3D

 35 35  0  0  0  0  0  0  0  0999 V2000
   38.3480   23.6500   37.4520 C   0  0  0  0  0  0  0  0  0  0  0  0
   41.3860   21.5400   36.7940 C   0  0  0  0  0  0  0  0  0  0  0  0
   40.3860   22.1770   37.5040 C   0  0  0  0  0  0  0  0  0  0  0  0
   39.4400   22.9420   36.7830 C   0  0  0  0  0  0  0  0  0  0  0  0
   39.5580   23.0150   35.4360 N   0  0  0  0  0  0  0  0  0  0  0  0
   40.5450   22.3800   34.7750 C   0  0  0  0  0  0  0  0  0  0  0  0
   41.4540   21.6470   35.4510 N   0  0  0  0  0  0  0  0  0  0  0  0
   42.3730   20.7530   37.5970 C   0  0  0  0  0  0  0  0  0  0  0  0
   43.0090   19.6660   36.8030 C   0  0  0  0  0  0  0  0  0  0  0  0
   38.7760   23.9450   38.8710 C   0  0  0  0  0  0  0  0  0  0  0  0
   37.8700   24.8710   36.7470 C   0  0  0  0  0  0  0  0  0  0  0  0
   37.1370   22.7010   37.5250 C   0  0  0  0  0  0  0  0  0  0  0  0
   37.0590   21.8500   36.3680 N   0  0  0  0  0  0  0  0  0  0  0  0
   35.8790   21.0630   36.2740 C   0  0  0  0  0  0  0  0  0  0  0  0
   35.0770   20.7600   37.2390 N   0  0  0  0  0  0  0  0  0  0  0  0
   35.4760   20.5140   35.0030 N   0  0  0  0  0  0  0  0  0  0  0  0
   35.3380   21.1420   38.1760 H   0  0  0  0  0  0  0  0  0  0  0  0
   40.3275   22.0914   38.5991 H   0  0  0  0  0  0  0  0  0  0  0  0
   40.6102   22.4593   33.6798 H   0  0  0  0  0  0  0  0  0  0  0  0
   43.1584   21.4335   37.9576 H   0  0  0  0  0  0  0  0  0  0  0  0
   41.8309   20.2862   38.4326 H   0  0  0  0  0  0  0  0  0  0  0  0
   43.4450   18.9209   37.4847 H   0  0  0  0  0  0  0  0  0  0  0  0
   42.2508   19.1834   36.1688 H   0  0  0  0  0  0  0  0  0  0  0  0
   43.8012   20.0906   36.1688 H   0  0  0  0  0  0  0  0  0  0  0  0
   38.0780   23.4639   39.5720 H   0  0  0  0  0  0  0  0  0  0  0  0
   39.7905   23.5534   39.0369 H   0  0  0  0  0  0  0  0  0  0  0  0
   38.7710   25.0324   39.0369 H   0  0  0  0  0  0  0  0  0  0  0  0
   37.5732   25.6290   37.4868 H   0  0  0  0  0  0  0  0  0  0  0  0
   38.6781   25.2705   36.1166 H   0  0  0  0  0  0  0  0  0  0  0  0
   37.0054   24.6157   36.1166 H   0  0  0  0  0  0  0  0  0  0  0  0
   37.2292   22.0735   38.4238 H   0  0  0  0  0  0  0  0  0  0  0  0
   36.2234   23.3124   37.5639 H   0  0  0  0  0  0  0  0  0  0  0  0
   37.8047   21.8135   35.6585 H   0  0  0  0  0  0  0  0  0  0  0  0
   34.6208   19.9439   34.9361 H   0  0  0  0  0  0  0  0  0  0  0  0
   36.0434   20.6920   34.1620 H   0  0  0  0  0  0  0  0  0  0  0  0
  1 12  1  0
  1 10  1  0
  2  3  2  0
  2  8  1  0
  4  1  1  0
  4  3  1  0
  5  4  2  0
  6  5  1  0
  6  7  2  0
  7  2  1  0
  9  8  1  0
 11  1  1  0
 13 12  1  0
 14 13  1  0
 14 15  2  0
 15 17  1  0
 16 14  1  0
  3 18  1  0
  6 19  1  0
  8 20  1  0
  8 21  1  0
  9 22  1  0
  9 23  1  0
  9 24  1  0
 10 25  1  0
 10 26  1  0
 10 27  1  0
 11 28  1  0
 11 29  1  0
 11 30  1  0
 12 31  1  0
 12 32  1  0
 13 33  1  0
 16 34  1  0
 16 35  1  0
M  ISO  8  18  14  19  14  20   8  21   8  22   8  23   8  24   8  25   8
M  ISO  7  26   8  27   8  28   8  29   8  30   8  31   8  32   8
M  END
>  <minimizedAffinity>  (1) 
-5.04104328

>  <minimizedRMSD>  (1) 
0.874253035

$$$$
