
     RDKit          3D

 28 30  0  0  0  0  0  0  0  0999 V2000
   38.0580   21.8490   34.6460 C   0  0  0  0  0  0  0  0  0  0  0  0
   36.7890   21.5570   34.3610 C   0  0  0  0  0  0  0  0  0  0  0  0
   36.2820   21.0500   33.2300 C   0  0  0  0  0  0  0  0  0  0  0  0
   37.4000   20.8400   32.2750 C   0  0  0  0  0  0  0  0  0  0  0  0
   38.9860   21.4010   33.1420 S   0  0  0  0  0  0  0  0  0  0  0  0
   37.5510   20.3490   30.9500 N   0  0  0  0  0  0  0  0  0  0  0  0
   38.5770   20.6550   30.1380 C   0  0  0  0  0  0  0  0  0  0  0  0
   38.5430   20.0710   28.8720 C   0  0  0  0  0  0  0  0  0  0  0  0
   37.5220   19.2330   28.4750 C   0  0  0  0  0  0  0  0  0  0  0  0
   37.5000   18.6450   27.1830 N   0  0  0  0  0  0  0  0  0  0  0  0
   36.5140   18.9650   29.3460 N   0  0  0  0  0  0  0  0  0  0  0  0
   36.5420   19.5290   30.5770 C   0  0  0  0  0  0  0  0  0  0  0  0
   35.5650   19.2220   31.3110 O   0  0  0  0  0  0  0  0  0  0  0  0
   39.9830   22.6880   37.5790 C   0  0  0  0  0  0  0  0  0  0  0  0
   39.0590   23.3940   38.3860 C   0  0  0  0  0  0  0  0  0  0  0  0
   37.7680   23.5870   37.9250 C   0  0  0  0  0  0  0  0  0  0  0  0
   37.4420   23.0790   36.6930 N   0  0  0  0  0  0  0  0  0  0  0  0
   38.3580   22.4030   35.9400 C   0  0  0  0  0  0  0  0  0  0  0  0
   39.6230   22.2070   36.3800 N   0  0  0  0  0  0  0  0  0  0  0  0
   36.0617   21.7594   35.1611 H   0  0  0  0  0  0  0  0  0  0  0  0
   35.2214   20.8276   33.0410 H   0  0  0  0  0  0  0  0  0  0  0  0
   39.3920   21.3237   30.4519 H   0  0  0  0  0  0  0  0  0  0  0  0
   39.3585   20.2861   28.1658 H   0  0  0  0  0  0  0  0  0  0  0  0
   36.7247   18.0228   26.9135 H   0  0  0  0  0  0  0  0  0  0  0  0
   38.2594   18.8406   26.5152 H   0  0  0  0  0  0  0  0  0  0  0  0
   41.0102   22.5318   37.9402 H   0  0  0  0  0  0  0  0  0  0  0  0
   39.3632   23.7848   39.3682 H   0  0  0  0  0  0  0  0  0  0  0  0
   37.0262   24.1311   38.5281 H   0  0  0  0  0  0  0  0  0  0  0  0
  1 18  1  0
  2  1  2  0
  3  2  1  0
  4  5  1  0
  4  3  2  0
  5  1  1  0
  6  4  1  0
  7  6  1  0
  8  7  2  0
  9  8  1  0
  9 11  2  0
 10  9  1  0
 11 12  1  0
 12  6  1  0
 12 13  2  0
 14 15  2  0
 16 15  1  0
 17 16  2  0
 18 19  2  0
 18 17  1  0
 19 14  1  0
  2 20  1  0
  3 21  1  0
  7 22  1  0
  8 23  1  0
 10 24  1  0
 10 25  1  0
 14 26  1  0
 15 27  1  0
 16 28  1  0
M  ISO  7  20  14  21  14  22  14  23  14  26  14  27  14  28  14
M  END
>  <minimizedAffinity>  (1) 
-4.51212215

>  <minimizedRMSD>  (1) 
1.67058337

$$$$
