
     RDKit          3D

 31 34  0  0  0  0  0  0  0  0999 V2000
   38.2630   22.0970   34.7430 C   0  0  0  0  0  0  0  0  0  0  0  0
   37.0440   21.6870   34.3730 C   0  0  0  0  0  0  0  0  0  0  0  0
   36.6950   21.2630   33.1260 C   0  0  0  0  0  0  0  0  0  0  0  0
   37.8110   21.3090   32.2270 C   0  0  0  0  0  0  0  0  0  0  0  0
   39.2610   21.9410   33.2180 S   0  0  0  0  0  0  0  0  0  0  0  0
   38.1130   20.9620   30.8770 C   0  0  0  0  0  0  0  0  0  0  0  0
   38.9160   21.7650   30.1120 N   0  0  0  0  0  0  0  0  0  0  0  0
   39.3420   21.4790   28.8950 C   0  0  0  0  0  0  0  0  0  0  0  0
   39.0070   20.3310   28.2900 N   0  0  0  0  0  0  0  0  0  0  0  0
   38.2210   19.4540   28.9280 C   0  0  0  0  0  0  0  0  0  0  0  0
   37.8370   18.2850   28.3150 C   0  0  0  0  0  0  0  0  0  0  0  0
   36.9980   17.3950   28.9490 C   0  0  0  0  0  0  0  0  0  0  0  0
   36.5750   17.7550   30.2270 C   0  0  0  0  0  0  0  0  0  0  0  0
   36.9790   18.9250   30.8060 C   0  0  0  0  0  0  0  0  0  0  0  0
   37.8170   19.8180   30.1870 C   0  0  0  0  0  0  0  0  0  0  0  0
   40.0070   22.7440   37.8210 C   0  0  0  0  0  0  0  0  0  0  0  0
   39.0060   23.3070   38.6490 C   0  0  0  0  0  0  0  0  0  0  0  0
   37.7230   23.4700   38.1380 C   0  0  0  0  0  0  0  0  0  0  0  0
   37.4820   23.0750   36.8470 N   0  0  0  0  0  0  0  0  0  0  0  0
   38.4840   22.5350   36.0850 C   0  0  0  0  0  0  0  0  0  0  0  0
   39.7140   22.3780   36.5720 N   0  0  0  0  0  0  0  0  0  0  0  0
   36.2566   21.6928   35.1411 H   0  0  0  0  0  0  0  0  0  0  0  0
   35.6857   20.9281   32.8448 H   0  0  0  0  0  0  0  0  0  0  0  0
   39.9853   22.1982   28.3669 H   0  0  0  0  0  0  0  0  0  0  0  0
   38.2049   18.0569   27.3038 H   0  0  0  0  0  0  0  0  0  0  0  0
   36.6805   16.4550   28.4741 H   0  0  0  0  0  0  0  0  0  0  0  0
   35.9023   17.0838   30.7810 H   0  0  0  0  0  0  0  0  0  0  0  0
   36.6150   19.1623   31.8166 H   0  0  0  0  0  0  0  0  0  0  0  0
   41.0277   22.6082   38.2081 H   0  0  0  0  0  0  0  0  0  0  0  0
   39.2395   23.6107   39.6802 H   0  0  0  0  0  0  0  0  0  0  0  0
   36.9218   23.9047   38.7537 H   0  0  0  0  0  0  0  0  0  0  0  0
  1 20  1  0
  2  1  2  0
  3  2  1  0
  4  3  2  0
  4  5  1  0
  5  1  1  0
  6  4  1  0
  7  6  2  0
  8  7  1  0
  9  8  2  0
  9 10  1  0
 10 15  2  0
 11 10  1  0
 11 12  2  0
 12 13  1  0
 13 14  2  0
 15 14  1  0
 15  6  1  0
 16 17  2  0
 18 17  1  0
 19 18  2  0
 20 21  2  0
 20 19  1  0
 21 16  1  0
  2 22  1  0
  3 23  1  0
  8 24  1  0
 11 25  1  0
 12 26  1  0
 13 27  1  0
 14 28  1  0
 16 29  1  0
 17 30  1  0
 18 31  1  0
M  ISO  8  22  14  23  14  24  14  25  14  26  14  27  14  28  14  29  14
M  ISO  2  30  14  31  14
M  END
>  <minimizedAffinity>  (1) 
-4.48955679

>  <minimizedRMSD>  (1) 
1.95695174

$$$$
