
     RDKit          3D

 20 21  0  0  0  0  0  0  0  0999 V2000
   37.3000   21.8700   35.0390 C   0  0  0  0  0  0  0  0  0  0  0  0
   36.2730   21.0360   35.1970 C   0  0  0  0  0  0  0  0  0  0  0  0
   35.5160   20.4560   34.2590 C   0  0  0  0  0  0  0  0  0  0  0  0
   35.9810   20.8720   32.9420 C   0  0  0  0  0  0  0  0  0  0  0  0
   37.4400   22.0400   33.2180 S   0  0  0  0  0  0  0  0  0  0  0  0
   39.9900   22.6340   37.3040 C   0  0  0  0  0  0  0  0  0  0  0  0
   39.3610   23.3200   38.3440 C   0  0  0  0  0  0  0  0  0  0  0  0
   37.9950   23.5310   38.2780 C   0  0  0  0  0  0  0  0  0  0  0  0
   37.3100   23.0530   37.1850 N   0  0  0  0  0  0  0  0  0  0  0  0
   37.9650   22.3860   36.1890 C   0  0  0  0  0  0  0  0  0  0  0  0
   39.3010   22.1780   36.2500 N   0  0  0  0  0  0  0  0  0  0  0  0
   35.5940   20.6040   31.5460 C   0  0  0  0  0  0  0  0  0  0  0  0
   35.4700   21.5390   30.7620 O   0  0  0  0  0  0  0  0  0  0  0  0
   35.3960   19.2840   31.2220 O   0  0  0  0  0  0  0  0  0  0  0  0
   36.0130   20.7919   36.2376 H   0  0  0  0  0  0  0  0  0  0  0  0
   34.6754   19.7730   34.4513 H   0  0  0  0  0  0  0  0  0  0  0  0
   41.0758   22.4641   37.3511 H   0  0  0  0  0  0  0  0  0  0  0  0
   39.9421   23.6872   39.2028 H   0  0  0  0  0  0  0  0  0  0  0  0
   37.4691   24.0685   39.0809 H   0  0  0  0  0  0  0  0  0  0  0  0
   35.1343   19.0344   30.3004 H   0  0  0  0  0  0  0  0  0  0  0  0
  1  2  2  0
  1 10  1  0
  3  2  1  0
  4  5  1  0
  4  3  2  0
  5  1  1  0
  6  7  2  0
  8  7  1  0
  9  8  2  0
 10 11  2  0
 10  9  1  0
 11  6  1  0
 12  4  1  0
 13 12  2  0
 14 12  1  0
  2 15  1  0
  3 16  1  0
  6 17  1  0
  7 18  1  0
  8 19  1  0
 14 20  1  0
M  ISO  6  15  14  16  14  17  14  18  14  19  14  20   3
M  END
>  <minimizedAffinity>  (1) 
-4.3146553

>  <minimizedRMSD>  (1) 
0.20022583

$$$$
