
     RDKit          3D

 23 24  0  0  0  0  0  0  0  0999 V2000
   37.3200   21.9720   34.9010 C   0  0  0  0  0  0  0  0  0  0  0  0
   36.3180   21.0970   35.0100 C   0  0  0  0  0  0  0  0  0  0  0  0
   35.5900   20.5580   34.0100 C   0  0  0  0  0  0  0  0  0  0  0  0
   36.0720   21.0890   32.7320 C   0  0  0  0  0  0  0  0  0  0  0  0
   37.4800   22.2730   33.1030 S   0  0  0  0  0  0  0  0  0  0  0  0
   39.9780   22.5820   37.2580 C   0  0  0  0  0  0  0  0  0  0  0  0
   39.3390   23.2160   38.3240 C   0  0  0  0  0  0  0  0  0  0  0  0
   37.9750   23.4470   38.2450 C   0  0  0  0  0  0  0  0  0  0  0  0
   37.2980   23.0440   37.1190 N   0  0  0  0  0  0  0  0  0  0  0  0
   37.9670   22.4280   36.1020 C   0  0  0  0  0  0  0  0  0  0  0  0
   39.3020   22.1930   36.1610 N   0  0  0  0  0  0  0  0  0  0  0  0
   35.6770   20.8800   31.3190 C   0  0  0  0  0  0  0  0  0  0  0  0
   36.2400   19.5900   30.7730 C   0  0  0  0  0  0  0  0  0  0  0  0
   36.0562   20.7795   36.0301 H   0  0  0  0  0  0  0  0  0  0  0  0
   34.7683   19.8372   34.1339 H   0  0  0  0  0  0  0  0  0  0  0  0
   41.0606   22.3955   37.3155 H   0  0  0  0  0  0  0  0  0  0  0  0
   39.9084   23.5272   39.2122 H   0  0  0  0  0  0  0  0  0  0  0  0
   37.4432   23.9444   39.0695 H   0  0  0  0  0  0  0  0  0  0  0  0
   34.5793   20.8462   31.2558 H   0  0  0  0  0  0  0  0  0  0  0  0
   36.0778   21.7121   30.7215 H   0  0  0  0  0  0  0  0  0  0  0  0
   36.5268   18.9329   31.6073 H   0  0  0  0  0  0  0  0  0  0  0  0
   35.4786   19.0893   30.1569 H   0  0  0  0  0  0  0  0  0  0  0  0
   37.1249   19.8078   30.1569 H   0  0  0  0  0  0  0  0  0  0  0  0
  1  2  2  0
  1 10  1  0
  3  2  1  0
  4  5  1  0
  4  3  2  0
  5  1  1  0
  6  7  2  0
  8  7  1  0
  9  8  2  0
 10 11  2  0
 10  9  1  0
 11  6  1  0
 12  4  1  0
 13 12  1  0
  2 14  1  0
  3 15  1  0
  6 16  1  0
  7 17  1  0
  8 18  1  0
 12 19  1  0
 12 20  1  0
 13 21  1  0
 13 22  1  0
 13 23  1  0
M  ISO  8  14  14  15  14  16  14  17  14  18  14  19   8  20   8  21   8
M  ISO  2  22   8  23   8
M  END
>  <minimizedAffinity>  (1) 
-4.1442399

>  <minimizedRMSD>  (1) 
0.481088549

$$$$
