
     RDKit          3D

 18 19  0  0  0  0  0  0  0  0999 V2000
   39.9820   22.6390   37.3800 C   0  0  0  0  0  0  0  0  0  0  0  0
   39.2900   23.3230   38.4070 C   0  0  0  0  0  0  0  0  0  0  0  0
   37.9190   23.5360   38.2910 C   0  0  0  0  0  0  0  0  0  0  0  0
   37.3160   23.0620   37.1700 N   0  0  0  0  0  0  0  0  0  0  0  0
   37.9990   22.4050   36.1880 C   0  0  0  0  0  0  0  0  0  0  0  0
   39.3100   22.2040   36.3050 N   0  0  0  0  0  0  0  0  0  0  0  0
   37.3730   21.8920   34.9980 C   0  0  0  0  0  0  0  0  0  0  0  0
   36.3120   21.0980   35.1300 C   0  0  0  0  0  0  0  0  0  0  0  0
   35.5720   20.5220   34.1770 C   0  0  0  0  0  0  0  0  0  0  0  0
   36.1290   20.9100   32.8570 C   0  0  0  0  0  0  0  0  0  0  0  0
   37.6200   22.0370   33.2020 S   0  0  0  0  0  0  0  0  0  0  0  0
   35.8460   20.6680   31.5180 O   0  0  0  0  0  0  0  0  0  0  0  0
   41.0650   22.4652   37.4632 H   0  0  0  0  0  0  0  0  0  0  0  0
   39.8325   23.6848   39.2929 H   0  0  0  0  0  0  0  0  0  0  0  0
   37.3505   24.0637   39.0710 H   0  0  0  0  0  0  0  0  0  0  0  0
   36.0022   20.8873   36.1642 H   0  0  0  0  0  0  0  0  0  0  0  0
   34.7001   19.8721   34.3427 H   0  0  0  0  0  0  0  0  0  0  0  0
   35.0821   20.0890   31.2703 H   0  0  0  0  0  0  0  0  0  0  0  0
  1  2  2  0
  3  2  1  0
  4  3  2  0
  5  6  2  0
  5  4  1  0
  6  1  1  0
  7  8  2  0
  7  5  1  0
  9  8  1  0
 10 11  1  0
 10  9  2  0
 11  7  1  0
 12 10  1  0
  1 13  1  0
  2 14  1  0
  3 15  1  0
  8 16  1  0
  9 17  1  0
 12 18  1  0
M  ISO  6  13  14  14  14  15  14  16  14  17  14  18   3
M  END
>  <minimizedAffinity>  (1) 
-3.89744663

>  <minimizedRMSD>  (1) 
0.0602394715

$$$$
