
     RDKit          3D

 38 41  0  0  0  0  0  0  0  0999 V2000
   38.7170   21.6150   30.4330 N   0  0  0  0  0  0  0  0  0  0  0  0
   39.6650   22.2220   29.4870 C   0  0  0  0  0  0  0  0  0  0  0  0
   40.2330   21.0490   28.7700 C   0  0  0  0  0  0  0  0  0  0  0  0
   39.1680   20.5490   28.0030 O   0  0  0  0  0  0  0  0  0  0  0  0
   38.2340   19.8960   28.8040 C   0  0  0  0  0  0  0  0  0  0  0  0
   37.9530   20.4250   30.1650 C   0  0  0  0  0  0  0  0  0  0  0  0
   37.0260   19.6410   30.9110 C   0  0  0  0  0  0  0  0  0  0  0  0
   37.1070   18.4230   31.5310 C   0  0  0  0  0  0  0  0  0  0  0  0
   36.2130   17.7700   32.3380 C   0  0  0  0  0  0  0  0  0  0  0  0
   35.0440   18.4650   32.5470 C   0  0  0  0  0  0  0  0  0  0  0  0
   34.8270   19.7040   31.9820 C   0  0  0  0  0  0  0  0  0  0  0  0
   35.8010   20.2650   31.1860 C   0  0  0  0  0  0  0  0  0  0  0  0
   38.6250   22.7000   34.3280 C   0  0  0  0  0  0  0  0  0  0  0  0
   37.8230   23.4480   33.5680 C   0  0  0  0  0  0  0  0  0  0  0  0
   37.6550   23.3260   32.2930 C   0  0  0  0  0  0  0  0  0  0  0  0
   38.4720   22.2330   31.7420 C   0  0  0  0  0  0  0  0  0  0  0  0
   39.4020   21.5100   33.1820 S   0  0  0  0  0  0  0  0  0  0  0  0
   39.9160   22.7130   37.6990 C   0  0  0  0  0  0  0  0  0  0  0  0
   38.8760   23.3280   38.4380 C   0  0  0  0  0  0  0  0  0  0  0  0
   37.7380   23.7460   37.7970 C   0  0  0  0  0  0  0  0  0  0  0  0
   37.7010   23.5290   36.4580 N   0  0  0  0  0  0  0  0  0  0  0  0
   38.6880   22.9440   35.7520 C   0  0  0  0  0  0  0  0  0  0  0  0
   39.7880   22.5410   36.3730 N   0  0  0  0  0  0  0  0  0  0  0  0
   39.1476   22.8972   28.7896 H   0  0  0  0  0  0  0  0  0  0  0  0
   40.4318   22.8365   29.9813 H   0  0  0  0  0  0  0  0  0  0  0  0
   41.0666   21.3572   28.1217 H   0  0  0  0  0  0  0  0  0  0  0  0
   40.6375   20.2950   29.4613 H   0  0  0  0  0  0  0  0  0  0  0  0
   37.7114   19.0012   28.4348 H   0  0  0  0  0  0  0  0  0  0  0  0
   38.0457   17.8783   31.3514 H   0  0  0  0  0  0  0  0  0  0  0  0
   36.4114   16.7816   32.7781 H   0  0  0  0  0  0  0  0  0  0  0  0
   34.2625   18.0208   33.1811 H   0  0  0  0  0  0  0  0  0  0  0  0
   33.8840   20.2398   32.1655 H   0  0  0  0  0  0  0  0  0  0  0  0
   35.6079   21.2533   30.7433 H   0  0  0  0  0  0  0  0  0  0  0  0
   37.2526   24.2412   34.0734 H   0  0  0  0  0  0  0  0  0  0  0  0
   36.9849   23.9600   31.6939 H   0  0  0  0  0  0  0  0  0  0  0  0
   40.8292   22.3760   38.2113 H   0  0  0  0  0  0  0  0  0  0  0  0
   38.9809   23.4701   39.5237 H   0  0  0  0  0  0  0  0  0  0  0  0
   36.9074   24.2269   38.3345 H   0  0  0  0  0  0  0  0  0  0  0  0
  1 16  1  0
  2  1  1  0
  3  2  1  0
  4  3  1  0
  4  5  1  0
  5  6  2  0
  6  1  1  0
  6  7  1  0
  7 12  1  0
  7  8  2  0
  8  9  1  0
  9 10  2  0
 11 10  1  0
 12 11  2  0
 13 22  1  0
 14 13  2  0
 15 14  1  0
 16 15  2  0
 16 17  1  0
 17 13  1  0
 18 19  2  0
 20 19  1  0
 21 20  2  0
 22 23  2  0
 22 21  1  0
 23 18  1  0
  2 24  1  0
  2 25  1  0
  3 26  1  0
  3 27  1  0
  5 28  1  0
  8 29  1  0
  9 30  1  0
 10 31  1  0
 11 32  1  0
 12 33  1  0
 14 34  1  0
 15 35  1  0
 18 36  1  0
 19 37  1  0
 20 38  1  0
M  ISO  8  24  13  25  13  26  13  27  13  28  13  29  14  30  14  31  14
M  ISO  7  32  14  33  14  34  14  35  14  36  14  37  14  38  14
M  END
>  <minimizedAffinity>  (1) 
-5.1135416

>  <minimizedRMSD>  (1) 
1.75100732

$$$$
