
     RDKit          3D

 29 31  0  0  0  0  0  0  0  0999 V2000
   37.9120   21.8460   34.7350 C   0  0  0  0  0  0  0  0  0  0  0  0
   36.6680   21.4480   34.5220 C   0  0  0  0  0  0  0  0  0  0  0  0
   36.1590   20.9570   33.4100 C   0  0  0  0  0  0  0  0  0  0  0  0
   37.1970   20.8990   32.3700 C   0  0  0  0  0  0  0  0  0  0  0  0
   38.7510   21.5620   33.1550 S   0  0  0  0  0  0  0  0  0  0  0  0
   37.3120   20.4850   30.9660 N   0  0  0  0  0  0  0  0  0  0  0  0
   38.2670   21.0250   30.0340 C   0  0  0  0  0  0  0  0  0  0  0  0
   38.7620   19.8020   29.2760 C   0  0  0  0  0  0  0  0  0  0  0  0
   37.6990   19.3620   28.5270 O   0  0  0  0  0  0  0  0  0  0  0  0
   36.6260   18.8920   29.2490 C   0  0  0  0  0  0  0  0  0  0  0  0
   36.3860   19.4810   30.5810 C   0  0  0  0  0  0  0  0  0  0  0  0
   35.3270   19.0090   31.2840 O   0  0  0  0  0  0  0  0  0  0  0  0
   39.9740   22.7120   37.5760 C   0  0  0  0  0  0  0  0  0  0  0  0
   39.0540   23.3460   38.4470 C   0  0  0  0  0  0  0  0  0  0  0  0
   37.7180   23.4810   38.0700 C   0  0  0  0  0  0  0  0  0  0  0  0
   37.3630   22.9830   36.8530 N   0  0  0  0  0  0  0  0  0  0  0  0
   38.2780   22.3720   36.0250 C   0  0  0  0  0  0  0  0  0  0  0  0
   39.5520   22.2450   36.3900 N   0  0  0  0  0  0  0  0  0  0  0  0
   35.9774   21.5376   35.3735 H   0  0  0  0  0  0  0  0  0  0  0  0
   35.1143   20.6383   33.2794 H   0  0  0  0  0  0  0  0  0  0  0  0
   37.7870   21.7418   29.3515 H   0  0  0  0  0  0  0  0  0  0  0  0
   39.0794   21.5780   30.5282 H   0  0  0  0  0  0  0  0  0  0  0  0
   39.6037   20.0732   28.6218 H   0  0  0  0  0  0  0  0  0  0  0  0
   39.1199   19.0211   29.9631 H   0  0  0  0  0  0  0  0  0  0  0  0
   35.9703   18.1052   28.8477 H   0  0  0  0  0  0  0  0  0  0  0  0
   35.1268   19.3740   32.1822 H   0  0  0  0  0  0  0  0  0  0  0  0
   41.0284   22.6029   37.8698 H   0  0  0  0  0  0  0  0  0  0  0  0
   39.3931   23.7315   39.4198 H   0  0  0  0  0  0  0  0  0  0  0  0
   36.9828   23.9686   38.7271 H   0  0  0  0  0  0  0  0  0  0  0  0
  1 17  1  0
  2  1  2  0
  3  2  1  0
  4  5  1  0
  4  3  2  0
  5  1  1  0
  6  4  1  0
  7  6  1  0
  8  7  1  0
  9 10  1  0
  9  8  1  0
 10 11  2  0
 11  6  1  0
 11 12  1  0
 13 14  2  0
 15 14  1  0
 16 15  2  0
 17 18  2  0
 17 16  1  0
 18 13  1  0
  2 19  1  0
  3 20  1  0
  7 21  1  0
  7 22  1  0
  8 23  1  0
  8 24  1  0
 10 25  1  0
 12 26  1  0
 13 27  1  0
 14 28  1  0
 15 29  1  0
M  ISO  8  19  14  20  14  21  13  22  13  23  13  24  13  25  13  26   3
M  ISO  3  27  14  28  14  29  14
M  END
>  <minimizedAffinity>  (1) 
-4.67689037

>  <minimizedRMSD>  (1) 
0.129947364

$$$$
