
     RDKit          3D

 36 39  0  0  0  0  0  0  0  0999 V2000
   38.4730   21.2790   30.2850 N   0  0  0  0  0  0  0  0  0  0  0  0
   39.4060   21.8740   29.3260 C   0  0  0  0  0  0  0  0  0  0  0  0
   39.9830   20.6890   28.6160 C   0  0  0  0  0  0  0  0  0  0  0  0
   38.9170   20.1630   27.8800 O   0  0  0  0  0  0  0  0  0  0  0  0
   37.9770   19.5220   28.6930 C   0  0  0  0  0  0  0  0  0  0  0  0
   37.7100   20.0920   30.0360 C   0  0  0  0  0  0  0  0  0  0  0  0
   38.5490   22.4000   34.1820 C   0  0  0  0  0  0  0  0  0  0  0  0
   37.6280   23.0330   33.4690 C   0  0  0  0  0  0  0  0  0  0  0  0
   37.3600   22.9040   32.1720 C   0  0  0  0  0  0  0  0  0  0  0  0
   38.2680   21.9000   31.6010 C   0  0  0  0  0  0  0  0  0  0  0  0
   39.3770   21.2980   32.9900 S   0  0  0  0  0  0  0  0  0  0  0  0
   40.0410   22.6630   37.4480 C   0  0  0  0  0  0  0  0  0  0  0  0
   39.0230   23.1800   38.2430 C   0  0  0  0  0  0  0  0  0  0  0  0
   37.8120   23.4540   37.6730 C   0  0  0  0  0  0  0  0  0  0  0  0
   37.6600   23.2020   36.3400 N   0  0  0  0  0  0  0  0  0  0  0  0
   38.6700   22.6960   35.5890 C   0  0  0  0  0  0  0  0  0  0  0  0
   39.8580   22.4280   36.1440 N   0  0  0  0  0  0  0  0  0  0  0  0
   36.8050   19.3480   30.8650 C   0  0  0  0  0  0  0  0  0  0  0  0
   37.1650   18.1410   31.3440 C   0  0  0  0  0  0  0  0  0  0  0  0
   36.3910   17.4180   32.2230 C   0  0  0  0  0  0  0  0  0  0  0  0
   35.1970   17.9000   32.6600 N   0  0  0  0  0  0  0  0  0  0  0  0
   34.8320   19.1040   32.1870 C   0  0  0  0  0  0  0  0  0  0  0  0
   35.6330   19.7280   31.3480 N   0  0  0  0  0  0  0  0  0  0  0  0
   38.8782   22.5348   28.6226 H   0  0  0  0  0  0  0  0  0  0  0  0
   40.1725   22.4996   29.8067 H   0  0  0  0  0  0  0  0  0  0  0  0
   40.8009   20.9972   27.9481 H   0  0  0  0  0  0  0  0  0  0  0  0
   40.4106   19.9535   29.3132 H   0  0  0  0  0  0  0  0  0  0  0  0
   37.4505   18.6206   28.3463 H   0  0  0  0  0  0  0  0  0  0  0  0
   37.0072   23.7558   34.0187 H   0  0  0  0  0  0  0  0  0  0  0  0
   36.5867   23.4574   31.6190 H   0  0  0  0  0  0  0  0  0  0  0  0
   41.0184   22.4425   37.9020 H   0  0  0  0  0  0  0  0  0  0  0  0
   39.1906   23.3653   39.3142 H   0  0  0  0  0  0  0  0  0  0  0  0
   36.9846   23.8652   38.2700 H   0  0  0  0  0  0  0  0  0  0  0  0
   38.1239   17.7128   31.0167 H   0  0  0  0  0  0  0  0  0  0  0  0
   36.7429   16.4376   32.5765 H   0  0  0  0  0  0  0  0  0  0  0  0
   33.8800   19.5607   32.4955 H   0  0  0  0  0  0  0  0  0  0  0  0
  1 10  1  0
  2  1  1  0
  3  2  1  0
  4  3  1  0
  4  5  1  0
  5  6  2  0
  6  1  1  0
  6 18  1  0
  7 16  1  0
  8  7  2  0
  9  8  1  0
 10  9  2  0
 10 11  1  0
 11  7  1  0
 12 13  2  0
 14 13  1  0
 15 14  2  0
 16 17  2  0
 16 15  1  0
 17 12  1  0
 18 19  2  0
 18 23  1  0
 19 20  1  0
 20 21  2  0
 22 21  1  0
 23 22  2  0
  2 24  1  0
  2 25  1  0
  3 26  1  0
  3 27  1  0
  5 28  1  0
  8 29  1  0
  9 30  1  0
 12 31  1  0
 13 32  1  0
 14 33  1  0
 19 34  1  0
 20 35  1  0
 22 36  1  0
M  ISO  8  24  13  25  13  26  13  27  13  28  13  29  14  30  14  31  14
M  ISO  5  32  14  33  14  34  14  35  14  36  14
M  END
>  <minimizedAffinity>  (1) 
-4.68439388

>  <minimizedRMSD>  (1) 
1.53149605

$$$$
