
     RDKit          3D

 35 38  0  0  0  0  0  0  0  0999 V2000
   38.2700   22.0280   34.6760 C   0  0  0  0  0  0  0  0  0  0  0  0
   37.0420   21.6450   34.3000 C   0  0  0  0  0  0  0  0  0  0  0  0
   36.7180   21.2010   33.1290 C   0  0  0  0  0  0  0  0  0  0  0  0
   37.8740   21.1530   32.2240 C   0  0  0  0  0  0  0  0  0  0  0  0
   39.3380   21.7860   33.2070 S   0  0  0  0  0  0  0  0  0  0  0  0
   38.1470   20.7470   30.8400 N   0  0  0  0  0  0  0  0  0  0  0  0
   38.7290   21.7070   29.8830 C   0  0  0  0  0  0  0  0  0  0  0  0
   39.5720   20.8390   29.0100 C   0  0  0  0  0  0  0  0  0  0  0  0
   38.6470   20.0670   28.2840 O   0  0  0  0  0  0  0  0  0  0  0  0
   38.0810   19.0730   29.0900 C   0  0  0  0  0  0  0  0  0  0  0  0
   37.8060   19.3990   30.5110 C   0  0  0  0  0  0  0  0  0  0  0  0
   37.3420   18.3150   31.2520 C   0  0  0  0  0  0  0  0  0  0  0  0
   36.0820   18.0570   31.6010 C   0  0  0  0  0  0  0  0  0  0  0  0
   35.7810   16.8870   32.1960 C   0  0  0  0  0  0  0  0  0  0  0  0
   36.7790   15.9210   32.4630 C   0  0  0  0  0  0  0  0  0  0  0  0
   38.2920   16.8060   31.7790 S   0  0  0  0  0  0  0  0  0  0  0  0
   39.9730   22.7300   37.7750 C   0  0  0  0  0  0  0  0  0  0  0  0
   38.9820   23.2790   38.5850 C   0  0  0  0  0  0  0  0  0  0  0  0
   37.7140   23.4260   38.0880 C   0  0  0  0  0  0  0  0  0  0  0  0
   37.5110   23.0140   36.8060 N   0  0  0  0  0  0  0  0  0  0  0  0
   38.4770   22.4840   36.0290 C   0  0  0  0  0  0  0  0  0  0  0  0
   39.7050   22.3430   36.5160 N   0  0  0  0  0  0  0  0  0  0  0  0
   36.2414   21.7141   35.0511 H   0  0  0  0  0  0  0  0  0  0  0  0
   35.6999   20.8962   32.8453 H   0  0  0  0  0  0  0  0  0  0  0  0
   37.9434   22.2102   29.3002 H   0  0  0  0  0  0  0  0  0  0  0  0
   39.2957   22.5149   30.3689 H   0  0  0  0  0  0  0  0  0  0  0  0
   40.1865   21.4493   28.3318 H   0  0  0  0  0  0  0  0  0  0  0  0
   40.2728   20.2186   29.5880 H   0  0  0  0  0  0  0  0  0  0  0  0
   37.8467   18.0787   28.6819 H   0  0  0  0  0  0  0  0  0  0  0  0
   35.2916   18.7962   31.4040 H   0  0  0  0  0  0  0  0  0  0  0  0
   34.7389   16.6786   32.4798 H   0  0  0  0  0  0  0  0  0  0  0  0
   36.6945   14.9318   32.9367 H   0  0  0  0  0  0  0  0  0  0  0  0
   40.9919   22.6111   38.1721 H   0  0  0  0  0  0  0  0  0  0  0  0
   39.2152   23.5915   39.6136 H   0  0  0  0  0  0  0  0  0  0  0  0
   36.9017   23.8547   38.6932 H   0  0  0  0  0  0  0  0  0  0  0  0
  1 21  1  0
  2  1  2  0
  3  2  1  0
  4  3  2  0
  4  5  1  0
  5  1  1  0
  6  4  1  0
  7  6  1  0
  8  7  1  0
  9  8  1  0
  9 10  1  0
 10 11  2  0
 11  6  1  0
 11 12  1  0
 12 13  2  0
 12 16  1  0
 13 14  1  0
 14 15  2  0
 16 15  1  0
 17 18  2  0
 19 18  1  0
 20 19  2  0
 21 22  2  0
 21 20  1  0
 22 17  1  0
  2 23  1  0
  3 24  1  0
  7 25  1  0
  7 26  1  0
  8 27  1  0
  8 28  1  0
 10 29  1  0
 13 30  1  0
 14 31  1  0
 15 32  1  0
 17 33  1  0
 18 34  1  0
 19 35  1  0
M  ISO  8  23  14  24  14  25  13  26  13  27  13  28  13  29  13  30  14
M  ISO  5  31  14  32  14  33  14  34  14  35  14
M  END
>  <minimizedAffinity>  (1) 
-4.55852747

>  <minimizedRMSD>  (1) 
1.2020731

$$$$
