
     RDKit          3D

 34 37  0  0  0  0  0  0  0  0999 V2000
   38.1380   21.9570   34.8100 C   0  0  0  0  0  0  0  0  0  0  0  0
   36.9040   21.6200   34.4690 C   0  0  0  0  0  0  0  0  0  0  0  0
   36.4730   21.1400   33.3110 C   0  0  0  0  0  0  0  0  0  0  0  0
   37.6120   21.0160   32.3890 C   0  0  0  0  0  0  0  0  0  0  0  0
   39.1240   21.6120   33.3190 S   0  0  0  0  0  0  0  0  0  0  0  0
   37.8280   20.5530   31.0170 N   0  0  0  0  0  0  0  0  0  0  0  0
   38.5120   21.4230   30.0400 C   0  0  0  0  0  0  0  0  0  0  0  0
   39.2470   20.4520   29.1850 C   0  0  0  0  0  0  0  0  0  0  0  0
   38.2380   19.7880   28.4700 O   0  0  0  0  0  0  0  0  0  0  0  0
   37.5620   18.8870   29.2900 C   0  0  0  0  0  0  0  0  0  0  0  0
   37.3130   19.2350   30.7270 C   0  0  0  0  0  0  0  0  0  0  0  0
   36.6940   18.2230   31.4860 N   0  0  0  0  0  0  0  0  0  0  0  0
   35.5070   17.9710   32.0530 C   0  0  0  0  0  0  0  0  0  0  0  0
   35.4770   16.7380   32.5620 N   0  0  0  0  0  0  0  0  0  0  0  0
   36.6710   16.1830   32.3230 C   0  0  0  0  0  0  0  0  0  0  0  0
   37.3440   17.1210   31.6820 N   0  0  0  0  0  0  0  0  0  0  0  0
   39.9450   22.7980   37.8180 C   0  0  0  0  0  0  0  0  0  0  0  0
   38.9890   23.4140   38.6200 C   0  0  0  0  0  0  0  0  0  0  0  0
   37.7110   23.5510   38.1430 C   0  0  0  0  0  0  0  0  0  0  0  0
   37.4740   23.0650   36.8980 N   0  0  0  0  0  0  0  0  0  0  0  0
   38.4010   22.4710   36.1240 C   0  0  0  0  0  0  0  0  0  0  0  0
   39.6340   22.3420   36.5940 N   0  0  0  0  0  0  0  0  0  0  0  0
   36.1378   21.7558   35.2465 H   0  0  0  0  0  0  0  0  0  0  0  0
   35.4309   20.8767   33.0772 H   0  0  0  0  0  0  0  0  0  0  0  0
   37.7862   22.0004   29.4485 H   0  0  0  0  0  0  0  0  0  0  0  0
   39.1681   22.1706   30.5097 H   0  0  0  0  0  0  0  0  0  0  0  0
   39.9305   20.9751   28.5000 H   0  0  0  0  0  0  0  0  0  0  0  0
   39.8702   19.7617   29.7725 H   0  0  0  0  0  0  0  0  0  0  0  0
   37.2129   17.9256   28.8853 H   0  0  0  0  0  0  0  0  0  0  0  0
   34.6703   18.6839   32.0935 H   0  0  0  0  0  0  0  0  0  0  0  0
   37.0139   15.1746   32.5980 H   0  0  0  0  0  0  0  0  0  0  0  0
   40.9726   22.6827   38.1931 H   0  0  0  0  0  0  0  0  0  0  0  0
   39.2545   23.7851   39.6209 H   0  0  0  0  0  0  0  0  0  0  0  0
   36.9192   24.0296   38.7380 H   0  0  0  0  0  0  0  0  0  0  0  0
  1 21  1  0
  2  1  2  0
  3  2  1  0
  4  3  2  0
  4  5  1  0
  5  1  1  0
  6  4  1  0
  7  6  1  0
  8  7  1  0
  9  8  1  0
  9 10  1  0
 10 11  2  0
 11  6  1  0
 11 12  1  0
 12 16  1  0
 12 13  1  0
 13 14  2  0
 15 14  1  0
 16 15  2  0
 17 18  2  0
 19 18  1  0
 20 19  2  0
 21 22  2  0
 21 20  1  0
 22 17  1  0
  2 23  1  0
  3 24  1  0
  7 25  1  0
  7 26  1  0
  8 27  1  0
  8 28  1  0
 10 29  1  0
 13 30  1  0
 15 31  1  0
 17 32  1  0
 18 33  1  0
 19 34  1  0
M  ISO  8  23  14  24  14  25  13  26  13  27  13  28  13  29  13  30  14
M  ISO  4  31  14  32  14  33  14  34  14
M  END
>  <minimizedAffinity>  (1) 
-4.55532932

>  <minimizedRMSD>  (1) 
0.838566422

$$$$
