
     RDKit          3D

 40 42  0  0  0  0  0  0  0  0999 V2000
   38.7030   22.7500   34.4860 C   0  0  0  0  0  0  0  0  0  0  0  0
   37.8550   23.4110   33.7110 C   0  0  0  0  0  0  0  0  0  0  0  0
   37.7460   23.3180   32.3990 C   0  0  0  0  0  0  0  0  0  0  0  0
   38.7090   22.3570   31.8720 C   0  0  0  0  0  0  0  0  0  0  0  0
   39.6660   21.6990   33.3450 S   0  0  0  0  0  0  0  0  0  0  0  0
   39.0710   21.8440   30.5530 N   0  0  0  0  0  0  0  0  0  0  0  0
   40.1490   22.4630   29.8200 C   0  0  0  0  0  0  0  0  0  0  0  0
   40.7990   21.3590   29.0450 C   0  0  0  0  0  0  0  0  0  0  0  0
   39.8360   20.9750   28.1210 O   0  0  0  0  0  0  0  0  0  0  0  0
   38.7700   20.3110   28.7080 C   0  0  0  0  0  0  0  0  0  0  0  0
   38.3080   20.7520   30.0690 C   0  0  0  0  0  0  0  0  0  0  0  0
   37.1930   19.9550   30.6230 C   0  0  0  0  0  0  0  0  0  0  0  0
   36.6830   18.9360   29.5620 C   0  0  0  0  0  0  0  0  0  0  0  0
   35.9300   20.7610   30.8850 C   0  0  0  0  0  0  0  0  0  0  0  0
   37.5870   19.0520   31.7600 C   0  0  0  0  0  0  0  0  0  0  0  0
   39.8750   22.8380   37.9010 C   0  0  0  0  0  0  0  0  0  0  0  0
   38.8110   23.4060   38.6000 C   0  0  0  0  0  0  0  0  0  0  0  0
   37.6780   23.7660   37.9180 C   0  0  0  0  0  0  0  0  0  0  0  0
   37.6640   23.5400   36.5700 N   0  0  0  0  0  0  0  0  0  0  0  0
   38.7080   22.9870   35.9070 C   0  0  0  0  0  0  0  0  0  0  0  0
   39.8030   22.6400   36.5740 N   0  0  0  0  0  0  0  0  0  0  0  0
   37.1706   24.1101   34.2138 H   0  0  0  0  0  0  0  0  0  0  0  0
   37.0290   23.8859   31.7880 H   0  0  0  0  0  0  0  0  0  0  0  0
   39.7570   23.2314   29.1374 H   0  0  0  0  0  0  0  0  0  0  0  0
   40.8628   22.9618   30.4921 H   0  0  0  0  0  0  0  0  0  0  0  0
   41.7047   21.7209   28.5363 H   0  0  0  0  0  0  0  0  0  0  0  0
   41.1197   20.5264   29.6883 H   0  0  0  0  0  0  0  0  0  0  0  0
   38.2725   19.4787   28.1887 H   0  0  0  0  0  0  0  0  0  0  0  0
   36.2466   18.0640   30.0712 H   0  0  0  0  0  0  0  0  0  0  0  0
   35.9179   19.4140   28.9326 H   0  0  0  0  0  0  0  0  0  0  0  0
   37.5242   18.6100   28.9326 H   0  0  0  0  0  0  0  0  0  0  0  0
   35.7761   20.8592   31.9697 H   0  0  0  0  0  0  0  0  0  0  0  0
   36.0334   21.7605   30.4374 H   0  0  0  0  0  0  0  0  0  0  0  0
   35.0671   20.2462   30.4374 H   0  0  0  0  0  0  0  0  0  0  0  0
   37.3696   19.5503   32.7163 H   0  0  0  0  0  0  0  0  0  0  0  0
   37.0166   18.1136   31.6975 H   0  0  0  0  0  0  0  0  0  0  0  0
   38.6629   18.8319   31.6975 H   0  0  0  0  0  0  0  0  0  0  0  0
   40.7867   22.5477   38.4437 H   0  0  0  0  0  0  0  0  0  0  0  0
   38.8800   23.5635   39.6865 H   0  0  0  0  0  0  0  0  0  0  0  0
   36.8172   24.2173   38.4331 H   0  0  0  0  0  0  0  0  0  0  0  0
  1 20  1  0
  2  1  2  0
  3  2  1  0
  4  3  2  0
  4  5  1  0
  5  1  1  0
  6  4  1  0
  7  6  1  0
  8  7  1  0
  9 10  1  0
  9  8  1  0
 10 11  2  0
 11  6  1  0
 11 12  1  0
 12 14  1  0
 12 15  1  0
 13 12  1  0
 16 17  2  0
 18 17  1  0
 19 18  2  0
 20 19  1  0
 20 21  2  0
 21 16  1  0
  2 22  1  0
  3 23  1  0
  7 24  1  0
  7 25  1  0
  8 26  1  0
  8 27  1  0
 10 28  1  0
 13 29  1  0
 13 30  1  0
 13 31  1  0
 14 32  1  0
 14 33  1  0
 14 34  1  0
 15 35  1  0
 15 36  1  0
 15 37  1  0
 16 38  1  0
 17 39  1  0
 18 40  1  0
M  ISO  8  22  14  23  14  24  13  25  13  26  13  27  13  28  13  29   8
M  ISO  8  30   8  31   8  32   8  33   8  34   8  35   8  36   8  37   8
M  ISO  3  38  14  39  14  40  14
M  END
>  <minimizedAffinity>  (1) 
-4.19821548

>  <minimizedRMSD>  (1) 
1.96883857

$$$$
