
     RDKit          3D

 30 32  0  0  0  0  0  0  0  0999 V2000
   38.0460   25.4130   35.7350 C   0  0  0  0  0  0  0  0  0  0  0  0
   37.8140   24.8470   34.4860 C   0  0  0  0  0  0  0  0  0  0  0  0
   37.4310   25.6710   33.4450 C   0  0  0  0  0  0  0  0  0  0  0  0
   37.2970   26.9980   33.6790 N   0  0  0  0  0  0  0  0  0  0  0  0
   37.5280   27.5200   34.9000 C   0  0  0  0  0  0  0  0  0  0  0  0
   37.9040   26.7360   35.9360 N   0  0  0  0  0  0  0  0  0  0  0  0
   37.1520   25.2730   32.1100 N   0  0  0  0  0  0  0  0  0  0  0  0
   35.8570   24.8560   31.6180 C   0  0  0  0  0  0  0  0  0  0  0  0
   35.9340   23.4310   31.1070 C   0  0  0  0  0  0  0  0  0  0  0  0
   37.2820   23.0530   30.9650 O   0  0  0  0  0  0  0  0  0  0  0  0
   37.9680   23.9880   30.1990 C   0  0  0  0  0  0  0  0  0  0  0  0
   38.1520   25.2330   31.0480 C   0  0  0  0  0  0  0  0  0  0  0  0
   38.4470   24.5120   36.8040 C   0  0  0  0  0  0  0  0  0  0  0  0
   39.3960   23.5010   36.6500 C   0  0  0  0  0  0  0  0  0  0  0  0
   39.4940   22.8740   37.8810 C   0  0  0  0  0  0  0  0  0  0  0  0
   38.5880   23.5590   38.6950 C   0  0  0  0  0  0  0  0  0  0  0  0
   37.9930   24.5160   38.0170 O   0  0  0  0  0  0  0  0  0  0  0  0
   37.9331   23.7647   34.3299 H   0  0  0  0  0  0  0  0  0  0  0  0
   37.4087   28.6022   35.0566 H   0  0  0  0  0  0  0  0  0  0  0  0
   35.1215   24.9117   32.4341 H   0  0  0  0  0  0  0  0  0  0  0  0
   35.5509   25.5196   30.7959 H   0  0  0  0  0  0  0  0  0  0  0  0
   35.4385   22.7582   31.8224 H   0  0  0  0  0  0  0  0  0  0  0  0
   35.4312   23.3651   30.1309 H   0  0  0  0  0  0  0  0  0  0  0  0
   38.9490   23.5856   29.9063 H   0  0  0  0  0  0  0  0  0  0  0  0
   37.4051   24.2248   29.2841 H   0  0  0  0  0  0  0  0  0  0  0  0
   39.1567   25.2219   31.4956 H   0  0  0  0  0  0  0  0  0  0  0  0
   38.0336   26.1218   30.4108 H   0  0  0  0  0  0  0  0  0  0  0  0
   39.9539   23.2521   35.7353 H   0  0  0  0  0  0  0  0  0  0  0  0
   40.1399   22.0271   38.1561 H   0  0  0  0  0  0  0  0  0  0  0  0
   38.3990   23.3299   39.7542 H   0  0  0  0  0  0  0  0  0  0  0  0
  1  6  1  0
  1 13  1  0
  2  1  2  0
  3  4  2  0
  3  2  1  0
  4  5  1  0
  5  6  2  0
  7  3  1  0
  8  7  1  0
  9  8  1  0
 10  9  1  0
 11 10  1  0
 11 12  1  0
 12  7  1  0
 13 17  1  0
 14 13  2  0
 14 15  1  0
 15 16  2  0
 17 16  1  0
  2 18  1  0
  5 19  1  0
  8 20  1  0
  8 21  1  0
  9 22  1  0
  9 23  1  0
 11 24  1  0
 11 25  1  0
 12 26  1  0
 12 27  1  0
 14 28  1  0
 15 29  1  0
 16 30  1  0
M  ISO  8  18  14  19  14  20  13  21  13  22  13  23  13  24  13  25  13
M  ISO  5  26  13  27  13  28  14  29  14  30  14
M  END
>  <minimizedAffinity>  (1) 
-4.7741251

>  <minimizedRMSD>  (1) 
4.32031393

$$$$
