
     RDKit          3D

 30 32  0  0  0  0  0  0  0  0999 V2000
   37.6730   26.4660   33.9520 C   0  0  0  0  0  0  0  0  0  0  0  0
   36.6300   27.3550   34.2080 C   0  0  0  0  0  0  0  0  0  0  0  0
   36.3500   28.3360   33.2800 C   0  0  0  0  0  0  0  0  0  0  0  0
   37.1220   28.3770   32.1540 N   0  0  0  0  0  0  0  0  0  0  0  0
   38.1180   27.5160   31.9260 C   0  0  0  0  0  0  0  0  0  0  0  0
   38.4050   26.5490   32.8270 N   0  0  0  0  0  0  0  0  0  0  0  0
   35.3470   29.3210   33.3510 N   0  0  0  0  0  0  0  0  0  0  0  0
   35.5230   30.6440   33.9610 C   0  0  0  0  0  0  0  0  0  0  0  0
   34.5610   30.7970   35.1070 C   0  0  0  0  0  0  0  0  0  0  0  0
   33.5890   29.7960   35.0630 O   0  0  0  0  0  0  0  0  0  0  0  0
   33.0000   29.7710   33.8000 C   0  0  0  0  0  0  0  0  0  0  0  0
   34.0040   29.1710   32.8330 C   0  0  0  0  0  0  0  0  0  0  0  0
   37.9620   25.4310   34.9400 C   0  0  0  0  0  0  0  0  0  0  0  0
   38.0960   25.6240   36.3000 C   0  0  0  0  0  0  0  0  0  0  0  0
   38.3670   24.3720   36.8460 C   0  0  0  0  0  0  0  0  0  0  0  0
   38.3940   23.4580   35.8370 N   0  0  0  0  0  0  0  0  0  0  0  0
   38.1500   24.1310   34.7290 N   0  0  0  0  0  0  0  0  0  0  0  0
   36.0410   27.2754   35.1336 H   0  0  0  0  0  0  0  0  0  0  0  0
   38.7076   27.5941   31.0007 H   0  0  0  0  0  0  0  0  0  0  0  0
   36.5540   30.7433   34.3314 H   0  0  0  0  0  0  0  0  0  0  0  0
   35.3277   31.4239   33.2103 H   0  0  0  0  0  0  0  0  0  0  0  0
   35.1130   30.7248   36.0557 H   0  0  0  0  0  0  0  0  0  0  0  0
   34.0677   31.7772   35.0305 H   0  0  0  0  0  0  0  0  0  0  0  0
   32.0890   29.1550   33.8239 H   0  0  0  0  0  0  0  0  0  0  0  0
   32.7224   30.7877   33.4848 H   0  0  0  0  0  0  0  0  0  0  0  0
   33.9284   29.6865   31.8642 H   0  0  0  0  0  0  0  0  0  0  0  0
   33.7853   28.1004   32.7064 H   0  0  0  0  0  0  0  0  0  0  0  0
   38.0066   26.5761   36.8437 H   0  0  0  0  0  0  0  0  0  0  0  0
   38.5315   24.1576   37.9123 H   0  0  0  0  0  0  0  0  0  0  0  0
   38.5693   22.4466   35.9217 H   0  0  0  0  0  0  0  0  0  0  0  0
  1  2  2  0
  1 13  1  0
  3  7  1  0
  3  2  1  0
  4  3  2  0
  5  4  1  0
  5  6  2  0
  6  1  1  0
  7  8  1  0
  8  9  1  0
 10  9  1  0
 11 10  1  0
 12  7  1  0
 12 11  1  0
 13 14  1  0
 14 15  2  0
 16 15  1  0
 17 13  2  0
 17 16  1  0
  2 18  1  0
  5 19  1  0
  8 20  1  0
  8 21  1  0
  9 22  1  0
  9 23  1  0
 11 24  1  0
 11 25  1  0
 12 26  1  0
 12 27  1  0
 14 28  1  0
 15 29  1  0
 16 30  1  0
M  ISO  8  18  14  19  14  20  13  21  13  22  13  23  13  24  13  25  13
M  ISO  5  26  13  27  13  28  14  29  14  30   9
M  END
>  <minimizedAffinity>  (1) 
-4.17889643

>  <minimizedRMSD>  (1) 
5.59181547

$$$$
