
     RDKit          3D

 36 38  0  0  0  0  0  0  0  0999 V2000
   38.6460   25.1270   35.2070 C   0  0  0  0  0  0  0  0  0  0  0  0
   39.9910   25.0740   34.8450 C   0  0  0  0  0  0  0  0  0  0  0  0
   40.8060   24.1370   35.4520 C   0  0  0  0  0  0  0  0  0  0  0  0
   40.2490   23.3040   36.3810 N   0  0  0  0  0  0  0  0  0  0  0  0
   38.9510   23.3750   36.7150 C   0  0  0  0  0  0  0  0  0  0  0  0
   38.1450   24.2870   36.1280 N   0  0  0  0  0  0  0  0  0  0  0  0
   42.1770   23.9280   35.2230 N   0  0  0  0  0  0  0  0  0  0  0  0
   43.2540   24.6140   35.9450 C   0  0  0  0  0  0  0  0  0  0  0  0
   44.0950   25.3960   34.9720 C   0  0  0  0  0  0  0  0  0  0  0  0
   43.8010   24.9980   33.6530 O   0  0  0  0  0  0  0  0  0  0  0  0
   43.9230   23.6190   33.5620 C   0  0  0  0  0  0  0  0  0  0  0  0
   42.7170   23.0090   34.2460 C   0  0  0  0  0  0  0  0  0  0  0  0
   37.8450   26.1030   34.5610 N   0  0  0  0  0  0  0  0  0  0  0  0
   37.6790   27.4020   35.1830 C   0  0  0  0  0  0  0  0  0  0  0  0
   36.5190   28.0670   34.4580 C   0  0  0  0  0  0  0  0  0  0  0  0
   36.8150   28.2480   33.1280 O   0  0  0  0  0  0  0  0  0  0  0  0
   37.3210   27.1430   32.4810 C   0  0  0  0  0  0  0  0  0  0  0  0
   37.1780   25.8590   33.2980 C   0  0  0  0  0  0  0  0  0  0  0  0
   40.3961   25.7646   34.0907 H   0  0  0  0  0  0  0  0  0  0  0  0
   38.5415   22.6877   37.4699 H   0  0  0  0  0  0  0  0  0  0  0  0
   42.8187   25.3000   36.6866 H   0  0  0  0  0  0  0  0  0  0  0  0
   43.8828   23.8703   36.4564 H   0  0  0  0  0  0  0  0  0  0  0  0
   43.8804   26.4689   35.0852 H   0  0  0  0  0  0  0  0  0  0  0  0
   45.1583   25.2045   35.1785 H   0  0  0  0  0  0  0  0  0  0  0  0
   43.9502   23.3133   32.5057 H   0  0  0  0  0  0  0  0  0  0  0  0
   44.8531   23.2799   34.0416 H   0  0  0  0  0  0  0  0  0  0  0  0
   41.9468   22.7858   33.4930 H   0  0  0  0  0  0  0  0  0  0  0  0
   43.0242   22.0840   34.7558 H   0  0  0  0  0  0  0  0  0  0  0  0
   37.4466   27.2873   36.2520 H   0  0  0  0  0  0  0  0  0  0  0  0
   38.5972   28.0036   35.1123 H   0  0  0  0  0  0  0  0  0  0  0  0
   35.6263   27.4303   34.5455 H   0  0  0  0  0  0  0  0  0  0  0  0
   36.3340   29.0501   34.9154 H   0  0  0  0  0  0  0  0  0  0  0  0
   36.7829   27.0159   31.5301 H   0  0  0  0  0  0  0  0  0  0  0  0
   38.3957   27.3160   32.3228 H   0  0  0  0  0  0  0  0  0  0  0  0
   36.1151   25.6314   33.4665 H   0  0  0  0  0  0  0  0  0  0  0  0
   37.6201   24.9998   32.7723 H   0  0  0  0  0  0  0  0  0  0  0  0
  1  6  1  0
  2  1  2  0
  2  3  1  0
  3  4  2  0
  4  5  1  0
  6  5  2  0
  7  3  1  0
  7  8  1  0
  9  8  1  0
 10  9  1  0
 11 10  1  0
 11 12  1  0
 12  7  1  0
 13 14  1  0
 13  1  1  0
 15 14  1  0
 16 15  1  0
 17 16  1  0
 17 18  1  0
 18 13  1  0
  2 19  1  0
  5 20  1  0
  8 21  1  0
  8 22  1  0
  9 23  1  0
  9 24  1  0
 11 25  1  0
 11 26  1  0
 12 27  1  0
 12 28  1  0
 14 29  1  0
 14 30  1  0
 15 31  1  0
 15 32  1  0
 17 33  1  0
 17 34  1  0
 18 35  1  0
 18 36  1  0
M  ISO  8  19  14  20  14  21  13  22  13  23  13  24  13  25  13  26  13
M  ISO  8  27  13  28  13  29  13  30  13  31  13  32  13  33  13  34  13
M  ISO  2  35  13  36  13
M  END
>  <minimizedAffinity>  (1) 
-3.89829087

>  <minimizedRMSD>  (1) 
5.99925852

$$$$
