
     RDKit          3D

 35 37  0  0  0  0  0  0  0  0999 V2000
   37.9400   26.5960   34.2250 C   0  0  0  0  0  0  0  0  0  0  0  0
   39.2370   26.1850   33.8910 C   0  0  0  0  0  0  0  0  0  0  0  0
   39.8560   25.2730   34.7240 C   0  0  0  0  0  0  0  0  0  0  0  0
   39.1940   24.8130   35.8240 N   0  0  0  0  0  0  0  0  0  0  0  0
   37.9480   25.2320   36.1130 C   0  0  0  0  0  0  0  0  0  0  0  0
   37.3180   26.1220   35.3190 N   0  0  0  0  0  0  0  0  0  0  0  0
   41.1610   24.7290   34.5590 N   0  0  0  0  0  0  0  0  0  0  0  0
   42.3770   25.2910   35.1030 C   0  0  0  0  0  0  0  0  0  0  0  0
   43.3170   25.6310   33.9690 C   0  0  0  0  0  0  0  0  0  0  0  0
   42.8800   25.0340   32.7770 O   0  0  0  0  0  0  0  0  0  0  0  0
   42.6870   23.6630   32.9770 C   0  0  0  0  0  0  0  0  0  0  0  0
   41.4280   23.5080   33.7970 C   0  0  0  0  0  0  0  0  0  0  0  0
   37.3030   27.5350   33.3670 N   0  0  0  0  0  0  0  0  0  0  0  0
   37.6730   27.7860   31.9890 C   0  0  0  0  0  0  0  0  0  0  0  0
   36.8440   28.9460   31.5490 C   0  0  0  0  0  0  0  0  0  0  0  0
   35.5980   28.8240   32.3900 C   0  0  0  0  0  0  0  0  0  0  0  0
   36.1870   28.3930   33.7150 C   0  0  0  0  0  0  0  0  0  0  0  0
   39.7449   26.5749   32.9966 H   0  0  0  0  0  0  0  0  0  0  0  0
   37.4376   24.8442   37.0069 H   0  0  0  0  0  0  0  0  0  0  0  0
   42.1394   26.2031   35.6702 H   0  0  0  0  0  0  0  0  0  0  0  0
   42.8545   24.5610   35.7731 H   0  0  0  0  0  0  0  0  0  0  0  0
   43.3472   26.7227   33.8379 H   0  0  0  0  0  0  0  0  0  0  0  0
   44.3208   25.2520   34.2113 H   0  0  0  0  0  0  0  0  0  0  0  0
   42.5725   23.1527   32.0093 H   0  0  0  0  0  0  0  0  0  0  0  0
   43.5492   23.2171   33.4944 H   0  0  0  0  0  0  0  0  0  0  0  0
   40.5804   23.3076   33.1251 H   0  0  0  0  0  0  0  0  0  0  0  0
   41.5604   22.6715   34.4989 H   0  0  0  0  0  0  0  0  0  0  0  0
   38.7429   28.0315   31.9185 H   0  0  0  0  0  0  0  0  0  0  0  0
   37.5004   26.9026   31.3566 H   0  0  0  0  0  0  0  0  0  0  0  0
   37.3608   29.8967   31.7467 H   0  0  0  0  0  0  0  0  0  0  0  0
   36.6355   28.9398   30.4690 H   0  0  0  0  0  0  0  0  0  0  0  0
   35.0721   29.7864   32.4753 H   0  0  0  0  0  0  0  0  0  0  0  0
   34.8418   28.1360   31.9840 H   0  0  0  0  0  0  0  0  0  0  0  0
   35.4434   27.8394   34.3071 H   0  0  0  0  0  0  0  0  0  0  0  0
   36.5004   29.2515   34.3272 H   0  0  0  0  0  0  0  0  0  0  0  0
  1  6  1  0
  2  1  2  0
  2  3  1  0
  3  4  2  0
  4  5  1  0
  6  5  2  0
  7  3  1  0
  7  8  1  0
  9  8  1  0
 10 11  1  0
 10  9  1  0
 11 12  1  0
 12  7  1  0
 13 17  1  0
 13  1  1  0
 14 13  1  0
 15 14  1  0
 15 16  1  0
 16 17  1  0
  2 18  1  0
  5 19  1  0
  8 20  1  0
  8 21  1  0
  9 22  1  0
  9 23  1  0
 11 24  1  0
 11 25  1  0
 12 26  1  0
 12 27  1  0
 14 28  1  0
 14 29  1  0
 15 30  1  0
 15 31  1  0
 16 32  1  0
 16 33  1  0
 17 34  1  0
 17 35  1  0
M  ISO  8  18  14  19  14  20  13  21  13  22  13  23  13  24  13  25  13
M  ISO  8  26  13  27  13  28  13  29  13  30  13  31  13  32  13  33  13
M  ISO  2  34  13  35  13
M  END
>  <minimizedAffinity>  (1) 
-3.54445505

>  <minimizedRMSD>  (1) 
6.5828886

$$$$
