
     RDKit          3D

 25 26  0  0  0  0  0  0  0  0999 V2000
   38.7350   23.2690   37.4560 C   0  0  0  0  0  0  0  0  0  0  0  0
   38.2930   23.3610   36.1400 C   0  0  0  0  0  0  0  0  0  0  0  0
   39.0800   22.8190   35.1450 C   0  0  0  0  0  0  0  0  0  0  0  0
   40.2460   22.2200   35.4900 N   0  0  0  0  0  0  0  0  0  0  0  0
   40.6480   22.1450   36.7670 C   0  0  0  0  0  0  0  0  0  0  0  0
   39.9130   22.6580   37.7530 N   0  0  0  0  0  0  0  0  0  0  0  0
   38.8110   22.8070   33.7480 N   0  0  0  0  0  0  0  0  0  0  0  0
   39.2050   23.8340   32.8060 C   0  0  0  0  0  0  0  0  0  0  0  0
   37.9720   24.4390   32.1680 C   0  0  0  0  0  0  0  0  0  0  0  0
   36.8510   23.6390   32.4320 O   0  0  0  0  0  0  0  0  0  0  0  0
   37.1180   22.3280   32.0560 C   0  0  0  0  0  0  0  0  0  0  0  0
   38.0880   21.7390   33.0640 C   0  0  0  0  0  0  0  0  0  0  0  0
   37.8670   23.8550   38.4470 C   0  0  0  0  0  0  0  0  0  0  0  0
   38.0440   24.9860   38.9900 O   0  0  0  0  0  0  0  0  0  0  0  0
   37.3396   23.8537   35.8989 H   0  0  0  0  0  0  0  0  0  0  0  0
   41.6017   21.6511   37.0049 H   0  0  0  0  0  0  0  0  0  0  0  0
   39.7665   24.6189   33.3339 H   0  0  0  0  0  0  0  0  0  0  0  0
   39.8392   23.3892   32.0250 H   0  0  0  0  0  0  0  0  0  0  0  0
   38.1217   24.5080   31.0804 H   0  0  0  0  0  0  0  0  0  0  0  0
   37.8051   25.4422   32.5872 H   0  0  0  0  0  0  0  0  0  0  0  0
   36.1857   21.7442   32.0499 H   0  0  0  0  0  0  0  0  0  0  0  0
   37.5534   22.3013   31.0462 H   0  0  0  0  0  0  0  0  0  0  0  0
   37.5292   21.1465   33.8034 H   0  0  0  0  0  0  0  0  0  0  0  0
   38.8088   21.0965   32.5370 H   0  0  0  0  0  0  0  0  0  0  0  0
   36.9839   23.2761   38.7551 H   0  0  0  0  0  0  0  0  0  0  0  0
  1  6  2  0
  1 13  1  0
  2  1  1  0
  3  4  1  0
  3  2  2  0
  4  5  2  0
  5  6  1  0
  7  3  1  0
  8  7  1  0
  9 10  1  0
  9  8  1  0
 11 10  1  0
 11 12  1  0
 12  7  1  0
 13 14  2  0
  2 15  1  0
  5 16  1  0
  8 17  1  0
  8 18  1  0
  9 19  1  0
  9 20  1  0
 11 21  1  0
 11 22  1  0
 12 23  1  0
 12 24  1  0
 13 25  1  0
M  ISO  8  15  14  16  14  17  13  18  13  19  13  20  13  21  13  22  13
M  ISO  3  23  13  24  13  25   6
M  END
>  <minimizedAffinity>  (1) 
-3.69543457

>  <minimizedRMSD>  (1) 
2.84080982

$$$$
