
     RDKit          3D

 33 35  0  0  0  0  0  0  0  0999 V2000
   42.3110   23.3220   36.3100 C   0  0  0  0  0  0  0  0  0  0  0  0
   41.8830   24.0570   35.2190 C   0  0  0  0  0  0  0  0  0  0  0  0
   42.6570   25.0990   34.7770 C   0  0  0  0  0  0  0  0  0  0  0  0
   43.8210   25.3700   35.4320 N   0  0  0  0  0  0  0  0  0  0  0  0
   44.2060   24.6370   36.4890 C   0  0  0  0  0  0  0  0  0  0  0  0
   43.4800   23.6230   36.9390 N   0  0  0  0  0  0  0  0  0  0  0  0
   42.3960   25.9700   33.6810 N   0  0  0  0  0  0  0  0  0  0  0  0
   41.6780   27.2140   33.7510 C   0  0  0  0  0  0  0  0  0  0  0  0
   40.4480   27.1420   32.8780 C   0  0  0  0  0  0  0  0  0  0  0  0
   40.5150   26.0260   32.0250 O   0  0  0  0  0  0  0  0  0  0  0  0
   41.7290   26.0550   31.3360 C   0  0  0  0  0  0  0  0  0  0  0  0
   42.8380   25.6990   32.3050 C   0  0  0  0  0  0  0  0  0  0  0  0
   41.4480   22.2410   36.7190 C   0  0  0  0  0  0  0  0  0  0  0  0
   41.7900   21.0420   36.8790 O   0  0  0  0  0  0  0  0  0  0  0  0
   40.0450   22.5510   36.9740 C   0  0  0  0  0  0  0  0  0  0  0  0
   39.0540   22.2750   36.0270 C   0  0  0  0  0  0  0  0  0  0  0  0
   37.7080   22.5600   36.2450 C   0  0  0  0  0  0  0  0  0  0  0  0
   37.3750   23.1310   37.4400 N   0  0  0  0  0  0  0  0  0  0  0  0
   38.3150   23.3940   38.3410 C   0  0  0  0  0  0  0  0  0  0  0  0
   39.6050   23.1150   38.1180 N   0  0  0  0  0  0  0  0  0  0  0  0
   40.9374   23.8096   34.7144 H   0  0  0  0  0  0  0  0  0  0  0  0
   45.1503   24.8847   36.9959 H   0  0  0  0  0  0  0  0  0  0  0  0
   41.3770   27.4043   34.7918 H   0  0  0  0  0  0  0  0  0  0  0  0
   42.3271   28.0294   33.3990 H   0  0  0  0  0  0  0  0  0  0  0  0
   39.5557   27.0573   33.5157 H   0  0  0  0  0  0  0  0  0  0  0  0
   40.3914   28.0547   32.2666 H   0  0  0  0  0  0  0  0  0  0  0  0
   41.7065   25.3255   30.5130 H   0  0  0  0  0  0  0  0  0  0  0  0
   41.9013   27.0571   30.9163 H   0  0  0  0  0  0  0  0  0  0  0  0
   43.0847   24.6319   32.2031 H   0  0  0  0  0  0  0  0  0  0  0  0
   43.7279   26.3055   32.0808 H   0  0  0  0  0  0  0  0  0  0  0  0
   39.3488   21.8148   35.0724 H   0  0  0  0  0  0  0  0  0  0  0  0
   36.9447   22.3344   35.4858 H   0  0  0  0  0  0  0  0  0  0  0  0
   38.0251   23.8540   39.2972 H   0  0  0  0  0  0  0  0  0  0  0  0
  1 13  1  0
  1  6  1  0
  2  1  2  0
  3  2  1  0
  3  4  2  0
  4  5  1  0
  5  6  2  0
  7  8  1  0
  7  3  1  0
  9  8  1  0
 10  9  1  0
 11 10  1  0
 11 12  1  0
 12  7  1  0
 13 14  2  0
 13 15  1  0
 15 20  2  0
 16 17  2  0
 16 15  1  0
 17 18  1  0
 18 19  2  0
 20 19  1  0
  2 21  1  0
  5 22  1  0
  8 23  1  0
  8 24  1  0
  9 25  1  0
  9 26  1  0
 11 27  1  0
 11 28  1  0
 12 29  1  0
 12 30  1  0
 16 31  1  0
 17 32  1  0
 19 33  1  0
M  ISO  8  21  14  22  14  23  13  24  13  25  13  26  13  27  13  28  13
M  ISO  5  29  13  30  13  31  14  32  14  33  14
M  END
>  <minimizedAffinity>  (1) 
-4.47176456

>  <minimizedRMSD>  (1) 
4.52777576

$$$$
