
     RDKit          3D

 48 51  0  0  0  0  0  0  0  0999 V2000
   39.8320   22.2600   34.5950 C   0  0  0  0  0  0  0  0  0  0  0  0
   38.5980   22.0880   33.9870 C   0  0  0  0  0  0  0  0  0  0  0  0
   38.5010   21.2640   32.8800 C   0  0  0  0  0  0  0  0  0  0  0  0
   39.6370   20.6490   32.4300 N   0  0  0  0  0  0  0  0  0  0  0  0
   40.8080   20.8390   33.0420 C   0  0  0  0  0  0  0  0  0  0  0  0
   40.9170   21.6260   34.1050 N   0  0  0  0  0  0  0  0  0  0  0  0
   37.3420   20.9660   32.1300 N   0  0  0  0  0  0  0  0  0  0  0  0
   36.8640   21.7000   30.9840 C   0  0  0  0  0  0  0  0  0  0  0  0
   35.4900   22.2430   31.2670 C   0  0  0  0  0  0  0  0  0  0  0  0
   34.9520   21.6370   32.4310 O   0  0  0  0  0  0  0  0  0  0  0  0
   35.0010   20.2680   32.2840 C   0  0  0  0  0  0  0  0  0  0  0  0
   36.4470   19.8370   32.4310 C   0  0  0  0  0  0  0  0  0  0  0  0
   39.8840   23.1260   35.7310 C   0  0  0  0  0  0  0  0  0  0  0  0
   40.2630   22.7660   36.9020 O   0  0  0  0  0  0  0  0  0  0  0  0
   39.5110   24.5310   35.7010 C   0  0  0  0  0  0  0  0  0  0  0  0
   38.4300   25.0130   36.4260 C   0  0  0  0  0  0  0  0  0  0  0  0
   38.0940   26.3600   36.3750 C   0  0  0  0  0  0  0  0  0  0  0  0
   38.8200   27.2440   35.6070 C   0  0  0  0  0  0  0  0  0  0  0  0
   39.9020   26.7730   34.8780 C   0  0  0  0  0  0  0  0  0  0  0  0
   40.2230   25.4220   34.9430 C   0  0  0  0  0  0  0  0  0  0  0  0
   41.4000   25.0800   34.1170 C   0  0  0  0  0  0  0  0  0  0  0  0
   41.7080   26.1790   33.1590 C   0  0  0  0  0  0  0  0  0  0  0  0
   42.7400   27.0660   33.7820 C   0  0  0  0  0  0  0  0  0  0  0  0
   43.5130   26.1270   34.6670 C   0  0  0  0  0  0  0  0  0  0  0  0
   42.6610   24.9220   34.9110 C   0  0  0  0  0  0  0  0  0  0  0  0
   37.7073   22.6002   34.3798 H   0  0  0  0  0  0  0  0  0  0  0  0
   41.7041   20.3311   32.6560 H   0  0  0  0  0  0  0  0  0  0  0  0
   36.8201   21.0298   30.1128 H   0  0  0  0  0  0  0  0  0  0  0  0
   37.5494   22.5343   30.7739 H   0  0  0  0  0  0  0  0  0  0  0  0
   35.5539   23.3304   31.4204 H   0  0  0  0  0  0  0  0  0  0  0  0
   34.8342   22.0212   30.4121 H   0  0  0  0  0  0  0  0  0  0  0  0
   34.3865   19.7863   33.0588 H   0  0  0  0  0  0  0  0  0  0  0  0
   34.6108   19.9734   31.2986 H   0  0  0  0  0  0  0  0  0  0  0  0
   36.6539   19.0121   31.7333 H   0  0  0  0  0  0  0  0  0  0  0  0
   36.6211   19.5039   33.4648 H   0  0  0  0  0  0  0  0  0  0  0  0
   37.8358   24.3243   37.0446 H   0  0  0  0  0  0  0  0  0  0  0  0
   37.2352   26.7264   36.9566 H   0  0  0  0  0  0  0  0  0  0  0  0
   38.5453   28.3086   35.5724 H   0  0  0  0  0  0  0  0  0  0  0  0
   40.4975   27.4587   34.2574 H   0  0  0  0  0  0  0  0  0  0  0  0
   41.1240   24.1338   33.6285 H   0  0  0  0  0  0  0  0  0  0  0  0
   40.7962   26.7579   32.9505 H   0  0  0  0  0  0  0  0  0  0  0  0
   42.0847   25.7639   32.2125 H   0  0  0  0  0  0  0  0  0  0  0  0
   43.3914   27.5115   33.0157 H   0  0  0  0  0  0  0  0  0  0  0  0
   42.3047   27.9145   34.3302 H   0  0  0  0  0  0  0  0  0  0  0  0
   44.4482   25.8295   34.1702 H   0  0  0  0  0  0  0  0  0  0  0  0
   43.7662   26.6173   35.6186 H   0  0  0  0  0  0  0  0  0  0  0  0
   42.4211   24.8447   35.9817 H   0  0  0  0  0  0  0  0  0  0  0  0
   43.1933   24.0088   34.6064 H   0  0  0  0  0  0  0  0  0  0  0  0
  1 13  1  0
  2  1  2  0
  3  2  1  0
  4  3  2  0
  4  5  1  0
  5  6  2  0
  6  1  1  0
  7 12  1  0
  7  3  1  0
  8  9  1  0
  8  7  1  0
  9 10  1  0
 11 10  1  0
 11 12  1  0
 13 14  2  0
 15 13  1  0
 15 16  2  0
 17 16  1  0
 18 17  2  0
 19 20  2  0
 19 18  1  0
 20 15  1  0
 21 25  1  0
 21 20  1  0
 22 23  1  0
 22 21  1  0
 23 24  1  0
 24 25  1  0
  2 26  1  0
  5 27  1  0
  8 28  1  0
  8 29  1  0
  9 30  1  0
  9 31  1  0
 11 32  1  0
 11 33  1  0
 12 34  1  0
 12 35  1  0
 16 36  1  0
 17 37  1  0
 18 38  1  0
 19 39  1  0
 21 40  1  0
 22 41  1  0
 22 42  1  0
 23 43  1  0
 23 44  1  0
 24 45  1  0
 24 46  1  0
 25 47  1  0
 25 48  1  0
M  ISO  8  26  14  27  14  28  13  29  13  30  13  31  13  32  13  33  13
M  ISO  8  34  13  35  13  36  14  37  14  38  14  39  14  40  13  41  13
M  ISO  7  42  13  43  13  44  13  45  13  46  13  47  13  48  13
M  END
>  <minimizedAffinity>  (1) 
-5.46352816

>  <minimizedRMSD>  (1) 
0.135161057

$$$$
