
     RDKit          3D

 46 49  0  0  0  0  0  0  0  0999 V2000
   39.9960   22.2310   34.5080 C   0  0  0  0  0  0  0  0  0  0  0  0
   38.7350   22.0710   33.9500 C   0  0  0  0  0  0  0  0  0  0  0  0
   38.6080   21.2370   32.8620 C   0  0  0  0  0  0  0  0  0  0  0  0
   39.7130   20.5990   32.3680 N   0  0  0  0  0  0  0  0  0  0  0  0
   40.9210   20.7850   32.9460 C   0  0  0  0  0  0  0  0  0  0  0  0
   41.0770   21.5830   33.9980 N   0  0  0  0  0  0  0  0  0  0  0  0
   37.4120   20.9410   32.1480 N   0  0  0  0  0  0  0  0  0  0  0  0
   36.9220   21.6740   31.0000 C   0  0  0  0  0  0  0  0  0  0  0  0
   35.5730   22.2470   31.3070 C   0  0  0  0  0  0  0  0  0  0  0  0
   35.0510   21.6800   32.4900 O   0  0  0  0  0  0  0  0  0  0  0  0
   35.0750   20.3090   32.3590 C   0  0  0  0  0  0  0  0  0  0  0  0
   36.5080   19.8480   32.4800 C   0  0  0  0  0  0  0  0  0  0  0  0
   40.0980   23.1090   35.6470 C   0  0  0  0  0  0  0  0  0  0  0  0
   40.5890   22.7810   36.7740 O   0  0  0  0  0  0  0  0  0  0  0  0
   39.6440   24.4920   35.6360 C   0  0  0  0  0  0  0  0  0  0  0  0
   38.4430   24.8690   36.2240 C   0  0  0  0  0  0  0  0  0  0  0  0
   38.0610   26.2100   36.1810 C   0  0  0  0  0  0  0  0  0  0  0  0
   38.8310   27.1800   35.5750 C   0  0  0  0  0  0  0  0  0  0  0  0
   40.0150   26.8030   34.9960 C   0  0  0  0  0  0  0  0  0  0  0  0
   40.3990   25.4690   35.0380 C   0  0  0  0  0  0  0  0  0  0  0  0
   41.6460   25.1950   34.4050 N   0  0  0  0  0  0  0  0  0  0  0  0
   42.6710   25.2580   35.3030 C   0  0  0  0  0  0  0  0  0  0  0  0
   43.9860   25.0220   34.8920 C   0  0  0  0  0  0  0  0  0  0  0  0
   44.2080   24.7270   33.5610 C   0  0  0  0  0  0  0  0  0  0  0  0
   45.5430   24.4850   33.1340 N   0  0  0  0  0  0  0  0  0  0  0  0
   43.1660   24.6800   32.7260 N   0  0  0  0  0  0  0  0  0  0  0  0
   41.9040   24.9080   33.1330 C   0  0  0  0  0  0  0  0  0  0  0  0
   40.8860   24.8780   32.3980 O   0  0  0  0  0  0  0  0  0  0  0  0
   37.8620   22.5957   34.3654 H   0  0  0  0  0  0  0  0  0  0  0  0
   41.7975   20.2626   32.5353 H   0  0  0  0  0  0  0  0  0  0  0  0
   36.8435   20.9947   30.1384 H   0  0  0  0  0  0  0  0  0  0  0  0
   37.6200   22.4906   30.7634 H   0  0  0  0  0  0  0  0  0  0  0  0
   35.6634   23.3356   31.4369 H   0  0  0  0  0  0  0  0  0  0  0  0
   34.8923   22.0191   30.4735 H   0  0  0  0  0  0  0  0  0  0  0  0
   34.6733   20.0218   31.3761 H   0  0  0  0  0  0  0  0  0  0  0  0
   34.4585   19.8419   33.1411 H   0  0  0  0  0  0  0  0  0  0  0  0
   36.6807   19.0097   31.7891 H   0  0  0  0  0  0  0  0  0  0  0  0
   36.6973   19.5239   33.5140 H   0  0  0  0  0  0  0  0  0  0  0  0
   37.8032   24.1216   36.7159 H   0  0  0  0  0  0  0  0  0  0  0  0
   37.1097   26.5046   36.6481 H   0  0  0  0  0  0  0  0  0  0  0  0
   38.5035   28.2300   35.5566 H   0  0  0  0  0  0  0  0  0  0  0  0
   40.6547   27.5498   34.5029 H   0  0  0  0  0  0  0  0  0  0  0  0
   42.4615   25.4958   36.3564 H   0  0  0  0  0  0  0  0  0  0  0  0
   44.8199   25.0698   35.6078 H   0  0  0  0  0  0  0  0  0  0  0  0
   45.7357   24.2629   32.1469 H   0  0  0  0  0  0  0  0  0  0  0  0
   46.3170   24.5318   33.8119 H   0  0  0  0  0  0  0  0  0  0  0  0
  1 13  1  0
  2  1  2  0
  3  2  1  0
  4  3  2  0
  4  5  1  0
  5  6  2  0
  6  1  1  0
  7 12  1  0
  7  3  1  0
  8  9  1  0
  8  7  1  0
  9 10  1  0
 11 12  1  0
 11 10  1  0
 13 14  2  0
 15 13  1  0
 15 16  2  0
 17 16  1  0
 18 17  2  0
 19 20  2  0
 19 18  1  0
 20 15  1  0
 21 20  1  0
 21 22  1  0
 23 22  2  0
 24 23  1  0
 25 24  1  0
 26 27  1  0
 26 24  2  0
 27 21  1  0
 28 27  2  0
  2 29  1  0
  5 30  1  0
  8 31  1  0
  8 32  1  0
  9 33  1  0
  9 34  1  0
 11 35  1  0
 11 36  1  0
 12 37  1  0
 12 38  1  0
 16 39  1  0
 17 40  1  0
 18 41  1  0
 19 42  1  0
 22 43  1  0
 23 44  1  0
 25 45  1  0
 25 46  1  0
M  ISO  8  29  14  30  14  31  13  32  13  33  13  34  13  35  13  36  13
M  ISO  8  37  13  38  13  39  14  40  14  41  14  42  14  43  14  44  14
M  END
>  <minimizedAffinity>  (1) 
-5.4408989

>  <minimizedRMSD>  (1) 
0.860998213

$$$$
