
     RDKit          3D

 42 45  0  0  1  0  0  0  0  0999 V2000
   39.7940   22.2850   34.5950 C   0  0  0  0  0  0  0  0  0  0  0  0
   38.5780   22.0670   33.9730 C   0  0  0  0  0  0  0  0  0  0  0  0
   38.5110   21.2440   32.8740 C   0  0  0  0  0  0  0  0  0  0  0  0
   39.6630   20.6630   32.4290 N   0  0  0  0  0  0  0  0  0  0  0  0
   40.8230   20.8920   33.0490 C   0  0  0  0  0  0  0  0  0  0  0  0
   40.8990   21.6850   34.1130 N   0  0  0  0  0  0  0  0  0  0  0  0
   37.3610   20.9040   32.1170 N   0  0  0  0  0  0  0  0  0  0  0  0
   36.8710   21.6180   30.9690 C   0  0  0  0  0  0  0  0  0  0  0  0
   35.4790   22.1160   31.2410 C   0  0  0  0  0  0  0  0  0  0  0  0
   34.9470   21.5010   32.4000 O   0  0  0  0  0  0  0  0  0  0  0  0
   35.0400   20.1350   32.2670 C   0  0  0  0  0  0  0  0  0  0  0  0
   36.4980   19.7480   32.4100 C   0  0  0  0  0  0  0  0  0  0  0  0
   39.8220   23.1610   35.7180 C   0  0  0  0  0  0  0  0  0  0  0  0
   40.1490   22.7920   36.9080 O   0  0  0  0  0  0  0  0  0  0  0  0
   39.4840   24.5760   35.6600 C   0  0  0  0  0  0  0  0  0  0  0  0
   38.2780   25.0470   36.1720 C   0  0  0  0  0  0  0  0  0  0  0  0
   37.9460   26.3820   36.1120 C   0  0  0  0  0  0  0  0  0  0  0  0
   38.8050   27.2920   35.5410 C   0  0  0  0  0  0  0  0  0  0  0  0
   39.9880   26.8290   35.0390 C   0  0  0  0  0  0  0  0  0  0  0  0
   40.3390   25.4620   35.0970 C   0  0  0  0  0  0  0  0  0  0  0  0
   41.6830   25.2790   34.5390 C   0  0  0  0  0  0  0  0  0  0  0  0
   42.1240   24.9820   33.3390 N   0  0  0  0  0  0  0  0  0  0  0  0
   43.4150   24.9440   33.2760 O   0  0  0  0  0  0  0  0  0  0  0  0
   43.9330   25.2110   34.4240 C   0  0  0  0  0  0  0  0  0  0  0  0
   42.8540   25.4080   35.1600 N   0  0  0  0  0  0  0  0  0  0  0  0
   37.6675   22.5506   34.3565 H   0  0  0  0  0  0  0  0  0  0  0  0
   41.7378   20.4129   32.6702 H   0  0  0  0  0  0  0  0  0  0  0  0
   36.8556   20.9454   30.0987 H   0  0  0  0  0  0  0  0  0  0  0  0
   37.5309   22.4733   30.7618 H   0  0  0  0  0  0  0  0  0  0  0  0
   35.5077   23.2054   31.3907 H   0  0  0  0  0  0  0  0  0  0  0  0
   34.8390   21.8665   30.3818 H   0  0  0  0  0  0  0  0  0  0  0  0
   34.4447   19.6425   33.0499 H   0  0  0  0  0  0  0  0  0  0  0  0
   34.6558   19.8199   31.2856 H   0  0  0  0  0  0  0  0  0  0  0  0
   36.7288   18.9345   31.7065 H   0  0  0  0  0  0  0  0  0  0  0  0
   36.6818   19.4149   33.4421 H   0  0  0  0  0  0  0  0  0  0  0  0
   38.7703   22.9200   35.9322 H   0  0  0  0  0  0  0  0  0  0  0  0
   39.6609   23.3428   37.5701 H   0  0  0  0  0  0  0  0  0  0  0  0
   37.5756   24.3377   36.6342 H   0  0  0  0  0  0  0  0  0  0  0  0
   36.9852   26.7238   36.5244 H   0  0  0  0  0  0  0  0  0  0  0  0
   38.5471   28.3601   35.4902 H   0  0  0  0  0  0  0  0  0  0  0  0
   40.6873   27.5410   34.5764 H   0  0  0  0  0  0  0  0  0  0  0  0
   44.9927   25.2616   34.7147 H   0  0  0  0  0  0  0  0  0  0  0  0
  1 13  1  0
  2  1  2  0
  3  2  1  0
  4  3  2  0
  4  5  1  0
  5  6  2  0
  6  1  1  0
  7 12  1  0
  7  3  1  0
  8  9  1  0
  8  7  1  0
  9 10  1  0
 11 10  1  0
 11 12  1  0
 13 14  1  0
 15 13  1  0
 15 16  2  0
 17 16  1  0
 18 17  2  0
 19 20  2  0
 19 18  1  0
 20 15  1  0
 21 20  1  0
 21 25  1  0
 22 21  2  0
 23 22  1  0
 23 24  1  0
 24 25  2  0
  2 26  1  0
  5 27  1  0
  8 28  1  0
  8 29  1  0
  9 30  1  0
  9 31  1  0
 11 32  1  0
 11 33  1  0
 12 34  1  0
 12 35  1  0
 13 36  1  0
 14 37  1  0
 16 38  1  0
 17 39  1  0
 18 40  1  0
 19 41  1  0
 24 42  1  0
M  ISO  8  26  14  27  14  28  13  29  13  30  13  31  13  32  13  33  13
M  ISO  8  34  13  35  13  36   8  37   3  38  14  39  14  40  14  41  14
M  ISO  1  42  14
M  END
>  <minimizedAffinity>  (1) 
-5.2743392

>  <minimizedRMSD>  (1) 
0.355855912

$$$$
