
     RDKit          3D

 47 49  0  0  0  0  0  0  0  0999 V2000
   40.0350   22.3700   34.5080 C   0  0  0  0  0  0  0  0  0  0  0  0
   38.7740   22.2250   33.9490 C   0  0  0  0  0  0  0  0  0  0  0  0
   38.6330   21.3670   32.8600 C   0  0  0  0  0  0  0  0  0  0  0  0
   39.7240   20.7180   32.3950 N   0  0  0  0  0  0  0  0  0  0  0  0
   40.9270   20.8860   32.9660 C   0  0  0  0  0  0  0  0  0  0  0  0
   41.0850   21.6930   34.0010 N   0  0  0  0  0  0  0  0  0  0  0  0
   37.4340   21.0730   32.1610 N   0  0  0  0  0  0  0  0  0  0  0  0
   36.9250   21.7860   31.0200 C   0  0  0  0  0  0  0  0  0  0  0  0
   35.5800   22.3630   31.3300 C   0  0  0  0  0  0  0  0  0  0  0  0
   35.0760   21.8050   32.5260 O   0  0  0  0  0  0  0  0  0  0  0  0
   35.0900   20.4290   32.4290 C   0  0  0  0  0  0  0  0  0  0  0  0
   36.5320   19.9690   32.5250 C   0  0  0  0  0  0  0  0  0  0  0  0
   40.1440   23.2810   35.6170 C   0  0  0  0  0  0  0  0  0  0  0  0
   40.7060   22.9750   36.7160 O   0  0  0  0  0  0  0  0  0  0  0  0
   39.6250   24.6420   35.6000 C   0  0  0  0  0  0  0  0  0  0  0  0
   38.4240   24.9110   36.2530 C   0  0  0  0  0  0  0  0  0  0  0  0
   37.8680   26.1730   36.2540 C   0  0  0  0  0  0  0  0  0  0  0  0
   38.5090   27.1910   35.5940 C   0  0  0  0  0  0  0  0  0  0  0  0
   39.6880   26.9140   34.9580 C   0  0  0  0  0  0  0  0  0  0  0  0
   40.2660   25.6570   34.9460 C   0  0  0  0  0  0  0  0  0  0  0  0
   41.5240   25.5780   34.1610 C   0  0  0  0  0  0  0  0  0  0  0  0
   42.7190   25.1040   34.9610 C   0  0  0  0  0  0  0  0  0  0  0  0
   41.3860   25.0390   32.7840 C   0  0  0  0  0  0  0  0  0  0  0  0
   42.0260   27.0380   33.8520 C   0  0  0  0  0  0  0  0  0  0  0  0
   37.9096   22.7718   34.3538 H   0  0  0  0  0  0  0  0  0  0  0  0
   41.7960   20.3430   32.5660 H   0  0  0  0  0  0  0  0  0  0  0  0
   36.8365   21.0945   30.1691 H   0  0  0  0  0  0  0  0  0  0  0  0
   37.6172   22.6032   30.7690 H   0  0  0  0  0  0  0  0  0  0  0  0
   35.6699   23.4531   31.4468 H   0  0  0  0  0  0  0  0  0  0  0  0
   34.8899   22.1304   30.5056 H   0  0  0  0  0  0  0  0  0  0  0  0
   34.6620   20.1180   31.4646 H   0  0  0  0  0  0  0  0  0  0  0  0
   34.4910   19.9821   33.2361 H   0  0  0  0  0  0  0  0  0  0  0  0
   36.6924   19.1251   31.8379 H   0  0  0  0  0  0  0  0  0  0  0  0
   36.7438   19.6529   33.5571 H   0  0  0  0  0  0  0  0  0  0  0  0
   37.9064   24.0965   36.7809 H   0  0  0  0  0  0  0  0  0  0  0  0
   36.9199   26.3617   36.7788 H   0  0  0  0  0  0  0  0  0  0  0  0
   38.0848   28.2058   35.5767 H   0  0  0  0  0  0  0  0  0  0  0  0
   40.2019   27.7309   34.4301 H   0  0  0  0  0  0  0  0  0  0  0  0
   42.4990   25.1912   36.0352 H   0  0  0  0  0  0  0  0  0  0  0  0
   42.9319   24.0533   34.7145 H   0  0  0  0  0  0  0  0  0  0  0  0
   43.5942   25.7231   34.7145 H   0  0  0  0  0  0  0  0  0  0  0  0
   41.1134   23.9744   32.8326 H   0  0  0  0  0  0  0  0  0  0  0  0
   40.6011   25.5945   32.2498 H   0  0  0  0  0  0  0  0  0  0  0  0
   42.3413   25.1489   32.2498 H   0  0  0  0  0  0  0  0  0  0  0  0
   42.2091   27.5705   34.7970 H   0  0  0  0  0  0  0  0  0  0  0  0
   42.9592   26.9897   33.2716 H   0  0  0  0  0  0  0  0  0  0  0  0
   41.2605   27.5738   33.2716 H   0  0  0  0  0  0  0  0  0  0  0  0
  1 13  1  0
  2  1  2  0
  3  2  1  0
  4  3  2  0
  4  5  1  0
  5  6  2  0
  6  1  1  0
  7 12  1  0
  7  3  1  0
  8  9  1  0
  8  7  1  0
  9 10  1  0
 11 12  1  0
 11 10  1  0
 13 14  2  0
 15 13  1  0
 15 16  2  0
 16 17  1  0
 18 17  2  0
 19 18  1  0
 20 19  2  0
 20 15  1  0
 21 20  1  0
 21 22  1  0
 23 21  1  0
 24 21  1  0
  2 25  1  0
  5 26  1  0
  8 27  1  0
  8 28  1  0
  9 29  1  0
  9 30  1  0
 11 31  1  0
 11 32  1  0
 12 33  1  0
 12 34  1  0
 16 35  1  0
 17 36  1  0
 18 37  1  0
 19 38  1  0
 22 39  1  0
 22 40  1  0
 22 41  1  0
 23 42  1  0
 23 43  1  0
 23 44  1  0
 24 45  1  0
 24 46  1  0
 24 47  1  0
M  ISO  8  25  14  26  14  27  13  28  13  29  13  30  13  31  13  32  13
M  ISO  8  33  13  34  13  35  14  36  14  37  14  38  14  39   8  40   8
M  ISO  7  41   8  42   8  43   8  44   8  45   8  46   8  47   8
M  END
>  <minimizedAffinity>  (1) 
-5.26985693

>  <minimizedRMSD>  (1) 
0.581083834

$$$$
