
     RDKit          3D

 50 53  0  0  0  0  0  0  0  0999 V2000
   39.7380   22.1350   34.4480 C   0  0  0  0  0  0  0  0  0  0  0  0
   38.5060   21.8720   33.8740 C   0  0  0  0  0  0  0  0  0  0  0  0
   38.4460   21.0470   32.7640 C   0  0  0  0  0  0  0  0  0  0  0  0
   39.6030   20.5240   32.2780 N   0  0  0  0  0  0  0  0  0  0  0  0
   40.7800   20.7980   32.8590 C   0  0  0  0  0  0  0  0  0  0  0  0
   40.8580   21.5910   33.9290 N   0  0  0  0  0  0  0  0  0  0  0  0
   37.2910   20.6630   32.0420 N   0  0  0  0  0  0  0  0  0  0  0  0
   36.7240   21.3610   30.9200 C   0  0  0  0  0  0  0  0  0  0  0  0
   35.3240   21.7950   31.2410 C   0  0  0  0  0  0  0  0  0  0  0  0
   34.8640   21.1440   32.4140 O   0  0  0  0  0  0  0  0  0  0  0  0
   35.0150   19.7800   32.2590 C   0  0  0  0  0  0  0  0  0  0  0  0
   36.4960   19.4650   32.3520 C   0  0  0  0  0  0  0  0  0  0  0  0
   39.7560   22.9940   35.5950 C   0  0  0  0  0  0  0  0  0  0  0  0
   40.0220   22.5980   36.7880 O   0  0  0  0  0  0  0  0  0  0  0  0
   39.4740   24.4200   35.5480 C   0  0  0  0  0  0  0  0  0  0  0  0
   38.2560   24.9260   35.9760 C   0  0  0  0  0  0  0  0  0  0  0  0
   38.0330   26.3000   35.9060 C   0  0  0  0  0  0  0  0  0  0  0  0
   38.9880   27.1710   35.4260 C   0  0  0  0  0  0  0  0  0  0  0  0
   40.2080   26.6640   34.9980 C   0  0  0  0  0  0  0  0  0  0  0  0
   40.4250   25.2800   35.0710 C   0  0  0  0  0  0  0  0  0  0  0  0
   41.7170   24.9340   34.6100 N   0  0  0  0  0  0  0  0  0  0  0  0
   42.9030   24.5650   35.3620 C   0  0  0  0  0  0  0  0  0  0  0  0
   43.9260   25.6650   35.2150 C   0  0  0  0  0  0  0  0  0  0  0  0
   44.1630   26.0570   33.7860 C   0  0  0  0  0  0  0  0  0  0  0  0
   43.0330   25.9250   32.8490 C   0  0  0  0  0  0  0  0  0  0  0  0
   41.9810   24.9280   33.1630 C   0  0  0  0  0  0  0  0  0  0  0  0
   37.5891   22.3117   34.2934 H   0  0  0  0  0  0  0  0  0  0  0  0
   41.7001   20.3599   32.4449 H   0  0  0  0  0  0  0  0  0  0  0  0
   36.7072   20.6933   30.0460 H   0  0  0  0  0  0  0  0  0  0  0  0
   37.3359   22.2481   30.6994 H   0  0  0  0  0  0  0  0  0  0  0  0
   35.3089   22.8833   31.4003 H   0  0  0  0  0  0  0  0  0  0  0  0
   34.6651   21.5280   30.4016 H   0  0  0  0  0  0  0  0  0  0  0  0
   34.6271   19.4695   31.2776 H   0  0  0  0  0  0  0  0  0  0  0  0
   34.4572   19.2402   33.0384 H   0  0  0  0  0  0  0  0  0  0  0  0
   36.7438   18.6689   31.6345 H   0  0  0  0  0  0  0  0  0  0  0  0
   36.7290   19.1347   33.3751 H   0  0  0  0  0  0  0  0  0  0  0  0
   37.4775   24.2531   36.3649 H   0  0  0  0  0  0  0  0  0  0  0  0
   37.0662   26.7015   36.2438 H   0  0  0  0  0  0  0  0  0  0  0  0
   38.7865   28.2515   35.3827 H   0  0  0  0  0  0  0  0  0  0  0  0
   40.9887   27.3344   34.6094 H   0  0  0  0  0  0  0  0  0  0  0  0
   42.6445   24.4384   36.4237 H   0  0  0  0  0  0  0  0  0  0  0  0
   43.3113   23.6177   34.9801 H   0  0  0  0  0  0  0  0  0  0  0  0
   43.5728   26.5485   35.7670 H   0  0  0  0  0  0  0  0  0  0  0  0
   44.8779   25.2852   35.6146 H   0  0  0  0  0  0  0  0  0  0  0  0
   44.4741   27.1121   33.7808 H   0  0  0  0  0  0  0  0  0  0  0  0
   44.9159   25.3433   33.4202 H   0  0  0  0  0  0  0  0  0  0  0  0
   43.4517   25.6604   31.8668 H   0  0  0  0  0  0  0  0  0  0  0  0
   42.5170   26.8950   32.9025 H   0  0  0  0  0  0  0  0  0  0  0  0
   41.0589   25.1846   32.6209 H   0  0  0  0  0  0  0  0  0  0  0  0
   42.3201   23.9276   32.8560 H   0  0  0  0  0  0  0  0  0  0  0  0
  1 13  1  0
  2  1  2  0
  3  2  1  0
  4  3  2  0
  4  5  1  0
  5  6  2  0
  6  1  1  0
  7 12  1  0
  7  3  1  0
  8  9  1  0
  8  7  1  0
  9 10  1  0
 11 12  1  0
 11 10  1  0
 13 14  2  0
 15 13  1  0
 15 16  2  0
 17 16  1  0
 18 17  2  0
 19 20  2  0
 19 18  1  0
 20 15  1  0
 21 20  1  0
 21 22  1  0
 23 22  1  0
 24 23  1  0
 25 26  1  0
 25 24  1  0
 26 21  1  0
  2 27  1  0
  5 28  1  0
  8 29  1  0
  8 30  1  0
  9 31  1  0
  9 32  1  0
 11 33  1  0
 11 34  1  0
 12 35  1  0
 12 36  1  0
 16 37  1  0
 17 38  1  0
 18 39  1  0
 19 40  1  0
 22 41  1  0
 22 42  1  0
 23 43  1  0
 23 44  1  0
 24 45  1  0
 24 46  1  0
 25 47  1  0
 25 48  1  0
 26 49  1  0
 26 50  1  0
M  ISO  8  27  14  28  14  29  13  30  13  31  13  32  13  33  13  34  13
M  ISO  8  35  13  36  13  37  14  38  14  39  14  40  14  41  13  42  13
M  ISO  8  43  13  44  13  45  13  46  13  47  13  48  13  49  13  50  13
M  END
>  <minimizedAffinity>  (1) 
-5.33258152

>  <minimizedRMSD>  (1) 
0.494990796

$$$$
