
     RDKit          3D

 42 45  0  0  0  0  0  0  0  0999 V2000
   39.9780   22.2560   34.5260 C   0  0  0  0  0  0  0  0  0  0  0  0
   38.7220   22.0960   33.9630 C   0  0  0  0  0  0  0  0  0  0  0  0
   38.6080   21.2600   32.8730 C   0  0  0  0  0  0  0  0  0  0  0  0
   39.7170   20.6250   32.3920 N   0  0  0  0  0  0  0  0  0  0  0  0
   40.9150   20.8100   32.9710 C   0  0  0  0  0  0  0  0  0  0  0  0
   41.0580   21.6120   34.0230 N   0  0  0  0  0  0  0  0  0  0  0  0
   37.4200   20.9630   32.1560 N   0  0  0  0  0  0  0  0  0  0  0  0
   36.9280   21.6890   30.9980 C   0  0  0  0  0  0  0  0  0  0  0  0
   35.5630   22.2600   31.3070 C   0  0  0  0  0  0  0  0  0  0  0  0
   35.0500   21.6910   32.4900 O   0  0  0  0  0  0  0  0  0  0  0  0
   35.0650   20.3250   32.3480 C   0  0  0  0  0  0  0  0  0  0  0  0
   36.5130   19.8640   32.4890 C   0  0  0  0  0  0  0  0  0  0  0  0
   40.0730   23.1320   35.6600 C   0  0  0  0  0  0  0  0  0  0  0  0
   40.5690   22.8170   36.7900 O   0  0  0  0  0  0  0  0  0  0  0  0
   39.6030   24.5200   35.6550 C   0  0  0  0  0  0  0  0  0  0  0  0
   38.4300   24.8850   36.2630 C   0  0  0  0  0  0  0  0  0  0  0  0
   38.0410   26.2230   36.2220 C   0  0  0  0  0  0  0  0  0  0  0  0
   38.7860   27.2030   35.5950 C   0  0  0  0  0  0  0  0  0  0  0  0
   39.9560   26.8360   34.9880 C   0  0  0  0  0  0  0  0  0  0  0  0
   40.3410   25.4920   35.0340 C   0  0  0  0  0  0  0  0  0  0  0  0
   41.5810   25.2180   34.3690 N   0  0  0  0  0  0  0  0  0  0  0  0
   42.6010   25.2840   35.2380 N   0  0  0  0  0  0  0  0  0  0  0  0
   43.7650   25.0250   34.6080 C   0  0  0  0  0  0  0  0  0  0  0  0
   43.4270   24.7920   33.2830 C   0  0  0  0  0  0  0  0  0  0  0  0
   42.0520   24.9150   33.1460 C   0  0  0  0  0  0  0  0  0  0  0  0
   37.8450   22.6188   34.3723 H   0  0  0  0  0  0  0  0  0  0  0  0
   41.7952   20.2881   32.5674 H   0  0  0  0  0  0  0  0  0  0  0  0
   36.8540   21.0047   30.1399 H   0  0  0  0  0  0  0  0  0  0  0  0
   37.6222   22.5068   30.7545 H   0  0  0  0  0  0  0  0  0  0  0  0
   35.6460   23.3494   31.4349 H   0  0  0  0  0  0  0  0  0  0  0  0
   34.8821   22.0286   30.4747 H   0  0  0  0  0  0  0  0  0  0  0  0
   34.6771   20.0463   31.3571 H   0  0  0  0  0  0  0  0  0  0  0  0
   34.4314   19.8496   33.1113 H   0  0  0  0  0  0  0  0  0  0  0  0
   36.6955   19.0209   31.8065 H   0  0  0  0  0  0  0  0  0  0  0  0
   36.6930   19.5476   33.5270 H   0  0  0  0  0  0  0  0  0  0  0  0
   37.8071   24.1360   36.7738 H   0  0  0  0  0  0  0  0  0  0  0  0
   37.0987   26.5114   36.7108 H   0  0  0  0  0  0  0  0  0  0  0  0
   38.4478   28.2497   35.5841 H   0  0  0  0  0  0  0  0  0  0  0  0
   40.5806   27.5820   34.4747 H   0  0  0  0  0  0  0  0  0  0  0  0
   44.7713   25.0031   35.0518 H   0  0  0  0  0  0  0  0  0  0  0  0
   44.1326   24.5498   32.4746 H   0  0  0  0  0  0  0  0  0  0  0  0
   41.4655   24.7900   32.2238 H   0  0  0  0  0  0  0  0  0  0  0  0
  1 13  1  0
  2  1  2  0
  3  2  1  0
  4  3  2  0
  4  5  1  0
  5  6  2  0
  6  1  1  0
  7 12  1  0
  7  3  1  0
  8  9  1  0
  8  7  1  0
  9 10  1  0
 11 12  1  0
 11 10  1  0
 13 14  2  0
 15 13  1  0
 15 16  2  0
 17 16  1  0
 18 17  2  0
 19 20  2  0
 19 18  1  0
 20 15  1  0
 21 20  1  0
 21 22  1  0
 23 22  2  0
 24 23  1  0
 25 24  2  0
 25 21  1  0
  2 26  1  0
  5 27  1  0
  8 28  1  0
  8 29  1  0
  9 30  1  0
  9 31  1  0
 11 32  1  0
 11 33  1  0
 12 34  1  0
 12 35  1  0
 16 36  1  0
 17 37  1  0
 18 38  1  0
 19 39  1  0
 23 40  1  0
 24 41  1  0
 25 42  1  0
M  ISO  8  26  14  27  14  28  13  29  13  30  13  31  13  32  13  33  13
M  ISO  8  34  13  35  13  36  14  37  14  38  14  39  14  40  14  41  14
M  ISO  1  42  14
M  END
>  <minimizedAffinity>  (1) 
-5.19423389

>  <minimizedRMSD>  (1) 
0.399491668

$$$$
