
     RDKit          3D

 36 39  0  0  0  0  0  0  0  0999 V2000
   39.7260   22.7790   37.8850 C   0  0  0  0  0  0  0  0  0  0  0  0
   38.7660   23.4970   38.6080 C   0  0  0  0  0  0  0  0  0  0  0  0
   37.7590   24.1590   37.9020 C   0  0  0  0  0  0  0  0  0  0  0  0
   37.7740   24.0640   36.5350 N   0  0  0  0  0  0  0  0  0  0  0  0
   38.7190   23.3610   35.8670 C   0  0  0  0  0  0  0  0  0  0  0  0
   39.6930   22.7200   36.5430 N   0  0  0  0  0  0  0  0  0  0  0  0
   38.6150   23.3460   34.4470 N   0  0  0  0  0  0  0  0  0  0  0  0
   39.0470   22.3230   33.6700 C   0  0  0  0  0  0  0  0  0  0  0  0
   38.8120   22.6000   32.3710 N   0  0  0  0  0  0  0  0  0  0  0  0
   38.2240   23.8050   32.2820 C   0  0  0  0  0  0  0  0  0  0  0  0
   37.7400   24.6390   31.2630 C   0  0  0  0  0  0  0  0  0  0  0  0
   37.1900   25.8220   31.5340 N   0  0  0  0  0  0  0  0  0  0  0  0
   37.0990   26.2200   32.8180 C   0  0  0  0  0  0  0  0  0  0  0  0
   37.5460   25.4570   33.8270 N   0  0  0  0  0  0  0  0  0  0  0  0
   38.1060   24.2590   33.5860 C   0  0  0  0  0  0  0  0  0  0  0  0
   37.9180   24.0610   29.9720 N   0  0  0  0  0  0  0  0  0  0  0  0
   36.5180   27.4750   33.1530 N   0  0  0  0  0  0  0  0  0  0  0  0
   35.8010   28.3030   32.3720 C   0  0  0  0  0  0  0  0  0  0  0  0
   35.3200   29.4830   32.8780 C   0  0  0  0  0  0  0  0  0  0  0  0
   34.5260   30.3720   31.9740 C   0  0  0  0  0  0  0  0  0  0  0  0
   35.5690   29.8190   34.1810 C   0  0  0  0  0  0  0  0  0  0  0  0
   35.1090   30.9110   34.6030 O   0  0  0  0  0  0  0  0  0  0  0  0
   36.2890   28.9760   34.9400 N   0  0  0  0  0  0  0  0  0  0  0  0
   36.7740   27.8000   34.4510 C   0  0  0  0  0  0  0  0  0  0  0  0
   37.4300   27.1060   35.2720 O   0  0  0  0  0  0  0  0  0  0  0  0
   40.5247   22.2517   38.4273 H   0  0  0  0  0  0  0  0  0  0  0  0
   38.8039   23.5388   39.7066 H   0  0  0  0  0  0  0  0  0  0  0  0
   36.9817   24.7359   38.4245 H   0  0  0  0  0  0  0  0  0  0  0  0
   39.5195   21.4026   34.0436 H   0  0  0  0  0  0  0  0  0  0  0  0
   38.3581   23.1344   29.8788 H   0  0  0  0  0  0  0  0  0  0  0  0
   37.6065   24.5700   29.1325 H   0  0  0  0  0  0  0  0  0  0  0  0
   35.6001   28.0327   31.3248 H   0  0  0  0  0  0  0  0  0  0  0  0
   33.9139   31.0573   32.5788 H   0  0  0  0  0  0  0  0  0  0  0  0
   35.2100   30.9545   31.3393 H   0  0  0  0  0  0  0  0  0  0  0  0
   33.8703   29.7579   31.3393 H   0  0  0  0  0  0  0  0  0  0  0  0
   36.4801   29.2260   35.9207 H   0  0  0  0  0  0  0  0  0  0  0  0
  1  2  2  0
  3  2  1  0
  4  3  2  0
  5  4  1  0
  5  6  2  0
  6  1  1  0
  7  5  1  0
  8  7  1  0
  9  8  2  0
 10  9  1  0
 10 15  2  0
 11 12  2  0
 11 10  1  0
 12 13  1  0
 13 17  1  0
 13 14  2  0
 15 14  1  0
 15  7  1  0
 16 11  1  0
 17 24  1  0
 18 19  2  0
 18 17  1  0
 19 21  1  0
 20 19  1  0
 21 22  2  0
 21 23  1  0
 24 23  1  0
 24 25  2  0
  1 26  1  0
  2 27  1  0
  3 28  1  0
  8 29  1  0
 16 30  1  0
 16 31  1  0
 18 32  1  0
 20 33  1  0
 20 34  1  0
 20 35  1  0
 23 36  1  0
M  ISO  8  26  14  27  14  28  14  29  14  32  14  33   8  34   8  35   8
M  ISO  1  36   9
M  END
>  <minimizedAffinity>  (1) 
-6.65861082

>  <minimizedRMSD>  (1) 
1.98367095

$$$$
