
     RDKit          3D

 39 43  0  0  0  0  0  0  0  0999 V2000
   39.6720   22.8740   37.9850 C   0  0  0  0  0  0  0  0  0  0  0  0
   38.8220   23.6600   38.7630 C   0  0  0  0  0  0  0  0  0  0  0  0
   37.8240   24.4030   38.0900 C   0  0  0  0  0  0  0  0  0  0  0  0
   37.7780   24.2870   36.7240 N   0  0  0  0  0  0  0  0  0  0  0  0
   38.6150   23.5200   36.0240 C   0  0  0  0  0  0  0  0  0  0  0  0
   39.5710   22.8070   36.6550 N   0  0  0  0  0  0  0  0  0  0  0  0
   38.4340   23.5090   34.6140 N   0  0  0  0  0  0  0  0  0  0  0  0
   38.7390   22.4220   33.8290 C   0  0  0  0  0  0  0  0  0  0  0  0
   38.4610   22.7050   32.5320 N   0  0  0  0  0  0  0  0  0  0  0  0
   37.9760   23.9750   32.4660 C   0  0  0  0  0  0  0  0  0  0  0  0
   37.5310   24.8160   31.4550 C   0  0  0  0  0  0  0  0  0  0  0  0
   37.1070   26.0590   31.7510 N   0  0  0  0  0  0  0  0  0  0  0  0
   37.1140   26.4870   33.0260 C   0  0  0  0  0  0  0  0  0  0  0  0
   37.5460   25.6710   33.9960 N   0  0  0  0  0  0  0  0  0  0  0  0
   37.9770   24.4330   33.7630 C   0  0  0  0  0  0  0  0  0  0  0  0
   37.5840   24.2100   30.1590 N   0  0  0  0  0  0  0  0  0  0  0  0
   36.6240   27.8500   33.1410 C   0  0  0  0  0  0  0  0  0  0  0  0
   36.1030   28.3290   34.3200 C   0  0  0  0  0  0  0  0  0  0  0  0
   35.6200   29.5980   34.5140 C   0  0  0  0  0  0  0  0  0  0  0  0
   35.6350   30.5010   33.4790 C   0  0  0  0  0  0  0  0  0  0  0  0
   36.1420   30.0940   32.2650 C   0  0  0  0  0  0  0  0  0  0  0  0
   36.1620   30.9900   31.2270 C   0  0  0  0  0  0  0  0  0  0  0  0
   36.6580   30.6440   29.9870 C   0  0  0  0  0  0  0  0  0  0  0  0
   37.1360   29.3380   29.8480 C   0  0  0  0  0  0  0  0  0  0  0  0
   37.0960   28.4760   30.9180 C   0  0  0  0  0  0  0  0  0  0  0  0
   36.6070   28.8070   32.1570 C   0  0  0  0  0  0  0  0  0  0  0  0
   40.4556   22.2868   38.4862 H   0  0  0  0  0  0  0  0  0  0  0  0
   38.9238   23.7005   39.8575 H   0  0  0  0  0  0  0  0  0  0  0  0
   37.1173   25.0444   38.6370 H   0  0  0  0  0  0  0  0  0  0  0  0
   39.1462   21.4686   34.1967 H   0  0  0  0  0  0  0  0  0  0  0  0
   37.9299   23.2454   30.0553 H   0  0  0  0  0  0  0  0  0  0  0  0
   37.2763   24.7387   29.3303 H   0  0  0  0  0  0  0  0  0  0  0  0
   36.0710   27.6391   35.1762 H   0  0  0  0  0  0  0  0  0  0  0  0
   35.2215   29.8919   35.4962 H   0  0  0  0  0  0  0  0  0  0  0  0
   35.2519   31.5229   33.6163 H   0  0  0  0  0  0  0  0  0  0  0  0
   35.7741   32.0069   31.3866 H   0  0  0  0  0  0  0  0  0  0  0  0
   36.6763   31.3588   29.1511 H   0  0  0  0  0  0  0  0  0  0  0  0
   37.5436   29.0004   28.8837 H   0  0  0  0  0  0  0  0  0  0  0  0
   37.4804   27.4558   30.7719 H   0  0  0  0  0  0  0  0  0  0  0  0
  1  2  2  0
  3  2  1  0
  4  3  2  0
  5  6  2  0
  5  4  1  0
  6  1  1  0
  7  5  1  0
  8  7  1  0
  9  8  2  0
 10  9  1  0
 10 15  2  0
 11 12  2  0
 11 10  1  0
 12 13  1  0
 13 17  1  0
 13 14  2  0
 15 14  1  0
 15  7  1  0
 16 11  1  0
 17 18  2  0
 18 19  1  0
 20 19  2  0
 21 20  1  0
 22 21  2  0
 23 22  1  0
 24 23  2  0
 24 25  1  0
 25 26  2  0
 26 21  1  0
 26 17  1  0
  1 27  1  0
  2 28  1  0
  3 29  1  0
  8 30  1  0
 16 31  1  0
 16 32  1  0
 18 33  1  0
 19 34  1  0
 20 35  1  0
 22 36  1  0
 23 37  1  0
 24 38  1  0
 25 39  1  0
M  ISO  8  27  14  28  14  29  14  30  14  33  14  34  14  35  14  36  14
M  ISO  3  37  14  38  14  39  14
M  END
>  <minimizedAffinity>  (1) 
-7.24067116

>  <minimizedRMSD>  (1) 
1.90028

$$$$
