
     RDKit          3D

 37 41  0  0  0  0  0  0  0  0999 V2000
   39.6690   22.8270   37.8030 C   0  0  0  0  0  0  0  0  0  0  0  0
   38.6980   23.5920   38.4910 C   0  0  0  0  0  0  0  0  0  0  0  0
   37.7410   24.2560   37.7260 C   0  0  0  0  0  0  0  0  0  0  0  0
   37.7970   24.1290   36.3620 N   0  0  0  0  0  0  0  0  0  0  0  0
   38.7350   23.3930   35.7460 C   0  0  0  0  0  0  0  0  0  0  0  0
   39.6750   22.7390   36.4680 N   0  0  0  0  0  0  0  0  0  0  0  0
   38.6890   23.3390   34.3130 N   0  0  0  0  0  0  0  0  0  0  0  0
   39.1180   22.2820   33.5830 C   0  0  0  0  0  0  0  0  0  0  0  0
   38.9410   22.5380   32.2640 N   0  0  0  0  0  0  0  0  0  0  0  0
   38.3920   23.7720   32.1320 C   0  0  0  0  0  0  0  0  0  0  0  0
   37.9840   24.5870   31.0860 C   0  0  0  0  0  0  0  0  0  0  0  0
   37.4680   25.7900   31.3160 N   0  0  0  0  0  0  0  0  0  0  0  0
   37.3310   26.2410   32.5810 C   0  0  0  0  0  0  0  0  0  0  0  0
   37.7260   25.4560   33.6150 N   0  0  0  0  0  0  0  0  0  0  0  0
   38.2490   24.2420   33.4160 C   0  0  0  0  0  0  0  0  0  0  0  0
   38.1810   23.9950   29.8110 N   0  0  0  0  0  0  0  0  0  0  0  0
   36.7960   27.5130   33.0570 C   0  0  0  0  0  0  0  0  0  0  0  0
   36.4400   27.7290   34.3550 N   0  0  0  0  0  0  0  0  0  0  0  0
   35.9510   28.8710   34.8250 C   0  0  0  0  0  0  0  0  0  0  0  0
   35.7620   29.9460   34.0080 N   0  0  0  0  0  0  0  0  0  0  0  0
   36.0850   29.8340   32.6970 C   0  0  0  0  0  0  0  0  0  0  0  0
   35.8950   30.9140   31.8800 C   0  0  0  0  0  0  0  0  0  0  0  0
   36.2100   30.8400   30.5440 C   0  0  0  0  0  0  0  0  0  0  0  0
   36.7230   29.6320   30.0710 C   0  0  0  0  0  0  0  0  0  0  0  0
   36.8850   28.5900   30.9580 C   0  0  0  0  0  0  0  0  0  0  0  0
   36.5830   28.6230   32.2960 C   0  0  0  0  0  0  0  0  0  0  0  0
   40.4377   22.2916   38.3796 H   0  0  0  0  0  0  0  0  0  0  0  0
   38.6984   23.6602   39.5889 H   0  0  0  0  0  0  0  0  0  0  0  0
   36.9607   24.8663   38.2042 H   0  0  0  0  0  0  0  0  0  0  0  0
   39.5450   21.3568   33.9975 H   0  0  0  0  0  0  0  0  0  0  0  0
   38.5905   23.0527   29.7384 H   0  0  0  0  0  0  0  0  0  0  0  0
   37.9145   24.5078   28.9584 H   0  0  0  0  0  0  0  0  0  0  0  0
   35.6941   28.9508   35.8916 H   0  0  0  0  0  0  0  0  0  0  0  0
   35.4875   31.8479   32.2945 H   0  0  0  0  0  0  0  0  0  0  0  0
   36.0633   31.6999   29.8739 H   0  0  0  0  0  0  0  0  0  0  0  0
   36.9928   29.5137   29.0112 H   0  0  0  0  0  0  0  0  0  0  0  0
   37.2921   27.6494   30.5584 H   0  0  0  0  0  0  0  0  0  0  0  0
  1  2  2  0
  3  2  1  0
  4  3  2  0
  5  4  1  0
  5  6  2  0
  6  1  1  0
  7  5  1  0
  8  7  1  0
  9  8  2  0
 10  9  1  0
 10 15  2  0
 11 12  2  0
 11 10  1  0
 12 13  1  0
 13 17  1  0
 13 14  2  0
 15 14  1  0
 15  7  1  0
 16 11  1  0
 17 18  2  0
 18 19  1  0
 20 19  2  0
 21 20  1  0
 22 21  2  0
 23 22  1  0
 24 23  2  0
 24 25  1  0
 25 26  2  0
 26 21  1  0
 26 17  1  0
  1 27  1  0
  2 28  1  0
  3 29  1  0
  8 30  1  0
 16 31  1  0
 16 32  1  0
 19 33  1  0
 22 34  1  0
 23 35  1  0
 24 36  1  0
 25 37  1  0
M  ISO  8  27  14  28  14  29  14  30  14  33  14  34  14  35  14  36  14
M  ISO  1  37  14
M  END
>  <minimizedAffinity>  (1) 
-6.34100771

>  <minimizedRMSD>  (1) 
2.90540719

$$$$
