
     RDKit          3D

 30 33  0  0  0  0  0  0  0  0999 V2000
   39.7400   22.7930   37.9050 C   0  0  0  0  0  0  0  0  0  0  0  0
   38.8130   23.5160   38.6920 C   0  0  0  0  0  0  0  0  0  0  0  0
   37.7950   24.2240   38.0130 C   0  0  0  0  0  0  0  0  0  0  0  0
   37.7870   24.1510   36.6420 N   0  0  0  0  0  0  0  0  0  0  0  0
   38.6990   23.4420   35.9340 C   0  0  0  0  0  0  0  0  0  0  0  0
   39.6710   22.7670   36.5670 N   0  0  0  0  0  0  0  0  0  0  0  0
   38.5340   23.4820   34.5220 N   0  0  0  0  0  0  0  0  0  0  0  0
   38.9190   22.4440   33.7150 C   0  0  0  0  0  0  0  0  0  0  0  0
   38.6460   22.7470   32.4260 N   0  0  0  0  0  0  0  0  0  0  0  0
   38.0870   23.9710   32.3770 C   0  0  0  0  0  0  0  0  0  0  0  0
   37.5870   24.8450   31.3990 C   0  0  0  0  0  0  0  0  0  0  0  0
   37.0780   26.0430   31.7200 N   0  0  0  0  0  0  0  0  0  0  0  0
   37.0460   26.4130   33.0080 C   0  0  0  0  0  0  0  0  0  0  0  0
   37.5110   25.6140   33.9860 N   0  0  0  0  0  0  0  0  0  0  0  0
   38.0270   24.4110   33.6990 C   0  0  0  0  0  0  0  0  0  0  0  0
   37.7050   24.2800   30.1000 N   0  0  0  0  0  0  0  0  0  0  0  0
   36.5130   27.6790   33.3830 N   0  0  0  0  0  0  0  0  0  0  0  0
   36.3210   28.2610   34.5630 N   0  0  0  0  0  0  0  0  0  0  0  0
   35.7800   29.4770   34.3970 C   0  0  0  0  0  0  0  0  0  0  0  0
   35.6190   29.6760   33.0210 C   0  0  0  0  0  0  0  0  0  0  0  0
   36.0930   28.5170   32.3950 C   0  0  0  0  0  0  0  0  0  0  0  0
   40.5432   22.2342   38.4076 H   0  0  0  0  0  0  0  0  0  0  0  0
   38.8817   23.5269   39.7898 H   0  0  0  0  0  0  0  0  0  0  0  0
   37.0410   24.8088   38.5602 H   0  0  0  0  0  0  0  0  0  0  0  0
   39.3797   21.5075   34.0626 H   0  0  0  0  0  0  0  0  0  0  0  0
   38.1170   23.3435   29.9812 H   0  0  0  0  0  0  0  0  0  0  0  0
   37.3785   24.8071   29.2775 H   0  0  0  0  0  0  0  0  0  0  0  0
   35.5125   30.1862   35.1942 H   0  0  0  0  0  0  0  0  0  0  0  0
   35.2023   30.5671   32.5287 H   0  0  0  0  0  0  0  0  0  0  0  0
   36.1209   28.3208   31.3130 H   0  0  0  0  0  0  0  0  0  0  0  0
  1  2  2  0
  3  2  1  0
  4  3  2  0
  5  6  2  0
  5  4  1  0
  6  1  1  0
  7  5  1  0
  8  7  1  0
  9  8  2  0
 10  9  1  0
 10 15  2  0
 11 12  2  0
 11 10  1  0
 12 13  1  0
 13 17  1  0
 13 14  2  0
 15 14  1  0
 15  7  1  0
 16 11  1  0
 17 18  1  0
 19 18  2  0
 20 19  1  0
 21 20  2  0
 21 17  1  0
  1 22  1  0
  2 23  1  0
  3 24  1  0
  8 25  1  0
 16 26  1  0
 16 27  1  0
 19 28  1  0
 20 29  1  0
 21 30  1  0
M  ISO  7  22  14  23  14  24  14  25  14  28  14  29  14  30  14
M  END
>  <minimizedAffinity>  (1) 
-5.9707284

>  <minimizedRMSD>  (1) 
1.58493114

$$$$
