
     RDKit          3D

 30 32  0  0  0  0  0  0  0  0999 V2000
   39.6795   22.8117   37.6042 C   0  0  0  0  0  0  0  0  0  0  0  0
   38.9658   23.3680   38.6652 C   0  0  0  0  0  0  0  0  0  0  0  0
   37.9590   24.2735   38.3385 C   0  0  0  0  0  0  0  0  0  0  0  0
   37.7504   24.5447   37.0082 N   0  0  0  0  0  0  0  0  0  0  0  0
   38.4582   23.9889   36.0193 C   0  0  0  0  0  0  0  0  0  0  0  0
   39.4407   23.1068   36.3142 N   0  0  0  0  0  0  0  0  0  0  0  0
   38.1215   24.3731   34.6924 N   0  0  0  0  0  0  0  0  0  0  0  0
   38.2998   23.5567   33.6150 C   0  0  0  0  0  0  0  0  0  0  0  0
   37.8892   24.2012   32.4988 N   0  0  0  0  0  0  0  0  0  0  0  0
   37.4447   25.4285   32.8322 C   0  0  0  0  0  0  0  0  0  0  0  0
   36.9116   26.5352   32.1656 C   0  0  0  0  0  0  0  0  0  0  0  0
   36.5624   27.6396   32.8336 N   0  0  0  0  0  0  0  0  0  0  0  0
   36.7293   27.6828   34.1775 C   0  0  0  0  0  0  0  0  0  0  0  0
   37.2398   26.6296   34.8354 N   0  0  0  0  0  0  0  0  0  0  0  0
   37.6007   25.5076   34.2008 C   0  0  0  0  0  0  0  0  0  0  0  0
   36.8064   26.3150   30.7571 N   0  0  0  0  0  0  0  0  0  0  0  0
   40.4666   22.1081   37.7940 H   0  0  0  0  0  0  0  0  0  0  0  0
   39.1694   23.1213   39.6909 H   0  0  0  0  0  0  0  0  0  0  0  0
   37.3617   24.7475   39.0999 H   0  0  0  0  0  0  0  0  0  0  0  0
   38.6967   22.5559   33.5931 H   0  0  0  0  0  0  0  0  0  0  0  0
   36.3041   25.4385   30.4370 H   0  0  0  0  0  0  0  0  0  0  0  0
   37.2962   27.1488   30.3153 H   0  0  0  0  0  0  0  0  0  0  0  0
   36.3318   28.8896   34.8245 N   0  0  0  0  0  0  0  0  0  0  0  0
   35.5101   29.8228   34.1347 C   0  0  0  0  0  0  0  0  0  0  0  0
   34.5576   29.4119   33.3818 N   0  0  0  0  0  0  0  0  0  0  0  0
   35.7272   31.2281   34.2696 N   0  0  0  0  0  0  0  0  0  0  0  0
   36.6212   29.1247   35.7940 H   0  0  0  0  0  0  0  0  0  0  0  0
   34.2960   28.4414   33.2021 H   0  0  0  0  0  0  0  0  0  0  0  0
   35.6102   32.2112   34.5881 H   0  0  0  0  0  0  0  0  0  0  0  0
   35.1220   31.8103   34.9048 H   0  0  0  0  0  0  0  0  0  0  0  0
  1  2  2  0
  3  2  1  0
  4  3  2  0
  5  6  2  0
  5  4  1  0
  6  1  1  0
  7  5  1  0
  8  7  1  0
  9 10  1  0
  9  8  2  0
 10 15  2  0
 11 10  1  0
 11 12  2  0
 12 13  1  0
 13 14  2  0
 15  7  1  0
 15 14  1  0
 16 11  1  0
  1 17  1  0
  2 18  1  0
  3 19  1  0
  8 20  1  0
 16 21  1  0
 16 22  1  0
 23 24  1  0
 24 25  2  3
 24 26  1  0
 23 27  1  0
 25 28  1  0
 26 29  1  0
 26 30  1  0
 13 23  1  0
M  END
>  <DihAtoms>  (1) 
11,12,22,23

>  <DihDeg>  (1) 
-179.8291420749903

$$$$
