
     RDKit          3D

 31 34  0  0  0  0  0  0  0  0999 V2000
   39.7670   22.8130   37.7860 C   0  0  0  0  0  0  0  0  0  0  0  0
   38.7350   23.4270   38.5180 C   0  0  0  0  0  0  0  0  0  0  0  0
   37.6910   24.0470   37.7930 C   0  0  0  0  0  0  0  0  0  0  0  0
   37.7740   23.9960   36.4240 N   0  0  0  0  0  0  0  0  0  0  0  0
   38.7760   23.3980   35.7570 C   0  0  0  0  0  0  0  0  0  0  0  0
   39.7550   22.8170   36.4570 N   0  0  0  0  0  0  0  0  0  0  0  0
   38.7070   23.4360   34.3380 N   0  0  0  0  0  0  0  0  0  0  0  0
   39.2330   22.4420   33.5540 C   0  0  0  0  0  0  0  0  0  0  0  0
   39.0150   22.7480   32.2530 N   0  0  0  0  0  0  0  0  0  0  0  0
   38.3500   23.9340   32.1870 C   0  0  0  0  0  0  0  0  0  0  0  0
   37.8540   24.7530   31.1750 C   0  0  0  0  0  0  0  0  0  0  0  0
   37.2270   25.8960   31.4700 N   0  0  0  0  0  0  0  0  0  0  0  0
   37.0790   26.2450   32.7550 C   0  0  0  0  0  0  0  0  0  0  0  0
   37.5430   25.4820   33.7650 N   0  0  0  0  0  0  0  0  0  0  0  0
   38.1740   24.3330   33.5020 C   0  0  0  0  0  0  0  0  0  0  0  0
   38.1060   24.2140   29.8750 N   0  0  0  0  0  0  0  0  0  0  0  0
   36.3900   27.4980   33.0580 C   0  0  0  0  0  0  0  0  0  0  0  0
   36.5520   28.0950   34.3090 C   0  0  0  0  0  0  0  0  0  0  0  0
   35.8790   29.2820   34.5500 C   0  0  0  0  0  0  0  0  0  0  0  0
   35.0990   29.8400   33.6170 N   0  0  0  0  0  0  0  0  0  0  0  0
   34.9920   29.2010   32.4270 C   0  0  0  0  0  0  0  0  0  0  0  0
   35.6020   28.0400   32.0850 N   0  0  0  0  0  0  0  0  0  0  0  0
   40.5946   22.3233   38.3201 H   0  0  0  0  0  0  0  0  0  0  0  0
   38.7397   23.4251   39.6180 H   0  0  0  0  0  0  0  0  0  0  0  0
   36.8530   24.5460   38.3017 H   0  0  0  0  0  0  0  0  0  0  0  0
   39.7482   21.5424   33.9218 H   0  0  0  0  0  0  0  0  0  0  0  0
   38.6030   23.3172   29.7768 H   0  0  0  0  0  0  0  0  0  0  0  0
   37.7906   24.7225   29.0366 H   0  0  0  0  0  0  0  0  0  0  0  0
   37.1925   27.6385   35.0780 H   0  0  0  0  0  0  0  0  0  0  0  0
   35.9881   29.7751   35.5272 H   0  0  0  0  0  0  0  0  0  0  0  0
   34.3493   29.6687   31.6666 H   0  0  0  0  0  0  0  0  0  0  0  0
  1  2  2  0
  3  2  1  0
  4  3  2  0
  5  4  1  0
  5  6  2  0
  6  1  1  0
  7  5  1  0
  8  7  1  0
  9  8  2  0
 10  9  1  0
 10 15  2  0
 11 12  2  0
 11 10  1  0
 12 13  1  0
 13 17  1  0
 13 14  2  0
 15 14  1  0
 15  7  1  0
 16 11  1  0
 17 18  2  0
 18 19  1  0
 20 19  2  0
 21 20  1  0
 22 21  2  0
 22 17  1  0
  1 23  1  0
  2 24  1  0
  3 25  1  0
  8 26  1  0
 16 27  1  0
 16 28  1  0
 18 29  1  0
 19 30  1  0
 21 31  1  0
M  ISO  7  23  14  24  14  25  14  26  14  29  14  30  14  31  14
M  END
>  <minimizedAffinity>  (1) 
-5.71300268

>  <minimizedRMSD>  (1) 
1.94542038

$$$$
