
     RDKit          3D

 30 33  0  0  0  0  0  0  0  0999 V2000
   39.6890   22.9010   37.6400 C   0  0  0  0  0  0  0  0  0  0  0  0
   38.8940   23.4740   38.6530 C   0  0  0  0  0  0  0  0  0  0  0  0
   37.8570   24.3240   38.2750 C   0  0  0  0  0  0  0  0  0  0  0  0
   37.6880   24.5410   36.9300 N   0  0  0  0  0  0  0  0  0  0  0  0
   38.4660   23.9770   35.9950 C   0  0  0  0  0  0  0  0  0  0  0  0
   39.4800   23.1470   36.3390 N   0  0  0  0  0  0  0  0  0  0  0  0
   38.1720   24.2970   34.6290 N   0  0  0  0  0  0  0  0  0  0  0  0
   38.4180   23.4680   33.5880 C   0  0  0  0  0  0  0  0  0  0  0  0
   38.0340   24.0510   32.4340 N   0  0  0  0  0  0  0  0  0  0  0  0
   37.5320   25.2730   32.7190 C   0  0  0  0  0  0  0  0  0  0  0  0
   36.9890   26.3280   31.9850 C   0  0  0  0  0  0  0  0  0  0  0  0
   36.5680   27.4510   32.6060 N   0  0  0  0  0  0  0  0  0  0  0  0
   36.6790   27.5400   33.9420 C   0  0  0  0  0  0  0  0  0  0  0  0
   37.2020   26.5290   34.6710 N   0  0  0  0  0  0  0  0  0  0  0  0
   37.6290   25.4040   34.0910 C   0  0  0  0  0  0  0  0  0  0  0  0
   36.9560   26.0470   30.5810 N   0  0  0  0  0  0  0  0  0  0  0  0
   36.2100   28.7820   34.6070 C   0  0  0  0  0  0  0  0  0  0  0  0
   34.8030   29.2320   34.4260 C   0  0  0  0  0  0  0  0  0  0  0  0
   35.8990   29.9000   33.6050 C   0  0  0  0  0  0  0  0  0  0  0  0
   40.5102   22.2279   37.9273 H   0  0  0  0  0  0  0  0  0  0  0  0
   39.0872   23.2559   39.7137 H   0  0  0  0  0  0  0  0  0  0  0  0
   37.2031   24.7998   39.0206 H   0  0  0  0  0  0  0  0  0  0  0  0
   38.8652   22.4664   33.6708 H   0  0  0  0  0  0  0  0  0  0  0  0
   37.3096   25.1465   30.2276 H   0  0  0  0  0  0  0  0  0  0  0  0
   36.5787   26.7454   29.9247 H   0  0  0  0  0  0  0  0  0  0  0  0
   36.8236   28.6382   35.5086 H   0  0  0  0  0  0  0  0  0  0  0  0
   34.0765   28.5700   33.9321 H   0  0  0  0  0  0  0  0  0  0  0  0
   34.0171   29.5965   35.1039 H   0  0  0  0  0  0  0  0  0  0  0  0
   35.9744   29.7126   32.5237 H   0  0  0  0  0  0  0  0  0  0  0  0
   36.2444   30.9318   33.4435 H   0  0  0  0  0  0  0  0  0  0  0  0
  1  2  2  0
  3  2  1  0
  4  3  2  0
  5  6  2  0
  5  4  1  0
  6  1  1  0
  7  5  1  0
  8  7  1  0
  9 10  1  0
  9  8  2  0
 10 15  2  0
 11 12  2  0
 11 10  1  0
 12 13  1  0
 13 17  1  0
 13 14  2  0
 15  7  1  0
 15 14  1  0
 16 11  1  0
 18 17  1  0
 19 18  1  0
 19 17  1  0
  1 20  1  0
  2 21  1  0
  3 22  1  0
  8 23  1  0
 16 24  1  0
 16 25  1  0
 17 26  1  0
 18 27  1  0
 18 28  1  0
 19 29  1  0
 19 30  1  0
M  ISO  8  20  14  21  14  22  14  23  14  26  13  27  13  28  13  29  13
M  ISO  1  30  13
M  END
>  <minimizedAffinity>  (1) 
-5.41838455

>  <minimizedRMSD>  (1) 
0.273639292

$$$$
