
     RDKit          3D

 26 28  0  0  0  0  0  0  0  0999 V2000
   39.7420   22.7960   37.8140 C   0  0  0  0  0  0  0  0  0  0  0  0
   38.9250   23.3850   38.7870 C   0  0  0  0  0  0  0  0  0  0  0  0
   37.8920   24.2060   38.3350 C   0  0  0  0  0  0  0  0  0  0  0  0
   37.7560   24.3750   36.9770 N   0  0  0  0  0  0  0  0  0  0  0  0
   38.5570   23.7950   36.0820 C   0  0  0  0  0  0  0  0  0  0  0  0
   39.5640   22.9940   36.4990 N   0  0  0  0  0  0  0  0  0  0  0  0
   38.3000   24.0570   34.7060 N   0  0  0  0  0  0  0  0  0  0  0  0
   38.5710   23.1860   33.7080 C   0  0  0  0  0  0  0  0  0  0  0  0
   38.2150   23.7280   32.5200 N   0  0  0  0  0  0  0  0  0  0  0  0
   37.7080   24.9590   32.7340 C   0  0  0  0  0  0  0  0  0  0  0  0
   37.1830   25.9900   31.9550 C   0  0  0  0  0  0  0  0  0  0  0  0
   36.7550   27.1220   32.5140 N   0  0  0  0  0  0  0  0  0  0  0  0
   36.8320   27.2650   33.8480 C   0  0  0  0  0  0  0  0  0  0  0  0
   37.3270   26.3060   34.6460 N   0  0  0  0  0  0  0  0  0  0  0  0
   37.7700   25.1480   34.1090 C   0  0  0  0  0  0  0  0  0  0  0  0
   37.1840   25.6530   30.5650 N   0  0  0  0  0  0  0  0  0  0  0  0
   36.3660   28.5010   34.4730 C   0  0  0  0  0  0  0  0  0  0  0  0
   35.3950   29.1760   34.0940 O   0  0  0  0  0  0  0  0  0  0  0  0
   37.0140   29.0330   35.5910 O   0  0  0  0  0  0  0  0  0  0  0  0
   40.5646   22.1433   38.1417 H   0  0  0  0  0  0  0  0  0  0  0  0
   39.0906   23.2080   39.8600 H   0  0  0  0  0  0  0  0  0  0  0  0
   37.2092   24.7015   39.0409 H   0  0  0  0  0  0  0  0  0  0  0  0
   39.0138   22.1879   33.8414 H   0  0  0  0  0  0  0  0  0  0  0  0
   37.5445   24.7386   30.2570 H   0  0  0  0  0  0  0  0  0  0  0  0
   36.8242   26.3247   29.8720 H   0  0  0  0  0  0  0  0  0  0  0  0
   36.6846   29.8714   36.0017 H   0  0  0  0  0  0  0  0  0  0  0  0
  1  2  2  0
  3  2  1  0
  4  3  2  0
  5  6  2  0
  5  4  1  0
  6  1  1  0
  7  5  1  0
  8  7  1  0
  9 10  1  0
  9  8  2  0
 10 15  2  0
 11 12  2  0
 11 10  1  0
 12 13  1  0
 13 17  1  0
 13 14  2  0
 15 14  1  0
 15  7  1  0
 16 11  1  0
 17 19  1  0
 18 17  2  0
  1 20  1  0
  2 21  1  0
  3 22  1  0
  8 23  1  0
 16 24  1  0
 16 25  1  0
 19 26  1  0
M  ISO  5  20  14  21  14  22  14  23  14  26   3
M  END
>  <minimizedAffinity>  (1) 
-5.20026636

>  <minimizedRMSD>  (1) 
0.627237201

$$$$
