
     RDKit          3D

 29 31  0  0  0  0  0  0  0  0999 V2000
   37.3760   25.7120   33.7320 C   0  0  0  0  0  0  0  0  0  0  0  0
   38.0980   24.6970   34.3850 C   0  0  0  0  0  0  0  0  0  0  0  0
   38.7000   24.9840   35.5980 C   0  0  0  0  0  0  0  0  0  0  0  0
   38.5670   26.2410   36.1090 N   0  0  0  0  0  0  0  0  0  0  0  0
   37.8750   27.1910   35.4690 C   0  0  0  0  0  0  0  0  0  0  0  0
   37.2830   26.9200   34.2810 N   0  0  0  0  0  0  0  0  0  0  0  0
   39.4180   23.9730   36.2480 N   0  0  0  0  0  0  0  0  0  0  0  0
   40.6850   23.8240   35.8030 C   0  0  0  0  0  0  0  0  0  0  0  0
   41.5040   22.8510   36.3710 C   0  0  0  0  0  0  0  0  0  0  0  0
   42.9190   22.5900   35.9660 C   0  0  0  0  0  0  0  0  0  0  0  0
   40.9970   22.0570   37.3790 C   0  0  0  0  0  0  0  0  0  0  0  0
   41.6960   21.1650   37.9220 O   0  0  0  0  0  0  0  0  0  0  0  0
   39.7340   22.2200   37.8090 N   0  0  0  0  0  0  0  0  0  0  0  0
   38.9740   23.1720   37.2360 C   0  0  0  0  0  0  0  0  0  0  0  0
   37.7830   23.3670   37.5990 O   0  0  0  0  0  0  0  0  0  0  0  0
   38.1530   23.4410   33.7410 N   0  0  0  0  0  0  0  0  0  0  0  0
   38.9170   22.9620   32.7120 C   0  0  0  0  0  0  0  0  0  0  0  0
   38.5910   21.6810   32.4580 N   0  0  0  0  0  0  0  0  0  0  0  0
   37.6010   21.3580   33.3530 C   0  0  0  0  0  0  0  0  0  0  0  0
   37.3480   22.4510   34.1280 N   0  0  0  0  0  0  0  0  0  0  0  0
   36.8884   25.5070   32.7676 H   0  0  0  0  0  0  0  0  0  0  0  0
   37.7866   28.1953   35.9090 H   0  0  0  0  0  0  0  0  0  0  0  0
   41.0675   24.4673   34.9969 H   0  0  0  0  0  0  0  0  0  0  0  0
   43.5424   22.4750   36.8650 H   0  0  0  0  0  0  0  0  0  0  0  0
   42.9650   21.6682   35.3675 H   0  0  0  0  0  0  0  0  0  0  0  0
   43.2908   23.4347   35.3675 H   0  0  0  0  0  0  0  0  0  0  0  0
   39.3551   21.6282   38.5621 H   0  0  0  0  0  0  0  0  0  0  0  0
   39.6834   23.5379   32.1727 H   0  0  0  0  0  0  0  0  0  0  0  0
   37.0975   20.3831   33.4314 H   0  0  0  0  0  0  0  0  0  0  0  0
  1  6  2  0
  1  2  1  0
  2  3  2  0
  3  4  1  0
  3  7  1  0
  5  4  2  0
  6  5  1  0
  7 14  1  0
  8  7  1  0
  8  9  2  0
  9 11  1  0
 10  9  1  0
 11 13  1  0
 11 12  2  0
 14 15  2  0
 14 13  1  0
 16 20  1  0
 16  2  1  0
 17 16  1  0
 18 17  2  0
 18 19  1  0
 19 20  2  0
  1 21  1  0
  5 22  1  0
  8 23  1  0
 10 24  1  0
 10 25  1  0
 10 26  1  0
 13 27  1  0
 17 28  1  0
 19 29  1  0
M  ISO  8  21  14  22  14  23  14  24   8  25   8  26   8  27   9  28  14
M  ISO  1  29  14
M  END
>  <minimizedAffinity>  (1) 
-5.08576488

>  <minimizedRMSD>  (1) 
3.93931031

$$$$
