
     RDKit          3D

 25 27  0  0  0  0  0  0  0  0999 V2000
   37.5270   23.9230   37.0310 C   0  0  0  0  0  0  0  0  0  0  0  0
   38.4270   23.1720   36.3040 C   0  0  0  0  0  0  0  0  0  0  0  0
   39.5370   22.6880   36.9580 C   0  0  0  0  0  0  0  0  0  0  0  0
   39.7180   22.9600   38.2730 N   0  0  0  0  0  0  0  0  0  0  0  0
   38.8130   23.7060   38.9600 C   0  0  0  0  0  0  0  0  0  0  0  0
   37.7460   24.1630   38.3200 N   0  0  0  0  0  0  0  0  0  0  0  0
   38.1970   23.0260   34.9110 N   0  0  0  0  0  0  0  0  0  0  0  0
   38.4260   23.8440   33.8230 C   0  0  0  0  0  0  0  0  0  0  0  0
   37.9780   23.2180   32.7130 N   0  0  0  0  0  0  0  0  0  0  0  0
   37.4670   22.0050   33.1190 C   0  0  0  0  0  0  0  0  0  0  0  0
   37.6090   21.8990   34.4830 N   0  0  0  0  0  0  0  0  0  0  0  0
   40.7010   21.9520   36.5600 C   0  0  0  0  0  0  0  0  0  0  0  0
   41.6390   23.0680   36.7090 C   0  0  0  0  0  0  0  0  0  0  0  0
   43.0400   23.2270   36.5190 C   0  0  0  0  0  0  0  0  0  0  0  0
   43.7250   22.0740   36.0870 C   0  0  0  0  0  0  0  0  0  0  0  0
   42.8700   20.9910   35.9330 C   0  0  0  0  0  0  0  0  0  0  0  0
   41.7010   21.3200   36.2190 N   0  0  0  0  0  0  0  0  0  0  0  0
   36.6263   24.3241   36.5432 H   0  0  0  0  0  0  0  0  0  0  0  0
   38.9633   23.9264   40.0272 H   0  0  0  0  0  0  0  0  0  0  0  0
   38.8946   24.8387   33.8546 H   0  0  0  0  0  0  0  0  0  0  0  0
   37.0191   21.2460   32.4607 H   0  0  0  0  0  0  0  0  0  0  0  0
   41.1481   23.9936   37.0441 H   0  0  0  0  0  0  0  0  0  0  0  0
   43.5528   24.1837   36.6970 H   0  0  0  0  0  0  0  0  0  0  0  0
   44.8074   22.0364   35.8948 H   0  0  0  0  0  0  0  0  0  0  0  0
   43.1789   19.9872   35.6059 H   0  0  0  0  0  0  0  0  0  0  0  0
  1  6  2  0
  2  3  2  0
  2  1  1  0
  3  4  1  0
  4  5  2  0
  6  5  1  0
  7  2  1  0
  8  7  1  0
  9 10  1  0
  9  8  2  0
 10 11  2  0
 11  7  1  0
 12 13  2  0
 12  3  1  0
 14 13  1  0
 15 14  2  0
 16 15  1  0
 16 17  2  0
 17 12  1  0
  1 18  1  0
  5 19  1  0
  8 20  1  0
 10 21  1  0
 13 22  1  0
 14 23  1  0
 15 24  1  0
 16 25  1  0
M  ISO  8  18  14  19  14  20  14  21  14  22  14  23  14  24  14  25  14
M  END
>  <minimizedAffinity>  (1) 
-4.42098331

>  <minimizedRMSD>  (1) 
2.1225059

$$$$
