
     RDKit          3D

 29 31  0  0  0  0  0  0  0  0999 V2000
   37.4720   23.8970   37.0690 C   0  0  0  0  0  0  0  0  0  0  0  0
   38.4920   23.2430   36.3430 C   0  0  0  0  0  0  0  0  0  0  0  0
   39.6320   22.8330   37.0100 C   0  0  0  0  0  0  0  0  0  0  0  0
   39.7340   23.0730   38.3460 N   0  0  0  0  0  0  0  0  0  0  0  0
   38.7520   23.6970   39.0230 C   0  0  0  0  0  0  0  0  0  0  0  0
   37.6270   24.1050   38.3820 N   0  0  0  0  0  0  0  0  0  0  0  0
   38.2600   23.0500   34.9700 N   0  0  0  0  0  0  0  0  0  0  0  0
   38.5100   23.7910   33.8710 C   0  0  0  0  0  0  0  0  0  0  0  0
   38.0900   23.1610   32.7600 N   0  0  0  0  0  0  0  0  0  0  0  0
   37.5520   21.9690   33.1860 C   0  0  0  0  0  0  0  0  0  0  0  0
   37.6700   21.9320   34.5330 N   0  0  0  0  0  0  0  0  0  0  0  0
   40.7450   22.1630   36.3240 C   0  0  0  0  0  0  0  0  0  0  0  0
   41.7930   23.1040   35.7790 C   0  0  0  0  0  0  0  0  0  0  0  0
   42.8060   22.0720   35.2760 C   0  0  0  0  0  0  0  0  0  0  0  0
   42.9540   21.2140   36.5390 C   0  0  0  0  0  0  0  0  0  0  0  0
   41.6040   21.3100   37.2480 C   0  0  0  0  0  0  0  0  0  0  0  0
   36.5571   24.2329   36.5590 H   0  0  0  0  0  0  0  0  0  0  0  0
   38.8618   23.8775   40.1025 H   0  0  0  0  0  0  0  0  0  0  0  0
   38.9932   24.7791   33.8822 H   0  0  0  0  0  0  0  0  0  0  0  0
   37.1079   21.1898   32.5491 H   0  0  0  0  0  0  0  0  0  0  0  0
   40.2021   21.5999   35.5506 H   0  0  0  0  0  0  0  0  0  0  0  0
   41.4014   23.7289   34.9628 H   0  0  0  0  0  0  0  0  0  0  0  0
   42.1852   23.8404   36.4958 H   0  0  0  0  0  0  0  0  0  0  0  0
   42.4113   21.4900   34.4301 H   0  0  0  0  0  0  0  0  0  0  0  0
   43.7448   22.4930   34.8870 H   0  0  0  0  0  0  0  0  0  0  0  0
   43.1765   20.1702   36.2725 H   0  0  0  0  0  0  0  0  0  0  0  0
   43.7797   21.5609   37.1776 H   0  0  0  0  0  0  0  0  0  0  0  0
   41.7147   21.7923   38.2304 H   0  0  0  0  0  0  0  0  0  0  0  0
   41.1600   20.3212   37.4357 H   0  0  0  0  0  0  0  0  0  0  0  0
  1  6  2  0
  2  3  2  0
  2  1  1  0
  3  4  1  0
  4  5  2  0
  6  5  1  0
  7  2  1  0
  8  7  1  0
  9 10  1  0
  9  8  2  0
 10 11  2  0
 11  7  1  0
 12  3  1  0
 12 16  1  0
 13 12  1  0
 14 13  1  0
 14 15  1  0
 15 16  1  0
  1 17  1  0
  5 18  1  0
  8 19  1  0
 10 20  1  0
 12 21  1  0
 13 22  1  0
 13 23  1  0
 14 24  1  0
 14 25  1  0
 15 26  1  0
 15 27  1  0
 16 28  1  0
 16 29  1  0
M  ISO  8  17  14  18  14  19  14  20  14  21  13  22  13  23  13  24  13
M  ISO  5  25  13  26  13  27  13  28  13  29  13
M  END
>  <minimizedAffinity>  (1) 
-4.14514542

>  <minimizedRMSD>  (1) 
1.98819029

$$$$
