
     RDKit          3D

 23 25  0  0  0  0  0  0  0  0999 V2000
   37.4420   23.8120   37.0960 C   0  0  0  0  0  0  0  0  0  0  0  0
   38.4310   23.1510   36.3160 C   0  0  0  0  0  0  0  0  0  0  0  0
   39.6070   22.7680   36.9120 C   0  0  0  0  0  0  0  0  0  0  0  0
   39.7380   23.0720   38.2560 N   0  0  0  0  0  0  0  0  0  0  0  0
   38.8070   23.6910   38.9690 C   0  0  0  0  0  0  0  0  0  0  0  0
   37.6660   24.0570   38.3900 N   0  0  0  0  0  0  0  0  0  0  0  0
   38.1380   23.0130   34.9450 N   0  0  0  0  0  0  0  0  0  0  0  0
   38.3010   23.8420   33.8530 C   0  0  0  0  0  0  0  0  0  0  0  0
   37.8100   23.2440   32.7490 N   0  0  0  0  0  0  0  0  0  0  0  0
   37.3300   22.0190   33.1580 C   0  0  0  0  0  0  0  0  0  0  0  0
   37.5390   21.8920   34.5080 N   0  0  0  0  0  0  0  0  0  0  0  0
   40.6790   22.0680   36.3040 C   0  0  0  0  0  0  0  0  0  0  0  0
   41.6270   21.3630   37.0650 C   0  0  0  0  0  0  0  0  0  0  0  0
   42.6000   20.8010   36.3430 N   0  0  0  0  0  0  0  0  0  0  0  0
   42.3400   21.1090   35.0770 C   0  0  0  0  0  0  0  0  0  0  0  0
   41.2360   21.8280   35.1240 N   0  0  0  0  0  0  0  0  0  0  0  0
   36.4930   24.1213   36.6338 H   0  0  0  0  0  0  0  0  0  0  0  0
   38.9772   23.9012   40.0352 H   0  0  0  0  0  0  0  0  0  0  0  0
   38.7622   24.8403   33.8798 H   0  0  0  0  0  0  0  0  0  0  0  0
   36.8572   21.2669   32.5092 H   0  0  0  0  0  0  0  0  0  0  0  0
   41.5724   21.2811   38.1606 H   0  0  0  0  0  0  0  0  0  0  0  0
   42.9188   20.8262   34.1854 H   0  0  0  0  0  0  0  0  0  0  0  0
   40.8134   22.1968   34.2601 H   0  0  0  0  0  0  0  0  0  0  0  0
  1  6  2  0
  2  3  2  0
  2  1  1  0
  3  4  1  0
  4  5  2  0
  6  5  1  0
  7  2  1  0
  8  7  1  0
  9 10  1  0
  9  8  2  0
 10 11  2  0
 11  7  1  0
 12  3  1  0
 12 13  2  0
 14 13  1  0
 15 16  1  0
 15 14  2  0
 16 12  1  0
  1 17  1  0
  5 18  1  0
  8 19  1  0
 10 20  1  0
 13 21  1  0
 15 22  1  0
 16 23  1  0
M  ISO  7  17  14  18  14  19  14  20  14  21  14  22  14  23   9
M  END
>  <minimizedAffinity>  (1) 
-3.91029525

>  <minimizedRMSD>  (1) 
1.75367332

$$$$
