
     RDKit          3D

 21 23  0  0  0  0  0  0  0  0999 V2000
   37.4580   23.8090   37.0770 C   0  0  0  0  0  0  0  0  0  0  0  0
   38.4840   23.1440   36.3420 C   0  0  0  0  0  0  0  0  0  0  0  0
   39.6450   22.7830   36.9900 C   0  0  0  0  0  0  0  0  0  0  0  0
   39.7300   23.1020   38.3300 N   0  0  0  0  0  0  0  0  0  0  0  0
   38.7590   23.7250   38.9990 C   0  0  0  0  0  0  0  0  0  0  0  0
   37.6300   24.0770   38.3790 N   0  0  0  0  0  0  0  0  0  0  0  0
   38.2060   22.9430   34.9860 N   0  0  0  0  0  0  0  0  0  0  0  0
   38.3900   23.7280   33.8760 C   0  0  0  0  0  0  0  0  0  0  0  0
   37.9120   23.0600   32.7890 N   0  0  0  0  0  0  0  0  0  0  0  0
   37.4300   21.8540   33.2400 C   0  0  0  0  0  0  0  0  0  0  0  0
   37.6190   21.8060   34.5750 N   0  0  0  0  0  0  0  0  0  0  0  0
   40.7160   22.0590   36.3270 C   0  0  0  0  0  0  0  0  0  0  0  0
   41.1770   21.8700   35.0880 N   0  0  0  0  0  0  0  0  0  0  0  0
   42.2040   21.0970   35.0630 O   0  0  0  0  0  0  0  0  0  0  0  0
   42.4860   20.7270   36.2880 C   0  0  0  0  0  0  0  0  0  0  0  0
   41.5700   21.3220   37.0470 N   0  0  0  0  0  0  0  0  0  0  0  0
   36.5244   24.1022   36.5745 H   0  0  0  0  0  0  0  0  0  0  0  0
   38.8889   23.9502   40.0678 H   0  0  0  0  0  0  0  0  0  0  0  0
   38.8467   24.7286   33.8654 H   0  0  0  0  0  0  0  0  0  0  0  0
   36.9716   21.0678   32.6221 H   0  0  0  0  0  0  0  0  0  0  0  0
   43.3027   20.0677   36.6171 H   0  0  0  0  0  0  0  0  0  0  0  0
  1  6  2  0
  2  3  2  0
  2  1  1  0
  3  4  1  0
  4  5  2  0
  6  5  1  0
  7  2  1  0
  8  7  1  0
  9 10  1  0
  9  8  2  0
 10 11  2  0
 11  7  1  0
 12  3  1  0
 12 16  1  0
 13 12  2  0
 14 13  1  0
 14 15  1  0
 15 16  2  0
  1 17  1  0
  5 18  1  0
  8 19  1  0
 10 20  1  0
 15 21  1  0
M  ISO  5  17  14  18  14  19  14  20  14  21  14
M  END
>  <minimizedAffinity>  (1) 
-3.83768821

>  <minimizedRMSD>  (1) 
1.58087194

$$$$
