
     RDKit          3D

 24 26  0  0  0  0  0  0  0  0999 V2000
   37.4330   23.8160   37.1020 C   0  0  0  0  0  0  0  0  0  0  0  0
   38.4490   23.1590   36.3560 C   0  0  0  0  0  0  0  0  0  0  0  0
   39.6270   22.8070   36.9850 C   0  0  0  0  0  0  0  0  0  0  0  0
   39.7590   23.1200   38.3120 N   0  0  0  0  0  0  0  0  0  0  0  0
   38.7960   23.7400   39.0000 C   0  0  0  0  0  0  0  0  0  0  0  0
   37.6300   24.0890   38.4000 N   0  0  0  0  0  0  0  0  0  0  0  0
   38.1710   22.9550   34.9920 N   0  0  0  0  0  0  0  0  0  0  0  0
   38.3530   23.7440   33.8750 C   0  0  0  0  0  0  0  0  0  0  0  0
   37.8870   23.0790   32.7860 N   0  0  0  0  0  0  0  0  0  0  0  0
   37.4130   21.8670   33.2440 C   0  0  0  0  0  0  0  0  0  0  0  0
   37.5950   21.8110   34.5960 N   0  0  0  0  0  0  0  0  0  0  0  0
   40.6720   22.0990   36.3110 C   0  0  0  0  0  0  0  0  0  0  0  0
   41.5430   21.3580   37.0800 C   0  0  0  0  0  0  0  0  0  0  0  0
   42.5990   20.6130   36.6580 C   0  0  0  0  0  0  0  0  0  0  0  0
   42.8520   20.5760   35.3190 N   0  0  0  0  0  0  0  0  0  0  0  0
   42.0210   21.2930   34.5090 C   0  0  0  0  0  0  0  0  0  0  0  0
   41.0200   21.9830   35.0310 N   0  0  0  0  0  0  0  0  0  0  0  0
   36.4879   24.0997   36.6159 H   0  0  0  0  0  0  0  0  0  0  0  0
   38.9501   23.9701   40.0646 H   0  0  0  0  0  0  0  0  0  0  0  0
   38.8023   24.7480   33.8675 H   0  0  0  0  0  0  0  0  0  0  0  0
   36.9635   21.0777   32.6236 H   0  0  0  0  0  0  0  0  0  0  0  0
   41.3622   21.3709   38.1650 H   0  0  0  0  0  0  0  0  0  0  0  0
   43.2270   20.0597   37.3717 H   0  0  0  0  0  0  0  0  0  0  0  0
   42.1832   21.2975   33.4210 H   0  0  0  0  0  0  0  0  0  0  0  0
  1  6  2  0
  2  3  2  0
  2  1  1  0
  3  4  1  0
  4  5  2  0
  6  5  1  0
  7  2  1  0
  8  7  1  0
  9 10  1  0
  9  8  2  0
 10 11  2  0
 11  7  1  0
 12  3  1  0
 12 13  2  0
 14 13  1  0
 15 14  2  0
 16 17  2  0
 16 15  1  0
 17 12  1  0
  1 18  1  0
  5 19  1  0
  8 20  1  0
 10 21  1  0
 13 22  1  0
 14 23  1  0
 16 24  1  0
M  ISO  7  18  14  19  14  20  14  21  14  22  14  23  14  24  14
M  END
>  <minimizedAffinity>  (1) 
-4.09281254

>  <minimizedRMSD>  (1) 
1.59283805

$$$$
