
     RDKit          3D

 31 33  0  0  0  0  0  0  0  0999 V2000
   37.3980   23.2610   37.0260 C   0  0  0  0  0  0  0  0  0  0  0  0
   38.4920   23.0910   36.1870 C   0  0  0  0  0  0  0  0  0  0  0  0
   39.7460   23.0510   36.7690 C   0  0  0  0  0  0  0  0  0  0  0  0
   39.8680   23.1760   38.1190 N   0  0  0  0  0  0  0  0  0  0  0  0
   38.7840   23.3390   38.9020 C   0  0  0  0  0  0  0  0  0  0  0  0
   37.5650   23.3800   38.3480 N   0  0  0  0  0  0  0  0  0  0  0  0
   38.2520   22.9730   34.8050 N   0  0  0  0  0  0  0  0  0  0  0  0
   38.1580   23.8650   33.7900 C   0  0  0  0  0  0  0  0  0  0  0  0
   37.9120   23.2230   32.6340 N   0  0  0  0  0  0  0  0  0  0  0  0
   37.8490   21.8830   32.9330 C   0  0  0  0  0  0  0  0  0  0  0  0
   38.0620   21.7660   34.2680 N   0  0  0  0  0  0  0  0  0  0  0  0
   40.8820   22.8790   35.9390 N   0  0  0  0  0  0  0  0  0  0  0  0
   41.6350   21.7330   35.4240 C   0  0  0  0  0  0  0  0  0  0  0  0
   43.0400   21.7090   35.9740 C   0  0  0  0  0  0  0  0  0  0  0  0
   43.5120   23.0700   36.4210 C   0  0  0  0  0  0  0  0  0  0  0  0
   42.9920   24.0720   35.4410 C   0  0  0  0  0  0  0  0  0  0  0  0
   41.5010   24.0940   35.4400 C   0  0  0  0  0  0  0  0  0  0  0  0
   36.3848   23.2981   36.5993 H   0  0  0  0  0  0  0  0  0  0  0  0
   38.8993   23.4380   39.9915 H   0  0  0  0  0  0  0  0  0  0  0  0
   38.2669   24.9545   33.8956 H   0  0  0  0  0  0  0  0  0  0  0  0
   37.6617   21.0621   32.2252 H   0  0  0  0  0  0  0  0  0  0  0  0
   41.1201   20.8056   35.7154 H   0  0  0  0  0  0  0  0  0  0  0  0
   41.6920   21.8185   34.3288 H   0  0  0  0  0  0  0  0  0  0  0  0
   43.0693   21.0256   36.8355 H   0  0  0  0  0  0  0  0  0  0  0  0
   43.7078   21.3737   35.1667 H   0  0  0  0  0  0  0  0  0  0  0  0
   43.1227   23.2909   37.4258 H   0  0  0  0  0  0  0  0  0  0  0  0
   44.6107   23.1039   36.4626 H   0  0  0  0  0  0  0  0  0  0  0  0
   43.3664   25.0697   35.7137 H   0  0  0  0  0  0  0  0  0  0  0  0
   43.3392   23.7919   34.4355 H   0  0  0  0  0  0  0  0  0  0  0  0
   41.1691   24.9327   36.0697 H   0  0  0  0  0  0  0  0  0  0  0  0
   41.1896   24.1961   34.3899 H   0  0  0  0  0  0  0  0  0  0  0  0
  1  6  2  0
  2  3  2  0
  2  1  1  0
  3  4  1  0
  4  5  2  0
  6  5  1  0
  7  2  1  0
  8  7  1  0
  9 10  1  0
  9  8  2  0
 10 11  2  0
 11  7  1  0
 12  3  1  0
 13 12  1  0
 13 14  1  0
 14 15  1  0
 16 15  1  0
 17 16  1  0
 17 12  1  0
  1 18  1  0
  5 19  1  0
  8 20  1  0
 10 21  1  0
 13 22  1  0
 13 23  1  0
 14 24  1  0
 14 25  1  0
 15 26  1  0
 15 27  1  0
 16 28  1  0
 16 29  1  0
 17 30  1  0
 17 31  1  0
M  ISO  8  18  14  19  14  20  14  21  14  22  13  23  13  24  13  25  13
M  ISO  6  26  13  27  13  28  13  29  13  30  13  31  13
M  END
>  <minimizedAffinity>  (1) 
-3.98439431

>  <minimizedRMSD>  (1) 
1.93630493

$$$$
