
     RDKit          3D

 28 29  0  0  0  0  0  0  0  0999 V2000
   37.4670   23.6820   37.0280 C   0  0  0  0  0  0  0  0  0  0  0  0
   38.5500   23.4480   36.1350 C   0  0  0  0  0  0  0  0  0  0  0  0
   39.8150   23.1270   36.6530 C   0  0  0  0  0  0  0  0  0  0  0  0
   39.9040   23.0660   38.0210 N   0  0  0  0  0  0  0  0  0  0  0  0
   38.8790   23.2890   38.8470 C   0  0  0  0  0  0  0  0  0  0  0  0
   37.6530   23.5990   38.3550 N   0  0  0  0  0  0  0  0  0  0  0  0
   38.2380   23.5570   34.7770 N   0  0  0  0  0  0  0  0  0  0  0  0
   38.3070   24.5840   33.9090 C   0  0  0  0  0  0  0  0  0  0  0  0
   37.8900   24.2140   32.6870 N   0  0  0  0  0  0  0  0  0  0  0  0
   37.5410   22.8870   32.7970 C   0  0  0  0  0  0  0  0  0  0  0  0
   37.7630   22.4980   34.0930 N   0  0  0  0  0  0  0  0  0  0  0  0
   40.9850   22.8860   35.8040 C   0  0  0  0  0  0  0  0  0  0  0  0
   42.2800   22.6500   36.4940 C   0  0  0  0  0  0  0  0  0  0  0  0
   41.2530   24.2960   35.1550 C   0  0  0  0  0  0  0  0  0  0  0  0
   40.6710   22.0420   34.6220 C   0  0  0  0  0  0  0  0  0  0  0  0
   36.4728   23.9321   36.6291 H   0  0  0  0  0  0  0  0  0  0  0  0
   39.0295   23.2209   39.9345 H   0  0  0  0  0  0  0  0  0  0  0  0
   38.6588   25.5938   34.1669 H   0  0  0  0  0  0  0  0  0  0  0  0
   37.1526   22.2509   31.9880 H   0  0  0  0  0  0  0  0  0  0  0  0
   42.1258   22.6781   37.5828 H   0  0  0  0  0  0  0  0  0  0  0  0
   42.6753   21.6650   36.2050 H   0  0  0  0  0  0  0  0  0  0  0  0
   42.9974   23.4322   36.2050 H   0  0  0  0  0  0  0  0  0  0  0  0
   41.3952   25.0440   35.9489 H   0  0  0  0  0  0  0  0  0  0  0  0
   42.1578   24.2466   34.5314 H   0  0  0  0  0  0  0  0  0  0  0  0
   40.3931   24.5820   34.5314 H   0  0  0  0  0  0  0  0  0  0  0  0
   40.3059   21.0606   34.9588 H   0  0  0  0  0  0  0  0  0  0  0  0
   39.8956   22.5335   34.0161 H   0  0  0  0  0  0  0  0  0  0  0  0
   41.5791   21.9072   34.0161 H   0  0  0  0  0  0  0  0  0  0  0  0
  1  6  2  0
  2  3  2  0
  2  1  1  0
  3  4  1  0
  4  5  2  0
  6  5  1  0
  7  2  1  0
  8  7  1  0
  9 10  1  0
  9  8  2  0
 10 11  2  0
 11  7  1  0
 12 13  1  0
 12  3  1  0
 14 12  1  0
 15 12  1  0
  1 16  1  0
  5 17  1  0
  8 18  1  0
 10 19  1  0
 13 20  1  0
 13 21  1  0
 13 22  1  0
 14 23  1  0
 14 24  1  0
 14 25  1  0
 15 26  1  0
 15 27  1  0
 15 28  1  0
M  ISO  8  16  14  17  14  18  14  19  14  20   8  21   8  22   8  23   8
M  ISO  5  24   8  25   8  26   8  27   8  28   8
M  END
>  <minimizedAffinity>  (1) 
-3.72393465

>  <minimizedRMSD>  (1) 
1.97653151

$$$$
