
     RDKit          3D

 25 26  0  0  0  0  0  0  0  0999 V2000
   37.8910   23.1660   35.8460 C   0  0  0  0  0  0  0  0  0  0  0  0
   38.1420   24.4610   35.3530 C   0  0  0  0  0  0  0  0  0  0  0  0
   38.2630   25.5000   36.2610 C   0  0  0  0  0  0  0  0  0  0  0  0
   38.1340   25.2220   37.5810 N   0  0  0  0  0  0  0  0  0  0  0  0
   37.8950   23.9890   38.0400 C   0  0  0  0  0  0  0  0  0  0  0  0
   37.7750   22.9660   37.1660 N   0  0  0  0  0  0  0  0  0  0  0  0
   38.2630   24.5960   33.9570 N   0  0  0  0  0  0  0  0  0  0  0  0
   37.4030   24.9670   32.9810 C   0  0  0  0  0  0  0  0  0  0  0  0
   38.0070   24.9420   31.7820 N   0  0  0  0  0  0  0  0  0  0  0  0
   39.3010   24.5380   32.0220 C   0  0  0  0  0  0  0  0  0  0  0  0
   39.4360   24.3290   33.3660 N   0  0  0  0  0  0  0  0  0  0  0  0
   38.5170   26.8770   35.8450 C   0  0  0  0  0  0  0  0  0  0  0  0
   39.7830   26.9960   35.0480 C   0  0  0  0  0  0  0  0  0  0  0  0
   37.3700   27.4880   35.0410 C   0  0  0  0  0  0  0  0  0  0  0  0
   37.7904   22.3207   35.1493 H   0  0  0  0  0  0  0  0  0  0  0  0
   37.7969   23.8092   39.1208 H   0  0  0  0  0  0  0  0  0  0  0  0
   36.3531   25.2503   33.1468 H   0  0  0  0  0  0  0  0  0  0  0  0
   40.0882   24.4065   31.2650 H   0  0  0  0  0  0  0  0  0  0  0  0
   38.6153   27.4408   36.7844 H   0  0  0  0  0  0  0  0  0  0  0  0
   40.6407   27.0766   35.7320 H   0  0  0  0  0  0  0  0  0  0  0  0
   39.9022   26.1051   34.4139 H   0  0  0  0  0  0  0  0  0  0  0  0
   39.7341   27.8935   34.4139 H   0  0  0  0  0  0  0  0  0  0  0  0
   36.6132   27.8911   35.7300 H   0  0  0  0  0  0  0  0  0  0  0  0
   37.7578   28.2990   34.4071 H   0  0  0  0  0  0  0  0  0  0  0  0
   36.9133   26.7136   34.4071 H   0  0  0  0  0  0  0  0  0  0  0  0
  1  6  2  0
  2  1  1  0
  2  3  2  0
  3  4  1  0
  4  5  2  0
  6  5  1  0
  7  2  1  0
  8  7  1  0
  9 10  1  0
  9  8  2  0
 10 11  2  0
 11  7  1  0
 12  3  1  0
 13 12  1  0
 14 12  1  0
  1 15  1  0
  5 16  1  0
  8 17  1  0
 10 18  1  0
 12 19  1  0
 13 20  1  0
 13 21  1  0
 13 22  1  0
 14 23  1  0
 14 24  1  0
 14 25  1  0
M  ISO  8  15  14  16  14  17  14  18  14  19   8  20   8  21   8  22   8
M  ISO  3  23   8  24   8  25   8
M  END
>  <minimizedAffinity>  (1) 
-3.81892729

>  <minimizedRMSD>  (1) 
4.15634012

$$$$
