
     RDKit          3D

 18 19  0  0  0  0  0  0  0  0999 V2000
   37.4600   23.8580   37.0810 C   0  0  0  0  0  0  0  0  0  0  0  0
   38.3900   23.1750   36.2670 C   0  0  0  0  0  0  0  0  0  0  0  0
   39.5520   22.7380   36.8610 C   0  0  0  0  0  0  0  0  0  0  0  0
   39.7860   22.9600   38.1790 N   0  0  0  0  0  0  0  0  0  0  0  0
   38.8890   23.6100   38.9280 C   0  0  0  0  0  0  0  0  0  0  0  0
   37.7610   24.0400   38.3740 N   0  0  0  0  0  0  0  0  0  0  0  0
   38.0590   23.0050   34.9120 N   0  0  0  0  0  0  0  0  0  0  0  0
   38.2320   23.7680   33.8060 C   0  0  0  0  0  0  0  0  0  0  0  0
   37.7120   23.1310   32.7330 N   0  0  0  0  0  0  0  0  0  0  0  0
   37.2020   21.9380   33.1880 C   0  0  0  0  0  0  0  0  0  0  0  0
   37.4280   21.8920   34.5180 N   0  0  0  0  0  0  0  0  0  0  0  0
   40.5470   22.0230   36.1270 C   0  0  0  0  0  0  0  0  0  0  0  0
   41.6400   21.4700   36.0360 O   0  0  0  0  0  0  0  0  0  0  0  0
   36.5128   24.2311   36.6644 H   0  0  0  0  0  0  0  0  0  0  0  0
   39.0840   23.7874   39.9959 H   0  0  0  0  0  0  0  0  0  0  0  0
   38.7201   24.7535   33.7844 H   0  0  0  0  0  0  0  0  0  0  0  0
   36.7038   21.1666   32.5824 H   0  0  0  0  0  0  0  0  0  0  0  0
   40.1070   21.9083   35.1254 H   0  0  0  0  0  0  0  0  0  0  0  0
  1  6  2  0
  2  3  2  0
  2  1  1  0
  3  4  1  0
  4  5  2  0
  6  5  1  0
  7  2  1  0
  8  7  1  0
  9 10  1  0
  9  8  2  0
 10 11  2  0
 11  7  1  0
 12  3  1  0
 13 12  2  0
  1 14  1  0
  5 15  1  0
  8 16  1  0
 10 17  1  0
 12 18  1  0
M  ISO  5  14  14  15  14  16  14  17  14  18   6
M  END
>  <minimizedAffinity>  (1) 
-3.39773893

>  <minimizedRMSD>  (1) 
1.46342766

$$$$
