
     RDKit          3D

 23 25  0  0  0  0  0  0  0  0999 V2000
   37.4790   23.7680   37.0300 C   0  0  0  0  0  0  0  0  0  0  0  0
   38.4880   23.5530   36.0940 C   0  0  0  0  0  0  0  0  0  0  0  0
   39.7410   23.1890   36.5530 C   0  0  0  0  0  0  0  0  0  0  0  0
   39.9380   23.0560   37.8950 N   0  0  0  0  0  0  0  0  0  0  0  0
   38.9350   23.2720   38.7750 C   0  0  0  0  0  0  0  0  0  0  0  0
   37.7060   23.6290   38.3380 N   0  0  0  0  0  0  0  0  0  0  0  0
   38.1450   23.7260   34.7370 N   0  0  0  0  0  0  0  0  0  0  0  0
   38.1410   24.8120   33.9170 C   0  0  0  0  0  0  0  0  0  0  0  0
   37.7200   24.4440   32.6790 N   0  0  0  0  0  0  0  0  0  0  0  0
   37.4610   23.0990   32.7420 C   0  0  0  0  0  0  0  0  0  0  0  0
   37.7300   22.6970   34.0030 N   0  0  0  0  0  0  0  0  0  0  0  0
   40.7660   22.9720   35.5890 N   0  0  0  0  0  0  0  0  0  0  0  0
   41.5660   24.0090   35.2790 C   0  0  0  0  0  0  0  0  0  0  0  0
   42.4790   23.5490   34.3240 C   0  0  0  0  0  0  0  0  0  0  0  0
   42.2040   22.2410   34.0830 N   0  0  0  0  0  0  0  0  0  0  0  0
   41.1590   21.8950   34.8580 C   0  0  0  0  0  0  0  0  0  0  0  0
   36.4757   24.0579   36.6845 H   0  0  0  0  0  0  0  0  0  0  0  0
   39.1196   23.1567   39.8533 H   0  0  0  0  0  0  0  0  0  0  0  0
   38.4336   25.8307   34.2113 H   0  0  0  0  0  0  0  0  0  0  0  0
   37.1009   22.4650   31.9183 H   0  0  0  0  0  0  0  0  0  0  0  0
   41.5122   25.0250   35.6971 H   0  0  0  0  0  0  0  0  0  0  0  0
   43.2772   24.1411   33.8524 H   0  0  0  0  0  0  0  0  0  0  0  0
   40.6959   20.8979   34.8942 H   0  0  0  0  0  0  0  0  0  0  0  0
  1  6  2  0
  2  3  2  0
  2  1  1  0
  3  4  1  0
  4  5  2  0
  6  5  1  0
  7  2  1  0
  8  7  1  0
  9 10  1  0
  9  8  2  0
 10 11  2  0
 11  7  1  0
 12  3  1  0
 13 12  1  0
 14 13  2  0
 15 14  1  0
 15 16  2  0
 16 12  1  0
  1 17  1  0
  5 18  1  0
  8 19  1  0
 10 20  1  0
 13 21  1  0
 14 22  1  0
 16 23  1  0
M  ISO  7  17  14  18  14  19  14  20  14  21  14  22  14  23  14
M  END
>  <minimizedAffinity>  (1) 
-3.52545357

>  <minimizedRMSD>  (1) 
2.1273427

$$$$
