
     RDKit          3D

 30 32  0  0  0  0  0  0  0  0999 V2000
   37.4140   23.2370   37.0710 C   0  0  0  0  0  0  0  0  0  0  0  0
   38.4340   23.1030   36.1270 C   0  0  0  0  0  0  0  0  0  0  0  0
   39.7370   23.0440   36.5890 C   0  0  0  0  0  0  0  0  0  0  0  0
   39.9770   23.1170   37.9280 N   0  0  0  0  0  0  0  0  0  0  0  0
   38.9560   23.2470   38.8100 C   0  0  0  0  0  0  0  0  0  0  0  0
   37.6750   23.3060   38.3750 N   0  0  0  0  0  0  0  0  0  0  0  0
   38.0480   23.0390   34.7740 N   0  0  0  0  0  0  0  0  0  0  0  0
   37.9920   23.9960   33.7950 C   0  0  0  0  0  0  0  0  0  0  0  0
   37.5460   23.4150   32.6500 N   0  0  0  0  0  0  0  0  0  0  0  0
   37.3290   22.0960   32.9310 C   0  0  0  0  0  0  0  0  0  0  0  0
   37.6430   21.8870   34.2360 N   0  0  0  0  0  0  0  0  0  0  0  0
   40.7760   22.9070   35.6250 N   0  0  0  0  0  0  0  0  0  0  0  0
   41.3380   21.7440   34.9240 C   0  0  0  0  0  0  0  0  0  0  0  0
   42.8190   21.7500   35.3100 C   0  0  0  0  0  0  0  0  0  0  0  0
   43.4160   22.7910   34.4780 N   0  0  0  0  0  0  0  0  0  0  0  0
   42.4500   23.7940   34.1240 C   0  0  0  0  0  0  0  0  0  0  0  0
   41.4590   24.1200   35.2060 C   0  0  0  0  0  0  0  0  0  0  0  0
   36.3696   23.2868   36.7293 H   0  0  0  0  0  0  0  0  0  0  0  0
   39.1697   23.3050   39.8875 H   0  0  0  0  0  0  0  0  0  0  0  0
   38.2623   25.0555   33.9153 H   0  0  0  0  0  0  0  0  0  0  0  0
   36.9639   21.3362   32.2243 H   0  0  0  0  0  0  0  0  0  0  0  0
   41.2184   21.8497   33.8356 H   0  0  0  0  0  0  0  0  0  0  0  0
   40.8357   20.8046   35.1983 H   0  0  0  0  0  0  0  0  0  0  0  0
   42.9406   21.9890   36.3768 H   0  0  0  0  0  0  0  0  0  0  0  0
   43.2933   20.7699   35.1536 H   0  0  0  0  0  0  0  0  0  0  0  0
   44.1861   23.2355   34.9978 H   0  0  0  0  0  0  0  0  0  0  0  0
   42.9918   24.7160   33.8663 H   0  0  0  0  0  0  0  0  0  0  0  0
   41.8698   23.3843   33.2840 H   0  0  0  0  0  0  0  0  0  0  0  0
   41.9870   24.5582   36.0658 H   0  0  0  0  0  0  0  0  0  0  0  0
   40.7214   24.8393   34.8205 H   0  0  0  0  0  0  0  0  0  0  0  0
  1  6  2  0
  2  3  2  0
  2  1  1  0
  3  4  1  0
  4  5  2  0
  6  5  1  0
  7  2  1  0
  8  7  1  0
  9 10  1  0
  9  8  2  0
 10 11  2  0
 11  7  1  0
 12  3  1  0
 13 14  1  0
 13 12  1  0
 15 14  1  0
 16 15  1  0
 16 17  1  0
 17 12  1  0
  1 18  1  0
  5 19  1  0
  8 20  1  0
 10 21  1  0
 13 22  1  0
 13 23  1  0
 14 24  1  0
 14 25  1  0
 15 26  1  0
 16 27  1  0
 16 28  1  0
 17 29  1  0
 17 30  1  0
M  ISO  8  18  14  19  14  20  14  21  14  22  13  23  13  24  13  25  13
M  ISO  5  26   5  27  13  28  13  29  13  30  13
M  END
>  <minimizedAffinity>  (1) 
-3.61489463

>  <minimizedRMSD>  (1) 
1.86106205

$$$$
