
     RDKit          3D

 23 25  0  0  0  0  0  0  0  0999 V2000
   37.4230   23.4190   37.0070 C   0  0  0  0  0  0  0  0  0  0  0  0
   38.5760   23.1250   36.2430 C   0  0  0  0  0  0  0  0  0  0  0  0
   39.7580   23.0080   36.9190 C   0  0  0  0  0  0  0  0  0  0  0  0
   39.8010   23.1730   38.2530 N   0  0  0  0  0  0  0  0  0  0  0  0
   38.6740   23.4540   38.9570 C   0  0  0  0  0  0  0  0  0  0  0  0
   37.4770   23.5770   38.3300 N   0  0  0  0  0  0  0  0  0  0  0  0
   38.3870   23.0010   34.8600 N   0  0  0  0  0  0  0  0  0  0  0  0
   38.3860   23.9250   33.8390 C   0  0  0  0  0  0  0  0  0  0  0  0
   38.1480   23.2970   32.6740 N   0  0  0  0  0  0  0  0  0  0  0  0
   37.9960   21.9540   32.9760 C   0  0  0  0  0  0  0  0  0  0  0  0
   38.1470   21.7840   34.3330 N   0  0  0  0  0  0  0  0  0  0  0  0
   40.9840   22.5870   36.2790 C   0  0  0  0  0  0  0  0  0  0  0  0
   41.7210   21.4210   36.6000 C   0  0  0  0  0  0  0  0  0  0  0  0
   42.8500   21.1700   35.9240 C   0  0  0  0  0  0  0  0  0  0  0  0
   43.3180   22.0970   34.8610 C   0  0  0  0  0  0  0  0  0  0  0  0
   41.9990   23.3560   34.9150 S   0  0  0  0  0  0  0  0  0  0  0  0
   36.4544   23.5202   36.4956 H   0  0  0  0  0  0  0  0  0  0  0  0
   38.7323   23.5833   40.0478 H   0  0  0  0  0  0  0  0  0  0  0  0
   38.5534   25.0057   33.9576 H   0  0  0  0  0  0  0  0  0  0  0  0
   37.7885   21.1542   32.2499 H   0  0  0  0  0  0  0  0  0  0  0  0
   41.3738   20.7361   37.3876 H   0  0  0  0  0  0  0  0  0  0  0  0
   43.4362   20.2691   36.1580 H   0  0  0  0  0  0  0  0  0  0  0  0
   44.2105   22.0399   34.2205 H   0  0  0  0  0  0  0  0  0  0  0  0
  1  6  2  0
  2  3  2  0
  2  1  1  0
  3  4  1  0
  4  5  2  0
  6  5  1  0
  7  2  1  0
  8  7  1  0
  9 10  1  0
  9  8  2  0
 10 11  2  0
 11  7  1  0
 12 13  2  0
 12  3  1  0
 14 13  1  0
 15 16  1  0
 15 14  2  0
 16 12  1  0
  1 17  1  0
  5 18  1  0
  8 19  1  0
 10 20  1  0
 13 21  1  0
 14 22  1  0
 15 23  1  0
M  ISO  7  17  14  18  14  19  14  20  14  21  14  22  14  23  14
M  END
>  <minimizedAffinity>  (1) 
-3.56657434

>  <minimizedRMSD>  (1) 
1.9613862

$$$$
