
     RDKit          3D

 48 51  0  0  0  0  0  0  0  0999 V2000
   38.6730   23.5540   37.0140 C   0  0  0  0  0  0  0  0  0  0  0  0
   41.9320   21.6980   36.9160 C   0  0  0  0  0  0  0  0  0  0  0  0
   40.6290   22.0190   37.2470 C   0  0  0  0  0  0  0  0  0  0  0  0
   40.0320   23.1570   36.7110 C   0  0  0  0  0  0  0  0  0  0  0  0
   40.7770   23.9160   35.8670 N   0  0  0  0  0  0  0  0  0  0  0  0
   42.0520   23.5900   35.5500 C   0  0  0  0  0  0  0  0  0  0  0  0
   42.6230   22.4790   36.0790 N   0  0  0  0  0  0  0  0  0  0  0  0
   42.5310   20.4640   37.5180 C   0  0  0  0  0  0  0  0  0  0  0  0
   43.2090   19.6000   36.5240 C   0  0  0  0  0  0  0  0  0  0  0  0
   38.4380   23.2930   38.5010 C   0  0  0  0  0  0  0  0  0  0  0  0
   38.3430   24.9800   36.6650 C   0  0  0  0  0  0  0  0  0  0  0  0
   37.7130   22.6580   36.2370 C   0  0  0  0  0  0  0  0  0  0  0  0
   37.8600   22.7930   34.8230 N   0  0  0  0  0  0  0  0  0  0  0  0
   38.0630   21.8420   33.8820 C   0  0  0  0  0  0  0  0  0  0  0  0
   38.1410   22.4440   32.6520 N   0  0  0  0  0  0  0  0  0  0  0  0
   37.9850   23.7630   32.8530 C   0  0  0  0  0  0  0  0  0  0  0  0
   37.8180   23.9490   34.1580 N   0  0  0  0  0  0  0  0  0  0  0  0
   37.9960   24.7920   31.8170 C   0  0  0  0  0  0  0  0  0  0  0  0
   38.4320   24.6410   30.5130 C   0  0  0  0  0  0  0  0  0  0  0  0
   38.2730   25.8330   29.8870 N   0  0  0  0  0  0  0  0  0  0  0  0
   37.7490   26.7410   30.7570 C   0  0  0  0  0  0  0  0  0  0  0  0
   37.3920   28.0820   30.6500 C   0  0  0  0  0  0  0  0  0  0  0  0
   36.8710   28.7100   31.7790 C   0  0  0  0  0  0  0  0  0  0  0  0
   36.7020   28.0520   32.9790 C   0  0  0  0  0  0  0  0  0  0  0  0
   37.0560   26.7240   33.0840 C   0  0  0  0  0  0  0  0  0  0  0  0
   37.5730   26.0970   31.9670 C   0  0  0  0  0  0  0  0  0  0  0  0
   40.0626   21.3743   37.9351 H   0  0  0  0  0  0  0  0  0  0  0  0
   42.6264   24.2275   34.8618 H   0  0  0  0  0  0  0  0  0  0  0  0
   43.2668   20.7672   38.2774 H   0  0  0  0  0  0  0  0  0  0  0  0
   41.7069   19.8787   37.9518 H   0  0  0  0  0  0  0  0  0  0  0  0
   43.8064   18.8387   37.0469 H   0  0  0  0  0  0  0  0  0  0  0  0
   42.4554   19.1054   35.8935 H   0  0  0  0  0  0  0  0  0  0  0  0
   43.8686   20.2143   35.8935 H   0  0  0  0  0  0  0  0  0  0  0  0
   39.0570   23.9804   39.0962 H   0  0  0  0  0  0  0  0  0  0  0  0
   37.3765   23.4563   38.7387 H   0  0  0  0  0  0  0  0  0  0  0  0
   38.7114   22.2544   38.7387 H   0  0  0  0  0  0  0  0  0  0  0  0
   38.2084   25.5618   37.5888 H   0  0  0  0  0  0  0  0  0  0  0  0
   39.1647   25.4128   36.0756 H   0  0  0  0  0  0  0  0  0  0  0  0
   37.4147   25.0078   36.0756 H   0  0  0  0  0  0  0  0  0  0  0  0
   37.9065   21.6110   36.5131 H   0  0  0  0  0  0  0  0  0  0  0  0
   36.6884   22.9628   36.4964 H   0  0  0  0  0  0  0  0  0  0  0  0
   38.1511   20.7622   34.0724 H   0  0  0  0  0  0  0  0  0  0  0  0
   38.8347   23.7206   30.0651 H   0  0  0  0  0  0  0  0  0  0  0  0
   38.5120   26.0232   28.9033 H   0  0  0  0  0  0  0  0  0  0  0  0
   37.5173   28.6287   29.7037 H   0  0  0  0  0  0  0  0  0  0  0  0
   36.5839   29.7697   31.7108 H   0  0  0  0  0  0  0  0  0  0  0  0
   36.2869   28.5840   33.8477 H   0  0  0  0  0  0  0  0  0  0  0  0
   36.9303   26.1786   34.0310 H   0  0  0  0  0  0  0  0  0  0  0  0
  1 10  1  0
  2  3  2  0
  2  8  1  0
  4  1  1  0
  4  3  1  0
  5  4  2  0
  6  5  1  0
  6  7  2  0
  7  2  1  0
  9  8  1  0
 11  1  1  0
 12  1  1  0
 13 12  1  0
 14 13  1  0
 15 16  1  0
 15 14  2  0
 16 17  2  0
 17 13  1  0
 18 26  1  0
 18 16  1  0
 19 18  2  0
 20 19  1  0
 20 21  1  0
 21 26  2  0
 22 21  1  0
 22 23  2  0
 23 24  1  0
 24 25  2  0
 26 25  1  0
  3 27  1  0
  6 28  1  0
  8 29  1  0
  8 30  1  0
  9 31  1  0
  9 32  1  0
  9 33  1  0
 10 34  1  0
 10 35  1  0
 10 36  1  0
 11 37  1  0
 11 38  1  0
 11 39  1  0
 12 40  1  0
 12 41  1  0
 14 42  1  0
 19 43  1  0
 20 44  1  0
 22 45  1  0
 23 46  1  0
 24 47  1  0
 25 48  1  0
M  ISO  8  27  14  28  14  29   8  30   8  31   8  32   8  33   8  34   8
M  ISO  8  35   8  36   8  37   8  38   8  39   8  40   8  41   8  42  14
M  ISO  6  43  14  44   9  45  14  46  14  47  14  48  14
M  END
>  <minimizedAffinity>  (1) 
-5.60444069

>  <minimizedRMSD>  (1) 
0.710246921

$$$$
