
     RDKit          3D

 17 18  0  0  0  0  0  0  0  0999 V2000
   37.4510   23.5760   37.0490 C   0  0  0  0  0  0  0  0  0  0  0  0
   38.4130   23.1030   36.1380 C   0  0  0  0  0  0  0  0  0  0  0  0
   39.6660   22.7500   36.6120 C   0  0  0  0  0  0  0  0  0  0  0  0
   39.9230   22.8740   37.9380 N   0  0  0  0  0  0  0  0  0  0  0  0
   38.9830   23.3310   38.7980 C   0  0  0  0  0  0  0  0  0  0  0  0
   37.7550   23.6770   38.3400 N   0  0  0  0  0  0  0  0  0  0  0  0
   38.0070   23.0240   34.7730 N   0  0  0  0  0  0  0  0  0  0  0  0
   38.0650   23.9310   33.7500 C   0  0  0  0  0  0  0  0  0  0  0  0
   37.5380   23.3400   32.6430 N   0  0  0  0  0  0  0  0  0  0  0  0
   37.1640   22.0870   32.9920 C   0  0  0  0  0  0  0  0  0  0  0  0
   37.4570   21.8990   34.3110 N   0  0  0  0  0  0  0  0  0  0  0  0
   40.8620   22.1540   35.4250 S   0  0  0  0  0  0  0  0  0  0  0  0
   36.4496   23.8617   36.6945 H   0  0  0  0  0  0  0  0  0  0  0  0
   39.2157   23.4217   39.8693 H   0  0  0  0  0  0  0  0  0  0  0  0
   38.4655   24.9537   33.8113 H   0  0  0  0  0  0  0  0  0  0  0  0
   36.7016   21.3450   32.3244 H   0  0  0  0  0  0  0  0  0  0  0  0
   41.9353   21.6191   36.0874 H   0  0  0  0  0  0  0  0  0  0  0  0
  1  6  2  0
  2  3  2  0
  2  1  1  0
  3  4  1  0
  4  5  2  0
  6  5  1  0
  7  2  1  0
  8  7  1  0
  9 10  1  0
  9  8  2  0
 10 11  2  0
 11  7  1  0
 12  3  1  0
  1 13  1  0
  5 14  1  0
  8 15  1  0
 10 16  1  0
 12 17  1  0
M  ISO  5  13  14  14  14  15  14  16  14  17  11
M  END
>  <minimizedAffinity>  (1) 
-3.37319422

>  <minimizedRMSD>  (1) 
1.47019875

$$$$
