
     RDKit          3D

 37 41  0  0  0  0  0  0  0  0999 V2000
   39.8180   24.3160   34.6240 N   0  0  0  0  0  0  0  0  0  0  0  0
   40.8990   23.8890   33.9800 N   0  0  0  0  0  0  0  0  0  0  0  0
   41.4200   24.8480   33.2140 C   0  0  0  0  0  0  0  0  0  0  0  0
   40.6340   25.9610   33.3710 C   0  0  0  0  0  0  0  0  0  0  0  0
   39.6370   25.6090   34.2550 C   0  0  0  0  0  0  0  0  0  0  0  0
   38.6700   26.6310   34.5830 N   0  0  0  0  0  0  0  0  0  0  0  0
   38.4320   27.4390   35.6300 C   0  0  0  0  0  0  0  0  0  0  0  0
   37.3570   28.1960   35.3400 N   0  0  0  0  0  0  0  0  0  0  0  0
   36.9080   27.8770   34.1130 C   0  0  0  0  0  0  0  0  0  0  0  0
   35.8360   28.3970   33.4150 C   0  0  0  0  0  0  0  0  0  0  0  0
   35.0860   29.3010   33.8640 O   0  0  0  0  0  0  0  0  0  0  0  0
   35.5530   27.9330   32.1850 N   0  0  0  0  0  0  0  0  0  0  0  0
   36.3650   26.9640   31.7170 C   0  0  0  0  0  0  0  0  0  0  0  0
   36.2310   26.3360   30.4260 N   0  0  0  0  0  0  0  0  0  0  0  0
   37.4120   26.4480   32.3860 N   0  0  0  0  0  0  0  0  0  0  0  0
   37.7350   26.8850   33.6260 C   0  0  0  0  0  0  0  0  0  0  0  0
   37.1240   22.1690   35.9200 C   0  0  0  0  0  0  0  0  0  0  0  0
   38.0320   22.7740   35.0230 C   0  0  0  0  0  0  0  0  0  0  0  0
   38.9110   23.7170   35.5390 C   0  0  0  0  0  0  0  0  0  0  0  0
   38.8570   24.0080   36.8710 N   0  0  0  0  0  0  0  0  0  0  0  0
   37.9890   23.4190   37.6860 C   0  0  0  0  0  0  0  0  0  0  0  0
   37.1150   22.4930   37.2140 N   0  0  0  0  0  0  0  0  0  0  0  0
   37.9560   22.3600   33.6870 N   0  0  0  0  0  0  0  0  0  0  0  0
   37.2570   22.8770   32.6320 C   0  0  0  0  0  0  0  0  0  0  0  0
   37.5020   22.1270   31.5230 N   0  0  0  0  0  0  0  0  0  0  0  0
   38.3600   21.1420   31.9120 C   0  0  0  0  0  0  0  0  0  0  0  0
   38.6170   21.3150   33.2390 N   0  0  0  0  0  0  0  0  0  0  0  0
   42.3122   24.7626   32.5762 H   0  0  0  0  0  0  0  0  0  0  0  0
   40.7719   26.9395   32.8877 H   0  0  0  0  0  0  0  0  0  0  0  0
   39.0145   27.4756   36.5624 H   0  0  0  0  0  0  0  0  0  0  0  0
   34.7628   28.2964   31.6332 H   0  0  0  0  0  0  0  0  0  0  0  0
   36.8931   25.6008   30.1397 H   0  0  0  0  0  0  0  0  0  0  0  0
   35.4732   26.6226   29.7900 H   0  0  0  0  0  0  0  0  0  0  0  0
   36.4126   21.4183   35.5454 H   0  0  0  0  0  0  0  0  0  0  0  0
   37.9781   23.6839   38.7536 H   0  0  0  0  0  0  0  0  0  0  0  0
   36.6009   23.7589   32.6729 H   0  0  0  0  0  0  0  0  0  0  0  0
   38.7713   20.3493   31.2698 H   0  0  0  0  0  0  0  0  0  0  0  0
  1 19  1  0
  2  1  1  0
  3  4  1  0
  3  2  2  0
  4  5  2  0
  5  6  1  0
  5  1  1  0
  6  7  1  0
  8  7  2  0
  9  8  1  0
 10 11  2  0
 10  9  1  0
 12 10  1  0
 13 12  1  0
 13 15  2  0
 14 13  1  0
 15 16  1  0
 16  9  2  0
 16  6  1  0
 17 22  2  0
 18 19  2  0
 18 17  1  0
 19 20  1  0
 20 21  2  0
 22 21  1  0
 23 18  1  0
 24 23  1  0
 25 26  1  0
 25 24  2  0
 26 27  2  0
 27 23  1  0
  3 28  1  0
  4 29  1  0
  7 30  1  0
 12 31  1  0
 14 32  1  0
 14 33  1  0
 17 34  1  0
 21 35  1  0
 24 36  1  0
 26 37  1  0
M  ISO  8  28  14  29  14  30  14  31   9  34  14  35  14  36  14  37  14
M  END
>  <minimizedAffinity>  (1) 
-5.2744441

>  <minimizedRMSD>  (1) 
2.97489572

$$$$
