
     RDKit          3D

 39 42  0  0  0  0  0  0  0  0999 V2000
   37.4470   23.0510   36.8520 C   0  0  0  0  0  0  0  0  0  0  0  0
   38.3150   22.7340   35.7750 C   0  0  0  0  0  0  0  0  0  0  0  0
   39.6750   22.6810   36.0550 C   0  0  0  0  0  0  0  0  0  0  0  0
   40.1010   22.9320   37.3210 N   0  0  0  0  0  0  0  0  0  0  0  0
   39.2530   23.2290   38.3140 C   0  0  0  0  0  0  0  0  0  0  0  0
   37.9260   23.2880   38.0760 N   0  0  0  0  0  0  0  0  0  0  0  0
   37.7100   22.5050   34.5340 N   0  0  0  0  0  0  0  0  0  0  0  0
   37.6590   23.2840   33.4160 C   0  0  0  0  0  0  0  0  0  0  0  0
   36.9570   22.6450   32.4560 N   0  0  0  0  0  0  0  0  0  0  0  0
   36.5730   21.4530   33.0010 C   0  0  0  0  0  0  0  0  0  0  0  0
   37.0500   21.3980   34.2790 N   0  0  0  0  0  0  0  0  0  0  0  0
   40.5400   22.3610   34.9640 N   0  0  0  0  0  0  0  0  0  0  0  0
   40.8400   21.2130   34.3430 N   0  0  0  0  0  0  0  0  0  0  0  0
   41.7110   21.4190   33.3690 C   0  0  0  0  0  0  0  0  0  0  0  0
   41.9910   22.7510   33.3500 C   0  0  0  0  0  0  0  0  0  0  0  0
   41.2450   23.3400   34.3650 C   0  0  0  0  0  0  0  0  0  0  0  0
   41.3800   24.8180   34.5500 C   0  0  0  0  0  0  0  0  0  0  0  0
   42.5050   25.3440   33.6460 C   0  0  0  0  0  0  0  0  0  0  0  0
   42.7520   26.7570   34.1310 C   0  0  0  0  0  0  0  0  0  0  0  0
   41.5720   27.5480   33.5990 C   0  0  0  0  0  0  0  0  0  0  0  0
   40.2600   26.9870   33.9960 C   0  0  0  0  0  0  0  0  0  0  0  0
   40.1420   25.5110   34.0900 C   0  0  0  0  0  0  0  0  0  0  0  0
   36.3624   23.1023   36.6759 H   0  0  0  0  0  0  0  0  0  0  0  0
   39.6388   23.4252   39.3253 H   0  0  0  0  0  0  0  0  0  0  0  0
   38.1183   24.2782   33.3124 H   0  0  0  0  0  0  0  0  0  0  0  0
   35.9824   20.6732   32.4979 H   0  0  0  0  0  0  0  0  0  0  0  0
   42.1314   20.6551   32.6983 H   0  0  0  0  0  0  0  0  0  0  0  0
   42.6780   23.2647   32.6614 H   0  0  0  0  0  0  0  0  0  0  0  0
   41.5762   25.0071   35.6157 H   0  0  0  0  0  0  0  0  0  0  0  0
   42.1890   25.3443   32.5924 H   0  0  0  0  0  0  0  0  0  0  0  0
   43.4094   24.7200   33.6978 H   0  0  0  0  0  0  0  0  0  0  0  0
   42.7809   26.7922   35.2301 H   0  0  0  0  0  0  0  0  0  0  0  0
   43.7164   27.1573   33.7850 H   0  0  0  0  0  0  0  0  0  0  0  0
   41.6277   27.5607   32.5005 H   0  0  0  0  0  0  0  0  0  0  0  0
   41.6371   28.5577   34.0306 H   0  0  0  0  0  0  0  0  0  0  0  0
   40.0114   27.4003   34.9846 H   0  0  0  0  0  0  0  0  0  0  0  0
   39.5781   27.2695   33.1804 H   0  0  0  0  0  0  0  0  0  0  0  0
   39.3337   25.2757   34.7980 H   0  0  0  0  0  0  0  0  0  0  0  0
   39.9416   25.1484   33.0710 H   0  0  0  0  0  0  0  0  0  0  0  0
  1  6  2  0
  2  3  2  0
  2  1  1  0
  3  4  1  0
  4  5  2  0
  6  5  1  0
  7  2  1  0
  8  7  1  0
  9 10  1  0
  9  8  2  0
 10 11  2  0
 11  7  1  0
 12  3  1  0
 13 12  1  0
 14 13  2  0
 15 14  1  0
 15 16  2  0
 16 17  1  0
 16 12  1  0
 18 19  1  0
 18 17  1  0
 20 21  1  0
 20 19  1  0
 21 22  1  0
 22 17  1  0
  1 23  1  0
  5 24  1  0
  8 25  1  0
 10 26  1  0
 14 27  1  0
 15 28  1  0
 17 29  1  0
 18 30  1  0
 18 31  1  0
 19 32  1  0
 19 33  1  0
 20 34  1  0
 20 35  1  0
 21 36  1  0
 21 37  1  0
 22 38  1  0
 22 39  1  0
M  ISO  8  23  14  24  14  25  14  26  14  27  14  28  14  29  13  30  13
M  ISO  8  31  13  32  13  33  13  34  13  35  13  36  13  37  13  38  13
M  ISO  1  39  13
M  END
>  <minimizedAffinity>  (1) 
-4.14263153

>  <minimizedRMSD>  (1) 
1.0069102

$$$$
