
     RDKit          3D

 26 28  0  0  0  0  0  0  0  0999 V2000
   37.4040   23.1940   36.9440 C   0  0  0  0  0  0  0  0  0  0  0  0
   38.3810   22.9760   35.9410 C   0  0  0  0  0  0  0  0  0  0  0  0
   39.7090   22.9200   36.3330 C   0  0  0  0  0  0  0  0  0  0  0  0
   40.0200   23.0730   37.6450 N   0  0  0  0  0  0  0  0  0  0  0  0
   39.0710   23.2780   38.5700 C   0  0  0  0  0  0  0  0  0  0  0  0
   37.7720   23.3380   38.2230 N   0  0  0  0  0  0  0  0  0  0  0  0
   37.8880   22.8380   34.6310 N   0  0  0  0  0  0  0  0  0  0  0  0
   37.8230   23.7330   33.5980 C   0  0  0  0  0  0  0  0  0  0  0  0
   37.2600   23.1200   32.5310 N   0  0  0  0  0  0  0  0  0  0  0  0
   36.9780   21.8410   32.9160 C   0  0  0  0  0  0  0  0  0  0  0  0
   37.3740   21.6950   34.2090 N   0  0  0  0  0  0  0  0  0  0  0  0
   40.6600   22.7000   35.3060 N   0  0  0  0  0  0  0  0  0  0  0  0
   41.1370   21.6360   34.6910 N   0  0  0  0  0  0  0  0  0  0  0  0
   42.0380   21.9480   33.7710 C   0  0  0  0  0  0  0  0  0  0  0  0
   42.1670   23.3000   33.7740 C   0  0  0  0  0  0  0  0  0  0  0  0
   41.3010   23.7540   34.7350 C   0  0  0  0  0  0  0  0  0  0  0  0
   41.1730   25.1980   35.0170 C   0  0  0  0  0  0  0  0  0  0  0  0
   40.1200   25.8430   35.0930 O   0  0  0  0  0  0  0  0  0  0  0  0
   42.2220   26.0500   35.2400 O   0  0  0  0  0  0  0  0  0  0  0  0
   36.3397   23.2451   36.6707 H   0  0  0  0  0  0  0  0  0  0  0  0
   39.3577   23.3986   39.6251 H   0  0  0  0  0  0  0  0  0  0  0  0
   38.1703   24.7763   33.6296 H   0  0  0  0  0  0  0  0  0  0  0  0
   36.5124   21.0650   32.2906 H   0  0  0  0  0  0  0  0  0  0  0  0
   42.5809   21.2427   33.1246 H   0  0  0  0  0  0  0  0  0  0  0  0
   42.8291   23.9053   33.1374 H   0  0  0  0  0  0  0  0  0  0  0  0
   42.0514   27.0079   35.4228 H   0  0  0  0  0  0  0  0  0  0  0  0
  1  6  2  0
  2  3  2  0
  2  1  1  0
  3  4  1  0
  4  5  2  0
  6  5  1  0
  7  2  1  0
  8  7  1  0
  9 10  1  0
  9  8  2  0
 10 11  2  0
 11  7  1  0
 12  3  1  0
 13 12  1  0
 14 15  1  0
 14 13  2  0
 15 16  2  0
 16 17  1  0
 16 12  1  0
 17 18  2  0
 17 19  1  0
  1 20  1  0
  5 21  1  0
  8 22  1  0
 10 23  1  0
 14 24  1  0
 15 25  1  0
 19 26  1  0
M  ISO  7  20  14  21  14  22  14  23  14  24  14  25  14  26   3
M  END
>  <minimizedAffinity>  (1) 
-3.97543073

>  <minimizedRMSD>  (1) 
0.452920467

$$$$
