
     RDKit          3D

 30 33  0  0  0  0  0  0  0  0999 V2000
   37.6150   22.9570   36.5170 C   0  0  0  0  0  0  0  0  0  0  0  0
   38.3860   22.6950   35.3680 C   0  0  0  0  0  0  0  0  0  0  0  0
   39.7500   22.6170   35.5240 C   0  0  0  0  0  0  0  0  0  0  0  0
   40.2990   22.7930   36.7640 N   0  0  0  0  0  0  0  0  0  0  0  0
   39.5320   23.0400   37.8290 C   0  0  0  0  0  0  0  0  0  0  0  0
   38.1950   23.1220   37.7040 N   0  0  0  0  0  0  0  0  0  0  0  0
   37.6820   22.5350   34.1650 N   0  0  0  0  0  0  0  0  0  0  0  0
   37.4760   23.3860   33.1160 C   0  0  0  0  0  0  0  0  0  0  0  0
   36.7210   22.7570   32.1840 N   0  0  0  0  0  0  0  0  0  0  0  0
   36.4620   21.5170   32.6580 C   0  0  0  0  0  0  0  0  0  0  0  0
   37.0600   21.4030   33.8730 N   0  0  0  0  0  0  0  0  0  0  0  0
   40.5320   22.3540   34.3510 N   0  0  0  0  0  0  0  0  0  0  0  0
   40.8400   21.2260   33.6980 N   0  0  0  0  0  0  0  0  0  0  0  0
   41.6010   21.4710   32.6460 C   0  0  0  0  0  0  0  0  0  0  0  0
   41.8060   22.8100   32.6020 C   0  0  0  0  0  0  0  0  0  0  0  0
   41.1260   23.3610   33.6840 C   0  0  0  0  0  0  0  0  0  0  0  0
   41.0880   24.7840   34.0040 C   0  0  0  0  0  0  0  0  0  0  0  0
   40.2270   25.7220   33.4730 C   0  0  0  0  0  0  0  0  0  0  0  0
   40.4910   26.9590   34.0160 C   0  0  0  0  0  0  0  0  0  0  0  0
   41.5190   26.7590   34.8810 N   0  0  0  0  0  0  0  0  0  0  0  0
   41.8610   25.4730   34.8640 N   0  0  0  0  0  0  0  0  0  0  0  0
   36.5204   23.0262   36.4328 H   0  0  0  0  0  0  0  0  0  0  0  0
   39.9971   23.1775   38.8163 H   0  0  0  0  0  0  0  0  0  0  0  0
   37.8605   24.4139   33.0408 H   0  0  0  0  0  0  0  0  0  0  0  0
   35.8724   20.7393   32.1505 H   0  0  0  0  0  0  0  0  0  0  0  0
   41.9947   20.7269   31.9379 H   0  0  0  0  0  0  0  0  0  0  0  0
   42.3975   23.3573   31.8533 H   0  0  0  0  0  0  0  0  0  0  0  0
   39.4461   25.5127   32.7271 H   0  0  0  0  0  0  0  0  0  0  0  0
   39.9787   27.9073   33.7963 H   0  0  0  0  0  0  0  0  0  0  0  0
   41.9633   27.4871   35.4584 H   0  0  0  0  0  0  0  0  0  0  0  0
  1  6  2  0
  2  3  2  0
  2  1  1  0
  3  4  1  0
  4  5  2  0
  6  5  1  0
  7  2  1  0
  8  7  1  0
  9 10  1  0
  9  8  2  0
 10 11  2  0
 11  7  1  0
 12  3  1  0
 13 12  1  0
 14 13  2  0
 15 14  1  0
 15 16  2  0
 16 17  1  0
 16 12  1  0
 17 21  2  0
 18 17  1  0
 18 19  2  0
 19 20  1  0
 21 20  1  0
  1 22  1  0
  5 23  1  0
  8 24  1  0
 10 25  1  0
 14 26  1  0
 15 27  1  0
 18 28  1  0
 19 29  1  0
 20 30  1  0
M  ISO  8  22  14  23  14  24  14  25  14  26  14  27  14  28  14  29  14
M  ISO  1  30   9
M  END
>  <minimizedAffinity>  (1) 
-3.99389315

>  <minimizedRMSD>  (1) 
1.48431826

$$$$
