
     RDKit          3D

 30 33  0  0  0  0  0  0  0  0999 V2000
   37.3220   23.0740   36.9610 C   0  0  0  0  0  0  0  0  0  0  0  0
   38.3070   22.8120   35.9930 C   0  0  0  0  0  0  0  0  0  0  0  0
   39.6300   22.8120   36.4240 C   0  0  0  0  0  0  0  0  0  0  0  0
   39.9130   23.0630   37.7420 N   0  0  0  0  0  0  0  0  0  0  0  0
   38.9310   23.3080   38.6210 C   0  0  0  0  0  0  0  0  0  0  0  0
   37.6320   23.3130   38.2290 N   0  0  0  0  0  0  0  0  0  0  0  0
   37.8700   22.5670   34.6880 N   0  0  0  0  0  0  0  0  0  0  0  0
   37.7590   23.3880   33.6050 C   0  0  0  0  0  0  0  0  0  0  0  0
   37.2780   22.6590   32.5580 N   0  0  0  0  0  0  0  0  0  0  0  0
   37.0970   21.3890   33.0130 C   0  0  0  0  0  0  0  0  0  0  0  0
   37.4650   21.3620   34.3120 N   0  0  0  0  0  0  0  0  0  0  0  0
   40.6370   22.5560   35.4340 N   0  0  0  0  0  0  0  0  0  0  0  0
   41.2360   21.4230   35.0440 N   0  0  0  0  0  0  0  0  0  0  0  0
   42.1210   21.6620   34.0910 C   0  0  0  0  0  0  0  0  0  0  0  0
   42.0920   22.9950   33.8580 C   0  0  0  0  0  0  0  0  0  0  0  0
   41.1460   23.5670   34.7120 C   0  0  0  0  0  0  0  0  0  0  0  0
   40.9190   25.0080   34.6550 C   0  0  0  0  0  0  0  0  0  0  0  0
   41.7140   25.9900   34.1040 C   0  0  0  0  0  0  0  0  0  0  0  0
   41.1640   27.1830   34.2580 N   0  0  0  0  0  0  0  0  0  0  0  0
   40.0090   27.0230   34.9050 C   0  0  0  0  0  0  0  0  0  0  0  0
   39.8770   25.7060   35.1370 N   0  0  0  0  0  0  0  0  0  0  0  0
   36.2643   23.0811   36.6589 H   0  0  0  0  0  0  0  0  0  0  0  0
   39.1814   23.5075   39.6734 H   0  0  0  0  0  0  0  0  0  0  0  0
   38.0144   24.4577   33.5802 H   0  0  0  0  0  0  0  0  0  0  0  0
   36.7190   20.5377   32.4278 H   0  0  0  0  0  0  0  0  0  0  0  0
   42.7576   20.9209   33.5854 H   0  0  0  0  0  0  0  0  0  0  0  0
   42.7072   23.5348   33.1230 H   0  0  0  0  0  0  0  0  0  0  0  0
   42.6762   25.8063   33.6036 H   0  0  0  0  0  0  0  0  0  0  0  0
   39.3019   27.8150   35.1928 H   0  0  0  0  0  0  0  0  0  0  0  0
   39.0746   25.2830   35.6250 H   0  0  0  0  0  0  0  0  0  0  0  0
  1  6  2  0
  2  3  2  0
  2  1  1  0
  3  4  1  0
  4  5  2  0
  6  5  1  0
  7  2  1  0
  8  7  1  0
  9 10  1  0
  9  8  2  0
 10 11  2  0
 11  7  1  0
 12  3  1  0
 13 12  1  0
 14 13  2  0
 15 14  1  0
 15 16  2  0
 16 12  1  0
 17 16  1  0
 17 21  1  0
 18 19  1  0
 18 17  2  0
 19 20  2  0
 20 21  1  0
  1 22  1  0
  5 23  1  0
  8 24  1  0
 10 25  1  0
 14 26  1  0
 15 27  1  0
 18 28  1  0
 20 29  1  0
 21 30  1  0
M  ISO  8  22  14  23  14  24  14  25  14  26  14  27  14  28  14  29  14
M  ISO  1  30   9
M  END
>  <minimizedAffinity>  (1) 
-4.06293249

>  <minimizedRMSD>  (1) 
0.880414367

$$$$
