
     RDKit          3D

 24 26  0  0  0  0  0  0  0  0999 V2000
   37.4420   23.3200   37.0480 C   0  0  0  0  0  0  0  0  0  0  0  0
   38.4510   23.0850   36.0960 C   0  0  0  0  0  0  0  0  0  0  0  0
   39.7490   22.9400   36.5530 C   0  0  0  0  0  0  0  0  0  0  0  0
   39.9920   23.0290   37.8900 N   0  0  0  0  0  0  0  0  0  0  0  0
   39.0020   23.2540   38.7670 C   0  0  0  0  0  0  0  0  0  0  0  0
   37.7290   23.4000   38.3490 N   0  0  0  0  0  0  0  0  0  0  0  0
   38.0310   23.0200   34.7450 N   0  0  0  0  0  0  0  0  0  0  0  0
   37.9580   23.9820   33.7810 C   0  0  0  0  0  0  0  0  0  0  0  0
   37.4870   23.4050   32.6480 N   0  0  0  0  0  0  0  0  0  0  0  0
   37.2720   22.0970   32.9180 C   0  0  0  0  0  0  0  0  0  0  0  0
   37.6140   21.8770   34.2220 N   0  0  0  0  0  0  0  0  0  0  0  0
   40.7600   22.7020   35.5710 N   0  0  0  0  0  0  0  0  0  0  0  0
   41.2650   21.5780   35.0540 N   0  0  0  0  0  0  0  0  0  0  0  0
   42.2100   21.8880   34.1510 C   0  0  0  0  0  0  0  0  0  0  0  0
   42.3110   23.2560   34.0910 C   0  0  0  0  0  0  0  0  0  0  0  0
   41.3890   23.7440   34.9920 C   0  0  0  0  0  0  0  0  0  0  0  0
   41.2270   25.1030   35.1850 O   0  0  0  0  0  0  0  0  0  0  0  0
   36.4005   23.4396   36.7149 H   0  0  0  0  0  0  0  0  0  0  0  0
   39.2321   23.3202   39.8406 H   0  0  0  0  0  0  0  0  0  0  0  0
   38.2330   25.0402   33.9015 H   0  0  0  0  0  0  0  0  0  0  0  0
   36.8897   21.3443   32.2128 H   0  0  0  0  0  0  0  0  0  0  0  0
   42.8003   21.1706   33.5620 H   0  0  0  0  0  0  0  0  0  0  0  0
   42.9892   23.8427   33.4540 H   0  0  0  0  0  0  0  0  0  0  0  0
   40.5595   25.4343   35.8367 H   0  0  0  0  0  0  0  0  0  0  0  0
  1  6  2  0
  2  3  2  0
  2  1  1  0
  3  4  1  0
  4  5  2  0
  6  5  1  0
  7  2  1  0
  8  7  1  0
  9 10  1  0
  9  8  2  0
 10 11  2  0
 11  7  1  0
 12  3  1  0
 13 12  1  0
 14 13  2  0
 15 14  1  0
 15 16  2  0
 16 17  1  0
 16 12  1  0
  1 18  1  0
  5 19  1  0
  8 20  1  0
 10 21  1  0
 14 22  1  0
 15 23  1  0
 17 24  1  0
M  ISO  7  18  14  19  14  20  14  21  14  22  14  23  14  24   3
M  END
>  <minimizedAffinity>  (1) 
-3.68990779

>  <minimizedRMSD>  (1) 
0.191845745

$$$$
