
     RDKit          3D

 24 26  0  0  0  0  0  0  0  0999 V2000
   37.3920   23.1880   36.8970 C   0  0  0  0  0  0  0  0  0  0  0  0
   38.3910   22.9830   35.9200 C   0  0  0  0  0  0  0  0  0  0  0  0
   39.7110   22.9310   36.3520 C   0  0  0  0  0  0  0  0  0  0  0  0
   39.9720   23.0780   37.6810 N   0  0  0  0  0  0  0  0  0  0  0  0
   38.9850   23.2720   38.5790 C   0  0  0  0  0  0  0  0  0  0  0  0
   37.7020   23.3250   38.1780 N   0  0  0  0  0  0  0  0  0  0  0  0
   37.9480   22.8500   34.5870 N   0  0  0  0  0  0  0  0  0  0  0  0
   37.8250   23.7920   33.5970 C   0  0  0  0  0  0  0  0  0  0  0  0
   37.3530   23.1690   32.4860 N   0  0  0  0  0  0  0  0  0  0  0  0
   37.1930   21.8620   32.8040 C   0  0  0  0  0  0  0  0  0  0  0  0
   37.5660   21.6900   34.1040 N   0  0  0  0  0  0  0  0  0  0  0  0
   40.7020   22.7250   35.3630 N   0  0  0  0  0  0  0  0  0  0  0  0
   41.2670   21.6320   34.8510 N   0  0  0  0  0  0  0  0  0  0  0  0
   42.1720   21.9660   33.9190 C   0  0  0  0  0  0  0  0  0  0  0  0
   42.1940   23.3270   33.8260 C   0  0  0  0  0  0  0  0  0  0  0  0
   41.2670   23.7790   34.7380 C   0  0  0  0  0  0  0  0  0  0  0  0
   40.9470   25.5260   34.9690 S   0  0  0  0  0  0  0  0  0  0  0  0
   36.3371   23.2348   36.5889 H   0  0  0  0  0  0  0  0  0  0  0  0
   39.2302   23.3875   39.6451 H   0  0  0  0  0  0  0  0  0  0  0  0
   38.0658   24.8615   33.6870 H   0  0  0  0  0  0  0  0  0  0  0  0
   36.8253   21.0748   32.1294 H   0  0  0  0  0  0  0  0  0  0  0  0
   42.7872   21.2668   33.3336 H   0  0  0  0  0  0  0  0  0  0  0  0
   42.8223   23.9369   33.1602 H   0  0  0  0  0  0  0  0  0  0  0  0
   40.8954   25.8076   36.3088 H   0  0  0  0  0  0  0  0  0  0  0  0
  1  6  2  0
  2  3  2  0
  2  1  1  0
  3  4  1  0
  4  5  2  0
  6  5  1  0
  7  2  1  0
  8  7  1  0
  9 10  1  0
  9  8  2  0
 10 11  2  0
 11  7  1  0
 12  3  1  0
 13 12  1  0
 14 13  2  0
 15 14  1  0
 15 16  2  0
 16 17  1  0
 16 12  1  0
  1 18  1  0
  5 19  1  0
  8 20  1  0
 10 21  1  0
 14 22  1  0
 15 23  1  0
 17 24  1  0
M  ISO  7  18  14  19  14  20  14  21  14  22  14  23  14  24  11
M  END
>  <minimizedAffinity>  (1) 
-3.54672408

>  <minimizedRMSD>  (1) 
0.381458938

$$$$
