
     RDKit          3D

 48 52  0  0  1  0  0  0  0  0999 V2000
   39.3910   25.7610   35.0420 N   0  0  0  0  0  0  0  0  0  0  0  0
   40.6580   26.0990   34.8140 N   0  0  0  0  0  0  0  0  0  0  0  0
   40.7410   26.9760   33.8130 C   0  0  0  0  0  0  0  0  0  0  0  0
   39.4770   27.2180   33.3700 C   0  0  0  0  0  0  0  0  0  0  0  0
   38.6300   26.4570   34.1390 C   0  0  0  0  0  0  0  0  0  0  0  0
   37.9550   22.7150   36.5090 C   0  0  0  0  0  0  0  0  0  0  0  0
   38.5740   23.5830   35.6000 C   0  0  0  0  0  0  0  0  0  0  0  0
   38.7600   24.8860   35.9770 C   0  0  0  0  0  0  0  0  0  0  0  0
   38.3360   25.2820   37.2160 N   0  0  0  0  0  0  0  0  0  0  0  0
   37.7490   24.4300   38.0600 C   0  0  0  0  0  0  0  0  0  0  0  0
   37.5560   23.1430   37.7080 N   0  0  0  0  0  0  0  0  0  0  0  0
   38.9550   23.0230   34.3650 N   0  0  0  0  0  0  0  0  0  0  0  0
   38.2690   22.8630   33.1930 C   0  0  0  0  0  0  0  0  0  0  0  0
   39.1060   22.2580   32.3020 N   0  0  0  0  0  0  0  0  0  0  0  0
   40.2880   22.0530   32.9220 C   0  0  0  0  0  0  0  0  0  0  0  0
   40.1670   22.5290   34.1800 N   0  0  0  0  0  0  0  0  0  0  0  0
   37.1400   26.4380   33.9530 C   0  0  2  0  0  0  0  0  0  0  0  0
   36.7650   26.2850   32.5110 C   0  0  0  0  0  0  0  0  0  0  0  0
   36.5940   27.7010   34.5860 C   0  0  0  0  0  0  0  0  0  0  0  0
   36.2290   28.7190   33.6020 C   0  0  0  0  0  0  0  0  0  0  0  0
   36.1020   28.5980   32.2370 C   0  0  0  0  0  0  0  0  0  0  0  0
   35.7500   29.5920   31.3670 C   0  0  0  0  0  0  0  0  0  0  0  0
   35.4890   30.8500   31.8730 C   0  0  0  0  0  0  0  0  0  0  0  0
   35.6030   31.0290   33.2490 C   0  0  0  0  0  0  0  0  0  0  0  0
   35.3440   32.2820   33.7630 C   0  0  0  0  0  0  0  0  0  0  0  0
   35.4280   32.5610   35.1060 C   0  0  0  0  0  0  0  0  0  0  0  0
   35.7890   31.5400   35.9920 C   0  0  0  0  0  0  0  0  0  0  0  0
   36.0400   30.3000   35.4400 C   0  0  0  0  0  0  0  0  0  0  0  0
   35.9610   30.0010   34.0960 C   0  0  0  0  0  0  0  0  0  0  0  0
   41.6645   27.4233   33.4167 H   0  0  0  0  0  0  0  0  0  0  0  0
   39.1884   27.8943   32.5518 H   0  0  0  0  0  0  0  0  0  0  0  0
   37.7953   21.6632   36.2295 H   0  0  0  0  0  0  0  0  0  0  0  0
   37.4206   24.7807   39.0495 H   0  0  0  0  0  0  0  0  0  0  0  0
   37.2292   23.1674   33.0029 H   0  0  0  0  0  0  0  0  0  0  0  0
   41.1823   21.5856   32.4842 H   0  0  0  0  0  0  0  0  0  0  0  0
   36.6920   25.5635   34.4475 H   0  0  0  0  0  0  0  0  0  0  0  0
   35.7487   25.8704   32.4384 H   0  0  0  0  0  0  0  0  0  0  0  0
   36.7961   27.2677   32.0178 H   0  0  0  0  0  0  0  0  0  0  0  0
   37.4747   25.6045   32.0178 H   0  0  0  0  0  0  0  0  0  0  0  0
   35.6993   27.4418   35.1712 H   0  0  0  0  0  0  0  0  0  0  0  0
   37.3888   28.1233   35.2184 H   0  0  0  0  0  0  0  0  0  0  0  0
   36.3029   27.6067   31.8047 H   0  0  0  0  0  0  0  0  0  0  0  0
   35.6763   29.3940   30.2875 H   0  0  0  0  0  0  0  0  0  0  0  0
   35.2012   31.6812   31.2124 H   0  0  0  0  0  0  0  0  0  0  0  0
   35.0593   33.0889   33.0718 H   0  0  0  0  0  0  0  0  0  0  0  0
   35.2143   33.5734   35.4794 H   0  0  0  0  0  0  0  0  0  0  0  0
   35.8688   31.7167   37.0748 H   0  0  0  0  0  0  0  0  0  0  0  0
   36.3250   29.4877   36.1248 H   0  0  0  0  0  0  0  0  0  0  0  0
  1  8  1  0
  2  1  1  0
  3  2  2  0
  4  3  1  0
  4  5  2  0
  5  1  1  0
  6 11  2  0
  7  8  2  0
  7  6  1  0
  8  9  1  0
  9 10  2  0
 11 10  1  0
 12  7  1  0
 13 12  1  0
 14 15  1  0
 14 13  2  0
 15 16  2  0
 16 12  1  0
 17  5  1  0
 17 19  1  0
 18 17  1  0
 20 29  1  0
 20 19  1  0
 21 20  2  0
 22 23  2  0
 22 21  1  0
 23 24  1  0
 24 25  1  0
 24 29  2  0
 25 26  2  0
 26 27  1  0
 28 27  2  0
 29 28  1  0
  3 30  1  0
  4 31  1  0
  6 32  1  0
 10 33  1  0
 13 34  1  0
 15 35  1  0
 17 36  1  1
 18 37  1  0
 18 38  1  0
 18 39  1  0
 19 40  1  0
 19 41  1  0
 21 42  1  0
 22 43  1  0
 23 44  1  0
 25 45  1  0
 26 46  1  0
 27 47  1  0
 28 48  1  0
M  ISO  8  30  14  31  14  32  14  33  14  34  14  35  14  36   8  37   8
M  ISO  8  38   8  39   8  40   8  41   8  42  14  43  14  44  14  45  14
M  ISO  3  46  14  47  14  48  14
M  END
>  <minimizedAffinity>  (1) 
-5.92238235

>  <minimizedRMSD>  (1) 
1.65681827

$$$$
