
     RDKit          3D

 43 47  0  0  1  0  0  0  0  0999 V2000
   39.1870   24.2250   33.3410 N   0  0  0  0  0  0  0  0  0  0  0  0
   40.4250   24.1130   32.8510 N   0  0  0  0  0  0  0  0  0  0  0  0
   40.5260   24.6980   31.6640 C   0  0  0  0  0  0  0  0  0  0  0  0
   39.3010   25.2190   31.3570 C   0  0  0  0  0  0  0  0  0  0  0  0
   38.4620   24.9140   32.4220 C   0  0  0  0  0  0  0  0  0  0  0  0
   37.4570   22.0740   35.7650 C   0  0  0  0  0  0  0  0  0  0  0  0
   38.0710   22.5160   34.5790 C   0  0  0  0  0  0  0  0  0  0  0  0
   38.5700   23.7900   34.5400 C   0  0  0  0  0  0  0  0  0  0  0  0
   38.4480   24.5760   35.6600 N   0  0  0  0  0  0  0  0  0  0  0  0
   37.8620   24.1360   36.7740 C   0  0  0  0  0  0  0  0  0  0  0  0
   37.3660   22.8810   36.8250 N   0  0  0  0  0  0  0  0  0  0  0  0
   38.1180   21.5840   33.5130 N   0  0  0  0  0  0  0  0  0  0  0  0
   37.1310   21.0530   32.7340 C   0  0  0  0  0  0  0  0  0  0  0  0
   37.7080   20.1990   31.8460 N   0  0  0  0  0  0  0  0  0  0  0  0
   39.0340   20.2090   32.0810 C   0  0  0  0  0  0  0  0  0  0  0  0
   39.2590   21.0660   33.1090 N   0  0  0  0  0  0  0  0  0  0  0  0
   37.0260   25.3140   32.4420 C   0  0  2  0  0  0  0  0  0  0  0  0
   36.1320   24.3620   31.7300 C   0  0  0  0  0  0  0  0  0  0  0  0
   36.9420   26.7370   31.8950 C   0  0  0  0  0  0  0  0  0  0  0  0
   36.5560   27.6470   32.9560 N   0  0  0  0  0  0  0  0  0  0  0  0
   37.0840   27.5510   34.2030 C   0  0  0  0  0  0  0  0  0  0  0  0
   36.5580   28.5120   34.9900 N   0  0  0  0  0  0  0  0  0  0  0  0
   35.6810   29.2450   34.2660 C   0  0  0  0  0  0  0  0  0  0  0  0
   34.8610   30.3330   34.5370 C   0  0  0  0  0  0  0  0  0  0  0  0
   34.1160   30.7800   33.5090 N   0  0  0  0  0  0  0  0  0  0  0  0
   34.1250   30.2450   32.2770 C   0  0  0  0  0  0  0  0  0  0  0  0
   34.9330   29.1770   32.0220 N   0  0  0  0  0  0  0  0  0  0  0  0
   35.7030   28.6820   33.0050 C   0  0  0  0  0  0  0  0  0  0  0  0
   41.4309   24.7533   31.0411 H   0  0  0  0  0  0  0  0  0  0  0  0
   39.0314   25.7719   30.4450 H   0  0  0  0  0  0  0  0  0  0  0  0
   37.0481   21.0543   35.8197 H   0  0  0  0  0  0  0  0  0  0  0  0
   37.7826   24.7951   37.6511 H   0  0  0  0  0  0  0  0  0  0  0  0
   36.0567   21.2765   32.8108 H   0  0  0  0  0  0  0  0  0  0  0  0
   39.7953   19.6288   31.5390 H   0  0  0  0  0  0  0  0  0  0  0  0
   36.6524   25.2852   33.4762 H   0  0  0  0  0  0  0  0  0  0  0  0
   35.5718   23.7654   32.4650 H   0  0  0  0  0  0  0  0  0  0  0  0
   35.4268   24.9231   31.0992 H   0  0  0  0  0  0  0  0  0  0  0  0
   36.7363   23.6934   31.0992 H   0  0  0  0  0  0  0  0  0  0  0  0
   37.9236   27.0344   31.4975 H   0  0  0  0  0  0  0  0  0  0  0  0
   36.1912   26.7746   31.0920 H   0  0  0  0  0  0  0  0  0  0  0  0
   37.8263   26.8047   34.5224 H   0  0  0  0  0  0  0  0  0  0  0  0
   34.8228   30.8010   35.5317 H   0  0  0  0  0  0  0  0  0  0  0  0
   33.4883   30.6634   31.4836 H   0  0  0  0  0  0  0  0  0  0  0  0
  1  8  1  0
  2  1  1  0
  3  2  2  0
  4  3  1  0
  4  5  2  0
  5 17  1  0
  5  1  1  0
  6 11  2  0
  7  6  1  0
  8  7  2  0
  8  9  1  0
  9 10  2  0
 10 11  1  0
 12  7  1  0
 13 12  1  0
 14 15  1  0
 14 13  2  0
 15 16  2  0
 16 12  1  0
 18 17  1  0
 19 17  1  0
 19 20  1  0
 20 28  1  0
 20 21  1  0
 21 22  2  0
 23 24  2  0
 23 22  1  0
 25 24  1  0
 26 25  2  0
 27 26  1  0
 27 28  2  0
 28 23  1  0
  3 29  1  0
  4 30  1  0
  6 31  1  0
 10 32  1  0
 13 33  1  0
 15 34  1  0
 17 35  1  1
 18 36  1  0
 18 37  1  0
 18 38  1  0
 19 39  1  0
 19 40  1  0
 21 41  1  0
 24 42  1  0
 26 43  1  0
M  ISO  8  29  14  30  14  31  14  32  14  33  14  34  14  35   8  36   8
M  ISO  7  37   8  38   8  39   8  40   8  41  14  42  14  43  14
M  END
>  <minimizedAffinity>  (1) 
-4.9000535

>  <minimizedRMSD>  (1) 
1.80013204

$$$$
