
     RDKit          3D

 43 46  0  0  1  0  0  0  0  0999 V2000
   38.6830   25.0130   34.2790 N   0  0  0  0  0  0  0  0  0  0  0  0
   38.8430   26.2930   33.9680 N   0  0  0  0  0  0  0  0  0  0  0  0
   38.5710   26.5050   32.6830 C   0  0  0  0  0  0  0  0  0  0  0  0
   38.2180   25.3050   32.1350 C   0  0  0  0  0  0  0  0  0  0  0  0
   38.2930   24.3660   33.1550 C   0  0  0  0  0  0  0  0  0  0  0  0
   40.2390   23.0570   36.9880 C   0  0  0  0  0  0  0  0  0  0  0  0
   40.0770   23.7910   35.7930 C   0  0  0  0  0  0  0  0  0  0  0  0
   38.8330   24.2720   35.4890 C   0  0  0  0  0  0  0  0  0  0  0  0
   37.8050   24.0150   36.3640 N   0  0  0  0  0  0  0  0  0  0  0  0
   37.9890   23.3220   37.4790 C   0  0  0  0  0  0  0  0  0  0  0  0
   39.2020   22.8360   37.8030 N   0  0  0  0  0  0  0  0  0  0  0  0
   41.2380   23.9660   35.0090 N   0  0  0  0  0  0  0  0  0  0  0  0
   41.8250   23.1650   34.0700 C   0  0  0  0  0  0  0  0  0  0  0  0
   42.9300   23.7970   33.6040 N   0  0  0  0  0  0  0  0  0  0  0  0
   43.0240   24.9780   34.2510 C   0  0  0  0  0  0  0  0  0  0  0  0
   41.9720   25.0530   35.1050 N   0  0  0  0  0  0  0  0  0  0  0  0
   37.9850   22.9210   32.9190 C   0  0  2  0  0  0  0  0  0  0  0  0
   38.9780   22.2340   32.0510 C   0  0  0  0  0  0  0  0  0  0  0  0
   36.5600   22.8310   32.4160 C   0  0  0  0  0  0  0  0  0  0  0  0
   36.1460   21.4490   32.4940 N   0  0  0  0  0  0  0  0  0  0  0  0
   35.9930   20.8340   31.2840 C   0  0  0  0  0  0  0  0  0  0  0  0
   35.5930   19.5220   31.1230 C   0  0  0  0  0  0  0  0  0  0  0  0
   35.3370   18.8030   32.2550 C   0  0  0  0  0  0  0  0  0  0  0  0
   34.9220   17.4450   32.1210 N   0  0  0  0  0  0  0  0  0  0  0  0
   35.4890   19.4110   33.4440 N   0  0  0  0  0  0  0  0  0  0  0  0
   35.8800   20.6900   33.5710 C   0  0  0  0  0  0  0  0  0  0  0  0
   36.0280   21.2700   34.6710 O   0  0  0  0  0  0  0  0  0  0  0  0
   38.6213   27.4703   32.1580 H   0  0  0  0  0  0  0  0  0  0  0  0
   37.9304   25.1187   31.0897 H   0  0  0  0  0  0  0  0  0  0  0  0
   41.2310   22.6618   37.2522 H   0  0  0  0  0  0  0  0  0  0  0  0
   37.1367   23.1411   38.1504 H   0  0  0  0  0  0  0  0  0  0  0  0
   41.4631   22.1775   33.7478 H   0  0  0  0  0  0  0  0  0  0  0  0
   43.8072   25.7378   34.1119 H   0  0  0  0  0  0  0  0  0  0  0  0
   38.0695   22.3665   33.8652 H   0  0  0  0  0  0  0  0  0  0  0  0
   39.7207   21.7202   32.6791 H   0  0  0  0  0  0  0  0  0  0  0  0
   38.4629   21.4982   31.4159 H   0  0  0  0  0  0  0  0  0  0  0  0
   39.4849   22.9754   31.4159 H   0  0  0  0  0  0  0  0  0  0  0  0
   36.5095   23.1776   31.3733 H   0  0  0  0  0  0  0  0  0  0  0  0
   35.8984   23.4633   33.0263 H   0  0  0  0  0  0  0  0  0  0  0  0
   36.2021   21.4223   30.3784 H   0  0  0  0  0  0  0  0  0  0  0  0
   35.4851   19.0747   30.1239 H   0  0  0  0  0  0  0  0  0  0  0  0
   34.7230   16.8821   32.9603 H   0  0  0  0  0  0  0  0  0  0  0  0
   34.8213   17.0272   31.1849 H   0  0  0  0  0  0  0  0  0  0  0  0
  1  8  1  0
  2  1  1  0
  3  2  2  0
  4  3  1  0
  4  5  2  0
  5  1  1  0
  6 11  2  0
  7  6  1  0
  8  7  2  0
  8  9  1  0
  9 10  2  0
 10 11  1  0
 12 16  1  0
 12  7  1  0
 13 12  1  0
 14 13  2  0
 14 15  1  0
 15 16  2  0
 17  5  1  0
 18 17  1  0
 19 20  1  0
 19 17  1  0
 20 26  1  0
 21 20  1  0
 22 21  2  0
 22 23  1  0
 23 25  2  0
 24 23  1  0
 25 26  1  0
 26 27  2  0
  3 28  1  0
  4 29  1  0
  6 30  1  0
 10 31  1  0
 13 32  1  0
 15 33  1  0
 17 34  1  1
 18 35  1  0
 18 36  1  0
 18 37  1  0
 19 38  1  0
 19 39  1  0
 21 40  1  0
 22 41  1  0
 24 42  1  0
 24 43  1  0
M  ISO  8  28  14  29  14  30  14  31  14  32  14  33  14  34   8  35   8
M  ISO  6  36   8  37   8  38   8  39   8  40  14  41  14
M  END
>  <minimizedAffinity>  (1) 
-5.05501938

>  <minimizedRMSD>  (1) 
5.63876915

$$$$
