
     RDKit          3D

 49 51  0  0  0  0  0  0  0  0999 V2000
   38.7280   23.5440   37.0710 C   0  0  0  0  0  0  0  0  0  0  0  0
   41.9700   21.6720   36.8950 C   0  0  0  0  0  0  0  0  0  0  0  0
   40.6820   21.9980   37.2730 C   0  0  0  0  0  0  0  0  0  0  0  0
   40.0780   23.1360   36.7230 C   0  0  0  0  0  0  0  0  0  0  0  0
   40.7880   23.8810   35.8300 N   0  0  0  0  0  0  0  0  0  0  0  0
   42.0480   23.5410   35.4750 C   0  0  0  0  0  0  0  0  0  0  0  0
   42.6300   22.4320   36.0150 N   0  0  0  0  0  0  0  0  0  0  0  0
   42.5940   20.4600   37.4910 C   0  0  0  0  0  0  0  0  0  0  0  0
   43.1870   19.5350   36.4990 C   0  0  0  0  0  0  0  0  0  0  0  0
   38.5550   23.3510   38.5700 C   0  0  0  0  0  0  0  0  0  0  0  0
   38.3880   24.9710   36.6820 C   0  0  0  0  0  0  0  0  0  0  0  0
   37.7220   22.6430   36.3620 C   0  0  0  0  0  0  0  0  0  0  0  0
   37.8130   22.7430   34.9400 N   0  0  0  0  0  0  0  0  0  0  0  0
   38.1780   21.8090   34.0100 C   0  0  0  0  0  0  0  0  0  0  0  0
   38.1170   22.3540   32.7630 N   0  0  0  0  0  0  0  0  0  0  0  0
   37.7160   23.6210   32.9300 C   0  0  0  0  0  0  0  0  0  0  0  0
   37.5400   23.8330   34.2320 N   0  0  0  0  0  0  0  0  0  0  0  0
   37.5100   24.5850   31.9030 N   0  0  0  0  0  0  0  0  0  0  0  0
   38.2160   25.8590   31.7920 C   0  0  0  0  0  0  0  0  0  0  0  0
   37.1910   26.9700   31.8080 C   0  0  0  0  0  0  0  0  0  0  0  0
   36.0070   26.7140   30.9290 C   0  0  0  0  0  0  0  0  0  0  0  0
   35.4220   25.3470   31.0490 C   0  0  0  0  0  0  0  0  0  0  0  0
   36.5330   24.3330   30.8580 C   0  0  0  0  0  0  0  0  0  0  0  0
   40.1380   21.3725   37.9961 H   0  0  0  0  0  0  0  0  0  0  0  0
   42.6023   24.1577   34.7522 H   0  0  0  0  0  0  0  0  0  0  0  0
   43.3885   20.7837   38.1795 H   0  0  0  0  0  0  0  0  0  0  0  0
   41.7903   19.9070   37.9992 H   0  0  0  0  0  0  0  0  0  0  0  0
   43.7090   18.7208   37.0231 H   0  0  0  0  0  0  0  0  0  0  0  0
   42.3902   19.1137   35.8684 H   0  0  0  0  0  0  0  0  0  0  0  0
   43.9025   20.0831   35.8684 H   0  0  0  0  0  0  0  0  0  0  0  0
   39.1954   24.0654   39.1080 H   0  0  0  0  0  0  0  0  0  0  0  0
   37.5035   23.5235   38.8430 H   0  0  0  0  0  0  0  0  0  0  0  0
   38.8410   22.3245   38.8430 H   0  0  0  0  0  0  0  0  0  0  0  0
   38.2442   25.5743   37.5905 H   0  0  0  0  0  0  0  0  0  0  0  0
   39.2103   25.3946   36.0868 H   0  0  0  0  0  0  0  0  0  0  0  0
   37.4630   24.9783   36.0868 H   0  0  0  0  0  0  0  0  0  0  0  0
   37.9121   21.6003   36.6562 H   0  0  0  0  0  0  0  0  0  0  0  0
   36.7132   22.9663   36.6583 H   0  0  0  0  0  0  0  0  0  0  0  0
   38.4758   20.7742   34.2349 H   0  0  0  0  0  0  0  0  0  0  0  0
   38.7834   25.8894   30.8502 H   0  0  0  0  0  0  0  0  0  0  0  0
   38.9187   25.9782   32.6299 H   0  0  0  0  0  0  0  0  0  0  0  0
   36.8347   27.0979   32.8408 H   0  0  0  0  0  0  0  0  0  0  0  0
   37.6892   27.8703   31.4192 H   0  0  0  0  0  0  0  0  0  0  0  0
   36.3180   26.8625   29.8844 H   0  0  0  0  0  0  0  0  0  0  0  0
   35.2238   27.4152   31.2529 H   0  0  0  0  0  0  0  0  0  0  0  0
   34.9717   25.2216   32.0447 H   0  0  0  0  0  0  0  0  0  0  0  0
   34.6420   25.2013   30.2872 H   0  0  0  0  0  0  0  0  0  0  0  0
   36.1345   23.3118   30.9494 H   0  0  0  0  0  0  0  0  0  0  0  0
   36.9869   24.4255   29.8603 H   0  0  0  0  0  0  0  0  0  0  0  0
  1 10  1  0
  2  3  2  0
  2  8  1  0
  4  1  1  0
  4  3  1  0
  5  4  2  0
  6  5  1  0
  6  7  2  0
  7  2  1  0
  9  8  1  0
 11  1  1  0
 12  1  1  0
 13 12  1  0
 14 13  1  0
 15 16  1  0
 15 14  2  0
 16 17  2  0
 17 13  1  0
 18 16  1  0
 19 20  1  0
 19 18  1  0
 21 22  1  0
 21 20  1  0
 23 22  1  0
 23 18  1  0
  3 24  1  0
  6 25  1  0
  8 26  1  0
  8 27  1  0
  9 28  1  0
  9 29  1  0
  9 30  1  0
 10 31  1  0
 10 32  1  0
 10 33  1  0
 11 34  1  0
 11 35  1  0
 11 36  1  0
 12 37  1  0
 12 38  1  0
 14 39  1  0
 19 40  1  0
 19 41  1  0
 20 42  1  0
 20 43  1  0
 21 44  1  0
 21 45  1  0
 22 46  1  0
 22 47  1  0
 23 48  1  0
 23 49  1  0
M  ISO  8  24  14  25  14  26   8  27   8  28   8  29   8  30   8  31   8
M  ISO  8  32   8  33   8  34   8  35   8  36   8  37   8  38   8  39  14
M  ISO  8  40  13  41  13  42  13  43  13  44  13  45  13  46  13  47  13
M  ISO  2  48  13  49  13
M  END
>  <minimizedAffinity>  (1) 
-5.14272594

>  <minimizedRMSD>  (1) 
0.471689671

$$$$
