
     RDKit          3D

 48 50  0  0  1  0  0  0  0  0999 V2000
   38.7240   23.5480   37.0370 C   0  0  0  0  0  0  0  0  0  0  0  0
   41.9710   21.6840   36.9170 C   0  0  0  0  0  0  0  0  0  0  0  0
   40.6750   22.0070   37.2630 C   0  0  0  0  0  0  0  0  0  0  0  0
   40.0760   23.1430   36.7230 C   0  0  0  0  0  0  0  0  0  0  0  0
   40.8150   23.8940   35.8620 N   0  0  0  0  0  0  0  0  0  0  0  0
   42.0830   23.5650   35.5310 C   0  0  0  0  0  0  0  0  0  0  0  0
   42.6570   22.4570   36.0630 N   0  0  0  0  0  0  0  0  0  0  0  0
   42.5790   20.4570   37.5160 C   0  0  0  0  0  0  0  0  0  0  0  0
   43.2030   19.5580   36.5180 C   0  0  0  0  0  0  0  0  0  0  0  0
   38.5080   23.3290   38.5300 C   0  0  0  0  0  0  0  0  0  0  0  0
   38.3870   24.9670   36.6680 C   0  0  0  0  0  0  0  0  0  0  0  0
   37.7490   22.6530   36.2880 C   0  0  0  0  0  0  0  0  0  0  0  0
   37.9030   22.7370   34.8640 N   0  0  0  0  0  0  0  0  0  0  0  0
   38.3600   21.7930   34.0010 C   0  0  0  0  0  0  0  0  0  0  0  0
   38.3320   22.3120   32.7350 N   0  0  0  0  0  0  0  0  0  0  0  0
   37.8620   23.5650   32.8370 C   0  0  0  0  0  0  0  0  0  0  0  0
   37.6060   23.8040   34.1360 N   0  0  0  0  0  0  0  0  0  0  0  0
   37.7130   24.4040   31.6140 C   0  0  1  0  0  0  0  0  0  0  0  0
   36.5600   23.8500   30.8270 C   0  0  0  0  0  0  0  0  0  0  0  0
   35.2640   24.4530   31.2920 C   0  0  0  0  0  0  0  0  0  0  0  0
   35.3370   25.9080   30.9120 C   0  0  0  0  0  0  0  0  0  0  0  0
   36.4670   26.6360   31.5740 C   0  0  0  0  0  0  0  0  0  0  0  0
   37.6600   25.8580   31.9100 C   0  0  0  0  0  0  0  0  0  0  0  0
   40.1161   21.3691   37.9635 H   0  0  0  0  0  0  0  0  0  0  0  0
   42.6498   24.1956   34.8302 H   0  0  0  0  0  0  0  0  0  0  0  0
   43.3509   20.7670   38.2358 H   0  0  0  0  0  0  0  0  0  0  0  0
   41.7644   19.8932   37.9940 H   0  0  0  0  0  0  0  0  0  0  0  0
   43.7560   18.7614   37.0372 H   0  0  0  0  0  0  0  0  0  0  0  0
   42.4204   19.1104   35.8878 H   0  0  0  0  0  0  0  0  0  0  0  0
   43.8961   20.1346   35.8878 H   0  0  0  0  0  0  0  0  0  0  0  0
   39.1693   23.9995   39.0984 H   0  0  0  0  0  0  0  0  0  0  0  0
   37.4600   23.5454   38.7845 H   0  0  0  0  0  0  0  0  0  0  0  0
   38.7389   22.2840   38.7845 H   0  0  0  0  0  0  0  0  0  0  0  0
   38.2461   25.5603   37.5835 H   0  0  0  0  0  0  0  0  0  0  0  0
   39.2081   25.3966   36.0754 H   0  0  0  0  0  0  0  0  0  0  0  0
   37.4604   24.9816   36.0754 H   0  0  0  0  0  0  0  0  0  0  0  0
   37.9169   21.6114   36.5994 H   0  0  0  0  0  0  0  0  0  0  0  0
   36.7315   22.9916   36.5329 H   0  0  0  0  0  0  0  0  0  0  0  0
   38.6960   20.7817   34.2737 H   0  0  0  0  0  0  0  0  0  0  0  0
   38.6107   24.3433   30.9812 H   0  0  0  0  0  0  0  0  0  0  0  0
   36.5205   22.7591   30.9628 H   0  0  0  0  0  0  0  0  0  0  0  0
   36.7048   24.0961   29.7647 H   0  0  0  0  0  0  0  0  0  0  0  0
   34.4130   23.9675   30.7919 H   0  0  0  0  0  0  0  0  0  0  0  0
   35.1181   24.3211   32.3743 H   0  0  0  0  0  0  0  0  0  0  0  0
   35.4669   25.9784   29.8220 H   0  0  0  0  0  0  0  0  0  0  0  0
   34.4025   26.3806   31.2486 H   0  0  0  0  0  0  0  0  0  0  0  0
   36.4025   27.7110   31.7982 H   0  0  0  0  0  0  0  0  0  0  0  0
   38.5209   26.3523   32.3837 H   0  0  0  0  0  0  0  0  0  0  0  0
  1 10  1  0
  2  3  2  0
  2  8  1  0
  4  1  1  0
  4  3  1  0
  5  4  2  0
  6  5  1  0
  6  7  2  0
  7  2  1  0
  9  8  1  0
 11  1  1  0
 12  1  1  0
 13 12  1  0
 14 13  1  0
 15 16  1  0
 15 14  2  0
 16 17  2  0
 17 13  1  0
 18 23  1  0
 18 16  1  0
 19 20  1  0
 19 18  1  0
 21 20  1  0
 21 22  1  0
 22 23  2  0
  3 24  1  0
  6 25  1  0
  8 26  1  0
  8 27  1  0
  9 28  1  0
  9 29  1  0
  9 30  1  0
 10 31  1  0
 10 32  1  0
 10 33  1  0
 11 34  1  0
 11 35  1  0
 11 36  1  0
 12 37  1  0
 12 38  1  0
 14 39  1  0
 18 40  1  6
 19 41  1  0
 19 42  1  0
 20 43  1  0
 20 44  1  0
 21 45  1  0
 21 46  1  0
 22 47  1  0
 23 48  1  0
M  ISO  8  24  14  25  14  26   8  27   8  28   8  29   8  30   8  31   8
M  ISO  8  32   8  33   8  34   8  35   8  36   8  37   8  38   8  39  14
M  ISO  8  40  13  41  13  42  13  43  13  44  13  45  13  46  13  47  13
M  ISO  1  48  13
M  END
>  <minimizedAffinity>  (1) 
-5.06970978

>  <minimizedRMSD>  (1) 
0.306760639

$$$$
