
     RDKit          3D

 34 36  0  0  1  0  0  0  0  0999 V2000
   39.3310   25.0580   34.5770 N   0  0  0  0  0  0  0  0  0  0  0  0
   40.5870   25.0110   34.1300 N   0  0  0  0  0  0  0  0  0  0  0  0
   40.7560   25.8970   33.1470 C   0  0  0  0  0  0  0  0  0  0  0  0
   39.5670   26.5380   32.9510 C   0  0  0  0  0  0  0  0  0  0  0  0
   38.6680   25.9990   33.8640 C   0  0  0  0  0  0  0  0  0  0  0  0
   37.4050   22.4250   36.2740 C   0  0  0  0  0  0  0  0  0  0  0  0
   38.0890   23.1310   35.2780 C   0  0  0  0  0  0  0  0  0  0  0  0
   38.6360   24.3440   35.5980 C   0  0  0  0  0  0  0  0  0  0  0  0
   38.4840   24.8040   36.8840 N   0  0  0  0  0  0  0  0  0  0  0  0
   37.8310   24.1190   37.8140 C   0  0  0  0  0  0  0  0  0  0  0  0
   37.2810   22.9130   37.5130 N   0  0  0  0  0  0  0  0  0  0  0  0
   38.1560   22.5140   34.0030 N   0  0  0  0  0  0  0  0  0  0  0  0
   37.3410   22.6070   32.9120 C   0  0  0  0  0  0  0  0  0  0  0  0
   37.8530   21.8090   31.9370 N   0  0  0  0  0  0  0  0  0  0  0  0
   38.9750   21.2320   32.4320 C   0  0  0  0  0  0  0  0  0  0  0  0
   39.1310   21.6840   33.6980 N   0  0  0  0  0  0  0  0  0  0  0  0
   37.2570   26.4500   33.9320 C   0  0  2  0  0  0  0  0  0  0  0  0
   36.6410   26.7110   32.6070 C   0  0  0  0  0  0  0  0  0  0  0  0
   37.2010   27.6560   34.8700 C   0  0  0  0  0  0  0  0  0  0  0  0
   36.1340   28.4990   34.3590 N   0  0  0  0  0  0  0  0  0  0  0  0
   41.6885   26.0788   32.5926 H   0  0  0  0  0  0  0  0  0  0  0  0
   39.3603   27.3278   32.2137 H   0  0  0  0  0  0  0  0  0  0  0  0
   36.9601   21.4483   36.0328 H   0  0  0  0  0  0  0  0  0  0  0  0
   37.7346   24.5279   38.8306 H   0  0  0  0  0  0  0  0  0  0  0  0
   36.4305   23.2195   32.8350 H   0  0  0  0  0  0  0  0  0  0  0  0
   39.6351   20.5283   31.9038 H   0  0  0  0  0  0  0  0  0  0  0  0
   36.6390   25.6335   34.3338 H   0  0  0  0  0  0  0  0  0  0  0  0
   35.6364   27.1366   32.7471 H   0  0  0  0  0  0  0  0  0  0  0  0
   37.2654   27.4219   32.0460 H   0  0  0  0  0  0  0  0  0  0  0  0
   36.5646   25.7679   32.0460 H   0  0  0  0  0  0  0  0  0  0  0  0
   36.9768   27.3333   35.8974 H   0  0  0  0  0  0  0  0  0  0  0  0
   38.1617   28.1907   34.9033 H   0  0  0  0  0  0  0  0  0  0  0  0
   35.6138   28.9100   35.1473 H   0  0  0  0  0  0  0  0  0  0  0  0
   36.5372   29.2522   33.7837 H   0  0  0  0  0  0  0  0  0  0  0  0
  1  8  1  0
  2  1  1  0
  3  2  2  0
  4  3  1  0
  4  5  2  0
  5 17  1  0
  5  1  1  0
  6 11  2  0
  7  8  2  0
  7  6  1  0
  8  9  1  0
  9 10  2  0
 11 10  1  0
 12  7  1  0
 13 12  1  0
 14 15  1  0
 14 13  2  0
 15 16  2  0
 16 12  1  0
 17 19  1  0
 18 17  1  0
 20 19  1  0
  3 21  1  0
  4 22  1  0
  6 23  1  0
 10 24  1  0
 13 25  1  0
 15 26  1  0
 17 27  1  1
 18 28  1  0
 18 29  1  0
 18 30  1  0
 19 31  1  0
 19 32  1  0
 20 33  1  0
 20 34  1  0
M  ISO  8  21  14  22  14  23  14  24  14  25  14  26  14  27   8  28   8
M  ISO  6  29   8  30   8  31   8  32   8  33   5  34   5
M  END
>  <minimizedAffinity>  (1) 
-3.88095498

>  <minimizedRMSD>  (1) 
0.444625467

$$$$
