
     RDKit          3D

 25 27  0  0  0  0  0  0  0  0999 V2000
   43.6540   19.7060   37.1090 C   0  0  0  0  0  0  0  0  0  0  0  0
   42.4740   20.4320   37.2970 C   0  0  0  0  0  0  0  0  0  0  0  0
   42.0010   21.2230   36.2560 C   0  0  0  0  0  0  0  0  0  0  0  0
   42.7340   21.2390   35.1010 N   0  0  0  0  0  0  0  0  0  0  0  0
   43.8630   20.5390   34.9350 C   0  0  0  0  0  0  0  0  0  0  0  0
   44.3300   19.7560   35.9640 N   0  0  0  0  0  0  0  0  0  0  0  0
   44.6010   20.5990   33.6730 C   0  0  0  0  0  0  0  0  0  0  0  0
   44.3600   21.3730   32.5600 C   0  0  0  0  0  0  0  0  0  0  0  0
   45.3650   21.0130   31.6870 C   0  0  0  0  0  0  0  0  0  0  0  0
   46.1620   20.0610   32.2750 C   0  0  0  0  0  0  0  0  0  0  0  0
   45.6640   19.8420   33.4690 O   0  0  0  0  0  0  0  0  0  0  0  0
   40.7810   21.9940   36.4060 C   0  0  0  0  0  0  0  0  0  0  0  0
   39.8480   22.4650   35.5270 N   0  0  0  0  0  0  0  0  0  0  0  0
   38.9290   23.1100   36.1860 O   0  0  0  0  0  0  0  0  0  0  0  0
   39.2120   23.0890   37.4770 C   0  0  0  0  0  0  0  0  0  0  0  0
   40.3510   22.4030   37.6120 N   0  0  0  0  0  0  0  0  0  0  0  0
   38.4320   23.7000   38.5660 C   0  0  0  0  0  0  0  0  0  0  0  0
   39.2510   23.8720   39.6650 F   0  0  0  0  0  0  0  0  0  0  0  0
   37.3820   22.8950   38.9600 F   0  0  0  0  0  0  0  0  0  0  0  0
   37.9640   24.9380   38.1920 F   0  0  0  0  0  0  0  0  0  0  0  0
   44.0331   19.0776   37.9284 H   0  0  0  0  0  0  0  0  0  0  0  0
   41.9296   20.3783   38.2514 H   0  0  0  0  0  0  0  0  0  0  0  0
   43.5550   22.1062   32.4039 H   0  0  0  0  0  0  0  0  0  0  0  0
   45.5065   21.4243   30.6766 H   0  0  0  0  0  0  0  0  0  0  0  0
   47.0448   19.5771   31.8317 H   0  0  0  0  0  0  0  0  0  0  0  0
  1  2  2  0
  3 12  1  0
  3  2  1  0
  4  3  2  0
  5  4  1  0
  5  6  2  0
  6  1  1  0
  7  5  1  0
  8  7  2  0
  9 10  2  0
  9  8  1  0
 10 11  1  0
 11  7  1  0
 12 16  1  0
 13 14  1  0
 13 12  2  0
 14 15  1  0
 15 16  2  0
 15 17  1  0
 17 19  1  0
 17 18  1  0
 20 17  1  0
  1 21  1  0
  2 22  1  0
  8 23  1  0
  9 24  1  0
 10 25  1  0
M  ISO  5  21  14  22  14  23  14  24  14  25  14
M  END
>  <minimizedAffinity>  (1) 
-4.09318781

>  <minimizedRMSD>  (1) 
0.263420701

$$$$
