
     RDKit          3D

 32 34  0  0  0  0  0  0  0  0999 V2000
   43.9440   19.7690   36.4440 C   0  0  0  0  0  0  0  0  0  0  0  0
   42.6120   20.1870   36.5330 C   0  0  0  0  0  0  0  0  0  0  0  0
   42.3420   21.5500   36.4130 C   0  0  0  0  0  0  0  0  0  0  0  0
   43.4090   22.4000   36.2130 N   0  0  0  0  0  0  0  0  0  0  0  0
   44.6620   21.9670   36.1330 C   0  0  0  0  0  0  0  0  0  0  0  0
   44.9400   20.6320   36.2490 N   0  0  0  0  0  0  0  0  0  0  0  0
   45.7660   22.9330   35.9190 C   0  0  0  0  0  0  0  0  0  0  0  0
   47.0730   22.6910   36.3710 C   0  0  0  0  0  0  0  0  0  0  0  0
   48.0400   23.6160   36.1440 C   0  0  0  0  0  0  0  0  0  0  0  0
   47.7110   24.7820   35.4680 C   0  0  0  0  0  0  0  0  0  0  0  0
   45.9110   24.5420   35.1380 S   0  0  0  0  0  0  0  0  0  0  0  0
   48.3420   25.9480   35.0310 N   0  0  0  0  0  0  0  0  0  0  0  0
   48.3190   27.0980   35.8580 C   0  0  0  0  0  0  0  0  0  0  0  0
   48.3650   26.8910   37.1520 N   0  0  0  0  0  0  0  0  0  0  0  0
   48.2500   28.4140   35.2740 N   0  0  0  0  0  0  0  0  0  0  0  0
   48.3470   27.7600   37.7300 H   0  0  0  0  0  0  0  0  0  0  0  0
   40.9810   22.0940   36.4930 C   0  0  0  0  0  0  0  0  0  0  0  0
   39.9550   22.2310   35.6280 N   0  0  0  0  0  0  0  0  0  0  0  0
   38.9580   22.7940   36.2430 O   0  0  0  0  0  0  0  0  0  0  0  0
   39.2920   23.0400   37.5070 C   0  0  0  0  0  0  0  0  0  0  0  0
   40.5380   22.6090   37.6600 N   0  0  0  0  0  0  0  0  0  0  0  0
   38.4520   23.6670   38.5410 C   0  0  0  0  0  0  0  0  0  0  0  0
   39.2390   23.8980   39.6810 F   0  0  0  0  0  0  0  0  0  0  0  0
   37.3950   22.8720   38.8890 F   0  0  0  0  0  0  0  0  0  0  0  0
   38.0100   24.9070   38.1110 F   0  0  0  0  0  0  0  0  0  0  0  0
   44.1755   18.6977   36.5376 H   0  0  0  0  0  0  0  0  0  0  0  0
   41.8008   19.4615   36.6930 H   0  0  0  0  0  0  0  0  0  0  0  0
   47.3114   21.7592   36.9048 H   0  0  0  0  0  0  0  0  0  0  0  0
   49.0695   23.4437   36.4910 H   0  0  0  0  0  0  0  0  0  0  0  0
   48.8186   25.9719   34.1182 H   0  0  0  0  0  0  0  0  0  0  0  0
   48.2336   29.2464   35.8805 H   0  0  0  0  0  0  0  0  0  0  0  0
   48.2171   28.5220   34.2502 H   0  0  0  0  0  0  0  0  0  0  0  0
  1  2  2  0
  3 17  1  0
  3  2  1  0
  4  3  2  0
  5  4  1  0
  5  6  2  0
  6  1  1  0
  7  5  1  0
  7  8  2  0
  9  8  1  0
 10  9  2  0
 11 10  1  0
 11  7  1  0
 12 10  1  0
 12 13  1  0
 13 14  2  0
 14 16  1  0
 15 13  1  0
 17 21  1  0
 18 19  1  0
 18 17  2  0
 19 20  1  0
 20 21  2  0
 20 22  1  0
 22 24  1  0
 22 23  1  0
 25 22  1  0
  1 26  1  0
  2 27  1  0
  8 28  1  0
  9 29  1  0
 12 30  1  0
 15 31  1  0
 15 32  1  0
M  ISO  4  26  14  27  14  28  14  29  14
M  END
>  <minimizedAffinity>  (1) 
-4.86523533

>  <minimizedRMSD>  (1) 
5.09331703

$$$$
