
     RDKit          3D

 41 44  0  0  0  0  0  0  0  0999 V2000
   43.6620   19.7510   37.0800 C   0  0  0  0  0  0  0  0  0  0  0  0
   42.4770   20.4730   37.2930 C   0  0  0  0  0  0  0  0  0  0  0  0
   41.9590   21.2360   36.2320 C   0  0  0  0  0  0  0  0  0  0  0  0
   42.6530   21.2250   35.0490 N   0  0  0  0  0  0  0  0  0  0  0  0
   43.7720   20.5300   34.8800 C   0  0  0  0  0  0  0  0  0  0  0  0
   44.2810   19.7860   35.9060 N   0  0  0  0  0  0  0  0  0  0  0  0
   44.4810   20.5550   33.5800 C   0  0  0  0  0  0  0  0  0  0  0  0
   45.7010   19.8860   33.3650 C   0  0  0  0  0  0  0  0  0  0  0  0
   46.2580   19.9810   32.1300 C   0  0  0  0  0  0  0  0  0  0  0  0
   45.6490   20.7110   31.1100 C   0  0  0  0  0  0  0  0  0  0  0  0
   44.1410   21.3210   31.9910 S   0  0  0  0  0  0  0  0  0  0  0  0
   45.9180   21.0400   29.7530 C   0  0  0  0  0  0  0  0  0  0  0  0
   44.9430   22.0490   29.2250 C   0  0  0  0  0  0  0  0  0  0  0  0
   44.1720   21.5350   28.0290 C   0  0  0  0  0  0  0  0  0  0  0  0
   43.6220   20.1480   28.2770 C   0  0  0  0  0  0  0  0  0  0  0  0
   44.6490   19.1680   28.7350 C   0  0  0  0  0  0  0  0  0  0  0  0
   45.9880   19.8510   28.8300 C   0  0  0  0  0  0  0  0  0  0  0  0
   40.7380   22.0060   36.3850 C   0  0  0  0  0  0  0  0  0  0  0  0
   39.8030   22.4760   35.5180 N   0  0  0  0  0  0  0  0  0  0  0  0
   38.8900   23.1190   36.1810 O   0  0  0  0  0  0  0  0  0  0  0  0
   39.1870   23.0950   37.4820 C   0  0  0  0  0  0  0  0  0  0  0  0
   40.3180   22.4130   37.5960 N   0  0  0  0  0  0  0  0  0  0  0  0
   38.4100   23.7070   38.5740 C   0  0  0  0  0  0  0  0  0  0  0  0
   39.2520   23.8810   39.6760 F   0  0  0  0  0  0  0  0  0  0  0  0
   37.3630   22.8830   38.9590 F   0  0  0  0  0  0  0  0  0  0  0  0
   37.9570   24.9540   38.2130 F   0  0  0  0  0  0  0  0  0  0  0  0
   44.0836   19.1477   37.8974 H   0  0  0  0  0  0  0  0  0  0  0  0
   41.9661   20.4424   38.2667 H   0  0  0  0  0  0  0  0  0  0  0  0
   46.1846   19.3085   34.1666 H   0  0  0  0  0  0  0  0  0  0  0  0
   47.2115   19.4703   31.9298 H   0  0  0  0  0  0  0  0  0  0  0  0
   46.9255   21.4813   29.7663 H   0  0  0  0  0  0  0  0  0  0  0  0
   44.2295   22.3021   30.0231 H   0  0  0  0  0  0  0  0  0  0  0  0
   45.5152   22.9309   28.9014 H   0  0  0  0  0  0  0  0  0  0  0  0
   44.8433   21.5026   27.1582 H   0  0  0  0  0  0  0  0  0  0  0  0
   43.3258   22.2138   27.8468 H   0  0  0  0  0  0  0  0  0  0  0  0
   42.8402   20.2173   29.0477 H   0  0  0  0  0  0  0  0  0  0  0  0
   43.2331   19.7802   27.3160 H   0  0  0  0  0  0  0  0  0  0  0  0
   44.3666   18.7758   29.7231 H   0  0  0  0  0  0  0  0  0  0  0  0
   44.7109   18.3385   28.0152 H   0  0  0  0  0  0  0  0  0  0  0  0
   46.7302   19.1373   29.2170 H   0  0  0  0  0  0  0  0  0  0  0  0
   46.2780   20.1993   27.8277 H   0  0  0  0  0  0  0  0  0  0  0  0
  1  2  2  0
  3 18  1  0
  3  2  1  0
  4  3  2  0
  5  4  1  0
  5  6  2  0
  6  1  1  0
  7  5  1  0
  8  7  2  0
  9  8  1  0
 10 11  1  0
 10  9  2  0
 11  7  1  0
 12 10  1  0
 13 12  1  0
 14 15  1  0
 14 13  1  0
 15 16  1  0
 16 17  1  0
 17 12  1  0
 18 22  1  0
 19 20  1  0
 19 18  2  0
 20 21  1  0
 21 22  2  0
 21 23  1  0
 23 25  1  0
 23 24  1  0
 26 23  1  0
  1 27  1  0
  2 28  1  0
  8 29  1  0
  9 30  1  0
 12 31  1  0
 13 32  1  0
 13 33  1  0
 14 34  1  0
 14 35  1  0
 15 36  1  0
 15 37  1  0
 16 38  1  0
 16 39  1  0
 17 40  1  0
 17 41  1  0
M  ISO  8  27  14  28  14  29  14  30  14  31  13  32  13  33  13  34  13
M  ISO  7  35  13  36  13  37  13  38  13  39  13  40  13  41  13
M  END
>  <minimizedAffinity>  (1) 
-3.89091349

>  <minimizedRMSD>  (1) 
0.668664157

$$$$
