
     RDKit          3D

 32 35  0  0  0  0  0  0  0  0999 V2000
   43.6250   19.7220   37.0910 C   0  0  0  0  0  0  0  0  0  0  0  0
   42.4780   20.5060   37.3020 C   0  0  0  0  0  0  0  0  0  0  0  0
   41.9490   21.2150   36.2330 C   0  0  0  0  0  0  0  0  0  0  0  0
   42.5920   21.1000   35.0220 N   0  0  0  0  0  0  0  0  0  0  0  0
   43.6810   20.3460   34.8610 C   0  0  0  0  0  0  0  0  0  0  0  0
   44.2060   19.6480   35.9010 N   0  0  0  0  0  0  0  0  0  0  0  0
   44.3320   20.2760   33.5170 C   0  0  0  0  0  0  0  0  0  0  0  0
   45.7070   19.9920   33.3680 C   0  0  0  0  0  0  0  0  0  0  0  0
   46.1800   19.9650   32.1000 C   0  0  0  0  0  0  0  0  0  0  0  0
   45.3770   20.1990   30.9950 C   0  0  0  0  0  0  0  0  0  0  0  0
   43.7440   20.4980   31.8190 S   0  0  0  0  0  0  0  0  0  0  0  0
   45.5390   20.2470   29.5790 C   0  0  0  0  0  0  0  0  0  0  0  0
   44.7120   19.6770   28.6550 C   0  0  0  0  0  0  0  0  0  0  0  0
   45.2590   19.9830   27.4500 N   0  0  0  0  0  0  0  0  0  0  0  0
   46.3840   20.7170   27.6800 C   0  0  0  0  0  0  0  0  0  0  0  0
   46.5670   20.8870   29.0090 N   0  0  0  0  0  0  0  0  0  0  0  0
   40.7620   22.0520   36.3690 C   0  0  0  0  0  0  0  0  0  0  0  0
   39.9150   22.6460   35.5000 N   0  0  0  0  0  0  0  0  0  0  0  0
   39.0040   23.2920   36.1690 O   0  0  0  0  0  0  0  0  0  0  0  0
   39.2240   23.1420   37.4780 C   0  0  0  0  0  0  0  0  0  0  0  0
   40.3010   22.3820   37.5910 N   0  0  0  0  0  0  0  0  0  0  0  0
   38.4240   23.7100   38.5770 C   0  0  0  0  0  0  0  0  0  0  0  0
   39.2390   23.8780   39.6830 F   0  0  0  0  0  0  0  0  0  0  0  0
   37.3880   22.8710   38.9290 F   0  0  0  0  0  0  0  0  0  0  0  0
   37.9490   24.9710   38.2320 F   0  0  0  0  0  0  0  0  0  0  0  0
   44.0511   19.1563   37.9327 H   0  0  0  0  0  0  0  0  0  0  0  0
   42.0086   20.5566   38.2955 H   0  0  0  0  0  0  0  0  0  0  0  0
   46.3579   19.8031   34.2344 H   0  0  0  0  0  0  0  0  0  0  0  0
   47.2465   19.7482   31.9399 H   0  0  0  0  0  0  0  0  0  0  0  0
   43.7984   19.0947   28.8453 H   0  0  0  0  0  0  0  0  0  0  0  0
   47.0474   21.1139   26.8975 H   0  0  0  0  0  0  0  0  0  0  0  0
   47.3291   21.3964   29.4788 H   0  0  0  0  0  0  0  0  0  0  0  0
  1  2  2  0
  3 17  1  0
  3  2  1  0
  4  3  2  0
  5  4  1  0
  5  6  2  0
  6  1  1  0
  7  5  1  0
  8  7  2  0
  9  8  1  0
 10 11  1  0
 10  9  2  0
 11  7  1  0
 12 10  1  0
 13 12  2  0
 14 15  2  0
 14 13  1  0
 15 16  1  0
 16 12  1  0
 17 21  1  0
 18 19  1  0
 18 17  2  0
 19 20  1  0
 20 21  2  0
 20 22  1  0
 22 24  1  0
 22 23  1  0
 25 22  1  0
  1 26  1  0
  2 27  1  0
  8 28  1  0
  9 29  1  0
 13 30  1  0
 15 31  1  0
 16 32  1  0
M  ISO  7  26  14  27  14  28  14  29  14  30  14  31  14  32   9
M  END
>  <minimizedAffinity>  (1) 
-3.88670588

>  <minimizedRMSD>  (1) 
0.0156678855

$$$$
