
     RDKit          3D

 28 30  0  0  0  0  0  0  0  0999 V2000
   43.6240   19.7230   37.0900 C   0  0  0  0  0  0  0  0  0  0  0  0
   42.4770   20.5030   37.3070 C   0  0  0  0  0  0  0  0  0  0  0  0
   41.9510   21.2160   36.2390 C   0  0  0  0  0  0  0  0  0  0  0  0
   42.5940   21.1140   35.0220 N   0  0  0  0  0  0  0  0  0  0  0  0
   43.6760   20.3660   34.8550 C   0  0  0  0  0  0  0  0  0  0  0  0
   44.1940   19.6670   35.8950 N   0  0  0  0  0  0  0  0  0  0  0  0
   44.3380   20.2880   33.5260 C   0  0  0  0  0  0  0  0  0  0  0  0
   45.7200   20.0130   33.3770 C   0  0  0  0  0  0  0  0  0  0  0  0
   46.1990   19.9730   32.1060 C   0  0  0  0  0  0  0  0  0  0  0  0
   45.3880   20.1890   30.9950 C   0  0  0  0  0  0  0  0  0  0  0  0
   43.7360   20.4880   31.8250 S   0  0  0  0  0  0  0  0  0  0  0  0
   45.5370   20.2220   29.6050 C   0  0  0  0  0  0  0  0  0  0  0  0
   46.6680   19.4970   29.2050 F   0  0  0  0  0  0  0  0  0  0  0  0
   45.6410   21.5230   29.1540 F   0  0  0  0  0  0  0  0  0  0  0  0
   44.4640   19.6000   28.9620 F   0  0  0  0  0  0  0  0  0  0  0  0
   40.7610   22.0570   36.3680 C   0  0  0  0  0  0  0  0  0  0  0  0
   39.9180   22.6530   35.5060 N   0  0  0  0  0  0  0  0  0  0  0  0
   39.0060   23.2940   36.1690 O   0  0  0  0  0  0  0  0  0  0  0  0
   39.2210   23.1410   37.4790 C   0  0  0  0  0  0  0  0  0  0  0  0
   40.3000   22.3800   37.5950 N   0  0  0  0  0  0  0  0  0  0  0  0
   38.4140   23.7100   38.5710 C   0  0  0  0  0  0  0  0  0  0  0  0
   39.2390   23.8860   39.6890 F   0  0  0  0  0  0  0  0  0  0  0  0
   37.3860   22.8780   38.9280 F   0  0  0  0  0  0  0  0  0  0  0  0
   37.9400   24.9590   38.2330 F   0  0  0  0  0  0  0  0  0  0  0  0
   44.0557   19.1501   37.9239 H   0  0  0  0  0  0  0  0  0  0  0  0
   42.0064   20.5479   38.3002 H   0  0  0  0  0  0  0  0  0  0  0  0
   46.3720   19.8407   34.2460 H   0  0  0  0  0  0  0  0  0  0  0  0
   47.2671   19.7621   31.9490 H   0  0  0  0  0  0  0  0  0  0  0  0
  1  2  2  0
  3 16  1  0
  3  2  1  0
  4  3  2  0
  5  4  1  0
  5  6  2  0
  6  1  1  0
  7  5  1  0
  8  7  2  0
  9  8  1  0
 10 11  1  0
 10  9  2  0
 11  7  1  0
 12 10  1  0
 13 12  1  0
 14 12  1  0
 15 12  1  0
 16 20  1  0
 17 18  1  0
 17 16  2  0
 18 19  1  0
 19 20  2  0
 19 21  1  0
 21 23  1  0
 21 22  1  0
 24 21  1  0
  1 25  1  0
  2 26  1  0
  8 27  1  0
  9 28  1  0
M  ISO  4  25  14  26  14  27  14  28  14
M  END
>  <minimizedAffinity>  (1) 
-3.88455606

>  <minimizedRMSD>  (1) 
0.0165982302

$$$$
