
     RDKit          3D

 35 38  0  0  0  0  0  0  0  0999 V2000
   43.6200   19.7320   37.0880 C   0  0  0  0  0  0  0  0  0  0  0  0
   42.4800   20.5030   37.3080 C   0  0  0  0  0  0  0  0  0  0  0  0
   41.9500   21.2140   36.2380 C   0  0  0  0  0  0  0  0  0  0  0  0
   42.5920   21.1090   35.0200 N   0  0  0  0  0  0  0  0  0  0  0  0
   43.6750   20.3620   34.8530 C   0  0  0  0  0  0  0  0  0  0  0  0
   44.1990   19.6610   35.9040 N   0  0  0  0  0  0  0  0  0  0  0  0
   44.3380   20.2860   33.5230 C   0  0  0  0  0  0  0  0  0  0  0  0
   45.7110   20.0200   33.3720 C   0  0  0  0  0  0  0  0  0  0  0  0
   46.2000   19.9830   32.1060 C   0  0  0  0  0  0  0  0  0  0  0  0
   45.3740   20.1980   31.0010 C   0  0  0  0  0  0  0  0  0  0  0  0
   43.7400   20.4830   31.8210 S   0  0  0  0  0  0  0  0  0  0  0  0
   45.5990   20.2190   29.6110 N   0  0  0  0  0  0  0  0  0  0  0  0
   45.5450   19.0390   28.9660 C   0  0  0  0  0  0  0  0  0  0  0  0
   45.7750   19.1140   27.5880 C   0  0  0  0  0  0  0  0  0  0  0  0
   46.0350   20.3450   26.9840 C   0  0  0  0  0  0  0  0  0  0  0  0
   46.2430   20.4200   25.7420 O   0  0  0  0  0  0  0  0  0  0  0  0
   46.0700   21.4860   27.7200 N   0  0  0  0  0  0  0  0  0  0  0  0
   45.8490   21.4110   29.0380 C   0  0  0  0  0  0  0  0  0  0  0  0
   45.8800   22.4760   29.7290 O   0  0  0  0  0  0  0  0  0  0  0  0
   40.7560   22.0580   36.3620 C   0  0  0  0  0  0  0  0  0  0  0  0
   39.9140   22.6570   35.4940 N   0  0  0  0  0  0  0  0  0  0  0  0
   39.0050   23.2990   36.1670 O   0  0  0  0  0  0  0  0  0  0  0  0
   39.2140   23.1460   37.4670 C   0  0  0  0  0  0  0  0  0  0  0  0
   40.2980   22.3780   37.5940 N   0  0  0  0  0  0  0  0  0  0  0  0
   38.4160   23.7060   38.5710 C   0  0  0  0  0  0  0  0  0  0  0  0
   39.2430   23.8810   39.6850 F   0  0  0  0  0  0  0  0  0  0  0  0
   37.3940   22.8750   38.9340 F   0  0  0  0  0  0  0  0  0  0  0  0
   37.9470   24.9710   38.2290 F   0  0  0  0  0  0  0  0  0  0  0  0
   44.0504   19.1653   37.9268 H   0  0  0  0  0  0  0  0  0  0  0  0
   42.0120   20.5476   38.3025 H   0  0  0  0  0  0  0  0  0  0  0  0
   46.3610   19.8492   34.2428 H   0  0  0  0  0  0  0  0  0  0  0  0
   47.2693   19.7794   31.9475 H   0  0  0  0  0  0  0  0  0  0  0  0
   45.3364   18.0901   29.4818 H   0  0  0  0  0  0  0  0  0  0  0  0
   45.7508   18.1989   26.9781 H   0  0  0  0  0  0  0  0  0  0  0  0
   46.2632   22.3930   27.2718 H   0  0  0  0  0  0  0  0  0  0  0  0
  1  2  2  0
  3 20  1  0
  3  2  1  0
  4  3  2  0
  5  4  1  0
  5  6  2  0
  6  1  1  0
  7  5  1  0
  8  7  2  0
  9  8  1  0
 10 11  1  0
 10  9  2  0
 11  7  1  0
 12 10  1  0
 13 12  1  0
 14 13  2  0
 15 14  1  0
 15 17  1  0
 16 15  2  0
 17 18  1  0
 18 12  1  0
 18 19  2  0
 20 24  1  0
 21 22  1  0
 21 20  2  0
 22 23  1  0
 23 24  2  0
 23 25  1  0
 25 27  1  0
 25 26  1  0
 28 25  1  0
  1 29  1  0
  2 30  1  0
  8 31  1  0
  9 32  1  0
 13 33  1  0
 14 34  1  0
 17 35  1  0
M  ISO  7  29  14  30  14  31  14  32  14  33  14  34  14  35   9
M  END
>  <minimizedAffinity>  (1) 
-3.88489413

>  <minimizedRMSD>  (1) 
0.330150962

$$$$
