
     RDKit          3D

 35 38  0  0  0  0  0  0  0  0999 V2000
   43.6170   19.7360   37.0870 C   0  0  0  0  0  0  0  0  0  0  0  0
   42.4760   20.5070   37.3050 C   0  0  0  0  0  0  0  0  0  0  0  0
   41.9420   21.2150   36.2350 C   0  0  0  0  0  0  0  0  0  0  0  0
   42.5840   21.1090   35.0200 N   0  0  0  0  0  0  0  0  0  0  0  0
   43.6810   20.3550   34.8560 C   0  0  0  0  0  0  0  0  0  0  0  0
   44.2000   19.6670   35.8910 N   0  0  0  0  0  0  0  0  0  0  0  0
   44.3320   20.2920   33.5180 C   0  0  0  0  0  0  0  0  0  0  0  0
   45.7080   20.0450   33.3640 C   0  0  0  0  0  0  0  0  0  0  0  0
   46.1900   20.0260   32.0970 C   0  0  0  0  0  0  0  0  0  0  0  0
   45.3720   20.2370   30.9940 C   0  0  0  0  0  0  0  0  0  0  0  0
   43.7300   20.4960   31.8170 S   0  0  0  0  0  0  0  0  0  0  0  0
   45.5830   20.2800   29.5450 C   0  0  0  0  0  0  0  0  0  0  0  0
   45.4470   19.0780   28.8890 C   0  0  0  0  0  0  0  0  0  0  0  0
   45.6520   19.1370   27.5120 C   0  0  0  0  0  0  0  0  0  0  0  0
   45.9690   20.3350   26.8740 C   0  0  0  0  0  0  0  0  0  0  0  0
   46.0820   21.4910   27.6260 C   0  0  0  0  0  0  0  0  0  0  0  0
   45.8900   21.5010   29.0130 C   0  0  0  0  0  0  0  0  0  0  0  0
   40.7470   22.0590   36.3610 C   0  0  0  0  0  0  0  0  0  0  0  0
   39.9050   22.6580   35.4990 N   0  0  0  0  0  0  0  0  0  0  0  0
   38.9940   23.3030   36.1670 O   0  0  0  0  0  0  0  0  0  0  0  0
   39.2100   23.1480   37.4700 C   0  0  0  0  0  0  0  0  0  0  0  0
   40.2890   22.3830   37.5870 N   0  0  0  0  0  0  0  0  0  0  0  0
   38.4110   23.7130   38.5700 C   0  0  0  0  0  0  0  0  0  0  0  0
   39.2430   23.8830   39.6900 F   0  0  0  0  0  0  0  0  0  0  0  0
   37.3840   22.8710   38.9290 F   0  0  0  0  0  0  0  0  0  0  0  0
   37.9480   24.9730   38.2410 F   0  0  0  0  0  0  0  0  0  0  0  0
   44.0477   19.1691   37.9255 H   0  0  0  0  0  0  0  0  0  0  0  0
   42.0096   20.5538   38.3001 H   0  0  0  0  0  0  0  0  0  0  0  0
   46.3628   19.8751   34.2314 H   0  0  0  0  0  0  0  0  0  0  0  0
   47.2619   19.8377   31.9373 H   0  0  0  0  0  0  0  0  0  0  0  0
   45.1959   18.1430   29.4112 H   0  0  0  0  0  0  0  0  0  0  0  0
   45.5616   18.2175   26.9151 H   0  0  0  0  0  0  0  0  0  0  0  0
   46.1274   20.3612   25.7858 H   0  0  0  0  0  0  0  0  0  0  0  0
   46.3310   22.4339   27.1171 H   0  0  0  0  0  0  0  0  0  0  0  0
   45.9786   22.4128   29.6219 H   0  0  0  0  0  0  0  0  0  0  0  0
  1  2  2  0
  3 18  1  0
  3  2  1  0
  4  3  2  0
  5  4  1  0
  5  6  2  0
  6  1  1  0
  7  5  1  0
  8  7  2  0
  9  8  1  0
 10 11  1  0
 10  9  2  0
 11  7  1  0
 12 10  1  0
 13 12  2  0
 14 13  1  0
 15 14  2  0
 15 16  1  0
 16 17  2  0
 17 12  1  0
 18 22  1  0
 19 20  1  0
 19 18  2  0
 20 21  1  0
 21 22  2  0
 21 23  1  0
 23 25  1  0
 23 24  1  0
 26 23  1  0
  1 27  1  0
  2 28  1  0
  8 29  1  0
  9 30  1  0
 13 31  1  0
 14 32  1  0
 15 33  1  0
 16 34  1  0
 17 35  1  0
M  ISO  8  27  14  28  14  29  14  30  14  31  14  32  14  33  14  34  14
M  ISO  1  35  14
M  END
>  <minimizedAffinity>  (1) 
-3.88343215

>  <minimizedRMSD>  (1) 
0.0208495967

$$$$
