
     RDKit          3D

 43 45  0  0  0  0  0  0  0  0999 V2000
   38.7790   23.5630   37.0630 C   0  0  0  0  0  0  0  0  0  0  0  0
   41.9850   21.6350   36.9180 C   0  0  0  0  0  0  0  0  0  0  0  0
   40.6980   21.9840   37.2700 C   0  0  0  0  0  0  0  0  0  0  0  0
   40.1240   23.1370   36.7370 C   0  0  0  0  0  0  0  0  0  0  0  0
   40.8600   23.8850   35.8790 N   0  0  0  0  0  0  0  0  0  0  0  0
   42.1220   23.5280   35.5420 C   0  0  0  0  0  0  0  0  0  0  0  0
   42.6760   22.4000   36.0680 N   0  0  0  0  0  0  0  0  0  0  0  0
   42.5740   20.3940   37.5060 C   0  0  0  0  0  0  0  0  0  0  0  0
   43.6290   19.7880   36.6630 C   0  0  0  0  0  0  0  0  0  0  0  0
   38.5010   23.1810   38.5180 C   0  0  0  0  0  0  0  0  0  0  0  0
   38.5100   25.0340   36.8500 C   0  0  0  0  0  0  0  0  0  0  0  0
   37.7810   22.8070   36.2110 C   0  0  0  0  0  0  0  0  0  0  0  0
   37.8160   23.2170   34.8380 N   0  0  0  0  0  0  0  0  0  0  0  0
   38.0740   22.4940   33.7020 C   0  0  0  0  0  0  0  0  0  0  0  0
   37.9940   23.3090   32.6260 N   0  0  0  0  0  0  0  0  0  0  0  0
   37.6920   24.5250   33.0800 C   0  0  0  0  0  0  0  0  0  0  0  0
   37.5880   24.4540   34.4030 N   0  0  0  0  0  0  0  0  0  0  0  0
   37.5100   25.7110   32.2490 C   0  0  0  0  0  0  0  0  0  0  0  0
   38.5270   26.6160   32.0360 C   0  0  0  0  0  0  0  0  0  0  0  0
   38.3350   27.7440   31.2390 C   0  0  0  0  0  0  0  0  0  0  0  0
   37.1060   27.9820   30.6370 C   0  0  0  0  0  0  0  0  0  0  0  0
   36.1190   27.0440   30.8830 C   0  0  0  0  0  0  0  0  0  0  0  0
   36.3320   25.9680   31.6550 N   0  0  0  0  0  0  0  0  0  0  0  0
   40.1268   21.3550   37.9686 H   0  0  0  0  0  0  0  0  0  0  0  0
   42.7005   24.1495   34.8427 H   0  0  0  0  0  0  0  0  0  0  0  0
   43.0103   20.6446   38.4842 H   0  0  0  0  0  0  0  0  0  0  0  0
   41.7617   19.6570   37.5898 H   0  0  0  0  0  0  0  0  0  0  0  0
   44.4025   19.3437   37.3066 H   0  0  0  0  0  0  0  0  0  0  0  0
   43.1869   19.0062   36.0279 H   0  0  0  0  0  0  0  0  0  0  0  0
   44.0816   20.5638   36.0279 H   0  0  0  0  0  0  0  0  0  0  0  0
   39.0148   23.8870   39.1870 H   0  0  0  0  0  0  0  0  0  0  0  0
   37.4180   23.2192   38.7066 H   0  0  0  0  0  0  0  0  0  0  0  0
   38.8704   22.1622   38.7066 H   0  0  0  0  0  0  0  0  0  0  0  0
   38.4184   25.5349   37.8250 H   0  0  0  0  0  0  0  0  0  0  0  0
   39.3413   25.4807   36.2849 H   0  0  0  0  0  0  0  0  0  0  0  0
   37.5744   25.1576   36.2849 H   0  0  0  0  0  0  0  0  0  0  0  0
   38.0118   21.7329   36.2653 H   0  0  0  0  0  0  0  0  0  0  0  0
   36.7751   23.0224   36.6006 H   0  0  0  0  0  0  0  0  0  0  0  0
   38.3091   21.4199   33.6708 H   0  0  0  0  0  0  0  0  0  0  0  0
   39.5082   26.4455   32.5032 H   0  0  0  0  0  0  0  0  0  0  0  0
   39.1636   28.4511   31.0858 H   0  0  0  0  0  0  0  0  0  0  0  0
   36.9281   28.8631   30.0029 H   0  0  0  0  0  0  0  0  0  0  0  0
   35.1265   27.1854   30.4303 H   0  0  0  0  0  0  0  0  0  0  0  0
  1 10  1  0
  2  3  2  0
  2  8  1  0
  4  1  1  0
  4  3  1  0
  5  4  2  0
  6  5  1  0
  6  7  2  0
  7  2  1  0
  9  8  1  0
 11  1  1  0
 12  1  1  0
 13 12  1  0
 14 13  1  0
 15 16  1  0
 15 14  2  0
 16 17  2  0
 17 13  1  0
 18 16  1  0
 19 18  2  0
 20 19  1  0
 21 22  1  0
 21 20  2  0
 22 23  2  0
 23 18  1  0
  3 24  1  0
  6 25  1  0
  8 26  1  0
  8 27  1  0
  9 28  1  0
  9 29  1  0
  9 30  1  0
 10 31  1  0
 10 32  1  0
 10 33  1  0
 11 34  1  0
 11 35  1  0
 11 36  1  0
 12 37  1  0
 12 38  1  0
 14 39  1  0
 19 40  1  0
 20 41  1  0
 21 42  1  0
 22 43  1  0
M  ISO  8  24  14  25  14  26   8  27   8  28   8  29   8  30   8  31   8
M  ISO  8  32   8  33   8  34   8  35   8  36   8  37   8  38   8  39  14
M  ISO  4  40  14  41  14  42  14  43  14
M  END
>  <minimizedAffinity>  (1) 
-4.64688206

>  <minimizedRMSD>  (1) 
1.25940049

$$$$
