
     RDKit          3D

 41 43  0  0  0  0  0  0  0  0999 V2000
   38.7070   23.5210   37.0450 C   0  0  0  0  0  0  0  0  0  0  0  0
   41.9630   21.6710   36.9250 C   0  0  0  0  0  0  0  0  0  0  0  0
   40.6630   21.9920   37.2640 C   0  0  0  0  0  0  0  0  0  0  0  0
   40.0640   23.1300   36.7290 C   0  0  0  0  0  0  0  0  0  0  0  0
   40.7910   23.8920   35.8850 N   0  0  0  0  0  0  0  0  0  0  0  0
   42.0640   23.5730   35.5570 C   0  0  0  0  0  0  0  0  0  0  0  0
   42.6410   22.4570   36.0860 N   0  0  0  0  0  0  0  0  0  0  0  0
   42.5700   20.4490   37.5150 C   0  0  0  0  0  0  0  0  0  0  0  0
   43.1880   19.5520   36.4980 C   0  0  0  0  0  0  0  0  0  0  0  0
   38.4650   23.2330   38.5310 C   0  0  0  0  0  0  0  0  0  0  0  0
   38.3770   24.9650   36.7650 C   0  0  0  0  0  0  0  0  0  0  0  0
   37.7210   22.6850   36.2520 C   0  0  0  0  0  0  0  0  0  0  0  0
   37.8560   22.8970   34.8430 N   0  0  0  0  0  0  0  0  0  0  0  0
   38.1670   22.0240   33.8400 C   0  0  0  0  0  0  0  0  0  0  0  0
   38.1800   22.6910   32.6490 N   0  0  0  0  0  0  0  0  0  0  0  0
   37.8810   23.9640   32.9130 C   0  0  0  0  0  0  0  0  0  0  0  0
   37.6890   24.0760   34.2290 N   0  0  0  0  0  0  0  0  0  0  0  0
   37.7620   25.0800   32.0170 N   0  0  0  0  0  0  0  0  0  0  0  0
   38.6850   25.6400   31.2560 N   0  0  0  0  0  0  0  0  0  0  0  0
   38.1580   26.6710   30.5620 C   0  0  0  0  0  0  0  0  0  0  0  0
   36.8240   26.7310   30.9370 C   0  0  0  0  0  0  0  0  0  0  0  0
   36.5930   25.7210   31.8540 C   0  0  0  0  0  0  0  0  0  0  0  0
   40.1006   21.3487   37.9567 H   0  0  0  0  0  0  0  0  0  0  0  0
   42.6320   24.2124   34.8653 H   0  0  0  0  0  0  0  0  0  0  0  0
   43.3477   20.7551   38.2302 H   0  0  0  0  0  0  0  0  0  0  0  0
   41.7613   19.8840   38.0015 H   0  0  0  0  0  0  0  0  0  0  0  0
   43.7416   18.7485   37.0058 H   0  0  0  0  0  0  0  0  0  0  0  0
   42.3997   19.1131   35.8687 H   0  0  0  0  0  0  0  0  0  0  0  0
   43.8789   20.1323   35.8687 H   0  0  0  0  0  0  0  0  0  0  0  0
   39.0539   23.9338   39.1410 H   0  0  0  0  0  0  0  0  0  0  0  0
   37.3961   23.3570   38.7592 H   0  0  0  0  0  0  0  0  0  0  0  0
   38.7713   22.2015   38.7592 H   0  0  0  0  0  0  0  0  0  0  0  0
   38.2538   25.5040   37.7159 H   0  0  0  0  0  0  0  0  0  0  0  0
   39.1938   25.4224   36.1874 H   0  0  0  0  0  0  0  0  0  0  0  0
   37.4426   25.0222   36.1874 H   0  0  0  0  0  0  0  0  0  0  0  0
   37.8992   21.6218   36.4706 H   0  0  0  0  0  0  0  0  0  0  0  0
   36.7045   22.9846   36.5467 H   0  0  0  0  0  0  0  0  0  0  0  0
   38.3745   20.9517   33.9712 H   0  0  0  0  0  0  0  0  0  0  0  0
   38.6780   27.3267   29.8481 H   0  0  0  0  0  0  0  0  0  0  0  0
   36.0807   27.4541   30.5700 H   0  0  0  0  0  0  0  0  0  0  0  0
   35.6398   25.4888   32.3515 H   0  0  0  0  0  0  0  0  0  0  0  0
  1 10  1  0
  2  3  2  0
  2  8  1  0
  4  1  1  0
  4  3  1  0
  5  4  2  0
  6  5  1  0
  6  7  2  0
  7  2  1  0
  9  8  1  0
 11  1  1  0
 12  1  1  0
 13 12  1  0
 14 13  1  0
 15 16  1  0
 15 14  2  0
 16 17  2  0
 17 13  1  0
 18 16  1  0
 19 18  1  0
 20 21  1  0
 20 19  2  0
 21 22  2  0
 22 18  1  0
  3 23  1  0
  6 24  1  0
  8 25  1  0
  8 26  1  0
  9 27  1  0
  9 28  1  0
  9 29  1  0
 10 30  1  0
 10 31  1  0
 10 32  1  0
 11 33  1  0
 11 34  1  0
 11 35  1  0
 12 36  1  0
 12 37  1  0
 14 38  1  0
 20 39  1  0
 21 40  1  0
 22 41  1  0
M  ISO  8  23  14  24  14  25   8  26   8  27   8  28   8  29   8  30   8
M  ISO  8  31   8  32   8  33   8  34   8  35   8  36   8  37   8  38  14
M  ISO  3  39  14  40  14  41  14
M  END
>  <minimizedAffinity>  (1) 
-4.63739157

>  <minimizedRMSD>  (1) 
0.601499796

$$$$
