
     RDKit          3D

 31 34  0  0  0  0  0  0  0  0999 V2000
   42.4410   20.9020   36.5370 C   0  0  0  0  0  0  0  0  0  0  0  0
   41.4480   21.5860   37.2540 C   0  0  0  0  0  0  0  0  0  0  0  0
   40.4650   22.2430   36.5170 C   0  0  0  0  0  0  0  0  0  0  0  0
   40.5120   22.1920   35.1530 N   0  0  0  0  0  0  0  0  0  0  0  0
   41.4830   21.5250   34.5080 C   0  0  0  0  0  0  0  0  0  0  0  0
   42.4400   20.8840   35.2000 N   0  0  0  0  0  0  0  0  0  0  0  0
   41.5100   21.4850   33.0510 C   0  0  0  0  0  0  0  0  0  0  0  0
   42.5670   21.8300   32.2340 C   0  0  0  0  0  0  0  0  0  0  0  0
   42.2310   21.6690   30.9430 N   0  0  0  0  0  0  0  0  0  0  0  0
   40.9570   21.2220   30.9120 C   0  0  0  0  0  0  0  0  0  0  0  0
   40.1620   20.9060   29.8160 C   0  0  0  0  0  0  0  0  0  0  0  0
   38.8830   20.4650   30.0490 C   0  0  0  0  0  0  0  0  0  0  0  0
   38.3810   20.3320   31.3470 C   0  0  0  0  0  0  0  0  0  0  0  0
   39.1860   20.6500   32.4230 C   0  0  0  0  0  0  0  0  0  0  0  0
   40.4860   21.0990   32.2090 C   0  0  0  0  0  0  0  0  0  0  0  0
   39.4220   22.9620   37.2620 C   0  0  0  0  0  0  0  0  0  0  0  0
   38.5860   23.9200   36.6820 C   0  0  0  0  0  0  0  0  0  0  0  0
   37.7700   24.3390   37.7020 N   0  0  0  0  0  0  0  0  0  0  0  0
   38.1220   23.6580   38.8050 C   0  0  0  0  0  0  0  0  0  0  0  0
   39.1140   22.8170   38.5790 N   0  0  0  0  0  0  0  0  0  0  0  0
   43.2341   20.3713   37.0841 H   0  0  0  0  0  0  0  0  0  0  0  0
   41.4456   21.6029   38.3539 H   0  0  0  0  0  0  0  0  0  0  0  0
   43.5454   22.1861   32.5890 H   0  0  0  0  0  0  0  0  0  0  0  0
   42.8335   21.8525   30.1280 H   0  0  0  0  0  0  0  0  0  0  0  0
   40.5472   21.0066   28.7906 H   0  0  0  0  0  0  0  0  0  0  0  0
   38.2384   20.2104   29.1948 H   0  0  0  0  0  0  0  0  0  0  0  0
   37.3528   19.9768   31.5099 H   0  0  0  0  0  0  0  0  0  0  0  0
   38.8003   20.5486   33.4482 H   0  0  0  0  0  0  0  0  0  0  0  0
   38.5830   24.2629   35.6368 H   0  0  0  0  0  0  0  0  0  0  0  0
   37.6388   23.7865   39.7848 H   0  0  0  0  0  0  0  0  0  0  0  0
   39.5610   22.1839   39.2574 H   0  0  0  0  0  0  0  0  0  0  0  0
  1  2  2  0
  3  2  1  0
  3 16  1  0
  4  3  2  0
  5  4  1  0
  5  6  2  0
  6  1  1  0
  7  5  1  0
  8  7  2  0
  9  8  1  0
 10  9  1  0
 10 15  2  0
 11 12  2  0
 11 10  1  0
 12 13  1  0
 13 14  2  0
 15 14  1  0
 15  7  1  0
 16 20  1  0
 17 16  2  0
 17 18  1  0
 18 19  2  0
 20 19  1  0
  1 21  1  0
  2 22  1  0
  8 23  1  0
  9 24  1  0
 11 25  1  0
 12 26  1  0
 13 27  1  0
 14 28  1  0
 17 29  1  0
 19 30  1  0
 20 31  1  0
M  ISO  8  21  14  22  14  23  14  24   9  25  14  26  14  27  14  28  14
M  ISO  3  29  14  30  14  31   9
M  END
>  <minimizedAffinity>  (1) 
-4.03722429

>  <minimizedRMSD>  (1) 
1.18268645

$$$$
