
     RDKit          3D

 24 26  0  0  0  0  0  0  0  0999 V2000
   42.5360   20.8130   37.0470 C   0  0  0  0  0  0  0  0  0  0  0  0
   41.4490   21.4890   37.6060 C   0  0  0  0  0  0  0  0  0  0  0  0
   40.5920   22.1650   36.7240 C   0  0  0  0  0  0  0  0  0  0  0  0
   40.8670   22.1230   35.3720 N   0  0  0  0  0  0  0  0  0  0  0  0
   41.9250   21.4580   34.9090 C   0  0  0  0  0  0  0  0  0  0  0  0
   42.7530   20.8100   35.7230 N   0  0  0  0  0  0  0  0  0  0  0  0
   42.0050   21.5580   33.4820 N   0  0  0  0  0  0  0  0  0  0  0  0
   42.7460   22.4180   32.7480 C   0  0  0  0  0  0  0  0  0  0  0  0
   42.4780   22.1170   31.4100 C   0  0  0  0  0  0  0  0  0  0  0  0
   41.5860   21.0870   31.4090 N   0  0  0  0  0  0  0  0  0  0  0  0
   41.3010   20.7490   32.6680 C   0  0  0  0  0  0  0  0  0  0  0  0
   39.4520   22.8750   37.2940 C   0  0  0  0  0  0  0  0  0  0  0  0
   38.6130   23.6990   36.5410 C   0  0  0  0  0  0  0  0  0  0  0  0
   37.6910   24.1650   37.4260 N   0  0  0  0  0  0  0  0  0  0  0  0
   37.9660   23.6460   38.6360 C   0  0  0  0  0  0  0  0  0  0  0  0
   39.0240   22.8680   38.5660 N   0  0  0  0  0  0  0  0  0  0  0  0
   43.2295   20.2711   37.7069 H   0  0  0  0  0  0  0  0  0  0  0  0
   41.2722   21.4914   38.6917 H   0  0  0  0  0  0  0  0  0  0  0  0
   43.4232   23.1974   33.1274 H   0  0  0  0  0  0  0  0  0  0  0  0
   42.9050   22.6156   30.5274 H   0  0  0  0  0  0  0  0  0  0  0  0
   40.6131   19.9511   32.9846 H   0  0  0  0  0  0  0  0  0  0  0  0
   38.6825   23.9226   35.4662 H   0  0  0  0  0  0  0  0  0  0  0  0
   37.3894   23.8437   39.5517 H   0  0  0  0  0  0  0  0  0  0  0  0
   39.4479   22.3470   39.3469 H   0  0  0  0  0  0  0  0  0  0  0  0
  1  2  2  0
  3 12  1  0
  3  2  1  0
  4  3  2  0
  5  4  1  0
  5  6  2  0
  6  1  1  0
  7  5  1  0
  8  7  1  0
  9  8  2  0
 10  9  1  0
 10 11  2  0
 11  7  1  0
 12 16  1  0
 13 12  2  0
 13 14  1  0
 14 15  2  0
 16 15  1  0
  1 17  1  0
  2 18  1  0
  8 19  1  0
  9 20  1  0
 11 21  1  0
 13 22  1  0
 15 23  1  0
 16 24  1  0
M  ISO  8  17  14  18  14  19  14  20  14  21  14  22  14  23  14  24   9
M  END
>  <minimizedAffinity>  (1) 
-3.93009305

>  <minimizedRMSD>  (1) 
0.124888636

$$$$
