
     RDKit          3D

 20 21  0  0  0  0  0  0  0  0999 V2000
   42.5360   20.7940   37.0690 C   0  0  0  0  0  0  0  0  0  0  0  0
   41.4300   21.4750   37.5830 C   0  0  0  0  0  0  0  0  0  0  0  0
   40.5950   22.1600   36.7090 C   0  0  0  0  0  0  0  0  0  0  0  0
   40.9180   22.1190   35.3840 N   0  0  0  0  0  0  0  0  0  0  0  0
   41.9830   21.4590   34.9230 C   0  0  0  0  0  0  0  0  0  0  0  0
   42.7890   20.8000   35.7530 N   0  0  0  0  0  0  0  0  0  0  0  0
   39.4550   22.8570   37.2740 C   0  0  0  0  0  0  0  0  0  0  0  0
   38.6020   23.6490   36.4830 C   0  0  0  0  0  0  0  0  0  0  0  0
   37.6590   24.1380   37.3440 N   0  0  0  0  0  0  0  0  0  0  0  0
   37.9590   23.6490   38.5710 C   0  0  0  0  0  0  0  0  0  0  0  0
   39.0290   22.8800   38.5550 N   0  0  0  0  0  0  0  0  0  0  0  0
   42.1710   21.5310   33.4340 C   0  0  0  0  0  0  0  0  0  0  0  0
   43.2051   20.2481   37.7504 H   0  0  0  0  0  0  0  0  0  0  0  0
   41.2233   21.4690   38.6634 H   0  0  0  0  0  0  0  0  0  0  0  0
   38.6778   23.8352   35.4015 H   0  0  0  0  0  0  0  0  0  0  0  0
   37.3759   23.8687   39.4775 H   0  0  0  0  0  0  0  0  0  0  0  0
   39.4544   22.3945   39.3576 H   0  0  0  0  0  0  0  0  0  0  0  0
   43.1766   21.9161   33.2096 H   0  0  0  0  0  0  0  0  0  0  0  0
   42.0582   20.5260   33.0012 H   0  0  0  0  0  0  0  0  0  0  0  0
   41.4158   22.2035   33.0012 H   0  0  0  0  0  0  0  0  0  0  0  0
  1  2  2  0
  3  7  1  0
  3  2  1  0
  4  3  2  0
  5  4  1  0
  5  6  2  0
  6  1  1  0
  7 11  1  0
  8  7  2  0
  8  9  1  0
  9 10  2  0
 11 10  1  0
 12  5  1  0
  1 13  1  0
  2 14  1  0
  8 15  1  0
 10 16  1  0
 11 17  1  0
 12 18  1  0
 12 19  1  0
 12 20  1  0
M  ISO  8  13  14  14  14  15  14  16  14  17   9  18   8  19   8  20   8
M  END
>  <minimizedAffinity>  (1) 
-3.78446412

>  <minimizedRMSD>  (1) 
0.113356009

$$$$
