
     RDKit          3D

 27 29  0  0  0  0  0  0  0  0999 V2000
   42.5510   20.8060   37.0420 C   0  0  0  0  0  0  0  0  0  0  0  0
   41.4490   21.4910   37.6030 C   0  0  0  0  0  0  0  0  0  0  0  0
   40.6000   22.1450   36.7200 C   0  0  0  0  0  0  0  0  0  0  0  0
   40.8760   22.0880   35.3880 N   0  0  0  0  0  0  0  0  0  0  0  0
   41.9300   21.4290   34.8990 C   0  0  0  0  0  0  0  0  0  0  0  0
   42.7650   20.7900   35.7180 N   0  0  0  0  0  0  0  0  0  0  0  0
   42.1210   21.4390   33.4500 C   0  0  0  0  0  0  0  0  0  0  0  0
   43.2650   21.9170   32.8420 C   0  0  0  0  0  0  0  0  0  0  0  0
   43.4550   21.9320   31.4740 C   0  0  0  0  0  0  0  0  0  0  0  0
   42.4020   21.4260   30.7400 C   0  0  0  0  0  0  0  0  0  0  0  0
   41.2320   20.9320   31.2710 C   0  0  0  0  0  0  0  0  0  0  0  0
   41.0910   20.9400   32.6560 C   0  0  0  0  0  0  0  0  0  0  0  0
   39.4460   22.8650   37.2740 C   0  0  0  0  0  0  0  0  0  0  0  0
   38.6000   23.6640   36.5100 C   0  0  0  0  0  0  0  0  0  0  0  0
   37.6640   24.1530   37.3690 N   0  0  0  0  0  0  0  0  0  0  0  0
   37.9570   23.6570   38.5870 C   0  0  0  0  0  0  0  0  0  0  0  0
   39.0290   22.8750   38.5590 N   0  0  0  0  0  0  0  0  0  0  0  0
   43.2484   20.2743   37.7060 H   0  0  0  0  0  0  0  0  0  0  0  0
   41.2722   21.5053   38.6886 H   0  0  0  0  0  0  0  0  0  0  0  0
   44.0695   22.3074   33.4826 H   0  0  0  0  0  0  0  0  0  0  0  0
   44.3733   22.3170   31.0066 H   0  0  0  0  0  0  0  0  0  0  0  0
   42.5055   21.4166   29.6449 H   0  0  0  0  0  0  0  0  0  0  0  0
   40.4338   20.5433   30.6216 H   0  0  0  0  0  0  0  0  0  0  0  0
   40.1715   20.5545   33.1206 H   0  0  0  0  0  0  0  0  0  0  0  0
   38.6731   23.8605   35.4302 H   0  0  0  0  0  0  0  0  0  0  0  0
   37.3770   23.8742   39.4961 H   0  0  0  0  0  0  0  0  0  0  0  0
   39.4555   22.3778   39.3538 H   0  0  0  0  0  0  0  0  0  0  0  0
  1  2  2  0
  3 13  1  0
  3  2  1  0
  4  3  2  0
  5  4  1  0
  5  6  2  0
  6  1  1  0
  7  5  1  0
  8  7  2  0
  9  8  1  0
 10 11  1  0
 10  9  2  0
 11 12  2  0
 12  7  1  0
 13 17  1  0
 14 13  2  0
 14 15  1  0
 15 16  2  0
 17 16  1  0
  1 18  1  0
  2 19  1  0
  8 20  1  0
  9 21  1  0
 10 22  1  0
 11 23  1  0
 12 24  1  0
 14 25  1  0
 16 26  1  0
 17 27  1  0
M  ISO  8  18  14  19  14  20  14  21  14  22  14  23  14  24  14  25  14
M  ISO  2  26  14  27   9
M  END
>  <minimizedAffinity>  (1) 
-3.75059581

>  <minimizedRMSD>  (1) 
0.156247377

$$$$
