
     RDKit          3D

 20 21  0  0  0  0  0  0  0  0999 V2000
   42.5490   20.7990   37.0760 C   0  0  0  0  0  0  0  0  0  0  0  0
   41.4510   21.4890   37.5980 C   0  0  0  0  0  0  0  0  0  0  0  0
   40.5950   22.1440   36.7300 C   0  0  0  0  0  0  0  0  0  0  0  0
   40.8600   22.0900   35.3720 N   0  0  0  0  0  0  0  0  0  0  0  0
   41.9250   21.4180   34.9160 C   0  0  0  0  0  0  0  0  0  0  0  0
   42.7560   20.7850   35.7390 N   0  0  0  0  0  0  0  0  0  0  0  0
   39.4510   22.8620   37.2640 C   0  0  0  0  0  0  0  0  0  0  0  0
   38.5930   23.6680   36.5030 C   0  0  0  0  0  0  0  0  0  0  0  0
   37.6640   24.1540   37.3650 N   0  0  0  0  0  0  0  0  0  0  0  0
   37.9640   23.6500   38.5950 C   0  0  0  0  0  0  0  0  0  0  0  0
   39.0280   22.8780   38.5520 N   0  0  0  0  0  0  0  0  0  0  0  0
   42.1220   21.4200   33.4660 C   0  0  0  0  0  0  0  0  0  0  0  0
   43.1350   21.9870   32.9830 O   0  0  0  0  0  0  0  0  0  0  0  0
   41.1520   20.7750   32.6730 O   0  0  0  0  0  0  0  0  0  0  0  0
   43.2408   20.2705   37.7484 H   0  0  0  0  0  0  0  0  0  0  0  0
   41.2700   21.5110   38.6828 H   0  0  0  0  0  0  0  0  0  0  0  0
   38.6593   23.8669   35.4232 H   0  0  0  0  0  0  0  0  0  0  0  0
   37.3890   23.8620   39.5084 H   0  0  0  0  0  0  0  0  0  0  0  0
   39.4577   22.3807   39.3451 H   0  0  0  0  0  0  0  0  0  0  0  0
   41.2510   20.7555   31.6882 H   0  0  0  0  0  0  0  0  0  0  0  0
  1  2  2  0
  3  7  1  0
  3  2  1  0
  4  3  2  0
  5  4  1  0
  5  6  2  0
  6  1  1  0
  7 11  1  0
  8  7  2  0
  8  9  1  0
  9 10  2  0
 11 10  1  0
 12  5  1  0
 13 12  2  0
 14 12  1  0
  1 15  1  0
  2 16  1  0
  8 17  1  0
 10 18  1  0
 11 19  1  0
 14 20  1  0
M  ISO  6  15  14  16  14  17  14  18  14  19   9  20   3
M  END
>  <minimizedAffinity>  (1) 
-3.68856812

>  <minimizedRMSD>  (1) 
0.0633849129

$$$$
