
     RDKit          3D

 41 43  0  0  0  0  0  0  0  0999 V2000
   38.7210   23.5470   37.0690 C   0  0  0  0  0  0  0  0  0  0  0  0
   41.9650   21.6790   36.9160 C   0  0  0  0  0  0  0  0  0  0  0  0
   40.6760   22.0060   37.2710 C   0  0  0  0  0  0  0  0  0  0  0  0
   40.0800   23.1510   36.7320 C   0  0  0  0  0  0  0  0  0  0  0  0
   40.8060   23.9030   35.8710 N   0  0  0  0  0  0  0  0  0  0  0  0
   42.0740   23.5680   35.5320 C   0  0  0  0  0  0  0  0  0  0  0  0
   42.6410   22.4540   36.0620 N   0  0  0  0  0  0  0  0  0  0  0  0
   42.5840   20.4510   37.5040 C   0  0  0  0  0  0  0  0  0  0  0  0
   43.1840   19.5510   36.4940 C   0  0  0  0  0  0  0  0  0  0  0  0
   38.4730   23.1850   38.5240 C   0  0  0  0  0  0  0  0  0  0  0  0
   38.4390   25.0220   36.8530 C   0  0  0  0  0  0  0  0  0  0  0  0
   37.7320   22.7720   36.2110 C   0  0  0  0  0  0  0  0  0  0  0  0
   37.8000   23.1490   34.8270 N   0  0  0  0  0  0  0  0  0  0  0  0
   38.0350   22.3790   33.7260 C   0  0  0  0  0  0  0  0  0  0  0  0
   38.0050   23.1780   32.6130 N   0  0  0  0  0  0  0  0  0  0  0  0
   37.7520   24.4210   33.0460 C   0  0  0  0  0  0  0  0  0  0  0  0
   37.6300   24.3970   34.3760 N   0  0  0  0  0  0  0  0  0  0  0  0
   37.6760   25.4320   32.0500 N   0  0  0  0  0  0  0  0  0  0  0  0
   36.5030   26.0900   31.9320 C   0  0  0  0  0  0  0  0  0  0  0  0
   36.6800   27.0190   30.9010 C   0  0  0  0  0  0  0  0  0  0  0  0
   37.9460   26.8870   30.4370 N   0  0  0  0  0  0  0  0  0  0  0  0
   38.5540   25.9060   31.1500 C   0  0  0  0  0  0  0  0  0  0  0  0
   40.1178   21.3707   37.9744 H   0  0  0  0  0  0  0  0  0  0  0  0
   42.6421   24.1961   34.8300 H   0  0  0  0  0  0  0  0  0  0  0  0
   43.3719   20.7604   38.2065 H   0  0  0  0  0  0  0  0  0  0  0  0
   41.7793   19.8891   38.0008 H   0  0  0  0  0  0  0  0  0  0  0  0
   43.7253   18.7391   37.0018 H   0  0  0  0  0  0  0  0  0  0  0  0
   42.3891   19.1243   35.8647 H   0  0  0  0  0  0  0  0  0  0  0  0
   43.8837   20.1207   35.8647 H   0  0  0  0  0  0  0  0  0  0  0  0
   38.9743   23.9168   39.1745 H   0  0  0  0  0  0  0  0  0  0  0  0
   37.3916   23.1957   38.7253 H   0  0  0  0  0  0  0  0  0  0  0  0
   38.8735   22.1805   38.7253 H   0  0  0  0  0  0  0  0  0  0  0  0
   38.3431   25.5235   37.8273 H   0  0  0  0  0  0  0  0  0  0  0  0
   39.2669   25.4746   36.2875 H   0  0  0  0  0  0  0  0  0  0  0  0
   37.5025   25.1373   36.2875 H   0  0  0  0  0  0  0  0  0  0  0  0
   37.9547   21.6982   36.2966 H   0  0  0  0  0  0  0  0  0  0  0  0
   36.7192   23.0019   36.5734 H   0  0  0  0  0  0  0  0  0  0  0  0
   38.2185   21.2944   33.7307 H   0  0  0  0  0  0  0  0  0  0  0  0
   35.5918   25.9283   32.5266 H   0  0  0  0  0  0  0  0  0  0  0  0
   35.9257   27.7299   30.5327 H   0  0  0  0  0  0  0  0  0  0  0  0
   39.5887   25.5581   31.0145 H   0  0  0  0  0  0  0  0  0  0  0  0
  1 10  1  0
  2  3  2  0
  2  8  1  0
  4  1  1  0
  4  3  1  0
  5  4  2  0
  6  5  1  0
  6  7  2  0
  7  2  1  0
  9  8  1  0
 11  1  1  0
 12  1  1  0
 13 12  1  0
 14 13  1  0
 15 16  1  0
 15 14  2  0
 16 17  2  0
 17 13  1  0
 18 16  1  0
 19 18  1  0
 20 19  2  0
 21 20  1  0
 21 22  2  0
 22 18  1  0
  3 23  1  0
  6 24  1  0
  8 25  1  0
  8 26  1  0
  9 27  1  0
  9 28  1  0
  9 29  1  0
 10 30  1  0
 10 31  1  0
 10 32  1  0
 11 33  1  0
 11 34  1  0
 11 35  1  0
 12 36  1  0
 12 37  1  0
 14 38  1  0
 19 39  1  0
 20 40  1  0
 22 41  1  0
M  ISO  8  23  14  24  14  25   8  26   8  27   8  28   8  29   8  30   8
M  ISO  8  31   8  32   8  33   8  34   8  35   8  36   8  37   8  38  14
M  ISO  3  39  14  40  14  41  14
M  END
>  <minimizedAffinity>  (1) 
-4.52538252

>  <minimizedRMSD>  (1) 
1.01937747

$$$$
