
     RDKit          3D

 23 24  0  0  0  0  0  0  0  0999 V2000
   42.5440   20.8000   37.0610 C   0  0  0  0  0  0  0  0  0  0  0  0
   41.4380   21.4880   37.5960 C   0  0  0  0  0  0  0  0  0  0  0  0
   40.5960   22.1530   36.7190 C   0  0  0  0  0  0  0  0  0  0  0  0
   40.8880   22.1060   35.3670 N   0  0  0  0  0  0  0  0  0  0  0  0
   41.9520   21.4380   34.9080 C   0  0  0  0  0  0  0  0  0  0  0  0
   42.7800   20.7880   35.7300 N   0  0  0  0  0  0  0  0  0  0  0  0
   39.4490   22.8690   37.2530 C   0  0  0  0  0  0  0  0  0  0  0  0
   38.5970   23.6690   36.4950 C   0  0  0  0  0  0  0  0  0  0  0  0
   37.6610   24.1520   37.3690 N   0  0  0  0  0  0  0  0  0  0  0  0
   37.9670   23.6430   38.5950 C   0  0  0  0  0  0  0  0  0  0  0  0
   39.0360   22.8730   38.5430 N   0  0  0  0  0  0  0  0  0  0  0  0
   42.2850   21.3710   33.4700 C   0  0  0  0  0  0  0  0  0  0  0  0
   41.3060   20.5580   32.6670 C   0  0  0  0  0  0  0  0  0  0  0  0
   43.2266   20.2639   37.7367 H   0  0  0  0  0  0  0  0  0  0  0  0
   41.2478   21.4973   38.6794 H   0  0  0  0  0  0  0  0  0  0  0  0
   38.6629   23.8710   35.4157 H   0  0  0  0  0  0  0  0  0  0  0  0
   37.3949   23.8483   39.5118 H   0  0  0  0  0  0  0  0  0  0  0  0
   39.4722   22.3720   39.3302 H   0  0  0  0  0  0  0  0  0  0  0  0
   42.3008   22.3947   33.0677 H   0  0  0  0  0  0  0  0  0  0  0  0
   43.2638   20.8761   33.3861 H   0  0  0  0  0  0  0  0  0  0  0  0
   40.6417   20.0063   33.3484 H   0  0  0  0  0  0  0  0  0  0  0  0
   40.7065   21.2276   32.0328 H   0  0  0  0  0  0  0  0  0  0  0  0
   41.8541   19.8457   32.0328 H   0  0  0  0  0  0  0  0  0  0  0  0
  1  2  2  0
  3  7  1  0
  3  2  1  0
  4  3  2  0
  5  4  1  0
  5  6  2  0
  6  1  1  0
  7 11  1  0
  8  7  2  0
  8  9  1  0
  9 10  2  0
 11 10  1  0
 12  5  1  0
 13 12  1  0
  1 14  1  0
  2 15  1  0
  8 16  1  0
 10 17  1  0
 11 18  1  0
 12 19  1  0
 12 20  1  0
 13 21  1  0
 13 22  1  0
 13 23  1  0
M  ISO  8  14  14  15  14  16  14  17  14  18   9  19   8  20   8  21   8
M  ISO  2  22   8  23   8
M  END
>  <minimizedAffinity>  (1) 
-3.64872551

>  <minimizedRMSD>  (1) 
0.0621839128

$$$$
