
     RDKit          3D

 33 35  0  0  0  0  0  0  0  0999 V2000
   42.5190   20.8190   37.0130 C   0  0  0  0  0  0  0  0  0  0  0  0
   41.4270   21.4910   37.5660 C   0  0  0  0  0  0  0  0  0  0  0  0
   40.5750   22.1880   36.7160 C   0  0  0  0  0  0  0  0  0  0  0  0
   40.8590   22.1750   35.3720 N   0  0  0  0  0  0  0  0  0  0  0  0
   41.9150   21.5170   34.8930 C   0  0  0  0  0  0  0  0  0  0  0  0
   42.7420   20.8460   35.6900 N   0  0  0  0  0  0  0  0  0  0  0  0
   39.4400   22.8870   37.2970 C   0  0  0  0  0  0  0  0  0  0  0  0
   38.5780   23.7150   36.5690 C   0  0  0  0  0  0  0  0  0  0  0  0
   37.6590   24.1700   37.4680 N   0  0  0  0  0  0  0  0  0  0  0  0
   37.9770   23.6280   38.6590 C   0  0  0  0  0  0  0  0  0  0  0  0
   39.0380   22.8530   38.5960 N   0  0  0  0  0  0  0  0  0  0  0  0
   42.2300   21.4980   33.4400 C   0  0  0  0  0  0  0  0  0  0  0  0
   40.9730   21.0120   32.7530 C   0  0  0  0  0  0  0  0  0  0  0  0
   40.9910   21.1650   31.2660 C   0  0  0  0  0  0  0  0  0  0  0  0
   41.6750   22.4270   30.8380 C   0  0  0  0  0  0  0  0  0  0  0  0
   41.7100   23.4230   31.9570 C   0  0  0  0  0  0  0  0  0  0  0  0
   42.6030   22.9040   33.0520 C   0  0  0  0  0  0  0  0  0  0  0  0
   43.2038   20.2615   37.6689 H   0  0  0  0  0  0  0  0  0  0  0  0
   41.2446   21.4696   38.6506 H   0  0  0  0  0  0  0  0  0  0  0  0
   38.6307   23.9498   35.4956 H   0  0  0  0  0  0  0  0  0  0  0  0
   37.4111   23.8132   39.5839 H   0  0  0  0  0  0  0  0  0  0  0  0
   39.4735   22.3297   39.3689 H   0  0  0  0  0  0  0  0  0  0  0  0
   43.0663   20.8402   33.1609 H   0  0  0  0  0  0  0  0  0  0  0  0
   40.8409   19.9457   32.9888 H   0  0  0  0  0  0  0  0  0  0  0  0
   40.1470   21.6356   33.1257 H   0  0  0  0  0  0  0  0  0  0  0  0
   41.5222   20.3073   30.8275 H   0  0  0  0  0  0  0  0  0  0  0  0
   39.9487   21.2094   30.9173 H   0  0  0  0  0  0  0  0  0  0  0  0
   42.7054   22.1923   30.5326 H   0  0  0  0  0  0  0  0  0  0  0  0
   41.1146   22.8625   29.9976 H   0  0  0  0  0  0  0  0  0  0  0  0
   42.1023   24.3810   31.5850 H   0  0  0  0  0  0  0  0  0  0  0  0
   40.6936   23.5750   32.3491 H   0  0  0  0  0  0  0  0  0  0  0  0
   43.6451   22.9143   32.6999 H   0  0  0  0  0  0  0  0  0  0  0  0
   42.4843   23.5511   33.9336 H   0  0  0  0  0  0  0  0  0  0  0  0
  1  2  2  0
  3  7  1  0
  3  2  1  0
  4  3  2  0
  5  4  1  0
  5  6  2  0
  6  1  1  0
  7 11  1  0
  8  7  2  0
  8  9  1  0
  9 10  2  0
 11 10  1  0
 12  5  1  0
 13 12  1  0
 14 13  1  0
 15 14  1  0
 15 16  1  0
 16 17  1  0
 17 12  1  0
  1 18  1  0
  2 19  1  0
  8 20  1  0
 10 21  1  0
 11 22  1  0
 12 23  1  0
 13 24  1  0
 13 25  1  0
 14 26  1  0
 14 27  1  0
 15 28  1  0
 15 29  1  0
 16 30  1  0
 16 31  1  0
 17 32  1  0
 17 33  1  0
M  ISO  8  18  14  19  14  20  14  21  14  22   9  23  13  24  13  25  13
M  ISO  8  26  13  27  13  28  13  29  13  30  13  31  13  32  13  33  13
M  END
>  <minimizedAffinity>  (1) 
-3.83511782

>  <minimizedRMSD>  (1) 
0.377818257

$$$$
