
     RDKit          3D

 40 42  0  0  0  0  0  0  0  0999 V2000
   42.5233   20.8269   37.0114 C   0  0  0  0  0  0  0  0  0  0  0  0
   41.4367   21.5029   37.5669 C   0  0  0  0  0  0  0  0  0  0  0  0
   40.5851   22.1903   36.7235 C   0  0  0  0  0  0  0  0  0  0  0  0
   40.8629   22.1670   35.3727 N   0  0  0  0  0  0  0  0  0  0  0  0
   41.9162   21.5042   34.8934 C   0  0  0  0  0  0  0  0  0  0  0  0
   42.7314   20.8465   35.6961 N   0  0  0  0  0  0  0  0  0  0  0  0
   39.4365   22.8976   37.2880 C   0  0  0  0  0  0  0  0  0  0  0  0
   38.5883   23.7306   36.5685 C   0  0  0  0  0  0  0  0  0  0  0  0
   37.6623   24.1717   37.4713 N   0  0  0  0  0  0  0  0  0  0  0  0
   37.9720   23.6141   38.6471 C   0  0  0  0  0  0  0  0  0  0  0  0
   39.0306   22.8378   38.5962 N   0  0  0  0  0  0  0  0  0  0  0  0
   42.2163   21.4833   33.4318 C   0  0  1  0  0  0  0  0  0  0  0  0
   40.9510   21.0338   32.7586 C   0  0  0  0  0  0  0  0  0  0  0  0
   41.0344   21.1432   31.2719 C   0  0  0  0  0  0  0  0  0  0  0  0
   41.6479   22.4455   30.8387 C   0  0  0  0  0  0  0  0  0  0  0  0
   41.7124   23.4332   31.9634 C   0  0  0  0  0  0  0  0  0  0  0  0
   42.6036   22.8895   33.0454 C   0  0  1  0  0  0  0  0  0  0  0  0
   43.1979   20.2818   37.6848 H   0  0  0  0  0  0  0  0  0  0  0  0
   41.2344   21.5100   38.6331 H   0  0  0  0  0  0  0  0  0  0  0  0
   38.6288   23.9908   35.5219 H   0  0  0  0  0  0  0  0  0  0  0  0
   37.3323   23.8568   39.4933 H   0  0  0  0  0  0  0  0  0  0  0  0
   39.4680   22.2965   39.3707 H   0  0  0  0  0  0  0  0  0  0  0  0
   43.0089   20.7593   33.1884 H   0  0  0  0  0  0  0  0  0  0  0  0
   40.1092   21.6659   33.0990 H   0  0  0  0  0  0  0  0  0  0  0  0
   40.7579   19.9909   33.0404 H   0  0  0  0  0  0  0  0  0  0  0  0
   40.0845   20.8924   30.7997 H   0  0  0  0  0  0  0  0  0  0  0  0
   41.7486   20.3422   30.9272 H   0  0  0  0  0  0  0  0  0  0  0  0
   40.9574   22.8871   30.0721 H   0  0  0  0  0  0  0  0  0  0  0  0
   42.6369   22.3512   30.3780 H   0  0  0  0  0  0  0  0  0  0  0  0
   42.2061   24.3561   31.5679 H   0  0  0  0  0  0  0  0  0  0  0  0
   40.7194   23.7002   32.3589 H   0  0  0  0  0  0  0  0  0  0  0  0
   43.6209   22.8123   32.5563 H   0  0  0  0  0  0  0  0  0  0  0  0
   42.7514   23.7868   34.1513 N   0  0  0  0  0  0  0  0  0  0  0  0
   43.0820   25.1401   34.0073 C   0  0  0  0  0  0  0  0  0  0  0  0
   42.5908   25.7501   32.9562 N   0  0  0  0  0  0  0  0  0  0  0  0
   43.9205   25.7693   34.9971 N   0  0  0  0  0  0  0  0  0  0  0  0
   42.5963   23.3726   35.1164 H   0  0  0  0  0  0  0  0  0  0  0  0
   42.8079   26.7626   32.8016 H   0  0  0  0  0  0  0  0  0  0  0  0
   43.2396   25.8525   35.7845 H   0  0  0  0  0  0  0  0  0  0  0  0
   43.7810   26.0993   35.9965 H   0  0  0  0  0  0  0  0  0  0  0  0
  1  2  2  0
  3  7  1  0
  3  2  1  0
  4  3  2  0
  5  4  1  0
  5  6  2  0
  6  1  1  0
  7 11  1  0
  8  7  2  0
  8  9  1  0
  9 10  2  0
 11 10  1  0
 12  5  1  0
 13 12  1  0
 14 13  1  0
 15 14  1  0
 15 16  1  0
 16 17  1  0
 17 12  1  0
  1 18  1  0
  2 19  1  0
  8 20  1  0
 10 21  1  0
 11 22  1  0
 12 23  1  1
 13 24  1  0
 13 25  1  0
 14 26  1  0
 14 27  1  0
 15 28  1  0
 15 29  1  0
 16 30  1  0
 16 31  1  0
 17 32  1  6
 33 34  1  0
 34 35  2  3
 34 36  1  0
 33 37  1  0
 35 38  1  0
 36 39  1  0
 36 40  1  0
 17 33  1  0
M  END
>  <DihAtoms>  (1) 
15,16,32,33

>  <DihDeg>  (1) 
-169.57231623625168

$$$$
