
     RDKit          3D

 40 43  0  0  1  0  0  0  0  0999 V2000
   42.7840   22.2250   33.6580 C   0  0  1  0  0  0  0  0  0  0  0  0
   41.5670   22.3720   32.7850 C   0  0  0  0  0  0  0  0  0  0  0  0
   41.8620   22.8460   31.3990 C   0  0  0  0  0  0  0  0  0  0  0  0
   42.9560   23.8570   31.3790 C   0  0  0  0  0  0  0  0  0  0  0  0
   43.1250   24.4890   32.7270 C   0  0  0  0  0  0  0  0  0  0  0  0
   43.6450   23.4640   33.6800 C   0  0  1  0  0  0  0  0  0  0  0  0
   42.5830   20.8950   37.0390 C   0  0  0  0  0  0  0  0  0  0  0  0
   41.4350   21.4910   37.5600 C   0  0  0  0  0  0  0  0  0  0  0  0
   40.7190   22.3570   36.7440 C   0  0  0  0  0  0  0  0  0  0  0  0
   41.1950   22.5620   35.4840 N   0  0  0  0  0  0  0  0  0  0  0  0
   42.2940   21.9760   35.0230 C   0  0  0  0  0  0  0  0  0  0  0  0
   42.9780   21.1520   35.7960 N   0  0  0  0  0  0  0  0  0  0  0  0
   39.5110   22.9870   37.2810 C   0  0  0  0  0  0  0  0  0  0  0  0
   38.6630   23.8040   36.5420 C   0  0  0  0  0  0  0  0  0  0  0  0
   37.6730   24.1770   37.4050 N   0  0  0  0  0  0  0  0  0  0  0  0
   37.9450   23.6020   38.5800 C   0  0  0  0  0  0  0  0  0  0  0  0
   39.0410   22.8790   38.5450 N   0  0  0  0  0  0  0  0  0  0  0  0
   43.9360   24.0160   34.9980 C   0  0  0  0  0  0  0  0  0  0  0  0
   44.8980   23.6640   35.9530 C   0  0  0  0  0  0  0  0  0  0  0  0
   44.8390   24.4580   37.0750 C   0  0  0  0  0  0  0  0  0  0  0  0
   43.8300   25.2990   36.7930 N   0  0  0  0  0  0  0  0  0  0  0  0
   43.3010   25.0590   35.6060 N   0  0  0  0  0  0  0  0  0  0  0  0
   43.4063   21.4082   33.2634 H   0  0  0  0  0  0  0  0  0  0  0  0
   41.0710   21.3925   32.7165 H   0  0  0  0  0  0  0  0  0  0  0  0
   40.9324   23.1388   33.2533 H   0  0  0  0  0  0  0  0  0  0  0  0
   42.1627   21.9844   30.7849 H   0  0  0  0  0  0  0  0  0  0  0  0
   40.9529   23.3194   30.9997 H   0  0  0  0  0  0  0  0  0  0  0  0
   43.8966   23.3642   31.0919 H   0  0  0  0  0  0  0  0  0  0  0  0
   42.6961   24.6416   30.6532 H   0  0  0  0  0  0  0  0  0  0  0  0
   43.8383   25.3234   32.6568 H   0  0  0  0  0  0  0  0  0  0  0  0
   42.1572   24.8719   33.0830 H   0  0  0  0  0  0  0  0  0  0  0  0
   44.6341   23.1286   33.3349 H   0  0  0  0  0  0  0  0  0  0  0  0
   43.1684   20.2043   37.6637 H   0  0  0  0  0  0  0  0  0  0  0  0
   41.1058   21.2811   38.5884 H   0  0  0  0  0  0  0  0  0  0  0  0
   38.7676   24.0897   35.4849 H   0  0  0  0  0  0  0  0  0  0  0  0
   37.3201   23.7210   39.4774 H   0  0  0  0  0  0  0  0  0  0  0  0
   39.4564   22.3414   39.3192 H   0  0  0  0  0  0  0  0  0  0  0  0
   45.6198   22.8446   35.8208 H   0  0  0  0  0  0  0  0  0  0  0  0
   45.4636   24.4149   37.9794 H   0  0  0  0  0  0  0  0  0  0  0  0
   43.5067   26.0433   37.4274 H   0  0  0  0  0  0  0  0  0  0  0  0
  1  6  1  0
  1 11  1  0
  2  1  1  0
  3  2  1  0
  4  3  1  0
  4  5  1  0
  5  6  1  0
  6 18  1  0
  7  8  2  0
  9 13  1  0
  9  8  1  0
 10  9  2  0
 11 10  1  0
 11 12  2  0
 12  7  1  0
 13 17  1  0
 14 13  2  0
 14 15  1  0
 15 16  2  0
 17 16  1  0
 18 22  2  0
 18 19  1  0
 19 20  2  0
 21 20  1  0
 22 21  1  0
  1 23  1  6
  2 24  1  0
  2 25  1  0
  3 26  1  0
  3 27  1  0
  4 28  1  0
  4 29  1  0
  5 30  1  0
  5 31  1  0
  6 32  1  6
  7 33  1  0
  8 34  1  0
 14 35  1  0
 16 36  1  0
 17 37  1  0
 19 38  1  0
 20 39  1  0
 21 40  1  0
M  ISO  8  23  13  24  13  25  13  26  13  27  13  28  13  29  13  30  13
M  ISO  8  31  13  32  13  33  14  34  14  35  14  36  14  37   9  38  14
M  ISO  2  39  14  40   9
M  END
>  <minimizedAffinity>  (1) 
-4.58345985

>  <minimizedRMSD>  (1) 
1.27765524

$$$$
