
     RDKit          3D

 36 38  0  0  1  0  0  0  0  0999 V2000
   42.2290   21.5370   33.4670 C   0  0  1  0  0  0  0  0  0  0  0  0
   40.9640   21.0540   32.7720 C   0  0  0  0  0  0  0  0  0  0  0  0
   40.9920   21.1840   31.2850 C   0  0  0  0  0  0  0  0  0  0  0  0
   41.6640   22.4620   30.8550 C   0  0  0  0  0  0  0  0  0  0  0  0
   41.6890   23.4460   31.9710 C   0  0  0  0  0  0  0  0  0  0  0  0
   42.6090   22.9080   33.0530 C   0  0  1  0  0  0  0  0  0  0  0  0
   42.5090   20.8330   37.0270 C   0  0  0  0  0  0  0  0  0  0  0  0
   41.4090   21.5010   37.5770 C   0  0  0  0  0  0  0  0  0  0  0  0
   40.5550   22.2010   36.7340 C   0  0  0  0  0  0  0  0  0  0  0  0
   40.8490   22.1920   35.3920 N   0  0  0  0  0  0  0  0  0  0  0  0
   41.9180   21.5360   34.9130 C   0  0  0  0  0  0  0  0  0  0  0  0
   42.7290   20.8700   35.7140 N   0  0  0  0  0  0  0  0  0  0  0  0
   39.4210   22.8880   37.3080 C   0  0  0  0  0  0  0  0  0  0  0  0
   38.5550   23.7040   36.5850 C   0  0  0  0  0  0  0  0  0  0  0  0
   37.6350   24.1570   37.4800 N   0  0  0  0  0  0  0  0  0  0  0  0
   37.9580   23.6210   38.6760 C   0  0  0  0  0  0  0  0  0  0  0  0
   39.0220   22.8570   38.6080 N   0  0  0  0  0  0  0  0  0  0  0  0
   42.8770   23.8850   34.1070 C   0  0  0  0  0  0  0  0  0  0  0  0
   42.4190   24.9780   34.5190 O   0  0  0  0  0  0  0  0  0  0  0  0
   43.9650   23.4680   34.8720 O   0  0  0  0  0  0  0  0  0  0  0  0
   43.0743   20.8830   33.2068 H   0  0  0  0  0  0  0  0  0  0  0  0
   40.8171   19.9930   33.0223 H   0  0  0  0  0  0  0  0  0  0  0  0
   40.1443   21.6949   33.1288 H   0  0  0  0  0  0  0  0  0  0  0  0
   41.5425   20.3308   30.8619 H   0  0  0  0  0  0  0  0  0  0  0  0
   39.9543   21.2001   30.9204 H   0  0  0  0  0  0  0  0  0  0  0  0
   42.6962   22.2406   30.5459 H   0  0  0  0  0  0  0  0  0  0  0  0
   41.0980   22.8936   30.0163 H   0  0  0  0  0  0  0  0  0  0  0  0
   42.0666   24.4130   31.6072 H   0  0  0  0  0  0  0  0  0  0  0  0
   40.6753   23.5943   32.3714 H   0  0  0  0  0  0  0  0  0  0  0  0
   43.6130   22.7642   32.6272 H   0  0  0  0  0  0  0  0  0  0  0  0
   43.1946   20.2752   37.6818 H   0  0  0  0  0  0  0  0  0  0  0  0
   41.2234   21.4722   38.6608 H   0  0  0  0  0  0  0  0  0  0  0  0
   38.6042   23.9352   35.5107 H   0  0  0  0  0  0  0  0  0  0  0  0
   37.3933   23.8041   39.6021 H   0  0  0  0  0  0  0  0  0  0  0  0
   39.4647   22.3396   39.3808 H   0  0  0  0  0  0  0  0  0  0  0  0
   44.2774   24.0213   35.6312 H   0  0  0  0  0  0  0  0  0  0  0  0
  1 11  1  0
  2  1  1  0
  3  2  1  0
  4  3  1  0
  4  5  1  0
  5  6  1  0
  6  1  1  0
  6 18  1  0
  7  8  2  0
  9 13  1  0
  9  8  1  0
 10  9  2  0
 11 10  1  0
 11 12  2  0
 12  7  1  0
 13 17  1  0
 14 13  2  0
 14 15  1  0
 15 16  2  0
 17 16  1  0
 18 19  2  0
 18 20  1  0
  1 21  1  1
  2 22  1  0
  2 23  1  0
  3 24  1  0
  3 25  1  0
  4 26  1  0
  4 27  1  0
  5 28  1  0
  5 29  1  0
  6 30  1  6
  7 31  1  0
  8 32  1  0
 14 33  1  0
 16 34  1  0
 17 35  1  0
 20 36  1  0
M  ISO  8  21  13  22  13  23  13  24  13  25  13  26  13  27  13  28  13
M  ISO  8  29  13  30  13  31  14  32  14  33  14  34  14  35   9  36   3
M  END
>  <minimizedAffinity>  (1) 
-3.96878242

>  <minimizedRMSD>  (1) 
0.100660972

$$$$
