
     RDKit          3D

 39 42  0  0  1  0  0  0  0  0999 V2000
   43.3110   23.0840   34.1680 C   0  0  1  0  0  0  0  0  0  0  0  0
   42.9140   22.2310   32.9980 C   0  0  0  0  0  0  0  0  0  0  0  0
   43.2980   22.8080   31.6630 C   0  0  0  0  0  0  0  0  0  0  0  0
   43.2240   24.2930   31.6300 C   0  0  0  0  0  0  0  0  0  0  0  0
   42.2850   24.7890   32.6890 C   0  0  0  0  0  0  0  0  0  0  0  0
   42.8810   24.5300   34.0470 C   0  0  2  0  0  0  0  0  0  0  0  0
   42.6030   20.9590   37.0520 C   0  0  0  0  0  0  0  0  0  0  0  0
   41.3820   21.4410   37.5270 C   0  0  0  0  0  0  0  0  0  0  0  0
   40.7920   22.5000   36.8600 C   0  0  0  0  0  0  0  0  0  0  0  0
   41.4450   23.0160   35.7640 N   0  0  0  0  0  0  0  0  0  0  0  0
   42.6180   22.5160   35.3490 C   0  0  0  0  0  0  0  0  0  0  0  0
   43.1890   21.5070   35.9770 N   0  0  0  0  0  0  0  0  0  0  0  0
   39.5100   23.0210   37.3340 C   0  0  0  0  0  0  0  0  0  0  0  0
   38.6400   23.8000   36.5810 C   0  0  0  0  0  0  0  0  0  0  0  0
   37.5850   24.0540   37.4100 N   0  0  0  0  0  0  0  0  0  0  0  0
   37.8450   23.4440   38.5840 C   0  0  0  0  0  0  0  0  0  0  0  0
   38.9890   22.8130   38.5830 N   0  0  0  0  0  0  0  0  0  0  0  0
   44.0260   25.4720   34.3190 C   0  0  0  0  0  0  0  0  0  0  0  0
   43.7640   26.8080   34.0310 C   0  0  0  0  0  0  0  0  0  0  0  0
   45.3620   27.6730   34.4750 S   0  0  0  0  0  0  0  0  0  0  0  0
   46.1000   26.0040   34.9820 C   0  0  0  0  0  0  0  0  0  0  0  0
   45.2480   25.3050   34.7790 N   0  0  0  0  0  0  0  0  0  0  0  0
   44.4089   23.0795   34.2356 H   0  0  0  0  0  0  0  0  0  0  0  0
   43.4005   21.2502   33.1039 H   0  0  0  0  0  0  0  0  0  0  0  0
   41.8162   22.1625   33.0116 H   0  0  0  0  0  0  0  0  0  0  0  0
   44.3295   22.5030   31.4327 H   0  0  0  0  0  0  0  0  0  0  0  0
   42.5819   22.4258   30.9206 H   0  0  0  0  0  0  0  0  0  0  0  0
   44.2259   24.7107   31.8083 H   0  0  0  0  0  0  0  0  0  0  0  0
   42.8538   24.6119   30.6445 H   0  0  0  0  0  0  0  0  0  0  0  0
   42.1231   25.8693   32.5592 H   0  0  0  0  0  0  0  0  0  0  0  0
   41.3232   24.2621   32.6033 H   0  0  0  0  0  0  0  0  0  0  0  0
   42.1110   24.7184   34.8097 H   0  0  0  0  0  0  0  0  0  0  0  0
   43.0913   20.1182   37.5664 H   0  0  0  0  0  0  0  0  0  0  0  0
   40.9016   20.9908   38.4082 H   0  0  0  0  0  0  0  0  0  0  0  0
   38.7723   24.1385   35.5428 H   0  0  0  0  0  0  0  0  0  0  0  0
   37.1668   23.4744   39.4496 H   0  0  0  0  0  0  0  0  0  0  0  0
   39.4083   22.2753   39.3550 H   0  0  0  0  0  0  0  0  0  0  0  0
   42.8375   27.2503   33.6361 H   0  0  0  0  0  0  0  0  0  0  0  0
   47.1031   25.7794   35.3735 H   0  0  0  0  0  0  0  0  0  0  0  0
  1 11  1  0
  2  1  1  0
  3  2  1  0
  4  3  1  0
  4  5  1  0
  5  6  1  0
  6  1  1  0
  6 18  1  0
  7  8  2  0
  9 13  1  0
  9  8  1  0
 10  9  2  0
 11 10  1  0
 11 12  2  0
 12  7  1  0
 13 17  1  0
 14 13  2  0
 14 15  1  0
 15 16  2  0
 17 16  1  0
 18 22  1  0
 19 18  2  0
 19 20  1  0
 20 21  1  0
 22 21  2  0
  1 23  1  1
  2 24  1  0
  2 25  1  0
  3 26  1  0
  3 27  1  0
  4 28  1  0
  4 29  1  0
  5 30  1  0
  5 31  1  0
  6 32  1  1
  7 33  1  0
  8 34  1  0
 14 35  1  0
 16 36  1  0
 17 37  1  0
 19 38  1  0
 21 39  1  0
M  ISO  8  23  13  24  13  25  13  26  13  27  13  28  13  29  13  30  13
M  ISO  8  31  13  32  13  33  14  34  14  35  14  36  14  37   9  38  14
M  ISO  1  39  14
M  END
>  <minimizedAffinity>  (1) 
-4.40981531

>  <minimizedRMSD>  (1) 
2.28912115

$$$$
