
     RDKit          3D

 36 38  0  0  1  0  0  0  0  0999 V2000
   42.3050   21.3900   33.4900 C   0  0  1  0  0  0  0  0  0  0  0  0
   40.9810   21.3300   32.7800 C   0  0  0  0  0  0  0  0  0  0  0  0
   41.0890   21.5220   31.2950 C   0  0  0  0  0  0  0  0  0  0  0  0
   42.1340   22.5340   30.9340 C   0  0  0  0  0  0  0  0  0  0  0  0
   42.4330   23.4300   32.0920 C   0  0  0  0  0  0  0  0  0  0  0  0
   43.1060   22.6250   33.1750 C   0  0  1  0  0  0  0  0  0  0  0  0
   42.5350   20.8060   37.0950 C   0  0  0  0  0  0  0  0  0  0  0  0
   41.4350   21.4900   37.6050 C   0  0  0  0  0  0  0  0  0  0  0  0
   40.5910   22.1650   36.7170 C   0  0  0  0  0  0  0  0  0  0  0  0
   40.9100   22.1050   35.3920 N   0  0  0  0  0  0  0  0  0  0  0  0
   41.9770   21.4370   34.9470 C   0  0  0  0  0  0  0  0  0  0  0  0
   42.7760   20.8000   35.7810 N   0  0  0  0  0  0  0  0  0  0  0  0
   39.4420   22.8730   37.2620 C   0  0  0  0  0  0  0  0  0  0  0  0
   38.5910   23.6660   36.5000 C   0  0  0  0  0  0  0  0  0  0  0  0
   37.6590   24.1410   37.3750 N   0  0  0  0  0  0  0  0  0  0  0  0
   37.9660   23.6390   38.5880 C   0  0  0  0  0  0  0  0  0  0  0  0
   39.0260   22.8760   38.5610 N   0  0  0  0  0  0  0  0  0  0  0  0
   43.3970   23.5070   34.3400 C   0  0  0  0  0  0  0  0  0  0  0  0
   42.9095   20.5258   33.1775 H   0  0  0  0  0  0  0  0  0  0  0  0
   40.5272   20.3465   32.9719 H   0  0  0  0  0  0  0  0  0  0  0  0
   40.3672   22.1556   33.1694 H   0  0  0  0  0  0  0  0  0  0  0  0
   41.3511   20.5599   30.8307 H   0  0  0  0  0  0  0  0  0  0  0  0
   40.1192   21.8897   30.9286 H   0  0  0  0  0  0  0  0  0  0  0  0
   43.0547   22.0104   30.6370 H   0  0  0  0  0  0  0  0  0  0  0  0
   41.7556   23.1482   30.1036 H   0  0  0  0  0  0  0  0  0  0  0  0
   43.1004   24.2419   31.7673 H   0  0  0  0  0  0  0  0  0  0  0  0
   41.4983   23.8632   32.4776 H   0  0  0  0  0  0  0  0  0  0  0  0
   44.0807   22.2449   32.8352 H   0  0  0  0  0  0  0  0  0  0  0  0
   43.2092   20.2677   37.7774 H   0  0  0  0  0  0  0  0  0  0  0  0
   41.2333   21.4995   38.6863 H   0  0  0  0  0  0  0  0  0  0  0  0
   38.6558   23.8674   35.4205 H   0  0  0  0  0  0  0  0  0  0  0  0
   37.3877   23.8488   39.4999 H   0  0  0  0  0  0  0  0  0  0  0  0
   39.4573   22.3805   39.3544 H   0  0  0  0  0  0  0  0  0  0  0  0
   43.2145   22.9540   35.2732 H   0  0  0  0  0  0  0  0  0  0  0  0
   44.4486   23.8277   34.3035 H   0  0  0  0  0  0  0  0  0  0  0  0
   42.7427   24.3905   34.3035 H   0  0  0  0  0  0  0  0  0  0  0  0
  1 11  1  0
  2  1  1  0
  3  2  1  0
  4  3  1  0
  4  5  1  0
  5  6  1  0
  6  1  1  0
  6 18  1  0
  7  8  2  0
  9 13  1  0
  9  8  1  0
 10  9  2  0
 11 10  1  0
 11 12  2  0
 12  7  1  0
 13 17  1  0
 14 13  2  0
 14 15  1  0
 15 16  2  0
 17 16  1  0
  1 19  1  1
  2 20  1  0
  2 21  1  0
  3 22  1  0
  3 23  1  0
  4 24  1  0
  4 25  1  0
  5 26  1  0
  5 27  1  0
  6 28  1  6
  7 29  1  0
  8 30  1  0
 14 31  1  0
 16 32  1  0
 17 33  1  0
 18 34  1  0
 18 35  1  0
 18 36  1  0
M  ISO  8  19  13  20  13  21  13  22  13  23  13  24  13  25  13  26  13
M  ISO  8  27  13  28  13  29  14  30  14  31  14  32  14  33   9  34   8
M  ISO  2  35   8  36   8
M  END
>  <minimizedAffinity>  (1) 
-3.9075191

>  <minimizedRMSD>  (1) 
0.353776336

$$$$
