
     RDKit          3D

 45 47  0  0  1  0  0  0  0  0999 V2000
   37.9840   25.6750   31.7400 C   0  0  1  0  0  0  0  0  0  0  0  0
   37.0590   24.5840   32.1960 C   0  0  0  0  0  0  0  0  0  0  0  0
   35.8310   24.4570   31.3450 C   0  0  0  0  0  0  0  0  0  0  0  0
   35.3180   25.7630   30.8770 C   0  0  0  0  0  0  0  0  0  0  0  0
   35.8320   26.8670   31.7350 C   0  0  0  0  0  0  0  0  0  0  0  0
   37.3280   27.0170   31.5670 C   0  0  2  0  0  0  0  0  0  0  0  0
   40.6330   27.1210   33.8120 C   0  0  0  0  0  0  0  0  0  0  0  0
   40.8340   26.1400   34.7640 C   0  0  0  0  0  0  0  0  0  0  0  0
   40.1010   24.9690   34.7310 C   0  0  0  0  0  0  0  0  0  0  0  0
   39.1830   24.8490   33.7210 N   0  0  0  0  0  0  0  0  0  0  0  0
   39.0130   25.8220   32.8160 C   0  0  0  0  0  0  0  0  0  0  0  0
   39.7130   26.9410   32.8420 N   0  0  0  0  0  0  0  0  0  0  0  0
   40.3430   23.9550   35.7280 C   0  0  0  0  0  0  0  0  0  0  0  0
   41.5560   23.2610   35.8600 C   0  0  0  0  0  0  0  0  0  0  0  0
   41.3880   22.3630   36.8650 N   0  0  0  0  0  0  0  0  0  0  0  0
   40.1270   22.5400   37.2930 C   0  0  0  0  0  0  0  0  0  0  0  0
   39.4910   23.4670   36.6480 N   0  0  0  0  0  0  0  0  0  0  0  0
   38.1620   23.7820   37.0030 C   0  0  0  0  0  0  0  0  0  0  0  0
   38.0090   25.3360   37.1890 C   0  0  0  0  0  0  0  0  0  0  0  0
   37.8930   23.3050   38.4350 C   0  0  0  0  0  0  0  0  0  0  0  0
   37.7090   27.7010   30.2590 C   0  0  0  0  0  0  0  0  0  0  0  0
   38.4350   28.8400   30.6410 F   0  0  0  0  0  0  0  0  0  0  0  0
   38.5300   26.9590   29.4700 F   0  0  0  0  0  0  0  0  0  0  0  0
   36.5560   28.1090   29.6570 F   0  0  0  0  0  0  0  0  0  0  0  0
   38.3798   25.3884   30.7545 H   0  0  0  0  0  0  0  0  0  0  0  0
   37.6041   23.6290   32.1680 H   0  0  0  0  0  0  0  0  0  0  0  0
   36.7271   24.8405   33.2129 H   0  0  0  0  0  0  0  0  0  0  0  0
   36.0744   23.8404   30.4672 H   0  0  0  0  0  0  0  0  0  0  0  0
   35.0466   23.9965   31.9636 H   0  0  0  0  0  0  0  0  0  0  0  0
   35.6450   25.9291   29.8399 H   0  0  0  0  0  0  0  0  0  0  0  0
   34.2195   25.7528   30.9330 H   0  0  0  0  0  0  0  0  0  0  0  0
   35.3395   27.8077   31.4479 H   0  0  0  0  0  0  0  0  0  0  0  0
   35.6144   26.6303   32.7870 H   0  0  0  0  0  0  0  0  0  0  0  0
   37.7036   27.6907   32.3512 H   0  0  0  0  0  0  0  0  0  0  0  0
   41.2231   28.0487   33.8451 H   0  0  0  0  0  0  0  0  0  0  0  0
   41.5835   26.2924   35.5546 H   0  0  0  0  0  0  0  0  0  0  0  0
   42.4676   23.4149   35.2639 H   0  0  0  0  0  0  0  0  0  0  0  0
   39.6785   21.9559   38.1101 H   0  0  0  0  0  0  0  0  0  0  0  0
   37.5153   23.3432   36.2289 H   0  0  0  0  0  0  0  0  0  0  0  0
   37.9853   25.5763   38.2622 H   0  0  0  0  0  0  0  0  0  0  0  0
   38.8611   25.8474   36.7175 H   0  0  0  0  0  0  0  0  0  0  0  0
   37.0735   25.6714   36.7175 H   0  0  0  0  0  0  0  0  0  0  0  0
   38.3045   24.0347   39.1479 H   0  0  0  0  0  0  0  0  0  0  0  0
   36.8084   23.2102   38.5923 H   0  0  0  0  0  0  0  0  0  0  0  0
   38.3731   22.3279   38.5923 H   0  0  0  0  0  0  0  0  0  0  0  0
  1  2  1  0
  1 11  1  0
  3  2  1  0
  4  3  1  0
  4  5  1  0
  6  5  1  0
  6  1  1  0
  7  8  2  0
  9  8  1  0
  9 13  1  0
 10  9  2  0
 11 12  2  0
 11 10  1  0
 12  7  1  0
 13 14  2  0
 13 17  1  0
 14 15  1  0
 15 16  2  0
 17 18  1  0
 17 16  1  0
 18 19  1  0
 18 20  1  0
 21 22  1  0
 21  6  1  0
 23 21  1  0
 24 21  1  0
  1 25  1  6
  2 26  1  0
  2 27  1  0
  3 28  1  0
  3 29  1  0
  4 30  1  0
  4 31  1  0
  5 32  1  0
  5 33  1  0
  6 34  1  1
  7 35  1  0
  8 36  1  0
 14 37  1  0
 16 38  1  0
 18 39  1  0
 19 40  1  0
 19 41  1  0
 19 42  1  0
 20 43  1  0
 20 44  1  0
 20 45  1  0
M  ISO  8  25  13  26  13  27  13  28  13  29  13  30  13  31  13  32  13
M  ISO  8  33  13  34  13  35  14  36  14  37  14  38  14  39   8  40   8
M  ISO  5  41   8  42   8  43   8  44   8  45   8
M  END
>  <minimizedAffinity>  (1) 
-5.26431322

>  <minimizedRMSD>  (1) 
5.69953108

$$$$
