
     RDKit          3D

 28 30  0  0  0  0  0  0  0  0999 V2000
   39.9920   23.1730   37.1230 C   0  0  0  0  0  0  0  0  0  0  0  0
   39.5150   23.9800   36.0750 C   0  0  0  0  0  0  0  0  0  0  0  0
   38.2860   24.6530   36.2820 C   0  0  0  0  0  0  0  0  0  0  0  0
   37.6700   24.4690   37.4620 N   0  0  0  0  0  0  0  0  0  0  0  0
   38.1490   23.6910   38.4480 C   0  0  0  0  0  0  0  0  0  0  0  0
   39.3020   23.0450   38.2830 N   0  0  0  0  0  0  0  0  0  0  0  0
   41.2300   22.4890   36.9250 N   0  0  0  0  0  0  0  0  0  0  0  0
   41.6140   21.2270   37.2480 C   0  0  0  0  0  0  0  0  0  0  0  0
   42.9060   21.0480   36.8470 N   0  0  0  0  0  0  0  0  0  0  0  0
   43.3400   22.1740   36.2770 C   0  0  0  0  0  0  0  0  0  0  0  0
   44.5790   22.4480   35.7270 C   0  0  0  0  0  0  0  0  0  0  0  0
   44.7680   23.6940   35.2020 N   0  0  0  0  0  0  0  0  0  0  0  0
   43.7230   24.5730   35.2580 C   0  0  0  0  0  0  0  0  0  0  0  0
   42.5220   24.2940   35.7950 N   0  0  0  0  0  0  0  0  0  0  0  0
   42.2800   23.0800   36.3280 C   0  0  0  0  0  0  0  0  0  0  0  0
   37.7350   25.4890   35.2700 N   0  0  0  0  0  0  0  0  0  0  0  0
   38.1030   26.8630   35.2310 C   0  0  0  0  0  0  0  0  0  0  0  0
   38.5800   27.4710   36.2600 N   0  0  0  0  0  0  0  0  0  0  0  0
   37.9110   27.5210   33.9850 N   0  0  0  0  0  0  0  0  0  0  0  0
   38.8530   28.4690   36.2720 H   0  0  0  0  0  0  0  0  0  0  0  0
   40.0734   24.0844   35.1330 H   0  0  0  0  0  0  0  0  0  0  0  0
   37.5897   23.5880   39.3896 H   0  0  0  0  0  0  0  0  0  0  0  0
   40.9878   20.4744   37.7494 H   0  0  0  0  0  0  0  0  0  0  0  0
   45.3791   21.6932   35.7131 H   0  0  0  0  0  0  0  0  0  0  0  0
   43.8746   25.5771   34.8350 H   0  0  0  0  0  0  0  0  0  0  0  0
   37.0788   25.1045   34.5754 H   0  0  0  0  0  0  0  0  0  0  0  0
   38.1561   28.5164   33.8851 H   0  0  0  0  0  0  0  0  0  0  0  0
   37.5268   27.0022   33.1824 H   0  0  0  0  0  0  0  0  0  0  0  0
  1  6  2  0
  2  3  2  0
  2  1  1  0
  3  4  1  0
  4  5  2  0
  6  5  1  0
  7  1  1  0
  7  8  1  0
  9  8  2  0
 10 15  2  0
 10  9  1  0
 11 10  1  0
 12 13  1  0
 12 11  2  0
 13 14  2  0
 14 15  1  0
 15  7  1  0
 16  3  1  0
 17 16  1  0
 17 18  2  0
 18 20  1  0
 19 17  1  0
  2 21  1  0
  5 22  1  0
  8 23  1  0
 11 24  1  0
 13 25  1  0
 16 26  1  0
 19 27  1  0
 19 28  1  0
M  ISO  5  21  14  22  14  23  14  24  14  25  14
M  END
>  <minimizedAffinity>  (1) 
-5.11769772

>  <minimizedRMSD>  (1) 
1.03670931

$$$$
