
     RDKit          3D

 28 29  0  0  0  0  0  0  0  0999 V2000
   39.7430   23.0640   37.0010 C   0  0  0  0  0  0  0  0  0  0  0  0
   39.1650   23.9080   36.0400 C   0  0  0  0  0  0  0  0  0  0  0  0
   38.1240   24.7540   36.4490 C   0  0  0  0  0  0  0  0  0  0  0  0
   37.7310   24.7180   37.7380 N   0  0  0  0  0  0  0  0  0  0  0  0
   38.3060   23.8960   38.6380 C   0  0  0  0  0  0  0  0  0  0  0  0
   39.3060   23.0720   38.2810 N   0  0  0  0  0  0  0  0  0  0  0  0
   40.7860   22.2510   36.4820 N   0  0  0  0  0  0  0  0  0  0  0  0
   41.4320   21.4940   37.3920 C   0  0  0  0  0  0  0  0  0  0  0  0
   42.4600   20.6880   36.8980 C   0  0  0  0  0  0  0  0  0  0  0  0
   42.7060   20.7520   35.5310 C   0  0  0  0  0  0  0  0  0  0  0  0
   43.7430   19.9470   34.9950 N   0  0  0  0  0  0  0  0  0  0  0  0
   42.0240   21.5350   34.6580 N   0  0  0  0  0  0  0  0  0  0  0  0
   41.0380   22.2990   35.1680 C   0  0  0  0  0  0  0  0  0  0  0  0
   40.3440   23.0620   34.4360 O   0  0  0  0  0  0  0  0  0  0  0  0
   37.5000   25.6310   35.5170 N   0  0  0  0  0  0  0  0  0  0  0  0
   37.9320   26.9840   35.4310 C   0  0  0  0  0  0  0  0  0  0  0  0
   38.5670   27.5560   36.3910 N   0  0  0  0  0  0  0  0  0  0  0  0
   37.6270   27.6780   34.2290 N   0  0  0  0  0  0  0  0  0  0  0  0
   38.8890   28.5480   36.3940 H   0  0  0  0  0  0  0  0  0  0  0  0
   39.5177   23.9059   34.9981 H   0  0  0  0  0  0  0  0  0  0  0  0
   37.9519   23.8995   39.6794 H   0  0  0  0  0  0  0  0  0  0  0  0
   41.1653   21.5103   38.4591 H   0  0  0  0  0  0  0  0  0  0  0  0
   43.0472   20.0336   37.5590 H   0  0  0  0  0  0  0  0  0  0  0  0
   43.9469   19.9745   33.9858 H   0  0  0  0  0  0  0  0  0  0  0  0
   44.2923   19.3347   35.6149 H   0  0  0  0  0  0  0  0  0  0  0  0
   36.7417   25.2887   34.9097 H   0  0  0  0  0  0  0  0  0  0  0  0
   37.9163   28.6598   34.1136 H   0  0  0  0  0  0  0  0  0  0  0  0
   37.1166   27.1993   33.4732 H   0  0  0  0  0  0  0  0  0  0  0  0
  1  6  2  0
  2  3  2  0
  2  1  1  0
  3  4  1  0
  4  5  2  0
  6  5  1  0
  7  1  1  0
  7  8  1  0
  9  8  2  0
 10  9  1  0
 11 10  1  0
 12 13  1  0
 12 10  2  0
 13  7  1  0
 14 13  2  0
 15  3  1  0
 16 15  1  0
 16 17  2  0
 17 19  1  0
 18 16  1  0
  2 20  1  0
  5 21  1  0
  8 22  1  0
  9 23  1  0
 11 24  1  0
 11 25  1  0
 15 26  1  0
 18 27  1  0
 18 28  1  0
M  ISO  4  20  14  21  14  22  14  23  14
M  END
>  <minimizedAffinity>  (1) 
-5.07353783

>  <minimizedRMSD>  (1) 
0.847541213

$$$$
