
     RDKit          3D

 31 32  0  0  0  0  0  0  0  0999 V2000
   39.9360   23.0660   36.7970 C   0  0  0  0  0  0  0  0  0  0  0  0
   39.2820   23.9320   35.9140 C   0  0  0  0  0  0  0  0  0  0  0  0
   38.2090   24.6850   36.4530 C   0  0  0  0  0  0  0  0  0  0  0  0
   37.8830   24.5290   37.7570 N   0  0  0  0  0  0  0  0  0  0  0  0
   38.5460   23.6790   38.5670 C   0  0  0  0  0  0  0  0  0  0  0  0
   39.5700   22.9520   38.0790 N   0  0  0  0  0  0  0  0  0  0  0  0
   41.0120   22.3030   36.2820 N   0  0  0  0  0  0  0  0  0  0  0  0
   41.7450   21.3820   37.1240 C   0  0  0  0  0  0  0  0  0  0  0  0
   43.0770   21.0600   36.4820 C   0  0  0  0  0  0  0  0  0  0  0  0
   42.9510   20.5280   35.1610 N   0  0  0  0  0  0  0  0  0  0  0  0
   41.9620   21.1470   34.3360 C   0  0  0  0  0  0  0  0  0  0  0  0
   41.4100   22.4260   34.8920 C   0  0  0  0  0  0  0  0  0  0  0  0
   37.4670   25.6060   35.6350 N   0  0  0  0  0  0  0  0  0  0  0  0
   37.8910   26.9590   35.5520 C   0  0  0  0  0  0  0  0  0  0  0  0
   38.6090   27.4970   36.4680 N   0  0  0  0  0  0  0  0  0  0  0  0
   37.4750   27.6810   34.3970 N   0  0  0  0  0  0  0  0  0  0  0  0
   38.9890   28.4640   36.4350 H   0  0  0  0  0  0  0  0  0  0  0  0
   39.5837   24.0234   34.8601 H   0  0  0  0  0  0  0  0  0  0  0  0
   38.2519   23.5795   39.6223 H   0  0  0  0  0  0  0  0  0  0  0  0
   41.9146   21.8416   38.1089 H   0  0  0  0  0  0  0  0  0  0  0  0
   41.1640   20.4559   37.2458 H   0  0  0  0  0  0  0  0  0  0  0  0
   43.6733   21.9830   36.4319 H   0  0  0  0  0  0  0  0  0  0  0  0
   43.5603   20.2892   37.1003 H   0  0  0  0  0  0  0  0  0  0  0  0
   43.8623   20.6274   34.6914 H   0  0  0  0  0  0  0  0  0  0  0  0
   41.1296   20.4398   34.2059 H   0  0  0  0  0  0  0  0  0  0  0  0
   42.4567   21.4024   33.3873 H   0  0  0  0  0  0  0  0  0  0  0  0
   42.1814   23.2063   34.8139 H   0  0  0  0  0  0  0  0  0  0  0  0
   40.5130   22.6834   34.3096 H   0  0  0  0  0  0  0  0  0  0  0  0
   36.6369   25.2879   35.1148 H   0  0  0  0  0  0  0  0  0  0  0  0
   37.7504   28.6664   34.2788 H   0  0  0  0  0  0  0  0  0  0  0  0
   36.8987   27.2177   33.6799 H   0  0  0  0  0  0  0  0  0  0  0  0
  1  6  2  0
  2  3  2  0
  2  1  1  0
  3  4  1  0
  4  5  2  0
  6  5  1  0
  7  1  1  0
  7  8  1  0
  9  8  1  0
 10  9  1  0
 11 12  1  0
 11 10  1  0
 12  7  1  0
 13  3  1  0
 14 13  1  0
 14 15  2  0
 16 14  1  0
 17 15  1  0
  2 18  1  0
  5 19  1  0
  8 20  1  0
  8 21  1  0
  9 22  1  0
  9 23  1  0
 10 24  1  0
 11 25  1  0
 11 26  1  0
 12 27  1  0
 12 28  1  0
 13 29  1  0
 16 30  1  0
 16 31  1  0
M  ISO  8  18  14  19  14  20  13  21  13  22  13  23  13  24   5  25  13
M  ISO  3  26  13  27  13  28  13
M  END
>  <minimizedAffinity>  (1) 
-4.64374256

>  <minimizedRMSD>  (1) 
0.42362684

$$$$
