
     RDKit          3D

 20 20  0  0  0  0  0  0  0  0999 V2000
   39.6300   22.9710   37.2610 C   0  0  0  0  0  0  0  0  0  0  0  0
   39.2470   23.7070   36.1350 C   0  0  0  0  0  0  0  0  0  0  0  0
   38.2530   24.6920   36.3480 C   0  0  0  0  0  0  0  0  0  0  0  0
   37.7380   24.8680   37.5990 N   0  0  0  0  0  0  0  0  0  0  0  0
   38.1580   24.1150   38.6510 C   0  0  0  0  0  0  0  0  0  0  0  0
   39.1040   23.1690   38.4750 N   0  0  0  0  0  0  0  0  0  0  0  0
   37.7720   25.5150   35.2740 N   0  0  0  0  0  0  0  0  0  0  0  0
   38.2290   26.8480   35.1600 C   0  0  0  0  0  0  0  0  0  0  0  0
   38.6980   27.4890   36.1900 N   0  0  0  0  0  0  0  0  0  0  0  0
   38.1560   27.4510   33.8860 N   0  0  0  0  0  0  0  0  0  0  0  0
   39.0490   28.4670   36.1650 H   0  0  0  0  0  0  0  0  0  0  0  0
   40.6550   21.9610   37.0210 C   0  0  0  0  0  0  0  0  0  0  0  0
   41.1460   21.8570   35.8670 O   0  0  0  0  0  0  0  0  0  0  0  0
   41.1230   21.1020   38.0060 O   0  0  0  0  0  0  0  0  0  0  0  0
   39.6912   23.5311   35.1442 H   0  0  0  0  0  0  0  0  0  0  0  0
   37.7249   24.2778   39.6489 H   0  0  0  0  0  0  0  0  0  0  0  0
   37.0991   25.1370   34.5919 H   0  0  0  0  0  0  0  0  0  0  0  0
   38.4777   28.4208   33.7560 H   0  0  0  0  0  0  0  0  0  0  0  0
   37.7810   26.9213   33.0862 H   0  0  0  0  0  0  0  0  0  0  0  0
   41.8207   20.4338   37.7895 H   0  0  0  0  0  0  0  0  0  0  0  0
  1  6  2  0
  2  3  2  0
  2  1  1  0
  3  4  1  0
  4  5  2  0
  6  5  1  0
  7  3  1  0
  8  7  1  0
  8  9  2  0
 10  8  1  0
 11  9  1  0
 12  1  1  0
 12 14  1  0
 13 12  2  0
  2 15  1  0
  5 16  1  0
  7 17  1  0
 10 18  1  0
 10 19  1  0
 14 20  1  0
M  ISO  3  15  14  16  14  20   3
M  END
>  <minimizedAffinity>  (1) 
-4.42647648

>  <minimizedRMSD>  (1) 
1.02842152

$$$$
