
     RDKit          3D

 20 20  0  0  0  0  0  0  0  0999 V2000
   39.9080   23.0660   37.1870 C   0  0  0  0  0  0  0  0  0  0  0  0
   39.4750   23.8420   36.1040 C   0  0  0  0  0  0  0  0  0  0  0  0
   38.3350   24.6390   36.2730 C   0  0  0  0  0  0  0  0  0  0  0  0
   37.7260   24.6080   37.4740 N   0  0  0  0  0  0  0  0  0  0  0  0
   38.1590   23.8530   38.5080 C   0  0  0  0  0  0  0  0  0  0  0  0
   39.2520   23.0810   38.3630 N   0  0  0  0  0  0  0  0  0  0  0  0
   37.8380   25.4510   35.2180 N   0  0  0  0  0  0  0  0  0  0  0  0
   38.2250   26.8130   35.1530 C   0  0  0  0  0  0  0  0  0  0  0  0
   38.6650   27.4560   36.1910 N   0  0  0  0  0  0  0  0  0  0  0  0
   38.1030   27.4440   33.8760 N   0  0  0  0  0  0  0  0  0  0  0  0
   38.9370   28.4540   36.2000 H   0  0  0  0  0  0  0  0  0  0  0  0
   41.1310   22.2390   36.9380 C   0  0  0  0  0  0  0  0  0  0  0  0
   41.0240   21.5810   35.7250 F   0  0  0  0  0  0  0  0  0  0  0  0
   41.3170   21.3310   37.9840 F   0  0  0  0  0  0  0  0  0  0  0  0
   42.2030   23.1020   36.9670 F   0  0  0  0  0  0  0  0  0  0  0  0
   40.0157   23.8261   35.1462 H   0  0  0  0  0  0  0  0  0  0  0  0
   37.6192   23.8694   39.4663 H   0  0  0  0  0  0  0  0  0  0  0  0
   37.2043   25.0547   34.5093 H   0  0  0  0  0  0  0  0  0  0  0  0
   38.3680   28.4329   33.7628 H   0  0  0  0  0  0  0  0  0  0  0  0
   37.7501   26.9098   33.0692 H   0  0  0  0  0  0  0  0  0  0  0  0
  1  6  2  0
  2  3  2  0
  2  1  1  0
  3  4  1  0
  4  5  2  0
  6  5  1  0
  7  3  1  0
  8  7  1  0
  8  9  2  0
  9 11  1  0
 10  8  1  0
 12 15  1  0
 12  1  1  0
 12 14  1  0
 13 12  1  0
  2 16  1  0
  5 17  1  0
  7 18  1  0
 10 19  1  0
 10 20  1  0
M  ISO  2  16  14  17  14
M  END
>  <minimizedAffinity>  (1) 
-4.42479801

>  <minimizedRMSD>  (1) 
0.899894476

$$$$
