
     RDKit          3D

 29 29  0  0  0  0  0  0  0  0999 V2000
   40.1240   23.1390   36.8720 C   0  0  0  0  0  0  0  0  0  0  0  0
   39.4840   23.9870   35.9590 C   0  0  0  0  0  0  0  0  0  0  0  0
   38.3190   24.6300   36.4180 C   0  0  0  0  0  0  0  0  0  0  0  0
   37.8940   24.3950   37.6890 N   0  0  0  0  0  0  0  0  0  0  0  0
   38.5450   23.5710   38.5290 C   0  0  0  0  0  0  0  0  0  0  0  0
   39.6530   22.9520   38.1100 N   0  0  0  0  0  0  0  0  0  0  0  0
   37.5710   25.5240   35.5750 N   0  0  0  0  0  0  0  0  0  0  0  0
   37.9110   26.8990   35.5380 C   0  0  0  0  0  0  0  0  0  0  0  0
   38.5480   27.4600   36.5190 N   0  0  0  0  0  0  0  0  0  0  0  0
   37.5190   27.6200   34.3820 N   0  0  0  0  0  0  0  0  0  0  0  0
   38.8550   28.4510   36.5240 H   0  0  0  0  0  0  0  0  0  0  0  0
   41.3410   22.4700   36.3870 C   0  0  0  0  0  0  0  0  0  0  0  0
   41.6180   21.2970   37.3050 C   0  0  0  0  0  0  0  0  0  0  0  0
   41.0690   21.9720   34.9900 C   0  0  0  0  0  0  0  0  0  0  0  0
   42.5300   23.3970   36.3410 C   0  0  0  0  0  0  0  0  0  0  0  0
   39.8701   24.1417   34.9407 H   0  0  0  0  0  0  0  0  0  0  0  0
   38.1696   23.4082   39.5501 H   0  0  0  0  0  0  0  0  0  0  0  0
   36.7932   25.1668   35.0019 H   0  0  0  0  0  0  0  0  0  0  0  0
   37.7398   28.6228   34.3010 H   0  0  0  0  0  0  0  0  0  0  0  0
   37.0134   27.1411   33.6232 H   0  0  0  0  0  0  0  0  0  0  0  0
   41.5406   21.6247   38.3522 H   0  0  0  0  0  0  0  0  0  0  0  0
   40.8831   20.5009   37.1147 H   0  0  0  0  0  0  0  0  0  0  0  0
   42.6314   20.9137   37.1147 H   0  0  0  0  0  0  0  0  0  0  0  0
   40.5423   21.0076   35.0406 H   0  0  0  0  0  0  0  0  0  0  0  0
   40.4449   22.7031   34.4551 H   0  0  0  0  0  0  0  0  0  0  0  0
   42.0214   21.8420   34.4551 H   0  0  0  0  0  0  0  0  0  0  0  0
   42.8440   23.6418   37.3664 H   0  0  0  0  0  0  0  0  0  0  0  0
   43.3588   22.9043   35.8115 H   0  0  0  0  0  0  0  0  0  0  0  0
   42.2543   24.3209   35.8115 H   0  0  0  0  0  0  0  0  0  0  0  0
  1  6  2  0
  2  3  2  0
  2  1  1  0
  3  4  1  0
  4  5  2  0
  6  5  1  0
  7  3  1  0
  8  7  1  0
  8  9  2  0
  9 11  1  0
 10  8  1  0
 12  1  1  0
 12 13  1  0
 14 12  1  0
 15 12  1  0
  2 16  1  0
  5 17  1  0
  7 18  1  0
 10 19  1  0
 10 20  1  0
 13 21  1  0
 13 22  1  0
 13 23  1  0
 14 24  1  0
 14 25  1  0
 14 26  1  0
 15 27  1  0
 15 28  1  0
 15 29  1  0
M  ISO  8  16  14  17  14  21   8  22   8  23   8  24   8  25   8  26   8
M  ISO  3  27   8  28   8  29   8
M  END
>  <minimizedAffinity>  (1) 
-4.4650116

>  <minimizedRMSD>  (1) 
0.611401379

$$$$
