
     RDKit          3D

 43 44  0  0  0  0  0  0  0  0999 V2000
   38.7050   23.5800   36.8590 C   0  0  0  0  0  0  0  0  0  0  0  0
   41.9510   21.7190   36.8830 C   0  0  0  0  0  0  0  0  0  0  0  0
   40.6400   22.0400   37.1760 C   0  0  0  0  0  0  0  0  0  0  0  0
   40.0660   23.1750   36.6040 C   0  0  0  0  0  0  0  0  0  0  0  0
   40.8380   23.9300   35.7690 N   0  0  0  0  0  0  0  0  0  0  0  0
   42.1200   23.6040   35.4910 C   0  0  0  0  0  0  0  0  0  0  0  0
   42.6670   22.4910   36.0570 N   0  0  0  0  0  0  0  0  0  0  0  0
   42.5310   20.4950   37.5140 C   0  0  0  0  0  0  0  0  0  0  0  0
   43.2000   19.5950   36.5250 C   0  0  0  0  0  0  0  0  0  0  0  0
   38.4520   23.4460   38.3540 C   0  0  0  0  0  0  0  0  0  0  0  0
   38.3710   24.9930   36.4180 C   0  0  0  0  0  0  0  0  0  0  0  0
   37.7450   22.6420   36.1360 C   0  0  0  0  0  0  0  0  0  0  0  0
   37.9220   22.6750   34.7180 N   0  0  0  0  0  0  0  0  0  0  0  0
   38.5590   21.7970   33.8840 C   0  0  0  0  0  0  0  0  0  0  0  0
   38.4700   22.2470   32.6070 N   0  0  0  0  0  0  0  0  0  0  0  0
   37.7850   23.3900   32.6500 C   0  0  0  0  0  0  0  0  0  0  0  0
   37.4620   23.6350   33.9320 N   0  0  0  0  0  0  0  0  0  0  0  0
   37.4420   24.2390   31.4930 C   0  0  0  0  0  0  0  0  0  0  0  0
   38.2040   23.7640   30.2670 C   0  0  0  0  0  0  0  0  0  0  0  0
   35.9470   24.2000   31.2140 C   0  0  0  0  0  0  0  0  0  0  0  0
   40.0528   21.4050   37.8557 H   0  0  0  0  0  0  0  0  0  0  0  0
   42.7172   24.2319   34.8134 H   0  0  0  0  0  0  0  0  0  0  0  0
   43.2725   20.8046   38.2653 H   0  0  0  0  0  0  0  0  0  0  0  0
   41.7021   19.9314   37.9670 H   0  0  0  0  0  0  0  0  0  0  0  0
   43.7733   18.8238   37.0603 H   0  0  0  0  0  0  0  0  0  0  0  0
   42.4386   19.1138   35.8936 H   0  0  0  0  0  0  0  0  0  0  0  0
   43.8803   20.1854   35.8936 H   0  0  0  0  0  0  0  0  0  0  0  0
   39.2912   23.8905   38.9092 H   0  0  0  0  0  0  0  0  0  0  0  0
   37.5206   23.9690   38.6166 H   0  0  0  0  0  0  0  0  0  0  0  0
   38.3614   22.3817   38.6166 H   0  0  0  0  0  0  0  0  0  0  0  0
   38.2210   25.6277   37.3038 H   0  0  0  0  0  0  0  0  0  0  0  0
   39.1990   25.3944   35.8153 H   0  0  0  0  0  0  0  0  0  0  0  0
   37.4509   24.9812   35.8153 H   0  0  0  0  0  0  0  0  0  0  0  0
   37.9187   21.6153   36.4907 H   0  0  0  0  0  0  0  0  0  0  0  0
   36.7195   22.9739   36.3558 H   0  0  0  0  0  0  0  0  0  0  0  0
   39.0638   20.8719   34.1992 H   0  0  0  0  0  0  0  0  0  0  0  0
   37.7244   25.2761   31.7269 H   0  0  0  0  0  0  0  0  0  0  0  0
   39.0979   23.2068   30.5840 H   0  0  0  0  0  0  0  0  0  0  0  0
   37.5577   23.1085   29.6648 H   0  0  0  0  0  0  0  0  0  0  0  0
   38.5080   24.6329   29.6648 H   0  0  0  0  0  0  0  0  0  0  0  0
   35.3965   24.1856   32.1663 H   0  0  0  0  0  0  0  0  0  0  0  0
   35.6583   25.0909   30.6370 H   0  0  0  0  0  0  0  0  0  0  0  0
   35.7052   23.2952   30.6370 H   0  0  0  0  0  0  0  0  0  0  0  0
  1 10  1  0
  2  3  2  0
  2  8  1  0
  4  1  1  0
  4  3  1  0
  5  4  2  0
  6  5  1  0
  6  7  2  0
  7  2  1  0
  9  8  1  0
 11  1  1  0
 12  1  1  0
 13 12  1  0
 14 13  1  0
 15 16  1  0
 15 14  2  0
 16 17  2  0
 17 13  1  0
 18 16  1  0
 19 18  1  0
 20 18  1  0
  3 21  1  0
  6 22  1  0
  8 23  1  0
  8 24  1  0
  9 25  1  0
  9 26  1  0
  9 27  1  0
 10 28  1  0
 10 29  1  0
 10 30  1  0
 11 31  1  0
 11 32  1  0
 11 33  1  0
 12 34  1  0
 12 35  1  0
 14 36  1  0
 18 37  1  0
 19 38  1  0
 19 39  1  0
 19 40  1  0
 20 41  1  0
 20 42  1  0
 20 43  1  0
M  ISO  8  21  14  22  14  23   8  24   8  25   8  26   8  27   8  28   8
M  ISO  8  29   8  30   8  31   8  32   8  33   8  34   8  35   8  36  14
M  ISO  7  37   8  38   8  39   8  40   8  41   8  42   8  43   8
M  END
>  <minimizedAffinity>  (1) 
-4.30837393

>  <minimizedRMSD>  (1) 
0.373404324

$$$$
