
     RDKit          3D

 19 19  0  0  0  0  0  0  0  0999 V2000
   39.5920   22.9430   37.2080 C   0  0  0  0  0  0  0  0  0  0  0  0
   39.1090   23.7230   36.1350 C   0  0  0  0  0  0  0  0  0  0  0  0
   38.1680   24.7150   36.4320 C   0  0  0  0  0  0  0  0  0  0  0  0
   37.7830   24.8670   37.7240 N   0  0  0  0  0  0  0  0  0  0  0  0
   38.2640   24.1040   38.7220 C   0  0  0  0  0  0  0  0  0  0  0  0
   39.1640   23.1480   38.4600 N   0  0  0  0  0  0  0  0  0  0  0  0
   37.6330   25.5440   35.4070 N   0  0  0  0  0  0  0  0  0  0  0  0
   38.0850   26.8810   35.2880 C   0  0  0  0  0  0  0  0  0  0  0  0
   38.6530   27.5120   36.2670 N   0  0  0  0  0  0  0  0  0  0  0  0
   37.8840   27.5070   34.0240 N   0  0  0  0  0  0  0  0  0  0  0  0
   39.0060   28.4770   36.2200 H   0  0  0  0  0  0  0  0  0  0  0  0
   40.5680   21.9220   36.8460 C   0  0  0  0  0  0  0  0  0  0  0  0
   41.4200   21.4440   37.6410 O   0  0  0  0  0  0  0  0  0  0  0  0
   39.4589   23.5573   35.1054 H   0  0  0  0  0  0  0  0  0  0  0  0
   37.9178   24.2655   39.7535 H   0  0  0  0  0  0  0  0  0  0  0  0
   36.9236   25.1753   34.7576 H   0  0  0  0  0  0  0  0  0  0  0  0
   38.1915   28.4788   33.8759 H   0  0  0  0  0  0  0  0  0  0  0  0
   37.4312   26.9877   33.2583 H   0  0  0  0  0  0  0  0  0  0  0  0
   40.5597   21.5451   35.8126 H   0  0  0  0  0  0  0  0  0  0  0  0
  1  6  2  0
  2  3  2  0
  2  1  1  0
  3  4  1  0
  4  5  2  0
  6  5  1  0
  7  3  1  0
  8  7  1  0
  8  9  2  0
 10  8  1  0
 11  9  1  0
 12  1  1  0
 12 13  2  0
  2 14  1  0
  5 15  1  0
  7 16  1  0
 10 17  1  0
 10 18  1  0
 12 19  1  0
M  ISO  3  14  14  15  14  19   6
M  END
>  <minimizedAffinity>  (1) 
-3.96188736

>  <minimizedRMSD>  (1) 
0.939275384

$$$$
