
     RDKit          3D

 19 19  0  0  0  0  0  0  0  0999 V2000
   40.0170   23.0580   36.7230 C   0  0  0  0  0  0  0  0  0  0  0  0
   39.3300   23.9280   35.8590 C   0  0  0  0  0  0  0  0  0  0  0  0
   38.2520   24.6490   36.4040 C   0  0  0  0  0  0  0  0  0  0  0  0
   37.9480   24.4630   37.7020 N   0  0  0  0  0  0  0  0  0  0  0  0
   38.6350   23.6140   38.5060 C   0  0  0  0  0  0  0  0  0  0  0  0
   39.6610   22.9190   38.0130 N   0  0  0  0  0  0  0  0  0  0  0  0
   41.0780   22.4050   36.0170 N   0  0  0  0  0  0  0  0  0  0  0  0
   37.4660   25.5690   35.6420 N   0  0  0  0  0  0  0  0  0  0  0  0
   37.8760   26.9280   35.5700 C   0  0  0  0  0  0  0  0  0  0  0  0
   38.6160   27.4650   36.4870 N   0  0  0  0  0  0  0  0  0  0  0  0
   37.4370   27.6770   34.4440 N   0  0  0  0  0  0  0  0  0  0  0  0
   38.9310   28.4450   36.5120 H   0  0  0  0  0  0  0  0  0  0  0  0
   39.6220   24.0401   34.8044 H   0  0  0  0  0  0  0  0  0  0  0  0
   38.3469   23.4990   39.5614 H   0  0  0  0  0  0  0  0  0  0  0  0
   41.2364   22.6106   35.0202 H   0  0  0  0  0  0  0  0  0  0  0  0
   41.6828   21.7297   36.5059 H   0  0  0  0  0  0  0  0  0  0  0  0
   36.6166   25.2520   35.1533 H   0  0  0  0  0  0  0  0  0  0  0  0
   37.7075   28.6660   34.3461 H   0  0  0  0  0  0  0  0  0  0  0  0
   36.8485   27.2306   33.7262 H   0  0  0  0  0  0  0  0  0  0  0  0
  1  6  2  0
  2  3  2  0
  2  1  1  0
  3  4  1  0
  4  5  2  0
  6  5  1  0
  7  1  1  0
  8  3  1  0
  9  8  1  0
  9 10  2  0
 10 12  1  0
 11  9  1  0
  2 13  1  0
  5 14  1  0
  7 15  1  0
  7 16  1  0
  8 17  1  0
 11 18  1  0
 11 19  1  0
M  ISO  2  13  14  14  14
M  END
>  <minimizedAffinity>  (1) 
-3.74096417

>  <minimizedRMSD>  (1) 
0.18165879

$$$$
