
     RDKit          3D

 23 23  0  0  0  0  0  0  0  0999 V2000
   39.8060   22.9160   37.5050 C   0  0  0  0  0  0  0  0  0  0  0  0
   39.6980   23.6030   36.2770 C   0  0  0  0  0  0  0  0  0  0  0  0
   38.6770   24.5710   36.1970 C   0  0  0  0  0  0  0  0  0  0  0  0
   37.8740   24.7900   37.2670 N   0  0  0  0  0  0  0  0  0  0  0  0
   38.0250   24.0970   38.4250 C   0  0  0  0  0  0  0  0  0  0  0  0
   38.9900   23.1630   38.5380 N   0  0  0  0  0  0  0  0  0  0  0  0
   38.4650   25.3350   35.0070 N   0  0  0  0  0  0  0  0  0  0  0  0
   38.7970   26.7140   34.9980 C   0  0  0  0  0  0  0  0  0  0  0  0
   38.8600   27.4050   36.0840 N   0  0  0  0  0  0  0  0  0  0  0  0
   39.0580   27.2990   33.7210 N   0  0  0  0  0  0  0  0  0  0  0  0
   39.0790   28.4120   36.1270 H   0  0  0  0  0  0  0  0  0  0  0  0
   40.9100   21.9190   37.4850 C   0  0  0  0  0  0  0  0  0  0  0  0
   42.0590   22.4940   36.7230 C   0  0  0  0  0  0  0  0  0  0  0  0
   40.3711   23.3951   35.4321 H   0  0  0  0  0  0  0  0  0  0  0  0
   37.3565   24.2989   39.2749 H   0  0  0  0  0  0  0  0  0  0  0  0
   38.0751   24.8884   34.1647 H   0  0  0  0  0  0  0  0  0  0  0  0
   39.3041   28.2968   33.6522 H   0  0  0  0  0  0  0  0  0  0  0  0
   39.0001   26.7230   32.8691 H   0  0  0  0  0  0  0  0  0  0  0  0
   41.2242   21.6936   38.5148 H   0  0  0  0  0  0  0  0  0  0  0  0
   40.5683   20.9902   37.0048 H   0  0  0  0  0  0  0  0  0  0  0  0
   42.8141   22.8719   37.4280 H   0  0  0  0  0  0  0  0  0  0  0  0
   42.5064   21.7136   36.0900 H   0  0  0  0  0  0  0  0  0  0  0  0
   41.7025   23.3199   36.0900 H   0  0  0  0  0  0  0  0  0  0  0  0
  1  6  2  0
  2  1  1  0
  3  2  2  0
  3  4  1  0
  4  5  2  0
  5  6  1  0
  7  3  1  0
  8  7  1  0
  8  9  2  0
  9 11  1  0
 10  8  1  0
 12  1  1  0
 13 12  1  0
  2 14  1  0
  5 15  1  0
  7 16  1  0
 10 17  1  0
 10 18  1  0
 12 19  1  0
 12 20  1  0
 13 21  1  0
 13 22  1  0
 13 23  1  0
M  ISO  7  14  14  15  14  19   8  20   8  21   8  22   8  23   8
M  END
>  <minimizedAffinity>  (1) 
-4.08362389

>  <minimizedRMSD>  (1) 
1.26658094

$$$$
