
     RDKit          3D

 27 29  0  0  0  0  0  0  0  0999 V2000
   39.2920   22.8340   38.3240 N   0  0  0  0  0  0  0  0  0  0  0  0
   38.2720   23.6560   38.0970 N   0  0  0  0  0  0  0  0  0  0  0  0
   38.3730   24.1710   36.8470 C   0  0  0  0  0  0  0  0  0  0  0  0
   39.5190   23.6440   36.2570 C   0  0  0  0  0  0  0  0  0  0  0  0
   40.0570   22.8200   37.2130 C   0  0  0  0  0  0  0  0  0  0  0  0
   41.2800   22.0390   37.0470 C   0  0  0  0  0  0  0  0  0  0  0  0
   42.2830   22.2700   36.1080 C   0  0  0  0  0  0  0  0  0  0  0  0
   43.2030   21.2520   36.3820 C   0  0  0  0  0  0  0  0  0  0  0  0
   42.7280   20.4900   37.4290 C   0  0  0  0  0  0  0  0  0  0  0  0
   41.5620   20.9910   37.8100 O   0  0  0  0  0  0  0  0  0  0  0  0
   37.4280   25.0740   36.3350 O   0  0  0  0  0  0  0  0  0  0  0  0
   37.8320   26.2970   35.8080 C   0  0  0  0  0  0  0  0  0  0  0  0
   38.6720   27.0250   36.3780 O   0  0  0  0  0  0  0  0  0  0  0  0
   37.2480   26.7440   34.5360 C   0  0  0  0  0  0  0  0  0  0  0  0
   37.3100   25.8700   33.4530 C   0  0  0  0  0  0  0  0  0  0  0  0
   36.7510   26.3000   32.2370 C   0  0  0  0  0  0  0  0  0  0  0  0
   36.1970   27.5200   32.2000 N   0  0  0  0  0  0  0  0  0  0  0  0
   36.1540   28.3390   33.2570 C   0  0  0  0  0  0  0  0  0  0  0  0
   36.6730   27.9810   34.4480 N   0  0  0  0  0  0  0  0  0  0  0  0
   39.4663   22.3045   39.1901 H   0  0  0  0  0  0  0  0  0  0  0  0
   39.9072   23.8442   35.2474 H   0  0  0  0  0  0  0  0  0  0  0  0
   42.3380   23.0572   35.3416 H   0  0  0  0  0  0  0  0  0  0  0  0
   44.1509   21.0863   35.8491 H   0  0  0  0  0  0  0  0  0  0  0  0
   43.2304   19.6171   37.8713 H   0  0  0  0  0  0  0  0  0  0  0  0
   37.7793   24.8795   33.5460 H   0  0  0  0  0  0  0  0  0  0  0  0
   36.7677   25.6564   31.3451 H   0  0  0  0  0  0  0  0  0  0  0  0
   35.6839   29.3279   33.1514 H   0  0  0  0  0  0  0  0  0  0  0  0
  2  1  1  0
  3  2  2  0
  4  3  1  0
  4  5  2  0
  5  1  1  0
  6  5  1  0
  6 10  1  0
  7  8  1  0
  7  6  2  0
  8  9  2  0
  9 10  1  0
 11  3  1  0
 12 11  1  0
 12 13  2  0
 14 12  1  0
 15 14  2  0
 16 15  1  0
 17 16  2  0
 17 18  1  0
 18 19  2  0
 19 14  1  0
  1 20  1  0
  4 21  1  0
  7 22  1  0
  8 23  1  0
  9 24  1  0
 15 25  1  0
 16 26  1  0
 18 27  1  0
M  ISO  8  20   9  21  14  22  14  23  14  24  14  25  14  26  14  27  14
M  END
>  <minimizedAffinity>  (1) 
-5.01372194

>  <minimizedRMSD>  (1) 
0.91135633

$$$$
