
     RDKit          3D

 33 35  0  0  0  0  0  0  0  0999 V2000
   39.8510   22.6970   38.2510 N   0  0  0  0  0  0  0  0  0  0  0  0
   38.7380   23.4210   38.1110 N   0  0  0  0  0  0  0  0  0  0  0  0
   38.6830   23.8940   36.8220 C   0  0  0  0  0  0  0  0  0  0  0  0
   39.7980   23.4460   36.1480 C   0  0  0  0  0  0  0  0  0  0  0  0
   40.4910   22.7090   37.0750 C   0  0  0  0  0  0  0  0  0  0  0  0
   41.7250   22.0390   36.8390 N   0  0  0  0  0  0  0  0  0  0  0  0
   41.9680   20.7350   37.0220 C   0  0  0  0  0  0  0  0  0  0  0  0
   43.2090   20.2160   36.7550 C   0  0  0  0  0  0  0  0  0  0  0  0
   43.4900   18.7670   36.9560 C   0  0  0  0  0  0  0  0  0  0  0  0
   44.2550   21.0020   36.2880 C   0  0  0  0  0  0  0  0  0  0  0  0
   45.3850   20.4870   36.0530 O   0  0  0  0  0  0  0  0  0  0  0  0
   43.9700   22.3240   36.1130 N   0  0  0  0  0  0  0  0  0  0  0  0
   42.7370   22.7990   36.3870 C   0  0  0  0  0  0  0  0  0  0  0  0
   42.5800   24.0390   36.1900 O   0  0  0  0  0  0  0  0  0  0  0  0
   37.6110   24.6940   36.3890 O   0  0  0  0  0  0  0  0  0  0  0  0
   37.8250   26.0180   36.0050 C   0  0  0  0  0  0  0  0  0  0  0  0
   38.4020   26.8380   36.7470 O   0  0  0  0  0  0  0  0  0  0  0  0
   37.3570   26.4550   34.6920 C   0  0  0  0  0  0  0  0  0  0  0  0
   37.4790   25.5560   33.6200 C   0  0  0  0  0  0  0  0  0  0  0  0
   37.0350   25.9640   32.3600 C   0  0  0  0  0  0  0  0  0  0  0  0
   36.5120   27.2090   32.2520 N   0  0  0  0  0  0  0  0  0  0  0  0
   36.4100   28.0370   33.2840 C   0  0  0  0  0  0  0  0  0  0  0  0
   36.8250   27.6770   34.5060 N   0  0  0  0  0  0  0  0  0  0  0  0
   40.1609   22.2166   39.1078 H   0  0  0  0  0  0  0  0  0  0  0  0
   40.0718   23.6367   35.0998 H   0  0  0  0  0  0  0  0  0  0  0  0
   41.1673   20.0760   37.3888 H   0  0  0  0  0  0  0  0  0  0  0  0
   43.5325   18.5477   38.0331 H   0  0  0  0  0  0  0  0  0  0  0  0
   42.6908   18.1707   36.4917 H   0  0  0  0  0  0  0  0  0  0  0  0
   44.4542   18.5126   36.4917 H   0  0  0  0  0  0  0  0  0  0  0  0
   44.7004   22.9639   35.7696 H   0  0  0  0  0  0  0  0  0  0  0  0
   37.9130   24.5563   33.7687 H   0  0  0  0  0  0  0  0  0  0  0  0
   37.1074   25.2985   31.4871 H   0  0  0  0  0  0  0  0  0  0  0  0
   35.9769   29.0369   33.1335 H   0  0  0  0  0  0  0  0  0  0  0  0
  2  1  1  0
  3  2  2  0
  4  3  1  0
  4  5  2  0
  5  1  1  0
  6  7  1  0
  6  5  1  0
  8  9  1  0
  8  7  2  0
 10  8  1  0
 11 10  2  0
 12 10  1  0
 12 13  1  0
 13  6  1  0
 14 13  2  0
 15  3  1  0
 16 15  1  0
 16 17  2  0
 18 16  1  0
 19 18  2  0
 20 19  1  0
 21 20  2  0
 21 22  1  0
 22 23  2  0
 23 18  1  0
  1 24  1  0
  4 25  1  0
  7 26  1  0
  9 27  1  0
  9 28  1  0
  9 29  1  0
 12 30  1  0
 19 31  1  0
 20 32  1  0
 22 33  1  0
M  ISO  8  24   9  25  14  26  14  27   8  28   8  29   8  30   9  31  14
M  ISO  2  32  14  33  14
M  END
>  <minimizedAffinity>  (1) 
-5.21658611

>  <minimizedRMSD>  (1) 
1.4928329

$$$$
