
     RDKit          3D

 33 35  0  0  0  0  0  0  0  0999 V2000
   37.5960   24.7260   36.3720 O   0  0  0  0  0  0  0  0  0  0  0  0
   39.6880   22.6130   38.2460 N   0  0  0  0  0  0  0  0  0  0  0  0
   38.5910   23.3280   38.0580 N   0  0  0  0  0  0  0  0  0  0  0  0
   38.6480   23.9050   36.8270 C   0  0  0  0  0  0  0  0  0  0  0  0
   39.8380   23.5340   36.2110 C   0  0  0  0  0  0  0  0  0  0  0  0
   40.4560   22.7250   37.1360 C   0  0  0  0  0  0  0  0  0  0  0  0
   41.7840   22.0750   36.9260 C   0  0  0  0  0  0  0  0  0  0  0  0
   41.9600   20.8060   37.6910 C   0  0  0  0  0  0  0  0  0  0  0  0
   43.1300   20.1420   36.9580 C   0  0  0  0  0  0  0  0  0  0  0  0
   43.1900   20.7900   35.5850 C   0  0  0  0  0  0  0  0  0  0  0  0
   41.9030   21.5790   35.4800 C   0  0  0  0  0  0  0  0  0  0  0  0
   37.8190   26.0280   35.9810 C   0  0  0  0  0  0  0  0  0  0  0  0
   38.4100   26.8290   36.7100 O   0  0  0  0  0  0  0  0  0  0  0  0
   37.3430   26.4740   34.6620 C   0  0  0  0  0  0  0  0  0  0  0  0
   37.4510   25.5970   33.5950 C   0  0  0  0  0  0  0  0  0  0  0  0
   36.9970   26.0200   32.3370 C   0  0  0  0  0  0  0  0  0  0  0  0
   36.4820   27.2670   32.2490 N   0  0  0  0  0  0  0  0  0  0  0  0
   36.3900   28.0870   33.2870 C   0  0  0  0  0  0  0  0  0  0  0  0
   36.8160   27.7080   34.5040 N   0  0  0  0  0  0  0  0  0  0  0  0
   39.9178   22.0670   39.0886 H   0  0  0  0  0  0  0  0  0  0  0  0
   40.2016   23.8214   35.2134 H   0  0  0  0  0  0  0  0  0  0  0  0
   42.5080   22.8459   37.2284 H   0  0  0  0  0  0  0  0  0  0  0  0
   42.2114   21.0067   38.7429 H   0  0  0  0  0  0  0  0  0  0  0  0
   41.0533   20.1843   37.7271 H   0  0  0  0  0  0  0  0  0  0  0  0
   44.0696   20.3152   37.5032 H   0  0  0  0  0  0  0  0  0  0  0  0
   42.9909   19.0534   36.8827 H   0  0  0  0  0  0  0  0  0  0  0  0
   44.0617   21.4564   35.5077 H   0  0  0  0  0  0  0  0  0  0  0  0
   43.2930   20.0497   34.7780 H   0  0  0  0  0  0  0  0  0  0  0  0
   41.9907   22.4123   34.7673 H   0  0  0  0  0  0  0  0  0  0  0  0
   41.0371   21.0106   35.1097 H   0  0  0  0  0  0  0  0  0  0  0  0
   37.8820   24.5941   33.7309 H   0  0  0  0  0  0  0  0  0  0  0  0
   37.0576   25.3631   31.4568 H   0  0  0  0  0  0  0  0  0  0  0  0
   35.9596   29.0900   33.1503 H   0  0  0  0  0  0  0  0  0  0  0  0
  1  4  1  0
  3  2  1  0
  4  3  2  0
  5  4  1  0
  5  6  2  0
  6  2  1  0
  7  6  1  0
  7  8  1  0
  9  8  1  0
 10  9  1  0
 11 10  1  0
 11  7  1  0
 12  1  1  0
 12 13  2  0
 14 12  1  0
 15 14  2  0
 16 15  1  0
 17 16  2  0
 17 18  1  0
 18 19  2  0
 19 14  1  0
  2 20  1  0
  5 21  1  0
  7 22  1  0
  8 23  1  0
  8 24  1  0
  9 25  1  0
  9 26  1  0
 10 27  1  0
 10 28  1  0
 11 29  1  0
 11 30  1  0
 15 31  1  0
 16 32  1  0
 18 33  1  0
M  ISO  8  20   9  21  14  22  13  23  13  24  13  25  13  26  13  27  13
M  ISO  6  28  13  29  13  30  13  31  14  32  14  33  14
M  END
>  <minimizedAffinity>  (1) 
-5.00237131

>  <minimizedRMSD>  (1) 
1.10239542

$$$$
