
     RDKit          3D

 29 31  0  0  0  0  0  0  0  0999 V2000
   39.6830   22.6320   38.2010 N   0  0  0  0  0  0  0  0  0  0  0  0
   38.6000   23.3720   38.0580 N   0  0  0  0  0  0  0  0  0  0  0  0
   38.6090   23.9790   36.8450 C   0  0  0  0  0  0  0  0  0  0  0  0
   39.7560   23.5980   36.1940 C   0  0  0  0  0  0  0  0  0  0  0  0
   40.4050   22.7560   37.0710 C   0  0  0  0  0  0  0  0  0  0  0  0
   41.6940   22.0800   36.8330 C   0  0  0  0  0  0  0  0  0  0  0  0
   42.7110   22.7770   36.1990 C   0  0  0  0  0  0  0  0  0  0  0  0
   43.9130   22.0940   35.9960 C   0  0  0  0  0  0  0  0  0  0  0  0
   43.9750   20.7950   36.4460 C   0  0  0  0  0  0  0  0  0  0  0  0
   42.9380   20.1060   37.0850 C   0  0  0  0  0  0  0  0  0  0  0  0
   41.8260   20.8130   37.2440 N   0  0  0  0  0  0  0  0  0  0  0  0
   37.5700   24.8260   36.4360 O   0  0  0  0  0  0  0  0  0  0  0  0
   37.8430   26.1010   35.9410 C   0  0  0  0  0  0  0  0  0  0  0  0
   38.4780   26.9360   36.5900 O   0  0  0  0  0  0  0  0  0  0  0  0
   37.3520   26.4480   34.5970 C   0  0  0  0  0  0  0  0  0  0  0  0
   37.4560   25.4900   33.5900 C   0  0  0  0  0  0  0  0  0  0  0  0
   36.9980   25.7970   32.3130 C   0  0  0  0  0  0  0  0  0  0  0  0
   36.4700   27.0370   32.1370 N   0  0  0  0  0  0  0  0  0  0  0  0
   36.3790   27.9360   33.1090 C   0  0  0  0  0  0  0  0  0  0  0  0
   36.8150   27.6620   34.3540 N   0  0  0  0  0  0  0  0  0  0  0  0
   39.9304   22.0647   39.0243 H   0  0  0  0  0  0  0  0  0  0  0  0
   40.0859   23.8997   35.1890 H   0  0  0  0  0  0  0  0  0  0  0  0
   42.5780   23.8186   35.8712 H   0  0  0  0  0  0  0  0  0  0  0  0
   44.7700   22.5725   35.4995 H   0  0  0  0  0  0  0  0  0  0  0  0
   44.9192   20.2525   36.2903 H   0  0  0  0  0  0  0  0  0  0  0  0
   43.0363   19.0652   37.4270 H   0  0  0  0  0  0  0  0  0  0  0  0
   37.8946   24.5039   33.8024 H   0  0  0  0  0  0  0  0  0  0  0  0
   37.0600   25.0729   31.4873 H   0  0  0  0  0  0  0  0  0  0  0  0
   35.9401   28.9216   32.8945 H   0  0  0  0  0  0  0  0  0  0  0  0
  2  1  1  0
  3  2  2  0
  4  3  1  0
  4  5  2  0
  5  1  1  0
  6  5  1  0
  6 11  1  0
  7  6  2  0
  8  7  1  0
  8  9  2  0
  9 10  1  0
 10 11  2  0
 12  3  1  0
 13 12  1  0
 13 14  2  0
 15 13  1  0
 16 15  2  0
 17 16  1  0
 18 17  2  0
 18 19  1  0
 19 20  2  0
 20 15  1  0
  1 21  1  0
  4 22  1  0
  7 23  1  0
  8 24  1  0
  9 25  1  0
 10 26  1  0
 16 27  1  0
 17 28  1  0
 19 29  1  0
M  ISO  8  21   9  22  14  23  14  24  14  25  14  26  14  27  14  28  14
M  ISO  1  29  14
M  END
>  <minimizedAffinity>  (1) 
-5.05179405

>  <minimizedRMSD>  (1) 
1.20324385

$$$$
