
     RDKit          3D

 23 24  0  0  0  0  0  0  0  0999 V2000
   37.4750   24.8420   36.3530 O   0  0  0  0  0  0  0  0  0  0  0  0
   39.4110   22.6870   38.3750 N   0  0  0  0  0  0  0  0  0  0  0  0
   38.3580   23.4580   38.1310 N   0  0  0  0  0  0  0  0  0  0  0  0
   38.4590   23.9820   36.8800 C   0  0  0  0  0  0  0  0  0  0  0  0
   39.6280   23.5170   36.3100 C   0  0  0  0  0  0  0  0  0  0  0  0
   40.1800   22.7180   37.2810 C   0  0  0  0  0  0  0  0  0  0  0  0
   41.4630   21.9810   37.1470 C   0  0  0  0  0  0  0  0  0  0  0  0
   42.5400   22.8180   37.0700 F   0  0  0  0  0  0  0  0  0  0  0  0
   41.3760   21.3100   35.9190 F   0  0  0  0  0  0  0  0  0  0  0  0
   41.6630   21.0460   38.1240 F   0  0  0  0  0  0  0  0  0  0  0  0
   37.8000   26.1130   35.9320 C   0  0  0  0  0  0  0  0  0  0  0  0
   38.5050   26.8790   36.6060 O   0  0  0  0  0  0  0  0  0  0  0  0
   37.2900   26.5780   34.6270 C   0  0  0  0  0  0  0  0  0  0  0  0
   37.3620   25.7110   33.5480 C   0  0  0  0  0  0  0  0  0  0  0  0
   36.8830   26.1380   32.3050 C   0  0  0  0  0  0  0  0  0  0  0  0
   36.3750   27.3850   32.2380 N   0  0  0  0  0  0  0  0  0  0  0  0
   36.3160   28.2060   33.2910 C   0  0  0  0  0  0  0  0  0  0  0  0
   36.7670   27.8310   34.5040 N   0  0  0  0  0  0  0  0  0  0  0  0
   39.5999   22.1642   39.2421 H   0  0  0  0  0  0  0  0  0  0  0  0
   40.0256   23.7363   35.3081 H   0  0  0  0  0  0  0  0  0  0  0  0
   37.7886   24.7041   33.6671 H   0  0  0  0  0  0  0  0  0  0  0  0
   36.9192   25.4848   31.4207 H   0  0  0  0  0  0  0  0  0  0  0  0
   35.8891   29.2118   33.1643 H   0  0  0  0  0  0  0  0  0  0  0  0
  1  4  1  0
  3  2  1  0
  4  3  2  0
  5  4  1  0
  5  6  2  0
  6  2  1  0
  7  6  1  0
  7 10  1  0
  8  7  1  0
  9  7  1  0
 11  1  1  0
 11 12  2  0
 13 11  1  0
 14 13  2  0
 15 14  1  0
 16 15  2  0
 16 17  1  0
 17 18  2  0
 18 13  1  0
  2 19  1  0
  5 20  1  0
 14 21  1  0
 15 22  1  0
 17 23  1  0
M  ISO  5  19   9  20  14  21  14  22  14  23  14
M  END
>  <minimizedAffinity>  (1) 
-5.03239202

>  <minimizedRMSD>  (1) 
0.910811603

$$$$
