
     RDKit          3D

 22 23  0  0  0  0  0  0  0  0999 V2000
   37.9260   26.2880   35.8110 C   0  0  0  0  0  0  0  0  0  0  0  0
   38.5030   26.9200   36.7030 O   0  0  0  0  0  0  0  0  0  0  0  0
   37.6790   26.9270   34.5220 C   0  0  0  0  0  0  0  0  0  0  0  0
   38.5790   26.6960   33.4720 C   0  0  0  0  0  0  0  0  0  0  0  0
   38.3470   27.3050   32.2380 C   0  0  0  0  0  0  0  0  0  0  0  0
   37.2620   28.0870   32.1350 N   0  0  0  0  0  0  0  0  0  0  0  0
   36.4150   28.3020   33.1300 C   0  0  0  0  0  0  0  0  0  0  0  0
   36.6130   27.7280   34.3290 N   0  0  0  0  0  0  0  0  0  0  0  0
   37.5120   24.9880   36.0160 O   0  0  0  0  0  0  0  0  0  0  0  0
   38.6920   23.0170   38.6780 N   0  0  0  0  0  0  0  0  0  0  0  0
   37.8590   23.8880   38.1210 N   0  0  0  0  0  0  0  0  0  0  0  0
   38.2340   24.0990   36.8380 C   0  0  0  0  0  0  0  0  0  0  0  0
   39.3460   23.3380   36.5650 C   0  0  0  0  0  0  0  0  0  0  0  0
   39.6090   22.6660   37.7490 C   0  0  0  0  0  0  0  0  0  0  0  0
   40.7200   21.7650   37.8320 N   0  0  0  0  0  0  0  0  0  0  0  0
   39.4537   26.0453   33.6185 H   0  0  0  0  0  0  0  0  0  0  0  0
   39.0252   27.1503   31.3858 H   0  0  0  0  0  0  0  0  0  0  0  0
   35.5435   28.9548   32.9741 H   0  0  0  0  0  0  0  0  0  0  0  0
   38.6474   22.6701   39.6468 H   0  0  0  0  0  0  0  0  0  0  0  0
   39.9029   23.2761   35.6184 H   0  0  0  0  0  0  0  0  0  0  0  0
   40.9142   21.2665   38.7122 H   0  0  0  0  0  0  0  0  0  0  0  0
   41.3245   21.6158   37.0115 H   0  0  0  0  0  0  0  0  0  0  0  0
  1  9  1  0
  1  2  2  0
  3  1  1  0
  4  3  2  0
  5  4  1  0
  6  5  2  0
  6  7  1  0
  7  8  2  0
  8  3  1  0
  9 12  1  0
 11 10  1  0
 12 11  2  0
 13 12  1  0
 13 14  2  0
 14 15  1  0
 14 10  1  0
  4 16  1  0
  5 17  1  0
  7 18  1  0
 10 19  1  0
 13 20  1  0
 15 21  1  0
 15 22  1  0
M  ISO  5  16  14  17  14  18  14  19   9  20  14
M  END
>  <minimizedAffinity>  (1) 
-4.78111172

>  <minimizedRMSD>  (1) 
0.213911355

$$$$
