
     RDKit          3D

 27 29  0  0  0  0  0  0  0  0999 V2000
   37.7740   26.1010   35.9070 C   0  0  0  0  0  0  0  0  0  0  0  0
   38.4680   26.8440   36.6110 O   0  0  0  0  0  0  0  0  0  0  0  0
   37.2840   26.5760   34.6050 C   0  0  0  0  0  0  0  0  0  0  0  0
   37.3660   25.7150   33.5140 C   0  0  0  0  0  0  0  0  0  0  0  0
   36.9010   26.1620   32.2730 C   0  0  0  0  0  0  0  0  0  0  0  0
   36.3990   27.4100   32.2180 N   0  0  0  0  0  0  0  0  0  0  0  0
   36.3300   28.2200   33.2790 C   0  0  0  0  0  0  0  0  0  0  0  0
   36.7680   27.8240   34.4890 N   0  0  0  0  0  0  0  0  0  0  0  0
   37.4530   24.8290   36.3290 O   0  0  0  0  0  0  0  0  0  0  0  0
   39.1920   22.6950   38.5140 N   0  0  0  0  0  0  0  0  0  0  0  0
   38.1650   23.4620   38.1670 N   0  0  0  0  0  0  0  0  0  0  0  0
   38.4000   23.9780   36.9230 C   0  0  0  0  0  0  0  0  0  0  0  0
   39.6280   23.5200   36.4560 C   0  0  0  0  0  0  0  0  0  0  0  0
   40.0850   22.7180   37.4930 C   0  0  0  0  0  0  0  0  0  0  0  0
   41.4030   21.9930   37.4380 C   0  0  0  0  0  0  0  0  0  0  0  0
   42.4950   22.5520   36.6030 C   0  0  0  0  0  0  0  0  0  0  0  0
   41.7480   21.3560   36.1180 C   0  0  0  0  0  0  0  0  0  0  0  0
   37.7874   24.7051   33.6256 H   0  0  0  0  0  0  0  0  0  0  0  0
   36.9436   25.5212   31.3799 H   0  0  0  0  0  0  0  0  0  0  0  0
   35.9075   29.2288   33.1614 H   0  0  0  0  0  0  0  0  0  0  0  0
   39.2924   22.1765   39.3983 H   0  0  0  0  0  0  0  0  0  0  0  0
   40.1186   23.7403   35.4964 H   0  0  0  0  0  0  0  0  0  0  0  0
   41.3362   21.6676   38.4866 H   0  0  0  0  0  0  0  0  0  0  0  0
   42.3600   23.5222   36.1025 H   0  0  0  0  0  0  0  0  0  0  0  0
   43.5568   22.7838   36.7729 H   0  0  0  0  0  0  0  0  0  0  0  0
   41.0583   21.4445   35.2657 H   0  0  0  0  0  0  0  0  0  0  0  0
   42.0234   20.3438   35.7869 H   0  0  0  0  0  0  0  0  0  0  0  0
  1  9  1  0
  1  2  2  0
  3  1  1  0
  4  3  2  0
  5  4  1  0
  6  5  2  0
  6  7  1  0
  7  8  2  0
  8  3  1  0
  9 12  1  0
 11 10  1  0
 12 11  2  0
 13 12  1  0
 13 14  2  0
 14 10  1  0
 15 14  1  0
 16 15  1  0
 17 16  1  0
 17 15  1  0
  4 18  1  0
  5 19  1  0
  7 20  1  0
 10 21  1  0
 13 22  1  0
 15 23  1  0
 16 24  1  0
 16 25  1  0
 17 26  1  0
 17 27  1  0
M  ISO  8  18  14  19  14  20  14  21   9  22  14  23  13  24  13  25  13
M  ISO  2  26  13  27  13
M  END
>  <minimizedAffinity>  (1) 
-4.79188824

>  <minimizedRMSD>  (1) 
0.954624295

$$$$
