
     RDKit          3D

 41 44  0  0  0  0  0  0  0  0999 V2000
   37.5700   24.7910   36.4350 O   0  0  0  0  0  0  0  0  0  0  0  0
   39.6850   22.6060   38.2300 N   0  0  0  0  0  0  0  0  0  0  0  0
   38.5890   23.3550   38.0770 N   0  0  0  0  0  0  0  0  0  0  0  0
   38.6250   23.9390   36.8460 C   0  0  0  0  0  0  0  0  0  0  0  0
   39.7760   23.5480   36.2050 C   0  0  0  0  0  0  0  0  0  0  0  0
   40.4110   22.7230   37.0860 C   0  0  0  0  0  0  0  0  0  0  0  0
   41.7000   22.0520   36.8400 C   0  0  0  0  0  0  0  0  0  0  0  0
   42.7140   22.7590   36.2130 C   0  0  0  0  0  0  0  0  0  0  0  0
   43.8810   22.0550   36.0240 C   0  0  0  0  0  0  0  0  0  0  0  0
   44.1070   20.7810   36.3870 N   0  0  0  0  0  0  0  0  0  0  0  0
   43.0790   20.1270   37.0000 C   0  0  0  0  0  0  0  0  0  0  0  0
   41.9200   20.7860   37.2030 N   0  0  0  0  0  0  0  0  0  0  0  0
   37.8140   26.0670   35.9950 C   0  0  0  0  0  0  0  0  0  0  0  0
   38.4630   26.8810   36.6900 O   0  0  0  0  0  0  0  0  0  0  0  0
   37.3130   26.4980   34.6940 C   0  0  0  0  0  0  0  0  0  0  0  0
   37.4660   25.6320   33.6140 C   0  0  0  0  0  0  0  0  0  0  0  0
   36.9940   26.0210   32.3530 C   0  0  0  0  0  0  0  0  0  0  0  0
   36.4130   27.2300   32.2700 N   0  0  0  0  0  0  0  0  0  0  0  0
   36.2750   28.0490   33.3150 C   0  0  0  0  0  0  0  0  0  0  0  0
   36.7170   27.7020   34.5340 N   0  0  0  0  0  0  0  0  0  0  0  0
   35.6440   29.3200   33.1390 N   0  0  0  0  0  0  0  0  0  0  0  0
   34.8930   29.9800   34.1910 C   0  0  0  0  0  0  0  0  0  0  0  0
   33.4790   30.1710   33.6770 C   0  0  0  0  0  0  0  0  0  0  0  0
   33.3700   29.9460   32.3160 O   0  0  0  0  0  0  0  0  0  0  0  0
   34.3670   30.6120   31.5930 C   0  0  0  0  0  0  0  0  0  0  0  0
   35.7360   30.0090   31.8650 C   0  0  0  0  0  0  0  0  0  0  0  0
   39.9331   22.0458   39.0580 H   0  0  0  0  0  0  0  0  0  0  0  0
   40.1125   23.8379   35.1986 H   0  0  0  0  0  0  0  0  0  0  0  0
   42.5948   23.8040   35.8908 H   0  0  0  0  0  0  0  0  0  0  0  0
   44.7076   22.5855   35.5287 H   0  0  0  0  0  0  0  0  0  0  0  0
   43.1931   19.0816   37.3228 H   0  0  0  0  0  0  0  0  0  0  0  0
   37.9516   24.6543   33.7491 H   0  0  0  0  0  0  0  0  0  0  0  0
   37.0943   25.3681   31.4734 H   0  0  0  0  0  0  0  0  0  0  0  0
   34.8841   29.3559   35.0968 H   0  0  0  0  0  0  0  0  0  0  0  0
   35.3492   30.9468   34.4503 H   0  0  0  0  0  0  0  0  0  0  0  0
   32.8154   29.4695   34.2038 H   0  0  0  0  0  0  0  0  0  0  0  0
   33.1962   31.2174   33.8642 H   0  0  0  0  0  0  0  0  0  0  0  0
   34.3765   31.6720   31.8869 H   0  0  0  0  0  0  0  0  0  0  0  0
   34.1474   30.5102   30.5200 H   0  0  0  0  0  0  0  0  0  0  0  0
   36.0021   29.2986   31.0684 H   0  0  0  0  0  0  0  0  0  0  0  0
   36.5124   30.7877   31.8921 H   0  0  0  0  0  0  0  0  0  0  0  0
  1  4  1  0
  3  2  1  0
  4  3  2  0
  5  4  1  0
  5  6  2  0
  6  2  1  0
  7  6  1  0
  7 12  1  0
  8  7  2  0
  9  8  1  0
  9 10  2  0
 10 11  1  0
 11 12  2  0
 13  1  1  0
 13 14  2  0
 15 13  1  0
 16 15  2  0
 17 16  1  0
 18 17  2  0
 18 19  1  0
 19 20  2  0
 20 15  1  0
 21 19  1  0
 21 22  1  0
 23 22  1  0
 24 23  1  0
 25 26  1  0
 25 24  1  0
 26 21  1  0
  2 27  1  0
  5 28  1  0
  8 29  1  0
  9 30  1  0
 11 31  1  0
 16 32  1  0
 17 33  1  0
 22 34  1  0
 22 35  1  0
 23 36  1  0
 23 37  1  0
 25 38  1  0
 25 39  1  0
 26 40  1  0
 26 41  1  0
M  ISO  8  27   9  28  14  29  14  30  14  31  14  32  14  33  14  34  13
M  ISO  7  35  13  36  13  37  13  38  13  39  13  40  13  41  13
M  END
>  <minimizedAffinity>  (1) 
-6.00813723

>  <minimizedRMSD>  (1) 
0.0996609852

$$$$
