
     RDKit          3D

 34 37  0  0  0  0  0  0  0  0999 V2000
   37.6010   24.8380   36.4840 O   0  0  0  0  0  0  0  0  0  0  0  0
   39.6860   22.6080   38.2580 N   0  0  0  0  0  0  0  0  0  0  0  0
   38.6030   23.3700   38.1060 N   0  0  0  0  0  0  0  0  0  0  0  0
   38.6510   23.9680   36.8870 C   0  0  0  0  0  0  0  0  0  0  0  0
   39.7940   23.5790   36.2480 C   0  0  0  0  0  0  0  0  0  0  0  0
   40.4190   22.7330   37.1220 C   0  0  0  0  0  0  0  0  0  0  0  0
   41.7070   22.0570   36.8610 C   0  0  0  0  0  0  0  0  0  0  0  0
   42.7080   22.7560   36.2280 C   0  0  0  0  0  0  0  0  0  0  0  0
   43.8800   22.0390   36.0260 C   0  0  0  0  0  0  0  0  0  0  0  0
   44.0900   20.7600   36.3930 N   0  0  0  0  0  0  0  0  0  0  0  0
   43.0650   20.1180   37.0150 C   0  0  0  0  0  0  0  0  0  0  0  0
   41.9110   20.7810   37.2300 N   0  0  0  0  0  0  0  0  0  0  0  0
   37.8580   25.9960   35.7990 C   0  0  0  0  0  0  0  0  0  0  0  0
   38.4680   26.9540   36.3500 O   0  0  0  0  0  0  0  0  0  0  0  0
   37.4330   26.1510   34.4130 C   0  0  0  0  0  0  0  0  0  0  0  0
   37.6400   25.0800   33.5520 C   0  0  0  0  0  0  0  0  0  0  0  0
   37.2460   25.1860   32.2080 C   0  0  0  0  0  0  0  0  0  0  0  0
   36.6830   26.3540   31.8500 N   0  0  0  0  0  0  0  0  0  0  0  0
   36.4900   27.3770   32.6870 C   0  0  0  0  0  0  0  0  0  0  0  0
   36.8620   27.2900   33.9770 N   0  0  0  0  0  0  0  0  0  0  0  0
   35.8640   28.6410   32.2350 C   0  0  0  0  0  0  0  0  0  0  0  0
   34.6080   29.1500   32.7150 C   0  0  0  0  0  0  0  0  0  0  0  0
   34.5430   30.6940   31.7030 S   0  0  0  0  0  0  0  0  0  0  0  0
   36.1640   30.3710   30.8540 C   0  0  0  0  0  0  0  0  0  0  0  0
   36.5900   29.2720   31.3250 N   0  0  0  0  0  0  0  0  0  0  0  0
   39.9218   22.0340   39.0801 H   0  0  0  0  0  0  0  0  0  0  0  0
   40.1372   23.8808   35.2474 H   0  0  0  0  0  0  0  0  0  0  0  0
   42.5896   23.8014   35.9068 H   0  0  0  0  0  0  0  0  0  0  0  0
   44.7079   22.5602   35.5231 H   0  0  0  0  0  0  0  0  0  0  0  0
   43.1760   19.0724   37.3381 H   0  0  0  0  0  0  0  0  0  0  0  0
   38.1091   24.1558   33.9204 H   0  0  0  0  0  0  0  0  0  0  0  0
   37.3892   24.3637   31.4916 H   0  0  0  0  0  0  0  0  0  0  0  0
   33.9032   28.7450   33.4561 H   0  0  0  0  0  0  0  0  0  0  0  0
   36.6539   31.0026   30.0983 H   0  0  0  0  0  0  0  0  0  0  0  0
  1  4  1  0
  3  2  1  0
  4  3  2  0
  5  4  1  0
  5  6  2  0
  6  2  1  0
  7  6  1  0
  7 12  1  0
  8  7  2  0
  9  8  1  0
  9 10  2  0
 10 11  1  0
 11 12  2  0
 13 14  2  0
 13  1  1  0
 15 13  1  0
 16 15  2  0
 17 16  1  0
 18 17  2  0
 18 19  1  0
 19 20  2  0
 20 15  1  0
 21 19  1  0
 21 22  2  0
 23 22  1  0
 24 25  2  0
 24 23  1  0
 25 21  1  0
  2 26  1  0
  5 27  1  0
  8 28  1  0
  9 29  1  0
 11 30  1  0
 16 31  1  0
 17 32  1  0
 22 33  1  0
 24 34  1  0
M  ISO  8  26   9  27  14  28  14  29  14  30  14  31  14  32  14  33  14
M  ISO  1  34  14
M  END
>  <minimizedAffinity>  (1) 
-5.6583395

>  <minimizedRMSD>  (1) 
0.84019196

$$$$
