
     RDKit          3D

 34 37  0  0  0  0  0  0  0  0999 V2000
   39.6880   22.6060   38.2620 N   0  0  0  0  0  0  0  0  0  0  0  0
   38.6070   23.3680   38.1070 N   0  0  0  0  0  0  0  0  0  0  0  0
   38.6540   23.9660   36.8830 C   0  0  0  0  0  0  0  0  0  0  0  0
   39.7980   23.5730   36.2420 C   0  0  0  0  0  0  0  0  0  0  0  0
   40.4170   22.7250   37.1330 C   0  0  0  0  0  0  0  0  0  0  0  0
   41.7000   22.0510   36.8700 C   0  0  0  0  0  0  0  0  0  0  0  0
   42.7140   22.7380   36.2370 C   0  0  0  0  0  0  0  0  0  0  0  0
   43.8860   22.0320   36.0280 C   0  0  0  0  0  0  0  0  0  0  0  0
   44.0860   20.7620   36.3930 N   0  0  0  0  0  0  0  0  0  0  0  0
   43.0690   20.1060   37.0150 C   0  0  0  0  0  0  0  0  0  0  0  0
   41.9190   20.7800   37.2270 N   0  0  0  0  0  0  0  0  0  0  0  0
   37.6110   24.8320   36.4780 O   0  0  0  0  0  0  0  0  0  0  0  0
   37.8690   26.0010   35.7970 C   0  0  0  0  0  0  0  0  0  0  0  0
   38.4890   26.9430   36.3590 O   0  0  0  0  0  0  0  0  0  0  0  0
   37.4290   26.1610   34.4130 C   0  0  0  0  0  0  0  0  0  0  0  0
   37.6170   25.0740   33.5550 C   0  0  0  0  0  0  0  0  0  0  0  0
   37.1990   25.2150   32.2250 C   0  0  0  0  0  0  0  0  0  0  0  0
   36.6390   26.4050   31.8710 N   0  0  0  0  0  0  0  0  0  0  0  0
   36.4800   27.4060   32.7110 C   0  0  0  0  0  0  0  0  0  0  0  0
   36.8670   27.3160   33.9980 N   0  0  0  0  0  0  0  0  0  0  0  0
   35.8950   28.6560   32.3500 N   0  0  0  0  0  0  0  0  0  0  0  0
   34.6630   29.1580   32.5400 C   0  0  0  0  0  0  0  0  0  0  0  0
   34.6280   30.4080   31.9960 N   0  0  0  0  0  0  0  0  0  0  0  0
   35.8620   30.6510   31.4730 C   0  0  0  0  0  0  0  0  0  0  0  0
   36.6200   29.5490   31.7090 N   0  0  0  0  0  0  0  0  0  0  0  0
   39.9228   22.0348   39.0864 H   0  0  0  0  0  0  0  0  0  0  0  0
   40.1447   23.8682   35.2407 H   0  0  0  0  0  0  0  0  0  0  0  0
   42.5985   23.7842   35.9173 H   0  0  0  0  0  0  0  0  0  0  0  0
   44.7131   22.5543   35.5248 H   0  0  0  0  0  0  0  0  0  0  0  0
   43.1806   19.0595   37.3349 H   0  0  0  0  0  0  0  0  0  0  0  0
   38.0770   24.1405   33.9112 H   0  0  0  0  0  0  0  0  0  0  0  0
   37.3182   24.3988   31.4973 H   0  0  0  0  0  0  0  0  0  0  0  0
   33.8289   28.6496   33.0458 H   0  0  0  0  0  0  0  0  0  0  0  0
   36.1840   31.5673   30.9567 H   0  0  0  0  0  0  0  0  0  0  0  0
  2  1  1  0
  3  2  2  0
  4  3  1  0
  4  5  2  0
  5  1  1  0
  6  5  1  0
  6 11  1  0
  7  6  2  0
  8  7  1  0
  8  9  2  0
  9 10  1  0
 10 11  2  0
 12  3  1  0
 13 14  2  0
 13 12  1  0
 15 13  1  0
 16 15  2  0
 17 16  1  0
 18 17  2  0
 18 19  1  0
 19 20  2  0
 20 15  1  0
 21 22  1  0
 21 19  1  0
 23 22  2  0
 24 25  2  0
 24 23  1  0
 25 21  1  0
  1 26  1  0
  4 27  1  0
  7 28  1  0
  8 29  1  0
 10 30  1  0
 16 31  1  0
 17 32  1  0
 22 33  1  0
 24 34  1  0
M  ISO  8  26   9  27  14  28  14  29  14  30  14  31  14  32  14  33  14
M  ISO  1  34  14
M  END
>  <minimizedAffinity>  (1) 
-5.85707712

>  <minimizedRMSD>  (1) 
0.690139472

$$$$
