
     RDKit          3D

 36 39  0  0  0  0  0  0  0  0999 V2000
   37.5990   24.8400   36.4810 O   0  0  0  0  0  0  0  0  0  0  0  0
   39.6790   22.6130   38.2650 N   0  0  0  0  0  0  0  0  0  0  0  0
   38.5950   23.3750   38.1090 N   0  0  0  0  0  0  0  0  0  0  0  0
   38.6430   23.9750   36.8870 C   0  0  0  0  0  0  0  0  0  0  0  0
   39.7930   23.5790   36.2520 C   0  0  0  0  0  0  0  0  0  0  0  0
   40.4160   22.7380   37.1250 C   0  0  0  0  0  0  0  0  0  0  0  0
   41.7030   22.0650   36.8610 C   0  0  0  0  0  0  0  0  0  0  0  0
   42.7150   22.7430   36.2330 C   0  0  0  0  0  0  0  0  0  0  0  0
   43.8770   22.0420   36.0260 C   0  0  0  0  0  0  0  0  0  0  0  0
   44.0900   20.7660   36.3900 N   0  0  0  0  0  0  0  0  0  0  0  0
   43.0610   20.1220   37.0130 C   0  0  0  0  0  0  0  0  0  0  0  0
   41.9160   20.7870   37.2250 N   0  0  0  0  0  0  0  0  0  0  0  0
   37.8640   25.9950   35.7900 C   0  0  0  0  0  0  0  0  0  0  0  0
   38.4830   26.9510   36.3340 O   0  0  0  0  0  0  0  0  0  0  0  0
   37.4390   26.1540   34.4050 C   0  0  0  0  0  0  0  0  0  0  0  0
   37.6780   25.0820   33.5430 C   0  0  0  0  0  0  0  0  0  0  0  0
   37.2820   25.2000   32.2000 C   0  0  0  0  0  0  0  0  0  0  0  0
   36.6910   26.3580   31.8360 N   0  0  0  0  0  0  0  0  0  0  0  0
   36.4810   27.3550   32.6810 C   0  0  0  0  0  0  0  0  0  0  0  0
   36.8430   27.2860   33.9770 N   0  0  0  0  0  0  0  0  0  0  0  0
   35.8340   28.5690   32.1940 C   0  0  0  0  0  0  0  0  0  0  0  0
   36.4010   29.3390   31.2010 C   0  0  0  0  0  0  0  0  0  0  0  0
   35.6890   30.4560   30.8330 C   0  0  0  0  0  0  0  0  0  0  0  0
   34.5150   30.8360   31.3600 N   0  0  0  0  0  0  0  0  0  0  0  0
   33.9850   30.0500   32.3400 C   0  0  0  0  0  0  0  0  0  0  0  0
   34.6440   28.9290   32.7470 N   0  0  0  0  0  0  0  0  0  0  0  0
   39.9138   22.0404   39.0884 H   0  0  0  0  0  0  0  0  0  0  0  0
   40.1387   23.8769   35.2511 H   0  0  0  0  0  0  0  0  0  0  0  0
   42.6026   23.7894   35.9130 H   0  0  0  0  0  0  0  0  0  0  0  0
   44.7009   22.5675   35.5210 H   0  0  0  0  0  0  0  0  0  0  0  0
   43.1688   19.0759   37.3356 H   0  0  0  0  0  0  0  0  0  0  0  0
   38.1654   24.1655   33.9071 H   0  0  0  0  0  0  0  0  0  0  0  0
   37.4460   24.3862   31.4783 H   0  0  0  0  0  0  0  0  0  0  0  0
   37.3613   29.0766   30.7332 H   0  0  0  0  0  0  0  0  0  0  0  0
   36.1166   31.0898   30.0421 H   0  0  0  0  0  0  0  0  0  0  0  0
   33.0245   30.3211   32.8025 H   0  0  0  0  0  0  0  0  0  0  0  0
  1  4  1  0
  3  2  1  0
  4  3  2  0
  5  4  1  0
  5  6  2  0
  6  2  1  0
  7  6  1  0
  7 12  1  0
  8  7  2  0
  9  8  1  0
  9 10  2  0
 10 11  1  0
 11 12  2  0
 13 14  2  0
 13  1  1  0
 15 13  1  0
 16 15  2  0
 17 16  1  0
 18 17  2  0
 18 19  1  0
 19 20  2  0
 20 15  1  0
 21 19  1  0
 21 26  1  0
 22 21  2  0
 23 22  1  0
 23 24  2  0
 24 25  1  0
 25 26  2  0
  2 27  1  0
  5 28  1  0
  8 29  1  0
  9 30  1  0
 11 31  1  0
 16 32  1  0
 17 33  1  0
 22 34  1  0
 23 35  1  0
 25 36  1  0
M  ISO  8  27   9  28  14  29  14  30  14  31  14  32  14  33  14  34  14
M  ISO  2  35  14  36  14
M  END
>  <minimizedAffinity>  (1) 
-5.88356352

>  <minimizedRMSD>  (1) 
0.853018761

$$$$
