
     RDKit          3D

 33 36  0  0  0  0  0  0  0  0999 V2000
   37.6000   24.8770   36.4510 O   0  0  0  0  0  0  0  0  0  0  0  0
   39.6540   22.6320   38.2420 N   0  0  0  0  0  0  0  0  0  0  0  0
   38.5750   23.3990   38.0810 N   0  0  0  0  0  0  0  0  0  0  0  0
   38.6340   24.0060   36.8600 C   0  0  0  0  0  0  0  0  0  0  0  0
   39.7940   23.6050   36.2350 C   0  0  0  0  0  0  0  0  0  0  0  0
   40.4000   22.7510   37.1240 C   0  0  0  0  0  0  0  0  0  0  0  0
   41.6870   22.0750   36.8650 C   0  0  0  0  0  0  0  0  0  0  0  0
   42.7040   22.7630   36.2330 C   0  0  0  0  0  0  0  0  0  0  0  0
   43.8550   22.0450   36.0410 C   0  0  0  0  0  0  0  0  0  0  0  0
   44.0700   20.7680   36.4050 N   0  0  0  0  0  0  0  0  0  0  0  0
   43.0390   20.1350   37.0230 C   0  0  0  0  0  0  0  0  0  0  0  0
   41.8940   20.8030   37.2300 N   0  0  0  0  0  0  0  0  0  0  0  0
   37.8650   26.0050   35.7240 C   0  0  0  0  0  0  0  0  0  0  0  0
   38.4670   26.9790   36.2440 O   0  0  0  0  0  0  0  0  0  0  0  0
   37.4470   26.0930   34.3210 C   0  0  0  0  0  0  0  0  0  0  0  0
   37.6800   25.0000   33.5130 C   0  0  0  0  0  0  0  0  0  0  0  0
   37.2860   25.0640   32.1610 C   0  0  0  0  0  0  0  0  0  0  0  0
   36.6970   26.2210   31.7550 N   0  0  0  0  0  0  0  0  0  0  0  0
   36.4910   27.2440   32.5580 C   0  0  0  0  0  0  0  0  0  0  0  0
   36.8510   27.2340   33.8660 N   0  0  0  0  0  0  0  0  0  0  0  0
   35.8550   28.4710   32.0870 C   0  0  0  0  0  0  0  0  0  0  0  0
   36.0390   29.2760   31.0000 N   0  0  0  0  0  0  0  0  0  0  0  0
   35.1920   30.2610   31.0560 O   0  0  0  0  0  0  0  0  0  0  0  0
   34.4590   30.1280   32.1420 C   0  0  0  0  0  0  0  0  0  0  0  0
   34.8410   29.0240   32.8130 N   0  0  0  0  0  0  0  0  0  0  0  0
   39.8765   22.0560   39.0664 H   0  0  0  0  0  0  0  0  0  0  0  0
   40.1564   23.9037   35.2403 H   0  0  0  0  0  0  0  0  0  0  0  0
   42.5980   23.8086   35.9082 H   0  0  0  0  0  0  0  0  0  0  0  0
   44.6852   22.5641   35.5397 H   0  0  0  0  0  0  0  0  0  0  0  0
   43.1415   19.0895   37.3491 H   0  0  0  0  0  0  0  0  0  0  0  0
   38.1631   24.0972   33.9150 H   0  0  0  0  0  0  0  0  0  0  0  0
   37.4464   24.2227   31.4707 H   0  0  0  0  0  0  0  0  0  0  0  0
   33.6573   30.8136   32.4536 H   0  0  0  0  0  0  0  0  0  0  0  0
  1  4  1  0
  3  2  1  0
  4  3  2  0
  5  4  1  0
  5  6  2  0
  6  2  1  0
  7  6  1  0
  7 12  1  0
  8  7  2  0
  9  8  1  0
  9 10  2  0
 10 11  1  0
 11 12  2  0
 13 14  2  0
 13  1  1  0
 15 13  1  0
 16 15  2  0
 17 16  1  0
 18 17  2  0
 18 19  1  0
 19 20  2  0
 20 15  1  0
 21 19  1  0
 21 25  1  0
 22 23  1  0
 22 21  2  0
 23 24  1  0
 24 25  2  0
  2 26  1  0
  5 27  1  0
  8 28  1  0
  9 29  1  0
 11 30  1  0
 16 31  1  0
 17 32  1  0
 24 33  1  0
M  ISO  8  26   9  27  14  28  14  29  14  30  14  31  14  32  14  33  14
M  END
>  <minimizedAffinity>  (1) 
-5.64634705

>  <minimizedRMSD>  (1) 
0.871511459

$$$$
