
     RDKit          3D

 56 59  0  0  0  0  0  0  0  0999 V2000
   37.2680   26.5770   34.6770 C   0  0  0  0  0  0  0  0  0  0  0  0
   37.3870   25.7390   33.5820 C   0  0  0  0  0  0  0  0  0  0  0  0
   36.8630   26.1750   32.3380 C   0  0  0  0  0  0  0  0  0  0  0  0
   36.2810   27.3870   32.3110 N   0  0  0  0  0  0  0  0  0  0  0  0
   36.1790   28.1710   33.3730 C   0  0  0  0  0  0  0  0  0  0  0  0
   36.6740   27.7770   34.5840 N   0  0  0  0  0  0  0  0  0  0  0  0
   37.8160   26.1090   35.9530 C   0  0  0  0  0  0  0  0  0  0  0  0
   38.5030   26.8850   36.6470 O   0  0  0  0  0  0  0  0  0  0  0  0
   37.5740   24.8350   36.3710 O   0  0  0  0  0  0  0  0  0  0  0  0
   39.6550   22.6400   38.1950 N   0  0  0  0  0  0  0  0  0  0  0  0
   38.5670   23.3910   38.0220 N   0  0  0  0  0  0  0  0  0  0  0  0
   38.6200   23.9830   36.7940 C   0  0  0  0  0  0  0  0  0  0  0  0
   39.7710   23.5930   36.1770 C   0  0  0  0  0  0  0  0  0  0  0  0
   40.3890   22.7630   37.0680 C   0  0  0  0  0  0  0  0  0  0  0  0
   41.6890   22.0960   36.8200 C   0  0  0  0  0  0  0  0  0  0  0  0
   42.6990   22.7930   36.2100 C   0  0  0  0  0  0  0  0  0  0  0  0
   43.8720   22.0820   36.0230 C   0  0  0  0  0  0  0  0  0  0  0  0
   44.0820   20.7980   36.3860 N   0  0  0  0  0  0  0  0  0  0  0  0
   43.0510   20.1550   36.9830 C   0  0  0  0  0  0  0  0  0  0  0  0
   41.8950   20.8100   37.1850 N   0  0  0  0  0  0  0  0  0  0  0  0
   35.5090   29.5110   33.2400 C   0  0  0  0  0  0  0  0  0  0  0  0
   35.4850   30.1270   34.6450 C   0  0  0  0  0  0  0  0  0  0  0  0
   34.0840   29.2420   32.8270 C   0  0  0  0  0  0  0  0  0  0  0  0
   36.2420   30.4010   32.2870 C   0  0  0  0  0  0  0  0  0  0  0  0
   35.6380   31.6920   31.9540 C   0  0  0  0  0  0  0  0  0  0  0  0
   35.2610   32.0270   30.5650 C   0  0  0  0  0  0  0  0  0  0  0  0
   36.3760   32.2530   29.5890 C   0  0  0  0  0  0  0  0  0  0  0  0
   37.6330   32.6740   30.2710 C   0  0  0  0  0  0  0  0  0  0  0  0
   37.3750   33.4850   31.5070 C   0  0  0  0  0  0  0  0  0  0  0  0
   36.5350   32.7980   32.5140 C   0  0  0  0  0  0  0  0  0  0  0  0
   37.8763   24.7581   33.6742 H   0  0  0  0  0  0  0  0  0  0  0  0
   36.9298   25.5495   31.4356 H   0  0  0  0  0  0  0  0  0  0  0  0
   39.8896   22.0768   39.0249 H   0  0  0  0  0  0  0  0  0  0  0  0
   40.1256   23.8840   35.1772 H   0  0  0  0  0  0  0  0  0  0  0  0
   42.5860   23.8401   35.8924 H   0  0  0  0  0  0  0  0  0  0  0  0
   44.7060   22.6088   35.5362 H   0  0  0  0  0  0  0  0  0  0  0  0
   43.1584   19.1070   37.2995 H   0  0  0  0  0  0  0  0  0  0  0  0
   35.5162   29.3252   35.3975 H   0  0  0  0  0  0  0  0  0  0  0  0
   36.3582   30.7837   34.7724 H   0  0  0  0  0  0  0  0  0  0  0  0
   34.5633   30.7137   34.7724 H   0  0  0  0  0  0  0  0  0  0  0  0
   33.4583   29.1239   33.7240 H   0  0  0  0  0  0  0  0  0  0  0  0
   33.7104   30.0855   32.2279 H   0  0  0  0  0  0  0  0  0  0  0  0
   34.0436   28.3204   32.2279 H   0  0  0  0  0  0  0  0  0  0  0  0
   37.2309   30.6047   32.7235 H   0  0  0  0  0  0  0  0  0  0  0  0
   36.2463   29.8451   31.3378 H   0  0  0  0  0  0  0  0  0  0  0  0
   34.6442   31.6018   32.4170 H   0  0  0  0  0  0  0  0  0  0  0  0
   34.6466   31.1998   30.1800 H   0  0  0  0  0  0  0  0  0  0  0  0
   34.7455   32.9961   30.6366 H   0  0  0  0  0  0  0  0  0  0  0  0
   36.0751   33.0389   28.8806 H   0  0  0  0  0  0  0  0  0  0  0  0
   36.5714   31.3041   29.0680 H   0  0  0  0  0  0  0  0  0  0  0  0
   38.1998   31.7741   30.5520 H   0  0  0  0  0  0  0  0  0  0  0  0
   38.1971   33.3061   29.5694 H   0  0  0  0  0  0  0  0  0  0  0  0
   38.3429   33.7263   31.9706 H   0  0  0  0  0  0  0  0  0  0  0  0
   36.8220   34.3813   31.1896 H   0  0  0  0  0  0  0  0  0  0  0  0
   35.8917   33.5503   32.9938 H   0  0  0  0  0  0  0  0  0  0  0  0
   37.2283   32.3096   33.2146 H   0  0  0  0  0  0  0  0  0  0  0  0
  1  7  1  0
  2  1  2  0
  3  2  1  0
  4  3  2  0
  4  5  1  0
  5  6  2  0
  6  1  1  0
  7  9  1  0
  7  8  2  0
  9 12  1  0
 11 10  1  0
 12 11  2  0
 13 12  1  0
 13 14  2  0
 14 10  1  0
 15 14  1  0
 15 20  1  0
 16 15  2  0
 17 16  1  0
 17 18  2  0
 18 19  1  0
 19 20  2  0
 21  5  1  0
 21 22  1  0
 23 21  1  0
 24 21  1  0
 25 24  1  0
 25 30  1  0
 26 25  1  0
 27 28  1  0
 27 26  1  0
 28 29  1  0
 29 30  1  0
  2 31  1  0
  3 32  1  0
 10 33  1  0
 13 34  1  0
 16 35  1  0
 17 36  1  0
 19 37  1  0
 22 38  1  0
 22 39  1  0
 22 40  1  0
 23 41  1  0
 23 42  1  0
 23 43  1  0
 24 44  1  0
 24 45  1  0
 25 46  1  0
 26 47  1  0
 26 48  1  0
 27 49  1  0
 27 50  1  0
 28 51  1  0
 28 52  1  0
 29 53  1  0
 29 54  1  0
 30 55  1  0
 30 56  1  0
M  ISO  8  31  14  32  14  33   9  34  14  35  14  36  14  37  14  38   8
M  ISO  8  39   8  40   8  41   8  42   8  43   8  44   8  45   8  46  13
M  ISO  8  47  13  48  13  49  13  50  13  51  13  52  13  53  13  54  13
M  ISO  2  55  13  56  13
M  END
>  <minimizedAffinity>  (1) 
-6.03582144

>  <minimizedRMSD>  (1) 
0.145490721

$$$$
