
     RDKit          3D

 54 57  0  0  0  0  0  0  0  0999 V2000
   37.2740   26.5720   34.6370 C   0  0  0  0  0  0  0  0  0  0  0  0
   37.4340   25.7150   33.5520 C   0  0  0  0  0  0  0  0  0  0  0  0
   36.9230   26.1250   32.3030 C   0  0  0  0  0  0  0  0  0  0  0  0
   36.3120   27.3230   32.2390 N   0  0  0  0  0  0  0  0  0  0  0  0
   36.1740   28.1180   33.2890 C   0  0  0  0  0  0  0  0  0  0  0  0
   36.6530   27.7550   34.5080 N   0  0  0  0  0  0  0  0  0  0  0  0
   37.8080   26.1340   35.9270 C   0  0  0  0  0  0  0  0  0  0  0  0
   38.4930   26.9300   36.6060 O   0  0  0  0  0  0  0  0  0  0  0  0
   37.5630   24.8790   36.3810 O   0  0  0  0  0  0  0  0  0  0  0  0
   39.6320   22.6580   38.1950 N   0  0  0  0  0  0  0  0  0  0  0  0
   38.5440   23.4180   38.0210 N   0  0  0  0  0  0  0  0  0  0  0  0
   38.6000   24.0190   36.8030 C   0  0  0  0  0  0  0  0  0  0  0  0
   39.7620   23.6280   36.1790 C   0  0  0  0  0  0  0  0  0  0  0  0
   40.3730   22.7890   37.0660 C   0  0  0  0  0  0  0  0  0  0  0  0
   41.6750   22.1160   36.8140 C   0  0  0  0  0  0  0  0  0  0  0  0
   42.6930   22.8240   36.2030 C   0  0  0  0  0  0  0  0  0  0  0  0
   43.8660   22.1130   36.0120 C   0  0  0  0  0  0  0  0  0  0  0  0
   44.0720   20.8230   36.3710 N   0  0  0  0  0  0  0  0  0  0  0  0
   43.0290   20.1800   36.9700 C   0  0  0  0  0  0  0  0  0  0  0  0
   41.8690   20.8280   37.1770 N   0  0  0  0  0  0  0  0  0  0  0  0
   35.4770   29.4380   33.1170 C   0  0  0  0  0  0  0  0  0  0  0  0
   35.5860   30.1640   34.4660 C   0  0  0  0  0  0  0  0  0  0  0  0
   34.0200   29.1270   32.8700 C   0  0  0  0  0  0  0  0  0  0  0  0
   36.0940   30.2650   32.0330 C   0  0  0  0  0  0  0  0  0  0  0  0
   35.6600   31.5760   31.9870 N   0  0  0  0  0  0  0  0  0  0  0  0
   34.5060   32.0190   31.3510 C   0  0  0  0  0  0  0  0  0  0  0  0
   33.7680   33.0130   32.2520 C   0  0  0  0  0  0  0  0  0  0  0  0
   34.5930   33.4400   33.3600 N   0  0  0  0  0  0  0  0  0  0  0  0
   35.9460   33.7210   32.9910 C   0  0  0  0  0  0  0  0  0  0  0  0
   36.6190   32.6040   32.2150 C   0  0  0  0  0  0  0  0  0  0  0  0
   37.9438   24.7469   33.6653 H   0  0  0  0  0  0  0  0  0  0  0  0
   37.0203   25.4878   31.4117 H   0  0  0  0  0  0  0  0  0  0  0  0
   39.8611   22.0874   39.0213 H   0  0  0  0  0  0  0  0  0  0  0  0
   40.1206   23.9262   35.1828 H   0  0  0  0  0  0  0  0  0  0  0  0
   42.5799   23.8730   35.8920 H   0  0  0  0  0  0  0  0  0  0  0  0
   44.7012   22.6403   35.5278 H   0  0  0  0  0  0  0  0  0  0  0  0
   43.1367   19.1312   37.2838 H   0  0  0  0  0  0  0  0  0  0  0  0
   35.4768   29.4365   35.2838 H   0  0  0  0  0  0  0  0  0  0  0  0
   36.5678   30.6544   34.5402 H   0  0  0  0  0  0  0  0  0  0  0  0
   34.7915   30.9211   34.5402 H   0  0  0  0  0  0  0  0  0  0  0  0
   33.5004   29.0161   33.8332 H   0  0  0  0  0  0  0  0  0  0  0  0
   33.5617   29.9476   32.2985 H   0  0  0  0  0  0  0  0  0  0  0  0
   33.9367   28.1908   32.2985 H   0  0  0  0  0  0  0  0  0  0  0  0
   37.1835   30.2702   32.1845 H   0  0  0  0  0  0  0  0  0  0  0  0
   35.7907   29.8045   31.0812 H   0  0  0  0  0  0  0  0  0  0  0  0
   34.7762   32.5132   30.4061 H   0  0  0  0  0  0  0  0  0  0  0  0
   33.8514   31.1594   31.1449 H   0  0  0  0  0  0  0  0  0  0  0  0
   33.4862   33.8938   31.6564 H   0  0  0  0  0  0  0  0  0  0  0  0
   32.8768   32.5129   32.6589 H   0  0  0  0  0  0  0  0  0  0  0  0
   34.1811   34.2939   33.7626 H   0  0  0  0  0  0  0  0  0  0  0  0
   35.9535   34.6279   32.3685 H   0  0  0  0  0  0  0  0  0  0  0  0
   36.5118   33.8444   33.9262 H   0  0  0  0  0  0  0  0  0  0  0  0
   37.4625   32.2033   32.7963 H   0  0  0  0  0  0  0  0  0  0  0  0
   37.0004   32.9854   31.2563 H   0  0  0  0  0  0  0  0  0  0  0  0
  1  7  1  0
  2  1  2  0
  3  2  1  0
  4  3  2  0
  4  5  1  0
  5  6  2  0
  6  1  1  0
  7  9  1  0
  7  8  2  0
  9 12  1  0
 11 10  1  0
 12 11  2  0
 13 12  1  0
 13 14  2  0
 14 10  1  0
 15 14  1  0
 15 20  1  0
 16 15  2  0
 17 16  1  0
 17 18  2  0
 18 19  1  0
 19 20  2  0
 21  5  1  0
 21 22  1  0
 23 21  1  0
 24 21  1  0
 25 24  1  0
 25 30  1  0
 26 25  1  0
 26 27  1  0
 27 28  1  0
 29 28  1  0
 30 29  1  0
  2 31  1  0
  3 32  1  0
 10 33  1  0
 13 34  1  0
 16 35  1  0
 17 36  1  0
 19 37  1  0
 22 38  1  0
 22 39  1  0
 22 40  1  0
 23 41  1  0
 23 42  1  0
 23 43  1  0
 24 44  1  0
 24 45  1  0
 26 46  1  0
 26 47  1  0
 27 48  1  0
 27 49  1  0
 28 50  1  0
 29 51  1  0
 29 52  1  0
 30 53  1  0
 30 54  1  0
M  ISO  8  31  14  32  14  33   9  34  14  35  14  36  14  37  14  38   8
M  ISO  8  39   8  40   8  41   8  42   8  43   8  44   8  45   8  46  13
M  ISO  8  47  13  48  13  49  13  50   5  51  13  52  13  53  13  54  13
M  END
>  <minimizedAffinity>  (1) 
-5.67875719

>  <minimizedRMSD>  (1) 
0.576504171

$$$$
