
     RDKit          3D

 42 44  0  0  0  0  0  0  0  0999 V2000
   37.2730   26.5760   34.6380 C   0  0  0  0  0  0  0  0  0  0  0  0
   37.4160   25.7280   33.5630 C   0  0  0  0  0  0  0  0  0  0  0  0
   36.8980   26.1410   32.3120 C   0  0  0  0  0  0  0  0  0  0  0  0
   36.2970   27.3400   32.2610 N   0  0  0  0  0  0  0  0  0  0  0  0
   36.1720   28.1440   33.3310 C   0  0  0  0  0  0  0  0  0  0  0  0
   36.6570   27.7720   34.5280 N   0  0  0  0  0  0  0  0  0  0  0  0
   37.8130   26.1380   35.9240 C   0  0  0  0  0  0  0  0  0  0  0  0
   38.5100   26.9350   36.5990 O   0  0  0  0  0  0  0  0  0  0  0  0
   37.5530   24.8690   36.3810 O   0  0  0  0  0  0  0  0  0  0  0  0
   39.6350   22.6640   38.1880 N   0  0  0  0  0  0  0  0  0  0  0  0
   38.5450   23.4200   38.0190 N   0  0  0  0  0  0  0  0  0  0  0  0
   38.6030   24.0110   36.7950 C   0  0  0  0  0  0  0  0  0  0  0  0
   39.7620   23.6220   36.1640 C   0  0  0  0  0  0  0  0  0  0  0  0
   40.3720   22.7870   37.0640 C   0  0  0  0  0  0  0  0  0  0  0  0
   41.6660   22.1190   36.8160 C   0  0  0  0  0  0  0  0  0  0  0  0
   42.6880   22.8250   36.2070 C   0  0  0  0  0  0  0  0  0  0  0  0
   43.8610   22.1210   36.0160 C   0  0  0  0  0  0  0  0  0  0  0  0
   44.0740   20.8300   36.3690 N   0  0  0  0  0  0  0  0  0  0  0  0
   43.0290   20.1830   36.9660 C   0  0  0  0  0  0  0  0  0  0  0  0
   41.8700   20.8280   37.1720 N   0  0  0  0  0  0  0  0  0  0  0  0
   35.4820   29.4530   33.1380 C   0  0  0  0  0  0  0  0  0  0  0  0
   35.5860   30.1820   34.4810 C   0  0  0  0  0  0  0  0  0  0  0  0
   34.0350   29.1820   32.8530 C   0  0  0  0  0  0  0  0  0  0  0  0
   36.1160   30.2770   32.0490 C   0  0  0  0  0  0  0  0  0  0  0  0
   36.1150   31.6930   32.3250 N   0  0  0  0  0  0  0  0  0  0  0  0
   37.9191   24.7560   33.6731 H   0  0  0  0  0  0  0  0  0  0  0  0
   36.9845   25.5054   31.4184 H   0  0  0  0  0  0  0  0  0  0  0  0
   39.8673   22.0972   39.0161 H   0  0  0  0  0  0  0  0  0  0  0  0
   40.1180   23.9143   35.1651 H   0  0  0  0  0  0  0  0  0  0  0  0
   42.5744   23.8741   35.8964 H   0  0  0  0  0  0  0  0  0  0  0  0
   44.6945   22.6545   35.5357 H   0  0  0  0  0  0  0  0  0  0  0  0
   43.1375   19.1337   37.2778 H   0  0  0  0  0  0  0  0  0  0  0  0
   35.4825   29.4563   35.3011 H   0  0  0  0  0  0  0  0  0  0  0  0
   36.5643   30.6798   34.5532 H   0  0  0  0  0  0  0  0  0  0  0  0
   34.7860   30.9335   34.5532 H   0  0  0  0  0  0  0  0  0  0  0  0
   33.4874   29.0794   33.8015 H   0  0  0  0  0  0  0  0  0  0  0  0
   33.6127   30.0167   32.2742 H   0  0  0  0  0  0  0  0  0  0  0  0
   33.9434   28.2511   32.2742 H   0  0  0  0  0  0  0  0  0  0  0  0
   35.5625   30.1040   31.1143 H   0  0  0  0  0  0  0  0  0  0  0  0
   37.1674   29.9622   31.9753 H   0  0  0  0  0  0  0  0  0  0  0  0
   36.1149   31.8442   33.3438 H   0  0  0  0  0  0  0  0  0  0  0  0
   36.9557   32.1235   31.9141 H   0  0  0  0  0  0  0  0  0  0  0  0
  1  7  1  0
  2  1  2  0
  3  2  1  0
  4  3  2  0
  4  5  1  0
  5  6  2  0
  6  1  1  0
  7  9  1  0
  7  8  2  0
  9 12  1  0
 11 10  1  0
 12 11  2  0
 13 12  1  0
 13 14  2  0
 14 10  1  0
 15 14  1  0
 15 20  1  0
 16 15  2  0
 17 16  1  0
 17 18  2  0
 18 19  1  0
 19 20  2  0
 21  5  1  0
 21 22  1  0
 23 21  1  0
 24 25  1  0
 24 21  1  0
  2 26  1  0
  3 27  1  0
 10 28  1  0
 13 29  1  0
 16 30  1  0
 17 31  1  0
 19 32  1  0
 22 33  1  0
 22 34  1  0
 22 35  1  0
 23 36  1  0
 23 37  1  0
 23 38  1  0
 24 39  1  0
 24 40  1  0
 25 41  1  0
 25 42  1  0
M  ISO  8  26  14  27  14  28   9  29  14  30  14  31  14  32  14  33   8
M  ISO  8  34   8  35   8  36   8  37   8  38   8  39   8  40   8  41   5
M  ISO  1  42   5
M  END
>  <minimizedAffinity>  (1) 
-5.51096916

>  <minimizedRMSD>  (1) 
0.15952161

$$$$
