
     RDKit          3D

 48 51  0  0  0  0  0  0  0  0999 V2000
   37.2700   26.5880   34.6330 C   0  0  0  0  0  0  0  0  0  0  0  0
   37.4220   25.7480   33.5410 C   0  0  0  0  0  0  0  0  0  0  0  0
   36.9030   26.1710   32.3100 C   0  0  0  0  0  0  0  0  0  0  0  0
   36.2910   27.3630   32.2670 N   0  0  0  0  0  0  0  0  0  0  0  0
   36.1570   28.1550   33.3330 C   0  0  0  0  0  0  0  0  0  0  0  0
   36.6470   27.7800   34.5420 N   0  0  0  0  0  0  0  0  0  0  0  0
   37.8170   26.1390   35.9240 C   0  0  0  0  0  0  0  0  0  0  0  0
   38.5090   26.9330   36.6070 O   0  0  0  0  0  0  0  0  0  0  0  0
   37.5690   24.8720   36.3610 O   0  0  0  0  0  0  0  0  0  0  0  0
   39.6330   22.6620   38.1830 N   0  0  0  0  0  0  0  0  0  0  0  0
   38.5420   23.4210   38.0100 N   0  0  0  0  0  0  0  0  0  0  0  0
   38.6030   24.0150   36.7900 C   0  0  0  0  0  0  0  0  0  0  0  0
   39.7670   23.6220   36.1660 C   0  0  0  0  0  0  0  0  0  0  0  0
   40.3770   22.7880   37.0550 C   0  0  0  0  0  0  0  0  0  0  0  0
   41.6780   22.1150   36.8090 C   0  0  0  0  0  0  0  0  0  0  0  0
   42.6980   22.8130   36.2070 C   0  0  0  0  0  0  0  0  0  0  0  0
   43.8650   22.1040   36.0220 C   0  0  0  0  0  0  0  0  0  0  0  0
   44.0680   20.8120   36.3800 N   0  0  0  0  0  0  0  0  0  0  0  0
   43.0340   20.1730   36.9670 C   0  0  0  0  0  0  0  0  0  0  0  0
   41.8740   20.8310   37.1670 N   0  0  0  0  0  0  0  0  0  0  0  0
   35.4600   29.4730   33.2000 C   0  0  0  0  0  0  0  0  0  0  0  0
   35.5590   30.1820   34.5340 C   0  0  0  0  0  0  0  0  0  0  0  0
   34.0260   29.1920   32.8550 C   0  0  0  0  0  0  0  0  0  0  0  0
   36.0960   30.3160   32.1030 C   0  0  0  0  0  0  0  0  0  0  0  0
   35.6900   31.7320   32.2410 C   0  0  0  0  0  0  0  0  0  0  0  0
   36.4780   32.7250   32.7800 C   0  0  0  0  0  0  0  0  0  0  0  0
   36.0800   34.0380   32.8990 C   0  0  0  0  0  0  0  0  0  0  0  0
   34.8400   34.3690   32.4590 N   0  0  0  0  0  0  0  0  0  0  0  0
   34.0820   33.4000   31.9390 C   0  0  0  0  0  0  0  0  0  0  0  0
   34.4660   32.1130   31.8200 N   0  0  0  0  0  0  0  0  0  0  0  0
   37.9342   24.7793   33.6377 H   0  0  0  0  0  0  0  0  0  0  0  0
   36.9947   25.5461   31.4094 H   0  0  0  0  0  0  0  0  0  0  0  0
   39.8622   22.0937   39.0109 H   0  0  0  0  0  0  0  0  0  0  0  0
   40.1255   23.9168   35.1687 H   0  0  0  0  0  0  0  0  0  0  0  0
   42.5903   23.8624   35.8953 H   0  0  0  0  0  0  0  0  0  0  0  0
   44.7034   22.6311   35.5431 H   0  0  0  0  0  0  0  0  0  0  0  0
   43.1368   19.1235   37.2799 H   0  0  0  0  0  0  0  0  0  0  0  0
   35.4566   29.4487   35.3475 H   0  0  0  0  0  0  0  0  0  0  0  0
   36.5357   30.6820   34.6119 H   0  0  0  0  0  0  0  0  0  0  0  0
   34.7566   30.9304   34.6119 H   0  0  0  0  0  0  0  0  0  0  0  0
   33.4420   29.0776   33.7801 H   0  0  0  0  0  0  0  0  0  0  0  0
   33.6200   30.0277   32.2661 H   0  0  0  0  0  0  0  0  0  0  0  0
   33.9654   28.2649   32.2661 H   0  0  0  0  0  0  0  0  0  0  0  0
   35.7709   29.9395   31.1219 H   0  0  0  0  0  0  0  0  0  0  0  0
   37.1905   30.2482   32.1897 H   0  0  0  0  0  0  0  0  0  0  0  0
   37.4829   32.4536   33.1358 H   0  0  0  0  0  0  0  0  0  0  0  0
   36.7469   34.7951   33.3373 H   0  0  0  0  0  0  0  0  0  0  0  0
   33.0766   33.6702   31.5838 H   0  0  0  0  0  0  0  0  0  0  0  0
  1  7  1  0
  2  1  2  0
  3  2  1  0
  4  3  2  0
  4  5  1  0
  5  6  2  0
  6  1  1  0
  7  9  1  0
  7  8  2  0
  9 12  1  0
 11 10  1  0
 12 11  2  0
 13 12  1  0
 13 14  2  0
 14 10  1  0
 15 14  1  0
 15 20  1  0
 16 15  2  0
 17 16  1  0
 17 18  2  0
 18 19  1  0
 19 20  2  0
 21  5  1  0
 21 22  1  0
 23 21  1  0
 24 25  1  0
 24 21  1  0
 25 26  2  0
 26 27  1  0
 28 27  2  0
 29 28  1  0
 30 29  2  0
 30 25  1  0
  2 31  1  0
  3 32  1  0
 10 33  1  0
 13 34  1  0
 16 35  1  0
 17 36  1  0
 19 37  1  0
 22 38  1  0
 22 39  1  0
 22 40  1  0
 23 41  1  0
 23 42  1  0
 23 43  1  0
 24 44  1  0
 24 45  1  0
 26 46  1  0
 27 47  1  0
 29 48  1  0
M  ISO  8  31  14  32  14  33   9  34  14  35  14  36  14  37  14  38   8
M  ISO  8  39   8  40   8  41   8  42   8  43   8  44   8  45   8  46  14
M  ISO  2  47  14  48  14
M  END
>  <minimizedAffinity>  (1) 
-5.7513833

>  <minimizedRMSD>  (1) 
0.494431585

$$$$
