
     RDKit          3D

 56 59  0  0  0  0  0  0  0  0999 V2000
   37.1670   26.6730   34.2670 C   0  0  0  0  0  0  0  0  0  0  0  0
   37.2350   25.7040   33.2830 C   0  0  0  0  0  0  0  0  0  0  0  0
   36.6370   25.9750   32.0410 C   0  0  0  0  0  0  0  0  0  0  0  0
   36.0340   27.1660   31.8870 N   0  0  0  0  0  0  0  0  0  0  0  0
   35.9760   28.1010   32.8560 C   0  0  0  0  0  0  0  0  0  0  0  0
   36.5460   27.8670   34.0710 N   0  0  0  0  0  0  0  0  0  0  0  0
   37.7940   26.3860   35.5690 C   0  0  0  0  0  0  0  0  0  0  0  0
   38.6210   27.1810   36.0320 O   0  0  0  0  0  0  0  0  0  0  0  0
   37.4370   25.2350   36.2350 O   0  0  0  0  0  0  0  0  0  0  0  0
   39.3290   22.9220   38.1250 N   0  0  0  0  0  0  0  0  0  0  0  0
   38.2830   23.7230   37.9090 N   0  0  0  0  0  0  0  0  0  0  0  0
   38.4160   24.3360   36.6960 C   0  0  0  0  0  0  0  0  0  0  0  0
   39.5880   23.9050   36.1270 C   0  0  0  0  0  0  0  0  0  0  0  0
   40.1260   23.0360   37.0340 C   0  0  0  0  0  0  0  0  0  0  0  0
   41.4120   22.3170   36.8370 C   0  0  0  0  0  0  0  0  0  0  0  0
   42.4470   22.9540   36.2020 C   0  0  0  0  0  0  0  0  0  0  0  0
   43.5910   22.2100   36.0690 C   0  0  0  0  0  0  0  0  0  0  0  0
   43.7620   20.9300   36.5080 N   0  0  0  0  0  0  0  0  0  0  0  0
   42.7030   20.3570   37.1260 C   0  0  0  0  0  0  0  0  0  0  0  0
   41.5700   21.0450   37.2780 N   0  0  0  0  0  0  0  0  0  0  0  0
   35.2870   29.3920   32.5980 C   0  0  0  0  0  0  0  0  0  0  0  0
   35.8920   30.4190   33.5300 C   0  0  0  0  0  0  0  0  0  0  0  0
   33.8260   29.1930   32.9070 C   0  0  0  0  0  0  0  0  0  0  0  0
   35.4670   29.8250   31.1560 C   0  0  0  0  0  0  0  0  0  0  0  0
   36.7490   30.3640   31.0450 O   0  0  0  0  0  0  0  0  0  0  0  0
   38.0350   30.2130   27.3590 N   0  0  0  0  0  0  0  0  0  0  0  0
   38.5080   31.4350   27.9790 C   0  0  0  0  0  0  0  0  0  0  0  0
   38.3400   31.3270   29.5010 C   0  0  0  0  0  0  0  0  0  0  0  0
   37.2190   30.3850   29.7500 C   0  0  0  0  0  0  0  0  0  0  0  0
   37.6620   28.9870   29.3740 C   0  0  0  0  0  0  0  0  0  0  0  0
   38.4650   29.0400   28.0950 C   0  0  0  0  0  0  0  0  0  0  0  0
   37.7438   24.7464   33.4678 H   0  0  0  0  0  0  0  0  0  0  0  0
   36.6615   25.2388   31.2240 H   0  0  0  0  0  0  0  0  0  0  0  0
   39.4970   22.3349   38.9545 H   0  0  0  0  0  0  0  0  0  0  0  0
   40.0045   24.1962   35.1514 H   0  0  0  0  0  0  0  0  0  0  0  0
   42.3656   23.9850   35.8273 H   0  0  0  0  0  0  0  0  0  0  0  0
   44.4446   22.6866   35.5647 H   0  0  0  0  0  0  0  0  0  0  0  0
   42.7763   19.3260   37.5023 H   0  0  0  0  0  0  0  0  0  0  0  0
   35.7144   30.1175   34.5728 H   0  0  0  0  0  0  0  0  0  0  0  0
   36.9746   30.4872   33.3474 H   0  0  0  0  0  0  0  0  0  0  0  0
   35.4269   31.3990   33.3474 H   0  0  0  0  0  0  0  0  0  0  0  0
   33.6812   29.1733   33.9972 H   0  0  0  0  0  0  0  0  0  0  0  0
   33.2438   30.0201   32.4747 H   0  0  0  0  0  0  0  0  0  0  0  0
   33.4862   28.2403   32.4747 H   0  0  0  0  0  0  0  0  0  0  0  0
   35.3630   28.9585   30.4864 H   0  0  0  0  0  0  0  0  0  0  0  0
   34.7054   30.5664   30.8725 H   0  0  0  0  0  0  0  0  0  0  0  0
   37.0056   30.2301   27.3291 H   0  0  0  0  0  0  0  0  0  0  0  0
   39.5705   31.5835   27.7358 H   0  0  0  0  0  0  0  0  0  0  0  0
   37.9261   32.2893   27.6028 H   0  0  0  0  0  0  0  0  0  0  0  0
   39.2645   30.9424   29.9565 H   0  0  0  0  0  0  0  0  0  0  0  0
   38.1296   32.3121   29.9429 H   0  0  0  0  0  0  0  0  0  0  0  0
   36.3842   30.7449   29.1307 H   0  0  0  0  0  0  0  0  0  0  0  0
   38.2835   28.5700   30.1801 H   0  0  0  0  0  0  0  0  0  0  0  0
   36.7778   28.3496   29.2257 H   0  0  0  0  0  0  0  0  0  0  0  0
   38.2815   28.1342   27.4985 H   0  0  0  0  0  0  0  0  0  0  0  0
   39.5414   29.0937   28.3152 H   0  0  0  0  0  0  0  0  0  0  0  0
  1  7  1  0
  2  1  2  0
  3  2  1  0
  4  3  2  0
  4  5  1  0
  5  6  2  0
  6  1  1  0
  7  8  2  0
  7  9  1  0
  9 12  1  0
 11 10  1  0
 12 11  2  0
 13 12  1  0
 13 14  2  0
 14 10  1  0
 15 14  1  0
 15 20  1  0
 16 15  2  0
 17 16  1  0
 17 18  2  0
 18 19  1  0
 19 20  2  0
 21  5  1  0
 21 23  1  0
 21 22  1  0
 24 21  1  0
 25 24  1  0
 26 27  1  0
 26 31  1  0
 27 28  1  0
 28 29  1  0
 29 25  1  0
 30 29  1  0
 31 30  1  0
  2 32  1  0
  3 33  1  0
 10 34  1  0
 13 35  1  0
 16 36  1  0
 17 37  1  0
 19 38  1  0
 22 39  1  0
 22 40  1  0
 22 41  1  0
 23 42  1  0
 23 43  1  0
 23 44  1  0
 24 45  1  0
 24 46  1  0
 26 47  1  0
 27 48  1  0
 27 49  1  0
 28 50  1  0
 28 51  1  0
 29 52  1  0
 30 53  1  0
 30 54  1  0
 31 55  1  0
 31 56  1  0
M  ISO  8  32  14  33  14  34   9  35  14  36  14  37  14  38  14  39   8
M  ISO  8  40   8  41   8  42   8  43   8  44   8  45   8  46   8  47   5
M  ISO  8  48  13  49  13  50  13  51  13  52  13  53  13  54  13  55  13
M  ISO  1  56  13
M  END
>  <minimizedAffinity>  (1) 
-5.79918718

>  <minimizedRMSD>  (1) 
0.490309805

$$$$
