
     RDKit          3D

 50 52  0  0  0  0  0  0  0  0999 V2000
   37.2720   26.5770   34.6360 C   0  0  0  0  0  0  0  0  0  0  0  0
   37.4090   25.7270   33.5440 C   0  0  0  0  0  0  0  0  0  0  0  0
   36.8820   26.1460   32.3010 C   0  0  0  0  0  0  0  0  0  0  0  0
   36.2760   27.3500   32.2570 N   0  0  0  0  0  0  0  0  0  0  0  0
   36.1540   28.1550   33.3260 C   0  0  0  0  0  0  0  0  0  0  0  0
   36.6530   27.7800   34.5440 N   0  0  0  0  0  0  0  0  0  0  0  0
   37.8170   26.1440   35.9170 C   0  0  0  0  0  0  0  0  0  0  0  0
   38.5100   26.9290   36.5980 O   0  0  0  0  0  0  0  0  0  0  0  0
   37.5640   24.8730   36.3670 O   0  0  0  0  0  0  0  0  0  0  0  0
   39.6310   22.6660   38.1860 N   0  0  0  0  0  0  0  0  0  0  0  0
   38.5410   23.4210   38.0140 N   0  0  0  0  0  0  0  0  0  0  0  0
   38.6030   24.0170   36.7920 C   0  0  0  0  0  0  0  0  0  0  0  0
   39.7570   23.6310   36.1760 C   0  0  0  0  0  0  0  0  0  0  0  0
   40.3720   22.7950   37.0620 C   0  0  0  0  0  0  0  0  0  0  0  0
   41.6770   22.1280   36.8090 C   0  0  0  0  0  0  0  0  0  0  0  0
   42.6910   22.8250   36.2050 C   0  0  0  0  0  0  0  0  0  0  0  0
   43.8580   22.1260   36.0140 C   0  0  0  0  0  0  0  0  0  0  0  0
   44.0630   20.8270   36.3730 N   0  0  0  0  0  0  0  0  0  0  0  0
   43.0180   20.1820   36.9690 C   0  0  0  0  0  0  0  0  0  0  0  0
   41.8710   20.8290   37.1720 N   0  0  0  0  0  0  0  0  0  0  0  0
   35.4710   29.4620   33.1850 C   0  0  0  0  0  0  0  0  0  0  0  0
   35.5530   30.1650   34.5130 C   0  0  0  0  0  0  0  0  0  0  0  0
   34.0230   29.1780   32.8270 C   0  0  0  0  0  0  0  0  0  0  0  0
   36.1130   30.2960   32.0900 C   0  0  0  0  0  0  0  0  0  0  0  0
   36.1750   31.6160   32.5840 O   0  0  0  0  0  0  0  0  0  0  0  0
   36.1590   32.5350   31.5370 C   0  0  0  0  0  0  0  0  0  0  0  0
   34.8740   32.3370   30.7690 C   0  0  0  0  0  0  0  0  0  0  0  0
   37.3050   32.3360   30.5820 C   0  0  0  0  0  0  0  0  0  0  0  0
   37.9138   24.7549   33.6447 H   0  0  0  0  0  0  0  0  0  0  0  0
   36.9631   25.5143   31.4041 H   0  0  0  0  0  0  0  0  0  0  0  0
   39.8614   22.0971   39.0132 H   0  0  0  0  0  0  0  0  0  0  0  0
   40.1149   23.9293   35.1796 H   0  0  0  0  0  0  0  0  0  0  0  0
   42.5778   23.8740   35.8940 H   0  0  0  0  0  0  0  0  0  0  0  0
   44.6932   22.6564   35.5333 H   0  0  0  0  0  0  0  0  0  0  0  0
   43.1224   19.1322   37.2805 H   0  0  0  0  0  0  0  0  0  0  0  0
   35.4669   29.4272   35.3244 H   0  0  0  0  0  0  0  0  0  0  0  0
   36.5181   30.6868   34.5927 H   0  0  0  0  0  0  0  0  0  0  0  0
   34.7339   30.8949   34.5927 H   0  0  0  0  0  0  0  0  0  0  0  0
   33.4334   29.0624   33.7484 H   0  0  0  0  0  0  0  0  0  0  0  0
   33.6204   30.0143   32.2366 H   0  0  0  0  0  0  0  0  0  0  0  0
   33.9662   28.2516   32.2366 H   0  0  0  0  0  0  0  0  0  0  0  0
   35.5025   30.2596   31.1757 H   0  0  0  0  0  0  0  0  0  0  0  0
   37.1133   29.9174   31.8329 H   0  0  0  0  0  0  0  0  0  0  0  0
   36.2443   33.5446   31.9654 H   0  0  0  0  0  0  0  0  0  0  0  0
   34.0407   32.2086   31.4755 H   0  0  0  0  0  0  0  0  0  0  0  0
   34.6859   33.2168   30.1360 H   0  0  0  0  0  0  0  0  0  0  0  0
   34.9594   31.4414   30.1360 H   0  0  0  0  0  0  0  0  0  0  0  0
   38.2326   32.1749   31.1509 H   0  0  0  0  0  0  0  0  0  0  0  0
   37.1063   31.4589   29.9486 H   0  0  0  0  0  0  0  0  0  0  0  0
   37.4137   33.2287   29.9486 H   0  0  0  0  0  0  0  0  0  0  0  0
  1  7  1  0
  2  1  2  0
  3  2  1  0
  4  3  2  0
  4  5  1  0
  5  6  2  0
  6  1  1  0
  7  9  1  0
  7  8  2  0
  9 12  1  0
 11 10  1  0
 12 11  2  0
 13 12  1  0
 13 14  2  0
 14 10  1  0
 15 14  1  0
 15 20  1  0
 16 15  2  0
 17 16  1  0
 17 18  2  0
 18 19  1  0
 19 20  2  0
 21  5  1  0
 21 22  1  0
 23 21  1  0
 24 25  1  0
 24 21  1  0
 26 25  1  0
 27 26  1  0
 28 26  1  0
  2 29  1  0
  3 30  1  0
 10 31  1  0
 13 32  1  0
 16 33  1  0
 17 34  1  0
 19 35  1  0
 22 36  1  0
 22 37  1  0
 22 38  1  0
 23 39  1  0
 23 40  1  0
 23 41  1  0
 24 42  1  0
 24 43  1  0
 26 44  1  0
 27 45  1  0
 27 46  1  0
 27 47  1  0
 28 48  1  0
 28 49  1  0
 28 50  1  0
M  ISO  8  29  14  30  14  31   9  32  14  33  14  34  14  35  14  36   8
M  ISO  8  37   8  38   8  39   8  40   8  41   8  42   8  43   8  44   8
M  ISO  6  45   8  46   8  47   8  48   8  49   8  50   8
M  END
>  <minimizedAffinity>  (1) 
-5.41041803

>  <minimizedRMSD>  (1) 
1.10460103

$$$$
