
     RDKit          3D

 22 23  0  0  0  0  0  0  0  0999 V2000
   36.5410   21.4270   33.8210 C   0  0  0  0  0  0  0  0  0  0  0  0
   36.8310   22.2240   32.7020 C   0  0  0  0  0  0  0  0  0  0  0  0
   37.8980   23.1090   32.7830 C   0  0  0  0  0  0  0  0  0  0  0  0
   38.6040   23.1500   33.9520 N   0  0  0  0  0  0  0  0  0  0  0  0
   38.2950   22.3750   34.9950 C   0  0  0  0  0  0  0  0  0  0  0  0
   37.2680   21.5130   34.9380 N   0  0  0  0  0  0  0  0  0  0  0  0
   39.1160   22.5100   36.1760 N   0  0  0  0  0  0  0  0  0  0  0  0
   40.1900   21.7910   36.1230 N   0  0  0  0  0  0  0  0  0  0  0  0
   40.8770   22.0040   37.2890 C   0  0  0  0  0  0  0  0  0  0  0  0
   40.1730   22.8860   38.0540 C   0  0  0  0  0  0  0  0  0  0  0  0
   39.0430   23.2090   37.3360 C   0  0  0  0  0  0  0  0  0  0  0  0
   35.4460   20.5250   33.7250 N   0  0  0  0  0  0  0  0  0  0  0  0
   37.8920   24.0810   37.5700 C   0  0  0  0  0  0  0  0  0  0  0  0
   37.9330   24.7220   38.8110 F   0  0  0  0  0  0  0  0  0  0  0  0
   37.9580   25.1320   36.6470 F   0  0  0  0  0  0  0  0  0  0  0  0
   36.6960   23.4550   37.3860 F   0  0  0  0  0  0  0  0  0  0  0  0
   36.2284   22.1493   31.7848 H   0  0  0  0  0  0  0  0  0  0  0  0
   38.1659   23.7555   31.9343 H   0  0  0  0  0  0  0  0  0  0  0  0
   41.8365   21.5407   37.5624 H   0  0  0  0  0  0  0  0  0  0  0  0
   40.4523   23.2648   39.0482 H   0  0  0  0  0  0  0  0  0  0  0  0
   34.8967   20.4726   32.8553 H   0  0  0  0  0  0  0  0  0  0  0  0
   35.2021   19.9241   34.5252 H   0  0  0  0  0  0  0  0  0  0  0  0
  1  6  2  0
  2  3  2  0
  2  1  1  0
  3  4  1  0
  4  5  2  0
  5  7  1  0
  6  5  1  0
  7 11  1  0
  8  7  1  0
  8  9  2  0
  9 10  1  0
 11 13  1  0
 11 10  2  0
 12  1  1  0
 13 14  1  0
 15 13  1  0
 16 13  1  0
  2 17  1  0
  3 18  1  0
  9 19  1  0
 10 20  1  0
 12 21  1  0
 12 22  1  0
M  ISO  4  17  14  18  14  19  14  20  14
M  END
>  <minimizedAffinity>  (1) 
-4.68125391

>  <minimizedRMSD>  (1) 
1.04369199

$$$$
