
     RDKit          3D

 26 28  0  0  0  0  0  0  0  0999 V2000
   37.9620   21.4850   33.5280 C   0  0  0  0  0  0  0  0  0  0  0  0
   39.2660   21.4560   32.9800 C   0  0  0  0  0  0  0  0  0  0  0  0
   40.2730   22.1320   33.6470 C   0  0  0  0  0  0  0  0  0  0  0  0
   39.9290   22.7880   34.8020 N   0  0  0  0  0  0  0  0  0  0  0  0
   38.6910   22.7950   35.2860 C   0  0  0  0  0  0  0  0  0  0  0  0
   37.6910   22.1440   34.6580 N   0  0  0  0  0  0  0  0  0  0  0  0
   38.4760   23.5180   36.4990 N   0  0  0  0  0  0  0  0  0  0  0  0
   38.7380   22.8160   37.5580 N   0  0  0  0  0  0  0  0  0  0  0  0
   38.5050   23.5720   38.6630 C   0  0  0  0  0  0  0  0  0  0  0  0
   38.0730   24.8100   38.2330 C   0  0  0  0  0  0  0  0  0  0  0  0
   38.0660   24.7450   36.8670 C   0  0  0  0  0  0  0  0  0  0  0  0
   36.9480   20.7870   32.8330 N   0  0  0  0  0  0  0  0  0  0  0  0
   37.7120   25.7480   35.8860 C   0  0  0  0  0  0  0  0  0  0  0  0
   38.4830   26.2650   34.7850 C   0  0  0  0  0  0  0  0  0  0  0  0
   38.5580   27.0510   36.0840 C   0  0  0  0  0  0  0  0  0  0  0  0
   39.4742   20.9103   32.0479 H   0  0  0  0  0  0  0  0  0  0  0  0
   41.3053   22.1429   33.2672 H   0  0  0  0  0  0  0  0  0  0  0  0
   38.6366   23.2553   39.7082 H   0  0  0  0  0  0  0  0  0  0  0  0
   37.7926   25.6701   38.8587 H   0  0  0  0  0  0  0  0  0  0  0  0
   37.1728   20.2836   31.9630 H   0  0  0  0  0  0  0  0  0  0  0  0
   35.9843   20.7818   33.1967 H   0  0  0  0  0  0  0  0  0  0  0  0
   36.6832   25.3601   35.8549 H   0  0  0  0  0  0  0  0  0  0  0  0
   39.3675   25.7102   34.4387 H   0  0  0  0  0  0  0  0  0  0  0  0
   38.2307   26.5397   33.7502 H   0  0  0  0  0  0  0  0  0  0  0  0
   38.0670   28.0309   36.1768 H   0  0  0  0  0  0  0  0  0  0  0  0
   39.3468   27.3999   36.7667 H   0  0  0  0  0  0  0  0  0  0  0  0
  1  6  2  0
  2  1  1  0
  2  3  2  0
  3  4  1  0
  4  5  2  0
  5  7  1  0
  6  5  1  0
  7 11  1  0
  7  8  1  0
  8  9  2  0
 10  9  1  0
 11 10  2  0
 12  1  1  0
 13 15  1  0
 13 11  1  0
 14 13  1  0
 14 15  1  0
  2 16  1  0
  3 17  1  0
  9 18  1  0
 10 19  1  0
 12 20  1  0
 12 21  1  0
 13 22  1  0
 14 23  1  0
 14 24  1  0
 15 25  1  0
 15 26  1  0
M  ISO  8  16  14  17  14  18  14  19  14  22  13  23  13  24  13  25  13
M  ISO  1  26  13
M  END
>  <minimizedAffinity>  (1) 
-4.22271347

>  <minimizedRMSD>  (1) 
2.26821542

$$$$
