
     RDKit          3D

 33 35  0  0  0  0  0  0  0  0999 V2000
   37.7550   24.8150   31.5600 C   0  0  0  0  0  0  0  0  0  0  0  0
   37.0160   25.9360   31.9720 C   0  0  0  0  0  0  0  0  0  0  0  0
   36.9520   26.2410   33.3170 C   0  0  0  0  0  0  0  0  0  0  0  0
   37.6290   25.4130   34.1720 N   0  0  0  0  0  0  0  0  0  0  0  0
   38.3260   24.3510   33.7540 C   0  0  0  0  0  0  0  0  0  0  0  0
   38.4080   24.0250   32.4490 N   0  0  0  0  0  0  0  0  0  0  0  0
   38.9840   23.5710   34.7600 N   0  0  0  0  0  0  0  0  0  0  0  0
   40.1430   24.0360   35.1000 N   0  0  0  0  0  0  0  0  0  0  0  0
   40.6790   23.2310   36.0520 C   0  0  0  0  0  0  0  0  0  0  0  0
   39.7880   22.2230   36.2960 C   0  0  0  0  0  0  0  0  0  0  0  0
   38.7250   22.4580   35.4690 C   0  0  0  0  0  0  0  0  0  0  0  0
   37.8230   24.4950   30.1700 N   0  0  0  0  0  0  0  0  0  0  0  0
   37.4380   21.8010   35.1990 C   0  0  0  0  0  0  0  0  0  0  0  0
   36.4230   21.4440   35.9730 N   0  0  0  0  0  0  0  0  0  0  0  0
   35.4820   20.8800   35.2620 O   0  0  0  0  0  0  0  0  0  0  0  0
   35.9110   20.8810   34.0160 C   0  0  0  0  0  0  0  0  0  0  0  0
   37.1360   21.4470   33.9100 N   0  0  0  0  0  0  0  0  0  0  0  0
   35.1840   20.3410   32.8290 C   0  0  0  0  0  0  0  0  0  0  0  0
   35.4200   18.8530   32.7740 C   0  0  0  0  0  0  0  0  0  0  0  0
   35.6100   21.0210   31.5500 C   0  0  0  0  0  0  0  0  0  0  0  0
   36.4952   26.5626   31.2330 H   0  0  0  0  0  0  0  0  0  0  0  0
   36.3839   27.1083   33.6844 H   0  0  0  0  0  0  0  0  0  0  0  0
   41.6556   23.3654   36.5401 H   0  0  0  0  0  0  0  0  0  0  0  0
   39.9027   21.3942   37.0101 H   0  0  0  0  0  0  0  0  0  0  0  0
   38.3619   23.6753   29.8560 H   0  0  0  0  0  0  0  0  0  0  0  0
   37.3331   25.0839   29.4814 H   0  0  0  0  0  0  0  0  0  0  0  0
   34.1079   20.5444   32.9319 H   0  0  0  0  0  0  0  0  0  0  0  0
   35.4833   18.4537   33.7970 H   0  0  0  0  0  0  0  0  0  0  0  0
   34.5874   18.3691   32.2424 H   0  0  0  0  0  0  0  0  0  0  0  0
   36.3615   18.6505   32.2424 H   0  0  0  0  0  0  0  0  0  0  0  0
   36.1798   21.9306   31.7906 H   0  0  0  0  0  0  0  0  0  0  0  0
   36.2414   20.3371   30.9638 H   0  0  0  0  0  0  0  0  0  0  0  0
   34.7191   21.2907   30.9638 H   0  0  0  0  0  0  0  0  0  0  0  0
  1  2  2  0
  1  6  1  0
  2  3  1  0
  3  4  2  0
  5  4  1  0
  5  7  1  0
  6  5  2  0
  7  8  1  0
  7 11  1  0
  8  9  2  0
  9 10  1  0
 11 10  2  0
 12  1  1  0
 13 11  1  0
 13 14  2  0
 15 14  1  0
 16 15  1  0
 17 16  2  0
 17 13  1  0
 18 16  1  0
 19 18  1  0
 20 18  1  0
  2 21  1  0
  3 22  1  0
  9 23  1  0
 10 24  1  0
 12 25  1  0
 12 26  1  0
 18 27  1  0
 19 28  1  0
 19 29  1  0
 19 30  1  0
 20 31  1  0
 20 32  1  0
 20 33  1  0
M  ISO  8  21  14  22  14  23  14  24  14  27   8  28   8  29   8  30   8
M  ISO  3  31   8  32   8  33   8
M  END
>  <minimizedAffinity>  (1) 
-5.26070976

>  <minimizedRMSD>  (1) 
2.98681164

$$$$
