
     RDKit          3D

 20 21  0  0  0  0  0  0  0  0999 V2000
   36.5320   21.4280   33.6880 C   0  0  0  0  0  0  0  0  0  0  0  0
   36.7230   22.3470   32.6280 C   0  0  0  0  0  0  0  0  0  0  0  0
   37.7500   23.2880   32.7250 C   0  0  0  0  0  0  0  0  0  0  0  0
   38.5180   23.2580   33.8610 N   0  0  0  0  0  0  0  0  0  0  0  0
   38.3080   22.3700   34.8460 C   0  0  0  0  0  0  0  0  0  0  0  0
   37.3320   21.4760   34.7520 N   0  0  0  0  0  0  0  0  0  0  0  0
   39.1790   22.4440   35.9750 N   0  0  0  0  0  0  0  0  0  0  0  0
   40.2920   21.7950   35.8040 N   0  0  0  0  0  0  0  0  0  0  0  0
   41.0470   21.9280   36.9320 C   0  0  0  0  0  0  0  0  0  0  0  0
   40.3540   22.6920   37.8190 C   0  0  0  0  0  0  0  0  0  0  0  0
   39.1610   23.0180   37.2010 C   0  0  0  0  0  0  0  0  0  0  0  0
   35.4850   20.4880   33.5600 N   0  0  0  0  0  0  0  0  0  0  0  0
   37.6980   23.9600   37.6180 S   0  0  0  0  0  0  0  0  0  0  0  0
   36.0722   22.3201   31.7416 H   0  0  0  0  0  0  0  0  0  0  0  0
   37.9349   24.0209   31.9258 H   0  0  0  0  0  0  0  0  0  0  0  0
   42.0438   21.4928   37.0962 H   0  0  0  0  0  0  0  0  0  0  0  0
   40.6782   22.9908   38.8268 H   0  0  0  0  0  0  0  0  0  0  0  0
   34.8918   20.4893   32.7179 H   0  0  0  0  0  0  0  0  0  0  0  0
   35.3149   19.8015   34.3087 H   0  0  0  0  0  0  0  0  0  0  0  0
   37.5777   24.0375   38.9805 H   0  0  0  0  0  0  0  0  0  0  0  0
  1  6  2  0
  2  3  2  0
  2  1  1  0
  3  4  1  0
  4  5  2  0
  5  7  1  0
  6  5  1  0
  7 11  1  0
  8  7  1  0
  8  9  2  0
  9 10  1  0
 11 13  1  0
 11 10  2  0
 12  1  1  0
  2 14  1  0
  3 15  1  0
  9 16  1  0
 10 17  1  0
 12 18  1  0
 12 19  1  0
 13 20  1  0
M  ISO  5  14  14  15  14  16  14  17  14  20  11
M  END
>  <minimizedAffinity>  (1) 
-3.66456461

>  <minimizedRMSD>  (1) 
1.03269339

$$$$
