
     RDKit          3D

 31 34  0  0  0  0  0  0  0  0999 V2000
   40.2080   22.2260   34.6420 C   0  0  0  0  0  0  0  0  0  0  0  0
   39.9710   23.0270   35.7540 C   0  0  0  0  0  0  0  0  0  0  0  0
   38.6700   23.3790   36.0450 C   0  0  0  0  0  0  0  0  0  0  0  0
   37.6790   22.9140   35.2130 N   0  0  0  0  0  0  0  0  0  0  0  0
   37.9510   22.1430   34.1520 C   0  0  0  0  0  0  0  0  0  0  0  0
   39.2070   21.7840   33.8440 N   0  0  0  0  0  0  0  0  0  0  0  0
   36.8280   21.7230   33.3640 N   0  0  0  0  0  0  0  0  0  0  0  0
   36.2470   20.6700   33.8220 N   0  0  0  0  0  0  0  0  0  0  0  0
   35.2030   20.3610   33.0050 C   0  0  0  0  0  0  0  0  0  0  0  0
   35.1590   21.2760   32.0120 C   0  0  0  0  0  0  0  0  0  0  0  0
   36.2070   22.1460   32.2500 C   0  0  0  0  0  0  0  0  0  0  0  0
   41.5580   21.8510   34.3270 N   0  0  0  0  0  0  0  0  0  0  0  0
   36.7520   23.3430   31.6060 C   0  0  0  0  0  0  0  0  0  0  0  0
   37.7840   23.5440   30.8070 N   0  0  0  0  0  0  0  0  0  0  0  0
   37.8740   24.8070   30.4850 O   0  0  0  0  0  0  0  0  0  0  0  0
   36.8810   25.4100   31.0920 C   0  0  0  0  0  0  0  0  0  0  0  0
   36.1330   24.5470   31.8170 N   0  0  0  0  0  0  0  0  0  0  0  0
   36.6010   26.8430   31.0080 C   0  0  0  0  0  0  0  0  0  0  0  0
   35.8920   27.6120   31.9080 C   0  0  0  0  0  0  0  0  0  0  0  0
   35.8390   28.8950   31.4980 N   0  0  0  0  0  0  0  0  0  0  0  0
   36.5260   28.9160   30.3270 C   0  0  0  0  0  0  0  0  0  0  0  0
   36.9860   27.6830   30.0290 N   0  0  0  0  0  0  0  0  0  0  0  0
   40.8022   23.3717   36.3867 H   0  0  0  0  0  0  0  0  0  0  0  0
   38.4328   24.0107   36.9137 H   0  0  0  0  0  0  0  0  0  0  0  0
   34.5141   19.5128   33.1315 H   0  0  0  0  0  0  0  0  0  0  0  0
   34.4369   21.3199   31.1834 H   0  0  0  0  0  0  0  0  0  0  0  0
   41.7498   21.2582   33.5068 H   0  0  0  0  0  0  0  0  0  0  0  0
   42.3345   22.1748   34.9213 H   0  0  0  0  0  0  0  0  0  0  0  0
   35.4334   27.2307   32.8323 H   0  0  0  0  0  0  0  0  0  0  0  0
   36.6851   29.8117   29.7086 H   0  0  0  0  0  0  0  0  0  0  0  0
   37.5365   27.4285   29.1965 H   0  0  0  0  0  0  0  0  0  0  0  0
  1  2  2  0
  2  3  1  0
  4  3  2  0
  5  4  1  0
  6  5  2  0
  6  1  1  0
  7  8  1  0
  7  5  1  0
  9  8  2  0
 10 11  2  0
 10  9  1  0
 11  7  1  0
 12  1  1  0
 13 17  1  0
 13 11  1  0
 14 13  2  0
 15 14  1  0
 15 16  1  0
 16 17  2  0
 18 16  1  0
 18 19  2  0
 20 19  1  0
 21 20  2  0
 22 21  1  0
 22 18  1  0
  2 23  1  0
  3 24  1  0
  9 25  1  0
 10 26  1  0
 12 27  1  0
 12 28  1  0
 19 29  1  0
 21 30  1  0
 22 31  1  0
M  ISO  7  23  14  24  14  25  14  26  14  29  14  30  14  31   9
M  END
>  <minimizedAffinity>  (1) 
-5.00014448

>  <minimizedRMSD>  (1) 
5.51496506

$$$$
