
     RDKit          3D

 31 34  0  0  0  0  0  0  0  0999 V2000
   38.7190   23.6570   30.3750 C   0  0  0  0  0  0  0  0  0  0  0  0
   37.3940   24.0360   30.6420 C   0  0  0  0  0  0  0  0  0  0  0  0
   37.1680   25.1550   31.4410 C   0  0  0  0  0  0  0  0  0  0  0  0
   38.2670   25.8270   31.9240 N   0  0  0  0  0  0  0  0  0  0  0  0
   39.5110   25.4230   31.6370 C   0  0  0  0  0  0  0  0  0  0  0  0
   39.7560   24.3500   30.8710 N   0  0  0  0  0  0  0  0  0  0  0  0
   40.5720   26.2010   32.1940 N   0  0  0  0  0  0  0  0  0  0  0  0
   40.8780   27.2440   31.4850 N   0  0  0  0  0  0  0  0  0  0  0  0
   41.9000   27.9050   32.1150 C   0  0  0  0  0  0  0  0  0  0  0  0
   42.2150   27.2300   33.2420 C   0  0  0  0  0  0  0  0  0  0  0  0
   41.3670   26.1470   33.2860 C   0  0  0  0  0  0  0  0  0  0  0  0
   38.9430   22.5120   29.5570 N   0  0  0  0  0  0  0  0  0  0  0  0
   41.1500   25.0220   34.2000 C   0  0  0  0  0  0  0  0  0  0  0  0
   41.7180   23.8430   34.3350 N   0  0  0  0  0  0  0  0  0  0  0  0
   41.1700   23.1680   35.3140 O   0  0  0  0  0  0  0  0  0  0  0  0
   40.2330   23.9460   35.8050 C   0  0  0  0  0  0  0  0  0  0  0  0
   40.1690   25.1270   35.1500 N   0  0  0  0  0  0  0  0  0  0  0  0
   39.3870   23.5490   36.9240 C   0  0  0  0  0  0  0  0  0  0  0  0
   38.0560   23.8800   37.0780 C   0  0  0  0  0  0  0  0  0  0  0  0
   37.6110   23.3190   38.2570 C   0  0  0  0  0  0  0  0  0  0  0  0
   38.6610   22.6670   38.7890 N   0  0  0  0  0  0  0  0  0  0  0  0
   39.7400   22.7950   38.0010 N   0  0  0  0  0  0  0  0  0  0  0  0
   36.5517   23.4616   30.2291 H   0  0  0  0  0  0  0  0  0  0  0  0
   36.1470   25.4892   31.6772 H   0  0  0  0  0  0  0  0  0  0  0  0
   42.3822   28.8288   31.7626 H   0  0  0  0  0  0  0  0  0  0  0  0
   42.9915   27.4927   33.9755 H   0  0  0  0  0  0  0  0  0  0  0  0
   39.9049   22.2110   29.3447 H   0  0  0  0  0  0  0  0  0  0  0  0
   38.1430   21.9853   29.1780 H   0  0  0  0  0  0  0  0  0  0  0  0
   37.4555   24.4849   36.3827 H   0  0  0  0  0  0  0  0  0  0  0  0
   36.5977   23.3905   38.6790 H   0  0  0  0  0  0  0  0  0  0  0  0
   38.6397   22.1435   39.6758 H   0  0  0  0  0  0  0  0  0  0  0  0
  1  2  2  0
  1  6  1  0
  2  3  1  0
  3  4  2  0
  5  4  1  0
  5  7  1  0
  6  5  2  0
  7 11  1  0
  8  9  2  0
  8  7  1  0
  9 10  1  0
 10 11  2  0
 11 13  1  0
 12  1  1  0
 13 14  2  0
 13 17  1  0
 14 15  1  0
 15 16  1  0
 16 18  1  0
 17 16  2  0
 18 19  1  0
 18 22  2  0
 19 20  2  0
 20 21  1  0
 22 21  1  0
  2 23  1  0
  3 24  1  0
  9 25  1  0
 10 26  1  0
 12 27  1  0
 12 28  1  0
 19 29  1  0
 20 30  1  0
 21 31  1  0
M  ISO  7  23  14  24  14  25  14  26  14  29  14  30  14  31   9
M  END
>  <minimizedAffinity>  (1) 
-4.71275234

>  <minimizedRMSD>  (1) 
7.0436244

$$$$
