
     RDKit          3D

 25 27  0  0  0  0  0  0  0  0999 V2000
   39.2460   23.8570   30.6690 C   0  0  0  0  0  0  0  0  0  0  0  0
   38.3240   24.8220   30.2210 C   0  0  0  0  0  0  0  0  0  0  0  0
   37.2520   25.1360   31.0320 C   0  0  0  0  0  0  0  0  0  0  0  0
   37.1450   24.4820   32.2380 N   0  0  0  0  0  0  0  0  0  0  0  0
   38.0510   23.5670   32.6240 C   0  0  0  0  0  0  0  0  0  0  0  0
   39.1080   23.2340   31.8640 N   0  0  0  0  0  0  0  0  0  0  0  0
   37.8290   22.9590   33.9000 N   0  0  0  0  0  0  0  0  0  0  0  0
   38.2890   23.6500   34.8880 N   0  0  0  0  0  0  0  0  0  0  0  0
   38.0250   22.9820   36.0510 C   0  0  0  0  0  0  0  0  0  0  0  0
   37.3750   21.8380   35.7380 C   0  0  0  0  0  0  0  0  0  0  0  0
   37.2500   21.8250   34.3670 C   0  0  0  0  0  0  0  0  0  0  0  0
   40.3500   23.5330   29.8350 N   0  0  0  0  0  0  0  0  0  0  0  0
   36.6770   20.9300   33.3640 C   0  0  0  0  0  0  0  0  0  0  0  0
   37.1970   20.2640   32.3450 N   0  0  0  0  0  0  0  0  0  0  0  0
   36.2830   19.5870   31.7250 O   0  0  0  0  0  0  0  0  0  0  0  0
   35.1440   19.8230   32.3590 C   0  0  0  0  0  0  0  0  0  0  0  0
   35.3410   20.6690   33.4070 N   0  0  0  0  0  0  0  0  0  0  0  0
   33.9830   19.2130   31.8980 O   0  0  0  0  0  0  0  0  0  0  0  0
   38.4549   25.3148   29.2463 H   0  0  0  0  0  0  0  0  0  0  0  0
   36.5073   25.8848   30.7242 H   0  0  0  0  0  0  0  0  0  0  0  0
   38.2940   23.3163   37.0639 H   0  0  0  0  0  0  0  0  0  0  0  0
   37.0172   21.0702   36.4397 H   0  0  0  0  0  0  0  0  0  0  0  0
   40.4628   24.0017   28.9248 H   0  0  0  0  0  0  0  0  0  0  0  0
   41.0374   22.8295   30.1407 H   0  0  0  0  0  0  0  0  0  0  0  0
   33.1217   19.3765   32.3580 H   0  0  0  0  0  0  0  0  0  0  0  0
  1  6  2  0
  2  1  1  0
  2  3  2  0
  3  4  1  0
  4  5  2  0
  5  7  1  0
  6  5  1  0
  7 11  1  0
  7  8  1  0
  8  9  2  0
 10  9  1  0
 11 10  2  0
 12  1  1  0
 13 17  1  0
 13 11  1  0
 14 13  2  0
 15 14  1  0
 15 16  1  0
 16 17  2  0
 18 16  1  0
  2 19  1  0
  3 20  1  0
  9 21  1  0
 10 22  1  0
 12 23  1  0
 12 24  1  0
 18 25  1  0
M  ISO  5  19  14  20  14  21  14  22  14  25   3
M  END
>  <minimizedAffinity>  (1) 
-4.11646891

>  <minimizedRMSD>  (1) 
1.14987135

$$$$
