
     RDKit          3D

 42 47  0  0  1  0  0  0  0  0999 V2000
   39.4920   25.7690   34.9890 C   0  0  0  0  0  0  0  0  0  0  0  0
   40.8050   25.9040   34.7840 N   0  0  0  0  0  0  0  0  0  0  0  0
   41.4280   24.8180   35.1100 O   0  0  0  0  0  0  0  0  0  0  0  0
   40.4870   23.9650   35.5360 C   0  0  0  0  0  0  0  0  0  0  0  0
   39.2640   24.5110   35.4800 N   0  0  0  0  0  0  0  0  0  0  0  0
   38.4460   25.0440   30.4320 C   0  0  0  0  0  0  0  0  0  0  0  0
   37.6160   23.9050   30.4440 C   0  0  0  0  0  0  0  0  0  0  0  0
   36.8150   23.6740   31.5540 C   0  0  0  0  0  0  0  0  0  0  0  0
   36.8780   24.5730   32.5800 N   0  0  0  0  0  0  0  0  0  0  0  0
   37.6880   25.6470   32.5200 C   0  0  0  0  0  0  0  0  0  0  0  0
   38.4670   25.8930   31.4670 N   0  0  0  0  0  0  0  0  0  0  0  0
   37.6600   26.5130   33.6630 N   0  0  0  0  0  0  0  0  0  0  0  0
   36.7010   27.3930   33.6340 N   0  0  0  0  0  0  0  0  0  0  0  0
   36.7590   28.1590   34.7460 C   0  0  0  0  0  0  0  0  0  0  0  0
   37.8060   27.7190   35.4870 C   0  0  0  0  0  0  0  0  0  0  0  0
   38.3690   26.6770   34.7880 C   0  0  0  0  0  0  0  0  0  0  0  0
   39.2740   25.2900   29.2960 N   0  0  0  0  0  0  0  0  0  0  0  0
   40.7300   22.5590   36.0280 C   0  0  2  0  0  0  0  0  0  0  0  0
   40.7030   22.2920   37.5000 C   0  0  0  0  0  0  0  0  0  0  0  0
   42.0090   22.2400   36.7220 C   0  0  1  0  0  0  0  0  0  0  0  0
   42.5340   20.9170   36.3540 N   0  0  0  0  0  0  0  0  0  0  0  0
   42.8480   20.0520   37.3570 C   0  0  0  0  0  0  0  0  0  0  0  0
   43.3020   18.9220   36.7840 N   0  0  0  0  0  0  0  0  0  0  0  0
   43.2870   19.0420   35.4450 C   0  0  0  0  0  0  0  0  0  0  0  0
   43.6110   18.2770   34.3260 C   0  0  0  0  0  0  0  0  0  0  0  0
   43.4460   18.7760   33.0750 N   0  0  0  0  0  0  0  0  0  0  0  0
   42.9610   20.0270   32.9170 C   0  0  0  0  0  0  0  0  0  0  0  0
   42.6380   20.7910   33.9830 N   0  0  0  0  0  0  0  0  0  0  0  0
   42.8030   20.2940   35.2020 C   0  0  0  0  0  0  0  0  0  0  0  0
   37.6032   23.2121   29.5898 H   0  0  0  0  0  0  0  0  0  0  0  0
   36.1526   22.7973   31.6053 H   0  0  0  0  0  0  0  0  0  0  0  0
   36.0817   28.9869   35.0027 H   0  0  0  0  0  0  0  0  0  0  0  0
   38.1395   28.1173   36.4566 H   0  0  0  0  0  0  0  0  0  0  0  0
   39.8854   26.1186   29.2741 H   0  0  0  0  0  0  0  0  0  0  0  0
   39.2602   24.6389   28.4980 H   0  0  0  0  0  0  0  0  0  0  0  0
   40.2034   22.1413   35.1572 H   0  0  0  0  0  0  0  0  0  0  0  0
   40.5135   23.1132   38.2069 H   0  0  0  0  0  0  0  0  0  0  0  0
   40.1574   21.6020   38.1604 H   0  0  0  0  0  0  0  0  0  0  0  0
   42.9920   22.7109   36.8699 H   0  0  0  0  0  0  0  0  0  0  0  0
   42.7490   20.2415   38.4360 H   0  0  0  0  0  0  0  0  0  0  0  0
   44.0045   17.2583   34.4583 H   0  0  0  0  0  0  0  0  0  0  0  0
   42.8268   20.4304   31.9025 H   0  0  0  0  0  0  0  0  0  0  0  0
  1  5  1  0
  2  1  2  0
  2  3  1  0
  3  4  1  0
  4 18  1  0
  5  4  2  0
  6  7  2  0
  6 11  1  0
  7  8  1  0
  8  9  2  0
 10  9  1  0
 10 12  1  0
 11 10  2  0
 12 16  1  0
 13 12  1  0
 13 14  2  0
 14 15  1  0
 16  1  1  0
 16 15  2  0
 17  6  1  0
 18 20  1  0
 18 19  1  0
 20 19  1  0
 21 20  1  0
 21 22  1  0
 23 22  2  0
 24 23  1  0
 25 24  2  0
 26 25  1  0
 27 26  2  0
 27 28  1  0
 28 29  2  0
 29 24  1  0
 29 21  1  0
  7 30  1  0
  8 31  1  0
 14 32  1  0
 15 33  1  0
 17 34  1  0
 17 35  1  0
 18 36  1  6
 19 37  1  0
 19 38  1  0
 20 39  1  1
 22 40  1  0
 25 41  1  0
 27 42  1  0
M  ISO  8  30  14  31  14  32  14  33  14  36  13  37  13  38  13  39  13
M  ISO  3  40  14  41  14  42  14
M  END
>  <minimizedAffinity>  (1) 
-5.41459131

>  <minimizedRMSD>  (1) 
5.47310829

$$$$
