
     RDKit          3D

 34 37  0  0  1  0  0  0  0  0999 V2000
   36.1980   23.7930   31.1180 C   0  0  0  0  0  0  0  0  0  0  0  0
   35.0440   24.6050   31.0590 C   0  0  0  0  0  0  0  0  0  0  0  0
   35.1920   25.9810   30.9790 C   0  0  0  0  0  0  0  0  0  0  0  0
   36.4680   26.4850   30.9610 N   0  0  0  0  0  0  0  0  0  0  0  0
   37.5400   25.6750   31.0200 C   0  0  0  0  0  0  0  0  0  0  0  0
   37.4200   24.3420   31.0970 N   0  0  0  0  0  0  0  0  0  0  0  0
   38.8080   26.3200   30.9920 N   0  0  0  0  0  0  0  0  0  0  0  0
   39.2320   26.5940   29.7910 N   0  0  0  0  0  0  0  0  0  0  0  0
   40.4480   27.2060   29.8800 C   0  0  0  0  0  0  0  0  0  0  0  0
   40.7660   27.3040   31.1900 C   0  0  0  0  0  0  0  0  0  0  0  0
   39.7190   26.7380   31.8960 C   0  0  0  0  0  0  0  0  0  0  0  0
   39.4050   26.5110   33.2930 C   0  0  0  0  0  0  0  0  0  0  0  0
   38.9720   27.3190   34.2570 N   0  0  0  0  0  0  0  0  0  0  0  0
   38.8250   26.6700   35.3720 O   0  0  0  0  0  0  0  0  0  0  0  0
   39.1790   25.4060   35.1020 C   0  0  0  0  0  0  0  0  0  0  0  0
   39.5480   25.2510   33.8230 N   0  0  0  0  0  0  0  0  0  0  0  0
   39.1750   24.2630   36.0930 C   0  0  2  0  0  0  0  0  0  0  0  0
   38.1830   23.1580   35.9240 C   0  0  0  0  0  0  0  0  0  0  0  0
   38.0490   24.1520   37.0620 C   0  0  1  0  0  0  0  0  0  0  0  0
   38.3030   23.6730   38.4710 C   0  0  0  0  0  0  0  0  0  0  0  0
   39.5820   23.2130   38.6400 F   0  0  0  0  0  0  0  0  0  0  0  0
   37.3230   22.8070   38.8690 F   0  0  0  0  0  0  0  0  0  0  0  0
   38.2040   24.8160   39.2750 F   0  0  0  0  0  0  0  0  0  0  0  0
   36.0530   22.3820   31.2010 N   0  0  0  0  0  0  0  0  0  0  0  0
   34.0418   24.1519   31.0763 H   0  0  0  0  0  0  0  0  0  0  0  0
   34.3168   26.6457   30.9316 H   0  0  0  0  0  0  0  0  0  0  0  0
   41.0603   27.5570   29.0363 H   0  0  0  0  0  0  0  0  0  0  0  0
   41.6795   27.7475   31.6128 H   0  0  0  0  0  0  0  0  0  0  0  0
   40.2703   24.3081   36.1840 H   0  0  0  0  0  0  0  0  0  0  0  0
   37.4707   23.1791   35.0860 H   0  0  0  0  0  0  0  0  0  0  0  0
   38.2389   22.0622   35.8454 H   0  0  0  0  0  0  0  0  0  0  0  0
   37.2712   24.8419   37.4211 H   0  0  0  0  0  0  0  0  0  0  0  0
   36.8878   21.7802   31.2445 H   0  0  0  0  0  0  0  0  0  0  0  0
   35.1131   21.9610   31.2176 H   0  0  0  0  0  0  0  0  0  0  0  0
  1 24  1  0
  2  1  2  0
  3  2  1  0
  4  3  2  0
  4  5  1  0
  5  6  2  0
  6  1  1  0
  7  5  1  0
  7 11  1  0
  8  9  2  0
  8  7  1  0
  9 10  1  0
 10 11  2  0
 11 12  1  0
 12 16  1  0
 12 13  2  0
 13 14  1  0
 15 14  1  0
 15 17  1  0
 16 15  2  0
 17 19  1  0
 18 17  1  0
 18 19  1  0
 19 20  1  0
 20 21  1  0
 20 22  1  0
 20 23  1  0
  2 25  1  0
  3 26  1  0
  9 27  1  0
 10 28  1  0
 17 29  1  1
 18 30  1  0
 18 31  1  0
 19 32  1  1
 24 33  1  0
 24 34  1  0
M  ISO  8  25  14  26  14  27  14  28  14  29  13  30  13  31  13  32  13
M  END
>  <minimizedAffinity>  (1) 
-6.08060265

>  <minimizedRMSD>  (1) 
2.41369581

$$$$
