
     RDKit          3D

 38 42  0  0  1  0  0  0  0  0999 V2000
   38.2510   24.4630   30.4850 C   0  0  0  0  0  0  0  0  0  0  0  0
   37.3240   23.3990   30.5540 C   0  0  0  0  0  0  0  0  0  0  0  0
   36.1450   23.5780   31.2570 C   0  0  0  0  0  0  0  0  0  0  0  0
   35.9400   24.7920   31.8550 N   0  0  0  0  0  0  0  0  0  0  0  0
   36.8520   25.7790   31.7630 C   0  0  0  0  0  0  0  0  0  0  0  0
   37.9980   25.6330   31.0900 N   0  0  0  0  0  0  0  0  0  0  0  0
   36.5200   26.9990   32.4310 N   0  0  0  0  0  0  0  0  0  0  0  0
   35.7650   27.8000   31.7300 N   0  0  0  0  0  0  0  0  0  0  0  0
   35.5120   28.9200   32.4540 C   0  0  0  0  0  0  0  0  0  0  0  0
   36.1390   28.8010   33.6530 C   0  0  0  0  0  0  0  0  0  0  0  0
   36.7780   27.5670   33.6180 C   0  0  0  0  0  0  0  0  0  0  0  0
   37.6150   26.8080   34.5410 C   0  0  0  0  0  0  0  0  0  0  0  0
   38.9270   26.7310   34.7080 N   0  0  0  0  0  0  0  0  0  0  0  0
   39.2240   25.9130   35.6720 O   0  0  0  0  0  0  0  0  0  0  0  0
   38.0490   25.4560   36.1280 C   0  0  0  0  0  0  0  0  0  0  0  0
   37.0120   25.9790   35.4610 N   0  0  0  0  0  0  0  0  0  0  0  0
   37.8980   24.4830   37.2450 C   0  0  2  0  0  0  0  0  0  0  0  0
   39.0690   23.6910   37.7310 C   0  0  0  0  0  0  0  0  0  0  0  0
   37.9460   23.0150   36.9800 C   0  0  2  0  0  0  0  0  0  0  0  0
   38.3950   22.4850   35.6590 C   0  0  0  0  0  0  0  0  0  0  0  0
   39.6840   22.2790   35.2160 C   0  0  0  0  0  0  0  0  0  0  0  0
   39.6290   21.7940   33.9460 N   0  0  0  0  0  0  0  0  0  0  0  0
   38.3380   21.6880   33.5720 C   0  0  0  0  0  0  0  0  0  0  0  0
   37.6210   22.1120   34.6270 N   0  0  0  0  0  0  0  0  0  0  0  0
   39.4640   24.2800   29.7620 N   0  0  0  0  0  0  0  0  0  0  0  0
   37.5362   22.4415   30.0559 H   0  0  0  0  0  0  0  0  0  0  0  0
   35.3992   22.7730   31.3324 H   0  0  0  0  0  0  0  0  0  0  0  0
   34.9041   29.7762   32.1263 H   0  0  0  0  0  0  0  0  0  0  0  0
   36.1408   29.5283   34.4783 H   0  0  0  0  0  0  0  0  0  0  0  0
   37.1745   25.1616   37.7205 H   0  0  0  0  0  0  0  0  0  0  0  0
   40.0535   23.8148   37.2562 H   0  0  0  0  0  0  0  0  0  0  0  0
   39.5592   23.5398   38.7040 H   0  0  0  0  0  0  0  0  0  0  0  0
   37.1999   22.2218   37.1351 H   0  0  0  0  0  0  0  0  0  0  0  0
   40.6011   22.4736   35.7914 H   0  0  0  0  0  0  0  0  0  0  0  0
   37.9523   21.3297   32.6061 H   0  0  0  0  0  0  0  0  0  0  0  0
   36.5917   22.1469   34.6421 H   0  0  0  0  0  0  0  0  0  0  0  0
   40.1492   25.0468   29.7031 H   0  0  0  0  0  0  0  0  0  0  0  0
   39.6563   23.3808   29.2979 H   0  0  0  0  0  0  0  0  0  0  0  0
  1  2  2  0
  1  6  1  0
  2  3  1  0
  3  4  2  0
  5  4  1  0
  5  7  1  0
  6  5  2  0
  7 11  1  0
  8  7  1  0
  8  9  2  0
  9 10  1  0
 11 10  2  0
 11 12  1  0
 12 13  2  0
 12 16  1  0
 13 14  1  0
 14 15  1  0
 15 17  1  0
 16 15  2  0
 17 18  1  0
 19 17  1  0
 19 18  1  0
 20 19  1  0
 21 20  2  0
 22 21  1  0
 23 22  2  0
 23 24  1  0
 24 20  1  0
 25  1  1  0
  2 26  1  0
  3 27  1  0
  9 28  1  0
 10 29  1  0
 17 30  1  1
 18 31  1  0
 18 32  1  0
 19 33  1  1
 21 34  1  0
 23 35  1  0
 24 36  1  0
 25 37  1  0
 25 38  1  0
M  ISO  8  26  14  27  14  28  14  29  14  30  13  31  13  32  13  33  13
M  ISO  3  34  14  35  14  36   9
M  END
>  <minimizedAffinity>  (1) 
-5.4760623

>  <minimizedRMSD>  (1) 
3.54471588

$$$$
