
     RDKit          3D

 39 43  0  0  1  0  0  0  0  0999 V2000
   38.9190   24.2470   35.1680 C   0  0  0  0  0  0  0  0  0  0  0  0
   38.1110   23.8500   34.1830 N   0  0  0  0  0  0  0  0  0  0  0  0
   37.5890   24.8720   33.5830 O   0  0  0  0  0  0  0  0  0  0  0  0
   38.0800   25.9530   34.2070 C   0  0  0  0  0  0  0  0  0  0  0  0
   38.9120   25.6180   35.2010 N   0  0  0  0  0  0  0  0  0  0  0  0
   43.0860   23.9960   32.9430 C   0  0  0  0  0  0  0  0  0  0  0  0
   43.7130   25.2230   33.2510 C   0  0  0  0  0  0  0  0  0  0  0  0
   43.4250   25.8400   34.4540 C   0  0  0  0  0  0  0  0  0  0  0  0
   42.5370   25.2180   35.2910 N   0  0  0  0  0  0  0  0  0  0  0  0
   41.9650   24.0570   34.9640 C   0  0  0  0  0  0  0  0  0  0  0  0
   42.2210   23.4280   33.8020 N   0  0  0  0  0  0  0  0  0  0  0  0
   41.0540   23.5070   35.9220 N   0  0  0  0  0  0  0  0  0  0  0  0
   41.6340   22.8080   36.8590 N   0  0  0  0  0  0  0  0  0  0  0  0
   40.6800   22.3350   37.7080 C   0  0  0  0  0  0  0  0  0  0  0  0
   39.4830   22.7650   37.2640 C   0  0  0  0  0  0  0  0  0  0  0  0
   39.7270   23.5110   36.1260 C   0  0  0  0  0  0  0  0  0  0  0  0
   43.3760   23.3520   31.7050 N   0  0  0  0  0  0  0  0  0  0  0  0
   37.7480   27.3620   33.8500 C   0  0  2  0  0  0  0  0  0  0  0  0
   36.6120   28.0630   34.5250 C   0  0  0  0  0  0  0  0  0  0  0  0
   36.5250   27.6650   33.0550 C   0  0  1  0  0  0  0  0  0  0  0  0
   36.5320   28.6870   32.0040 C   0  0  0  0  0  0  0  0  0  0  0  0
   35.5720   29.6720   31.8880 C   0  0  0  0  0  0  0  0  0  0  0  0
   35.6420   30.6160   30.8570 C   0  0  0  0  0  0  0  0  0  0  0  0
   36.6400   30.5660   29.9820 N   0  0  0  0  0  0  0  0  0  0  0  0
   37.5740   29.6090   30.0940 C   0  0  0  0  0  0  0  0  0  0  0  0
   37.5410   28.6700   31.0850 N   0  0  0  0  0  0  0  0  0  0  0  0
   44.4203   25.6812   32.5440 H   0  0  0  0  0  0  0  0  0  0  0  0
   43.8925   26.7969   34.7294 H   0  0  0  0  0  0  0  0  0  0  0  0
   40.8556   21.7126   38.5979 H   0  0  0  0  0  0  0  0  0  0  0  0
   38.5021   22.5620   37.7186 H   0  0  0  0  0  0  0  0  0  0  0  0
   42.9233   22.4567   31.4718 H   0  0  0  0  0  0  0  0  0  0  0  0
   44.0382   23.7819   31.0436 H   0  0  0  0  0  0  0  0  0  0  0  0
   38.8195   27.5775   33.7260 H   0  0  0  0  0  0  0  0  0  0  0  0
   36.0061   27.5361   35.2769 H   0  0  0  0  0  0  0  0  0  0  0  0
   36.4946   28.9987   35.0913 H   0  0  0  0  0  0  0  0  0  0  0  0
   35.8310   27.0717   32.4415 H   0  0  0  0  0  0  0  0  0  0  0  0
   34.7450   29.7154   32.6120 H   0  0  0  0  0  0  0  0  0  0  0  0
   34.8724   31.3973   30.7716 H   0  0  0  0  0  0  0  0  0  0  0  0
   38.3947   29.5799   29.3621 H   0  0  0  0  0  0  0  0  0  0  0  0
  1  5  1  0
  1 16  1  0
  2  1  2  0
  3  2  1  0
  3  4  1  0
  4  5  2  0
  6  7  2  0
  6 11  1  0
  7  8  1  0
  8  9  2  0
 10  9  1  0
 10 12  1  0
 11 10  2  0
 12 16  1  0
 12 13  1  0
 13 14  2  0
 15 14  1  0
 16 15  2  0
 17  6  1  0
 18  4  1  0
 18 19  1  0
 20 18  1  0
 20 19  1  0
 21 20  1  0
 22 21  2  0
 23 22  1  0
 24 25  1  0
 24 23  2  0
 25 26  2  0
 26 21  1  0
  7 27  1  0
  8 28  1  0
 14 29  1  0
 15 30  1  0
 17 31  1  0
 17 32  1  0
 18 33  1  6
 19 34  1  0
 19 35  1  0
 20 36  1  1
 22 37  1  0
 23 38  1  0
 25 39  1  0
M  ISO  8  27  14  28  14  29  14  30  14  33  13  34  13  35  13  36  13
M  ISO  3  37  14  38  14  39  14
M  END
>  <minimizedAffinity>  (1) 
-5.1810112

>  <minimizedRMSD>  (1) 
7.31558657

$$$$
