
     RDKit          3D

 33 36  0  0  1  0  0  0  0  0999 V2000
   36.7090   23.9220   30.9800 C   0  0  0  0  0  0  0  0  0  0  0  0
   35.4570   24.5540   31.1410 C   0  0  0  0  0  0  0  0  0  0  0  0
   35.3930   25.9390   31.0670 C   0  0  0  0  0  0  0  0  0  0  0  0
   36.5560   26.6130   30.8430 N   0  0  0  0  0  0  0  0  0  0  0  0
   37.7220   25.9800   30.6970 C   0  0  0  0  0  0  0  0  0  0  0  0
   37.8200   24.6440   30.7620 N   0  0  0  0  0  0  0  0  0  0  0  0
   38.8730   26.8040   30.4650 N   0  0  0  0  0  0  0  0  0  0  0  0
   39.0400   27.1280   29.2160 N   0  0  0  0  0  0  0  0  0  0  0  0
   40.1450   27.9020   29.1040 C   0  0  0  0  0  0  0  0  0  0  0  0
   40.6720   28.0530   30.3430 C   0  0  0  0  0  0  0  0  0  0  0  0
   39.8510   27.3480   31.2040 C   0  0  0  0  0  0  0  0  0  0  0  0
   39.8160   27.0850   32.6320 C   0  0  0  0  0  0  0  0  0  0  0  0
   40.7530   27.1720   33.5820 N   0  0  0  0  0  0  0  0  0  0  0  0
   40.2630   26.8360   34.7340 O   0  0  0  0  0  0  0  0  0  0  0  0
   38.9770   26.5270   34.5100 C   0  0  0  0  0  0  0  0  0  0  0  0
   38.6520   26.6670   33.2180 N   0  0  0  0  0  0  0  0  0  0  0  0
   37.9910   26.0760   35.5620 C   0  0  2  0  0  0  0  0  0  0  0  0
   38.1950   26.5130   36.9790 C   0  0  0  0  0  0  0  0  0  0  0  0
   38.4160   25.0580   36.5630 C   0  0  1  0  0  0  0  0  0  0  0  0
   37.4950   24.0190   37.0400 C   0  0  0  0  0  0  0  0  0  0  0  0
   38.0880   23.1120   37.6190 O   0  0  0  0  0  0  0  0  0  0  0  0
   36.7890   22.5010   31.0550 N   0  0  0  0  0  0  0  0  0  0  0  0
   34.5489   23.9602   31.3217 H   0  0  0  0  0  0  0  0  0  0  0  0
   34.4384   26.4727   31.1849 H   0  0  0  0  0  0  0  0  0  0  0  0
   40.5438   28.3316   28.1732 H   0  0  0  0  0  0  0  0  0  0  0  0
   41.5738   28.6231   30.6109 H   0  0  0  0  0  0  0  0  0  0  0  0
   37.1582   26.1480   34.8470 H   0  0  0  0  0  0  0  0  0  0  0  0
   39.0528   27.1488   37.2434 H   0  0  0  0  0  0  0  0  0  0  0  0
   37.5852   27.0278   37.7360 H   0  0  0  0  0  0  0  0  0  0  0  0
   39.2419   24.3338   36.6216 H   0  0  0  0  0  0  0  0  0  0  0  0
   36.4048   24.0490   36.8963 H   0  0  0  0  0  0  0  0  0  0  0  0
   37.6974   22.0295   30.9390 H   0  0  0  0  0  0  0  0  0  0  0  0
   35.9385   21.9456   31.2252 H   0  0  0  0  0  0  0  0  0  0  0  0
  1 22  1  0
  1  2  2  0
  3  2  1  0
  4  3  2  0
  5  6  2  0
  5  4  1  0
  6  1  1  0
  7  5  1  0
  7 11  1  0
  8  7  1  0
  9  8  2  0
  9 10  1  0
 10 11  2  0
 11 12  1  0
 12 16  1  0
 12 13  2  0
 13 14  1  0
 15 14  1  0
 15 17  1  0
 16 15  2  0
 17 19  1  0
 17 18  1  0
 19 18  1  0
 19 20  1  0
 20 21  2  0
  2 23  1  0
  3 24  1  0
  9 25  1  0
 10 26  1  0
 17 27  1  6
 18 28  1  0
 18 29  1  0
 19 30  1  6
 20 31  1  0
 22 32  1  0
 22 33  1  0
M  ISO  8  23  14  24  14  25  14  26  14  27  13  28  13  29  13  30  13
M  ISO  1  31   6
M  END
>  <minimizedAffinity>  (1) 
-4.63448715

>  <minimizedRMSD>  (1) 
2.69189262

$$$$
