
     RDKit          3D

 38 42  0  0  1  0  0  0  0  0999 V2000
   38.5610   24.9120   35.0600 C   0  0  0  0  0  0  0  0  0  0  0  0
   37.5490   25.4210   35.7590 N   0  0  0  0  0  0  0  0  0  0  0  0
   37.0550   26.4630   35.1640 O   0  0  0  0  0  0  0  0  0  0  0  0
   37.7810   26.6190   34.0480 C   0  0  0  0  0  0  0  0  0  0  0  0
   38.7290   25.6810   33.9390 N   0  0  0  0  0  0  0  0  0  0  0  0
   36.3670   21.5090   32.6000 C   0  0  0  0  0  0  0  0  0  0  0  0
   36.8360   21.6910   31.2780 C   0  0  0  0  0  0  0  0  0  0  0  0
   38.1090   22.2080   31.0780 C   0  0  0  0  0  0  0  0  0  0  0  0
   38.8530   22.5190   32.1870 N   0  0  0  0  0  0  0  0  0  0  0  0
   38.3670   22.3290   33.4220 C   0  0  0  0  0  0  0  0  0  0  0  0
   37.1420   21.8320   33.6530 N   0  0  0  0  0  0  0  0  0  0  0  0
   39.2410   22.6920   34.4960 N   0  0  0  0  0  0  0  0  0  0  0  0
   40.0920   21.7640   34.8250 N   0  0  0  0  0  0  0  0  0  0  0  0
   40.8650   22.2100   35.8430 C   0  0  0  0  0  0  0  0  0  0  0  0
   40.4660   23.4650   36.1480 C   0  0  0  0  0  0  0  0  0  0  0  0
   39.4310   23.7720   35.2880 C   0  0  0  0  0  0  0  0  0  0  0  0
   35.0680   20.9840   32.8180 N   0  0  0  0  0  0  0  0  0  0  0  0
   37.5820   27.7060   33.0210 C   0  0  2  0  0  0  0  0  0  0  0  0
   36.1980   28.1420   32.6730 C   0  0  0  0  0  0  0  0  0  0  0  0
   37.0190   27.3430   31.6880 C   0  0  1  0  0  0  0  0  0  0  0  0
   37.6860   28.0300   30.5620 C   0  0  0  0  0  0  0  0  0  0  0  0
   37.0230   28.6050   29.4920 C   0  0  0  0  0  0  0  0  0  0  0  0
   37.9010   29.1620   28.6130 C   0  0  0  0  0  0  0  0  0  0  0  0
   39.1130   28.9120   29.1720 N   0  0  0  0  0  0  0  0  0  0  0  0
   38.9890   28.2400   30.3290 N   0  0  0  0  0  0  0  0  0  0  0  0
   36.2007   21.4265   30.4199 H   0  0  0  0  0  0  0  0  0  0  0  0
   38.5071   22.3628   30.0643 H   0  0  0  0  0  0  0  0  0  0  0  0
   41.6743   21.6503   36.3348 H   0  0  0  0  0  0  0  0  0  0  0  0
   40.8849   24.1154   36.9299 H   0  0  0  0  0  0  0  0  0  0  0  0
   34.4716   20.7355   32.0158 H   0  0  0  0  0  0  0  0  0  0  0  0
   34.7208   20.8511   33.7786 H   0  0  0  0  0  0  0  0  0  0  0  0
   38.4885   28.2251   33.3657 H   0  0  0  0  0  0  0  0  0  0  0  0
   35.3329   27.6805   33.1717 H   0  0  0  0  0  0  0  0  0  0  0  0
   35.6667   29.1048   32.6461 H   0  0  0  0  0  0  0  0  0  0  0  0
   36.8087   26.4309   31.1102 H   0  0  0  0  0  0  0  0  0  0  0  0
   35.9300   28.6112   29.3679 H   0  0  0  0  0  0  0  0  0  0  0  0
   37.6808   29.6894   27.6731 H   0  0  0  0  0  0  0  0  0  0  0  0
   40.0125   29.2006   28.7616 H   0  0  0  0  0  0  0  0  0  0  0  0
  1 16  1  0
  1  2  2  0
  3  2  1  0
  4  3  1  0
  5  4  2  0
  5  1  1  0
  6 17  1  0
  6 11  2  0
  7  6  1  0
  8  7  2  0
  8  9  1  0
  9 10  2  0
 10 11  1  0
 10 12  1  0
 12 13  1  0
 12 16  1  0
 13 14  2  0
 14 15  1  0
 16 15  2  0
 18  4  1  0
 19 18  1  0
 20 19  1  0
 20 18  1  0
 21 20  1  0
 22 21  1  0
 23 24  1  0
 23 22  2  0
 24 25  1  0
 25 21  2  0
  7 26  1  0
  8 27  1  0
 14 28  1  0
 15 29  1  0
 17 30  1  0
 17 31  1  0
 18 32  1  6
 19 33  1  0
 19 34  1  0
 20 35  1  6
 22 36  1  0
 23 37  1  0
 24 38  1  0
M  ISO  8  26  14  27  14  28  14  29  14  32  13  33  13  34  13  35  13
M  ISO  3  36  14  37  14  38   9
M  END
>  <minimizedAffinity>  (1) 
-4.83721781

>  <minimizedRMSD>  (1) 
6.76228619

$$$$
