
     RDKit          3D

 44 49  0  0  1  0  0  0  0  0999 V2000
   41.1470   24.5180   34.7770 C   0  0  0  0  0  0  0  0  0  0  0  0
   41.3710   23.5580   33.8940 N   0  0  0  0  0  0  0  0  0  0  0  0
   42.4590   22.9070   34.1800 O   0  0  0  0  0  0  0  0  0  0  0  0
   42.9380   23.4830   35.2890 C   0  0  0  0  0  0  0  0  0  0  0  0
   42.1630   24.4930   35.7050 N   0  0  0  0  0  0  0  0  0  0  0  0
   37.3030   22.0030   33.6340 C   0  0  0  0  0  0  0  0  0  0  0  0
   36.9400   21.3590   34.8370 C   0  0  0  0  0  0  0  0  0  0  0  0
   37.2240   21.9790   36.0440 C   0  0  0  0  0  0  0  0  0  0  0  0
   37.8480   23.2000   36.0000 N   0  0  0  0  0  0  0  0  0  0  0  0
   38.1740   23.7730   34.8380 C   0  0  0  0  0  0  0  0  0  0  0  0
   37.9130   23.1980   33.6600 N   0  0  0  0  0  0  0  0  0  0  0  0
   38.8240   25.0520   34.9230 N   0  0  0  0  0  0  0  0  0  0  0  0
   37.9910   26.0430   35.0450 N   0  0  0  0  0  0  0  0  0  0  0  0
   38.7130   27.2000   35.1160 C   0  0  0  0  0  0  0  0  0  0  0  0
   40.0190   26.8790   35.0320 C   0  0  0  0  0  0  0  0  0  0  0  0
   40.0890   25.5140   34.9100 C   0  0  0  0  0  0  0  0  0  0  0  0
   37.0150   21.3710   32.3910 N   0  0  0  0  0  0  0  0  0  0  0  0
   44.2010   23.0710   36.0100 C   0  0  2  0  0  0  0  0  0  0  0  0
   44.9880   24.1010   36.7530 C   0  0  0  0  0  0  0  0  0  0  0  0
   45.5190   23.5010   35.4790 C   0  0  2  0  0  0  0  0  0  0  0  0
   45.6500   24.2680   34.2870 N   0  0  0  0  0  0  0  0  0  0  0  0
   45.8160   23.7190   33.0690 C   0  0  0  0  0  0  0  0  0  0  0  0
   45.9050   24.7050   32.1580 N   0  0  0  0  0  0  0  0  0  0  0  0
   45.7940   25.8570   32.8210 C   0  0  0  0  0  0  0  0  0  0  0  0
   45.8180   27.1610   32.3780 C   0  0  0  0  0  0  0  0  0  0  0  0
   45.6820   28.1930   33.2510 N   0  0  0  0  0  0  0  0  0  0  0  0
   45.5240   27.8880   34.5710 C   0  0  0  0  0  0  0  0  0  0  0  0
   45.4960   26.6300   35.0430 N   0  0  0  0  0  0  0  0  0  0  0  0
   45.6310   25.6140   34.1710 C   0  0  0  0  0  0  0  0  0  0  0  0
   45.9850   27.4630   30.9840 N   0  0  0  0  0  0  0  0  0  0  0  0
   36.4393   20.3798   34.8168 H   0  0  0  0  0  0  0  0  0  0  0  0
   36.9586   21.5089   37.0024 H   0  0  0  0  0  0  0  0  0  0  0  0
   38.3013   28.2144   35.2228 H   0  0  0  0  0  0  0  0  0  0  0  0
   40.8678   27.5783   35.0566 H   0  0  0  0  0  0  0  0  0  0  0  0
   36.5466   20.4538   32.3759 H   0  0  0  0  0  0  0  0  0  0  0  0
   37.2750   21.8311   31.5069 H   0  0  0  0  0  0  0  0  0  0  0  0
   43.7524   22.1012   36.2714 H   0  0  0  0  0  0  0  0  0  0  0  0
   44.6493   25.1474   36.7709 H   0  0  0  0  0  0  0  0  0  0  0  0
   45.3616   24.2070   37.7822 H   0  0  0  0  0  0  0  0  0  0  0  0
   46.4421   22.9804   35.1842 H   0  0  0  0  0  0  0  0  0  0  0  0
   45.8700   22.6416   32.8540 H   0  0  0  0  0  0  0  0  0  0  0  0
   45.4136   28.7156   35.2872 H   0  0  0  0  0  0  0  0  0  0  0  0
   46.0010   28.4431   30.6677 H   0  0  0  0  0  0  0  0  0  0  0  0
   46.0888   26.6995   30.3005 H   0  0  0  0  0  0  0  0  0  0  0  0
  1 16  1  0
  1  5  1  0
  2  3  1  0
  2  1  2  0
  3  4  1  0
  4  5  2  0
  4 18  1  0
  6 11  2  0
  6  7  1  0
  7  8  2  0
  9  8  1  0
 10 12  1  0
 10  9  2  0
 11 10  1  0
 12 13  1  0
 13 14  2  0
 15 14  1  0
 16 12  1  0
 16 15  2  0
 17  6  1  0
 18 19  1  0
 20 18  1  0
 20 19  1  0
 21 20  1  0
 22 21  1  0
 23 24  1  0
 23 22  2  0
 24 29  2  0
 25 24  1  0
 25 26  2  0
 26 27  1  0
 27 28  2  0
 29 21  1  0
 29 28  1  0
 30 25  1  0
  7 31  1  0
  8 32  1  0
 14 33  1  0
 15 34  1  0
 17 35  1  0
 17 36  1  0
 18 37  1  1
 19 38  1  0
 19 39  1  0
 20 40  1  1
 22 41  1  0
 27 42  1  0
 30 43  1  0
 30 44  1  0
M  ISO  8  31  14  32  14  33  14  34  14  37  13  38  13  39  13  40  13
M  ISO  2  41  14  42  14
M  END
>  <minimizedAffinity>  (1) 
-4.79178238

>  <minimizedRMSD>  (1) 
6.41970873

$$$$
