
     RDKit          3D

 47 51  0  0  1  0  0  0  0  0999 V2000
   40.3010   26.7790   32.7220 C   0  0  0  0  0  0  0  0  0  0  0  0
   39.6390   27.1490   33.8250 N   0  0  0  0  0  0  0  0  0  0  0  0
   40.0750   26.4930   34.8470 O   0  0  0  0  0  0  0  0  0  0  0  0
   41.0480   25.6780   34.3790 C   0  0  0  0  0  0  0  0  0  0  0  0
   41.2330   25.8130   33.0570 N   0  0  0  0  0  0  0  0  0  0  0  0
   36.9800   23.8480   31.0710 C   0  0  0  0  0  0  0  0  0  0  0  0
   35.7680   24.4600   31.4180 C   0  0  0  0  0  0  0  0  0  0  0  0
   35.7160   25.8310   31.4940 C   0  0  0  0  0  0  0  0  0  0  0  0
   36.8690   26.5220   31.2220 N   0  0  0  0  0  0  0  0  0  0  0  0
   38.0120   25.8930   30.8920 C   0  0  0  0  0  0  0  0  0  0  0  0
   38.0840   24.5820   30.8140 N   0  0  0  0  0  0  0  0  0  0  0  0
   39.1400   26.7380   30.6340 N   0  0  0  0  0  0  0  0  0  0  0  0
   39.1900   27.2020   29.4140 N   0  0  0  0  0  0  0  0  0  0  0  0
   40.2840   27.9790   29.2860 C   0  0  0  0  0  0  0  0  0  0  0  0
   40.9310   27.9920   30.4740 C   0  0  0  0  0  0  0  0  0  0  0  0
   40.1980   27.1990   31.3340 C   0  0  0  0  0  0  0  0  0  0  0  0
   37.0390   22.4190   30.9900 N   0  0  0  0  0  0  0  0  0  0  0  0
   41.8460   24.7210   35.2150 C   0  0  2  0  0  0  0  0  0  0  0  0
   43.1330   24.1580   34.6620 C   0  0  0  0  0  0  0  0  0  0  0  0
   41.9000   23.2930   34.8410 C   0  0  1  0  0  0  0  0  0  0  0  0
   42.0480   22.2090   35.8500 C   0  0  0  0  0  0  0  0  0  0  0  0
   41.4130   22.5000   37.1670 C   0  0  0  0  0  0  0  0  0  0  0  0
   39.9410   22.6330   37.0790 C   0  0  0  0  0  0  0  0  0  0  0  0
   39.2880   23.2520   38.1350 C   0  0  0  0  0  0  0  0  0  0  0  0
   37.9300   23.4750   38.2330 C   0  0  0  0  0  0  0  0  0  0  0  0
   37.1400   23.0480   37.1920 C   0  0  0  0  0  0  0  0  0  0  0  0
   37.7430   22.4270   36.1200 C   0  0  0  0  0  0  0  0  0  0  0  0
   39.1010   22.2270   36.0660 C   0  0  0  0  0  0  0  0  0  0  0  0
   34.8741   23.8536   31.6259 H   0  0  0  0  0  0  0  0  0  0  0  0
   34.7861   26.3538   31.7625 H   0  0  0  0  0  0  0  0  0  0  0  0
   40.5962   28.5099   28.3746 H   0  0  0  0  0  0  0  0  0  0  0  0
   41.8611   28.5302   30.7092 H   0  0  0  0  0  0  0  0  0  0  0  0
   37.9221   21.9536   30.7363 H   0  0  0  0  0  0  0  0  0  0  0  0
   36.1983   21.8569   31.1855 H   0  0  0  0  0  0  0  0  0  0  0  0
   41.5685   25.2663   36.1291 H   0  0  0  0  0  0  0  0  0  0  0  0
   44.0055   24.0220   35.3179 H   0  0  0  0  0  0  0  0  0  0  0  0
   43.8061   24.4058   33.8280 H   0  0  0  0  0  0  0  0  0  0  0  0
   41.2324   22.6765   34.2211 H   0  0  0  0  0  0  0  0  0  0  0  0
   41.5907   21.2953   35.4424 H   0  0  0  0  0  0  0  0  0  0  0  0
   43.1264   22.1025   36.0391 H   0  0  0  0  0  0  0  0  0  0  0  0
   41.6507   21.6798   37.8603 H   0  0  0  0  0  0  0  0  0  0  0  0
   41.8113   23.4625   37.5205 H   0  0  0  0  0  0  0  0  0  0  0  0
   39.9115   23.5974   38.9728 H   0  0  0  0  0  0  0  0  0  0  0  0
   37.4957   23.9756   39.1110 H   0  0  0  0  0  0  0  0  0  0  0  0
   36.0506   23.1988   37.2144 H   0  0  0  0  0  0  0  0  0  0  0  0
   37.1187   22.0813   35.2829 H   0  0  0  0  0  0  0  0  0  0  0  0
   39.5311   21.7267   35.1858 H   0  0  0  0  0  0  0  0  0  0  0  0
  1  5  1  0
  1  2  2  0
  2  3  1  0
  4  3  1  0
  4 18  1  0
  5  4  2  0
  6  7  2  0
  7  8  1  0
  9  8  2  0
 10  9  1  0
 11 10  2  0
 11  6  1  0
 12 10  1  0
 12 16  1  0
 13 12  1  0
 14 13  2  0
 14 15  1  0
 15 16  2  0
 16  1  1  0
 17  6  1  0
 19 20  1  0
 19 18  1  0
 20 18  1  0
 20 21  1  0
 21 22  1  0
 23 22  1  0
 23 24  2  0
 24 25  1  0
 26 25  2  0
 27 26  1  0
 28 27  2  0
 28 23  1  0
  7 29  1  0
  8 30  1  0
 14 31  1  0
 15 32  1  0
 17 33  1  0
 17 34  1  0
 18 35  1  1
 19 36  1  0
 19 37  1  0
 20 38  1  6
 21 39  1  0
 21 40  1  0
 22 41  1  0
 22 42  1  0
 24 43  1  0
 25 44  1  0
 26 45  1  0
 27 46  1  0
 28 47  1  0
M  ISO  8  29  14  30  14  31  14  32  14  35  13  36  13  37  13  38  13
M  ISO  8  39   8  40   8  41   8  42   8  43  14  44  14  45  14  46  14
M  ISO  1  47  14
M  END
>  <minimizedAffinity>  (1) 
-5.57764053

>  <minimizedRMSD>  (1) 
3.05285382

$$$$
