
     RDKit          3D

 39 42  0  0  1  0  0  0  0  0999 V2000
   39.6760   26.4870   33.1880 C   0  0  0  0  0  0  0  0  0  0  0  0
   39.4300   27.2720   34.2430 N   0  0  0  0  0  0  0  0  0  0  0  0
   39.2720   26.5500   35.3090 O   0  0  0  0  0  0  0  0  0  0  0  0
   39.4270   25.2690   34.9050 C   0  0  0  0  0  0  0  0  0  0  0  0
   39.6780   25.1770   33.6000 N   0  0  0  0  0  0  0  0  0  0  0  0
   36.2810   23.9860   31.0630 C   0  0  0  0  0  0  0  0  0  0  0  0
   35.1430   24.8210   31.1180 C   0  0  0  0  0  0  0  0  0  0  0  0
   35.3190   26.1850   31.1020 C   0  0  0  0  0  0  0  0  0  0  0  0
   36.6080   26.6500   31.0310 N   0  0  0  0  0  0  0  0  0  0  0  0
   37.6700   25.8100   30.9800 C   0  0  0  0  0  0  0  0  0  0  0  0
   37.5190   24.5040   30.9950 N   0  0  0  0  0  0  0  0  0  0  0  0
   38.9530   26.4370   30.9110 N   0  0  0  0  0  0  0  0  0  0  0  0
   39.3130   26.7710   29.7000 N   0  0  0  0  0  0  0  0  0  0  0  0
   40.5370   27.3510   29.7600 C   0  0  0  0  0  0  0  0  0  0  0  0
   40.9360   27.3740   31.0560 C   0  0  0  0  0  0  0  0  0  0  0  0
   39.9200   26.7890   31.7850 C   0  0  0  0  0  0  0  0  0  0  0  0
   36.1020   22.5690   31.0790 N   0  0  0  0  0  0  0  0  0  0  0  0
   39.3250   24.0800   35.8170 C   0  0  2  0  0  0  0  0  0  0  0  0
   38.7960   22.7800   35.2600 C   0  0  0  0  0  0  0  0  0  0  0  0
   38.0040   23.5950   36.2690 C   0  0  1  0  0  0  0  0  0  0  0  0
   37.8080   22.9290   37.5870 C   0  0  0  0  0  0  0  0  0  0  0  0
   38.4970   23.6280   38.7270 C   0  0  0  0  0  0  0  0  0  0  0  0
   37.9860   24.9400   38.9810 N   0  0  0  0  0  0  0  0  0  0  0  0
   34.1334   24.3878   31.1727 H   0  0  0  0  0  0  0  0  0  0  0  0
   34.4626   26.8740   31.1443 H   0  0  0  0  0  0  0  0  0  0  0  0
   41.1090   27.7371   28.9034 H   0  0  0  0  0  0  0  0  0  0  0  0
   41.8809   27.7782   31.4482 H   0  0  0  0  0  0  0  0  0  0  0  0
   36.9212   21.9459   31.0395 H   0  0  0  0  0  0  0  0  0  0  0  0
   35.1537   22.1702   31.1300 H   0  0  0  0  0  0  0  0  0  0  0  0
   40.2420   24.3899   36.3396 H   0  0  0  0  0  0  0  0  0  0  0  0
   38.4640   22.7197   34.2130 H   0  0  0  0  0  0  0  0  0  0  0  0
   39.1607   21.7441   35.1975 H   0  0  0  0  0  0  0  0  0  0  0  0
   37.0260   24.0943   36.3338 H   0  0  0  0  0  0  0  0  0  0  0  0
   36.7297   22.8947   37.8017 H   0  0  0  0  0  0  0  0  0  0  0  0
   38.2530   21.9260   37.5093 H   0  0  0  0  0  0  0  0  0  0  0  0
   38.3691   23.0219   39.6360 H   0  0  0  0  0  0  0  0  0  0  0  0
   39.5550   23.7400   38.4475 H   0  0  0  0  0  0  0  0  0  0  0  0
   37.9259   25.0942   39.9976 H   0  0  0  0  0  0  0  0  0  0  0  0
   38.6157   25.6404   38.5641 H   0  0  0  0  0  0  0  0  0  0  0  0
  1  5  1  0
  1  2  2  0
  2  3  1  0
  4  3  1  0
  4 18  1  0
  5  4  2  0
  6 17  1  0
  6  7  2  0
  8  7  1  0
  9  8  2  0
 10 11  2  0
 10  9  1  0
 11  6  1  0
 12 10  1  0
 12 16  1  0
 13 14  2  0
 13 12  1  0
 14 15  1  0
 15 16  2  0
 16  1  1  0
 18 20  1  0
 19 18  1  0
 19 20  1  0
 20 21  1  0
 21 22  1  0
 22 23  1  0
  7 24  1  0
  8 25  1  0
 14 26  1  0
 15 27  1  0
 17 28  1  0
 17 29  1  0
 18 30  1  1
 19 31  1  0
 19 32  1  0
 20 33  1  6
 21 34  1  0
 21 35  1  0
 22 36  1  0
 22 37  1  0
 23 38  1  0
 23 39  1  0
M  ISO  8  24  14  25  14  26  14  27  14  30  13  31  13  32  13  33  13
M  ISO  6  34   8  35   8  36   8  37   8  38   5  39   5
M  END
>  <minimizedAffinity>  (1) 
-4.80887699

>  <minimizedRMSD>  (1) 
0.448730081

$$$$
