
     RDKit          3D

 26 27  0  0  0  0  0  0  0  0999 V2000
   37.8120   26.4010   32.3840 C   0  0  0  0  0  0  0  0  0  0  0  0
   37.2740   25.1390   32.5920 C   0  0  0  0  0  0  0  0  0  0  0  0
   37.5760   24.5770   33.8200 C   0  0  0  0  0  0  0  0  0  0  0  0
   38.3520   25.1850   34.8010 C   0  0  0  0  0  0  0  0  0  0  0  0
   38.8440   26.4310   34.5140 C   0  0  0  0  0  0  0  0  0  0  0  0
   38.5960   27.0750   33.3120 C   0  0  0  0  0  0  0  0  0  0  0  0
   39.8200   22.8990   37.2560 C   0  0  0  0  0  0  0  0  0  0  0  0
   39.0670   23.1540   38.4120 C   0  0  0  0  0  0  0  0  0  0  0  0
   38.0520   24.1230   38.3260 C   0  0  0  0  0  0  0  0  0  0  0  0
   37.8580   24.7540   37.1390 N   0  0  0  0  0  0  0  0  0  0  0  0
   38.6020   24.4800   36.0570 C   0  0  0  0  0  0  0  0  0  0  0  0
   39.5870   23.5580   36.0960 N   0  0  0  0  0  0  0  0  0  0  0  0
   37.4450   27.1630   30.8730 S   0  0  0  0  0  0  0  0  0  0  0  0
   36.0850   27.8100   30.8720 O   0  0  0  0  0  0  0  0  0  0  0  0
   38.5040   28.1750   30.5880 O   0  0  0  0  0  0  0  0  0  0  0  0
   36.4640   24.3210   31.6930 C   0  0  0  0  0  0  0  0  0  0  0  0
   35.1700   24.8610   31.5350 F   0  0  0  0  0  0  0  0  0  0  0  0
   36.9630   24.1680   30.4230 F   0  0  0  0  0  0  0  0  0  0  0  0
   36.1610   23.0750   32.2930 F   0  0  0  0  0  0  0  0  0  0  0  0
   37.1729   23.5765   34.0359 H   0  0  0  0  0  0  0  0  0  0  0  0
   39.4610   26.9411   35.2683 H   0  0  0  0  0  0  0  0  0  0  0  0
   39.0020   28.0756   33.1021 H   0  0  0  0  0  0  0  0  0  0  0  0
   40.6198   22.1448   37.2927 H   0  0  0  0  0  0  0  0  0  0  0  0
   39.2635   22.6157   39.3509 H   0  0  0  0  0  0  0  0  0  0  0  0
   37.4293   24.3646   39.2000 H   0  0  0  0  0  0  0  0  0  0  0  0
   37.4183   26.2040   29.8950 H   0  0  0  0  0  0  0  0  0  0  0  0
  1  2  2  0
  1  6  1  0
  2  3  1  0
  3  4  2  0
  4 11  1  0
  5  4  1  0
  6  5  2  0
  7  8  2  0
  9  8  1  0
 10  9  2  0
 11 12  2  0
 11 10  1  0
 12  7  1  0
 13  1  1  0
 14 13  2  0
 15 13  2  0
 16 19  1  0
 16  2  1  0
 17 16  1  0
 18 16  1  0
  3 20  1  0
  5 21  1  0
  6 22  1  0
  7 23  1  0
  8 24  1  0
  9 25  1  0
 13 26  1  0
M  ISO  7  20  14  21  14  22  14  23  14  24  14  25  14  26  11
M  END
>  <minimizedAffinity>  (1) 
-4.79477358

>  <minimizedRMSD>  (1) 
5.24836683

$$$$
