
     RDKit          3D

 29 30  0  0  0  0  0  0  0  0999 V2000
   36.4030   21.6270   32.7560 C   0  0  0  0  0  0  0  0  0  0  0  0
   36.3630   22.8180   32.0900 C   0  0  0  0  0  0  0  0  0  0  0  0
   37.2240   23.8010   32.5480 C   0  0  0  0  0  0  0  0  0  0  0  0
   38.0970   23.6320   33.6200 C   0  0  0  0  0  0  0  0  0  0  0  0
   38.0750   22.4040   34.2350 C   0  0  0  0  0  0  0  0  0  0  0  0
   37.2430   21.3760   33.8320 C   0  0  0  0  0  0  0  0  0  0  0  0
   41.0710   25.4900   34.6660 C   0  0  0  0  0  0  0  0  0  0  0  0
   40.5770   26.7940   34.8450 C   0  0  0  0  0  0  0  0  0  0  0  0
   39.2140   27.0070   34.5990 C   0  0  0  0  0  0  0  0  0  0  0  0
   38.4240   25.9690   34.2010 N   0  0  0  0  0  0  0  0  0  0  0  0
   38.9590   24.7280   34.0430 C   0  0  0  0  0  0  0  0  0  0  0  0
   40.2590   24.4900   34.2720 N   0  0  0  0  0  0  0  0  0  0  0  0
   35.3670   20.3530   32.2060 S   0  0  0  0  0  0  0  0  0  0  0  0
   35.8040   19.7760   30.8880 O   0  0  0  0  0  0  0  0  0  0  0  0
   35.3390   19.3010   33.2600 O   0  0  0  0  0  0  0  0  0  0  0  0
   35.5060   23.2720   30.9750 C   0  0  0  0  0  0  0  0  0  0  0  0
   35.2450   24.7540   31.1170 C   0  0  0  0  0  0  0  0  0  0  0  0
   37.2181   24.7737   32.0344 H   0  0  0  0  0  0  0  0  0  0  0  0
   38.7496   22.2307   35.0864 H   0  0  0  0  0  0  0  0  0  0  0  0
   37.2466   20.4014   34.3420 H   0  0  0  0  0  0  0  0  0  0  0  0
   42.1356   25.2834   34.8503 H   0  0  0  0  0  0  0  0  0  0  0  0
   41.2349   27.6152   35.1657 H   0  0  0  0  0  0  0  0  0  0  0  0
   38.7817   28.0104   34.7268 H   0  0  0  0  0  0  0  0  0  0  0  0
   34.1138   20.8634   31.9918 H   0  0  0  0  0  0  0  0  0  0  0  0
   34.5510   22.7267   31.0000 H   0  0  0  0  0  0  0  0  0  0  0  0
   36.0123   23.0770   30.0181 H   0  0  0  0  0  0  0  0  0  0  0  0
   35.1986   25.0176   32.1840 H   0  0  0  0  0  0  0  0  0  0  0  0
   36.0578   25.3173   30.6352 H   0  0  0  0  0  0  0  0  0  0  0  0
   34.2887   25.0057   30.6352 H   0  0  0  0  0  0  0  0  0  0  0  0
  1  6  2  0
  2  3  2  0
  2  1  1  0
  3  4  1  0
  4 11  1  0
  4  5  2  0
  6  5  1  0
  7  8  2  0
  9  8  1  0
 10  9  2  0
 11 10  1  0
 11 12  2  0
 12  7  1  0
 13  1  1  0
 13 15  2  0
 14 13  2  0
 16 17  1  0
 16  2  1  0
  3 18  1  0
  5 19  1  0
  6 20  1  0
  7 21  1  0
  8 22  1  0
  9 23  1  0
 13 24  1  0
 16 25  1  0
 16 26  1  0
 17 27  1  0
 17 28  1  0
 17 29  1  0
M  ISO  8  18  14  19  14  20  14  21  14  22  14  23  14  24  11  25   8
M  ISO  4  26   8  27   8  28   8  29   8
M  END
>  <minimizedAffinity>  (1) 
-3.95449233

>  <minimizedRMSD>  (1) 
3.64371777

$$$$
