
     RDKit          3D

 31 33  0  0  0  0  0  0  0  0999 V2000
   38.7650   21.6330   31.7600 C   0  0  0  0  0  0  0  0  0  0  0  0
   37.5980   21.5610   32.4930 C   0  0  0  0  0  0  0  0  0  0  0  0
   37.6810   21.8990   33.8250 C   0  0  0  0  0  0  0  0  0  0  0  0
   38.8270   22.2920   34.4470 C   0  0  0  0  0  0  0  0  0  0  0  0
   39.9720   22.3490   33.6700 C   0  0  0  0  0  0  0  0  0  0  0  0
   39.9700   22.0240   32.3200 C   0  0  0  0  0  0  0  0  0  0  0  0
   39.9290   22.8110   37.9090 C   0  0  0  0  0  0  0  0  0  0  0  0
   38.7740   23.3000   38.5240 C   0  0  0  0  0  0  0  0  0  0  0  0
   37.6360   23.4450   37.7460 C   0  0  0  0  0  0  0  0  0  0  0  0
   37.6840   23.1080   36.4230 N   0  0  0  0  0  0  0  0  0  0  0  0
   38.8350   22.6370   35.8710 C   0  0  0  0  0  0  0  0  0  0  0  0
   39.9520   22.4830   36.5900 N   0  0  0  0  0  0  0  0  0  0  0  0
   38.7100   21.2180   30.0810 S   0  0  0  0  0  0  0  0  0  0  0  0
   39.3130   22.2820   29.2060 O   0  0  0  0  0  0  0  0  0  0  0  0
   39.4070   19.8940   29.9260 O   0  0  0  0  0  0  0  0  0  0  0  0
   36.0350   21.0590   31.8180 S   0  0  0  0  0  0  0  0  0  0  0  0
   35.9860   19.2720   31.8490 C   0  0  0  0  0  0  0  0  0  0  0  0
   35.2670   18.5080   32.7700 C   0  0  0  0  0  0  0  0  0  0  0  0
   35.5150   17.1950   32.4230 C   0  0  0  0  0  0  0  0  0  0  0  0
   36.3450   17.2130   31.3450 C   0  0  0  0  0  0  0  0  0  0  0  0
   36.5930   18.4640   31.0440 O   0  0  0  0  0  0  0  0  0  0  0  0
   36.7613   21.8483   34.4263 H   0  0  0  0  0  0  0  0  0  0  0  0
   40.9163   22.6628   34.1388 H   0  0  0  0  0  0  0  0  0  0  0  0
   40.8897   22.0751   31.7186 H   0  0  0  0  0  0  0  0  0  0  0  0
   40.8437   22.6882   38.5076 H   0  0  0  0  0  0  0  0  0  0  0  0
   38.7678   23.5618   39.5924 H   0  0  0  0  0  0  0  0  0  0  0  0
   36.7045   23.8272   38.1890 H   0  0  0  0  0  0  0  0  0  0  0  0
   37.4079   21.1203   29.6663 H   0  0  0  0  0  0  0  0  0  0  0  0
   34.6380   18.8737   33.5950 H   0  0  0  0  0  0  0  0  0  0  0  0
   35.1160   16.3010   32.9245 H   0  0  0  0  0  0  0  0  0  0  0  0
   36.7390   16.3314   30.8182 H   0  0  0  0  0  0  0  0  0  0  0  0
  1  6  2  0
  1  2  1  0
  2  3  2  0
  3  4  1  0
  4 11  1  0
  5  4  2  0
  6  5  1  0
  7  8  2  0
  9  8  1  0
 10  9  2  0
 11 10  1  0
 11 12  2  0
 12  7  1  0
 13  1  1  0
 14 13  2  0
 15 13  2  0
 16 17  1  0
 16  2  1  0
 17 18  2  0
 19 18  1  0
 20 19  2  0
 21 20  1  0
 21 17  1  0
  3 22  1  0
  5 23  1  0
  6 24  1  0
  7 25  1  0
  8 26  1  0
  9 27  1  0
 13 28  1  0
 18 29  1  0
 19 30  1  0
 20 31  1  0
M  ISO  8  22  14  23  14  24  14  25  14  26  14  27  14  28  11  29  14
M  ISO  2  30  14  31  14
M  END
>  <minimizedAffinity>  (1) 
-4.3422966

>  <minimizedRMSD>  (1) 
1.28932691

$$$$
