
     RDKit          3D

 40 42  0  0  0  0  0  0  0  0999 V2000
   39.0500   21.1230   31.9960 C   0  0  0  0  0  0  0  0  0  0  0  0
   37.8620   21.3060   32.6310 C   0  0  0  0  0  0  0  0  0  0  0  0
   37.8240   21.7580   33.9340 C   0  0  0  0  0  0  0  0  0  0  0  0
   38.9730   22.0410   34.6370 C   0  0  0  0  0  0  0  0  0  0  0  0
   40.1960   21.8560   33.9870 C   0  0  0  0  0  0  0  0  0  0  0  0
   40.2620   21.4030   32.6790 C   0  0  0  0  0  0  0  0  0  0  0  0
   39.8440   22.9180   38.0960 C   0  0  0  0  0  0  0  0  0  0  0  0
   38.6730   23.4800   38.5780 C   0  0  0  0  0  0  0  0  0  0  0  0
   37.6050   23.5480   37.7050 C   0  0  0  0  0  0  0  0  0  0  0  0
   37.7380   23.0730   36.4380 N   0  0  0  0  0  0  0  0  0  0  0  0
   38.9280   22.5260   36.0200 C   0  0  0  0  0  0  0  0  0  0  0  0
   39.9580   22.4490   36.8280 N   0  0  0  0  0  0  0  0  0  0  0  0
   39.1210   20.3920   30.4720 S   0  0  0  0  0  0  0  0  0  0  0  0
   38.7970   21.4980   29.4030 O   0  0  0  0  0  0  0  0  0  0  0  0
   40.4980   19.8790   30.2840 O   0  0  0  0  0  0  0  0  0  0  0  0
   36.9070   16.9420   28.6810 C   0  0  0  0  0  0  0  0  0  0  0  0
   37.7580   16.6510   29.6950 C   0  0  0  0  0  0  0  0  0  0  0  0
   38.4060   17.7520   30.2140 C   0  0  0  0  0  0  0  0  0  0  0  0
   38.2920   19.1110   29.8300 C   0  0  0  0  0  0  0  0  0  0  0  0
   37.3540   19.1790   28.7590 C   0  0  0  0  0  0  0  0  0  0  0  0
   36.6450   18.1610   28.1540 C   0  0  0  0  0  0  0  0  0  0  0  0
   36.0310   15.5830   27.9590 S   0  0  0  0  0  0  0  0  0  0  0  0
   35.3490   14.7920   29.0340 O   0  0  0  0  0  0  0  0  0  0  0  0
   35.0920   16.0250   26.8910 O   0  0  0  0  0  0  0  0  0  0  0  0
   36.3130   21.0260   31.8130 S   0  0  0  0  0  0  0  0  0  0  0  0
   35.3710   19.7060   32.5580 C   0  0  0  0  0  0  0  0  0  0  0  0
   34.1990   19.4540   31.9060 F   0  0  0  0  0  0  0  0  0  0  0  0
   36.1320   18.5390   32.4220 F   0  0  0  0  0  0  0  0  0  0  0  0
   35.2240   19.8730   33.9050 F   0  0  0  0  0  0  0  0  0  0  0  0
   36.8490   21.8959   34.4243 H   0  0  0  0  0  0  0  0  0  0  0  0
   41.1291   22.0753   34.5267 H   0  0  0  0  0  0  0  0  0  0  0  0
   41.2328   21.2635   32.1810 H   0  0  0  0  0  0  0  0  0  0  0  0
   40.7136   22.8495   38.7662 H   0  0  0  0  0  0  0  0  0  0  0  0
   38.5973   23.8551   39.6093 H   0  0  0  0  0  0  0  0  0  0  0  0
   36.6504   23.9848   38.0335 H   0  0  0  0  0  0  0  0  0  0  0  0
   37.9173   15.6292   30.0699 H   0  0  0  0  0  0  0  0  0  0  0  0
   39.1061   17.5475   31.0375 H   0  0  0  0  0  0  0  0  0  0  0  0
   37.1688   20.1862   28.3574 H   0  0  0  0  0  0  0  0  0  0  0  0
   35.9383   18.3239   27.3269 H   0  0  0  0  0  0  0  0  0  0  0  0
   36.9342   14.7629   27.3356 H   0  0  0  0  0  0  0  0  0  0  0  0
  1  2  2  0
  1  6  1  0
  2  3  1  0
  3  4  2  0
  4 11  1  0
  5  4  1  0
  6  5  2  0
  7  8  2  0
  9  8  1  0
 10  9  2  0
 11 10  1  0
 11 12  2  0
 12  7  1  0
 13  1  1  0
 14 13  2  0
 15 13  2  0
 16 17  2  0
 17 18  1  0
 19 18  2  0
 19 13  1  0
 20 19  1  0
 21 16  1  0
 21 20  2  0
 22 16  1  0
 22 23  2  0
 24 22  2  0
 25 26  1  0
 25  2  1  0
 26 29  1  0
 27 26  1  0
 28 26  1  0
  3 30  1  0
  5 31  1  0
  6 32  1  0
  7 33  1  0
  8 34  1  0
  9 35  1  0
 17 36  1  0
 18 37  1  0
 20 38  1  0
 21 39  1  0
 22 40  1  0
M  ISO  8  30  14  31  14  32  14  33  14  34  14  35  14  36  14  37  14
M  ISO  3  38  14  39  14  40  11
M  END
>  <minimizedAffinity>  (1) 
-4.97381401

>  <minimizedRMSD>  (1) 
2.48725724

$$$$
