
     RDKit          3D

 42 44  0  0  0  0  0  0  0  0999 V2000
   38.6980   21.1870   32.0640 C   0  0  0  0  0  0  0  0  0  0  0  0
   37.6770   20.8870   32.9370 C   0  0  0  0  0  0  0  0  0  0  0  0
   37.6970   21.3860   34.2210 C   0  0  0  0  0  0  0  0  0  0  0  0
   38.7140   22.1860   34.6650 C   0  0  0  0  0  0  0  0  0  0  0  0
   39.7500   22.4940   33.7840 C   0  0  0  0  0  0  0  0  0  0  0  0
   39.7650   22.0130   32.4930 C   0  0  0  0  0  0  0  0  0  0  0  0
   39.6800   22.9990   38.1210 C   0  0  0  0  0  0  0  0  0  0  0  0
   38.6080   23.7540   38.5700 C   0  0  0  0  0  0  0  0  0  0  0  0
   37.5680   23.9710   37.6790 C   0  0  0  0  0  0  0  0  0  0  0  0
   37.6330   23.4500   36.4250 N   0  0  0  0  0  0  0  0  0  0  0  0
   38.7220   22.7100   36.0390 C   0  0  0  0  0  0  0  0  0  0  0  0
   39.7270   22.4870   36.8660 N   0  0  0  0  0  0  0  0  0  0  0  0
   38.7900   20.4480   30.5590 S   0  0  0  0  0  0  0  0  0  0  0  0
   38.7550   21.5750   29.4850 O   0  0  0  0  0  0  0  0  0  0  0  0
   40.0960   19.7210   30.5390 O   0  0  0  0  0  0  0  0  0  0  0  0
   36.3140   17.6850   28.6580 N   0  0  0  0  0  0  0  0  0  0  0  0
   37.5180   17.0290   29.1530 C   0  0  0  0  0  0  0  0  0  0  0  0
   38.3400   17.9710   29.9170 C   0  0  0  0  0  0  0  0  0  0  0  0
   37.8110   19.4440   29.7170 C   0  0  0  0  0  0  0  0  0  0  0  0
   37.9050   19.3740   28.1760 C   0  0  0  0  0  0  0  0  0  0  0  0
   36.8080   18.5460   27.5760 C   0  0  0  0  0  0  0  0  0  0  0  0
   36.2880   19.8880   32.4370 S   0  0  0  0  0  0  0  0  0  0  0  0
   34.9430   20.8980   31.8170 C   0  0  0  0  0  0  0  0  0  0  0  0
   33.7350   20.2600   31.8720 F   0  0  0  0  0  0  0  0  0  0  0  0
   34.8220   21.9810   32.6750 F   0  0  0  0  0  0  0  0  0  0  0  0
   35.2260   21.4450   30.6070 F   0  0  0  0  0  0  0  0  0  0  0  0
   36.8743   21.1348   34.9066 H   0  0  0  0  0  0  0  0  0  0  0  0
   40.5745   23.1359   34.1277 H   0  0  0  0  0  0  0  0  0  0  0  0
   40.5891   22.2655   31.8095 H   0  0  0  0  0  0  0  0  0  0  0  0
   40.5203   22.8088   38.8049 H   0  0  0  0  0  0  0  0  0  0  0  0
   38.5833   24.1639   39.5905 H   0  0  0  0  0  0  0  0  0  0  0  0
   36.6931   24.5629   37.9858 H   0  0  0  0  0  0  0  0  0  0  0  0
   35.6401   16.9938   28.2990 H   0  0  0  0  0  0  0  0  0  0  0  0
   37.2312   16.1893   29.8031 H   0  0  0  0  0  0  0  0  0  0  0  0
   38.1014   16.6632   28.2952 H   0  0  0  0  0  0  0  0  0  0  0  0
   38.2937   17.7103   30.9847 H   0  0  0  0  0  0  0  0  0  0  0  0
   39.3788   17.9116   29.5601 H   0  0  0  0  0  0  0  0  0  0  0  0
   36.8320   19.8033   30.0670 H   0  0  0  0  0  0  0  0  0  0  0  0
   37.8398   20.3946   27.7709 H   0  0  0  0  0  0  0  0  0  0  0  0
   38.8637   18.9000   27.9185 H   0  0  0  0  0  0  0  0  0  0  0  0
   36.0004   19.1933   27.2035 H   0  0  0  0  0  0  0  0  0  0  0  0
   37.1704   17.9537   26.7229 H   0  0  0  0  0  0  0  0  0  0  0  0
  1  6  1  0
  1  2  2  0
  2  3  1  0
  3  4  2  0
  4 11  1  0
  5  4  1  0
  6  5  2  0
  7  8  2  0
  9  8  1  0
 10  9  2  0
 11 10  1  0
 11 12  2  0
 12  7  1  0
 13  1  1  0
 14 13  2  0
 15 13  2  0
 16 17  1  0
 17 18  1  0
 19 18  1  0
 19 13  1  0
 20 19  1  0
 21 20  1  0
 21 16  1  0
 22  2  1  0
 23 24  1  0
 23 22  1  0
 23 25  1  0
 26 23  1  0
  3 27  1  0
  5 28  1  0
  6 29  1  0
  7 30  1  0
  8 31  1  0
  9 32  1  0
 16 33  1  0
 17 34  1  0
 17 35  1  0
 18 36  1  0
 18 37  1  0
 19 38  1  0
 20 39  1  0
 20 40  1  0
 21 41  1  0
 21 42  1  0
M  ISO  8  27  14  28  14  29  14  30  14  31  14  32  14  33   5  34  13
M  ISO  8  35  13  36  13  37  13  38  13  39  13  40  13  41  13  42  13
M  END
>  <minimizedAffinity>  (1) 
-4.81262779

>  <minimizedRMSD>  (1) 
1.4983294

$$$$
