
     RDKit          3D

 37 39  0  0  0  0  0  0  0  0999 V2000
   39.0810   20.9040   31.6410 C   0  0  0  0  0  0  0  0  0  0  0  0
   37.9090   20.9000   32.3330 C   0  0  0  0  0  0  0  0  0  0  0  0
   37.8560   21.3870   33.6150 C   0  0  0  0  0  0  0  0  0  0  0  0
   38.9640   21.8970   34.2510 C   0  0  0  0  0  0  0  0  0  0  0  0
   40.1710   21.9040   33.5450 C   0  0  0  0  0  0  0  0  0  0  0  0
   40.2590   21.4190   32.2490 C   0  0  0  0  0  0  0  0  0  0  0  0
   39.7390   22.7720   37.7360 C   0  0  0  0  0  0  0  0  0  0  0  0
   38.6050   23.4660   38.1360 C   0  0  0  0  0  0  0  0  0  0  0  0
   37.5970   23.6220   37.2070 C   0  0  0  0  0  0  0  0  0  0  0  0
   37.7540   23.0990   35.9630 N   0  0  0  0  0  0  0  0  0  0  0  0
   38.8970   22.4230   35.6190 C   0  0  0  0  0  0  0  0  0  0  0  0
   39.8680   22.2610   36.4840 N   0  0  0  0  0  0  0  0  0  0  0  0
   39.2060   20.1350   30.1390 S   0  0  0  0  0  0  0  0  0  0  0  0
   39.0590   21.2420   29.0310 O   0  0  0  0  0  0  0  0  0  0  0  0
   40.5430   19.5050   30.0660 O   0  0  0  0  0  0  0  0  0  0  0  0
   38.3250   18.9140   29.4530 C   0  0  0  0  0  0  0  0  0  0  0  0
   37.4380   19.0260   28.3550 C   0  0  0  0  0  0  0  0  0  0  0  0
   36.6660   18.0460   27.7660 C   0  0  0  0  0  0  0  0  0  0  0  0
   36.8000   16.8220   28.3440 C   0  0  0  0  0  0  0  0  0  0  0  0
   37.5830   16.4910   29.3960 C   0  0  0  0  0  0  0  0  0  0  0  0
   38.3050   17.5570   29.8940 C   0  0  0  0  0  0  0  0  0  0  0  0
   36.3960   20.3150   31.6070 S   0  0  0  0  0  0  0  0  0  0  0  0
   34.9490   20.9320   32.4560 C   0  0  0  0  0  0  0  0  0  0  0  0
   33.7920   20.3520   32.0220 F   0  0  0  0  0  0  0  0  0  0  0  0
   35.0720   20.5560   33.7940 F   0  0  0  0  0  0  0  0  0  0  0  0
   34.9050   22.2970   32.4660 F   0  0  0  0  0  0  0  0  0  0  0  0
   36.8959   21.3689   34.1516 H   0  0  0  0  0  0  0  0  0  0  0  0
   41.0735   22.3044   34.0300 H   0  0  0  0  0  0  0  0  0  0  0  0
   41.2151   21.4322   31.7052 H   0  0  0  0  0  0  0  0  0  0  0  0
   40.5589   22.6315   38.4557 H   0  0  0  0  0  0  0  0  0  0  0  0
   38.5139   23.8751   39.1530 H   0  0  0  0  0  0  0  0  0  0  0  0
   36.6766   24.1637   37.4706 H   0  0  0  0  0  0  0  0  0  0  0  0
   37.3530   20.0293   27.9121 H   0  0  0  0  0  0  0  0  0  0  0  0
   36.0037   18.2367   26.9087 H   0  0  0  0  0  0  0  0  0  0  0  0
   36.2034   16.0084   27.9058 H   0  0  0  0  0  0  0  0  0  0  0  0
   37.6389   15.4746   29.8128 H   0  0  0  0  0  0  0  0  0  0  0  0
   38.9560   17.3284   30.7507 H   0  0  0  0  0  0  0  0  0  0  0  0
  1  6  1  0
  1  2  2  0
  2  3  1  0
  3  4  2  0
  4 11  1  0
  5  4  1  0
  6  5  2  0
  7  8  2  0
  9  8  1  0
 10  9  2  0
 11 10  1  0
 11 12  2  0
 12  7  1  0
 13  1  1  0
 14 13  2  0
 15 13  2  0
 16 21  1  0
 16 13  1  0
 17 16  2  0
 18 19  2  0
 18 17  1  0
 19 20  1  0
 20 21  2  0
 22  2  1  0
 22 23  1  0
 23 26  1  0
 23 25  1  0
 24 23  1  0
  3 27  1  0
  5 28  1  0
  6 29  1  0
  7 30  1  0
  8 31  1  0
  9 32  1  0
 17 33  1  0
 18 34  1  0
 19 35  1  0
 20 36  1  0
 21 37  1  0
M  ISO  8  27  14  28  14  29  14  30  14  31  14  32  14  33  14  34  14
M  ISO  3  35  14  36  14  37  14
M  END
>  <minimizedAffinity>  (1) 
-4.81282663

>  <minimizedRMSD>  (1) 
1.99912441

$$$$
