
     RDKit          3D

 56 58  0  0  0  0  0  0  0  0999 V2000
   37.7080   22.6370   36.2030 C   0  0  0  0  0  0  0  0  0  0  0  0
   37.8810   22.7330   34.7980 N   0  0  0  0  0  0  0  0  0  0  0  0
   38.2990   21.7800   33.8970 C   0  0  0  0  0  0  0  0  0  0  0  0
   38.3140   22.3230   32.6450 N   0  0  0  0  0  0  0  0  0  0  0  0
   37.9080   23.6050   32.7670 C   0  0  0  0  0  0  0  0  0  0  0  0
   37.6610   23.8120   34.0530 N   0  0  0  0  0  0  0  0  0  0  0  0
   37.7750   24.5840   31.6340 C   0  0  0  0  0  0  0  0  0  0  0  0
   36.4240   24.3060   30.9750 C   0  0  0  0  0  0  0  0  0  0  0  0
   38.8150   24.2740   30.5760 C   0  0  0  0  0  0  0  0  0  0  0  0
   37.8090   25.9920   32.1040 C   0  0  0  0  0  0  0  0  0  0  0  0
   37.8040   26.9280   31.0340 N   0  0  0  0  0  0  0  0  0  0  0  0
   38.8500   27.1060   30.2040 C   0  0  0  0  0  0  0  0  0  0  0  0
   38.7600   28.0440   29.1790 C   0  0  0  0  0  0  0  0  0  0  0  0
   37.6100   28.7850   29.0120 C   0  0  0  0  0  0  0  0  0  0  0  0
   37.7180   29.5750   28.0380 O   0  0  0  0  0  0  0  0  0  0  0  0
   36.5760   28.5850   29.8600 N   0  0  0  0  0  0  0  0  0  0  0  0
   36.6940   27.6720   30.8410 C   0  0  0  0  0  0  0  0  0  0  0  0
   35.6370   27.6160   31.5380 O   0  0  0  0  0  0  0  0  0  0  0  0
   38.6640   23.5510   36.9690 C   0  0  0  0  0  0  0  0  0  0  0  0
   41.9340   21.6950   36.9040 C   0  0  0  0  0  0  0  0  0  0  0  0
   40.6380   22.0270   37.2200 C   0  0  0  0  0  0  0  0  0  0  0  0
   40.0230   23.1570   36.6700 C   0  0  0  0  0  0  0  0  0  0  0  0
   40.7730   23.9020   35.8120 N   0  0  0  0  0  0  0  0  0  0  0  0
   42.0400   23.5700   35.5090 C   0  0  0  0  0  0  0  0  0  0  0  0
   42.6250   22.4690   36.0510 N   0  0  0  0  0  0  0  0  0  0  0  0
   42.5360   20.4890   37.5130 C   0  0  0  0  0  0  0  0  0  0  0  0
   43.1970   19.5970   36.5170 C   0  0  0  0  0  0  0  0  0  0  0  0
   38.4440   23.3400   38.4550 C   0  0  0  0  0  0  0  0  0  0  0  0
   38.3380   24.9750   36.5940 C   0  0  0  0  0  0  0  0  0  0  0  0
   37.8897   21.5969   36.5115 H   0  0  0  0  0  0  0  0  0  0  0  0
   36.6806   22.9521   36.4378 H   0  0  0  0  0  0  0  0  0  0  0  0
   38.5768   20.7453   34.1464 H   0  0  0  0  0  0  0  0  0  0  0  0
   35.6620   24.1492   31.7527 H   0  0  0  0  0  0  0  0  0  0  0  0
   36.1379   25.1641   30.3490 H   0  0  0  0  0  0  0  0  0  0  0  0
   36.4999   23.4047   30.3490 H   0  0  0  0  0  0  0  0  0  0  0  0
   39.7604   23.9922   31.0626 H   0  0  0  0  0  0  0  0  0  0  0  0
   38.4631   23.4417   29.9487 H   0  0  0  0  0  0  0  0  0  0  0  0
   38.9763   25.1631   29.9487 H   0  0  0  0  0  0  0  0  0  0  0  0
   36.9263   26.1738   32.7347 H   0  0  0  0  0  0  0  0  0  0  0  0
   38.7452   26.1327   32.6641 H   0  0  0  0  0  0  0  0  0  0  0  0
   39.7683   26.5148   30.3351 H   0  0  0  0  0  0  0  0  0  0  0  0
   39.6113   28.1945   28.4988 H   0  0  0  0  0  0  0  0  0  0  0  0
   35.7061   29.1266   29.7559 H   0  0  0  0  0  0  0  0  0  0  0  0
   40.0736   21.3920   37.9187 H   0  0  0  0  0  0  0  0  0  0  0  0
   42.6124   24.1992   34.8115 H   0  0  0  0  0  0  0  0  0  0  0  0
   43.2875   20.8074   38.2505 H   0  0  0  0  0  0  0  0  0  0  0  0
   41.7206   19.9145   37.9767 H   0  0  0  0  0  0  0  0  0  0  0  0
   43.7718   18.8213   37.0441 H   0  0  0  0  0  0  0  0  0  0  0  0
   42.4317   19.1212   35.8862 H   0  0  0  0  0  0  0  0  0  0  0  0
   43.8749   20.1907   35.8862 H   0  0  0  0  0  0  0  0  0  0  0  0
   39.1240   23.9922   39.0226 H   0  0  0  0  0  0  0  0  0  0  0  0
   37.4025   23.5856   38.7100 H   0  0  0  0  0  0  0  0  0  0  0  0
   38.6459   22.2892   38.7100 H   0  0  0  0  0  0  0  0  0  0  0  0
   38.2012   25.5726   37.5074 H   0  0  0  0  0  0  0  0  0  0  0  0
   39.1630   25.3959   36.0006 H   0  0  0  0  0  0  0  0  0  0  0  0
   37.4120   24.9951   36.0006 H   0  0  0  0  0  0  0  0  0  0  0  0
  1 19  1  0
  2  1  1  0
  3  2  1  0
  4  5  1  0
  4  3  2  0
  5  6  2  0
  6  2  1  0
  7 10  1  0
  7  5  1  0
  8  7  1  0
  9  7  1  0
 11 10  1  0
 12 11  1  0
 13 12  2  0
 14 13  1  0
 14 16  1  0
 15 14  2  0
 16 17  1  0
 17 11  1  0
 17 18  2  0
 19 28  1  0
 20 21  2  0
 20 26  1  0
 22 19  1  0
 22 21  1  0
 23 22  2  0
 24 23  1  0
 24 25  2  0
 25 20  1  0
 27 26  1  0
 29 19  1  0
  1 30  1  0
  1 31  1  0
  3 32  1  0
  8 33  1  0
  8 34  1  0
  8 35  1  0
  9 36  1  0
  9 37  1  0
  9 38  1  0
 10 39  1  0
 10 40  1  0
 12 41  1  0
 13 42  1  0
 16 43  1  0
 21 44  1  0
 24 45  1  0
 26 46  1  0
 26 47  1  0
 27 48  1  0
 27 49  1  0
 27 50  1  0
 28 51  1  0
 28 52  1  0
 28 53  1  0
 29 54  1  0
 29 55  1  0
 29 56  1  0
M  ISO  8  30   8  31   8  32  14  33   8  34   8  35   8  36   8  37   8
M  ISO  8  38   8  39   8  40   8  41  14  42  14  43   9  44  14  45  14
M  ISO  8  46   8  47   8  48   8  49   8  50   8  51   8  52   8  53   8
M  ISO  3  54   8  55   8  56   8
M  END
>  <minimizedAffinity>  (1) 
-5.5909543

>  <minimizedRMSD>  (1) 
0.798060894

$$$$
