
     RDKit          3D

 30 31  0  0  0  0  0  0  0  0999 V2000
   39.0070   21.6740   31.8460 C   0  0  0  0  0  0  0  0  0  0  0  0
   38.0610   21.1470   32.6850 C   0  0  0  0  0  0  0  0  0  0  0  0
   38.0330   21.5340   34.0000 C   0  0  0  0  0  0  0  0  0  0  0  0
   38.9210   22.4360   34.5180 C   0  0  0  0  0  0  0  0  0  0  0  0
   39.8810   22.9730   33.6660 C   0  0  0  0  0  0  0  0  0  0  0  0
   39.9540   22.6180   32.3330 C   0  0  0  0  0  0  0  0  0  0  0  0
   39.7330   22.9210   38.0720 C   0  0  0  0  0  0  0  0  0  0  0  0
   38.6450   23.6340   38.5440 C   0  0  0  0  0  0  0  0  0  0  0  0
   37.6450   23.9400   37.6350 C   0  0  0  0  0  0  0  0  0  0  0  0
   37.7710   23.5360   36.3450 N   0  0  0  0  0  0  0  0  0  0  0  0
   38.8720   22.8320   35.9330 C   0  0  0  0  0  0  0  0  0  0  0  0
   39.8360   22.5280   36.7760 N   0  0  0  0  0  0  0  0  0  0  0  0
   39.1850   21.1080   30.2760 S   0  0  0  0  0  0  0  0  0  0  0  0
   39.1640   22.3190   29.3020 O   0  0  0  0  0  0  0  0  0  0  0  0
   40.5080   20.3980   30.2420 O   0  0  0  0  0  0  0  0  0  0  0  0
   38.3250   20.1220   29.2950 C   0  0  0  0  0  0  0  0  0  0  0  0
   36.9510   19.9770   29.4700 F   0  0  0  0  0  0  0  0  0  0  0  0
   38.6630   18.7750   29.6270 F   0  0  0  0  0  0  0  0  0  0  0  0
   38.7200   19.9080   27.9540 F   0  0  0  0  0  0  0  0  0  0  0  0
   36.8270   20.0040   32.0960 S   0  0  0  0  0  0  0  0  0  0  0  0
   35.1810   20.4580   32.6510 C   0  0  0  0  0  0  0  0  0  0  0  0
   34.1950   19.7330   32.0450 F   0  0  0  0  0  0  0  0  0  0  0  0
   35.1010   20.1360   34.0010 F   0  0  0  0  0  0  0  0  0  0  0  0
   34.9830   21.8060   32.6050 F   0  0  0  0  0  0  0  0  0  0  0  0
   37.2681   21.1031   34.6628 H   0  0  0  0  0  0  0  0  0  0  0  0
   40.6025   23.7010   34.0653 H   0  0  0  0  0  0  0  0  0  0  0  0
   40.7182   23.0504   31.6704 H   0  0  0  0  0  0  0  0  0  0  0  0
   40.5426   22.6636   38.7707 H   0  0  0  0  0  0  0  0  0  0  0  0
   38.5768   23.9449   39.5969 H   0  0  0  0  0  0  0  0  0  0  0  0
   36.7573   24.5050   37.9556 H   0  0  0  0  0  0  0  0  0  0  0  0
  1  6  2  0
  1  2  1  0
  2  3  2  0
  3  4  1  0
  4 11  1  0
  5  4  2  0
  6  5  1  0
  7  8  2  0
  9  8  1  0
 10  9  2  0
 11 10  1  0
 11 12  2  0
 12  7  1  0
 13  1  1  0
 14 13  2  0
 15 13  2  0
 16 17  1  0
 16 18  1  0
 16 13  1  0
 19 16  1  0
 20 21  1  0
 20  2  1  0
 21 23  1  0
 22 21  1  0
 24 21  1  0
  3 25  1  0
  5 26  1  0
  6 27  1  0
  7 28  1  0
  8 29  1  0
  9 30  1  0
M  ISO  6  25  14  26  14  27  14  28  14  29  14  30  14
M  END
>  <minimizedAffinity>  (1) 
-4.56923437

>  <minimizedRMSD>  (1) 
1.0394479

$$$$
