
     RDKit          3D

 56 58  0  0  0  0  0  0  0  0999 V2000
   37.7200   22.6270   36.2310 C   0  0  0  0  0  0  0  0  0  0  0  0
   37.8630   22.7610   34.8170 N   0  0  0  0  0  0  0  0  0  0  0  0
   38.2930   21.8650   33.8840 C   0  0  0  0  0  0  0  0  0  0  0  0
   38.2590   22.4460   32.6470 N   0  0  0  0  0  0  0  0  0  0  0  0
   37.8060   23.7000   32.8240 C   0  0  0  0  0  0  0  0  0  0  0  0
   37.5740   23.8700   34.1360 N   0  0  0  0  0  0  0  0  0  0  0  0
   37.6110   24.6930   31.7300 C   0  0  0  0  0  0  0  0  0  0  0  0
   36.1250   25.0220   31.6660 C   0  0  0  0  0  0  0  0  0  0  0  0
   37.9950   24.0990   30.3950 C   0  0  0  0  0  0  0  0  0  0  0  0
   38.3440   25.9800   32.0050 C   0  0  0  0  0  0  0  0  0  0  0  0
   37.5090   27.0620   32.5300 C   0  0  0  0  0  0  0  0  0  0  0  0
   37.1550   27.2430   33.8700 C   0  0  0  0  0  0  0  0  0  0  0  0
   36.3800   28.2500   34.3490 C   0  0  0  0  0  0  0  0  0  0  0  0
   35.8910   29.1820   33.4520 C   0  0  0  0  0  0  0  0  0  0  0  0
   36.2010   29.0690   32.0920 C   0  0  0  0  0  0  0  0  0  0  0  0
   37.0020   28.0160   31.6480 C   0  0  0  0  0  0  0  0  0  0  0  0
   38.6780   23.5240   37.0010 C   0  0  0  0  0  0  0  0  0  0  0  0
   41.9580   21.6960   36.9020 C   0  0  0  0  0  0  0  0  0  0  0  0
   40.6560   22.0040   37.2380 C   0  0  0  0  0  0  0  0  0  0  0  0
   40.0500   23.1440   36.6870 C   0  0  0  0  0  0  0  0  0  0  0  0
   40.7710   23.9140   35.8360 N   0  0  0  0  0  0  0  0  0  0  0  0
   42.0480   23.5920   35.5210 C   0  0  0  0  0  0  0  0  0  0  0  0
   42.6330   22.4820   36.0590 N   0  0  0  0  0  0  0  0  0  0  0  0
   42.5780   20.4840   37.4980 C   0  0  0  0  0  0  0  0  0  0  0  0
   43.1750   19.5730   36.4920 C   0  0  0  0  0  0  0  0  0  0  0  0
   38.4680   23.3050   38.4790 C   0  0  0  0  0  0  0  0  0  0  0  0
   38.3450   24.9500   36.6470 C   0  0  0  0  0  0  0  0  0  0  0  0
   37.9167   21.5808   36.5079 H   0  0  0  0  0  0  0  0  0  0  0  0
   36.6953   22.9289   36.4935 H   0  0  0  0  0  0  0  0  0  0  0  0
   38.6169   20.8349   34.0938 H   0  0  0  0  0  0  0  0  0  0  0  0
   35.7248   25.1106   32.6868 H   0  0  0  0  0  0  0  0  0  0  0  0
   35.9827   25.9734   31.1325 H   0  0  0  0  0  0  0  0  0  0  0  0
   35.5944   24.2196   31.1325 H   0  0  0  0  0  0  0  0  0  0  0  0
   38.5857   23.1852   30.5565 H   0  0  0  0  0  0  0  0  0  0  0  0
   37.0852   23.8520   29.8282 H   0  0  0  0  0  0  0  0  0  0  0  0
   38.5937   24.8272   29.8282 H   0  0  0  0  0  0  0  0  0  0  0  0
   39.1365   25.7723   32.7391 H   0  0  0  0  0  0  0  0  0  0  0  0
   38.7305   26.3293   31.0362 H   0  0  0  0  0  0  0  0  0  0  0  0
   37.5354   26.5095   34.5962 H   0  0  0  0  0  0  0  0  0  0  0  0
   36.1474   28.3224   35.4217 H   0  0  0  0  0  0  0  0  0  0  0  0
   35.2599   30.0102   33.8066 H   0  0  0  0  0  0  0  0  0  0  0  0
   35.8144   29.8082   31.3749 H   0  0  0  0  0  0  0  0  0  0  0  0
   37.2391   27.9365   30.5768 H   0  0  0  0  0  0  0  0  0  0  0  0
   40.0965   21.3606   37.9330 H   0  0  0  0  0  0  0  0  0  0  0  0
   42.6173   24.2285   34.8276 H   0  0  0  0  0  0  0  0  0  0  0  0
   43.3690   20.8027   38.1928 H   0  0  0  0  0  0  0  0  0  0  0  0
   41.7778   19.9265   38.0067 H   0  0  0  0  0  0  0  0  0  0  0  0
   43.7083   18.7592   37.0051 H   0  0  0  0  0  0  0  0  0  0  0  0
   42.3786   19.1497   35.8623 H   0  0  0  0  0  0  0  0  0  0  0  0
   43.8810   20.1343   35.8623 H   0  0  0  0  0  0  0  0  0  0  0  0
   39.1201   23.9850   39.0467 H   0  0  0  0  0  0  0  0  0  0  0  0
   37.4171   23.5068   38.7339 H   0  0  0  0  0  0  0  0  0  0  0  0
   38.7137   22.2635   38.7339 H   0  0  0  0  0  0  0  0  0  0  0  0
   38.2085   25.5344   37.5689 H   0  0  0  0  0  0  0  0  0  0  0  0
   39.1663   25.3827   36.0568 H   0  0  0  0  0  0  0  0  0  0  0  0
   37.4170   24.9742   36.0568 H   0  0  0  0  0  0  0  0  0  0  0  0
  1 17  1  0
  2  1  1  0
  3  2  1  0
  4  5  1  0
  4  3  2  0
  5  6  2  0
  6  2  1  0
  7 10  1  0
  7  5  1  0
  8  7  1  0
  9  7  1  0
 10 11  1  0
 11 12  2  0
 12 13  1  0
 14 13  2  0
 15 14  1  0
 16 15  2  0
 16 11  1  0
 17 26  1  0
 18 19  2  0
 18 24  1  0
 20 17  1  0
 20 19  1  0
 21 20  2  0
 22 21  1  0
 22 23  2  0
 23 18  1  0
 25 24  1  0
 27 17  1  0
  1 28  1  0
  1 29  1  0
  3 30  1  0
  8 31  1  0
  8 32  1  0
  8 33  1  0
  9 34  1  0
  9 35  1  0
  9 36  1  0
 10 37  1  0
 10 38  1  0
 12 39  1  0
 13 40  1  0
 14 41  1  0
 15 42  1  0
 16 43  1  0
 19 44  1  0
 22 45  1  0
 24 46  1  0
 24 47  1  0
 25 48  1  0
 25 49  1  0
 25 50  1  0
 26 51  1  0
 26 52  1  0
 26 53  1  0
 27 54  1  0
 27 55  1  0
 27 56  1  0
M  ISO  8  28   8  29   8  30  14  31   8  32   8  33   8  34   8  35   8
M  ISO  8  36   8  37   8  38   8  39  14  40  14  41  14  42  14  43  14
M  ISO  8  44  14  45  14  46   8  47   8  48   8  49   8  50   8  51   8
M  ISO  5  52   8  53   8  54   8  55   8  56   8
M  END
>  <minimizedAffinity>  (1) 
-5.53696918

>  <minimizedRMSD>  (1) 
1.92114389

$$$$
