
     RDKit          3D

 33 35  0  0  0  0  0  0  0  0999 V2000
   39.8590   22.7810   37.3060 C   0  0  0  0  0  0  0  0  0  0  0  0
   39.2430   23.4170   38.4130 C   0  0  0  0  0  0  0  0  0  0  0  0
   37.8380   23.4620   38.4120 C   0  0  0  0  0  0  0  0  0  0  0  0
   37.1660   22.9060   37.3740 N   0  0  0  0  0  0  0  0  0  0  0  0
   37.7990   22.3060   36.3320 C   0  0  0  0  0  0  0  0  0  0  0  0
   39.1420   22.2450   36.3010 N   0  0  0  0  0  0  0  0  0  0  0  0
   37.0970   21.7210   35.2420 N   0  0  0  0  0  0  0  0  0  0  0  0
   37.6220   21.9570   33.9960 C   0  0  0  0  0  0  0  0  0  0  0  0
   36.9590   21.4020   32.9190 C   0  0  0  0  0  0  0  0  0  0  0  0
   35.8180   20.6470   33.1440 C   0  0  0  0  0  0  0  0  0  0  0  0
   35.2260   20.1470   32.1460 O   0  0  0  0  0  0  0  0  0  0  0  0
   35.3540   20.4510   34.3890 N   0  0  0  0  0  0  0  0  0  0  0  0
   35.9990   20.9940   35.4600 C   0  0  0  0  0  0  0  0  0  0  0  0
   35.6320   20.8590   36.6340 O   0  0  0  0  0  0  0  0  0  0  0  0
   37.5080   21.6500   31.6210 N   0  0  0  0  0  0  0  0  0  0  0  0
   37.1810   22.8660   30.9020 C   0  0  0  0  0  0  0  0  0  0  0  0
   38.4400   23.3160   30.1920 C   0  0  0  0  0  0  0  0  0  0  0  0
   39.0070   22.2870   29.4480 O   0  0  0  0  0  0  0  0  0  0  0  0
   39.4310   21.2330   30.2240 C   0  0  0  0  0  0  0  0  0  0  0  0
   38.3880   20.6260   31.1000 C   0  0  0  0  0  0  0  0  0  0  0  0
   40.9568   22.7238   37.2672 H   0  0  0  0  0  0  0  0  0  0  0  0
   39.8345   23.8533   39.2314 H   0  0  0  0  0  0  0  0  0  0  0  0
   37.2931   23.9402   39.2393 H   0  0  0  0  0  0  0  0  0  0  0  0
   38.5309   22.5617   33.8611 H   0  0  0  0  0  0  0  0  0  0  0  0
   34.5050   19.8865   34.5355 H   0  0  0  0  0  0  0  0  0  0  0  0
   36.3848   22.6684   30.1692 H   0  0  0  0  0  0  0  0  0  0  0  0
   36.8214   23.6438   31.5917 H   0  0  0  0  0  0  0  0  0  0  0  0
   38.1906   24.1482   29.5172 H   0  0  0  0  0  0  0  0  0  0  0  0
   39.1691   23.6305   30.9533 H   0  0  0  0  0  0  0  0  0  0  0  0
   39.8101   20.4480   29.5531 H   0  0  0  0  0  0  0  0  0  0  0  0
   40.1958   21.6420   30.9006 H   0  0  0  0  0  0  0  0  0  0  0  0
   37.7984   19.9047   30.5151 H   0  0  0  0  0  0  0  0  0  0  0  0
   38.8809   20.1173   31.9416 H   0  0  0  0  0  0  0  0  0  0  0  0
  1  2  2  0
  3  2  1  0
  4  3  2  0
  5  4  1  0
  6  5  2  0
  6  1  1  0
  7 13  1  0
  7  5  1  0
  8  7  1  0
  9 10  1  0
  9  8  2  0
 10 12  1  0
 11 10  2  0
 12 13  1  0
 13 14  2  0
 15  9  1  0
 16 15  1  0
 17 16  1  0
 18 17  1  0
 18 19  1  0
 19 20  1  0
 20 15  1  0
  1 21  1  0
  2 22  1  0
  3 23  1  0
  8 24  1  0
 12 25  1  0
 16 26  1  0
 16 27  1  0
 17 28  1  0
 17 29  1  0
 19 30  1  0
 19 31  1  0
 20 32  1  0
 20 33  1  0
M  ISO  8  21  14  22  14  23  14  24  14  25   9  26  13  27  13  28  13
M  ISO  5  29  13  30  13  31  13  32  13  33  13
M  END
>  <minimizedAffinity>  (1) 
-5.26576614

>  <minimizedRMSD>  (1) 
0.77698952

$$$$
