
     RDKit          3D

 27 29  0  0  0  0  0  0  0  0999 V2000
   39.8560   22.7210   36.9720 C   0  0  0  0  0  0  0  0  0  0  0  0
   39.2540   23.3590   38.1000 C   0  0  0  0  0  0  0  0  0  0  0  0
   37.8540   23.3970   38.1630 C   0  0  0  0  0  0  0  0  0  0  0  0
   37.1530   22.8280   37.1520 N   0  0  0  0  0  0  0  0  0  0  0  0
   37.7490   22.2330   36.0990 C   0  0  0  0  0  0  0  0  0  0  0  0
   39.0930   22.1780   36.0040 N   0  0  0  0  0  0  0  0  0  0  0  0
   37.0140   21.6320   35.0300 N   0  0  0  0  0  0  0  0  0  0  0  0
   37.4710   21.8400   33.7710 C   0  0  0  0  0  0  0  0  0  0  0  0
   36.7930   21.2790   32.7140 C   0  0  0  0  0  0  0  0  0  0  0  0
   35.6500   20.5120   33.0070 C   0  0  0  0  0  0  0  0  0  0  0  0
   35.0150   19.9890   32.0400 O   0  0  0  0  0  0  0  0  0  0  0  0
   35.2370   20.3350   34.2740 N   0  0  0  0  0  0  0  0  0  0  0  0
   35.9220   20.8970   35.2990 C   0  0  0  0  0  0  0  0  0  0  0  0
   35.5950   20.7740   36.4940 O   0  0  0  0  0  0  0  0  0  0  0  0
   37.2370   21.4660   31.3060 C   0  0  0  0  0  0  0  0  0  0  0  0
   38.5730   21.9690   30.9630 C   0  0  0  0  0  0  0  0  0  0  0  0
   38.2940   20.5160   30.8660 C   0  0  0  0  0  0  0  0  0  0  0  0
   40.9521   22.6729   36.8935 H   0  0  0  0  0  0  0  0  0  0  0  0
   39.8698   23.8064   38.8941 H   0  0  0  0  0  0  0  0  0  0  0  0
   37.3388   23.8752   39.0092 H   0  0  0  0  0  0  0  0  0  0  0  0
   38.3708   22.4484   33.5972 H   0  0  0  0  0  0  0  0  0  0  0  0
   34.3972   19.7704   34.4661 H   0  0  0  0  0  0  0  0  0  0  0  0
   36.2333   21.7861   30.9896 H   0  0  0  0  0  0  0  0  0  0  0  0
   38.7175   22.5620   30.0479 H   0  0  0  0  0  0  0  0  0  0  0  0
   39.3271   22.5801   31.4807 H   0  0  0  0  0  0  0  0  0  0  0  0
   38.2255   20.0315   29.8808 H   0  0  0  0  0  0  0  0  0  0  0  0
   38.7470   19.6031   31.2801 H   0  0  0  0  0  0  0  0  0  0  0  0
  1  2  2  0
  2  3  1  0
  4  3  2  0
  5  4  1  0
  6  5  2  0
  6  1  1  0
  7 13  1  0
  7  5  1  0
  8  7  1  0
  9 10  1  0
  9  8  2  0
 10 12  1  0
 11 10  2  0
 12 13  1  0
 13 14  2  0
 15  9  1  0
 16 15  1  0
 17 16  1  0
 17 15  1  0
  1 18  1  0
  2 19  1  0
  3 20  1  0
  8 21  1  0
 12 22  1  0
 15 23  1  0
 16 24  1  0
 16 25  1  0
 17 26  1  0
 17 27  1  0
M  ISO  8  18  14  19  14  20  14  21  14  22   9  23  13  24  13  25  13
M  ISO  2  26  13  27  13
M  END
>  <minimizedAffinity>  (1) 
-4.98440456

>  <minimizedRMSD>  (1) 
0.482868135

$$$$
