
     RDKit          3D

 27 29  0  0  0  0  0  0  0  0999 V2000
   39.8500   22.7260   37.5160 C   0  0  0  0  0  0  0  0  0  0  0  0
   39.1990   23.5200   38.4840 C   0  0  0  0  0  0  0  0  0  0  0  0
   37.8150   23.6810   38.3380 C   0  0  0  0  0  0  0  0  0  0  0  0
   37.1630   23.0830   37.2950 N   0  0  0  0  0  0  0  0  0  0  0  0
   37.8440   22.3320   36.3980 C   0  0  0  0  0  0  0  0  0  0  0  0
   39.1750   22.1550   36.5060 N   0  0  0  0  0  0  0  0  0  0  0  0
   37.1900   21.6960   35.2990 N   0  0  0  0  0  0  0  0  0  0  0  0
   37.8270   21.7800   34.0960 C   0  0  0  0  0  0  0  0  0  0  0  0
   37.2140   21.1720   33.0130 C   0  0  0  0  0  0  0  0  0  0  0  0
   36.0040   20.5180   33.2010 C   0  0  0  0  0  0  0  0  0  0  0  0
   35.4460   19.9610   32.2010 O   0  0  0  0  0  0  0  0  0  0  0  0
   35.4270   20.4690   34.4060 N   0  0  0  0  0  0  0  0  0  0  0  0
   36.0210   21.0630   35.4740 C   0  0  0  0  0  0  0  0  0  0  0  0
   35.5450   21.0630   36.6360 O   0  0  0  0  0  0  0  0  0  0  0  0
   37.8060   21.2080   31.7160 N   0  0  0  0  0  0  0  0  0  0  0  0
   37.9100   22.4070   31.1230 N   0  0  0  0  0  0  0  0  0  0  0  0
   38.4720   22.3180   29.9280 C   0  0  0  0  0  0  0  0  0  0  0  0
   38.7370   20.9840   29.7610 C   0  0  0  0  0  0  0  0  0  0  0  0
   38.3230   20.2980   30.8690 C   0  0  0  0  0  0  0  0  0  0  0  0
   40.9365   22.5713   37.5909 H   0  0  0  0  0  0  0  0  0  0  0  0
   39.7507   23.9891   39.3120 H   0  0  0  0  0  0  0  0  0  0  0  0
   37.2526   24.2885   39.0624 H   0  0  0  0  0  0  0  0  0  0  0  0
   38.7863   22.3079   33.9904 H   0  0  0  0  0  0  0  0  0  0  0  0
   34.5288   19.9791   34.5252 H   0  0  0  0  0  0  0  0  0  0  0  0
   38.6807   23.1361   29.2230 H   0  0  0  0  0  0  0  0  0  0  0  0
   39.2089   20.5353   28.8744 H   0  0  0  0  0  0  0  0  0  0  0  0
   38.3978   19.2133   31.0359 H   0  0  0  0  0  0  0  0  0  0  0  0
  1  2  2  0
  3  2  1  0
  4  3  2  0
  5  6  2  0
  5  4  1  0
  6  1  1  0
  7 13  1  0
  7  5  1  0
  8  7  1  0
  9 10  1  0
  9  8  2  0
 10 12  1  0
 11 10  2  0
 12 13  1  0
 13 14  2  0
 15  9  1  0
 16 15  1  0
 17 16  2  0
 18 17  1  0
 18 19  2  0
 19 15  1  0
  1 20  1  0
  2 21  1  0
  3 22  1  0
  8 23  1  0
 12 24  1  0
 17 25  1  0
 18 26  1  0
 19 27  1  0
M  ISO  8  20  14  21  14  22  14  23  14  24   9  25  14  26  14  27  14
M  END
>  <minimizedAffinity>  (1) 
-4.89929771

>  <minimizedRMSD>  (1) 
0.383768052

$$$$
