
     RDKit          3D

 27 29  0  0  0  0  0  0  0  0999 V2000
   39.8540   22.7240   37.4770 C   0  0  0  0  0  0  0  0  0  0  0  0
   39.1950   23.5070   38.4530 C   0  0  0  0  0  0  0  0  0  0  0  0
   37.8120   23.6630   38.3210 C   0  0  0  0  0  0  0  0  0  0  0  0
   37.1690   23.0660   37.2780 N   0  0  0  0  0  0  0  0  0  0  0  0
   37.8430   22.3190   36.3600 C   0  0  0  0  0  0  0  0  0  0  0  0
   39.1790   22.1490   36.4610 N   0  0  0  0  0  0  0  0  0  0  0  0
   37.1990   21.6870   35.2680 N   0  0  0  0  0  0  0  0  0  0  0  0
   37.8310   21.7650   34.0680 C   0  0  0  0  0  0  0  0  0  0  0  0
   37.2150   21.1520   32.9850 C   0  0  0  0  0  0  0  0  0  0  0  0
   36.0050   20.4990   33.1680 C   0  0  0  0  0  0  0  0  0  0  0  0
   35.4600   19.9480   32.1770 O   0  0  0  0  0  0  0  0  0  0  0  0
   35.4250   20.4560   34.3920 N   0  0  0  0  0  0  0  0  0  0  0  0
   36.0270   21.0550   35.4490 C   0  0  0  0  0  0  0  0  0  0  0  0
   35.5470   21.0540   36.6040 O   0  0  0  0  0  0  0  0  0  0  0  0
   37.8270   21.1890   31.6600 C   0  0  0  0  0  0  0  0  0  0  0  0
   38.0460   22.3350   30.9250 C   0  0  0  0  0  0  0  0  0  0  0  0
   38.6410   21.9760   29.7290 C   0  0  0  0  0  0  0  0  0  0  0  0
   38.7710   20.6190   29.7590 N   0  0  0  0  0  0  0  0  0  0  0  0
   38.2810   20.1760   30.9170 N   0  0  0  0  0  0  0  0  0  0  0  0
   40.9423   22.5807   37.5482 H   0  0  0  0  0  0  0  0  0  0  0  0
   39.7476   23.9739   39.2816 H   0  0  0  0  0  0  0  0  0  0  0  0
   37.2483   24.2616   39.0517 H   0  0  0  0  0  0  0  0  0  0  0  0
   38.7905   22.2917   33.9588 H   0  0  0  0  0  0  0  0  0  0  0  0
   34.5268   19.9683   34.5194 H   0  0  0  0  0  0  0  0  0  0  0  0
   37.7913   23.3588   31.2363 H   0  0  0  0  0  0  0  0  0  0  0  0
   38.9480   22.6505   28.9161 H   0  0  0  0  0  0  0  0  0  0  0  0
   39.1783   20.0357   29.0141 H   0  0  0  0  0  0  0  0  0  0  0  0
  1  2  2  0
  3  2  1  0
  4  3  2  0
  5  6  2  0
  5  4  1  0
  6  1  1  0
  7 13  1  0
  7  5  1  0
  8  7  1  0
  9 10  1  0
  9  8  2  0
 10 12  1  0
 11 10  2  0
 12 13  1  0
 13 14  2  0
 15  9  1  0
 16 15  1  0
 17 18  1  0
 17 16  2  0
 18 19  1  0
 19 15  2  0
  1 20  1  0
  2 21  1  0
  3 22  1  0
  8 23  1  0
 12 24  1  0
 16 25  1  0
 17 26  1  0
 18 27  1  0
M  ISO  8  20  14  21  14  22  14  23  14  24   9  25  14  26  14  27   9
M  END
>  <minimizedAffinity>  (1) 
-4.91797686

>  <minimizedRMSD>  (1) 
0.434740871

$$$$
