
     RDKit          3D

 26 28  0  0  0  0  0  0  0  0999 V2000
   39.8770   22.7390   37.5070 C   0  0  0  0  0  0  0  0  0  0  0  0
   39.2110   23.5170   38.5050 C   0  0  0  0  0  0  0  0  0  0  0  0
   37.8110   23.6610   38.3820 C   0  0  0  0  0  0  0  0  0  0  0  0
   37.1750   23.0660   37.3400 N   0  0  0  0  0  0  0  0  0  0  0  0
   37.8490   22.3340   36.4120 C   0  0  0  0  0  0  0  0  0  0  0  0
   39.1770   22.1840   36.5100 N   0  0  0  0  0  0  0  0  0  0  0  0
   37.2010   21.7080   35.3200 N   0  0  0  0  0  0  0  0  0  0  0  0
   37.8260   21.7840   34.1140 C   0  0  0  0  0  0  0  0  0  0  0  0
   37.2410   21.1950   33.0190 C   0  0  0  0  0  0  0  0  0  0  0  0
   36.0140   20.5410   33.2200 C   0  0  0  0  0  0  0  0  0  0  0  0
   35.4480   19.9850   32.2190 O   0  0  0  0  0  0  0  0  0  0  0  0
   35.4280   20.4880   34.4300 N   0  0  0  0  0  0  0  0  0  0  0  0
   36.0370   21.0810   35.4820 C   0  0  0  0  0  0  0  0  0  0  0  0
   35.5570   21.0760   36.6410 O   0  0  0  0  0  0  0  0  0  0  0  0
   37.8710   21.2450   31.6840 C   0  0  0  0  0  0  0  0  0  0  0  0
   38.4090   20.0770   31.1090 C   0  0  0  0  0  0  0  0  0  0  0  0
   39.0440   20.6870   29.5010 S   0  0  0  0  0  0  0  0  0  0  0  0
   38.4580   22.4500   29.8960 C   0  0  0  0  0  0  0  0  0  0  0  0
   37.9770   22.3380   30.9500 N   0  0  0  0  0  0  0  0  0  0  0  0
   40.9665   22.5963   37.5586 H   0  0  0  0  0  0  0  0  0  0  0  0
   39.7650   23.9834   39.3330 H   0  0  0  0  0  0  0  0  0  0  0  0
   37.2438   24.2471   39.1201 H   0  0  0  0  0  0  0  0  0  0  0  0
   38.7871   22.3101   34.0167 H   0  0  0  0  0  0  0  0  0  0  0  0
   34.5280   20.0025   34.5534 H   0  0  0  0  0  0  0  0  0  0  0  0
   38.4402   19.0573   31.5205 H   0  0  0  0  0  0  0  0  0  0  0  0
   38.5506   23.3560   29.2791 H   0  0  0  0  0  0  0  0  0  0  0  0
  1  2  2  0
  3  2  1  0
  4  3  2  0
  5  6  2  0
  5  4  1  0
  6  1  1  0
  7 13  1  0
  7  5  1  0
  8  7  1  0
  9 10  1  0
  9  8  2  0
 10 12  1  0
 11 10  2  0
 12 13  1  0
 13 14  2  0
 15  9  1  0
 16 15  2  0
 17 18  1  0
 17 16  1  0
 18 19  2  0
 19 15  1  0
  1 20  1  0
  2 21  1  0
  3 22  1  0
  8 23  1  0
 12 24  1  0
 16 25  1  0
 18 26  1  0
M  ISO  7  20  14  21  14  22  14  23  14  24   9  25  14  26  14
M  END
>  <minimizedAffinity>  (1) 
-4.85401726

>  <minimizedRMSD>  (1) 
0.312063187

$$$$
