
     RDKit          3D

 25 26  0  0  0  0  0  0  0  0999 V2000
   39.7720   22.8140   37.9080 C   0  0  0  0  0  0  0  0  0  0  0  0
   39.0370   23.5740   38.8250 C   0  0  0  0  0  0  0  0  0  0  0  0
   37.8790   24.1950   38.3340 C   0  0  0  0  0  0  0  0  0  0  0  0
   37.5190   24.0400   37.0140 N   0  0  0  0  0  0  0  0  0  0  0  0
   38.2770   23.2940   36.1930 C   0  0  0  0  0  0  0  0  0  0  0  0
   39.3820   22.6890   36.6180 N   0  0  0  0  0  0  0  0  0  0  0  0
   37.9100   23.1130   34.7690 C   0  0  0  0  0  0  0  0  0  0  0  0
   37.6190   21.7300   34.4960 N   0  0  0  0  0  0  0  0  0  0  0  0
   36.4710   21.2310   35.1800 C   0  0  0  0  0  0  0  0  0  0  0  0
   35.5900   20.5620   34.1640 C   0  0  0  0  0  0  0  0  0  0  0  0
   35.9370   21.3220   32.8980 C   0  0  0  0  0  0  0  0  0  0  0  0
   37.4260   21.5390   33.0890 C   0  0  0  0  0  0  0  0  0  0  0  0
   40.6883   22.3063   38.2436 H   0  0  0  0  0  0  0  0  0  0  0  0
   39.3505   23.6787   39.8742 H   0  0  0  0  0  0  0  0  0  0  0  0
   37.2576   24.8067   39.0045 H   0  0  0  0  0  0  0  0  0  0  0  0
   37.0216   23.7213   34.5439 H   0  0  0  0  0  0  0  0  0  0  0  0
   38.7553   23.4298   34.1404 H   0  0  0  0  0  0  0  0  0  0  0  0
   36.7779   20.5042   35.9465 H   0  0  0  0  0  0  0  0  0  0  0  0
   35.9321   22.0507   35.6776 H   0  0  0  0  0  0  0  0  0  0  0  0
   35.8312   19.4931   34.0675 H   0  0  0  0  0  0  0  0  0  0  0  0
   34.5201   20.5881   34.4183 H   0  0  0  0  0  0  0  0  0  0  0  0
   35.3941   22.2768   32.8385 H   0  0  0  0  0  0  0  0  0  0  0  0
   35.6709   20.7986   31.9678 H   0  0  0  0  0  0  0  0  0  0  0  0
   37.9882   20.6596   32.7418 H   0  0  0  0  0  0  0  0  0  0  0  0
   37.7849   22.4038   32.5116 H   0  0  0  0  0  0  0  0  0  0  0  0
  1  2  2  0
  3  2  1  0
  4  3  2  0
  5  6  2  0
  5  4  1  0
  6  1  1  0
  7  5  1  0
  8  7  1  0
  8  9  1  0
 10  9  1  0
 11 12  1  0
 11 10  1  0
 12  8  1  0
  1 13  1  0
  2 14  1  0
  3 15  1  0
  7 16  1  0
  7 17  1  0
  9 18  1  0
  9 19  1  0
 10 20  1  0
 10 21  1  0
 11 22  1  0
 11 23  1  0
 12 24  1  0
 12 25  1  0
M  ISO  8  13  14  14  14  15  14  16   8  17   8  18  13  19  13  20  13
M  ISO  5  21  13  22  13  23  13  24  13  25  13
M  END
>  <minimizedAffinity>  (1) 
-3.60723734

>  <minimizedRMSD>  (1) 
0.984843194

$$$$
