
     RDKit          3D

 23 24  0  0  0  0  0  0  0  0999 V2000
   38.3930   21.9130   34.3730 C   0  0  0  0  0  0  0  0  0  0  0  0
   39.9390   22.8100   37.5650 C   0  0  0  0  0  0  0  0  0  0  0  0
   38.8780   23.2920   38.3450 C   0  0  0  0  0  0  0  0  0  0  0  0
   37.6120   23.3030   37.7510 C   0  0  0  0  0  0  0  0  0  0  0  0
   37.4780   22.8520   36.4630 N   0  0  0  0  0  0  0  0  0  0  0  0
   38.5320   22.4020   35.7660 C   0  0  0  0  0  0  0  0  0  0  0  0
   39.7620   22.3750   36.3010 N   0  0  0  0  0  0  0  0  0  0  0  0
   37.7570   22.9600   33.5200 C   0  0  0  0  0  0  0  0  0  0  0  0
   38.0830   24.3050   33.6170 C   0  0  0  0  0  0  0  0  0  0  0  0
   37.4410   25.2230   32.7810 C   0  0  0  0  0  0  0  0  0  0  0  0
   36.4900   24.8470   31.8570 C   0  0  0  0  0  0  0  0  0  0  0  0
   36.1590   23.5010   31.7540 C   0  0  0  0  0  0  0  0  0  0  0  0
   36.7980   22.6030   32.5830 C   0  0  0  0  0  0  0  0  0  0  0  0
   39.3884   21.6724   33.9714 H   0  0  0  0  0  0  0  0  0  0  0  0
   37.7593   21.0139   34.3699 H   0  0  0  0  0  0  0  0  0  0  0  0
   40.9496   22.7860   37.9988 H   0  0  0  0  0  0  0  0  0  0  0  0
   39.0341   23.6447   39.3752 H   0  0  0  0  0  0  0  0  0  0  0  0
   36.7369   23.6680   38.3086 H   0  0  0  0  0  0  0  0  0  0  0  0
   38.8369   24.6446   34.3424 H   0  0  0  0  0  0  0  0  0  0  0  0
   37.7052   26.2876   32.8638 H   0  0  0  0  0  0  0  0  0  0  0  0
   36.0034   25.5960   31.2149 H   0  0  0  0  0  0  0  0  0  0  0  0
   35.4055   23.1602   31.0287 H   0  0  0  0  0  0  0  0  0  0  0  0
   36.5312   21.5394   32.4961 H   0  0  0  0  0  0  0  0  0  0  0  0
  1  6  1  0
  2  3  2  0
  4  3  1  0
  5  4  2  0
  6  7  2  0
  6  5  1  0
  7  2  1  0
  8  9  2  0
  8  1  1  0
 10  9  1  0
 11 10  2  0
 12 11  1  0
 12 13  2  0
 13  8  1  0
  1 14  1  0
  1 15  1  0
  2 16  1  0
  3 17  1  0
  4 18  1  0
  9 19  1  0
 10 20  1  0
 11 21  1  0
 12 22  1  0
 13 23  1  0
M  ISO  8  14   8  15   8  16  14  17  14  18  14  19  14  20  14  21  14
M  ISO  2  22  14  23  14
M  END
>  <minimizedAffinity>  (1) 
-3.74884844

>  <minimizedRMSD>  (1) 
0.990151286

$$$$
