
     RDKit          3D

 20 21  0  0  0  0  0  0  0  0999 V2000
   38.6640   23.3560   38.5600 C   0  0  0  0  0  0  0  0  0  0  0  0
   37.8380   24.3000   37.9330 C   0  0  0  0  0  0  0  0  0  0  0  0
   38.1820   24.6840   36.6250 C   0  0  0  0  0  0  0  0  0  0  0  0
   39.2880   24.1230   36.0450 N   0  0  0  0  0  0  0  0  0  0  0  0
   40.0450   23.2240   36.6910 C   0  0  0  0  0  0  0  0  0  0  0  0
   39.7430   22.8340   37.9460 N   0  0  0  0  0  0  0  0  0  0  0  0
   41.2470   22.6130   36.0630 C   0  0  0  0  0  0  0  0  0  0  0  0
   42.3700   23.5720   35.9340 C   0  0  0  0  0  0  0  0  0  0  0  0
   43.6040   23.3390   36.4930 C   0  0  0  0  0  0  0  0  0  0  0  0
   44.4030   24.4020   36.1930 N   0  0  0  0  0  0  0  0  0  0  0  0
   43.6790   25.2910   35.4570 C   0  0  0  0  0  0  0  0  0  0  0  0
   42.4560   24.7610   35.3190 N   0  0  0  0  0  0  0  0  0  0  0  0
   38.4235   23.0324   39.5834 H   0  0  0  0  0  0  0  0  0  0  0  0
   36.9590   24.7218   38.4425 H   0  0  0  0  0  0  0  0  0  0  0  0
   37.5746   25.4205   36.0785 H   0  0  0  0  0  0  0  0  0  0  0  0
   41.5762   21.7656   36.6823 H   0  0  0  0  0  0  0  0  0  0  0  0
   40.9664   22.2889   35.0500 H   0  0  0  0  0  0  0  0  0  0  0  0
   43.8946   22.4536   37.0775 H   0  0  0  0  0  0  0  0  0  0  0  0
   44.0291   26.2534   35.0555 H   0  0  0  0  0  0  0  0  0  0  0  0
   41.6823   25.2086   34.8071 H   0  0  0  0  0  0  0  0  0  0  0  0
  2  1  2  0
  3  2  1  0
  4  3  2  0
  4  5  1  0
  5  6  2  0
  6  1  1  0
  7  5  1  0
  8  7  1  0
  8  9  2  0
 10  9  1  0
 11 10  2  0
 12 11  1  0
 12  8  1  0
  1 13  1  0
  2 14  1  0
  3 15  1  0
  7 16  1  0
  7 17  1  0
  9 18  1  0
 11 19  1  0
 12 20  1  0
M  ISO  8  13  14  14  14  15  14  16   8  17   8  18  14  19  14  20   9
M  END
>  <minimizedAffinity>  (1) 
-3.33571959

>  <minimizedRMSD>  (1) 
5.66290617

$$$$
