
     RDKit          3D

 29 31  0  0  0  0  0  0  0  0999 V2000
   37.6960   27.1560   35.4420 C   0  0  0  0  0  0  0  0  0  0  0  0
   38.9810   26.4680   35.2270 C   0  0  0  0  0  0  0  0  0  0  0  0
   40.0860   27.0380   34.6540 C   0  0  0  0  0  0  0  0  0  0  0  0
   41.2450   26.3300   34.4900 C   0  0  0  0  0  0  0  0  0  0  0  0
   41.3520   25.0080   34.8960 C   0  0  0  0  0  0  0  0  0  0  0  0
   40.2380   24.4210   35.4780 C   0  0  0  0  0  0  0  0  0  0  0  0
   40.3390   23.1020   35.8850 C   0  0  0  0  0  0  0  0  0  0  0  0
   39.2620   22.4670   36.4700 C   0  0  0  0  0  0  0  0  0  0  0  0
   38.0870   23.1620   36.6440 C   0  0  0  0  0  0  0  0  0  0  0  0
   38.0100   24.4740   36.2310 C   0  0  0  0  0  0  0  0  0  0  0  0
   39.0730   25.1550   35.6350 C   0  0  0  0  0  0  0  0  0  0  0  0
   35.5720   28.8840   33.0100 C   0  0  0  0  0  0  0  0  0  0  0  0
   35.5380   28.0240   31.9080 C   0  0  0  0  0  0  0  0  0  0  0  0
   36.2680   26.8110   32.0040 C   0  0  0  0  0  0  0  0  0  0  0  0
   36.9590   26.5510   33.1570 N   0  0  0  0  0  0  0  0  0  0  0  0
   36.9540   27.4160   34.1820 C   0  0  0  0  0  0  0  0  0  0  0  0
   36.2750   28.5800   34.1350 N   0  0  0  0  0  0  0  0  0  0  0  0
   37.0691   26.5302   36.0942 H   0  0  0  0  0  0  0  0  0  0  0  0
   37.9198   28.1321   35.8971 H   0  0  0  0  0  0  0  0  0  0  0  0
   40.0411   28.0849   34.3192 H   0  0  0  0  0  0  0  0  0  0  0  0
   42.1127   26.8208   34.0251 H   0  0  0  0  0  0  0  0  0  0  0  0
   42.2873   24.4449   34.7612 H   0  0  0  0  0  0  0  0  0  0  0  0
   41.2833   22.5564   35.7414 H   0  0  0  0  0  0  0  0  0  0  0  0
   39.3419   21.4186   36.7931 H   0  0  0  0  0  0  0  0  0  0  0  0
   37.2173   22.6744   37.1086 H   0  0  0  0  0  0  0  0  0  0  0  0
   37.0623   25.0127   36.3784 H   0  0  0  0  0  0  0  0  0  0  0  0
   35.0155   29.8319   32.9665 H   0  0  0  0  0  0  0  0  0  0  0  0
   34.9678   28.2778   31.0022 H   0  0  0  0  0  0  0  0  0  0  0  0
   36.2785   26.0945   31.1694 H   0  0  0  0  0  0  0  0  0  0  0  0
  2  1  1  0
  2 11  1  0
  3  2  2  0
  4  3  1  0
  4  5  2  0
  5  6  1  0
  6 11  2  0
  6  7  1  0
  7  8  2  0
  8  9  1  0
 10  9  2  0
 11 10  1  0
 12 17  2  0
 13 14  2  0
 13 12  1  0
 14 15  1  0
 15 16  2  0
 16  1  1  0
 17 16  1  0
  1 18  1  0
  1 19  1  0
  3 20  1  0
  4 21  1  0
  5 22  1  0
  7 23  1  0
  8 24  1  0
  9 25  1  0
 10 26  1  0
 12 27  1  0
 13 28  1  0
 14 29  1  0
M  ISO  8  18   8  19   8  20  14  21  14  22  14  23  14  24  14  25  14
M  ISO  4  26  14  27  14  28  14  29  14
M  END
>  <minimizedAffinity>  (1) 
-4.88824797

>  <minimizedRMSD>  (1) 
5.60822964

$$$$
