
     RDKit          3D

 15 15  0  0  0  0  0  0  0  0999 V2000
   39.9660   22.6920   37.5870 C   0  0  0  0  0  0  0  0  0  0  0  0
   39.1450   23.3080   38.5490 C   0  0  0  0  0  0  0  0  0  0  0  0
   37.8080   23.4950   38.1790 C   0  0  0  0  0  0  0  0  0  0  0  0
   37.3650   23.0890   36.9510 N   0  0  0  0  0  0  0  0  0  0  0  0
   38.2060   22.5020   36.0710 C   0  0  0  0  0  0  0  0  0  0  0  0
   39.5020   22.2950   36.3660 N   0  0  0  0  0  0  0  0  0  0  0  0
   37.7520   22.0510   34.7290 C   0  0  0  0  0  0  0  0  0  0  0  0
   37.8580   23.1060   33.7410 N   0  0  0  0  0  0  0  0  0  0  0  0
   41.0258   22.5232   37.8286 H   0  0  0  0  0  0  0  0  0  0  0  0
   39.5295   23.6229   39.5303 H   0  0  0  0  0  0  0  0  0  0  0  0
   37.1087   23.9721   38.8814 H   0  0  0  0  0  0  0  0  0  0  0  0
   38.3734   21.2012   34.4102 H   0  0  0  0  0  0  0  0  0  0  0  0
   36.6938   21.7608   34.8063 H   0  0  0  0  0  0  0  0  0  0  0  0
   37.9493   24.0146   34.2174 H   0  0  0  0  0  0  0  0  0  0  0  0
   38.6868   22.9425   33.1517 H   0  0  0  0  0  0  0  0  0  0  0  0
  1  2  2  0
  3  2  1  0
  4  3  2  0
  5  6  2  0
  5  4  1  0
  6  1  1  0
  7  5  1  0
  8  7  1  0
  1  9  1  0
  2 10  1  0
  3 11  1  0
  7 12  1  0
  7 13  1  0
  8 14  1  0
  8 15  1  0
M  ISO  7   9  14  10  14  11  14  12   8  13   8  14   5  15   5
M  END
>  <minimizedAffinity>  (1) 
-2.75725651

>  <minimizedRMSD>  (1) 
0.0278976001

$$$$
