
     RDKit          3D

 59 61  0  0  0  0  0  0  0  0999 V2000
   38.1710   22.3100   36.0940 C   0  0  0  0  0  0  0  0  0  0  0  0
   38.1980   22.4320   34.6760 N   0  0  0  0  0  0  0  0  0  0  0  0
   38.9980   21.8200   33.7620 C   0  0  0  0  0  0  0  0  0  0  0  0
   38.6570   22.2500   32.5160 N   0  0  0  0  0  0  0  0  0  0  0  0
   37.6450   23.1310   32.6570 C   0  0  0  0  0  0  0  0  0  0  0  0
   37.3830   23.2270   33.9570 N   0  0  0  0  0  0  0  0  0  0  0  0
   36.9750   23.8450   31.5320 C   0  0  0  0  0  0  0  0  0  0  0  0
   35.8080   22.9370   31.0870 C   0  0  0  0  0  0  0  0  0  0  0  0
   37.8820   23.8960   30.3270 C   0  0  0  0  0  0  0  0  0  0  0  0
   36.3790   25.1300   31.9480 C   0  0  0  0  0  0  0  0  0  0  0  0
   37.0410   26.3340   31.5870 N   0  0  0  0  0  0  0  0  0  0  0  0
   37.7120   26.7910   32.8140 C   0  0  0  0  0  0  0  0  0  0  0  0
   36.8350   27.6000   33.6960 C   0  0  0  0  0  0  0  0  0  0  0  0
   36.4350   28.7570   33.0820 O   0  0  0  0  0  0  0  0  0  0  0  0
   36.7880   28.7150   31.7420 C   0  0  0  0  0  0  0  0  0  0  0  0
   36.2210   27.4150   31.1470 C   0  0  0  0  0  0  0  0  0  0  0  0
   39.0640   23.3380   36.7910 C   0  0  0  0  0  0  0  0  0  0  0  0
   42.3030   21.4290   36.8370 C   0  0  0  0  0  0  0  0  0  0  0  0
   40.9780   21.7400   37.0480 C   0  0  0  0  0  0  0  0  0  0  0  0
   40.4650   22.9610   36.5920 C   0  0  0  0  0  0  0  0  0  0  0  0
   41.3010   23.8020   35.9500 N   0  0  0  0  0  0  0  0  0  0  0  0
   42.6030   23.4840   35.7490 C   0  0  0  0  0  0  0  0  0  0  0  0
   43.0880   22.2900   36.2000 N   0  0  0  0  0  0  0  0  0  0  0  0
   42.8180   20.1330   37.3300 C   0  0  0  0  0  0  0  0  0  0  0  0
   44.0580   19.6840   36.6390 C   0  0  0  0  0  0  0  0  0  0  0  0
   38.7750   23.3110   38.2740 C   0  0  0  0  0  0  0  0  0  0  0  0
   38.7210   24.6960   36.2330 C   0  0  0  0  0  0  0  0  0  0  0  0
   38.5153   21.3017   36.3673 H   0  0  0  0  0  0  0  0  0  0  0  0
   37.1371   22.4895   36.4238 H   0  0  0  0  0  0  0  0  0  0  0  0
   39.7923   21.0947   33.9923 H   0  0  0  0  0  0  0  0  0  0  0  0
   35.2950   22.5379   31.9744 H   0  0  0  0  0  0  0  0  0  0  0  0
   35.0973   23.5220   30.4848 H   0  0  0  0  0  0  0  0  0  0  0  0
   36.2004   22.1043   30.4848 H   0  0  0  0  0  0  0  0  0  0  0  0
   38.9292   23.9549   30.6585 H   0  0  0  0  0  0  0  0  0  0  0  0
   37.7394   22.9884   29.7221 H   0  0  0  0  0  0  0  0  0  0  0  0
   37.6385   24.7819   29.7221 H   0  0  0  0  0  0  0  0  0  0  0  0
   35.3681   25.1736   31.5165 H   0  0  0  0  0  0  0  0  0  0  0  0
   36.4373   25.1102   33.0463 H   0  0  0  0  0  0  0  0  0  0  0  0
   38.0527   25.9083   33.3751 H   0  0  0  0  0  0  0  0  0  0  0  0
   38.5489   27.4354   32.5070 H   0  0  0  0  0  0  0  0  0  0  0  0
   35.9455   27.0075   33.9561 H   0  0  0  0  0  0  0  0  0  0  0  0
   37.4051   27.8674   34.5979 H   0  0  0  0  0  0  0  0  0  0  0  0
   36.3643   29.5832   31.2160 H   0  0  0  0  0  0  0  0  0  0  0  0
   37.8821   28.7428   31.6318 H   0  0  0  0  0  0  0  0  0  0  0  0
   36.2343   27.4704   30.0485 H   0  0  0  0  0  0  0  0  0  0  0  0
   35.1823   27.2653   31.4767 H   0  0  0  0  0  0  0  0  0  0  0  0
   40.3231   21.0300   37.5743 H   0  0  0  0  0  0  0  0  0  0  0  0
   43.2673   24.1860   35.2239 H   0  0  0  0  0  0  0  0  0  0  0  0
   43.0340   20.2303   38.4042 H   0  0  0  0  0  0  0  0  0  0  0  0
   42.0435   19.3789   37.1263 H   0  0  0  0  0  0  0  0  0  0  0  0
   44.8160   19.4095   37.3875 H   0  0  0  0  0  0  0  0  0  0  0  0
   43.8313   18.8109   36.0095 H   0  0  0  0  0  0  0  0  0  0  0  0
   44.4429   20.4998   36.0095 H   0  0  0  0  0  0  0  0  0  0  0  0
   39.7182   23.3991   38.8330 H   0  0  0  0  0  0  0  0  0  0  0  0
   38.1146   24.1514   38.5342 H   0  0  0  0  0  0  0  0  0  0  0  0
   38.2817   22.3629   38.5342 H   0  0  0  0  0  0  0  0  0  0  0  0
   38.5436   25.3984   37.0607 H   0  0  0  0  0  0  0  0  0  0  0  0
   39.5554   25.0601   35.6156 H   0  0  0  0  0  0  0  0  0  0  0  0
   37.8138   24.6202   35.6156 H   0  0  0  0  0  0  0  0  0  0  0  0
  1 17  1  0
  2  1  1  0
  3  2  1  0
  4  5  1  0
  4  3  2  0
  5  6  2  0
  6  2  1  0
  7 10  1  0
  7  5  1  0
  8  7  1  0
  9  7  1  0
 11 10  1  0
 11 12  1  0
 12 13  1  0
 14 13  1  0
 15 14  1  0
 16 11  1  0
 16 15  1  0
 17 26  1  0
 18 19  2  0
 18 24  1  0
 20 17  1  0
 20 19  1  0
 21 20  2  0
 22 21  1  0
 22 23  2  0
 23 18  1  0
 25 24  1  0
 27 17  1  0
  1 28  1  0
  1 29  1  0
  3 30  1  0
  8 31  1  0
  8 32  1  0
  8 33  1  0
  9 34  1  0
  9 35  1  0
  9 36  1  0
 10 37  1  0
 10 38  1  0
 12 39  1  0
 12 40  1  0
 13 41  1  0
 13 42  1  0
 15 43  1  0
 15 44  1  0
 16 45  1  0
 16 46  1  0
 19 47  1  0
 22 48  1  0
 24 49  1  0
 24 50  1  0
 25 51  1  0
 25 52  1  0
 25 53  1  0
 26 54  1  0
 26 55  1  0
 26 56  1  0
 27 57  1  0
 27 58  1  0
 27 59  1  0
M  ISO  8  28   8  29   8  30  14  31   8  32   8  33   8  34   8  35   8
M  ISO  8  36   8  37   8  38   8  39  13  40  13  41  13  42  13  43  13
M  ISO  8  44  13  45  13  46  13  47  14  48  14  49   8  50   8  51   8
M  ISO  8  52   8  53   8  54   8  55   8  56   8  57   8  58   8  59   8
M  END
>  <minimizedAffinity>  (1) 
-5.08190298

>  <minimizedRMSD>  (1) 
2.40989995

$$$$
