
     RDKit          3D

 58 60  0  0  0  0  0  0  0  0999 V2000
   37.7450   22.6300   36.0990 C   0  0  0  0  0  0  0  0  0  0  0  0
   37.8800   22.7320   34.6840 N   0  0  0  0  0  0  0  0  0  0  0  0
   38.4070   21.8570   33.7880 C   0  0  0  0  0  0  0  0  0  0  0  0
   38.3280   22.3920   32.5390 N   0  0  0  0  0  0  0  0  0  0  0  0
   37.7480   23.6060   32.6690 C   0  0  0  0  0  0  0  0  0  0  0  0
   37.4860   23.7930   33.9600 N   0  0  0  0  0  0  0  0  0  0  0  0
   37.4800   24.5550   31.5220 C   0  0  0  0  0  0  0  0  0  0  0  0
   36.0310   24.2740   31.0840 C   0  0  0  0  0  0  0  0  0  0  0  0
   38.3280   24.1750   30.3360 C   0  0  0  0  0  0  0  0  0  0  0  0
   37.5450   25.9690   31.9450 C   0  0  0  0  0  0  0  0  0  0  0  0
   36.7700   26.8630   31.1500 N   0  0  0  0  0  0  0  0  0  0  0  0
   37.3990   27.7050   30.2310 C   0  0  0  0  0  0  0  0  0  0  0  0
   36.6690   29.0460   30.3200 C   0  0  0  0  0  0  0  0  0  0  0  0
   36.1320   29.0440   31.7250 C   0  0  0  0  0  0  0  0  0  0  0  0
   35.7260   27.5650   31.8440 C   0  0  0  0  0  0  0  0  0  0  0  0
   38.6890   23.5540   36.8520 C   0  0  0  0  0  0  0  0  0  0  0  0
   41.9590   21.7070   36.8780 C   0  0  0  0  0  0  0  0  0  0  0  0
   40.6420   22.0300   37.1650 C   0  0  0  0  0  0  0  0  0  0  0  0
   40.0730   23.1610   36.5860 C   0  0  0  0  0  0  0  0  0  0  0  0
   40.8360   23.9110   35.7520 N   0  0  0  0  0  0  0  0  0  0  0  0
   42.1090   23.5810   35.4870 C   0  0  0  0  0  0  0  0  0  0  0  0
   42.6700   22.4790   36.0500 N   0  0  0  0  0  0  0  0  0  0  0  0
   42.5400   20.4970   37.5040 C   0  0  0  0  0  0  0  0  0  0  0  0
   43.2000   19.5820   36.5240 C   0  0  0  0  0  0  0  0  0  0  0  0
   38.4400   23.4320   38.3360 C   0  0  0  0  0  0  0  0  0  0  0  0
   38.3760   24.9760   36.4170 C   0  0  0  0  0  0  0  0  0  0  0  0
   37.9567   21.5928   36.3978 H   0  0  0  0  0  0  0  0  0  0  0  0
   36.7176   22.9283   36.3547 H   0  0  0  0  0  0  0  0  0  0  0  0
   38.8306   20.8719   34.0333 H   0  0  0  0  0  0  0  0  0  0  0  0
   35.3963   24.1509   31.9739 H   0  0  0  0  0  0  0  0  0  0  0  0
   35.6597   25.1169   30.4826 H   0  0  0  0  0  0  0  0  0  0  0  0
   36.0017   23.3534   30.4826 H   0  0  0  0  0  0  0  0  0  0  0  0
   39.2793   23.7487   30.6870 H   0  0  0  0  0  0  0  0  0  0  0  0
   37.7946   23.4298   29.7276 H   0  0  0  0  0  0  0  0  0  0  0  0
   38.5292   25.0691   29.7276 H   0  0  0  0  0  0  0  0  0  0  0  0
   37.1857   26.0334   32.9827 H   0  0  0  0  0  0  0  0  0  0  0  0
   38.5939   26.2803   31.8311 H   0  0  0  0  0  0  0  0  0  0  0  0
   37.3165   27.2916   29.2150 H   0  0  0  0  0  0  0  0  0  0  0  0
   38.4709   27.8142   30.4525 H   0  0  0  0  0  0  0  0  0  0  0  0
   37.3625   29.8852   30.1626 H   0  0  0  0  0  0  0  0  0  0  0  0
   35.8866   29.1661   29.5562 H   0  0  0  0  0  0  0  0  0  0  0  0
   36.9043   29.3172   32.4591 H   0  0  0  0  0  0  0  0  0  0  0  0
   35.3250   29.7664   31.9172 H   0  0  0  0  0  0  0  0  0  0  0  0
   34.7509   27.3873   31.3670 H   0  0  0  0  0  0  0  0  0  0  0  0
   35.6167   27.2379   32.8885 H   0  0  0  0  0  0  0  0  0  0  0  0
   40.0514   21.3980   37.8445 H   0  0  0  0  0  0  0  0  0  0  0  0
   42.7043   24.2085   34.8074 H   0  0  0  0  0  0  0  0  0  0  0  0
   43.2887   20.8130   38.2453 H   0  0  0  0  0  0  0  0  0  0  0  0
   41.7111   19.9385   37.9633 H   0  0  0  0  0  0  0  0  0  0  0  0
   43.7598   18.8059   37.0665 H   0  0  0  0  0  0  0  0  0  0  0  0
   42.4346   19.1079   35.8921 H   0  0  0  0  0  0  0  0  0  0  0  0
   43.8914   20.1587   35.8921 H   0  0  0  0  0  0  0  0  0  0  0  0
   39.2950   23.8509   38.8869 H   0  0  0  0  0  0  0  0  0  0  0  0
   37.5266   23.9846   38.6012 H   0  0  0  0  0  0  0  0  0  0  0  0
   38.3170   22.3716   38.6012 H   0  0  0  0  0  0  0  0  0  0  0  0
   38.2367   25.6090   37.3057 H   0  0  0  0  0  0  0  0  0  0  0  0
   39.2095   25.3672   35.8152 H   0  0  0  0  0  0  0  0  0  0  0  0
   37.4552   24.9811   35.8152 H   0  0  0  0  0  0  0  0  0  0  0  0
  1 16  1  0
  2  1  1  0
  3  2  1  0
  4  5  1  0
  4  3  2  0
  5  6  2  0
  6  2  1  0
  7 10  1  0
  7  5  1  0
  8  7  1  0
  9  7  1  0
 11 15  1  0
 11 10  1  0
 12 13  1  0
 12 11  1  0
 13 14  1  0
 14 15  1  0
 16 25  1  0
 17 18  2  0
 17 23  1  0
 19 16  1  0
 19 18  1  0
 20 19  2  0
 21 20  1  0
 21 22  2  0
 22 17  1  0
 24 23  1  0
 26 16  1  0
  1 27  1  0
  1 28  1  0
  3 29  1  0
  8 30  1  0
  8 31  1  0
  8 32  1  0
  9 33  1  0
  9 34  1  0
  9 35  1  0
 10 36  1  0
 10 37  1  0
 12 38  1  0
 12 39  1  0
 13 40  1  0
 13 41  1  0
 14 42  1  0
 14 43  1  0
 15 44  1  0
 15 45  1  0
 18 46  1  0
 21 47  1  0
 23 48  1  0
 23 49  1  0
 24 50  1  0
 24 51  1  0
 24 52  1  0
 25 53  1  0
 25 54  1  0
 25 55  1  0
 26 56  1  0
 26 57  1  0
 26 58  1  0
M  ISO  8  27   8  28   8  29  14  30   8  31   8  32   8  33   8  34   8
M  ISO  8  35   8  36   8  37   8  38  13  39  13  40  13  41  13  42  13
M  ISO  8  43  13  44  13  45  13  46  14  47  14  48   8  49   8  50   8
M  ISO  8  51   8  52   8  53   8  54   8  55   8  56   8  57   8  58   8
M  END
>  <minimizedAffinity>  (1) 
-5.03436852

>  <minimizedRMSD>  (1) 
0.697393179

$$$$
