
     RDKit          3D

 39 42  0  0  0  0  0  0  0  0999 V2000
   38.3500   25.8200   34.1540 C   0  0  0  0  0  0  0  0  0  0  0  0
   39.2390   24.7760   34.6680 C   0  0  0  0  0  0  0  0  0  0  0  0
   40.2710   24.2510   33.9160 C   0  0  0  0  0  0  0  0  0  0  0  0
   41.0990   23.2890   34.4230 C   0  0  0  0  0  0  0  0  0  0  0  0
   40.9310   22.8080   35.7090 C   0  0  0  0  0  0  0  0  0  0  0  0
   39.9060   23.3230   36.4720 C   0  0  0  0  0  0  0  0  0  0  0  0
   39.7180   22.8630   37.7670 C   0  0  0  0  0  0  0  0  0  0  0  0
   38.7150   23.3490   38.5650 C   0  0  0  0  0  0  0  0  0  0  0  0
   37.8680   24.3240   38.0590 C   0  0  0  0  0  0  0  0  0  0  0  0
   38.0650   24.7770   36.7590 C   0  0  0  0  0  0  0  0  0  0  0  0
   39.0740   24.3010   35.9360 C   0  0  0  0  0  0  0  0  0  0  0  0
   35.9170   25.9060   31.4070 C   0  0  0  0  0  0  0  0  0  0  0  0
   35.6640   24.5700   31.1330 C   0  0  0  0  0  0  0  0  0  0  0  0
   36.3340   23.6150   31.9110 C   0  0  0  0  0  0  0  0  0  0  0  0
   37.1950   24.0350   32.8880 N   0  0  0  0  0  0  0  0  0  0  0  0
   37.4050   25.3340   33.1120 C   0  0  0  0  0  0  0  0  0  0  0  0
   36.7740   26.2620   32.3810 N   0  0  0  0  0  0  0  0  0  0  0  0
   36.1390   22.1890   31.7050 C   0  0  0  0  0  0  0  0  0  0  0  0
   36.9260   21.3980   30.9020 C   0  0  0  0  0  0  0  0  0  0  0  0
   36.7350   20.0480   30.7130 C   0  0  0  0  0  0  0  0  0  0  0  0
   35.6780   19.4620   31.3780 C   0  0  0  0  0  0  0  0  0  0  0  0
   34.8440   20.1890   32.2010 C   0  0  0  0  0  0  0  0  0  0  0  0
   35.1040   21.5390   32.3390 C   0  0  0  0  0  0  0  0  0  0  0  0
   37.7651   26.2239   34.9935 H   0  0  0  0  0  0  0  0  0  0  0  0
   38.9860   26.5842   33.6833 H   0  0  0  0  0  0  0  0  0  0  0  0
   40.4298   24.6137   32.8897 H   0  0  0  0  0  0  0  0  0  0  0  0
   41.9121   22.8908   33.7983 H   0  0  0  0  0  0  0  0  0  0  0  0
   41.5995   22.0332   36.1126 H   0  0  0  0  0  0  0  0  0  0  0  0
   40.3909   22.0885   38.1637 H   0  0  0  0  0  0  0  0  0  0  0  0
   38.5839   22.9719   39.5900 H   0  0  0  0  0  0  0  0  0  0  0  0
   37.0538   24.7322   38.6759 H   0  0  0  0  0  0  0  0  0  0  0  0
   37.3882   25.5495   36.3651 H   0  0  0  0  0  0  0  0  0  0  0  0
   35.4097   26.6855   30.8196 H   0  0  0  0  0  0  0  0  0  0  0  0
   34.9657   24.2716   30.3372 H   0  0  0  0  0  0  0  0  0  0  0  0
   37.7649   21.8761   30.3750 H   0  0  0  0  0  0  0  0  0  0  0  0
   37.3972   19.4613   30.0594 H   0  0  0  0  0  0  0  0  0  0  0  0
   35.4954   18.3851   31.2482 H   0  0  0  0  0  0  0  0  0  0  0  0
   34.0039   19.7125   32.7275 H   0  0  0  0  0  0  0  0  0  0  0  0
   34.4456   22.1289   32.9936 H   0  0  0  0  0  0  0  0  0  0  0  0
  1  2  1  0
  2 11  2  0
  3  4  2  0
  3  2  1  0
  4  5  1  0
  5  6  2  0
  6  7  1  0
  7  8  2  0
  9  8  1  0
 10  9  2  0
 11  6  1  0
 11 10  1  0
 12 17  2  0
 13 12  1  0
 13 14  2  0
 14 15  1  0
 15 16  2  0
 16  1  1  0
 17 16  1  0
 18 14  1  0
 18 23  1  0
 19 18  2  0
 20 19  1  0
 20 21  2  0
 21 22  1  0
 22 23  2  0
  1 24  1  0
  1 25  1  0
  3 26  1  0
  4 27  1  0
  5 28  1  0
  7 29  1  0
  8 30  1  0
  9 31  1  0
 10 32  1  0
 12 33  1  0
 13 34  1  0
 19 35  1  0
 20 36  1  0
 21 37  1  0
 22 38  1  0
 23 39  1  0
M  ISO  8  24   8  25   8  26  14  27  14  28  14  29  14  30  14  31  14
M  ISO  8  32  14  33  14  34  14  35  14  36  14  37  14  38  14  39  14
M  END
>  <minimizedAffinity>  (1) 
-6.66138554

>  <minimizedRMSD>  (1) 
3.19095016

$$$$
