
     RDKit          3D

 42 45  0  0  0  0  0  0  0  0999 V2000
   39.0150   26.6720   35.3140 C   0  0  0  0  0  0  0  0  0  0  0  0
   40.1500   27.0930   34.6500 C   0  0  0  0  0  0  0  0  0  0  0  0
   41.2140   26.2510   34.4700 C   0  0  0  0  0  0  0  0  0  0  0  0
   41.1960   24.9410   34.9470 C   0  0  0  0  0  0  0  0  0  0  0  0
   40.0610   24.5310   35.6080 C   0  0  0  0  0  0  0  0  0  0  0  0
   40.0320   23.2270   36.0950 C   0  0  0  0  0  0  0  0  0  0  0  0
   38.9190   22.7560   36.7740 C   0  0  0  0  0  0  0  0  0  0  0  0
   37.8320   23.5940   36.9630 C   0  0  0  0  0  0  0  0  0  0  0  0
   37.8940   24.8880   36.4650 C   0  0  0  0  0  0  0  0  0  0  0  0
   38.9910   25.3910   35.7840 C   0  0  0  0  0  0  0  0  0  0  0  0
   37.8720   27.5560   35.5400 C   0  0  0  0  0  0  0  0  0  0  0  0
   35.4800   29.0810   33.2080 C   0  0  0  0  0  0  0  0  0  0  0  0
   35.3980   28.1840   32.1530 C   0  0  0  0  0  0  0  0  0  0  0  0
   36.1780   27.0210   32.2430 C   0  0  0  0  0  0  0  0  0  0  0  0
   36.9740   26.8090   33.3330 N   0  0  0  0  0  0  0  0  0  0  0  0
   37.0100   27.7240   34.3280 C   0  0  0  0  0  0  0  0  0  0  0  0
   36.2750   28.8410   34.2680 N   0  0  0  0  0  0  0  0  0  0  0  0
   36.1070   26.0650   31.1450 C   0  0  0  0  0  0  0  0  0  0  0  0
   34.9790   25.0850   31.2430 C   0  0  0  0  0  0  0  0  0  0  0  0
   35.5660   23.7240   30.8770 C   0  0  0  0  0  0  0  0  0  0  0  0
   37.0500   23.8270   31.0330 C   0  0  0  0  0  0  0  0  0  0  0  0
   37.3880   25.2810   31.0210 C   0  0  0  0  0  0  0  0  0  0  0  0
   40.1999   28.1203   34.2599 H   0  0  0  0  0  0  0  0  0  0  0  0
   42.1040   26.6163   33.9366 H   0  0  0  0  0  0  0  0  0  0  0  0
   42.0515   24.2650   34.8013 H   0  0  0  0  0  0  0  0  0  0  0  0
   40.8977   22.5663   35.9400 H   0  0  0  0  0  0  0  0  0  0  0  0
   38.8990   21.7259   37.1594 H   0  0  0  0  0  0  0  0  0  0  0  0
   36.9376   23.2408   37.4971 H   0  0  0  0  0  0  0  0  0  0  0  0
   37.0277   25.5483   36.6188 H   0  0  0  0  0  0  0  0  0  0  0  0
   37.2585   27.1347   36.3500 H   0  0  0  0  0  0  0  0  0  0  0  0
   38.2710   28.5480   35.7983 H   0  0  0  0  0  0  0  0  0  0  0  0
   34.8846   30.0054   33.1781 H   0  0  0  0  0  0  0  0  0  0  0  0
   34.7505   28.3758   31.2847 H   0  0  0  0  0  0  0  0  0  0  0  0
   35.9316   26.6904   30.2572 H   0  0  0  0  0  0  0  0  0  0  0  0
   34.5789   25.0650   32.2675 H   0  0  0  0  0  0  0  0  0  0  0  0
   34.1506   25.3582   30.5729 H   0  0  0  0  0  0  0  0  0  0  0  0
   35.3129   23.4716   29.8367 H   0  0  0  0  0  0  0  0  0  0  0  0
   35.1585   22.9352   31.5264 H   0  0  0  0  0  0  0  0  0  0  0  0
   37.3625   23.3740   31.9854 H   0  0  0  0  0  0  0  0  0  0  0  0
   37.5688   23.2957   30.2215 H   0  0  0  0  0  0  0  0  0  0  0  0
   38.0512   25.5158   31.8666 H   0  0  0  0  0  0  0  0  0  0  0  0
   37.9038   25.5427   30.0853 H   0  0  0  0  0  0  0  0  0  0  0  0
  1 11  1  0
  1 10  1  0
  2  1  2  0
  3  2  1  0
  3  4  2  0
  4  5  1  0
  5 10  2  0
  5  6  1  0
  6  7  2  0
  7  8  1  0
  9  8  2  0
 10  9  1  0
 12 17  2  0
 13 14  2  0
 13 12  1  0
 14 15  1  0
 15 16  2  0
 16 11  1  0
 17 16  1  0
 18 19  1  0
 18 14  1  0
 20 21  1  0
 20 19  1  0
 22 21  1  0
 22 18  1  0
  2 23  1  0
  3 24  1  0
  4 25  1  0
  6 26  1  0
  7 27  1  0
  8 28  1  0
  9 29  1  0
 11 30  1  0
 11 31  1  0
 12 32  1  0
 13 33  1  0
 18 34  1  0
 19 35  1  0
 19 36  1  0
 20 37  1  0
 20 38  1  0
 21 39  1  0
 21 40  1  0
 22 41  1  0
 22 42  1  0
M  ISO  8  23  14  24  14  25  14  26  14  27  14  28  14  29  14  30   8
M  ISO  8  31   8  32  14  33  14  34  13  35  13  36  13  37  13  38  13
M  ISO  4  39  13  40  13  41  13  42  13
M  END
>  <minimizedAffinity>  (1) 
-6.11182356

>  <minimizedRMSD>  (1) 
1.21471751

$$$$
