
     RDKit          3D

 36 39  0  0  0  0  0  0  0  0999 V2000
   38.9810   26.5860   35.2900 C   0  0  0  0  0  0  0  0  0  0  0  0
   40.1070   27.0620   34.6460 C   0  0  0  0  0  0  0  0  0  0  0  0
   41.1980   26.2640   34.4420 C   0  0  0  0  0  0  0  0  0  0  0  0
   41.2190   24.9370   34.8760 C   0  0  0  0  0  0  0  0  0  0  0  0
   40.0840   24.4490   35.5280 C   0  0  0  0  0  0  0  0  0  0  0  0
   40.0970   23.1450   35.9630 C   0  0  0  0  0  0  0  0  0  0  0  0
   39.0000   22.6210   36.6150 C   0  0  0  0  0  0  0  0  0  0  0  0
   37.8890   23.4180   36.8250 C   0  0  0  0  0  0  0  0  0  0  0  0
   37.9020   24.7370   36.3740 C   0  0  0  0  0  0  0  0  0  0  0  0
   38.9920   25.2880   35.7180 C   0  0  0  0  0  0  0  0  0  0  0  0
   37.8100   27.4250   35.5410 C   0  0  0  0  0  0  0  0  0  0  0  0
   35.5130   29.0740   33.1960 C   0  0  0  0  0  0  0  0  0  0  0  0
   35.4130   28.1940   32.1290 C   0  0  0  0  0  0  0  0  0  0  0  0
   36.1490   26.9970   32.2150 C   0  0  0  0  0  0  0  0  0  0  0  0
   36.9170   26.7500   33.3210 N   0  0  0  0  0  0  0  0  0  0  0  0
   36.9730   27.6440   34.3240 C   0  0  0  0  0  0  0  0  0  0  0  0
   36.2790   28.7920   34.2630 N   0  0  0  0  0  0  0  0  0  0  0  0
   36.1410   25.9570   31.1470 C   0  0  0  0  0  0  0  0  0  0  0  0
   34.8190   25.3010   30.8490 C   0  0  0  0  0  0  0  0  0  0  0  0
   35.9560   24.5300   31.5090 C   0  0  0  0  0  0  0  0  0  0  0  0
   40.1259   28.1029   34.2907 H   0  0  0  0  0  0  0  0  0  0  0  0
   42.0775   26.6757   33.9253 H   0  0  0  0  0  0  0  0  0  0  0  0
   42.0989   24.2980   34.7102 H   0  0  0  0  0  0  0  0  0  0  0  0
   40.9842   22.5179   35.7908 H   0  0  0  0  0  0  0  0  0  0  0  0
   39.0086   21.5782   36.9650 H   0  0  0  0  0  0  0  0  0  0  0  0
   37.0054   23.0156   37.3420 H   0  0  0  0  0  0  0  0  0  0  0  0
   37.0144   25.3639   36.5450 H   0  0  0  0  0  0  0  0  0  0  0  0
   37.1901   26.9397   36.3092 H   0  0  0  0  0  0  0  0  0  0  0  0
   38.1765   28.4093   35.8678 H   0  0  0  0  0  0  0  0  0  0  0  0
   34.9544   30.0212   33.1682 H   0  0  0  0  0  0  0  0  0  0  0  0
   34.7863   28.4212   31.2540 H   0  0  0  0  0  0  0  0  0  0  0  0
   36.9043   26.4926   30.5635 H   0  0  0  0  0  0  0  0  0  0  0  0
   33.9237   25.5712   31.4282 H   0  0  0  0  0  0  0  0  0  0  0  0
   34.1930   25.1655   29.9547 H   0  0  0  0  0  0  0  0  0  0  0  0
   36.4876   23.7471   30.9483 H   0  0  0  0  0  0  0  0  0  0  0  0
   36.0634   23.9419   32.4324 H   0  0  0  0  0  0  0  0  0  0  0  0
  1 11  1  0
  1 10  1  0
  2  1  2  0
  3  2  1  0
  3  4  2  0
  4  5  1  0
  5 10  2  0
  5  6  1  0
  6  7  2  0
  7  8  1  0
  9  8  2  0
 10  9  1  0
 12 17  2  0
 13 14  2  0
 13 12  1  0
 14 15  1  0
 15 16  2  0
 16 11  1  0
 17 16  1  0
 18 20  1  0
 18 14  1  0
 19 18  1  0
 19 20  1  0
  2 21  1  0
  3 22  1  0
  4 23  1  0
  6 24  1  0
  7 25  1  0
  8 26  1  0
  9 27  1  0
 11 28  1  0
 11 29  1  0
 12 30  1  0
 13 31  1  0
 18 32  1  0
 19 33  1  0
 19 34  1  0
 20 35  1  0
 20 36  1  0
M  ISO  8  21  14  22  14  23  14  24  14  25  14  26  14  27  14  28   8
M  ISO  8  29   8  30  14  31  14  32  13  33  13  34  13  35  13  36  13
M  END
>  <minimizedAffinity>  (1) 
-5.78518248

>  <minimizedRMSD>  (1) 
0.499602914

$$$$
