
     RDKit          3D

 34 37  0  0  0  0  0  0  0  0999 V2000
   38.3600   25.8220   34.1660 C   0  0  0  0  0  0  0  0  0  0  0  0
   39.2500   24.7780   34.6760 C   0  0  0  0  0  0  0  0  0  0  0  0
   40.2870   24.2570   33.9260 C   0  0  0  0  0  0  0  0  0  0  0  0
   41.1140   23.3020   34.4320 C   0  0  0  0  0  0  0  0  0  0  0  0
   40.9530   22.8070   35.7270 C   0  0  0  0  0  0  0  0  0  0  0  0
   39.9080   23.3290   36.4920 C   0  0  0  0  0  0  0  0  0  0  0  0
   39.7260   22.8650   37.7720 C   0  0  0  0  0  0  0  0  0  0  0  0
   38.7180   23.3410   38.5720 C   0  0  0  0  0  0  0  0  0  0  0  0
   37.8710   24.3130   38.0620 C   0  0  0  0  0  0  0  0  0  0  0  0
   38.0680   24.7710   36.7660 C   0  0  0  0  0  0  0  0  0  0  0  0
   39.0820   24.3000   35.9470 C   0  0  0  0  0  0  0  0  0  0  0  0
   36.0460   25.9350   31.3250 C   0  0  0  0  0  0  0  0  0  0  0  0
   35.7480   24.6030   31.0750 C   0  0  0  0  0  0  0  0  0  0  0  0
   36.3440   23.6240   31.9050 C   0  0  0  0  0  0  0  0  0  0  0  0
   37.1780   24.0220   32.9060 N   0  0  0  0  0  0  0  0  0  0  0  0
   37.4340   25.3340   33.1020 C   0  0  0  0  0  0  0  0  0  0  0  0
   36.8760   26.2830   32.3230 N   0  0  0  0  0  0  0  0  0  0  0  0
   36.0690   22.2070   31.6940 C   0  0  0  0  0  0  0  0  0  0  0  0
   35.0640   21.6220   32.3720 N   0  0  0  0  0  0  0  0  0  0  0  0
   34.9430   20.3700   32.0820 O   0  0  0  0  0  0  0  0  0  0  0  0
   35.8910   20.1080   31.1890 C   0  0  0  0  0  0  0  0  0  0  0  0
   36.6050   21.2400   30.9320 N   0  0  0  0  0  0  0  0  0  0  0  0
   37.7593   26.2091   35.0022 H   0  0  0  0  0  0  0  0  0  0  0  0
   38.9928   26.6020   33.7175 H   0  0  0  0  0  0  0  0  0  0  0  0
   40.4471   24.6211   32.9004 H   0  0  0  0  0  0  0  0  0  0  0  0
   41.9290   22.9108   33.8053 H   0  0  0  0  0  0  0  0  0  0  0  0
   41.6243   22.0344   36.1300 H   0  0  0  0  0  0  0  0  0  0  0  0
   40.4045   22.0935   38.1650 H   0  0  0  0  0  0  0  0  0  0  0  0
   38.5848   22.9599   39.5952 H   0  0  0  0  0  0  0  0  0  0  0  0
   37.0528   24.7165   38.6766 H   0  0  0  0  0  0  0  0  0  0  0  0
   37.3892   25.5417   36.3720 H   0  0  0  0  0  0  0  0  0  0  0  0
   35.5961   26.7179   30.6968 H   0  0  0  0  0  0  0  0  0  0  0  0
   35.0699   24.3171   30.2574 H   0  0  0  0  0  0  0  0  0  0  0  0
   36.0722   19.1263   30.7271 H   0  0  0  0  0  0  0  0  0  0  0  0
  1  2  1  0
  2 11  2  0
  3  4  2  0
  3  2  1  0
  4  5  1  0
  5  6  2  0
  6  7  1  0
  7  8  2  0
  9  8  1  0
 10  9  2  0
 11  6  1  0
 11 10  1  0
 12 17  2  0
 13 12  1  0
 13 14  2  0
 14 15  1  0
 15 16  2  0
 16  1  1  0
 17 16  1  0
 18 14  1  0
 18 19  2  0
 20 19  1  0
 21 20  1  0
 22 21  2  0
 22 18  1  0
  1 23  1  0
  1 24  1  0
  3 25  1  0
  4 26  1  0
  5 27  1  0
  7 28  1  0
  8 29  1  0
  9 30  1  0
 10 31  1  0
 12 32  1  0
 13 33  1  0
 21 34  1  0
M  ISO  8  23   8  24   8  25  14  26  14  27  14  28  14  29  14  30  14
M  ISO  4  31  14  32  14  33  14  34  14
M  END
>  <minimizedAffinity>  (1) 
-5.90842962

>  <minimizedRMSD>  (1) 
2.9795661

$$$$
