
     RDKit          3D

 36 39  0  0  0  0  0  0  0  0999 V2000
   38.3590   25.7950   34.1430 C   0  0  0  0  0  0  0  0  0  0  0  0
   39.2540   24.7620   34.6650 C   0  0  0  0  0  0  0  0  0  0  0  0
   40.2950   24.2390   33.9230 C   0  0  0  0  0  0  0  0  0  0  0  0
   41.1260   23.2880   34.4350 C   0  0  0  0  0  0  0  0  0  0  0  0
   40.9600   22.8040   35.7330 C   0  0  0  0  0  0  0  0  0  0  0  0
   39.9170   23.3240   36.4840 C   0  0  0  0  0  0  0  0  0  0  0  0
   39.7430   22.8560   37.7740 C   0  0  0  0  0  0  0  0  0  0  0  0
   38.7200   23.3460   38.5650 C   0  0  0  0  0  0  0  0  0  0  0  0
   37.8690   24.3110   38.0520 C   0  0  0  0  0  0  0  0  0  0  0  0
   38.0670   24.7620   36.7540 C   0  0  0  0  0  0  0  0  0  0  0  0
   39.0840   24.2940   35.9360 C   0  0  0  0  0  0  0  0  0  0  0  0
   36.0430   25.8530   31.2950 C   0  0  0  0  0  0  0  0  0  0  0  0
   35.7400   24.5200   31.0670 C   0  0  0  0  0  0  0  0  0  0  0  0
   36.3410   23.5680   31.9140 C   0  0  0  0  0  0  0  0  0  0  0  0
   37.1810   23.9780   32.9090 N   0  0  0  0  0  0  0  0  0  0  0  0
   37.4370   25.2940   33.0800 C   0  0  0  0  0  0  0  0  0  0  0  0
   36.8760   26.2210   32.2850 N   0  0  0  0  0  0  0  0  0  0  0  0
   36.0620   22.1500   31.7230 C   0  0  0  0  0  0  0  0  0  0  0  0
   35.0920   21.4400   32.3980 C   0  0  0  0  0  0  0  0  0  0  0  0
   35.1900   20.1880   31.9100 N   0  0  0  0  0  0  0  0  0  0  0  0
   36.1600   20.1130   30.9870 C   0  0  0  0  0  0  0  0  0  0  0  0
   36.7110   21.3430   30.8670 N   0  0  0  0  0  0  0  0  0  0  0  0
   37.7541   26.1859   34.9744 H   0  0  0  0  0  0  0  0  0  0  0  0
   38.9892   26.5734   33.6881 H   0  0  0  0  0  0  0  0  0  0  0  0
   40.4569   24.5981   32.8959 H   0  0  0  0  0  0  0  0  0  0  0  0
   41.9434   22.8944   33.8129 H   0  0  0  0  0  0  0  0  0  0  0  0
   41.6324   22.0375   36.1457 H   0  0  0  0  0  0  0  0  0  0  0  0
   40.4229   22.0890   38.1733 H   0  0  0  0  0  0  0  0  0  0  0  0
   38.5835   22.9733   39.5909 H   0  0  0  0  0  0  0  0  0  0  0  0
   37.0485   24.7140   38.6639 H   0  0  0  0  0  0  0  0  0  0  0  0
   37.3845   25.5271   36.3555 H   0  0  0  0  0  0  0  0  0  0  0  0
   35.5934   26.6254   30.6537 H   0  0  0  0  0  0  0  0  0  0  0  0
   35.0585   24.2178   30.2582 H   0  0  0  0  0  0  0  0  0  0  0  0
   34.3947   21.8121   33.1631 H   0  0  0  0  0  0  0  0  0  0  0  0
   36.4549   19.2129   30.4277 H   0  0  0  0  0  0  0  0  0  0  0  0
   37.4820   21.6101   30.2384 H   0  0  0  0  0  0  0  0  0  0  0  0
  1  2  1  0
  2 11  2  0
  3  4  2  0
  3  2  1  0
  4  5  1  0
  5  6  2  0
  6  7  1  0
  7  8  2  0
  9  8  1  0
 10  9  2  0
 11  6  1  0
 11 10  1  0
 12 17  2  0
 13 12  1  0
 13 14  2  0
 14 15  1  0
 15 16  2  0
 16  1  1  0
 17 16  1  0
 18 14  1  0
 18 19  2  0
 20 19  1  0
 21 20  2  0
 22 21  1  0
 22 18  1  0
  1 23  1  0
  1 24  1  0
  3 25  1  0
  4 26  1  0
  5 27  1  0
  7 28  1  0
  8 29  1  0
  9 30  1  0
 10 31  1  0
 12 32  1  0
 13 33  1  0
 19 34  1  0
 21 35  1  0
 22 36  1  0
M  ISO  8  23   8  24   8  25  14  26  14  27  14  28  14  29  14  30  14
M  ISO  6  31  14  32  14  33  14  34  14  35  14  36   9
M  END
>  <minimizedAffinity>  (1) 
-5.87488651

>  <minimizedRMSD>  (1) 
3.05011845

$$$$
