
     RDKit          3D

 53 55  0  0  0  0  0  0  0  0999 V2000
   37.8010   22.5710   36.1630 C   0  0  0  0  0  0  0  0  0  0  0  0
   37.8330   22.7880   34.7570 N   0  0  0  0  0  0  0  0  0  0  0  0
   38.2460   21.9650   33.7400 C   0  0  0  0  0  0  0  0  0  0  0  0
   38.0870   22.6170   32.5560 N   0  0  0  0  0  0  0  0  0  0  0  0
   37.5800   23.8360   32.8380 C   0  0  0  0  0  0  0  0  0  0  0  0
   37.4370   23.9150   34.1530 N   0  0  0  0  0  0  0  0  0  0  0  0
   37.2590   24.8620   31.8070 C   0  0  0  0  0  0  0  0  0  0  0  0
   35.9850   24.4050   31.0930 C   0  0  0  0  0  0  0  0  0  0  0  0
   38.3300   24.9410   30.7430 C   0  0  0  0  0  0  0  0  0  0  0  0
   36.9820   26.2150   32.4140 C   0  0  0  0  0  0  0  0  0  0  0  0
   37.3140   27.1810   31.3550 N   0  0  0  0  0  0  0  0  0  0  0  0
   36.4760   27.6530   30.4390 N   0  0  0  0  0  0  0  0  0  0  0  0
   37.1000   28.5190   29.6200 C   0  0  0  0  0  0  0  0  0  0  0  0
   38.4120   28.6100   30.0300 C   0  0  0  0  0  0  0  0  0  0  0  0
   38.5080   27.7650   31.1120 C   0  0  0  0  0  0  0  0  0  0  0  0
   38.7550   23.4990   36.9130 C   0  0  0  0  0  0  0  0  0  0  0  0
   42.0340   21.6690   36.8750 C   0  0  0  0  0  0  0  0  0  0  0  0
   40.7140   21.9720   37.1930 C   0  0  0  0  0  0  0  0  0  0  0  0
   40.1280   23.1190   36.6270 C   0  0  0  0  0  0  0  0  0  0  0  0
   40.8690   23.8820   35.7970 N   0  0  0  0  0  0  0  0  0  0  0  0
   42.1460   23.5620   35.5080 C   0  0  0  0  0  0  0  0  0  0  0  0
   42.7260   22.4510   36.0520 N   0  0  0  0  0  0  0  0  0  0  0  0
   42.6360   20.4600   37.4770 C   0  0  0  0  0  0  0  0  0  0  0  0
   43.1750   19.5030   36.4630 C   0  0  0  0  0  0  0  0  0  0  0  0
   38.5180   23.3050   38.4010 C   0  0  0  0  0  0  0  0  0  0  0  0
   38.4110   24.9080   36.5270 C   0  0  0  0  0  0  0  0  0  0  0  0
   38.0875   21.5287   36.3670 H   0  0  0  0  0  0  0  0  0  0  0  0
   36.7800   22.7820   36.5137 H   0  0  0  0  0  0  0  0  0  0  0  0
   38.6408   20.9455   33.8616 H   0  0  0  0  0  0  0  0  0  0  0  0
   35.2243   24.1321   31.8392 H   0  0  0  0  0  0  0  0  0  0  0  0
   35.6042   25.2226   30.4633 H   0  0  0  0  0  0  0  0  0  0  0  0
   36.2107   23.5318   30.4633 H   0  0  0  0  0  0  0  0  0  0  0  0
   39.3177   25.0139   31.2217 H   0  0  0  0  0  0  0  0  0  0  0  0
   38.2919   24.0376   30.1166 H   0  0  0  0  0  0  0  0  0  0  0  0
   38.1597   25.8290   30.1166 H   0  0  0  0  0  0  0  0  0  0  0  0
   35.9230   26.3018   32.6987 H   0  0  0  0  0  0  0  0  0  0  0  0
   37.5685   26.3860   33.3288 H   0  0  0  0  0  0  0  0  0  0  0  0
   36.6448   29.0572   28.7755 H   0  0  0  0  0  0  0  0  0  0  0  0
   39.2100   29.2249   29.5883 H   0  0  0  0  0  0  0  0  0  0  0  0
   39.4244   27.5903   31.6948 H   0  0  0  0  0  0  0  0  0  0  0  0
   40.1394   21.3270   37.8740 H   0  0  0  0  0  0  0  0  0  0  0  0
   42.7270   24.2017   34.8274 H   0  0  0  0  0  0  0  0  0  0  0  0
   43.4595   20.7710   38.1366 H   0  0  0  0  0  0  0  0  0  0  0  0
   41.8397   19.9382   38.0280 H   0  0  0  0  0  0  0  0  0  0  0  0
   43.6524   18.6553   36.9763 H   0  0  0  0  0  0  0  0  0  0  0  0
   42.3520   19.1340   35.8333 H   0  0  0  0  0  0  0  0  0  0  0  0
   43.9172   20.0155   35.8333 H   0  0  0  0  0  0  0  0  0  0  0  0
   39.2468   23.9016   38.9692 H   0  0  0  0  0  0  0  0  0  0  0  0
   37.4989   23.6315   38.6556 H   0  0  0  0  0  0  0  0  0  0  0  0
   38.6367   22.2415   38.6556 H   0  0  0  0  0  0  0  0  0  0  0  0
   38.2637   25.5113   37.4349 H   0  0  0  0  0  0  0  0  0  0  0  0
   39.2311   25.3357   35.9316 H   0  0  0  0  0  0  0  0  0  0  0  0
   37.4861   24.9096   35.9316 H   0  0  0  0  0  0  0  0  0  0  0  0
  1 16  1  0
  2  1  1  0
  3  2  1  0
  4  5  1  0
  4  3  2  0
  5  6  2  0
  6  2  1  0
  7 10  1  0
  7  5  1  0
  8  7  1  0
  9  7  1  0
 11 10  1  0
 12 11  1  0
 13 14  1  0
 13 12  2  0
 14 15  2  0
 15 11  1  0
 16 25  1  0
 17 18  2  0
 17 23  1  0
 19 16  1  0
 19 18  1  0
 20 19  2  0
 21 20  1  0
 21 22  2  0
 22 17  1  0
 24 23  1  0
 26 16  1  0
  1 27  1  0
  1 28  1  0
  3 29  1  0
  8 30  1  0
  8 31  1  0
  8 32  1  0
  9 33  1  0
  9 34  1  0
  9 35  1  0
 10 36  1  0
 10 37  1  0
 13 38  1  0
 14 39  1  0
 15 40  1  0
 18 41  1  0
 21 42  1  0
 23 43  1  0
 23 44  1  0
 24 45  1  0
 24 46  1  0
 24 47  1  0
 25 48  1  0
 25 49  1  0
 25 50  1  0
 26 51  1  0
 26 52  1  0
 26 53  1  0
M  ISO  8  27   8  28   8  29  14  30   8  31   8  32   8  33   8  34   8
M  ISO  8  35   8  36   8  37   8  38  14  39  14  40  14  41  14  42  14
M  ISO  8  43   8  44   8  45   8  46   8  47   8  48   8  49   8  50   8
M  ISO  3  51   8  52   8  53   8
M  END
>  <minimizedAffinity>  (1) 
-4.90136242

>  <minimizedRMSD>  (1) 
0.992490649

$$$$
