
     RDKit          3D

 30 32  0  0  0  0  0  0  0  0999 V2000
   38.8780   26.2730   35.1320 C   0  0  0  0  0  0  0  0  0  0  0  0
   39.9200   27.0170   34.6140 C   0  0  0  0  0  0  0  0  0  0  0  0
   41.1750   26.4900   34.5070 C   0  0  0  0  0  0  0  0  0  0  0  0
   41.4590   25.1860   34.9140 C   0  0  0  0  0  0  0  0  0  0  0  0
   40.4040   24.4390   35.4360 C   0  0  0  0  0  0  0  0  0  0  0  0
   40.6740   23.1530   35.8430 C   0  0  0  0  0  0  0  0  0  0  0  0
   39.6700   22.3570   36.3740 C   0  0  0  0  0  0  0  0  0  0  0  0
   38.3910   22.8800   36.4860 C   0  0  0  0  0  0  0  0  0  0  0  0
   38.1600   24.1780   36.0650 C   0  0  0  0  0  0  0  0  0  0  0  0
   39.1430   24.9980   35.5320 C   0  0  0  0  0  0  0  0  0  0  0  0
   37.5290   26.8200   35.2850 C   0  0  0  0  0  0  0  0  0  0  0  0
   35.7930   28.8560   32.7730 C   0  0  0  0  0  0  0  0  0  0  0  0
   35.7200   28.0380   31.6560 C   0  0  0  0  0  0  0  0  0  0  0  0
   36.2770   26.7450   31.7620 C   0  0  0  0  0  0  0  0  0  0  0  0
   36.8550   26.3620   32.9400 N   0  0  0  0  0  0  0  0  0  0  0  0
   36.8970   27.1960   33.9860 C   0  0  0  0  0  0  0  0  0  0  0  0
   36.3740   28.4280   33.9070 N   0  0  0  0  0  0  0  0  0  0  0  0
   36.2100   25.9300   30.6680 O   0  0  0  0  0  0  0  0  0  0  0  0
   39.7360   28.0497   34.2827 H   0  0  0  0  0  0  0  0  0  0  0  0
   41.9826   27.1091   34.0894 H   0  0  0  0  0  0  0  0  0  0  0  0
   42.4717   24.7655   34.8268 H   0  0  0  0  0  0  0  0  0  0  0  0
   41.6941   22.7529   35.7466 H   0  0  0  0  0  0  0  0  0  0  0  0
   39.8848   21.3288   36.7005 H   0  0  0  0  0  0  0  0  0  0  0  0
   37.5734   22.2734   36.9026 H   0  0  0  0  0  0  0  0  0  0  0  0
   37.1408   24.5812   36.1583 H   0  0  0  0  0  0  0  0  0  0  0  0
   36.8983   26.0635   35.7748 H   0  0  0  0  0  0  0  0  0  0  0  0
   37.6142   27.7378   35.8853 H   0  0  0  0  0  0  0  0  0  0  0  0
   35.3692   29.8702   32.7306 H   0  0  0  0  0  0  0  0  0  0  0  0
   35.2471   28.3826   30.7245 H   0  0  0  0  0  0  0  0  0  0  0  0
   36.5904   25.0168   30.7070 H   0  0  0  0  0  0  0  0  0  0  0  0
  1 11  1  0
  1 10  1  0
  2  1  2  0
  3  2  1  0
  3  4  2  0
  4  5  1  0
  5 10  2  0
  5  6  1  0
  6  7  2  0
  7  8  1  0
  9  8  2  0
 10  9  1  0
 12 17  2  0
 13 14  2  0
 13 12  1  0
 14 15  1  0
 15 16  2  0
 16 11  1  0
 17 16  1  0
 18 14  1  0
  2 19  1  0
  3 20  1  0
  4 21  1  0
  6 22  1  0
  7 23  1  0
  8 24  1  0
  9 25  1  0
 11 26  1  0
 11 27  1  0
 12 28  1  0
 13 29  1  0
 18 30  1  0
M  ISO  8  19  14  20  14  21  14  22  14  23  14  24  14  25  14  26   8
M  ISO  4  27   8  28  14  29  14  30   3
M  END
>  <minimizedAffinity>  (1) 
-5.19432402

>  <minimizedRMSD>  (1) 
0.30471319

$$$$
