
     RDKit          3D

 30 32  0  0  0  0  0  0  0  0999 V2000
   39.0500   26.5230   35.3880 C   0  0  0  0  0  0  0  0  0  0  0  0
   40.1650   27.0550   34.7720 C   0  0  0  0  0  0  0  0  0  0  0  0
   41.2520   26.2810   34.4950 C   0  0  0  0  0  0  0  0  0  0  0  0
   41.2800   24.9330   34.8200 C   0  0  0  0  0  0  0  0  0  0  0  0
   40.1580   24.3870   35.4420 C   0  0  0  0  0  0  0  0  0  0  0  0
   40.1870   23.0400   35.7670 C   0  0  0  0  0  0  0  0  0  0  0  0
   39.0930   22.4540   36.3860 C   0  0  0  0  0  0  0  0  0  0  0  0
   37.9820   23.2390   36.6670 C   0  0  0  0  0  0  0  0  0  0  0  0
   37.9950   24.5790   36.3260 C   0  0  0  0  0  0  0  0  0  0  0  0
   39.0720   25.1950   35.7090 C   0  0  0  0  0  0  0  0  0  0  0  0
   37.8760   27.3310   35.7180 C   0  0  0  0  0  0  0  0  0  0  0  0
   35.6420   29.2520   33.5310 C   0  0  0  0  0  0  0  0  0  0  0  0
   35.4940   28.4480   32.4120 C   0  0  0  0  0  0  0  0  0  0  0  0
   36.1680   27.1870   32.3840 C   0  0  0  0  0  0  0  0  0  0  0  0
   36.9280   26.8450   33.4690 N   0  0  0  0  0  0  0  0  0  0  0  0
   37.0370   27.6660   34.5260 C   0  0  0  0  0  0  0  0  0  0  0  0
   36.4050   28.8540   34.5650 N   0  0  0  0  0  0  0  0  0  0  0  0
   36.0080   26.1220   30.9770 S   0  0  0  0  0  0  0  0  0  0  0  0
   40.1763   28.1209   34.5003 H   0  0  0  0  0  0  0  0  0  0  0  0
   42.1252   26.7348   34.0035 H   0  0  0  0  0  0  0  0  0  0  0  0
   42.1605   24.3136   34.5940 H   0  0  0  0  0  0  0  0  0  0  0  0
   41.0767   22.4364   35.5343 H   0  0  0  0  0  0  0  0  0  0  0  0
   39.1049   21.3862   36.6498 H   0  0  0  0  0  0  0  0  0  0  0  0
   37.1004   22.7989   37.1560 H   0  0  0  0  0  0  0  0  0  0  0  0
   37.1067   25.1858   36.5558 H   0  0  0  0  0  0  0  0  0  0  0  0
   37.2571   26.7717   36.4351 H   0  0  0  0  0  0  0  0  0  0  0  0
   38.2402   28.2800   36.1384 H   0  0  0  0  0  0  0  0  0  0  0  0
   35.1307   30.2250   33.5741 H   0  0  0  0  0  0  0  0  0  0  0  0
   34.8722   28.7724   31.5646 H   0  0  0  0  0  0  0  0  0  0  0  0
   35.8144   24.8332   31.3995 H   0  0  0  0  0  0  0  0  0  0  0  0
  1 10  1  0
  1 11  1  0
  2  1  2  0
  3  2  1  0
  3  4  2  0
  4  5  1  0
  5 10  2  0
  5  6  1  0
  6  7  2  0
  7  8  1  0
  9  8  2  0
 10  9  1  0
 12 17  2  0
 13 12  1  0
 14 13  2  0
 14 15  1  0
 15 16  2  0
 16 17  1  0
 16 11  1  0
 18 14  1  0
  2 19  1  0
  3 20  1  0
  4 21  1  0
  6 22  1  0
  7 23  1  0
  8 24  1  0
  9 25  1  0
 11 26  1  0
 11 27  1  0
 12 28  1  0
 13 29  1  0
 18 30  1  0
M  ISO  8  19  14  20  14  21  14  22  14  23  14  24  14  25  14  26   8
M  ISO  4  27   8  28  14  29  14  30  11
M  END
>  <minimizedAffinity>  (1) 
-5.11720324

>  <minimizedRMSD>  (1) 
0.373702258

$$$$
