
     RDKit          3D

 46 49  0  0  0  0  0  0  0  0999 V2000
   37.8200   27.4350   35.5570 C   0  0  0  0  0  0  0  0  0  0  0  0
   38.9740   26.5720   35.3650 C   0  0  0  0  0  0  0  0  0  0  0  0
   40.1240   27.0530   34.7450 C   0  0  0  0  0  0  0  0  0  0  0  0
   41.2250   26.2550   34.5660 C   0  0  0  0  0  0  0  0  0  0  0  0
   41.2240   24.9290   35.0030 C   0  0  0  0  0  0  0  0  0  0  0  0
   40.0860   24.4460   35.6190 C   0  0  0  0  0  0  0  0  0  0  0  0
   40.0610   23.1350   36.0620 C   0  0  0  0  0  0  0  0  0  0  0  0
   38.9530   22.6070   36.6820 C   0  0  0  0  0  0  0  0  0  0  0  0
   37.8370   23.4190   36.8620 C   0  0  0  0  0  0  0  0  0  0  0  0
   37.8840   24.7360   36.4080 C   0  0  0  0  0  0  0  0  0  0  0  0
   38.9810   25.2880   35.7850 C   0  0  0  0  0  0  0  0  0  0  0  0
   35.5720   29.0300   33.1330 C   0  0  0  0  0  0  0  0  0  0  0  0
   35.4610   28.1140   32.1090 C   0  0  0  0  0  0  0  0  0  0  0  0
   36.1730   26.9010   32.2380 C   0  0  0  0  0  0  0  0  0  0  0  0
   36.9280   26.6970   33.3590 N   0  0  0  0  0  0  0  0  0  0  0  0
   36.9980   27.6130   34.3120 C   0  0  0  0  0  0  0  0  0  0  0  0
   36.3250   28.7770   34.2080 N   0  0  0  0  0  0  0  0  0  0  0  0
   36.1020   25.8930   31.1950 C   0  0  0  0  0  0  0  0  0  0  0  0
   35.0100   25.6620   30.6340 O   0  0  0  0  0  0  0  0  0  0  0  0
   37.3420   25.2210   30.8830 N   0  0  0  0  0  0  0  0  0  0  0  0
   38.6440   25.8590   30.7020 C   0  0  0  0  0  0  0  0  0  0  0  0
   39.3390   25.3510   29.4590 C   0  0  0  0  0  0  0  0  0  0  0  0
   39.1760   23.8620   29.2790 C   0  0  0  0  0  0  0  0  0  0  0  0
   38.6100   23.2140   30.5380 C   0  0  0  0  0  0  0  0  0  0  0  0
   37.2430   23.7780   30.7430 C   0  0  0  0  0  0  0  0  0  0  0  0
   37.1813   26.9956   36.3374 H   0  0  0  0  0  0  0  0  0  0  0  0
   38.1990   28.4275   35.8422 H   0  0  0  0  0  0  0  0  0  0  0  0
   40.1501   28.0943   34.3915 H   0  0  0  0  0  0  0  0  0  0  0  0
   42.1189   26.6643   34.0726 H   0  0  0  0  0  0  0  0  0  0  0  0
   42.1054   24.2865   34.8606 H   0  0  0  0  0  0  0  0  0  0  0  0
   40.9477   22.5009   35.9147 H   0  0  0  0  0  0  0  0  0  0  0  0
   38.9487   21.5632   37.0290 H   0  0  0  0  0  0  0  0  0  0  0  0
   36.9339   23.0283   37.3538 H   0  0  0  0  0  0  0  0  0  0  0  0
   36.9965   25.3689   36.5554 H   0  0  0  0  0  0  0  0  0  0  0  0
   35.0316   29.9856   33.0643 H   0  0  0  0  0  0  0  0  0  0  0  0
   34.8409   28.3201   31.2241 H   0  0  0  0  0  0  0  0  0  0  0  0
   38.5007   26.9460   30.6130 H   0  0  0  0  0  0  0  0  0  0  0  0
   39.2717   25.6181   31.5726 H   0  0  0  0  0  0  0  0  0  0  0  0
   38.9139   25.8618   28.5824 H   0  0  0  0  0  0  0  0  0  0  0  0
   40.4135   25.5612   29.5650 H   0  0  0  0  0  0  0  0  0  0  0  0
   38.4902   23.6748   28.4396 H   0  0  0  0  0  0  0  0  0  0  0  0
   40.1649   23.4249   29.0762 H   0  0  0  0  0  0  0  0  0  0  0  0
   38.5530   22.1232   30.4084 H   0  0  0  0  0  0  0  0  0  0  0  0
   39.2529   23.4177   31.4071 H   0  0  0  0  0  0  0  0  0  0  0  0
   36.6099   23.5342   29.8771 H   0  0  0  0  0  0  0  0  0  0  0  0
   36.7956   23.3467   31.6506 H   0  0  0  0  0  0  0  0  0  0  0  0
  2  1  1  0
  2 11  1  0
  3  2  2  0
  4  3  1  0
  4  5  2  0
  5  6  1  0
  6 11  2  0
  6  7  1  0
  7  8  2  0
  8  9  1  0
 10  9  2  0
 11 10  1  0
 12 17  2  0
 13 14  2  0
 13 12  1  0
 14 15  1  0
 15 16  2  0
 16  1  1  0
 17 16  1  0
 18 14  1  0
 19 18  2  0
 20 18  1  0
 21 20  1  0
 22 21  1  0
 23 22  1  0
 23 24  1  0
 24 25  1  0
 25 20  1  0
  1 26  1  0
  1 27  1  0
  3 28  1  0
  4 29  1  0
  5 30  1  0
  7 31  1  0
  8 32  1  0
  9 33  1  0
 10 34  1  0
 12 35  1  0
 13 36  1  0
 21 37  1  0
 21 38  1  0
 22 39  1  0
 22 40  1  0
 23 41  1  0
 23 42  1  0
 24 43  1  0
 24 44  1  0
 25 45  1  0
 25 46  1  0
M  ISO  8  26   8  27   8  28  14  29  14  30  14  31  14  32  14  33  14
M  ISO  8  34  14  35  14  36  14  37  13  38  13  39  13  40  13  41  13
M  ISO  5  42  13  43  13  44  13  45  13  46  13
M  END
>  <minimizedAffinity>  (1) 
-6.27913237

>  <minimizedRMSD>  (1) 
1.01697922

$$$$
