
     RDKit          3D

 44 47  0  0  0  0  0  0  0  0999 V2000
   37.8160   27.5020   35.5500 C   0  0  0  0  0  0  0  0  0  0  0  0
   38.9620   26.6260   35.3660 C   0  0  0  0  0  0  0  0  0  0  0  0
   40.1090   27.0830   34.7180 C   0  0  0  0  0  0  0  0  0  0  0  0
   41.2040   26.2730   34.5450 C   0  0  0  0  0  0  0  0  0  0  0  0
   41.2010   24.9560   35.0160 C   0  0  0  0  0  0  0  0  0  0  0  0
   40.0590   24.4960   35.6630 C   0  0  0  0  0  0  0  0  0  0  0  0
   40.0390   23.2000   36.1330 C   0  0  0  0  0  0  0  0  0  0  0  0
   38.9250   22.6990   36.7820 C   0  0  0  0  0  0  0  0  0  0  0  0
   37.8260   23.5160   36.9540 C   0  0  0  0  0  0  0  0  0  0  0  0
   37.8740   24.8190   36.4680 C   0  0  0  0  0  0  0  0  0  0  0  0
   38.9650   25.3520   35.8180 C   0  0  0  0  0  0  0  0  0  0  0  0
   35.5270   29.0500   33.1380 C   0  0  0  0  0  0  0  0  0  0  0  0
   35.4320   28.1320   32.1140 C   0  0  0  0  0  0  0  0  0  0  0  0
   36.1700   26.9300   32.2350 C   0  0  0  0  0  0  0  0  0  0  0  0
   36.9330   26.7430   33.3550 N   0  0  0  0  0  0  0  0  0  0  0  0
   36.9870   27.6590   34.3070 C   0  0  0  0  0  0  0  0  0  0  0  0
   36.2900   28.8060   34.2060 N   0  0  0  0  0  0  0  0  0  0  0  0
   36.1170   25.9180   31.1940 C   0  0  0  0  0  0  0  0  0  0  0  0
   35.0210   25.6960   30.6200 O   0  0  0  0  0  0  0  0  0  0  0  0
   37.3500   25.2360   30.8950 N   0  0  0  0  0  0  0  0  0  0  0  0
   38.6870   25.7610   30.7100 C   0  0  0  0  0  0  0  0  0  0  0  0
   39.2730   25.2390   29.4280 C   0  0  0  0  0  0  0  0  0  0  0  0
   39.0800   23.8830   29.2200 O   0  0  0  0  0  0  0  0  0  0  0  0
   38.5540   23.2280   30.3160 C   0  0  0  0  0  0  0  0  0  0  0  0
   37.2310   23.7890   30.7570 C   0  0  0  0  0  0  0  0  0  0  0  0
   37.1800   27.0839   36.3442 H   0  0  0  0  0  0  0  0  0  0  0  0
   38.2036   28.4973   35.8129 H   0  0  0  0  0  0  0  0  0  0  0  0
   40.1371   28.1146   34.3372 H   0  0  0  0  0  0  0  0  0  0  0  0
   42.0938   26.6643   34.0301 H   0  0  0  0  0  0  0  0  0  0  0  0
   42.0758   24.3035   34.8788 H   0  0  0  0  0  0  0  0  0  0  0  0
   40.9197   22.5566   35.9901 H   0  0  0  0  0  0  0  0  0  0  0  0
   38.9151   21.6644   37.1556 H   0  0  0  0  0  0  0  0  0  0  0  0
   36.9270   23.1433   37.4668 H   0  0  0  0  0  0  0  0  0  0  0  0
   36.9910   25.4593   36.6110 H   0  0  0  0  0  0  0  0  0  0  0  0
   34.9674   29.9949   33.0744 H   0  0  0  0  0  0  0  0  0  0  0  0
   34.8038   28.3269   31.2324 H   0  0  0  0  0  0  0  0  0  0  0  0
   38.6444   26.8595   30.6701 H   0  0  0  0  0  0  0  0  0  0  0  0
   39.3193   25.4418   31.5516 H   0  0  0  0  0  0  0  0  0  0  0  0
   38.8112   25.7843   28.5917 H   0  0  0  0  0  0  0  0  0  0  0  0
   40.3600   25.3945   29.4939 H   0  0  0  0  0  0  0  0  0  0  0  0
   38.4164   22.1676   30.0578 H   0  0  0  0  0  0  0  0  0  0  0  0
   39.2609   23.3599   31.1484 H   0  0  0  0  0  0  0  0  0  0  0  0
   36.4618   23.5522   30.0071 H   0  0  0  0  0  0  0  0  0  0  0  0
   36.9433   23.3465   31.7221 H   0  0  0  0  0  0  0  0  0  0  0  0
  2  1  1  0
  2 11  1  0
  3  2  2  0
  4  3  1  0
  4  5  2  0
  5  6  1  0
  6 11  2  0
  6  7  1  0
  7  8  2  0
  8  9  1  0
 10  9  2  0
 11 10  1  0
 12 17  2  0
 13 14  2  0
 13 12  1  0
 14 15  1  0
 15 16  2  0
 16  1  1  0
 17 16  1  0
 18 14  1  0
 19 18  2  0
 20 18  1  0
 21 20  1  0
 22 21  1  0
 23 22  1  0
 23 24  1  0
 24 25  1  0
 25 20  1  0
  1 26  1  0
  1 27  1  0
  3 28  1  0
  4 29  1  0
  5 30  1  0
  7 31  1  0
  8 32  1  0
  9 33  1  0
 10 34  1  0
 12 35  1  0
 13 36  1  0
 21 37  1  0
 21 38  1  0
 22 39  1  0
 22 40  1  0
 24 41  1  0
 24 42  1  0
 25 43  1  0
 25 44  1  0
M  ISO  8  26   8  27   8  28  14  29  14  30  14  31  14  32  14  33  14
M  ISO  8  34  14  35  14  36  14  37  13  38  13  39  13  40  13  41  13
M  ISO  3  42  13  43  13  44  13
M  END
>  <minimizedAffinity>  (1) 
-6.20976067

>  <minimizedRMSD>  (1) 
0.998137772

$$$$
