
     RDKit          3D

 45 48  0  0  0  0  0  0  0  0999 V2000
   38.0190   27.5540   35.7800 C   0  0  0  0  0  0  0  0  0  0  0  0
   39.0650   26.6020   35.4360 C   0  0  0  0  0  0  0  0  0  0  0  0
   40.2160   27.0320   34.7810 C   0  0  0  0  0  0  0  0  0  0  0  0
   41.2140   26.1500   34.4650 C   0  0  0  0  0  0  0  0  0  0  0  0
   41.1090   24.7980   34.7890 C   0  0  0  0  0  0  0  0  0  0  0  0
   39.9650   24.3650   35.4400 C   0  0  0  0  0  0  0  0  0  0  0  0
   39.8430   23.0310   35.7670 C   0  0  0  0  0  0  0  0  0  0  0  0
   38.7170   22.5580   36.4180 C   0  0  0  0  0  0  0  0  0  0  0  0
   37.6990   23.4500   36.7410 C   0  0  0  0  0  0  0  0  0  0  0  0
   37.8600   24.7880   36.3940 C   0  0  0  0  0  0  0  0  0  0  0  0
   38.9690   25.2900   35.7480 C   0  0  0  0  0  0  0  0  0  0  0  0
   35.3710   29.2430   33.8990 C   0  0  0  0  0  0  0  0  0  0  0  0
   35.4900   28.7490   32.6060 C   0  0  0  0  0  0  0  0  0  0  0  0
   36.5080   27.8070   32.3700 C   0  0  0  0  0  0  0  0  0  0  0  0
   37.3180   27.4240   33.4000 N   0  0  0  0  0  0  0  0  0  0  0  0
   37.1540   27.9350   34.6190 C   0  0  0  0  0  0  0  0  0  0  0  0
   36.1870   28.8390   34.8730 N   0  0  0  0  0  0  0  0  0  0  0  0
   36.6860   27.2540   31.0430 C   0  0  0  0  0  0  0  0  0  0  0  0
   35.8990   26.3580   30.6450 O   0  0  0  0  0  0  0  0  0  0  0  0
   37.7040   27.6500   30.1310 N   0  0  0  0  0  0  0  0  0  0  0  0
   37.2970   28.7300   29.2800 C   0  0  0  0  0  0  0  0  0  0  0  0
   38.2470   29.0540   28.1820 C   0  0  0  0  0  0  0  0  0  0  0  0
   39.5430   28.4490   28.2970 N   0  0  0  0  0  0  0  0  0  0  0  0
   39.5100   27.0700   28.7150 C   0  0  0  0  0  0  0  0  0  0  0  0
   38.9950   26.9880   30.1140 C   0  0  0  0  0  0  0  0  0  0  0  0
   37.3819   27.1059   36.5568 H   0  0  0  0  0  0  0  0  0  0  0  0
   38.5172   28.4711   36.1274 H   0  0  0  0  0  0  0  0  0  0  0  0
   40.3247   28.0936   34.5142 H   0  0  0  0  0  0  0  0  0  0  0  0
   42.1136   26.5139   33.9470 H   0  0  0  0  0  0  0  0  0  0  0  0
   41.9140   24.0929   34.5343 H   0  0  0  0  0  0  0  0  0  0  0  0
   40.6522   22.3328   35.5067 H   0  0  0  0  0  0  0  0  0  0  0  0
   38.6281   21.4925   36.6763 H   0  0  0  0  0  0  0  0  0  0  0  0
   36.7905   23.1064   37.2573 H   0  0  0  0  0  0  0  0  0  0  0  0
   37.0518   25.4885   36.6513 H   0  0  0  0  0  0  0  0  0  0  0  0
   34.5880   29.9822   34.1237 H   0  0  0  0  0  0  0  0  0  0  0  0
   34.8172   29.0802   31.8013 H   0  0  0  0  0  0  0  0  0  0  0  0
   36.3303   28.4633   28.8279 H   0  0  0  0  0  0  0  0  0  0  0  0
   37.2469   29.6242   29.9187 H   0  0  0  0  0  0  0  0  0  0  0  0
   38.3818   30.1455   28.1596 H   0  0  0  0  0  0  0  0  0  0  0  0
   37.8008   28.6474   27.2624 H   0  0  0  0  0  0  0  0  0  0  0  0
   40.0063   28.4982   27.3784 H   0  0  0  0  0  0  0  0  0  0  0  0
   38.8485   26.4996   28.0464 H   0  0  0  0  0  0  0  0  0  0  0  0
   40.5252   26.6486   28.6719 H   0  0  0  0  0  0  0  0  0  0  0  0
   38.8838   25.9357   30.4144 H   0  0  0  0  0  0  0  0  0  0  0  0
   39.6914   27.4683   30.8171 H   0  0  0  0  0  0  0  0  0  0  0  0
  2 11  1  0
  2  1  1  0
  3  2  2  0
  4  3  1  0
  4  5  2  0
  5  6  1  0
  6 11  2  0
  6  7  1  0
  7  8  2  0
  8  9  1  0
 10  9  2  0
 11 10  1  0
 12 17  2  0
 13 12  1  0
 14 13  2  0
 14 15  1  0
 15 16  2  0
 16 17  1  0
 16  1  1  0
 18 14  1  0
 19 18  2  0
 20 18  1  0
 21 20  1  0
 22 23  1  0
 22 21  1  0
 23 24  1  0
 24 25  1  0
 25 20  1  0
  1 26  1  0
  1 27  1  0
  3 28  1  0
  4 29  1  0
  5 30  1  0
  7 31  1  0
  8 32  1  0
  9 33  1  0
 10 34  1  0
 12 35  1  0
 13 36  1  0
 21 37  1  0
 21 38  1  0
 22 39  1  0
 22 40  1  0
 23 41  1  0
 24 42  1  0
 24 43  1  0
 25 44  1  0
 25 45  1  0
M  ISO  8  26   8  27   8  28  14  29  14  30  14  31  14  32  14  33  14
M  ISO  8  34  14  35  14  36  14  37  13  38  13  39  13  40  13  41   5
M  ISO  4  42  13  43  13  44  13  45  13
M  END
>  <minimizedAffinity>  (1) 
-6.06294012

>  <minimizedRMSD>  (1) 
1.13558137

$$$$
