
     RDKit          3D

 53 55  0  0  0  0  0  0  0  0999 V2000
   37.7310   22.6090   36.1520 C   0  0  0  0  0  0  0  0  0  0  0  0
   37.9230   22.6880   34.7440 N   0  0  0  0  0  0  0  0  0  0  0  0
   38.6260   21.8840   33.9000 C   0  0  0  0  0  0  0  0  0  0  0  0
   38.5170   22.3650   32.6260 N   0  0  0  0  0  0  0  0  0  0  0  0
   37.7540   23.4600   32.6820 C   0  0  0  0  0  0  0  0  0  0  0  0
   37.4030   23.6450   33.9560 N   0  0  0  0  0  0  0  0  0  0  0  0
   37.3740   24.3090   31.5160 C   0  0  0  0  0  0  0  0  0  0  0  0
   35.8980   24.0930   31.2370 C   0  0  0  0  0  0  0  0  0  0  0  0
   38.1190   23.8490   30.2690 C   0  0  0  0  0  0  0  0  0  0  0  0
   37.5720   25.7720   31.7780 C   0  0  0  0  0  0  0  0  0  0  0  0
   38.8930   26.0820   32.3740 C   0  0  0  0  0  0  0  0  0  0  0  0
   38.9660   26.9100   33.4920 C   0  0  0  0  0  0  0  0  0  0  0  0
   40.3090   26.9970   33.7950 C   0  0  0  0  0  0  0  0  0  0  0  0
   40.9860   26.2320   32.8650 C   0  0  0  0  0  0  0  0  0  0  0  0
   40.0970   25.7240   32.0620 O   0  0  0  0  0  0  0  0  0  0  0  0
   38.6600   23.5350   36.9230 C   0  0  0  0  0  0  0  0  0  0  0  0
   41.9450   21.7240   36.8740 C   0  0  0  0  0  0  0  0  0  0  0  0
   40.6290   22.0180   37.1800 C   0  0  0  0  0  0  0  0  0  0  0  0
   40.0330   23.1760   36.6370 C   0  0  0  0  0  0  0  0  0  0  0  0
   40.7760   23.9660   35.8280 N   0  0  0  0  0  0  0  0  0  0  0  0
   42.0660   23.6590   35.5400 C   0  0  0  0  0  0  0  0  0  0  0  0
   42.6390   22.5410   36.0650 N   0  0  0  0  0  0  0  0  0  0  0  0
   42.5610   20.5110   37.4450 C   0  0  0  0  0  0  0  0  0  0  0  0
   43.6070   19.9090   36.5770 C   0  0  0  0  0  0  0  0  0  0  0  0
   38.4240   23.3330   38.3990 C   0  0  0  0  0  0  0  0  0  0  0  0
   38.2940   24.9490   36.5470 C   0  0  0  0  0  0  0  0  0  0  0  0
   37.9174   21.5742   36.4753 H   0  0  0  0  0  0  0  0  0  0  0  0
   36.6980   22.9213   36.3650 H   0  0  0  0  0  0  0  0  0  0  0  0
   39.1922   20.9888   34.1968 H   0  0  0  0  0  0  0  0  0  0  0  0
   35.3527   24.0132   32.1890 H   0  0  0  0  0  0  0  0  0  0  0  0
   35.5057   24.9433   30.6599 H   0  0  0  0  0  0  0  0  0  0  0  0
   35.7658   23.1659   30.6599 H   0  0  0  0  0  0  0  0  0  0  0  0
   39.0205   23.2924   30.5649 H   0  0  0  0  0  0  0  0  0  0  0  0
   37.4653   23.1971   29.6709 H   0  0  0  0  0  0  0  0  0  0  0  0
   38.4090   24.7255   29.6709 H   0  0  0  0  0  0  0  0  0  0  0  0
   37.4821   26.3137   30.8249 H   0  0  0  0  0  0  0  0  0  0  0  0
   36.8043   26.0825   32.5021 H   0  0  0  0  0  0  0  0  0  0  0  0
   38.1304   27.3919   34.0207 H   0  0  0  0  0  0  0  0  0  0  0  0
   40.7567   27.5681   34.6217 H   0  0  0  0  0  0  0  0  0  0  0  0
   42.0743   26.0805   32.8130 H   0  0  0  0  0  0  0  0  0  0  0  0
   40.0517   21.3549   37.8410 H   0  0  0  0  0  0  0  0  0  0  0  0
   42.6512   24.3160   34.8797 H   0  0  0  0  0  0  0  0  0  0  0  0
   43.0192   20.7749   38.4096 H   0  0  0  0  0  0  0  0  0  0  0  0
   41.7614   19.7632   37.5520 H   0  0  0  0  0  0  0  0  0  0  0  0
   44.3898   19.4585   37.2049 H   0  0  0  0  0  0  0  0  0  0  0  0
   43.1546   19.1331   35.9419 H   0  0  0  0  0  0  0  0  0  0  0  0
   44.0506   20.6900   35.9419 H   0  0  0  0  0  0  0  0  0  0  0  0
   39.1376   23.9438   38.9714 H   0  0  0  0  0  0  0  0  0  0  0  0
   37.3971   23.6363   38.6510 H   0  0  0  0  0  0  0  0  0  0  0  0
   38.5652   22.2716   38.6510 H   0  0  0  0  0  0  0  0  0  0  0  0
   38.1402   25.5431   37.4599 H   0  0  0  0  0  0  0  0  0  0  0  0
   39.1069   25.3927   35.9534 H   0  0  0  0  0  0  0  0  0  0  0  0
   37.3679   24.9426   35.9534 H   0  0  0  0  0  0  0  0  0  0  0  0
  1 16  1  0
  2  1  1  0
  3  2  1  0
  4  5  1  0
  4  3  2  0
  5  6  2  0
  6  2  1  0
  7 10  1  0
  7  5  1  0
  8  7  1  0
  9  7  1  0
 10 11  1  0
 11 12  2  0
 12 13  1  0
 14 13  2  0
 15 11  1  0
 15 14  1  0
 16 25  1  0
 17 18  2  0
 17 23  1  0
 19 16  1  0
 19 18  1  0
 20 19  2  0
 21 20  1  0
 21 22  2  0
 22 17  1  0
 24 23  1  0
 26 16  1  0
  1 27  1  0
  1 28  1  0
  3 29  1  0
  8 30  1  0
  8 31  1  0
  8 32  1  0
  9 33  1  0
  9 34  1  0
  9 35  1  0
 10 36  1  0
 10 37  1  0
 12 38  1  0
 13 39  1  0
 14 40  1  0
 18 41  1  0
 21 42  1  0
 23 43  1  0
 23 44  1  0
 24 45  1  0
 24 46  1  0
 24 47  1  0
 25 48  1  0
 25 49  1  0
 25 50  1  0
 26 51  1  0
 26 52  1  0
 26 53  1  0
M  ISO  8  27   8  28   8  29  14  30   8  31   8  32   8  33   8  34   8
M  ISO  8  35   8  36   8  37   8  38  14  39  14  40  14  41  14  42  14
M  ISO  8  43   8  44   8  45   8  46   8  47   8  48   8  49   8  50   8
M  ISO  3  51   8  52   8  53   8
M  END
>  <minimizedAffinity>  (1) 
-4.85976458

>  <minimizedRMSD>  (1) 
0.429358244

$$$$
