
     RDKit          3D

 33 35  0  0  0  0  0  0  0  0999 V2000
   38.9400   26.6020   35.3220 C   0  0  0  0  0  0  0  0  0  0  0  0
   40.0710   27.0830   34.6660 C   0  0  0  0  0  0  0  0  0  0  0  0
   41.1630   26.2870   34.4590 C   0  0  0  0  0  0  0  0  0  0  0  0
   41.1810   24.9600   34.8990 C   0  0  0  0  0  0  0  0  0  0  0  0
   40.0560   24.4780   35.5520 C   0  0  0  0  0  0  0  0  0  0  0  0
   40.0480   23.1700   36.0000 C   0  0  0  0  0  0  0  0  0  0  0  0
   38.9640   22.6440   36.6500 C   0  0  0  0  0  0  0  0  0  0  0  0
   37.8450   23.4540   36.8640 C   0  0  0  0  0  0  0  0  0  0  0  0
   37.8830   24.7670   36.4030 C   0  0  0  0  0  0  0  0  0  0  0  0
   38.9610   25.3170   35.7460 C   0  0  0  0  0  0  0  0  0  0  0  0
   37.7900   27.4680   35.5470 C   0  0  0  0  0  0  0  0  0  0  0  0
   35.4790   29.0970   33.2220 C   0  0  0  0  0  0  0  0  0  0  0  0
   35.3900   28.2310   32.1540 C   0  0  0  0  0  0  0  0  0  0  0  0
   36.1440   27.0350   32.2170 C   0  0  0  0  0  0  0  0  0  0  0  0
   36.9100   26.8040   33.3220 N   0  0  0  0  0  0  0  0  0  0  0  0
   36.9560   27.6760   34.3190 C   0  0  0  0  0  0  0  0  0  0  0  0
   36.2480   28.8180   34.2760 N   0  0  0  0  0  0  0  0  0  0  0  0
   36.0950   26.0770   31.1280 C   0  0  0  0  0  0  0  0  0  0  0  0
   34.9770   25.5870   30.8090 O   0  0  0  0  0  0  0  0  0  0  0  0
   37.2530   25.6840   30.4270 N   0  0  0  0  0  0  0  0  0  0  0  0
   40.0856   28.1229   34.3078 H   0  0  0  0  0  0  0  0  0  0  0  0
   42.0410   26.6968   33.9383 H   0  0  0  0  0  0  0  0  0  0  0  0
   42.0591   24.3187   34.7327 H   0  0  0  0  0  0  0  0  0  0  0  0
   40.9322   22.5380   35.8304 H   0  0  0  0  0  0  0  0  0  0  0  0
   38.9734   21.6006   36.9983 H   0  0  0  0  0  0  0  0  0  0  0  0
   36.9572   23.0639   37.3833 H   0  0  0  0  0  0  0  0  0  0  0  0
   37.0010   25.4018   36.5734 H   0  0  0  0  0  0  0  0  0  0  0  0
   37.1585   27.0149   36.3254 H   0  0  0  0  0  0  0  0  0  0  0  0
   38.1772   28.4524   35.8488 H   0  0  0  0  0  0  0  0  0  0  0  0
   34.9056   30.0356   33.2053 H   0  0  0  0  0  0  0  0  0  0  0  0
   34.7564   28.4607   31.2846 H   0  0  0  0  0  0  0  0  0  0  0  0
   37.1832   25.0015   29.6587 H   0  0  0  0  0  0  0  0  0  0  0  0
   38.1690   26.0793   30.6830 H   0  0  0  0  0  0  0  0  0  0  0  0
  1 11  1  0
  1 10  1  0
  2  1  2  0
  3  2  1  0
  3  4  2  0
  4  5  1  0
  5 10  2  0
  5  6  1  0
  6  7  2  0
  7  8  1  0
  9  8  2  0
 10  9  1  0
 12 17  2  0
 13 14  2  0
 13 12  1  0
 14 15  1  0
 15 16  2  0
 16 11  1  0
 17 16  1  0
 18 14  1  0
 19 18  2  0
 20 18  1  0
  2 21  1  0
  3 22  1  0
  4 23  1  0
  6 24  1  0
  7 25  1  0
  8 26  1  0
  9 27  1  0
 11 28  1  0
 11 29  1  0
 12 30  1  0
 13 31  1  0
 20 32  1  0
 20 33  1  0
M  ISO  8  21  14  22  14  23  14  24  14  25  14  26  14  27  14  28   8
M  ISO  3  29   8  30  14  31  14
M  END
>  <minimizedAffinity>  (1) 
-5.64331675

>  <minimizedRMSD>  (1) 
0.176453039

$$$$
