
     RDKit          3D

 32 34  0  0  0  0  0  0  0  0999 V2000
   38.9260   26.6210   35.3230 C   0  0  0  0  0  0  0  0  0  0  0  0
   40.0550   27.0930   34.6570 C   0  0  0  0  0  0  0  0  0  0  0  0
   41.1470   26.2870   34.4510 C   0  0  0  0  0  0  0  0  0  0  0  0
   41.1590   24.9730   34.8990 C   0  0  0  0  0  0  0  0  0  0  0  0
   40.0320   24.4940   35.5660 C   0  0  0  0  0  0  0  0  0  0  0  0
   40.0220   23.1900   36.0210 C   0  0  0  0  0  0  0  0  0  0  0  0
   38.9420   22.6730   36.6790 C   0  0  0  0  0  0  0  0  0  0  0  0
   37.8300   23.4870   36.8920 C   0  0  0  0  0  0  0  0  0  0  0  0
   37.8680   24.7980   36.4230 C   0  0  0  0  0  0  0  0  0  0  0  0
   38.9450   25.3370   35.7580 C   0  0  0  0  0  0  0  0  0  0  0  0
   37.7740   27.4930   35.5470 C   0  0  0  0  0  0  0  0  0  0  0  0
   35.4700   29.1150   33.2160 C   0  0  0  0  0  0  0  0  0  0  0  0
   35.3780   28.2500   32.1470 C   0  0  0  0  0  0  0  0  0  0  0  0
   36.1280   27.0550   32.2180 C   0  0  0  0  0  0  0  0  0  0  0  0
   36.8940   26.8240   33.3240 N   0  0  0  0  0  0  0  0  0  0  0  0
   36.9430   27.6940   34.3200 C   0  0  0  0  0  0  0  0  0  0  0  0
   36.2340   28.8400   34.2730 N   0  0  0  0  0  0  0  0  0  0  0  0
   36.0810   26.0960   31.1290 C   0  0  0  0  0  0  0  0  0  0  0  0
   34.9770   25.5720   30.8270 O   0  0  0  0  0  0  0  0  0  0  0  0
   37.2400   25.7680   30.4390 O   0  0  0  0  0  0  0  0  0  0  0  0
   40.0717   28.1298   34.2898 H   0  0  0  0  0  0  0  0  0  0  0  0
   42.0250   26.6880   33.9235 H   0  0  0  0  0  0  0  0  0  0  0  0
   42.0338   24.3273   34.7323 H   0  0  0  0  0  0  0  0  0  0  0  0
   40.9029   22.5538   35.8499 H   0  0  0  0  0  0  0  0  0  0  0  0
   38.9495   21.6321   37.0348 H   0  0  0  0  0  0  0  0  0  0  0  0
   36.9436   23.1028   37.4180 H   0  0  0  0  0  0  0  0  0  0  0  0
   36.9891   25.4371   36.5936 H   0  0  0  0  0  0  0  0  0  0  0  0
   37.1423   27.0448   36.3281 H   0  0  0  0  0  0  0  0  0  0  0  0
   38.1615   28.4782   35.8457 H   0  0  0  0  0  0  0  0  0  0  0  0
   34.8991   30.0551   33.1964 H   0  0  0  0  0  0  0  0  0  0  0  0
   34.7474   28.4803   31.2756 H   0  0  0  0  0  0  0  0  0  0  0  0
   37.2058   25.1138   29.6967 H   0  0  0  0  0  0  0  0  0  0  0  0
  1 11  1  0
  1 10  1  0
  2  1  2  0
  3  2  1  0
  3  4  2  0
  4  5  1  0
  5 10  2  0
  5  6  1  0
  6  7  2  0
  7  8  1  0
  9  8  2  0
 10  9  1  0
 12 17  2  0
 13 14  2  0
 13 12  1  0
 14 15  1  0
 15 16  2  0
 16 11  1  0
 17 16  1  0
 18 14  1  0
 19 18  2  0
 20 18  1  0
  2 21  1  0
  3 22  1  0
  4 23  1  0
  6 24  1  0
  7 25  1  0
  8 26  1  0
  9 27  1  0
 11 28  1  0
 11 29  1  0
 12 30  1  0
 13 31  1  0
 20 32  1  0
M  ISO  8  21  14  22  14  23  14  24  14  25  14  26  14  27  14  28   8
M  ISO  4  29   8  30  14  31  14  32   3
M  END
>  <minimizedAffinity>  (1) 
-5.65369797

>  <minimizedRMSD>  (1) 
0.16389659

$$$$
