
     RDKit          3D

 30 33  0  0  1  0  0  0  0  0999 V2000
   38.4150   25.8430   35.1530 C   0  0  2  0  0  0  0  0  0  0  0  0
   39.2020   27.1310   35.3960 C   0  0  0  0  0  0  0  0  0  0  0  0
   37.6950   27.0990   35.3990 C   0  0  1  0  0  0  0  0  0  0  0  0
   39.6070   22.8980   37.0100 C   0  0  0  0  0  0  0  0  0  0  0  0
   38.9090   22.9940   38.2370 C   0  0  0  0  0  0  0  0  0  0  0  0
   38.0190   24.0810   38.4200 C   0  0  0  0  0  0  0  0  0  0  0  0
   37.8890   24.9750   37.3920 N   0  0  0  0  0  0  0  0  0  0  0  0
   38.5880   24.8350   36.2250 C   0  0  0  0  0  0  0  0  0  0  0  0
   39.4350   23.7980   36.0530 N   0  0  0  0  0  0  0  0  0  0  0  0
   37.0580   27.8480   34.3680 N   0  0  0  0  0  0  0  0  0  0  0  0
   36.1540   28.8240   34.5660 C   0  0  0  0  0  0  0  0  0  0  0  0
   35.7450   29.3290   33.4060 N   0  0  0  0  0  0  0  0  0  0  0  0
   36.3880   28.6800   32.4180 C   0  0  0  0  0  0  0  0  0  0  0  0
   36.2830   28.8660   31.0540 C   0  0  0  0  0  0  0  0  0  0  0  0
   37.0620   28.0560   30.3060 N   0  0  0  0  0  0  0  0  0  0  0  0
   37.8760   27.1380   30.9020 C   0  0  0  0  0  0  0  0  0  0  0  0
   37.9580   26.9770   32.2510 N   0  0  0  0  0  0  0  0  0  0  0  0
   37.2130   27.7490   33.0340 C   0  0  0  0  0  0  0  0  0  0  0  0
   35.4070   29.8490   30.5330 N   0  0  0  0  0  0  0  0  0  0  0  0
   38.3092   25.0811   34.3667 H   0  0  0  0  0  0  0  0  0  0  0  0
   39.7568   27.2747   36.3349 H   0  0  0  0  0  0  0  0  0  0  0  0
   39.9794   27.6952   34.8599 H   0  0  0  0  0  0  0  0  0  0  0  0
   36.8798   27.3400   36.0971 H   0  0  0  0  0  0  0  0  0  0  0  0
   40.3039   22.0625   36.8480 H   0  0  0  0  0  0  0  0  0  0  0  0
   39.0537   22.2439   39.0285 H   0  0  0  0  0  0  0  0  0  0  0  0
   37.4526   24.2021   39.3552 H   0  0  0  0  0  0  0  0  0  0  0  0
   35.8013   29.1587   35.5527 H   0  0  0  0  0  0  0  0  0  0  0  0
   38.4972   26.4958   30.2604 H   0  0  0  0  0  0  0  0  0  0  0  0
   35.3319   29.9842   29.5147 H   0  0  0  0  0  0  0  0  0  0  0  0
   34.8449   30.4288   31.1723 H   0  0  0  0  0  0  0  0  0  0  0  0
  1  2  1  0
  1  3  1  0
  1  8  1  0
  2  3  1  0
  4  5  2  0
  5  6  1  0
  7  6  2  0
  8  7  1  0
  9  8  2  0
  9  4  1  0
 10 11  1  0
 10  3  1  0
 12 11  2  0
 13 18  2  0
 13 12  1  0
 14 13  1  0
 15 16  1  0
 15 14  2  0
 16 17  2  0
 17 18  1  0
 18 10  1  0
 19 14  1  0
  1 20  1  6
  2 21  1  0
  2 22  1  0
  3 23  1  1
  4 24  1  0
  5 25  1  0
  6 26  1  0
 11 27  1  0
 16 28  1  0
 19 29  1  0
 19 30  1  0
M  ISO  8  20  13  21  13  22  13  23  13  24  14  25  14  26  14  27  14
M  ISO  1  28  14
M  END
>  <minimizedAffinity>  (1) 
-5.22355413

>  <minimizedRMSD>  (1) 
0.836987615

$$$$
