
     RDKit          3D

 20 21  0  0  1  0  0  0  0  0999 V2000
   39.7130   25.1460   34.5650 C   0  0  2  0  0  0  0  0  0  0  0  0
   40.5680   26.3730   34.7810 C   0  0  0  0  0  0  0  0  0  0  0  0
   39.1650   26.4770   34.2460 C   0  0  2  0  0  0  0  0  0  0  0  0
   39.7830   22.9340   37.5050 C   0  0  0  0  0  0  0  0  0  0  0  0
   38.5630   23.2000   38.1420 C   0  0  0  0  0  0  0  0  0  0  0  0
   37.7250   24.1440   37.5340 C   0  0  0  0  0  0  0  0  0  0  0  0
   38.1670   24.7200   36.3770 N   0  0  0  0  0  0  0  0  0  0  0  0
   39.3490   24.4350   35.7980 C   0  0  0  0  0  0  0  0  0  0  0  0
   40.1730   23.5170   36.3820 N   0  0  0  0  0  0  0  0  0  0  0  0
   38.2800   27.2320   35.1790 C   0  0  0  0  0  0  0  0  0  0  0  0
   37.0500   27.5820   35.1120 O   0  0  0  0  0  0  0  0  0  0  0  0
   38.7620   27.7030   36.3870 O   0  0  0  0  0  0  0  0  0  0  0  0
   39.7537   24.2127   33.9843 H   0  0  0  0  0  0  0  0  0  0  0  0
   40.7989   26.7149   35.8007 H   0  0  0  0  0  0  0  0  0  0  0  0
   41.5626   26.7066   34.4501 H   0  0  0  0  0  0  0  0  0  0  0  0
   38.6328   26.8258   33.3488 H   0  0  0  0  0  0  0  0  0  0  0  0
   40.4568   22.1967   37.9658 H   0  0  0  0  0  0  0  0  0  0  0  0
   38.2772   22.6918   39.0748 H   0  0  0  0  0  0  0  0  0  0  0  0
   36.7511   24.4104   37.9705 H   0  0  0  0  0  0  0  0  0  0  0  0
   38.1641   28.2029   36.9975 H   0  0  0  0  0  0  0  0  0  0  0  0
  1  2  1  0
  1  8  1  0
  3  1  1  0
  3  2  1  0
  3 10  1  0
  4  5  2  0
  6  5  1  0
  7  6  2  0
  8  7  1  0
  8  9  2  0
  9  4  1  0
 10 12  1  0
 11 10  2  0
  1 13  1  6
  2 14  1  0
  2 15  1  0
  3 16  1  6
  4 17  1  0
  5 18  1  0
  6 19  1  0
 12 20  1  0
M  ISO  8  13  13  14  13  15  13  16  13  17  14  18  14  19  14  20   3
M  END
>  <minimizedAffinity>  (1) 
-4.04184866

>  <minimizedRMSD>  (1) 
1.54565167

$$$$
