
     RDKit          3D

 24 26  0  0  1  0  0  0  0  0999 V2000
   38.6020   25.6300   35.0330 C   0  0  2  0  0  0  0  0  0  0  0  0
   39.3720   26.9380   35.1760 C   0  0  0  0  0  0  0  0  0  0  0  0
   37.8720   26.9080   35.0850 C   0  0  1  0  0  0  0  0  0  0  0  0
   39.6330   22.9390   37.3260 C   0  0  0  0  0  0  0  0  0  0  0  0
   38.8470   23.1820   38.4770 C   0  0  0  0  0  0  0  0  0  0  0  0
   37.9560   24.2820   38.4480 C   0  0  0  0  0  0  0  0  0  0  0  0
   37.9120   25.0390   37.3110 N   0  0  0  0  0  0  0  0  0  0  0  0
   38.6980   24.7550   36.2240 C   0  0  0  0  0  0  0  0  0  0  0  0
   39.5480   23.7070   36.2480 N   0  0  0  0  0  0  0  0  0  0  0  0
   37.1510   27.4770   33.9070 C   0  0  0  0  0  0  0  0  0  0  0  0
   37.9980   27.5430   32.6230 C   0  0  0  0  0  0  0  0  0  0  0  0
   36.7540   26.6850   32.7400 C   0  0  0  0  0  0  0  0  0  0  0  0
   38.5465   24.7815   34.3352 H   0  0  0  0  0  0  0  0  0  0  0  0
   39.8653   27.1905   36.1262 H   0  0  0  0  0  0  0  0  0  0  0  0
   40.1850   27.4379   34.6290 H   0  0  0  0  0  0  0  0  0  0  0  0
   37.0483   27.2884   35.7070 H   0  0  0  0  0  0  0  0  0  0  0  0
   40.3332   22.0906   37.3251 H   0  0  0  0  0  0  0  0  0  0  0  0
   38.9255   22.5377   39.3651 H   0  0  0  0  0  0  0  0  0  0  0  0
   37.3195   24.5197   39.3131 H   0  0  0  0  0  0  0  0  0  0  0  0
   36.5673   28.1502   34.5520 H   0  0  0  0  0  0  0  0  0  0  0  0
   38.9944   27.0782   32.5881 H   0  0  0  0  0  0  0  0  0  0  0  0
   38.3550   28.3348   31.9480 H   0  0  0  0  0  0  0  0  0  0  0  0
   35.8489   26.9599   32.1785 H   0  0  0  0  0  0  0  0  0  0  0  0
   36.5425   25.6181   32.5757 H   0  0  0  0  0  0  0  0  0  0  0  0
  1  3  1  0
  1  2  1  0
  1  8  1  0
  3  2  1  0
  4  5  2  0
  6  5  1  0
  7  6  2  0
  8  9  2  0
  8  7  1  0
  9  4  1  0
 10  3  1  0
 11 12  1  0
 11 10  1  0
 12 10  1  0
  1 13  1  6
  2 14  1  0
  2 15  1  0
  3 16  1  1
  4 17  1  0
  5 18  1  0
  6 19  1  0
 10 20  1  0
 11 21  1  0
 11 22  1  0
 12 23  1  0
 12 24  1  0
M  ISO  8  13  13  14  13  15  13  16  13  17  14  18  14  19  14  20  13
M  ISO  4  21  13  22  13  23  13  24  13
M  END
>  <minimizedAffinity>  (1) 
-3.95297122

>  <minimizedRMSD>  (1) 
0.728239357

$$$$
