
     RDKit          3D

 19 20  0  0  1  0  0  0  0  0999 V2000
   38.7700   25.5920   34.8910 C   0  0  2  0  0  0  0  0  0  0  0  0
   39.9960   26.4590   34.6790 C   0  0  0  0  0  0  0  0  0  0  0  0
   38.6570   27.0590   35.0170 C   0  0  2  0  0  0  0  0  0  0  0  0
   39.7900   22.9820   37.2800 C   0  0  0  0  0  0  0  0  0  0  0  0
   38.8850   23.1610   38.3510 C   0  0  0  0  0  0  0  0  0  0  0  0
   37.9230   24.1950   38.2230 C   0  0  0  0  0  0  0  0  0  0  0  0
   37.9290   24.9490   37.0810 N   0  0  0  0  0  0  0  0  0  0  0  0
   38.8300   24.7240   36.0850 C   0  0  0  0  0  0  0  0  0  0  0  0
   39.7520   23.7530   36.1780 N   0  0  0  0  0  0  0  0  0  0  0  0
   38.6500   27.6300   36.3730 N   0  0  0  0  0  0  0  0  0  0  0  0
   38.1864   24.8535   34.3217 H   0  0  0  0  0  0  0  0  0  0  0  0
   40.8078   26.4618   35.4213 H   0  0  0  0  0  0  0  0  0  0  0  0
   40.7370   26.5908   33.8768 H   0  0  0  0  0  0  0  0  0  0  0  0
   37.9608   27.7862   34.5738 H   0  0  0  0  0  0  0  0  0  0  0  0
   40.5484   22.1883   37.3496 H   0  0  0  0  0  0  0  0  0  0  0  0
   38.9253   22.5243   39.2471 H   0  0  0  0  0  0  0  0  0  0  0  0
   37.1907   24.3861   39.0213 H   0  0  0  0  0  0  0  0  0  0  0  0
   38.6593   26.8683   37.0663 H   0  0  0  0  0  0  0  0  0  0  0  0
   39.4838   28.2210   36.5010 H   0  0  0  0  0  0  0  0  0  0  0  0
  1  3  1  0
  1  8  1  0
  2  1  1  0
  2  3  1  0
  3 10  1  0
  4  5  2  0
  6  5  1  0
  7  6  2  0
  8  9  2  0
  8  7  1  0
  9  4  1  0
  1 11  1  6
  2 12  1  0
  2 13  1  0
  3 14  1  6
  4 15  1  0
  5 16  1  0
  6 17  1  0
 10 18  1  0
 10 19  1  0
M  ISO  8  11  13  12  13  13  13  14  13  15  14  16  14  17  14  18   5
M  ISO  1  19   5
M  END
>  <minimizedAffinity>  (1) 
-3.81233716

>  <minimizedRMSD>  (1) 
0.623179495

$$$$
