
     RDKit          3D

 29 30  0  0  1  0  0  0  0  0999 V2000
   38.0300   23.5500   34.5950 C   0  0  2  0  0  0  0  0  0  0  0  0
   39.1640   23.7880   33.6350 C   0  0  0  0  0  0  0  0  0  0  0  0
   38.0440   24.7790   33.8290 C   0  0  2  0  0  0  0  0  0  0  0  0
   39.8840   22.8330   37.6960 C   0  0  0  0  0  0  0  0  0  0  0  0
   39.0090   23.3410   38.6840 C   0  0  0  0  0  0  0  0  0  0  0  0
   37.8000   23.9160   38.2530 C   0  0  0  0  0  0  0  0  0  0  0  0
   37.5470   23.9490   36.9370 N   0  0  0  0  0  0  0  0  0  0  0  0
   38.4090   23.4500   36.0010 C   0  0  0  0  0  0  0  0  0  0  0  0
   39.5790   22.8930   36.4060 N   0  0  0  0  0  0  0  0  0  0  0  0
   38.5350   26.1170   34.2180 C   0  0  0  0  0  0  0  0  0  0  0  0
   38.6580   27.1180   33.0910 C   0  0  0  0  0  0  0  0  0  0  0  0
   37.3750   26.7610   35.0230 C   0  0  0  0  0  0  0  0  0  0  0  0
   39.7040   26.1360   35.1620 C   0  0  0  0  0  0  0  0  0  0  0  0
   37.2279   22.8143   34.7547 H   0  0  0  0  0  0  0  0  0  0  0  0
   39.2375   23.2058   32.7046 H   0  0  0  0  0  0  0  0  0  0  0  0
   40.2621   23.8113   33.6958 H   0  0  0  0  0  0  0  0  0  0  0  0
   37.2016   25.2535   33.3043 H   0  0  0  0  0  0  0  0  0  0  0  0
   40.8374   22.3786   38.0033 H   0  0  0  0  0  0  0  0  0  0  0  0
   39.2651   23.2883   39.7525 H   0  0  0  0  0  0  0  0  0  0  0  0
   37.0811   24.3277   38.9766 H   0  0  0  0  0  0  0  0  0  0  0  0
   38.7821   28.1277   33.5094 H   0  0  0  0  0  0  0  0  0  0  0  0
   39.5321   26.8676   32.4720 H   0  0  0  0  0  0  0  0  0  0  0  0
   37.7493   27.0867   32.4720 H   0  0  0  0  0  0  0  0  0  0  0  0
   37.5713   26.6520   36.0998 H   0  0  0  0  0  0  0  0  0  0  0  0
   37.3017   27.8290   34.7699 H   0  0  0  0  0  0  0  0  0  0  0  0
   36.4298   26.2585   34.7699 H   0  0  0  0  0  0  0  0  0  0  0  0
   39.3378   26.1300   36.1992 H   0  0  0  0  0  0  0  0  0  0  0  0
   40.3296   25.2479   34.9889 H   0  0  0  0  0  0  0  0  0  0  0  0
   40.3004   27.0440   34.9889 H   0  0  0  0  0  0  0  0  0  0  0  0
  1  8  1  0
  2  3  1  0
  2  1  1  0
  3 10  1  0
  3  1  1  0
  4  5  2  0
  6  5  1  0
  7  6  2  0
  8  9  2  0
  8  7  1  0
  9  4  1  0
 10 12  1  0
 10 13  1  0
 11 10  1  0
  1 14  1  6
  2 15  1  0
  2 16  1  0
  3 17  1  6
  4 18  1  0
  5 19  1  0
  6 20  1  0
 11 21  1  0
 11 22  1  0
 11 23  1  0
 12 24  1  0
 12 25  1  0
 12 26  1  0
 13 27  1  0
 13 28  1  0
 13 29  1  0
M  ISO  8  14  13  15  13  16  13  17  13  18  14  19  14  20  14  21   8
M  ISO  8  22   8  23   8  24   8  25   8  26   8  27   8  28   8  29   8
M  END
>  <minimizedAffinity>  (1) 
-3.80469227

>  <minimizedRMSD>  (1) 
2.60218239

$$$$
