
     RDKit          3D

 20 21  0  0  1  0  0  0  0  0999 V2000
   39.8050   22.8930   37.3440 C   0  0  0  0  0  0  0  0  0  0  0  0
   39.0950   23.1620   38.5380 C   0  0  0  0  0  0  0  0  0  0  0  0
   38.0160   24.0710   38.4290 C   0  0  0  0  0  0  0  0  0  0  0  0
   37.7430   24.6100   37.2190 N   0  0  0  0  0  0  0  0  0  0  0  0
   38.4630   24.3150   36.0920 C   0  0  0  0  0  0  0  0  0  0  0  0
   39.4950   23.4530   36.1630 N   0  0  0  0  0  0  0  0  0  0  0  0
   38.0940   24.9530   34.8220 C   0  0  2  0  0  0  0  0  0  0  0  0
   39.2660   25.5280   34.0470 C   0  0  0  0  0  0  0  0  0  0  0  0
   38.1880   26.4070   34.6220 C   0  0  2  0  0  0  0  0  0  0  0  0
   38.7050   27.3560   35.6590 C   0  0  0  0  0  0  0  0  0  0  0  0
   40.6514   22.1917   37.3848 H   0  0  0  0  0  0  0  0  0  0  0  0
   39.3659   22.6920   39.4949 H   0  0  0  0  0  0  0  0  0  0  0  0
   37.4119   24.3337   39.3100 H   0  0  0  0  0  0  0  0  0  0  0  0
   37.2687   24.2449   34.6562 H   0  0  0  0  0  0  0  0  0  0  0  0
   39.3390   25.3787   32.9596 H   0  0  0  0  0  0  0  0  0  0  0  0
   40.3622   25.4744   34.1210 H   0  0  0  0  0  0  0  0  0  0  0  0
   37.4265   27.1239   34.2813 H   0  0  0  0  0  0  0  0  0  0  0  0
   38.4881   26.9578   36.6612 H   0  0  0  0  0  0  0  0  0  0  0  0
   39.7920   27.4739   35.5387 H   0  0  0  0  0  0  0  0  0  0  0  0
   38.2146   28.3333   35.5387 H   0  0  0  0  0  0  0  0  0  0  0  0
  1  2  2  0
  3  2  1  0
  4  3  2  0
  5  6  2  0
  5  4  1  0
  6  1  1  0
  7  5  1  0
  8  9  1  0
  8  7  1  0
  9  7  1  0
  9 10  1  0
  1 11  1  0
  2 12  1  0
  3 13  1  0
  7 14  1  6
  8 15  1  0
  8 16  1  0
  9 17  1  6
 10 18  1  0
 10 19  1  0
 10 20  1  0
M  ISO  8  11  14  12  14  13  14  14  13  15  13  16  13  17  13  18   8
M  ISO  2  19   8  20   8
M  END
>  <minimizedAffinity>  (1) 
-3.45541525

>  <minimizedRMSD>  (1) 
1.04214418

$$$$
