
     RDKit          3D

 53 55  0  0  0  0  0  0  0  0999 V2000
   37.7910   22.6000   36.1560 C   0  0  0  0  0  0  0  0  0  0  0  0
   37.9090   22.6290   34.7350 N   0  0  0  0  0  0  0  0  0  0  0  0
   38.5960   21.8030   33.8840 C   0  0  0  0  0  0  0  0  0  0  0  0
   38.4100   22.2270   32.6040 N   0  0  0  0  0  0  0  0  0  0  0  0
   37.6240   23.2970   32.6560 C   0  0  0  0  0  0  0  0  0  0  0  0
   37.3330   23.5250   33.9330 N   0  0  0  0  0  0  0  0  0  0  0  0
   37.1360   24.0950   31.4840 C   0  0  0  0  0  0  0  0  0  0  0  0
   35.7560   23.6020   31.1020 C   0  0  0  0  0  0  0  0  0  0  0  0
   38.0320   23.7960   30.2750 C   0  0  0  0  0  0  0  0  0  0  0  0
   37.0490   25.5530   31.7630 C   0  0  0  0  0  0  0  0  0  0  0  0
   38.1640   26.3530   31.3880 N   0  0  0  0  0  0  0  0  0  0  0  0
   39.1290   26.4800   32.3580 C   0  0  0  0  0  0  0  0  0  0  0  0
   40.1550   27.2720   31.8810 C   0  0  0  0  0  0  0  0  0  0  0  0
   39.8180   27.6290   30.6210 N   0  0  0  0  0  0  0  0  0  0  0  0
   38.6330   27.0610   30.3780 C   0  0  0  0  0  0  0  0  0  0  0  0
   38.7140   23.5780   36.8340 C   0  0  0  0  0  0  0  0  0  0  0  0
   41.9710   21.6940   36.8960 C   0  0  0  0  0  0  0  0  0  0  0  0
   40.6560   22.0240   37.1680 C   0  0  0  0  0  0  0  0  0  0  0  0
   40.0990   23.1720   36.5880 C   0  0  0  0  0  0  0  0  0  0  0  0
   40.8820   23.9240   35.7710 N   0  0  0  0  0  0  0  0  0  0  0  0
   42.1630   23.5860   35.5170 C   0  0  0  0  0  0  0  0  0  0  0  0
   42.7020   22.4670   36.0840 N   0  0  0  0  0  0  0  0  0  0  0  0
   42.5430   20.4830   37.5150 C   0  0  0  0  0  0  0  0  0  0  0  0
   43.2130   19.5770   36.5440 C   0  0  0  0  0  0  0  0  0  0  0  0
   38.4890   23.5010   38.3300 C   0  0  0  0  0  0  0  0  0  0  0  0
   38.4080   24.9690   36.3340 C   0  0  0  0  0  0  0  0  0  0  0  0
   38.0313   21.5862   36.5088 H   0  0  0  0  0  0  0  0  0  0  0  0
   36.7593   22.8843   36.4104 H   0  0  0  0  0  0  0  0  0  0  0  0
   39.2011   20.9358   34.1870 H   0  0  0  0  0  0  0  0  0  0  0  0
   35.1755   23.3946   32.0131 H   0  0  0  0  0  0  0  0  0  0  0  0
   35.2429   24.3724   30.5077 H   0  0  0  0  0  0  0  0  0  0  0  0
   35.8472   22.6808   30.5077 H   0  0  0  0  0  0  0  0  0  0  0  0
   39.0213   23.4658   30.6246 H   0  0  0  0  0  0  0  0  0  0  0  0
   37.5742   23.0019   29.6668 H   0  0  0  0  0  0  0  0  0  0  0  0
   38.1428   24.7058   29.6668 H   0  0  0  0  0  0  0  0  0  0  0  0
   36.1688   25.9405   31.2290 H   0  0  0  0  0  0  0  0  0  0  0  0
   36.9997   25.6301   32.8592 H   0  0  0  0  0  0  0  0  0  0  0  0
   39.0904   26.0226   33.3576 H   0  0  0  0  0  0  0  0  0  0  0  0
   41.0696   27.5573   32.4216 H   0  0  0  0  0  0  0  0  0  0  0  0
   38.0977   27.1733   29.4236 H   0  0  0  0  0  0  0  0  0  0  0  0
   40.0519   21.3906   37.8342 H   0  0  0  0  0  0  0  0  0  0  0  0
   42.7746   24.2132   34.8517 H   0  0  0  0  0  0  0  0  0  0  0  0
   43.2823   20.7935   38.2680 H   0  0  0  0  0  0  0  0  0  0  0  0
   41.7068   19.9209   37.9563 H   0  0  0  0  0  0  0  0  0  0  0  0
   43.7807   18.8093   37.0903 H   0  0  0  0  0  0  0  0  0  0  0  0
   42.4548   19.0918   35.9118 H   0  0  0  0  0  0  0  0  0  0  0  0
   43.8990   20.1599   35.9118 H   0  0  0  0  0  0  0  0  0  0  0  0
   39.4036   23.8140   38.8549 H   0  0  0  0  0  0  0  0  0  0  0  0
   37.6592   24.1663   38.6107 H   0  0  0  0  0  0  0  0  0  0  0  0
   38.2408   22.4668   38.6107 H   0  0  0  0  0  0  0  0  0  0  0  0
   38.2599   25.6424   37.1911 H   0  0  0  0  0  0  0  0  0  0  0  0
   39.2477   25.3321   35.7233 H   0  0  0  0  0  0  0  0  0  0  0  0
   37.4934   24.9462   35.7233 H   0  0  0  0  0  0  0  0  0  0  0  0
  1 16  1  0
  2  1  1  0
  3  2  1  0
  4  5  1  0
  4  3  2  0
  5  6  2  0
  6  2  1  0
  7 10  1  0
  7  5  1  0
  8  7  1  0
  9  7  1  0
 11 10  1  0
 11 12  1  0
 13 12  2  0
 14 13  1  0
 15 14  2  0
 15 11  1  0
 16 25  1  0
 17 18  2  0
 17 23  1  0
 19 16  1  0
 19 18  1  0
 20 19  2  0
 21 20  1  0
 21 22  2  0
 22 17  1  0
 24 23  1  0
 26 16  1  0
  1 27  1  0
  1 28  1  0
  3 29  1  0
  8 30  1  0
  8 31  1  0
  8 32  1  0
  9 33  1  0
  9 34  1  0
  9 35  1  0
 10 36  1  0
 10 37  1  0
 12 38  1  0
 13 39  1  0
 15 40  1  0
 18 41  1  0
 21 42  1  0
 23 43  1  0
 23 44  1  0
 24 45  1  0
 24 46  1  0
 24 47  1  0
 25 48  1  0
 25 49  1  0
 25 50  1  0
 26 51  1  0
 26 52  1  0
 26 53  1  0
M  ISO  8  27   8  28   8  29  14  30   8  31   8  32   8  33   8  34   8
M  ISO  8  35   8  36   8  37   8  38  14  39  14  40  14  41  14  42  14
M  ISO  8  43   8  44   8  45   8  46   8  47   8  48   8  49   8  50   8
M  ISO  3  51   8  52   8  53   8
M  END
>  <minimizedAffinity>  (1) 
-4.70500898

>  <minimizedRMSD>  (1) 
0.90718919

$$$$
