
     RDKit          3D

 33 35  0  0  1  0  0  0  0  0999 V2000
   37.8640   22.4420   34.7460 C   0  0  2  0  0  0  0  0  0  0  0  0
   38.9220   21.9010   33.8230 C   0  0  0  0  0  0  0  0  0  0  0  0
   38.2770   23.2480   33.5720 C   0  0  2  0  0  0  0  0  0  0  0  0
   39.9170   22.7150   37.7760 C   0  0  0  0  0  0  0  0  0  0  0  0
   39.1140   23.4670   38.6580 C   0  0  0  0  0  0  0  0  0  0  0  0
   37.8530   23.8770   38.1780 C   0  0  0  0  0  0  0  0  0  0  0  0
   37.4970   23.5280   36.9210 N   0  0  0  0  0  0  0  0  0  0  0  0
   38.3160   22.7900   36.0960 C   0  0  0  0  0  0  0  0  0  0  0  0
   39.5130   22.3950   36.5330 N   0  0  0  0  0  0  0  0  0  0  0  0
   39.2560   24.3630   33.6240 C   0  0  0  0  0  0  0  0  0  0  0  0
   38.5790   25.6390   33.4840 N   0  0  0  0  0  0  0  0  0  0  0  0
   38.4160   26.2890   34.7720 C   0  0  0  0  0  0  0  0  0  0  0  0
   37.0670   26.9250   34.9120 C   0  0  0  0  0  0  0  0  0  0  0  0
   36.6860   27.6490   33.7860 O   0  0  0  0  0  0  0  0  0  0  0  0
   36.7340   26.9050   32.6330 C   0  0  0  0  0  0  0  0  0  0  0  0
   37.2570   25.5130   32.9020 C   0  0  0  0  0  0  0  0  0  0  0  0
   36.8792   22.1202   35.1155 H   0  0  0  0  0  0  0  0  0  0  0  0
   39.9689   21.8423   34.1556 H   0  0  0  0  0  0  0  0  0  0  0  0
   39.0591   20.9764   33.2430 H   0  0  0  0  0  0  0  0  0  0  0  0
   37.6648   23.7656   32.8188 H   0  0  0  0  0  0  0  0  0  0  0  0
   40.9076   22.3784   38.1157 H   0  0  0  0  0  0  0  0  0  0  0  0
   39.4550   23.7217   39.6723 H   0  0  0  0  0  0  0  0  0  0  0  0
   37.1745   24.4672   38.8116 H   0  0  0  0  0  0  0  0  0  0  0  0
   39.7838   24.3369   34.5887 H   0  0  0  0  0  0  0  0  0  0  0  0
   39.9723   24.2471   32.7973 H   0  0  0  0  0  0  0  0  0  0  0  0
   38.5392   25.5386   35.5668 H   0  0  0  0  0  0  0  0  0  0  0  0
   39.1753   27.0809   34.8518 H   0  0  0  0  0  0  0  0  0  0  0  0
   36.3233   26.1338   35.0878 H   0  0  0  0  0  0  0  0  0  0  0  0
   37.1228   27.6315   35.7533 H   0  0  0  0  0  0  0  0  0  0  0  0
   37.3972   27.4042   31.9113 H   0  0  0  0  0  0  0  0  0  0  0  0
   35.7141   26.8219   32.2295 H   0  0  0  0  0  0  0  0  0  0  0  0
   36.5883   24.9913   33.6025 H   0  0  0  0  0  0  0  0  0  0  0  0
   37.3028   24.9335   31.9681 H   0  0  0  0  0  0  0  0  0  0  0  0
  1  8  1  0
  2  1  1  0
  3 10  1  0
  3  2  1  0
  3  1  1  0
  4  5  2  0
  6  5  1  0
  7  6  2  0
  8  9  2  0
  8  7  1  0
  9  4  1  0
 11 10  1  0
 11 12  1  0
 12 13  1  0
 14 13  1  0
 15 16  1  0
 15 14  1  0
 16 11  1  0
  1 17  1  1
  2 18  1  0
  2 19  1  0
  3 20  1  6
  4 21  1  0
  5 22  1  0
  6 23  1  0
 10 24  1  0
 10 25  1  0
 12 26  1  0
 12 27  1  0
 13 28  1  0
 13 29  1  0
 15 30  1  0
 15 31  1  0
 16 32  1  0
 16 33  1  0
M  ISO  8  17  13  18  13  19  13  20  13  21  14  22  14  23  14  24   8
M  ISO  8  25   8  26  13  27  13  28  13  29  13  30  13  31  13  32  13
M  ISO  1  33  13
M  END
>  <minimizedAffinity>  (1) 
-4.0430088

>  <minimizedRMSD>  (1) 
2.91480136

$$$$
