
     RDKit          3D

 48 49  0  0  0  0  0  0  0  0999 V2000
   38.6860   23.5600   36.8360 C   0  0  0  0  0  0  0  0  0  0  0  0
   41.9500   21.7130   36.8710 C   0  0  0  0  0  0  0  0  0  0  0  0
   40.6300   22.0280   37.1640 C   0  0  0  0  0  0  0  0  0  0  0  0
   40.0600   23.1770   36.5700 C   0  0  0  0  0  0  0  0  0  0  0  0
   40.8230   23.9190   35.7420 N   0  0  0  0  0  0  0  0  0  0  0  0
   42.0990   23.5910   35.4740 C   0  0  0  0  0  0  0  0  0  0  0  0
   42.6590   22.4750   36.0490 N   0  0  0  0  0  0  0  0  0  0  0  0
   42.5380   20.4990   37.5050 C   0  0  0  0  0  0  0  0  0  0  0  0
   43.2010   19.5880   36.5290 C   0  0  0  0  0  0  0  0  0  0  0  0
   38.4520   23.4650   38.3250 C   0  0  0  0  0  0  0  0  0  0  0  0
   38.3490   24.9540   36.3670 C   0  0  0  0  0  0  0  0  0  0  0  0
   37.7440   22.6040   36.1270 C   0  0  0  0  0  0  0  0  0  0  0  0
   37.8850   22.6500   34.7130 N   0  0  0  0  0  0  0  0  0  0  0  0
   38.4760   21.7530   33.8570 C   0  0  0  0  0  0  0  0  0  0  0  0
   38.3690   22.2210   32.5840 N   0  0  0  0  0  0  0  0  0  0  0  0
   37.7230   23.3890   32.6340 C   0  0  0  0  0  0  0  0  0  0  0  0
   37.4370   23.6350   33.9190 N   0  0  0  0  0  0  0  0  0  0  0  0
   37.3780   24.2670   31.4760 C   0  0  0  0  0  0  0  0  0  0  0  0
   35.9130   24.0370   31.1330 C   0  0  0  0  0  0  0  0  0  0  0  0
   38.1730   23.8190   30.2480 C   0  0  0  0  0  0  0  0  0  0  0  0
   37.5830   25.7190   31.7490 C   0  0  0  0  0  0  0  0  0  0  0  0
   38.8030   25.8640   32.5370 N   0  0  0  0  0  0  0  0  0  0  0  0
   40.0399   21.3964   37.8444 H   0  0  0  0  0  0  0  0  0  0  0  0
   42.6957   24.2165   34.7937 H   0  0  0  0  0  0  0  0  0  0  0  0
   43.2844   20.8190   38.2469 H   0  0  0  0  0  0  0  0  0  0  0  0
   41.7111   19.9382   37.9652 H   0  0  0  0  0  0  0  0  0  0  0  0
   43.7636   18.8149   37.0728 H   0  0  0  0  0  0  0  0  0  0  0  0
   42.4381   19.1099   35.8970 H   0  0  0  0  0  0  0  0  0  0  0  0
   43.8905   20.1669   35.8970 H   0  0  0  0  0  0  0  0  0  0  0  0
   39.3426   23.8266   38.8599 H   0  0  0  0  0  0  0  0  0  0  0  0
   37.5836   24.0818   38.5998 H   0  0  0  0  0  0  0  0  0  0  0  0
   38.2593   22.4174   38.5998 H   0  0  0  0  0  0  0  0  0  0  0  0
   38.1914   25.6061   37.2388 H   0  0  0  0  0  0  0  0  0  0  0  0
   39.1780   25.3471   35.7602 H   0  0  0  0  0  0  0  0  0  0  0  0
   37.4320   24.9250   35.7602 H   0  0  0  0  0  0  0  0  0  0  0  0
   37.9562   21.5805   36.4697 H   0  0  0  0  0  0  0  0  0  0  0  0
   36.7148   22.9065   36.3705 H   0  0  0  0  0  0  0  0  0  0  0  0
   38.9577   20.8093   34.1527 H   0  0  0  0  0  0  0  0  0  0  0  0
   35.3292   23.9453   32.0608 H   0  0  0  0  0  0  0  0  0  0  0  0
   35.5362   24.8870   30.5452 H   0  0  0  0  0  0  0  0  0  0  0  0
   35.8148   23.1124   30.5452 H   0  0  0  0  0  0  0  0  0  0  0  0
   39.0887   23.3030   30.5723 H   0  0  0  0  0  0  0  0  0  0  0  0
   37.5600   23.1335   29.6444 H   0  0  0  0  0  0  0  0  0  0  0  0
   38.4419   24.6984   29.6444 H   0  0  0  0  0  0  0  0  0  0  0  0
   37.6847   26.2661   30.8002 H   0  0  0  0  0  0  0  0  0  0  0  0
   36.7229   26.1287   32.2990 H   0  0  0  0  0  0  0  0  0  0  0  0
   38.5694   25.8362   33.5398 H   0  0  0  0  0  0  0  0  0  0  0  0
   39.4495   25.0939   32.3137 H   0  0  0  0  0  0  0  0  0  0  0  0
  1 10  1  0
  2  3  2  0
  2  8  1  0
  4  1  1  0
  4  3  1  0
  5  4  2  0
  6  5  1  0
  6  7  2  0
  7  2  1  0
  9  8  1  0
 11  1  1  0
 12  1  1  0
 13 12  1  0
 14 13  1  0
 15 16  1  0
 15 14  2  0
 16 17  2  0
 17 13  1  0
 18 21  1  0
 18 16  1  0
 19 18  1  0
 20 18  1  0
 21 22  1  0
  3 23  1  0
  6 24  1  0
  8 25  1  0
  8 26  1  0
  9 27  1  0
  9 28  1  0
  9 29  1  0
 10 30  1  0
 10 31  1  0
 10 32  1  0
 11 33  1  0
 11 34  1  0
 11 35  1  0
 12 36  1  0
 12 37  1  0
 14 38  1  0
 19 39  1  0
 19 40  1  0
 19 41  1  0
 20 42  1  0
 20 43  1  0
 20 44  1  0
 21 45  1  0
 21 46  1  0
 22 47  1  0
 22 48  1  0
M  ISO  8  23  14  24  14  25   8  26   8  27   8  28   8  29   8  30   8
M  ISO  8  31   8  32   8  33   8  34   8  35   8  36   8  37   8  38  14
M  ISO  8  39   8  40   8  41   8  42   8  43   8  44   8  45   8  46   8
M  ISO  2  47   5  48   5
M  END
>  <minimizedAffinity>  (1) 
-4.41247559

>  <minimizedRMSD>  (1) 
0.197918221

$$$$
