
     RDKit          3D

 45 49  0  0  1  0  0  0  0  0999 V2000
   37.2920   26.8020   33.9360 C   0  0  0  0  0  0  0  0  0  0  0  0
   36.7290   28.0310   33.3420 C   0  0  0  0  0  0  0  0  0  0  0  0
   36.8050   28.5400   32.0870 C   0  0  0  0  0  0  0  0  0  0  0  0
   36.2340   29.7060   31.6470 C   0  0  0  0  0  0  0  0  0  0  0  0
   35.5200   30.4110   32.5870 C   0  0  0  0  0  0  0  0  0  0  0  0
   35.4280   29.9030   33.8810 C   0  0  0  0  0  0  0  0  0  0  0  0
   36.0240   28.7460   34.2320 N   0  0  0  0  0  0  0  0  0  0  0  0
   34.7630   30.6090   34.9700 C   0  0  0  0  0  0  0  0  0  0  0  0
   35.5390   31.5300   35.6880 C   0  0  0  0  0  0  0  0  0  0  0  0
   35.1310   32.2850   36.7480 C   0  0  0  0  0  0  0  0  0  0  0  0
   33.8300   32.1480   37.1760 C   0  0  0  0  0  0  0  0  0  0  0  0
   33.0190   31.2550   36.5120 C   0  0  0  0  0  0  0  0  0  0  0  0
   31.7120   31.0500   36.9290 C   0  0  0  0  0  0  0  0  0  0  0  0
   30.8450   30.1310   36.3260 C   0  0  0  0  0  0  0  0  0  0  0  0
   31.3740   29.4110   35.2590 C   0  0  0  0  0  0  0  0  0  0  0  0
   32.6640   29.6160   34.8480 C   0  0  0  0  0  0  0  0  0  0  0  0
   33.4910   30.5240   35.4530 C   0  0  0  0  0  0  0  0  0  0  0  0
   39.3740   25.9540   35.3210 C   0  0  2  0  0  0  0  0  0  0  0  0
   38.7490   27.1580   35.9320 C   0  0  0  0  0  0  0  0  0  0  0  0
   38.6710   26.9310   34.4520 C   0  0  2  0  0  0  0  0  0  0  0  0
   37.4960   23.3070   37.0270 C   0  0  0  0  0  0  0  0  0  0  0  0
   37.5450   22.2080   36.1390 C   0  0  0  0  0  0  0  0  0  0  0  0
   38.2590   22.4370   34.9150 C   0  0  0  0  0  0  0  0  0  0  0  0
   38.8200   23.6460   34.7010 N   0  0  0  0  0  0  0  0  0  0  0  0
   38.7210   24.6630   35.6280 C   0  0  0  0  0  0  0  0  0  0  0  0
   38.0530   24.5000   36.8110 N   0  0  0  0  0  0  0  0  0  0  0  0
   37.2886   26.0179   33.1645 H   0  0  0  0  0  0  0  0  0  0  0  0
   36.6604   26.5639   34.8046 H   0  0  0  0  0  0  0  0  0  0  0  0
   37.3810   27.9606   31.3505 H   0  0  0  0  0  0  0  0  0  0  0  0
   36.3402   30.0550   30.6092 H   0  0  0  0  0  0  0  0  0  0  0  0
   35.0300   31.3595   32.3220 H   0  0  0  0  0  0  0  0  0  0  0  0
   36.5824   31.6564   35.3635 H   0  0  0  0  0  0  0  0  0  0  0  0
   35.8208   32.9824   37.2458 H   0  0  0  0  0  0  0  0  0  0  0  0
   33.4489   32.7353   38.0245 H   0  0  0  0  0  0  0  0  0  0  0  0
   31.3371   31.6405   37.7780 H   0  0  0  0  0  0  0  0  0  0  0  0
   29.8113   29.9871   36.6735 H   0  0  0  0  0  0  0  0  0  0  0  0
   30.7491   28.6692   34.7402 H   0  0  0  0  0  0  0  0  0  0  0  0
   33.0499   29.0298   34.0009 H   0  0  0  0  0  0  0  0  0  0  0  0
   40.3786   25.5067   35.2963 H   0  0  0  0  0  0  0  0  0  0  0  0
   37.8472   27.0555   36.5536 H   0  0  0  0  0  0  0  0  0  0  0  0
   39.0996   27.9760   36.5784 H   0  0  0  0  0  0  0  0  0  0  0  0
   38.9867   27.3912   33.5041 H   0  0  0  0  0  0  0  0  0  0  0  0
   36.9541   23.1670   37.9739 H   0  0  0  0  0  0  0  0  0  0  0  0
   37.0687   21.2438   36.3702 H   0  0  0  0  0  0  0  0  0  0  0  0
   38.3477   21.6393   34.1628 H   0  0  0  0  0  0  0  0  0  0  0  0
  1 20  1  0
  2  1  1  0
  2  7  1  0
  3  2  2  0
  4  3  1  0
  4  5  2  0
  5  6  1  0
  6  7  2  0
  6  8  1  0
  8 17  1  0
  8  9  2  0
  9 10  1  0
 10 11  2  0
 12 13  2  0
 12 11  1  0
 14 13  1  0
 15 14  2  0
 16 15  1  0
 16 17  2  0
 17 12  1  0
 18 25  1  0
 18 19  1  0
 20 18  1  0
 20 19  1  0
 22 21  2  0
 23 22  1  0
 24 23  2  0
 24 25  1  0
 25 26  2  0
 26 21  1  0
  1 27  1  0
  1 28  1  0
  3 29  1  0
  4 30  1  0
  5 31  1  0
  9 32  1  0
 10 33  1  0
 11 34  1  0
 13 35  1  0
 14 36  1  0
 15 37  1  0
 16 38  1  0
 18 39  1  6
 19 40  1  0
 19 41  1  0
 20 42  1  6
 21 43  1  0
 22 44  1  0
 23 45  1  0
M  ISO  8  27   8  28   8  29  14  30  14  31  14  32  14  33  14  34  14
M  ISO  8  35  14  36  14  37  14  38  14  39  13  40  13  41  13  42  13
M  ISO  3  43  14  44  14  45  14
M  END
>  <minimizedAffinity>  (1) 
-6.98218489

>  <minimizedRMSD>  (1) 
6.61680508

$$$$
