
     RDKit          3D

 35 38  0  0  1  0  0  0  0  0999 V2000
   37.0340   27.0220   34.2630 C   0  0  0  0  0  0  0  0  0  0  0  0
   36.4560   28.2730   33.7390 C   0  0  0  0  0  0  0  0  0  0  0  0
   36.2370   28.7040   32.4660 C   0  0  0  0  0  0  0  0  0  0  0  0
   35.6860   29.9060   32.1060 C   0  0  0  0  0  0  0  0  0  0  0  0
   35.3270   30.7420   33.1390 C   0  0  0  0  0  0  0  0  0  0  0  0
   35.5490   30.3000   34.4330 C   0  0  0  0  0  0  0  0  0  0  0  0
   36.0950   29.1110   34.7500 N   0  0  0  0  0  0  0  0  0  0  0  0
   35.1430   31.2370   35.4370 N   0  0  0  0  0  0  0  0  0  0  0  0
   35.7040   32.3880   35.8110 C   0  0  0  0  0  0  0  0  0  0  0  0
   34.9670   32.9340   36.8010 N   0  0  0  0  0  0  0  0  0  0  0  0
   33.9160   32.1030   37.0550 C   0  0  0  0  0  0  0  0  0  0  0  0
   34.0510   31.0670   36.1990 N   0  0  0  0  0  0  0  0  0  0  0  0
   39.2640   25.9930   35.2250 C   0  0  2  0  0  0  0  0  0  0  0  0
   38.8010   27.1550   36.0280 C   0  0  0  0  0  0  0  0  0  0  0  0
   38.4750   27.0650   34.5660 C   0  0  2  0  0  0  0  0  0  0  0  0
   37.5310   23.2800   36.9800 C   0  0  0  0  0  0  0  0  0  0  0  0
   37.4460   22.2390   36.0270 C   0  0  0  0  0  0  0  0  0  0  0  0
   38.0160   22.5290   34.7430 C   0  0  0  0  0  0  0  0  0  0  0  0
   38.5780   23.7390   34.5350 N   0  0  0  0  0  0  0  0  0  0  0  0
   38.6240   24.7020   35.5090 C   0  0  0  0  0  0  0  0  0  0  0  0
   38.0930   24.4650   36.7480 N   0  0  0  0  0  0  0  0  0  0  0  0
   36.8689   26.2332   33.5143 H   0  0  0  0  0  0  0  0  0  0  0  0
   36.5299   26.8363   35.2229 H   0  0  0  0  0  0  0  0  0  0  0  0
   36.5293   28.0248   31.6516 H   0  0  0  0  0  0  0  0  0  0  0  0
   35.5391   30.1865   31.0526 H   0  0  0  0  0  0  0  0  0  0  0  0
   34.8791   31.7275   32.9436 H   0  0  0  0  0  0  0  0  0  0  0  0
   36.6192   32.8219   35.3819 H   0  0  0  0  0  0  0  0  0  0  0  0
   33.1221   32.2468   37.8027 H   0  0  0  0  0  0  0  0  0  0  0  0
   40.2325   25.5199   35.0054 H   0  0  0  0  0  0  0  0  0  0  0  0
   38.0074   27.0250   36.7785 H   0  0  0  0  0  0  0  0  0  0  0  0
   39.2880   27.9003   36.6741 H   0  0  0  0  0  0  0  0  0  0  0  0
   38.6537   27.6025   33.6230 H   0  0  0  0  0  0  0  0  0  0  0  0
   37.1052   23.0994   37.9781 H   0  0  0  0  0  0  0  0  0  0  0  0
   36.9744   21.2717   36.2549 H   0  0  0  0  0  0  0  0  0  0  0  0
   37.9956   21.7773   33.9402 H   0  0  0  0  0  0  0  0  0  0  0  0
  1 15  1  0
  2  1  1  0
  2  7  1  0
  3  2  2  0
  4  3  1  0
  4  5  2  0
  5  6  1  0
  6  7  2  0
  6  8  1  0
  8  9  1  0
  8 12  1  0
  9 10  2  0
 10 11  1  0
 12 11  2  0
 13 20  1  0
 13 14  1  0
 15 13  1  0
 15 14  1  0
 17 16  2  0
 18 17  1  0
 19 18  2  0
 19 20  1  0
 20 21  2  0
 21 16  1  0
  1 22  1  0
  1 23  1  0
  3 24  1  0
  4 25  1  0
  5 26  1  0
  9 27  1  0
 11 28  1  0
 13 29  1  6
 14 30  1  0
 14 31  1  0
 15 32  1  6
 16 33  1  0
 17 34  1  0
 18 35  1  0
M  ISO  8  22   8  23   8  24  14  25  14  26  14  27  14  28  14  29  13
M  ISO  6  30  13  31  13  32  13  33  14  34  14  35  14
M  END
>  <minimizedAffinity>  (1) 
-5.43687296

>  <minimizedRMSD>  (1) 
5.61380339

$$$$
