
     RDKit          3D

 35 38  0  0  1  0  0  0  0  0999 V2000
   37.1790   26.9160   33.9960 C   0  0  0  0  0  0  0  0  0  0  0  0
   36.7340   27.8840   32.9760 C   0  0  0  0  0  0  0  0  0  0  0  0
   37.2730   28.2850   31.7990 C   0  0  0  0  0  0  0  0  0  0  0  0
   36.7620   29.2010   30.9310 C   0  0  0  0  0  0  0  0  0  0  0  0
   35.5730   29.7690   31.3030 C   0  0  0  0  0  0  0  0  0  0  0  0
   34.9940   29.3740   32.5110 C   0  0  0  0  0  0  0  0  0  0  0  0
   35.5700   28.4610   33.3070 N   0  0  0  0  0  0  0  0  0  0  0  0
   33.7010   29.9960   32.9080 C   0  0  0  0  0  0  0  0  0  0  0  0
   33.6740   31.3220   33.3940 C   0  0  0  0  0  0  0  0  0  0  0  0
   31.8840   31.6090   33.7360 S   0  0  0  0  0  0  0  0  0  0  0  0
   31.4790   29.8470   33.1500 C   0  0  0  0  0  0  0  0  0  0  0  0
   32.5060   29.4450   32.8670 N   0  0  0  0  0  0  0  0  0  0  0  0
   39.3110   26.1600   35.3540 C   0  0  2  0  0  0  0  0  0  0  0  0
   38.6530   27.3480   35.9630 C   0  0  0  0  0  0  0  0  0  0  0  0
   38.5570   27.1000   34.4870 C   0  0  2  0  0  0  0  0  0  0  0  0
   37.5160   23.4880   37.1180 C   0  0  0  0  0  0  0  0  0  0  0  0
   37.6210   22.3650   36.2680 C   0  0  0  0  0  0  0  0  0  0  0  0
   38.3450   22.5860   35.0490 C   0  0  0  0  0  0  0  0  0  0  0  0
   38.8610   23.8080   34.8000 N   0  0  0  0  0  0  0  0  0  0  0  0
   38.7130   24.8550   35.6870 C   0  0  0  0  0  0  0  0  0  0  0  0
   38.0310   24.6910   36.8620 N   0  0  0  0  0  0  0  0  0  0  0  0
   37.1057   25.9081   33.5615 H   0  0  0  0  0  0  0  0  0  0  0  0
   36.5248   27.0722   34.8664 H   0  0  0  0  0  0  0  0  0  0  0  0
   38.2279   27.8194   31.5137 H   0  0  0  0  0  0  0  0  0  0  0  0
   37.2708   29.4672   29.9928 H   0  0  0  0  0  0  0  0  0  0  0  0
   35.0846   30.5199   30.6645 H   0  0  0  0  0  0  0  0  0  0  0  0
   34.5162   32.0155   33.5345 H   0  0  0  0  0  0  0  0  0  0  0  0
   30.5021   29.3441   33.0976 H   0  0  0  0  0  0  0  0  0  0  0  0
   40.3308   25.7495   35.3155 H   0  0  0  0  0  0  0  0  0  0  0  0
   37.7669   27.2201   36.6022 H   0  0  0  0  0  0  0  0  0  0  0  0
   38.9848   28.1861   36.5935 H   0  0  0  0  0  0  0  0  0  0  0  0
   38.8385   27.5600   33.5283 H   0  0  0  0  0  0  0  0  0  0  0  0
   36.9677   23.3606   38.0630 H   0  0  0  0  0  0  0  0  0  0  0  0
   37.1792   21.3903   36.5224 H   0  0  0  0  0  0  0  0  0  0  0  0
   38.4780   21.7683   34.3253 H   0  0  0  0  0  0  0  0  0  0  0  0
  1 15  1  0
  2  7  1  0
  2  1  1  0
  3  2  2  0
  4  5  2  0
  4  3  1  0
  5  6  1  0
  6  8  1  0
  6  7  2  0
  8  9  2  0
  9 10  1  0
 11 10  1  0
 12  8  1  0
 12 11  2  0
 13 20  1  0
 13 14  1  0
 15 13  1  0
 15 14  1  0
 17 16  2  0
 18 17  1  0
 19 18  2  0
 19 20  1  0
 20 21  2  0
 21 16  1  0
  1 22  1  0
  1 23  1  0
  3 24  1  0
  4 25  1  0
  5 26  1  0
  9 27  1  0
 11 28  1  0
 13 29  1  6
 14 30  1  0
 14 31  1  0
 15 32  1  6
 16 33  1  0
 17 34  1  0
 18 35  1  0
M  ISO  8  22   8  23   8  24  14  25  14  26  14  27  14  28  14  29  13
M  ISO  6  30  13  31  13  32  13  33  14  34  14  35  14
M  END
>  <minimizedAffinity>  (1) 
-5.0115571

>  <minimizedRMSD>  (1) 
4.87668467

$$$$
