
     RDKit          3D

 42 45  0  0  1  0  0  0  0  0999 V2000
   37.1240   25.8930   32.2710 C   0  0  0  0  0  0  0  0  0  0  0  0
   36.7600   27.3210   32.2160 C   0  0  0  0  0  0  0  0  0  0  0  0
   36.1430   28.1270   33.1490 C   0  0  0  0  0  0  0  0  0  0  0  0
   35.8590   29.4560   32.9640 C   0  0  0  0  0  0  0  0  0  0  0  0
   36.2190   30.0090   31.7640 C   0  0  0  0  0  0  0  0  0  0  0  0
   36.8300   29.1940   30.8500 C   0  0  0  0  0  0  0  0  0  0  0  0
   37.1090   27.8920   31.0290 N   0  0  0  0  0  0  0  0  0  0  0  0
   37.1800   29.8470   29.6130 N   0  0  0  0  0  0  0  0  0  0  0  0
   36.8300   31.1270   29.4770 C   0  0  0  0  0  0  0  0  0  0  0  0
   37.1450   31.7820   28.3140 C   0  0  0  0  0  0  0  0  0  0  0  0
   36.7900   33.2040   28.0900 C   0  0  0  0  0  0  0  0  0  0  0  0
   37.8210   31.0930   27.3050 C   0  0  0  0  0  0  0  0  0  0  0  0
   38.1470   31.6240   26.2040 O   0  0  0  0  0  0  0  0  0  0  0  0
   38.1270   29.7870   27.5560 N   0  0  0  0  0  0  0  0  0  0  0  0
   37.8290   29.1240   28.6860 C   0  0  0  0  0  0  0  0  0  0  0  0
   38.1600   27.9190   28.8100 O   0  0  0  0  0  0  0  0  0  0  0  0
   37.5240   23.8500   30.6490 C   0  0  2  0  0  0  0  0  0  0  0  0
   38.7940   24.5300   31.0110 C   0  0  0  0  0  0  0  0  0  0  0  0
   37.5060   25.2980   30.9770 C   0  0  2  0  0  0  0  0  0  0  0  0
   37.2830   21.5260   33.4720 C   0  0  0  0  0  0  0  0  0  0  0  0
   35.9520   21.0500   33.4300 C   0  0  0  0  0  0  0  0  0  0  0  0
   35.1420   21.5820   32.3720 C   0  0  0  0  0  0  0  0  0  0  0  0
   35.6870   22.4720   31.5160 N   0  0  0  0  0  0  0  0  0  0  0  0
   36.9930   22.8850   31.6270 C   0  0  0  0  0  0  0  0  0  0  0  0
   37.8050   22.4060   32.6180 N   0  0  0  0  0  0  0  0  0  0  0  0
   37.9735   25.7835   32.9612 H   0  0  0  0  0  0  0  0  0  0  0  0
   36.2216   25.3578   32.6016 H   0  0  0  0  0  0  0  0  0  0  0  0
   35.8585   27.6722   34.1093 H   0  0  0  0  0  0  0  0  0  0  0  0
   35.3638   30.0515   33.7452 H   0  0  0  0  0  0  0  0  0  0  0  0
   36.0243   31.0688   31.5430 H   0  0  0  0  0  0  0  0  0  0  0  0
   36.2969   31.6491   30.2852 H   0  0  0  0  0  0  0  0  0  0  0  0
   36.6643   33.7077   29.0598 H   0  0  0  0  0  0  0  0  0  0  0  0
   37.5926   33.6972   27.5220 H   0  0  0  0  0  0  0  0  0  0  0  0
   35.8498   33.2621   27.5220 H   0  0  0  0  0  0  0  0  0  0  0  0
   38.6266   29.2678   26.8200 H   0  0  0  0  0  0  0  0  0  0  0  0
   37.1588   23.2611   29.7947 H   0  0  0  0  0  0  0  0  0  0  0  0
   39.2806   24.3125   31.9733 H   0  0  0  0  0  0  0  0  0  0  0  0
   39.7811   24.6414   30.5386 H   0  0  0  0  0  0  0  0  0  0  0  0
   37.0314   26.1388   30.4500 H   0  0  0  0  0  0  0  0  0  0  0  0
   37.9362   21.1412   34.2690 H   0  0  0  0  0  0  0  0  0  0  0  0
   35.5645   20.3222   34.1581 H   0  0  0  0  0  0  0  0  0  0  0  0
   34.0933   21.2695   32.2602 H   0  0  0  0  0  0  0  0  0  0  0  0
  2  1  1  0
  2  3  2  0
  4  3  1  0
  5  4  2  0
  6  7  2  0
  6  5  1  0
  7  2  1  0
  8  6  1  0
  9  8  1  0
 10  9  2  0
 11 10  1  0
 12 14  1  0
 12 10  1  0
 13 12  2  0
 14 15  1  0
 15 16  2  0
 15  8  1  0
 17 19  1  0
 17 18  1  0
 17 24  1  0
 19 18  1  0
 19  1  1  0
 21 20  2  0
 22 21  1  0
 23 24  1  0
 23 22  2  0
 24 25  2  0
 25 20  1  0
  1 26  1  0
  1 27  1  0
  3 28  1  0
  4 29  1  0
  5 30  1  0
  9 31  1  0
 11 32  1  0
 11 33  1  0
 11 34  1  0
 14 35  1  0
 17 36  1  6
 18 37  1  0
 18 38  1  0
 19 39  1  6
 20 40  1  0
 21 41  1  0
 22 42  1  0
M  ISO  8  26   8  27   8  28  14  29  14  30  14  31  14  32   8  33   8
M  ISO  8  34   8  35   9  36  13  37  13  38  13  39  13  40  14  41  14
M  ISO  1  42  14
M  END
>  <minimizedAffinity>  (1) 
-5.116889

>  <minimizedRMSD>  (1) 
0.930054069

$$$$
