
     RDKit          3D

 44 47  0  0  1  0  0  0  0  0999 V2000
   36.5340   25.6990   32.1560 C   0  0  0  0  0  0  0  0  0  0  0  0
   36.4390   27.1730   32.1000 C   0  0  0  0  0  0  0  0  0  0  0  0
   36.0050   28.0860   33.0090 C   0  0  0  0  0  0  0  0  0  0  0  0
   35.9660   29.4440   32.8350 C   0  0  0  0  0  0  0  0  0  0  0  0
   36.4090   29.9110   31.6270 C   0  0  0  0  0  0  0  0  0  0  0  0
   36.8560   28.9840   30.6910 C   0  0  0  0  0  0  0  0  0  0  0  0
   36.8770   27.6600   30.9020 N   0  0  0  0  0  0  0  0  0  0  0  0
   37.3160   29.4920   29.4310 N   0  0  0  0  0  0  0  0  0  0  0  0
   38.0890   28.6810   28.5110 C   0  0  0  0  0  0  0  0  0  0  0  0
   39.4040   29.3960   28.2020 C   0  0  0  0  0  0  0  0  0  0  0  0
   39.1900   30.8400   27.8910 C   0  0  0  0  0  0  0  0  0  0  0  0
   37.7250   31.1940   27.7480 C   0  0  0  0  0  0  0  0  0  0  0  0
   37.0260   30.8520   29.0200 C   0  0  0  0  0  0  0  0  0  0  0  0
   37.3790   23.6120   30.7790 C   0  0  2  0  0  0  0  0  0  0  0  0
   38.5080   24.4500   31.2640 C   0  0  0  0  0  0  0  0  0  0  0  0
   37.1720   25.0670   30.9880 C   0  0  2  0  0  0  0  0  0  0  0  0
   36.9490   21.4760   33.7290 C   0  0  0  0  0  0  0  0  0  0  0  0
   35.6960   20.8510   33.5400 C   0  0  0  0  0  0  0  0  0  0  0  0
   35.0050   21.2120   32.3350 C   0  0  0  0  0  0  0  0  0  0  0  0
   35.5810   22.0980   31.4910 N   0  0  0  0  0  0  0  0  0  0  0  0
   36.8030   22.6630   31.7460 C   0  0  0  0  0  0  0  0  0  0  0  0
   37.4960   22.3480   32.8820 N   0  0  0  0  0  0  0  0  0  0  0  0
   37.1163   25.4292   33.0494 H   0  0  0  0  0  0  0  0  0  0  0  0
   35.4991   25.3269   32.1773 H   0  0  0  0  0  0  0  0  0  0  0  0
   35.6518   27.6974   33.9756 H   0  0  0  0  0  0  0  0  0  0  0  0
   35.5996   30.1206   33.6211 H   0  0  0  0  0  0  0  0  0  0  0  0
   36.4115   30.9879   31.4029 H   0  0  0  0  0  0  0  0  0  0  0  0
   38.2995   27.7031   28.9687 H   0  0  0  0  0  0  0  0  0  0  0  0
   37.5208   28.5295   27.5814 H   0  0  0  0  0  0  0  0  0  0  0  0
   40.0674   29.3145   29.0756 H   0  0  0  0  0  0  0  0  0  0  0  0
   39.8532   28.9189   27.3185 H   0  0  0  0  0  0  0  0  0  0  0  0
   39.6204   31.4430   28.7041 H   0  0  0  0  0  0  0  0  0  0  0  0
   39.6788   31.0493   26.9281 H   0  0  0  0  0  0  0  0  0  0  0  0
   37.6219   32.2705   27.5465 H   0  0  0  0  0  0  0  0  0  0  0  0
   37.2823   30.6310   26.9131 H   0  0  0  0  0  0  0  0  0  0  0  0
   37.3582   31.5432   29.8085 H   0  0  0  0  0  0  0  0  0  0  0  0
   35.9420   30.9415   28.8556 H   0  0  0  0  0  0  0  0  0  0  0  0
   37.2066   22.9333   29.9307 H   0  0  0  0  0  0  0  0  0  0  0  0
   38.8645   24.3482   32.2996 H   0  0  0  0  0  0  0  0  0  0  0  0
   39.5386   24.6394   30.9293 H   0  0  0  0  0  0  0  0  0  0  0  0
   36.7046   25.8189   30.3352 H   0  0  0  0  0  0  0  0  0  0  0  0
   37.5130   21.2253   34.6395 H   0  0  0  0  0  0  0  0  0  0  0  0
   35.2791   20.1374   34.2659 H   0  0  0  0  0  0  0  0  0  0  0  0
   34.0228   20.7751   32.1017 H   0  0  0  0  0  0  0  0  0  0  0  0
  2  1  1  0
  2  3  2  0
  4  3  1  0
  5  4  2  0
  6  7  2  0
  6  5  1  0
  7  2  1  0
  8  6  1  0
  9  8  1  0
 10  9  1  0
 11 10  1  0
 12 11  1  0
 12 13  1  0
 13  8  1  0
 14 16  1  0
 14 15  1  0
 14 21  1  0
 16 15  1  0
 16  1  1  0
 18 17  2  0
 19 18  1  0
 20 21  1  0
 20 19  2  0
 21 22  2  0
 22 17  1  0
  1 23  1  0
  1 24  1  0
  3 25  1  0
  4 26  1  0
  5 27  1  0
  9 28  1  0
  9 29  1  0
 10 30  1  0
 10 31  1  0
 11 32  1  0
 11 33  1  0
 12 34  1  0
 12 35  1  0
 13 36  1  0
 13 37  1  0
 14 38  1  6
 15 39  1  0
 15 40  1  0
 16 41  1  6
 17 42  1  0
 18 43  1  0
 19 44  1  0
M  ISO  8  23   8  24   8  25  14  26  14  27  14  28  13  29  13  30  13
M  ISO  8  31  13  32  13  33  13  34  13  35  13  36  13  37  13  38  13
M  ISO  6  39  13  40  13  41  13  42  14  43  14  44  14
M  END
>  <minimizedAffinity>  (1) 
-4.70193386

>  <minimizedRMSD>  (1) 
0.645223796

$$$$
