
     RDKit          3D

 32 34  0  0  1  0  0  0  0  0999 V2000
   37.4770   23.3410   30.7980 C   0  0  2  0  0  0  0  0  0  0  0  0
   38.6210   24.1540   31.2840 C   0  0  0  0  0  0  0  0  0  0  0  0
   37.3200   24.8120   30.9260 C   0  0  2  0  0  0  0  0  0  0  0  0
   36.8390   21.3950   33.8440 C   0  0  0  0  0  0  0  0  0  0  0  0
   35.5810   20.7900   33.6200 C   0  0  0  0  0  0  0  0  0  0  0  0
   34.9640   21.0940   32.3610 C   0  0  0  0  0  0  0  0  0  0  0  0
   35.6070   21.9150   31.4970 N   0  0  0  0  0  0  0  0  0  0  0  0
   36.8280   22.4640   31.7900 C   0  0  0  0  0  0  0  0  0  0  0  0
   37.4530   22.2010   32.9780 N   0  0  0  0  0  0  0  0  0  0  0  0
   36.6770   25.5270   32.0400 C   0  0  0  0  0  0  0  0  0  0  0  0
   36.5700   26.9900   31.8740 C   0  0  0  0  0  0  0  0  0  0  0  0
   36.1280   27.9630   32.7120 C   0  0  0  0  0  0  0  0  0  0  0  0
   36.0760   29.3040   32.4400 C   0  0  0  0  0  0  0  0  0  0  0  0
   36.5220   29.6850   31.1850 C   0  0  0  0  0  0  0  0  0  0  0  0
   36.9710   28.6940   30.3360 C   0  0  0  0  0  0  0  0  0  0  0  0
   37.0060   27.3880   30.6430 N   0  0  0  0  0  0  0  0  0  0  0  0
   37.4310   29.2030   29.0090 C   0  0  0  0  0  0  0  0  0  0  0  0
   37.3075   22.6283   29.9774 H   0  0  0  0  0  0  0  0  0  0  0  0
   38.9349   24.0899   32.3363 H   0  0  0  0  0  0  0  0  0  0  0  0
   39.6703   24.2839   30.9805 H   0  0  0  0  0  0  0  0  0  0  0  0
   36.9038   25.5450   30.2193 H   0  0  0  0  0  0  0  0  0  0  0  0
   37.3455   21.1864   34.7979 H   0  0  0  0  0  0  0  0  0  0  0  0
   35.1069   20.1302   34.3616 H   0  0  0  0  0  0  0  0  0  0  0  0
   33.9840   20.6669   32.1015 H   0  0  0  0  0  0  0  0  0  0  0  0
   35.6608   25.1237   32.1609 H   0  0  0  0  0  0  0  0  0  0  0  0
   37.3224   25.3672   32.9163 H   0  0  0  0  0  0  0  0  0  0  0  0
   35.7782   27.6431   33.7046 H   0  0  0  0  0  0  0  0  0  0  0  0
   35.7029   30.0342   33.1732 H   0  0  0  0  0  0  0  0  0  0  0  0
   36.5184   30.7407   30.8760 H   0  0  0  0  0  0  0  0  0  0  0  0
   38.1616   30.0114   29.1596 H   0  0  0  0  0  0  0  0  0  0  0  0
   37.9014   28.3840   28.4451 H   0  0  0  0  0  0  0  0  0  0  0  0
   36.5687   29.5884   28.4451 H   0  0  0  0  0  0  0  0  0  0  0  0
  1  3  1  0
  1  2  1  0
  1  8  1  0
  3  2  1  0
  3 10  1  0
  5  4  2  0
  6  5  1  0
  7  8  1  0
  7  6  2  0
  8  9  2  0
  9  4  1  0
 11 10  1  0
 11 12  2  0
 13 12  1  0
 14 13  2  0
 15 16  2  0
 15 14  1  0
 16 11  1  0
 17 15  1  0
  1 18  1  6
  2 19  1  0
  2 20  1  0
  3 21  1  6
  4 22  1  0
  5 23  1  0
  6 24  1  0
 10 25  1  0
 10 26  1  0
 12 27  1  0
 13 28  1  0
 14 29  1  0
 17 30  1  0
 17 31  1  0
 17 32  1  0
M  ISO  8  18  13  19  13  20  13  21  13  22  14  23  14  24  14  25   8
M  ISO  7  26   8  27  14  28  14  29  14  30   8  31   8  32   8
M  END
>  <minimizedAffinity>  (1) 
-4.03259659

>  <minimizedRMSD>  (1) 
0.253738493

$$$$
