
     RDKit          3D

 30 32  0  0  1  0  0  0  0  0999 V2000
   37.3420   23.6380   30.7910 C   0  0  2  0  0  0  0  0  0  0  0  0
   38.5290   24.4120   31.2380 C   0  0  0  0  0  0  0  0  0  0  0  0
   37.2030   25.0900   31.0660 C   0  0  2  0  0  0  0  0  0  0  0  0
   36.9760   21.4620   33.7220 C   0  0  0  0  0  0  0  0  0  0  0  0
   35.7210   20.8330   33.5490 C   0  0  0  0  0  0  0  0  0  0  0  0
   35.0070   21.2080   32.3630 C   0  0  0  0  0  0  0  0  0  0  0  0
   35.5640   22.1050   31.5220 N   0  0  0  0  0  0  0  0  0  0  0  0
   36.7880   22.6730   31.7600 C   0  0  0  0  0  0  0  0  0  0  0  0
   37.5060   22.3460   32.8780 N   0  0  0  0  0  0  0  0  0  0  0  0
   36.6630   25.7000   32.2930 C   0  0  0  0  0  0  0  0  0  0  0  0
   36.4380   27.1570   32.2260 C   0  0  0  0  0  0  0  0  0  0  0  0
   36.1550   28.0730   33.1970 C   0  0  0  0  0  0  0  0  0  0  0  0
   35.9660   29.4160   33.0040 C   0  0  0  0  0  0  0  0  0  0  0  0
   36.0750   29.8640   31.6950 C   0  0  0  0  0  0  0  0  0  0  0  0
   36.3610   28.9320   30.7160 C   0  0  0  0  0  0  0  0  0  0  0  0
   36.5390   27.6270   30.9490 N   0  0  0  0  0  0  0  0  0  0  0  0
   36.4510   29.4750   29.4370 O   0  0  0  0  0  0  0  0  0  0  0  0
   37.0934   23.0009   29.9294 H   0  0  0  0  0  0  0  0  0  0  0  0
   38.9413   24.2556   32.2458 H   0  0  0  0  0  0  0  0  0  0  0  0
   39.5449   24.5757   30.8494 H   0  0  0  0  0  0  0  0  0  0  0  0
   36.7260   25.8828   30.4711 H   0  0  0  0  0  0  0  0  0  0  0  0
   37.5570   21.2022   34.6192 H   0  0  0  0  0  0  0  0  0  0  0  0
   35.3210   20.1076   34.2728 H   0  0  0  0  0  0  0  0  0  0  0  0
   34.0216   20.7718   32.1423 H   0  0  0  0  0  0  0  0  0  0  0  0
   35.7003   25.2173   32.5173 H   0  0  0  0  0  0  0  0  0  0  0  0
   37.4252   25.5451   33.0709 H   0  0  0  0  0  0  0  0  0  0  0  0
   36.0710   27.6992   34.2281 H   0  0  0  0  0  0  0  0  0  0  0  0
   35.7413   30.0986   33.8368 H   0  0  0  0  0  0  0  0  0  0  0  0
   35.9382   30.9265   31.4451 H   0  0  0  0  0  0  0  0  0  0  0  0
   36.3134   30.4459   29.3006 H   0  0  0  0  0  0  0  0  0  0  0  0
  1  3  1  0
  1  2  1  0
  1  8  1  0
  3  2  1  0
  3 10  1  0
  5  4  2  0
  6  5  1  0
  7  8  1  0
  7  6  2  0
  8  9  2  0
  9  4  1  0
 11 10  1  0
 11 12  2  0
 13 12  1  0
 14 13  2  0
 15 16  2  0
 15 14  1  0
 16 11  1  0
 17 15  1  0
  1 18  1  6
  2 19  1  0
  2 20  1  0
  3 21  1  6
  4 22  1  0
  5 23  1  0
  6 24  1  0
 10 25  1  0
 10 26  1  0
 12 27  1  0
 13 28  1  0
 14 29  1  0
 17 30  1  0
M  ISO  8  18  13  19  13  20  13  21  13  22  14  23  14  24  14  25   8
M  ISO  5  26   8  27  14  28  14  29  14  30   3
M  END
>  <minimizedAffinity>  (1) 
-4.12188482

>  <minimizedRMSD>  (1) 
0.315631032

$$$$
