
     RDKit          3D

 32 34  0  0  0  0  0  0  0  0999 V2000
   37.8910   25.3970   34.8810 C   0  0  0  0  0  0  0  0  0  0  0  0
   37.4380   26.6980   35.0980 C   0  0  0  0  0  0  0  0  0  0  0  0
   36.8670   27.3590   34.0650 C   0  0  0  0  0  0  0  0  0  0  0  0
   36.7610   26.6940   32.8250 C   0  0  0  0  0  0  0  0  0  0  0  0
   37.5220   25.0370   33.1660 S   0  0  0  0  0  0  0  0  0  0  0  0
   37.9450   24.1530   37.0620 C   0  0  0  0  0  0  0  0  0  0  0  0
   38.5200   24.5360   35.8370 C   0  0  0  0  0  0  0  0  0  0  0  0
   39.7810   24.0630   35.5120 C   0  0  0  0  0  0  0  0  0  0  0  0
   40.3800   23.2440   36.4200 N   0  0  0  0  0  0  0  0  0  0  0  0
   39.8120   22.8890   37.5880 C   0  0  0  0  0  0  0  0  0  0  0  0
   38.6080   23.3470   37.8900 N   0  0  0  0  0  0  0  0  0  0  0  0
   36.2530   27.0210   31.5600 C   0  0  0  0  0  0  0  0  0  0  0  0
   35.7020   26.1260   30.8680 O   0  0  0  0  0  0  0  0  0  0  0  0
   36.4560   28.3990   31.2430 N   0  0  0  0  0  0  0  0  0  0  0  0
   36.2920   29.6590   31.9430 C   0  0  0  0  0  0  0  0  0  0  0  0
   35.5080   30.5450   30.9700 C   0  0  0  0  0  0  0  0  0  0  0  0
   36.4070   30.9470   30.0160 O   0  0  0  0  0  0  0  0  0  0  0  0
   37.3490   30.0290   29.6400 C   0  0  0  0  0  0  0  0  0  0  0  0
   36.9390   28.6000   29.9140 C   0  0  0  0  0  0  0  0  0  0  0  0
   37.5423   27.1745   36.0839 H   0  0  0  0  0  0  0  0  0  0  0  0
   36.4954   28.3870   34.1883 H   0  0  0  0  0  0  0  0  0  0  0  0
   36.9452   24.5199   37.3372 H   0  0  0  0  0  0  0  0  0  0  0  0
   40.2739   24.3356   34.5672 H   0  0  0  0  0  0  0  0  0  0  0  0
   40.3440   22.2244   38.2846 H   0  0  0  0  0  0  0  0  0  0  0  0
   35.7279   29.5138   32.8761 H   0  0  0  0  0  0  0  0  0  0  0  0
   37.2561   30.1054   32.2280 H   0  0  0  0  0  0  0  0  0  0  0  0
   34.6898   29.9736   30.5074 H   0  0  0  0  0  0  0  0  0  0  0  0
   35.0550   31.4053   31.4844 H   0  0  0  0  0  0  0  0  0  0  0  0
   38.2778   30.2369   30.1914 H   0  0  0  0  0  0  0  0  0  0  0  0
   37.4802   30.1259   28.5522 H   0  0  0  0  0  0  0  0  0  0  0  0
   36.1432   28.3228   29.2070 H   0  0  0  0  0  0  0  0  0  0  0  0
   37.8351   27.9736   29.7933 H   0  0  0  0  0  0  0  0  0  0  0  0
  1  2  2  0
  1  7  1  0
  3  2  1  0
  4  5  1  0
  4  3  2  0
  5  1  1  0
  6 11  2  0
  7  6  1  0
  8  7  2  0
  8  9  1  0
  9 10  2  0
 10 11  1  0
 12  4  1  0
 13 12  2  0
 14 12  1  0
 14 15  1  0
 16 15  1  0
 17 16  1  0
 18 19  1  0
 18 17  1  0
 19 14  1  0
  2 20  1  0
  3 21  1  0
  6 22  1  0
  8 23  1  0
 10 24  1  0
 15 25  1  0
 15 26  1  0
 16 27  1  0
 16 28  1  0
 18 29  1  0
 18 30  1  0
 19 31  1  0
 19 32  1  0
M  ISO  8  20  14  21  14  22  14  23  14  24  14  25  13  26  13  27  13
M  ISO  5  28  13  29  13  30  13  31  13  32  13
M  END
>  <minimizedAffinity>  (1) 
-4.89889288

>  <minimizedRMSD>  (1) 
0.976807475

$$$$
