
     RDKit          3D

 28 30  0  0  0  0  0  0  0  0999 V2000
   37.8740   25.3990   34.8570 C   0  0  0  0  0  0  0  0  0  0  0  0
   37.4920   26.7290   34.9960 C   0  0  0  0  0  0  0  0  0  0  0  0
   36.9340   27.3560   33.9330 C   0  0  0  0  0  0  0  0  0  0  0  0
   36.7760   26.6130   32.7450 C   0  0  0  0  0  0  0  0  0  0  0  0
   37.4610   24.9430   33.1800 S   0  0  0  0  0  0  0  0  0  0  0  0
   37.9000   24.3200   37.1200 C   0  0  0  0  0  0  0  0  0  0  0  0
   38.4780   24.5530   35.8440 C   0  0  0  0  0  0  0  0  0  0  0  0
   39.6670   23.9540   35.5260 C   0  0  0  0  0  0  0  0  0  0  0  0
   40.2310   23.1520   36.4740 N   0  0  0  0  0  0  0  0  0  0  0  0
   39.6780   22.9340   37.6830 C   0  0  0  0  0  0  0  0  0  0  0  0
   38.5280   23.5160   37.9880 N   0  0  0  0  0  0  0  0  0  0  0  0
   36.2560   26.9000   31.4750 C   0  0  0  0  0  0  0  0  0  0  0  0
   35.5490   26.0400   30.8890 O   0  0  0  0  0  0  0  0  0  0  0  0
   36.5310   28.1910   30.8260 C   0  0  0  0  0  0  0  0  0  0  0  0
   36.0090   29.3890   31.3190 C   0  0  0  0  0  0  0  0  0  0  0  0
   36.3000   30.5750   30.6690 C   0  0  0  0  0  0  0  0  0  0  0  0
   37.0910   30.5980   29.5490 C   0  0  0  0  0  0  0  0  0  0  0  0
   37.5860   29.3910   29.0950 C   0  0  0  0  0  0  0  0  0  0  0  0
   37.2910   28.2550   29.7420 N   0  0  0  0  0  0  0  0  0  0  0  0
   37.6397   27.2599   35.9480 H   0  0  0  0  0  0  0  0  0  0  0  0
   36.6155   28.4071   33.9942 H   0  0  0  0  0  0  0  0  0  0  0  0
   36.9461   24.7950   37.3929 H   0  0  0  0  0  0  0  0  0  0  0  0
   40.1465   24.1125   34.5488 H   0  0  0  0  0  0  0  0  0  0  0  0
   40.1776   22.2779   38.4110 H   0  0  0  0  0  0  0  0  0  0  0  0
   35.3723   29.3895   32.2160 H   0  0  0  0  0  0  0  0  0  0  0  0
   35.8888   31.5181   31.0582 H   0  0  0  0  0  0  0  0  0  0  0  0
   37.3223   31.5411   29.0322 H   0  0  0  0  0  0  0  0  0  0  0  0
   38.2243   29.3621   28.1996 H   0  0  0  0  0  0  0  0  0  0  0  0
  1  2  2  0
  1  7  1  0
  3  2  1  0
  4  5  1  0
  4  3  2  0
  5  1  1  0
  6 11  2  0
  7  6  1  0
  8  7  2  0
  8  9  1  0
  9 10  2  0
 10 11  1  0
 12  4  1  0
 13 12  2  0
 14 15  2  0
 14 12  1  0
 16 15  1  0
 17 16  2  0
 18 17  1  0
 18 19  2  0
 19 14  1  0
  2 20  1  0
  3 21  1  0
  6 22  1  0
  8 23  1  0
 10 24  1  0
 15 25  1  0
 16 26  1  0
 17 27  1  0
 18 28  1  0
M  ISO  8  20  14  21  14  22  14  23  14  24  14  25  14  26  14  27  14
M  ISO  1  28  14
M  END
>  <minimizedAffinity>  (1) 
-4.89302254

>  <minimizedRMSD>  (1) 
1.06713235

$$$$
