
     RDKit          3D

 35 37  0  0  0  0  0  0  0  0999 V2000
   38.0370   25.5270   35.2450 C   0  0  0  0  0  0  0  0  0  0  0  0
   37.6690   26.8480   35.5000 C   0  0  0  0  0  0  0  0  0  0  0  0
   37.1390   27.5770   34.4930 C   0  0  0  0  0  0  0  0  0  0  0  0
   36.9890   26.9530   33.2340 C   0  0  0  0  0  0  0  0  0  0  0  0
   37.6460   25.2230   33.5180 S   0  0  0  0  0  0  0  0  0  0  0  0
   38.0630   24.3270   37.4510 C   0  0  0  0  0  0  0  0  0  0  0  0
   38.6100   24.5930   36.1670 C   0  0  0  0  0  0  0  0  0  0  0  0
   39.7430   23.9290   35.7770 C   0  0  0  0  0  0  0  0  0  0  0  0
   40.2950   23.0410   36.6470 N   0  0  0  0  0  0  0  0  0  0  0  0
   39.7510   22.8000   37.8770 C   0  0  0  0  0  0  0  0  0  0  0  0
   38.6490   23.4470   38.2510 N   0  0  0  0  0  0  0  0  0  0  0  0
   36.4960   27.3660   31.9870 C   0  0  0  0  0  0  0  0  0  0  0  0
   35.8170   26.5930   31.3010 O   0  0  0  0  0  0  0  0  0  0  0  0
   36.7760   28.7100   31.4830 C   0  0  0  0  0  0  0  0  0  0  0  0
   36.9400   28.7870   29.9770 C   0  0  0  0  0  0  0  0  0  0  0  0
   37.6730   30.0840   29.7170 C   0  0  0  0  0  0  0  0  0  0  0  0
   36.9690   31.2810   30.2790 C   0  0  0  0  0  0  0  0  0  0  0  0
   36.3250   31.0900   31.6060 C   0  0  0  0  0  0  0  0  0  0  0  0
   35.7310   29.7300   31.8280 C   0  0  0  0  0  0  0  0  0  0  0  0
   37.8072   27.2869   36.4991 H   0  0  0  0  0  0  0  0  0  0  0  0
   36.8342   28.6224   34.6484 H   0  0  0  0  0  0  0  0  0  0  0  0
   37.1538   24.8509   37.7812 H   0  0  0  0  0  0  0  0  0  0  0  0
   40.1930   24.1086   34.7895 H   0  0  0  0  0  0  0  0  0  0  0  0
   40.2219   22.0739   38.5560 H   0  0  0  0  0  0  0  0  0  0  0  0
   37.7241   28.9391   31.9916 H   0  0  0  0  0  0  0  0  0  0  0  0
   37.5279   27.9328   29.6100 H   0  0  0  0  0  0  0  0  0  0  0  0
   35.9705   28.7548   29.4584 H   0  0  0  0  0  0  0  0  0  0  0  0
   38.6717   30.0191   30.1736 H   0  0  0  0  0  0  0  0  0  0  0  0
   37.7260   30.2173   28.6264 H   0  0  0  0  0  0  0  0  0  0  0  0
   37.7063   32.0916   30.3753 H   0  0  0  0  0  0  0  0  0  0  0  0
   36.1499   31.5016   29.5787 H   0  0  0  0  0  0  0  0  0  0  0  0
   37.0845   31.2625   32.3828 H   0  0  0  0  0  0  0  0  0  0  0  0
   35.4890   31.8036   31.6497 H   0  0  0  0  0  0  0  0  0  0  0  0
   34.8505   29.5965   31.1823 H   0  0  0  0  0  0  0  0  0  0  0  0
   35.4142   29.6158   32.8752 H   0  0  0  0  0  0  0  0  0  0  0  0
  1  2  2  0
  1  7  1  0
  3  2  1  0
  4  5  1  0
  4  3  2  0
  5  1  1  0
  6 11  2  0
  7  6  1  0
  8  7  2  0
  8  9  1  0
  9 10  2  0
 10 11  1  0
 12  4  1  0
 13 12  2  0
 14 19  1  0
 14 12  1  0
 15 14  1  0
 16 15  1  0
 16 17  1  0
 17 18  1  0
 18 19  1  0
  2 20  1  0
  3 21  1  0
  6 22  1  0
  8 23  1  0
 10 24  1  0
 14 25  1  0
 15 26  1  0
 15 27  1  0
 16 28  1  0
 16 29  1  0
 17 30  1  0
 17 31  1  0
 18 32  1  0
 18 33  1  0
 19 34  1  0
 19 35  1  0
M  ISO  8  20  14  21  14  22  14  23  14  24  14  25  13  26  13  27  13
M  ISO  8  28  13  29  13  30  13  31  13  32  13  33  13  34  13  35  13
M  END
>  <minimizedAffinity>  (1) 
-5.06123543

>  <minimizedRMSD>  (1) 
0.423020452

$$$$
