
     RDKit          3D

 19 19  0  0  0  0  0  0  0  0999 V2000
   39.8950   22.7290   37.1670 C   0  0  0  0  0  0  0  0  0  0  0  0
   39.1860   23.2640   38.2630 C   0  0  0  0  0  0  0  0  0  0  0  0
   37.7920   23.3440   38.1660 C   0  0  0  0  0  0  0  0  0  0  0  0
   37.1980   22.9040   37.0210 N   0  0  0  0  0  0  0  0  0  0  0  0
   37.9050   22.3990   35.9940 C   0  0  0  0  0  0  0  0  0  0  0  0
   39.2470   22.3160   36.0730 N   0  0  0  0  0  0  0  0  0  0  0  0
   41.3860   22.6250   37.2280 C   0  0  0  0  0  0  0  0  0  0  0  0
   41.8640   23.3040   35.9480 C   0  0  0  0  0  0  0  0  0  0  0  0
   41.7930   21.1880   37.2630 C   0  0  0  0  0  0  0  0  0  0  0  0
   39.7123   23.6076   39.1657 H   0  0  0  0  0  0  0  0  0  0  0  0
   37.1914   23.7515   38.9926 H   0  0  0  0  0  0  0  0  0  0  0  0
   37.3861   22.0531   35.0879 H   0  0  0  0  0  0  0  0  0  0  0  0
   41.8166   23.0937   38.1252 H   0  0  0  0  0  0  0  0  0  0  0  0
   42.4797   24.1786   36.2048 H   0  0  0  0  0  0  0  0  0  0  0  0
   42.4629   22.5944   35.3582 H   0  0  0  0  0  0  0  0  0  0  0  0
   40.9940   23.6285   35.3582 H   0  0  0  0  0  0  0  0  0  0  0  0
   41.8863   20.8587   38.3084 H   0  0  0  0  0  0  0  0  0  0  0  0
   41.0321   20.5789   36.7532 H   0  0  0  0  0  0  0  0  0  0  0  0
   42.7604   21.0684   36.7532 H   0  0  0  0  0  0  0  0  0  0  0  0
  1  7  1  0
  1  2  2  0
  3  2  1  0
  4  3  2  0
  5  6  2  0
  5  4  1  0
  6  1  1  0
  7  9  1  0
  8  7  1  0
  2 10  1  0
  3 11  1  0
  5 12  1  0
  7 13  1  0
  8 14  1  0
  8 15  1  0
  8 16  1  0
  9 17  1  0
  9 18  1  0
  9 19  1  0
M  ISO  8  10  14  11  14  12  14  13   8  14   8  15   8  16   8  17   8
M  ISO  2  18   8  19   8
M  END
>  <minimizedAffinity>  (1) 
-3.24521399

>  <minimizedRMSD>  (1) 
0.87201643

$$$$
