
     RDKit          3D

 26 28  0  0  0  0  0  0  0  0999 V2000
   38.0970   25.7400   35.4380 C   0  0  0  0  0  0  0  0  0  0  0  0
   37.9470   27.0900   35.7580 C   0  0  0  0  0  0  0  0  0  0  0  0
   37.4060   27.9080   34.8290 C   0  0  0  0  0  0  0  0  0  0  0  0
   37.0250   27.3490   33.5910 C   0  0  0  0  0  0  0  0  0  0  0  0
   37.4620   25.5620   33.7650 S   0  0  0  0  0  0  0  0  0  0  0  0
   38.1170   24.3480   37.5280 C   0  0  0  0  0  0  0  0  0  0  0  0
   38.6440   24.7060   36.2670 C   0  0  0  0  0  0  0  0  0  0  0  0
   39.7450   24.0330   35.7960 C   0  0  0  0  0  0  0  0  0  0  0  0
   40.2660   23.0540   36.5790 N   0  0  0  0  0  0  0  0  0  0  0  0
   39.7490   22.7270   37.7790 C   0  0  0  0  0  0  0  0  0  0  0  0
   38.6840   23.3760   38.2360 N   0  0  0  0  0  0  0  0  0  0  0  0
   36.4480   27.8590   32.4170 C   0  0  0  0  0  0  0  0  0  0  0  0
   35.2560   28.2610   32.4340 O   0  0  0  0  0  0  0  0  0  0  0  0
   37.1940   27.9380   31.1660 C   0  0  0  0  0  0  0  0  0  0  0  0
   38.5460   27.7910   31.0370 C   0  0  0  0  0  0  0  0  0  0  0  0
   38.8370   27.9390   29.6890 C   0  0  0  0  0  0  0  0  0  0  0  0
   37.6660   28.1730   29.0280 N   0  0  0  0  0  0  0  0  0  0  0  0
   36.7000   28.1660   29.9340 N   0  0  0  0  0  0  0  0  0  0  0  0
   38.2604   27.4770   36.7388 H   0  0  0  0  0  0  0  0  0  0  0  0
   37.2664   28.9800   35.0321 H   0  0  0  0  0  0  0  0  0  0  0  0
   37.2362   24.8743   37.9246 H   0  0  0  0  0  0  0  0  0  0  0  0
   40.1884   24.2785   34.8197 H   0  0  0  0  0  0  0  0  0  0  0  0
   40.2068   21.9259   38.3780 H   0  0  0  0  0  0  0  0  0  0  0  0
   39.2649   27.5935   31.8458 H   0  0  0  0  0  0  0  0  0  0  0  0
   39.8361   27.8784   29.2327 H   0  0  0  0  0  0  0  0  0  0  0  0
   37.5546   28.3261   28.0156 H   0  0  0  0  0  0  0  0  0  0  0  0
  1  2  2  0
  1  7  1  0
  3  2  1  0
  4  5  1  0
  4  3  2  0
  5  1  1  0
  6 11  2  0
  7  6  1  0
  8  7  2  0
  8  9  1  0
  9 10  2  0
 10 11  1  0
 12 13  2  0
 12  4  1  0
 14 12  1  0
 15 14  1  0
 16 15  2  0
 17 16  1  0
 17 18  1  0
 18 14  2  0
  2 19  1  0
  3 20  1  0
  6 21  1  0
  8 22  1  0
 10 23  1  0
 15 24  1  0
 16 25  1  0
 17 26  1  0
M  ISO  8  19  14  20  14  21  14  22  14  23  14  24  14  25  14  26   9
M  END
>  <minimizedAffinity>  (1) 
-4.78300953

>  <minimizedRMSD>  (1) 
1.13728344

$$$$
