
     RDKit          3D

 21 22  0  0  0  0  0  0  0  0999 V2000
   38.0730   25.6000   35.3570 C   0  0  0  0  0  0  0  0  0  0  0  0
   37.7770   26.9280   35.6650 C   0  0  0  0  0  0  0  0  0  0  0  0
   37.2640   27.7230   34.6980 C   0  0  0  0  0  0  0  0  0  0  0  0
   37.0570   27.1510   33.4250 C   0  0  0  0  0  0  0  0  0  0  0  0
   37.6300   25.4000   33.6430 S   0  0  0  0  0  0  0  0  0  0  0  0
   38.1080   24.3170   37.5120 C   0  0  0  0  0  0  0  0  0  0  0  0
   38.6250   24.6180   36.2430 C   0  0  0  0  0  0  0  0  0  0  0  0
   39.7520   23.9410   35.7880 C   0  0  0  0  0  0  0  0  0  0  0  0
   40.2930   23.0110   36.6230 N   0  0  0  0  0  0  0  0  0  0  0  0
   39.7670   22.7410   37.8560 C   0  0  0  0  0  0  0  0  0  0  0  0
   38.6820   23.4000   38.2780 N   0  0  0  0  0  0  0  0  0  0  0  0
   36.5660   27.6220   32.2040 C   0  0  0  0  0  0  0  0  0  0  0  0
   35.6270   27.0510   31.6340 O   0  0  0  0  0  0  0  0  0  0  0  0
   37.1150   28.7750   31.5550 N   0  0  0  0  0  0  0  0  0  0  0  0
   37.9575   27.3218   36.6761 H   0  0  0  0  0  0  0  0  0  0  0  0
   37.0174   28.7764   34.8969 H   0  0  0  0  0  0  0  0  0  0  0  0
   37.2160   24.8481   37.8755 H   0  0  0  0  0  0  0  0  0  0  0  0
   40.1864   24.1475   34.7987 H   0  0  0  0  0  0  0  0  0  0  0  0
   40.2356   21.9826   38.5003 H   0  0  0  0  0  0  0  0  0  0  0  0
   36.7272   29.0931   30.6554 H   0  0  0  0  0  0  0  0  0  0  0  0
   37.8975   29.2860   31.9880 H   0  0  0  0  0  0  0  0  0  0  0  0
  1  2  2  0
  1  7  1  0
  3  2  1  0
  4  5  1  0
  4  3  2  0
  5  1  1  0
  6 11  2  0
  7  6  1  0
  8  7  2  0
  8  9  1  0
  9 10  2  0
 10 11  1  0
 12  4  1  0
 13 12  2  0
 14 12  1  0
  2 15  1  0
  3 16  1  0
  6 17  1  0
  8 18  1  0
 10 19  1  0
 14 20  1  0
 14 21  1  0
M  ISO  5  15  14  16  14  17  14  18  14  19  14
M  END
>  <minimizedAffinity>  (1) 
-4.02737427

>  <minimizedRMSD>  (1) 
0.0201002173

$$$$
