
     RDKit          3D

 28 30  0  0  0  0  0  0  0  0999 V2000
   39.1770   26.5070   35.5090 C   0  0  0  0  0  0  0  0  0  0  0  0
   38.9950   25.1490   35.2620 C   0  0  0  0  0  0  0  0  0  0  0  0
   38.0740   24.7550   34.2930 C   0  0  0  0  0  0  0  0  0  0  0  0
   37.3930   25.7210   33.6310 N   0  0  0  0  0  0  0  0  0  0  0  0
   37.6000   27.0560   33.9020 C   0  0  0  0  0  0  0  0  0  0  0  0
   38.4810   27.4140   34.8290 N   0  0  0  0  0  0  0  0  0  0  0  0
   36.7850   27.9000   33.0970 N   0  0  0  0  0  0  0  0  0  0  0  0
   35.7300   28.6990   33.3610 C   0  0  0  0  0  0  0  0  0  0  0  0
   35.4000   29.2440   32.1300 C   0  0  0  0  0  0  0  0  0  0  0  0
   36.2350   28.7780   31.1720 N   0  0  0  0  0  0  0  0  0  0  0  0
   37.0940   27.9410   31.7900 C   0  0  0  0  0  0  0  0  0  0  0  0
   39.6910   24.0810   35.9370 C   0  0  0  0  0  0  0  0  0  0  0  0
   39.2570   23.4120   37.0690 C   0  0  0  0  0  0  0  0  0  0  0  0
   40.0380   22.4310   37.5670 C   0  0  0  0  0  0  0  0  0  0  0  0
   41.2400   22.1460   36.9100 C   0  0  0  0  0  0  0  0  0  0  0  0
   41.2460   23.3480   35.5100 S   0  0  0  0  0  0  0  0  0  0  0  0
   42.2840   21.2290   37.1240 C   0  0  0  0  0  0  0  0  0  0  0  0
   43.3140   21.2820   36.4220 O   0  0  0  0  0  0  0  0  0  0  0  0
   42.2250   20.2200   38.1230 N   0  0  0  0  0  0  0  0  0  0  0  0
   39.9007   26.8319   36.2711 H   0  0  0  0  0  0  0  0  0  0  0  0
   37.9050   23.6907   34.0722 H   0  0  0  0  0  0  0  0  0  0  0  0
   35.2432   28.8771   34.3312 H   0  0  0  0  0  0  0  0  0  0  0  0
   34.5775   29.9535   31.9565 H   0  0  0  0  0  0  0  0  0  0  0  0
   37.9103   27.3854   31.3052 H   0  0  0  0  0  0  0  0  0  0  0  0
   38.3022   23.6730   37.5488 H   0  0  0  0  0  0  0  0  0  0  0  0
   39.7380   21.8707   38.4648 H   0  0  0  0  0  0  0  0  0  0  0  0
   43.0139   19.5690   38.2447 H   0  0  0  0  0  0  0  0  0  0  0  0
   41.3934   20.1397   38.7253 H   0  0  0  0  0  0  0  0  0  0  0  0
  2  1  2  0
  2 12  1  0
  3  2  1  0
  4  5  1  0
  4  3  2  0
  5  6  2  0
  6  1  1  0
  7  8  1  0
  7  5  1  0
  9  8  2  0
 10 11  2  0
 10  9  1  0
 11  7  1  0
 12 13  2  0
 13 14  1  0
 15 17  1  0
 15 14  2  0
 16 12  1  0
 16 15  1  0
 17 19  1  0
 18 17  2  0
  1 20  1  0
  3 21  1  0
  8 22  1  0
  9 23  1  0
 11 24  1  0
 13 25  1  0
 14 26  1  0
 19 27  1  0
 19 28  1  0
M  ISO  7  20  14  21  14  22  14  23  14  24  14  25  14  26  14
M  END
>  <minimizedAffinity>  (1) 
-5.0255394

>  <minimizedRMSD>  (1) 
8.11780643

$$$$
