
     RDKit          3D

 37 39  0  0  0  0  0  0  0  0999 V2000
   37.9020   25.9170   35.7570 C   0  0  0  0  0  0  0  0  0  0  0  0
   37.5370   26.0290   34.4160 C   0  0  0  0  0  0  0  0  0  0  0  0
   37.7940   24.9610   33.5420 C   0  0  0  0  0  0  0  0  0  0  0  0
   38.3970   23.8660   34.0770 N   0  0  0  0  0  0  0  0  0  0  0  0
   38.7410   23.8000   35.4120 C   0  0  0  0  0  0  0  0  0  0  0  0
   38.4880   24.8240   36.2200 N   0  0  0  0  0  0  0  0  0  0  0  0
   36.9080   27.1840   33.8260 C   0  0  0  0  0  0  0  0  0  0  0  0
   36.3770   28.2640   34.5220 C   0  0  0  0  0  0  0  0  0  0  0  0
   35.8260   29.2700   33.8030 C   0  0  0  0  0  0  0  0  0  0  0  0
   35.8240   29.1630   32.4090 C   0  0  0  0  0  0  0  0  0  0  0  0
   36.6520   27.5400   32.1110 S   0  0  0  0  0  0  0  0  0  0  0  0
   35.3660   29.9620   31.3530 C   0  0  0  0  0  0  0  0  0  0  0  0
   34.3900   30.6940   31.4750 O   0  0  0  0  0  0  0  0  0  0  0  0
   36.0250   29.9600   30.0700 N   0  0  0  0  0  0  0  0  0  0  0  0
   39.4000   22.5850   35.9600 C   0  0  0  0  0  0  0  0  0  0  0  0
   39.9360   22.8010   37.3610 C   0  0  0  0  0  0  0  0  0  0  0  0
   41.0900   21.8160   37.5400 C   0  0  0  0  0  0  0  0  0  0  0  0
   42.2540   22.3500   36.7660 C   0  0  0  0  0  0  0  0  0  0  0  0
   41.8430   22.6240   35.3480 C   0  0  0  0  0  0  0  0  0  0  0  0
   40.4740   22.0750   35.0260 C   0  0  0  0  0  0  0  0  0  0  0  0
   37.6992   26.7525   36.4431 H   0  0  0  0  0  0  0  0  0  0  0  0
   37.5212   25.0076   32.4774 H   0  0  0  0  0  0  0  0  0  0  0  0
   36.4037   28.2999   35.6211 H   0  0  0  0  0  0  0  0  0  0  0  0
   35.3913   30.1485   34.3024 H   0  0  0  0  0  0  0  0  0  0  0  0
   36.8497   29.3625   29.9156 H   0  0  0  0  0  0  0  0  0  0  0  0
   35.6709   30.5560   29.3082 H   0  0  0  0  0  0  0  0  0  0  0  0
   38.6251   21.8081   36.0372 H   0  0  0  0  0  0  0  0  0  0  0  0
   40.2968   23.8339   37.4749 H   0  0  0  0  0  0  0  0  0  0  0  0
   39.1530   22.6382   38.1162 H   0  0  0  0  0  0  0  0  0  0  0  0
   41.3523   21.7328   38.6050 H   0  0  0  0  0  0  0  0  0  0  0  0
   40.8081   20.8157   37.1794 H   0  0  0  0  0  0  0  0  0  0  0  0
   42.6038   23.2834   37.2311 H   0  0  0  0  0  0  0  0  0  0  0  0
   43.0639   21.6057   36.7707 H   0  0  0  0  0  0  0  0  0  0  0  0
   41.8332   23.7122   35.1876 H   0  0  0  0  0  0  0  0  0  0  0  0
   42.5671   22.1241   34.6878 H   0  0  0  0  0  0  0  0  0  0  0  0
   40.2122   22.3661   33.9980 H   0  0  0  0  0  0  0  0  0  0  0  0
   40.5211   20.9823   35.1431 H   0  0  0  0  0  0  0  0  0  0  0  0
  1  6  2  0
  2  1  1  0
  3  4  1  0
  3  2  2  0
  4  5  2  0
  5 15  1  0
  5  6  1  0
  7  2  1  0
  7  8  2  0
  9  8  1  0
 10  9  2  0
 11 10  1  0
 11  7  1  0
 12 13  2  0
 12 10  1  0
 14 12  1  0
 15 16  1  0
 16 17  1  0
 18 17  1  0
 19 18  1  0
 20 19  1  0
 20 15  1  0
  1 21  1  0
  3 22  1  0
  8 23  1  0
  9 24  1  0
 14 25  1  0
 14 26  1  0
 15 27  1  0
 16 28  1  0
 16 29  1  0
 17 30  1  0
 17 31  1  0
 18 32  1  0
 18 33  1  0
 19 34  1  0
 19 35  1  0
 20 36  1  0
 20 37  1  0
M  ISO  8  21  14  22  14  23  14  24  14  27  13  28  13  29  13  30  13
M  ISO  7  31  13  32  13  33  13  34  13  35  13  36  13  37  13
M  END
>  <minimizedAffinity>  (1) 
-5.0824461

>  <minimizedRMSD>  (1) 
2.81306529

$$$$
