
     RDKit          3D

 23 24  0  0  0  0  0  0  0  0999 V2000
   38.1010   25.6120   35.1700 C   0  0  0  0  0  0  0  0  0  0  0  0
   37.8230   26.8930   35.6180 C   0  0  0  0  0  0  0  0  0  0  0  0
   37.2180   27.7570   34.7700 C   0  0  0  0  0  0  0  0  0  0  0  0
   36.9110   27.2940   33.4850 C   0  0  0  0  0  0  0  0  0  0  0  0
   37.5150   25.5420   33.4960 S   0  0  0  0  0  0  0  0  0  0  0  0
   38.3010   24.1000   37.1750 C   0  0  0  0  0  0  0  0  0  0  0  0
   38.7390   24.5740   35.9340 C   0  0  0  0  0  0  0  0  0  0  0  0
   39.8930   24.0240   35.3580 C   0  0  0  0  0  0  0  0  0  0  0  0
   40.5210   23.0440   36.0690 N   0  0  0  0  0  0  0  0  0  0  0  0
   40.0540   22.6080   37.2900 C   0  0  0  0  0  0  0  0  0  0  0  0
   38.9570   23.1460   37.8120 N   0  0  0  0  0  0  0  0  0  0  0  0
   40.8320   21.5740   37.8990 N   0  0  0  0  0  0  0  0  0  0  0  0
   36.3090   27.8520   32.3450 C   0  0  0  0  0  0  0  0  0  0  0  0
   35.5590   27.1940   31.6310 O   0  0  0  0  0  0  0  0  0  0  0  0
   36.5460   29.2210   31.9640 N   0  0  0  0  0  0  0  0  0  0  0  0
   38.0881   27.2011   36.6402 H   0  0  0  0  0  0  0  0  0  0  0  0
   36.9765   28.7847   35.0789 H   0  0  0  0  0  0  0  0  0  0  0  0
   37.3951   24.5287   37.6284 H   0  0  0  0  0  0  0  0  0  0  0  0
   40.2721   24.3651   34.3834 H   0  0  0  0  0  0  0  0  0  0  0  0
   40.5531   21.1903   38.8133 H   0  0  0  0  0  0  0  0  0  0  0  0
   41.6712   21.2130   37.4233 H   0  0  0  0  0  0  0  0  0  0  0  0
   36.0930   29.6075   31.1236 H   0  0  0  0  0  0  0  0  0  0  0  0
   37.1685   29.8133   32.5320 H   0  0  0  0  0  0  0  0  0  0  0  0
  1  2  2  0
  1  7  1  0
  3  2  1  0
  4  5  1  0
  4  3  2  0
  5  1  1  0
  6 11  2  0
  7  6  1  0
  8  7  2  0
  8  9  1  0
  9 10  2  0
 10 11  1  0
 10 12  1  0
 13  4  1  0
 14 13  2  0
 15 13  1  0
  2 16  1  0
  3 17  1  0
  6 18  1  0
  8 19  1  0
 12 20  1  0
 12 21  1  0
 15 22  1  0
 15 23  1  0
M  ISO  4  16  14  17  14  18  14  19  14
M  END
>  <minimizedAffinity>  (1) 
-4.71056986

>  <minimizedRMSD>  (1) 
0.471242249

$$$$
