
     RDKit          3D

 34 36  0  0  0  0  0  0  0  0999 V2000
   39.4060   23.6250   36.2000 C   0  0  0  0  0  0  0  0  0  0  0  0
   39.7000   24.7180   35.3500 C   0  0  0  0  0  0  0  0  0  0  0  0
   40.9190   24.7770   34.6970 C   0  0  0  0  0  0  0  0  0  0  0  0
   41.7900   23.7530   34.9160 N   0  0  0  0  0  0  0  0  0  0  0  0
   41.4690   22.6930   35.7590 C   0  0  0  0  0  0  0  0  0  0  0  0
   40.2910   22.6620   36.3730 N   0  0  0  0  0  0  0  0  0  0  0  0
   42.5200   21.6690   35.9030 C   0  0  0  0  0  0  0  0  0  0  0  0
   43.5890   21.7710   35.0390 C   0  0  0  0  0  0  0  0  0  0  0  0
   44.6480   20.3180   35.5850 S   0  0  0  0  0  0  0  0  0  0  0  0
   43.3840   19.8720   36.8980 C   0  0  0  0  0  0  0  0  0  0  0  0
   42.6120   20.6640   36.7400 N   0  0  0  0  0  0  0  0  0  0  0  0
   43.6900   18.7170   37.7180 N   0  0  0  0  0  0  0  0  0  0  0  0
   42.9710   17.5540   37.4190 C   0  0  0  0  0  0  0  0  0  0  0  0
   42.6250   17.2930   36.2080 N   0  0  0  0  0  0  0  0  0  0  0  0
   42.6130   16.6350   38.4660 N   0  0  0  0  0  0  0  0  0  0  0  0
   42.8730   17.9330   35.4490 H   0  0  0  0  0  0  0  0  0  0  0  0
   38.7970   25.8250   35.1060 C   0  0  0  0  0  0  0  0  0  0  0  0
   38.6980   26.9530   35.9110 C   0  0  0  0  0  0  0  0  0  0  0  0
   37.7990   27.9010   35.5430 C   0  0  0  0  0  0  0  0  0  0  0  0
   37.0460   27.6840   34.3980 C   0  0  0  0  0  0  0  0  0  0  0  0
   37.6430   26.0310   33.7940 S   0  0  0  0  0  0  0  0  0  0  0  0
   36.0490   28.3900   33.6960 C   0  0  0  0  0  0  0  0  0  0  0  0
   35.7460   28.0960   32.5320 O   0  0  0  0  0  0  0  0  0  0  0  0
   35.3430   29.4860   34.3200 N   0  0  0  0  0  0  0  0  0  0  0  0
   38.4367   23.5784   36.7179 H   0  0  0  0  0  0  0  0  0  0  0  0
   41.1732   25.6142   34.0304 H   0  0  0  0  0  0  0  0  0  0  0  0
   43.7731   22.5068   34.2423 H   0  0  0  0  0  0  0  0  0  0  0  0
   44.3911   18.7498   38.4719 H   0  0  0  0  0  0  0  0  0  0  0  0
   42.0838   15.7801   38.2422 H   0  0  0  0  0  0  0  0  0  0  0  0
   42.8858   16.8318   39.4395 H   0  0  0  0  0  0  0  0  0  0  0  0
   39.3220   27.0728   36.8089 H   0  0  0  0  0  0  0  0  0  0  0  0
   37.6707   28.8177   36.1372 H   0  0  0  0  0  0  0  0  0  0  0  0
   34.6161   29.9947   33.7969 H   0  0  0  0  0  0  0  0  0  0  0  0
   35.5668   29.7583   35.2878 H   0  0  0  0  0  0  0  0  0  0  0  0
  1  6  2  0
  2  1  1  0
  3  4  1  0
  3  2  2  0
  4  5  2  0
  5  7  1  0
  5  6  1  0
  7 11  1  0
  8  9  1  0
  8  7  2  0
  9 10  1  0
 10 12  1  0
 11 10  2  0
 13 12  1  0
 13 15  1  0
 14 13  2  0
 16 14  1  0
 17  2  1  0
 17 18  2  0
 19 18  1  0
 20 19  2  0
 21 20  1  0
 21 17  1  0
 22 24  1  0
 22 20  1  0
 23 22  2  0
  1 25  1  0
  3 26  1  0
  8 27  1  0
 12 28  1  0
 15 29  1  0
 15 30  1  0
 18 31  1  0
 19 32  1  0
 24 33  1  0
 24 34  1  0
M  ISO  5  25  14  26  14  27  14  31  14  32  14
M  END
>  <minimizedAffinity>  (1) 
-4.98564291

>  <minimizedRMSD>  (1) 
0.966414154

$$$$
