
     RDKit          3D

 39 42  0  0  0  0  0  0  0  0999 V2000
   38.9770   23.4630   36.2090 C   0  0  0  0  0  0  0  0  0  0  0  0
   39.4030   24.5670   35.4310 C   0  0  0  0  0  0  0  0  0  0  0  0
   40.6650   24.5720   34.8690 C   0  0  0  0  0  0  0  0  0  0  0  0
   41.4460   23.4820   35.1060 N   0  0  0  0  0  0  0  0  0  0  0  0
   40.9960   22.4130   35.8740 C   0  0  0  0  0  0  0  0  0  0  0  0
   39.7800   22.4360   36.4010 N   0  0  0  0  0  0  0  0  0  0  0  0
   41.9650   21.3130   36.0440 C   0  0  0  0  0  0  0  0  0  0  0  0
   42.1820   20.8880   37.3310 C   0  0  0  0  0  0  0  0  0  0  0  0
   43.4380   19.5090   37.0770 S   0  0  0  0  0  0  0  0  0  0  0  0
   43.3970   19.8170   35.2100 C   0  0  0  0  0  0  0  0  0  0  0  0
   42.6620   20.6560   35.1370 N   0  0  0  0  0  0  0  0  0  0  0  0
   44.1610   19.0980   34.1890 N   0  0  0  0  0  0  0  0  0  0  0  0
   45.3020   18.1810   34.3440 C   0  0  0  0  0  0  0  0  0  0  0  0
   46.3180   18.7490   33.3630 C   0  0  0  0  0  0  0  0  0  0  0  0
   45.4780   19.4970   32.3390 C   0  0  0  0  0  0  0  0  0  0  0  0
   44.0890   19.0250   32.7200 C   0  0  0  0  0  0  0  0  0  0  0  0
   38.5930   25.7410   35.1760 C   0  0  0  0  0  0  0  0  0  0  0  0
   38.5840   26.8870   35.9800 C   0  0  0  0  0  0  0  0  0  0  0  0
   37.7640   27.8950   35.5960 C   0  0  0  0  0  0  0  0  0  0  0  0
   36.9990   27.7310   34.4500 C   0  0  0  0  0  0  0  0  0  0  0  0
   37.4600   26.0240   33.8540 S   0  0  0  0  0  0  0  0  0  0  0  0
   36.0630   28.5180   33.7500 C   0  0  0  0  0  0  0  0  0  0  0  0
   35.8160   28.2980   32.5570 O   0  0  0  0  0  0  0  0  0  0  0  0
   35.3670   29.6040   34.4100 N   0  0  0  0  0  0  0  0  0  0  0  0
   37.9715   23.4628   36.6549 H   0  0  0  0  0  0  0  0  0  0  0  0
   41.0216   25.4155   34.2597 H   0  0  0  0  0  0  0  0  0  0  0  0
   41.7376   21.2571   38.2671 H   0  0  0  0  0  0  0  0  0  0  0  0
   45.6899   18.1997   35.3732 H   0  0  0  0  0  0  0  0  0  0  0  0
   45.0475   17.1284   34.1509 H   0  0  0  0  0  0  0  0  0  0  0  0
   47.0109   19.4342   33.8733 H   0  0  0  0  0  0  0  0  0  0  0  0
   46.9402   17.9667   32.9039 H   0  0  0  0  0  0  0  0  0  0  0  0
   45.7376   19.2057   31.3105 H   0  0  0  0  0  0  0  0  0  0  0  0
   45.6091   20.5891   32.3496 H   0  0  0  0  0  0  0  0  0  0  0  0
   43.3116   19.6925   32.3199 H   0  0  0  0  0  0  0  0  0  0  0  0
   43.8238   18.0322   32.3276 H   0  0  0  0  0  0  0  0  0  0  0  0
   39.2120   26.9653   36.8797 H   0  0  0  0  0  0  0  0  0  0  0  0
   37.7059   28.8247   36.1810 H   0  0  0  0  0  0  0  0  0  0  0  0
   34.6851   30.1719   33.8871 H   0  0  0  0  0  0  0  0  0  0  0  0
   35.5541   29.8081   35.4021 H   0  0  0  0  0  0  0  0  0  0  0  0
  1  6  2  0
  2  1  1  0
  3  4  1  0
  3  2  2  0
  4  5  2  0
  5  7  1  0
  5  6  1  0
  7  8  2  0
  9  8  1  0
 10  9  1  0
 11 10  2  0
 11  7  1  0
 12 13  1  0
 12 10  1  0
 14 13  1  0
 15 16  1  0
 15 14  1  0
 16 12  1  0
 17  2  1  0
 17 18  2  0
 19 18  1  0
 20 19  2  0
 21 20  1  0
 21 17  1  0
 22 24  1  0
 22 20  1  0
 23 22  2  0
  1 25  1  0
  3 26  1  0
  8 27  1  0
 13 28  1  0
 13 29  1  0
 14 30  1  0
 14 31  1  0
 15 32  1  0
 15 33  1  0
 16 34  1  0
 16 35  1  0
 18 36  1  0
 19 37  1  0
 24 38  1  0
 24 39  1  0
M  ISO  8  25  14  26  14  27  14  28  13  29  13  30  13  31  13  32  13
M  ISO  5  33  13  34  13  35  13  36  14  37  14
M  END
>  <minimizedAffinity>  (1) 
-4.40828466

>  <minimizedRMSD>  (1) 
3.2583878

$$$$
