
     RDKit          3D

 41 44  0  0  0  0  0  0  0  0999 V2000
   39.8440   23.6060   35.4920 C   0  0  0  0  0  0  0  0  0  0  0  0
   39.8230   24.6600   34.5490 C   0  0  0  0  0  0  0  0  0  0  0  0
   40.7450   24.6750   33.5050 C   0  0  0  0  0  0  0  0  0  0  0  0
   41.6280   23.6430   33.4670 N   0  0  0  0  0  0  0  0  0  0  0  0
   41.6200   22.6240   34.4130 C   0  0  0  0  0  0  0  0  0  0  0  0
   40.7300   22.6360   35.3920 N   0  0  0  0  0  0  0  0  0  0  0  0
   42.6600   21.5910   34.2160 C   0  0  0  0  0  0  0  0  0  0  0  0
   43.5590   21.7990   33.2060 C   0  0  0  0  0  0  0  0  0  0  0  0
   44.6600   20.2840   33.3400 S   0  0  0  0  0  0  0  0  0  0  0  0
   43.6240   19.6630   34.7970 C   0  0  0  0  0  0  0  0  0  0  0  0
   42.8630   20.4750   34.8870 N   0  0  0  0  0  0  0  0  0  0  0  0
   43.7490   18.4320   35.6310 N   0  0  0  0  0  0  0  0  0  0  0  0
   43.6540   18.3690   37.0770 C   0  0  0  0  0  0  0  0  0  0  0  0
   42.6690   17.2440   37.3700 C   0  0  0  0  0  0  0  0  0  0  0  0
   43.1350   15.9780   36.8810 N   0  0  0  0  0  0  0  0  0  0  0  0
   44.2330   16.1360   35.9730 C   0  0  0  0  0  0  0  0  0  0  0  0
   43.9870   17.1980   34.9140 C   0  0  0  0  0  0  0  0  0  0  0  0
   38.8920   25.7670   34.5840 C   0  0  0  0  0  0  0  0  0  0  0  0
   38.7860   26.6740   35.6310 C   0  0  0  0  0  0  0  0  0  0  0  0
   37.8570   27.6570   35.5000 C   0  0  0  0  0  0  0  0  0  0  0  0
   37.0850   27.6910   34.3480 C   0  0  0  0  0  0  0  0  0  0  0  0
   37.7040   26.2460   33.3770 S   0  0  0  0  0  0  0  0  0  0  0  0
   36.0540   28.5220   33.8540 C   0  0  0  0  0  0  0  0  0  0  0  0
   35.5200   28.2860   32.7620 O   0  0  0  0  0  0  0  0  0  0  0  0
   35.6010   29.6630   34.6100 N   0  0  0  0  0  0  0  0  0  0  0  0
   39.1148   23.5961   36.3155 H   0  0  0  0  0  0  0  0  0  0  0  0
   40.7576   25.4778   32.7531 H   0  0  0  0  0  0  0  0  0  0  0  0
   43.6209   22.6381   32.4975 H   0  0  0  0  0  0  0  0  0  0  0  0
   44.6366   18.1445   37.5177 H   0  0  0  0  0  0  0  0  0  0  0  0
   43.3217   19.3255   37.5068 H   0  0  0  0  0  0  0  0  0  0  0  0
   42.5252   17.1728   38.4582 H   0  0  0  0  0  0  0  0  0  0  0  0
   41.7245   17.4785   36.8573 H   0  0  0  0  0  0  0  0  0  0  0  0
   43.4410   15.4033   37.6791 H   0  0  0  0  0  0  0  0  0  0  0  0
   45.1259   16.4182   36.5501 H   0  0  0  0  0  0  0  0  0  0  0  0
   44.3646   15.1774   35.4498 H   0  0  0  0  0  0  0  0  0  0  0  0
   43.1092   16.9345   34.3058 H   0  0  0  0  0  0  0  0  0  0  0  0
   44.8436   17.2894   34.2300 H   0  0  0  0  0  0  0  0  0  0  0  0
   39.4240   26.5999   36.5240 H   0  0  0  0  0  0  0  0  0  0  0  0
   37.7201   28.4096   36.2905 H   0  0  0  0  0  0  0  0  0  0  0  0
   34.8488   30.2609   34.2390 H   0  0  0  0  0  0  0  0  0  0  0  0
   36.0296   29.8803   35.5211 H   0  0  0  0  0  0  0  0  0  0  0  0
  2 18  1  0
  2  1  2  0
  3  2  1  0
  4  3  2  0
  4  5  1  0
  5  6  2  0
  6  1  1  0
  7  5  1  0
  7 11  1  0
  8  9  1  0
  8  7  2  0
  9 10  1  0
 10 11  2  0
 10 12  1  0
 12 13  1  0
 13 14  1  0
 15 14  1  0
 16 15  1  0
 17 12  1  0
 17 16  1  0
 18 19  2  0
 20 19  1  0
 21 20  2  0
 22 21  1  0
 22 18  1  0
 23 21  1  0
 23 25  1  0
 24 23  2  0
  1 26  1  0
  3 27  1  0
  8 28  1  0
 13 29  1  0
 13 30  1  0
 14 31  1  0
 14 32  1  0
 15 33  1  0
 16 34  1  0
 16 35  1  0
 17 36  1  0
 17 37  1  0
 19 38  1  0
 20 39  1  0
 25 40  1  0
 25 41  1  0
M  ISO  8  26  14  27  14  28  14  29  13  30  13  31  13  32  13  33   5
M  ISO  6  34  13  35  13  36  13  37  13  38  14  39  14
M  END
>  <minimizedAffinity>  (1) 
-3.87508154

>  <minimizedRMSD>  (1) 
2.37805581

$$$$
