
     RDKit          3D

 32 33  0  0  1  0  0  0  0  0999 V2000
   41.0190   22.9240   35.6180 C   0  0  2  0  0  0  0  0  0  0  0  0
   39.8530   23.3180   36.4850 C   0  0  0  0  0  0  0  0  0  0  0  0
   39.7960   22.9120   37.8230 C   0  0  0  0  0  0  0  0  0  0  0  0
   38.7030   23.2990   38.5880 C   0  0  0  0  0  0  0  0  0  0  0  0
   37.7370   24.0620   37.9870 N   0  0  0  0  0  0  0  0  0  0  0  0
   37.8110   24.4420   36.6980 C   0  0  0  0  0  0  0  0  0  0  0  0
   38.8700   24.0650   35.9590 N   0  0  0  0  0  0  0  0  0  0  0  0
   40.4070   22.1000   34.5110 C   0  0  0  0  0  0  0  0  0  0  0  0
   41.9860   22.1140   36.4450 C   0  0  0  0  0  0  0  0  0  0  0  0
   45.7190   24.1530   36.4460 C   0  0  0  0  0  0  0  0  0  0  0  0
   44.5570   24.7370   36.9090 C   0  0  0  0  0  0  0  0  0  0  0  0
   43.3710   24.0210   36.8830 C   0  0  0  0  0  0  0  0  0  0  0  0
   43.3240   22.7270   36.4010 C   0  0  0  0  0  0  0  0  0  0  0  0
   44.4710   22.1350   35.9380 C   0  0  0  0  0  0  0  0  0  0  0  0
   45.6500   22.8650   35.9710 C   0  0  0  0  0  0  0  0  0  0  0  0
   47.1900   25.0930   36.4990 S   0  0  0  0  0  0  0  0  0  0  0  0
   47.0810   25.9770   37.7320 O   0  0  0  0  0  0  0  0  0  0  0  0
   47.2970   26.0130   35.3290 O   0  0  0  0  0  0  0  0  0  0  0  0
   41.5797   23.7785   35.2112 H   0  0  0  0  0  0  0  0  0  0  0  0
   40.5991   22.2999   38.2594 H   0  0  0  0  0  0  0  0  0  0  0  0
   38.6159   23.0020   39.6436 H   0  0  0  0  0  0  0  0  0  0  0  0
   37.0133   25.0549   36.2531 H   0  0  0  0  0  0  0  0  0  0  0  0
   39.8049   21.2893   34.9473 H   0  0  0  0  0  0  0  0  0  0  0  0
   39.7640   22.7406   33.8896 H   0  0  0  0  0  0  0  0  0  0  0  0
   41.2061   21.6696   33.8896 H   0  0  0  0  0  0  0  0  0  0  0  0
   41.6349   22.0806   37.4869 H   0  0  0  0  0  0  0  0  0  0  0  0
   42.0430   21.0940   36.0372 H   0  0  0  0  0  0  0  0  0  0  0  0
   44.5725   25.7662   37.2969 H   0  0  0  0  0  0  0  0  0  0  0  0
   42.4486   24.4921   37.2534 H   0  0  0  0  0  0  0  0  0  0  0  0
   44.4565   21.1059   35.5497 H   0  0  0  0  0  0  0  0  0  0  0  0
   46.5713   22.3918   35.6003 H   0  0  0  0  0  0  0  0  0  0  0  0
   48.2687   24.2484   36.5039 H   0  0  0  0  0  0  0  0  0  0  0  0
  1  9  1  0
  1  2  1  0
  2  3  2  0
  3  4  1  0
  5  4  2  0
  6  5  1  0
  7  2  1  0
  7  6  2  0
  8  1  1  0
 10 16  1  0
 10 11  2  0
 12 11  1  0
 13  9  1  0
 13 12  2  0
 14 15  2  0
 14 13  1  0
 15 10  1  0
 16 17  2  0
 18 16  2  0
  1 19  1  6
  3 20  1  0
  4 21  1  0
  6 22  1  0
  8 23  1  0
  8 24  1  0
  8 25  1  0
  9 26  1  0
  9 27  1  0
 11 28  1  0
 12 29  1  0
 14 30  1  0
 15 31  1  0
 16 32  1  0
M  ISO  8  19   8  20  14  21  14  22  14  23   8  24   8  25   8  26   8
M  ISO  6  27   8  28  14  29  14  30  14  31  14  32  11
M  END
>  <minimizedAffinity>  (1) 
-4.30071354

>  <minimizedRMSD>  (1) 
2.8806119

$$$$
