
     RDKit          3D

 39 42  0  0  0  0  0  0  0  0999 V2000
   37.3860   27.2550   34.1300 C   0  0  0  0  0  0  0  0  0  0  0  0
   36.7350   28.1300   34.9740 C   0  0  0  0  0  0  0  0  0  0  0  0
   36.0460   29.1340   34.4020 C   0  0  0  0  0  0  0  0  0  0  0  0
   36.0260   29.2330   33.0260 C   0  0  0  0  0  0  0  0  0  0  0  0
   37.0760   27.7810   32.4720 S   0  0  0  0  0  0  0  0  0  0  0  0
   37.9250   25.3570   35.7120 C   0  0  0  0  0  0  0  0  0  0  0  0
   38.1800   26.1220   34.5750 C   0  0  0  0  0  0  0  0  0  0  0  0
   39.2840   25.8140   33.7590 C   0  0  0  0  0  0  0  0  0  0  0  0
   40.0350   24.7570   34.1650 N   0  0  0  0  0  0  0  0  0  0  0  0
   39.7660   24.0240   35.2800 C   0  0  0  0  0  0  0  0  0  0  0  0
   38.7230   24.3440   36.0190 N   0  0  0  0  0  0  0  0  0  0  0  0
   40.6820   22.9160   35.5670 C   0  0  0  0  0  0  0  0  0  0  0  0
   41.4440   22.4690   34.5360 C   0  0  0  0  0  0  0  0  0  0  0  0
   42.4470   21.0840   35.3270 S   0  0  0  0  0  0  0  0  0  0  0  0
   41.5640   21.4220   37.0050 C   0  0  0  0  0  0  0  0  0  0  0  0
   40.8980   22.2630   36.6890 N   0  0  0  0  0  0  0  0  0  0  0  0
   41.8460   20.6850   38.1710 N   0  0  0  0  0  0  0  0  0  0  0  0
   35.3030   30.1800   35.1360 C   0  0  0  0  0  0  0  0  0  0  0  0
   35.9870   31.2520   35.7060 C   0  0  0  0  0  0  0  0  0  0  0  0
   35.3760   32.2780   36.3980 C   0  0  0  0  0  0  0  0  0  0  0  0
   34.0040   32.1800   36.4980 C   0  0  0  0  0  0  0  0  0  0  0  0
   33.2530   31.1550   35.9630 C   0  0  0  0  0  0  0  0  0  0  0  0
   33.9310   30.1650   35.2840 C   0  0  0  0  0  0  0  0  0  0  0  0
   35.4380   30.0770   32.0430 C   0  0  0  0  0  0  0  0  0  0  0  0
   36.1090   30.8630   31.3860 O   0  0  0  0  0  0  0  0  0  0  0  0
   34.0010   29.9940   31.8200 N   0  0  0  0  0  0  0  0  0  0  0  0
   36.7772   28.0122   36.0669 H   0  0  0  0  0  0  0  0  0  0  0  0
   37.0632   25.5935   36.3533 H   0  0  0  0  0  0  0  0  0  0  0  0
   39.5231   26.3903   32.8531 H   0  0  0  0  0  0  0  0  0  0  0  0
   41.4695   22.8269   33.4962 H   0  0  0  0  0  0  0  0  0  0  0  0
   41.3501   20.8990   39.0480 H   0  0  0  0  0  0  0  0  0  0  0  0
   42.5482   19.9319   38.1470 H   0  0  0  0  0  0  0  0  0  0  0  0
   37.0812   31.2823   35.5977 H   0  0  0  0  0  0  0  0  0  0  0  0
   35.9418   33.1127   36.8375 H   0  0  0  0  0  0  0  0  0  0  0  0
   33.4722   32.9744   37.0421 H   0  0  0  0  0  0  0  0  0  0  0  0
   32.1589   31.1282   36.0733 H   0  0  0  0  0  0  0  0  0  0  0  0
   33.3586   29.3345   34.8451 H   0  0  0  0  0  0  0  0  0  0  0  0
   33.5539   30.5955   31.1135 H   0  0  0  0  0  0  0  0  0  0  0  0
   33.4319   29.3338   32.3689 H   0  0  0  0  0  0  0  0  0  0  0  0
  1  7  1  0
  1  2  2  0
  3  2  1  0
  3 18  1  0
  4  3  2  0
  5  4  1  0
  5  1  1  0
  6 11  2  0
  7  6  1  0
  8  9  1  0
  8  7  2  0
  9 10  2  0
 10 12  1  0
 10 11  1  0
 12 16  1  0
 13 14  1  0
 13 12  2  0
 14 15  1  0
 15 17  1  0
 16 15  2  0
 18 23  1  0
 18 19  2  0
 19 20  1  0
 20 21  2  0
 22 21  1  0
 23 22  2  0
 24  4  1  0
 25 24  2  0
 26 24  1  0
  2 27  1  0
  6 28  1  0
  8 29  1  0
 13 30  1  0
 17 31  1  0
 17 32  1  0
 19 33  1  0
 20 34  1  0
 21 35  1  0
 22 36  1  0
 23 37  1  0
 26 38  1  0
 26 39  1  0
M  ISO  8  27  14  28  14  29  14  30  14  33  14  34  14  35  14  36  14
M  ISO  1  37  14
M  END
>  <minimizedAffinity>  (1) 
-5.80172682

>  <minimizedRMSD>  (1) 
2.64239335

$$$$
