
     RDKit          3D

 30 32  0  0  0  0  0  0  0  0999 V2000
   39.3230   23.4370   36.2230 C   0  0  0  0  0  0  0  0  0  0  0  0
   39.6560   24.4830   35.3490 C   0  0  0  0  0  0  0  0  0  0  0  0
   40.9160   24.5200   34.7510 C   0  0  0  0  0  0  0  0  0  0  0  0
   41.7480   23.4960   35.0810 N   0  0  0  0  0  0  0  0  0  0  0  0
   41.4030   22.4890   35.9340 C   0  0  0  0  0  0  0  0  0  0  0  0
   40.1890   22.4810   36.4900 N   0  0  0  0  0  0  0  0  0  0  0  0
   42.4140   21.4560   36.2010 C   0  0  0  0  0  0  0  0  0  0  0  0
   43.6580   21.6990   35.6730 C   0  0  0  0  0  0  0  0  0  0  0  0
   44.6250   20.1870   36.2150 S   0  0  0  0  0  0  0  0  0  0  0  0
   43.0550   19.5020   37.0940 C   0  0  0  0  0  0  0  0  0  0  0  0
   42.3540   20.3300   36.8520 N   0  0  0  0  0  0  0  0  0  0  0  0
   43.0520   18.2740   37.7840 N   0  0  0  0  0  0  0  0  0  0  0  0
   38.7730   25.5880   35.0000 C   0  0  0  0  0  0  0  0  0  0  0  0
   38.5920   26.7150   35.7780 C   0  0  0  0  0  0  0  0  0  0  0  0
   37.7260   27.6480   35.2940 C   0  0  0  0  0  0  0  0  0  0  0  0
   37.1000   27.4150   34.0880 C   0  0  0  0  0  0  0  0  0  0  0  0
   37.7620   25.7630   33.5740 S   0  0  0  0  0  0  0  0  0  0  0  0
   36.1730   28.0980   33.2610 C   0  0  0  0  0  0  0  0  0  0  0  0
   35.9820   27.7770   32.0930 O   0  0  0  0  0  0  0  0  0  0  0  0
   35.4230   29.2150   33.8130 N   0  0  0  0  0  0  0  0  0  0  0  0
   37.3730   28.8590   35.8810 O   0  0  0  0  0  0  0  0  0  0  0  0
   38.3275   23.4151   36.6905 H   0  0  0  0  0  0  0  0  0  0  0  0
   41.2158   25.3220   34.0604 H   0  0  0  0  0  0  0  0  0  0  0  0
   44.0002   22.5615   35.0822 H   0  0  0  0  0  0  0  0  0  0  0  0
   42.1908   17.9424   38.2414 H   0  0  0  0  0  0  0  0  0  0  0  0
   43.9110   17.7077   37.8311 H   0  0  0  0  0  0  0  0  0  0  0  0
   39.1177   26.8512   36.7346 H   0  0  0  0  0  0  0  0  0  0  0  0
   34.7458   29.7214   33.2249 H   0  0  0  0  0  0  0  0  0  0  0  0
   35.5690   29.4997   34.7920 H   0  0  0  0  0  0  0  0  0  0  0  0
   36.7274   29.4584   35.4294 H   0  0  0  0  0  0  0  0  0  0  0  0
  1  6  2  0
  2  1  1  0
  3  4  1  0
  3  2  2  0
  4  5  2  0
  5  7  1  0
  5  6  1  0
  7 11  1  0
  8  7  2  0
  8  9  1  0
  9 10  1  0
 10 12  1  0
 11 10  2  0
 13  2  1  0
 13 14  2  0
 15 14  1  0
 15 21  1  0
 16 15  2  0
 17 16  1  0
 17 13  1  0
 18 20  1  0
 18 16  1  0
 19 18  2  0
  1 22  1  0
  3 23  1  0
  8 24  1  0
 12 25  1  0
 12 26  1  0
 14 27  1  0
 20 28  1  0
 20 29  1  0
 21 30  1  0
M  ISO  5  22  14  23  14  24  14  27  14  30   3
M  END
>  <minimizedAffinity>  (1) 
-4.43100786

>  <minimizedRMSD>  (1) 
0.290787756

$$$$
