
     RDKit          3D

 36 39  0  0  0  0  0  0  0  0999 V2000
   39.1950   25.2460   34.9370 C   0  0  0  0  0  0  0  0  0  0  0  0
   40.5580   25.3280   34.7260 C   0  0  0  0  0  0  0  0  0  0  0  0
   41.3060   24.3420   35.2760 C   0  0  0  0  0  0  0  0  0  0  0  0
   40.6800   23.3430   35.9930 C   0  0  0  0  0  0  0  0  0  0  0  0
   38.8720   23.7990   35.9100 S   0  0  0  0  0  0  0  0  0  0  0  0
   37.6410   26.1660   33.1610 C   0  0  0  0  0  0  0  0  0  0  0  0
   38.2240   26.2070   34.4290 C   0  0  0  0  0  0  0  0  0  0  0  0
   37.8820   27.2340   35.3250 C   0  0  0  0  0  0  0  0  0  0  0  0
   36.9730   28.1290   34.8430 N   0  0  0  0  0  0  0  0  0  0  0  0
   36.4180   28.0680   33.6050 C   0  0  0  0  0  0  0  0  0  0  0  0
   36.7680   27.0800   32.7830 N   0  0  0  0  0  0  0  0  0  0  0  0
   35.4450   29.1150   33.2580 C   0  0  0  0  0  0  0  0  0  0  0  0
   34.5990   29.4920   34.2460 C   0  0  0  0  0  0  0  0  0  0  0  0
   33.5370   30.7960   33.4040 S   0  0  0  0  0  0  0  0  0  0  0  0
   34.5320   30.5390   31.7770 C   0  0  0  0  0  0  0  0  0  0  0  0
   35.2360   29.7520   32.1430 N   0  0  0  0  0  0  0  0  0  0  0  0
   34.2730   31.2490   30.5820 N   0  0  0  0  0  0  0  0  0  0  0  0
   42.7280   24.2010   35.2030 N   0  0  0  0  0  0  0  0  0  0  0  0
   43.4480   23.4530   34.3610 N   0  0  0  0  0  0  0  0  0  0  0  0
   44.7510   23.5980   34.6200 C   0  0  0  0  0  0  0  0  0  0  0  0
   44.8600   24.4910   35.6900 C   0  0  0  0  0  0  0  0  0  0  0  0
   43.5730   24.8510   36.0320 C   0  0  0  0  0  0  0  0  0  0  0  0
   41.0890   22.1810   36.6920 C   0  0  0  0  0  0  0  0  0  0  0  0
   40.7320   21.9670   37.8450 O   0  0  0  0  0  0  0  0  0  0  0  0
   41.9470   21.2160   36.0500 N   0  0  0  0  0  0  0  0  0  0  0  0
   41.0091   26.1461   34.1454 H   0  0  0  0  0  0  0  0  0  0  0  0
   37.9141   25.3584   32.4658 H   0  0  0  0  0  0  0  0  0  0  0  0
   38.3129   27.3099   36.3342 H   0  0  0  0  0  0  0  0  0  0  0  0
   34.5462   29.1267   35.2822 H   0  0  0  0  0  0  0  0  0  0  0  0
   33.5181   31.9491   30.5522 H   0  0  0  0  0  0  0  0  0  0  0  0
   34.8392   31.0661   29.7413 H   0  0  0  0  0  0  0  0  0  0  0  0
   45.5812   23.1072   34.0910 H   0  0  0  0  0  0  0  0  0  0  0  0
   45.7891   24.8382   36.1656 H   0  0  0  0  0  0  0  0  0  0  0  0
   43.2861   25.5440   36.8366 H   0  0  0  0  0  0  0  0  0  0  0  0
   42.2437   20.3714   36.5594 H   0  0  0  0  0  0  0  0  0  0  0  0
   42.2631   21.3714   35.0821 H   0  0  0  0  0  0  0  0  0  0  0  0
  1  5  1  0
  2  1  2  0
  2  3  1  0
  3  4  2  0
  4 23  1  0
  5  4  1  0
  6  7  2  0
  7  1  1  0
  7  8  1  0
  9  8  2  0
 10  9  1  0
 11  6  1  0
 11 10  2  0
 12 10  1  0
 12 13  2  0
 14 13  1  0
 15 16  2  0
 15 14  1  0
 16 12  1  0
 17 15  1  0
 18  3  1  0
 18 22  1  0
 19 20  2  0
 19 18  1  0
 20 21  1  0
 21 22  2  0
 23 24  2  0
 25 23  1  0
  2 26  1  0
  6 27  1  0
  8 28  1  0
 13 29  1  0
 17 30  1  0
 17 31  1  0
 20 32  1  0
 21 33  1  0
 22 34  1  0
 25 35  1  0
 25 36  1  0
M  ISO  7  26  14  27  14  28  14  29  14  32  14  33  14  34  14
M  END
>  <minimizedAffinity>  (1) 
-4.86815166

>  <minimizedRMSD>  (1) 
9.2283411

$$$$
