
     RDKit          3D

 32 34  0  0  0  0  0  0  0  0999 V2000
   38.1020   24.8550   35.8410 C   0  0  0  0  0  0  0  0  0  0  0  0
   38.4060   25.8070   34.8690 C   0  0  0  0  0  0  0  0  0  0  0  0
   39.6770   25.8110   34.2640 C   0  0  0  0  0  0  0  0  0  0  0  0
   40.5370   24.8450   34.6980 N   0  0  0  0  0  0  0  0  0  0  0  0
   40.2130   23.9280   35.6490 C   0  0  0  0  0  0  0  0  0  0  0  0
   38.9980   23.9540   36.2010 N   0  0  0  0  0  0  0  0  0  0  0  0
   41.2500   22.9510   36.0150 C   0  0  0  0  0  0  0  0  0  0  0  0
   42.3680   22.9550   35.2500 C   0  0  0  0  0  0  0  0  0  0  0  0
   43.4070   21.5990   36.0370 S   0  0  0  0  0  0  0  0  0  0  0  0
   42.0270   21.2910   37.3170 C   0  0  0  0  0  0  0  0  0  0  0  0
   41.3010   22.0620   36.9610 N   0  0  0  0  0  0  0  0  0  0  0  0
   42.1240   20.3140   38.3270 N   0  0  0  0  0  0  0  0  0  0  0  0
   37.5070   26.8400   34.3950 C   0  0  0  0  0  0  0  0  0  0  0  0
   37.1720   27.9770   35.1050 C   0  0  0  0  0  0  0  0  0  0  0  0
   36.3240   28.8330   34.4930 C   0  0  0  0  0  0  0  0  0  0  0  0
   35.8450   28.5420   33.2330 C   0  0  0  0  0  0  0  0  0  0  0  0
   36.6520   26.9170   32.8540 S   0  0  0  0  0  0  0  0  0  0  0  0
   34.9730   29.1560   32.3000 C   0  0  0  0  0  0  0  0  0  0  0  0
   35.3990   29.6800   31.2770 O   0  0  0  0  0  0  0  0  0  0  0  0
   33.5400   29.1680   32.5540 N   0  0  0  0  0  0  0  0  0  0  0  0
   35.8110   30.1330   35.0490 C   0  0  0  0  0  0  0  0  0  0  0  0
   37.1079   24.8543   36.3119 H   0  0  0  0  0  0  0  0  0  0  0  0
   39.9579   26.5437   33.4931 H   0  0  0  0  0  0  0  0  0  0  0  0
   42.6079   23.5915   34.3855 H   0  0  0  0  0  0  0  0  0  0  0  0
   41.3509   20.1857   38.9954 H   0  0  0  0  0  0  0  0  0  0  0  0
   42.9681   19.7279   38.3972 H   0  0  0  0  0  0  0  0  0  0  0  0
   37.5724   28.1741   36.1104 H   0  0  0  0  0  0  0  0  0  0  0  0
   32.9011   29.6128   31.8795 H   0  0  0  0  0  0  0  0  0  0  0  0
   33.1647   28.7317   33.4082 H   0  0  0  0  0  0  0  0  0  0  0  0
   35.8267   30.0933   36.1482 H   0  0  0  0  0  0  0  0  0  0  0  0
   36.4510   30.9579   34.7027 H   0  0  0  0  0  0  0  0  0  0  0  0
   34.7801   30.2985   34.7027 H   0  0  0  0  0  0  0  0  0  0  0  0
  1  6  2  0
  2  1  1  0
  3  4  1  0
  3  2  2  0
  4  5  2  0
  5  7  1  0
  5  6  1  0
  7 11  1  0
  8  7  2  0
  8  9  1  0
  9 10  1  0
 10 12  1  0
 11 10  2  0
 13  2  1  0
 13 14  2  0
 15 21  1  0
 15 14  1  0
 16 15  2  0
 17 16  1  0
 17 13  1  0
 18 20  1  0
 18 16  1  0
 19 18  2  0
  1 22  1  0
  3 23  1  0
  8 24  1  0
 12 25  1  0
 12 26  1  0
 14 27  1  0
 20 28  1  0
 20 29  1  0
 21 30  1  0
 21 31  1  0
 21 32  1  0
M  ISO  7  22  14  23  14  24  14  27  14  30   8  31   8  32   8
M  END
>  <minimizedAffinity>  (1) 
-4.87293768

>  <minimizedRMSD>  (1) 
1.96080911

$$$$
