
     RDKit          3D

 30 32  0  0  0  0  0  0  0  0999 V2000
   38.1810   24.8610   35.7920 C   0  0  0  0  0  0  0  0  0  0  0  0
   38.4680   25.8210   34.8190 C   0  0  0  0  0  0  0  0  0  0  0  0
   39.7340   25.8460   34.2160 C   0  0  0  0  0  0  0  0  0  0  0  0
   40.6080   24.8950   34.6460 N   0  0  0  0  0  0  0  0  0  0  0  0
   40.3050   23.9710   35.5960 C   0  0  0  0  0  0  0  0  0  0  0  0
   39.0880   23.9750   36.1500 N   0  0  0  0  0  0  0  0  0  0  0  0
   41.3540   23.0120   35.9580 C   0  0  0  0  0  0  0  0  0  0  0  0
   42.5150   23.1110   35.2680 C   0  0  0  0  0  0  0  0  0  0  0  0
   43.5770   21.7480   36.0010 S   0  0  0  0  0  0  0  0  0  0  0  0
   42.1230   21.2930   37.1750 C   0  0  0  0  0  0  0  0  0  0  0  0
   41.3860   22.0550   36.8390 N   0  0  0  0  0  0  0  0  0  0  0  0
   42.1990   20.2400   38.1250 N   0  0  0  0  0  0  0  0  0  0  0  0
   37.5460   26.8490   34.3520 C   0  0  0  0  0  0  0  0  0  0  0  0
   37.2220   27.9870   35.0930 C   0  0  0  0  0  0  0  0  0  0  0  0
   36.3470   28.8430   34.5110 C   0  0  0  0  0  0  0  0  0  0  0  0
   35.8480   28.5420   33.2590 C   0  0  0  0  0  0  0  0  0  0  0  0
   36.6610   26.9150   32.8360 S   0  0  0  0  0  0  0  0  0  0  0  0
   34.9490   29.1420   32.3350 C   0  0  0  0  0  0  0  0  0  0  0  0
   35.3480   29.6830   31.3090 O   0  0  0  0  0  0  0  0  0  0  0  0
   33.5200   29.1170   32.6060 N   0  0  0  0  0  0  0  0  0  0  0  0
   35.7370   30.3830   35.1990 S   0  0  0  0  0  0  0  0  0  0  0  0
   37.1876   24.8445   36.2642 H   0  0  0  0  0  0  0  0  0  0  0  0
   40.0028   26.5849   33.4468 H   0  0  0  0  0  0  0  0  0  0  0  0
   42.7739   23.8209   34.4686 H   0  0  0  0  0  0  0  0  0  0  0  0
   41.3925   20.0347   38.7319 H   0  0  0  0  0  0  0  0  0  0  0  0
   43.0606   19.6816   38.2070 H   0  0  0  0  0  0  0  0  0  0  0  0
   37.6505   28.1772   36.0881 H   0  0  0  0  0  0  0  0  0  0  0  0
   32.8622   29.5494   31.9417 H   0  0  0  0  0  0  0  0  0  0  0  0
   33.1660   28.6669   33.4622 H   0  0  0  0  0  0  0  0  0  0  0  0
   35.7642   30.3145   36.5670 H   0  0  0  0  0  0  0  0  0  0  0  0
  1  6  2  0
  2  1  1  0
  3  4  1  0
  3  2  2  0
  4  5  2  0
  5  7  1  0
  5  6  1  0
  7 11  1  0
  8  7  2  0
  8  9  1  0
  9 10  1  0
 10 12  1  0
 11 10  2  0
 13  2  1  0
 13 14  2  0
 15 14  1  0
 15 21  1  0
 16 15  2  0
 17 16  1  0
 17 13  1  0
 18 20  1  0
 18 16  1  0
 19 18  2  0
  1 22  1  0
  3 23  1  0
  8 24  1  0
 12 25  1  0
 12 26  1  0
 14 27  1  0
 20 28  1  0
 20 29  1  0
 21 30  1  0
M  ISO  5  22  14  23  14  24  14  27  14  30  11
M  END
>  <minimizedAffinity>  (1) 
-4.57521057

>  <minimizedRMSD>  (1) 
1.94096398

$$$$
