
     RDKit          3D

 29 30  0  0  1  0  0  0  0  0999 V2000
   40.9320   26.2980   34.6250 C   0  0  2  0  0  0  0  0  0  0  0  0
   39.5310   26.8290   34.4820 C   0  0  0  0  0  0  0  0  0  0  0  0
   38.8080   27.2450   35.6080 C   0  0  0  0  0  0  0  0  0  0  0  0
   37.5210   27.7370   35.4220 C   0  0  0  0  0  0  0  0  0  0  0  0
   37.0350   27.7860   34.1450 N   0  0  0  0  0  0  0  0  0  0  0  0
   37.7470   27.3820   33.0780 C   0  0  0  0  0  0  0  0  0  0  0  0
   38.9940   26.9040   33.2560 N   0  0  0  0  0  0  0  0  0  0  0  0
   41.7860   27.2480   33.8170 C   0  0  0  0  0  0  0  0  0  0  0  0
   40.9800   24.8930   34.0910 C   0  0  0  0  0  0  0  0  0  0  0  0
   41.0850   23.8950   35.1230 N   0  0  0  0  0  0  0  0  0  0  0  0
   40.0300   23.4370   35.8250 C   0  0  0  0  0  0  0  0  0  0  0  0
   40.2530   22.4730   36.7950 C   0  0  0  0  0  0  0  0  0  0  0  0
   41.5260   21.9620   37.0670 C   0  0  0  0  0  0  0  0  0  0  0  0
   41.7400   21.0890   37.9430 O   0  0  0  0  0  0  0  0  0  0  0  0
   42.5150   22.4800   36.3170 N   0  0  0  0  0  0  0  0  0  0  0  0
   42.3330   23.4120   35.3720 C   0  0  0  0  0  0  0  0  0  0  0  0
   43.3400   23.8340   34.7170 O   0  0  0  0  0  0  0  0  0  0  0  0
   41.2849   26.2483   35.6657 H   0  0  0  0  0  0  0  0  0  0  0  0
   39.2479   27.1838   36.6143 H   0  0  0  0  0  0  0  0  0  0  0  0
   36.9137   28.0757   36.2743 H   0  0  0  0  0  0  0  0  0  0  0  0
   37.3148   27.4413   32.0682 H   0  0  0  0  0  0  0  0  0  0  0  0
   42.3638   27.8907   34.4975 H   0  0  0  0  0  0  0  0  0  0  0  0
   42.4758   26.6719   33.1828 H   0  0  0  0  0  0  0  0  0  0  0  0
   41.1399   27.8727   33.1828 H   0  0  0  0  0  0  0  0  0  0  0  0
   40.0606   24.7061   33.5168 H   0  0  0  0  0  0  0  0  0  0  0  0
   41.8821   24.8123   33.4667 H   0  0  0  0  0  0  0  0  0  0  0  0
   39.0165   23.8190   35.6327 H   0  0  0  0  0  0  0  0  0  0  0  0
   39.3965   22.0955   37.3728 H   0  0  0  0  0  0  0  0  0  0  0  0
   43.4731   22.1385   36.4795 H   0  0  0  0  0  0  0  0  0  0  0  0
  2  1  1  0
  2  3  2  0
  4  3  1  0
  5  4  2  0
  6  7  2  0
  6  5  1  0
  7  2  1  0
  8  1  1  0
  9  1  1  0
  9 10  1  0
 10 16  1  0
 10 11  1  0
 11 12  2  0
 12 13  1  0
 13 14  2  0
 15 13  1  0
 16 15  1  0
 17 16  2  0
  1 18  1  1
  3 19  1  0
  4 20  1  0
  6 21  1  0
  8 22  1  0
  8 23  1  0
  8 24  1  0
  9 25  1  0
  9 26  1  0
 11 27  1  0
 12 28  1  0
 15 29  1  0
M  ISO  8  18   8  19  14  20  14  21  14  22   8  23   8  24   8  25   8
M  ISO  4  26   8  27  14  28  14  29   9
M  END
>  <minimizedAffinity>  (1) 
-4.01641321

>  <minimizedRMSD>  (1) 
5.0127368

$$$$
