
     RDKit          3D

 34 37  0  0  0  0  0  0  0  0999 V2000
   38.6436   24.5242   36.6041 N   0  0  0  0  0  0  0  0  0  0  0  0
   38.1274   24.1789   37.8076 C   0  0  0  0  0  0  0  0  0  0  0  0
   38.8089   23.1644   38.3723 N   0  0  0  0  0  0  0  0  0  0  0  0
   39.7903   22.8514   37.5044 C   0  0  0  0  0  0  0  0  0  0  0  0
   40.8063   21.9127   37.5058 C   0  0  0  0  0  0  0  0  0  0  0  0
   41.6955   21.7657   36.5193 N   0  0  0  0  0  0  0  0  0  0  0  0
   41.5512   22.6174   35.4668 C   0  0  0  0  0  0  0  0  0  0  0  0
   40.5709   23.5223   35.4665 N   0  0  0  0  0  0  0  0  0  0  0  0
   39.6687   23.6984   36.4281 C   0  0  0  0  0  0  0  0  0  0  0  0
   37.6435   25.2196   34.5169 C   0  0  0  0  0  0  0  0  0  0  0  0
   38.1782   25.5271   35.7644 C   0  0  0  0  0  0  0  0  0  0  0  0
   38.2313   26.8662   36.1420 C   0  0  0  0  0  0  0  0  0  0  0  0
   37.7674   27.8191   35.2962 N   0  0  0  0  0  0  0  0  0  0  0  0
   37.2477   27.4744   34.0747 C   0  0  0  0  0  0  0  0  0  0  0  0
   37.1900   26.1822   33.6961 N   0  0  0  0  0  0  0  0  0  0  0  0
   37.2763   24.6254   38.3041 H   0  0  0  0  0  0  0  0  0  0  0  0
   40.9046   21.2396   38.3589 H   0  0  0  0  0  0  0  0  0  0  0  0
   42.1980   22.6135   34.5983 H   0  0  0  0  0  0  0  0  0  0  0  0
   38.6389   27.1603   37.1045 H   0  0  0  0  0  0  0  0  0  0  0  0
   36.8991   28.3131   33.4628 H   0  0  0  0  0  0  0  0  0  0  0  0
   37.5463   23.8810   34.0414 N   0  0  0  0  0  0  0  0  0  0  0  0
   37.5708   23.4358   32.7720 C   0  0  0  0  0  0  0  0  0  0  0  0
   37.4613   22.0889   32.5220 C   0  0  0  0  0  0  0  0  0  0  0  0
   37.4925   21.6352   31.1055 C   0  0  0  0  0  0  0  0  0  0  0  0
   37.3274   21.1968   33.5568 C   0  0  0  0  0  0  0  0  0  0  0  0
   37.2262   19.9459   33.3150 O   0  0  0  0  0  0  0  0  0  0  0  0
   37.3048   21.6692   34.8368 N   0  0  0  0  0  0  0  0  0  0  0  0
   37.4145   23.0007   35.0550 C   0  0  0  0  0  0  0  0  0  0  0  0
   37.3772   23.2849   36.2898 O   0  0  0  0  0  0  0  0  0  0  0  0
   37.6783   24.2100   32.0414 H   0  0  0  0  0  0  0  0  0  0  0  0
   38.4844   21.1530   30.9668 H   0  0  0  0  0  0  0  0  0  0  0  0
   36.7011   20.8624   30.9095 H   0  0  0  0  0  0  0  0  0  0  0  0
   37.3005   22.4855   30.4208 H   0  0  0  0  0  0  0  0  0  0  0  0
   37.2010   20.9500   35.5898 H   0  0  0  0  0  0  0  0  0  0  0  0
  1  2  1  0
  2  3  2  0
  4  5  2  0
  4  3  1  0
  6  5  1  0
  7  6  2  0
  8  7  1  0
  8  9  2  0
  9  1  1  0
  9  4  1  0
 10 11  1  0
 11 12  2  0
 11  1  1  0
 13 12  1  0
 14 13  2  0
 15 14  1  0
 15 10  2  0
  2 16  1  0
  5 17  1  0
  7 18  1  0
 12 19  1  0
 14 20  1  0
 21 22  1  0
 22 23  2  0
 23 24  1  0
 23 25  1  0
 25 26  2  0
 25 27  1  0
 27 28  1  0
 28 29  2  0
 28 21  1  0
 22 30  1  0
 24 31  1  0
 24 32  1  0
 24 33  1  0
 27 34  1  0
 10 21  1  0
M  END
>  <DihAtoms>  (1) 
10,9,20,21

>  <DihDeg>  (1) 
-106.1814824350603

$$$$
