
     RDKit          3D

 26 26  0  0  1  0  0  0  0  0999 V2000
   41.3920   22.7210   36.9050 C   0  0  2  0  0  0  0  0  0  0  0  0
   39.8920   22.7790   36.9830 C   0  0  0  0  0  0  0  0  0  0  0  0
   39.2820   23.2690   38.1610 C   0  0  0  0  0  0  0  0  0  0  0  0
   37.8890   23.3190   38.2050 C   0  0  0  0  0  0  0  0  0  0  0  0
   37.1960   22.8880   37.0990 N   0  0  0  0  0  0  0  0  0  0  0  0
   37.8120   22.4290   36.0000 C   0  0  0  0  0  0  0  0  0  0  0  0
   39.1630   22.3770   35.9480 N   0  0  0  0  0  0  0  0  0  0  0  0
   41.7490   23.7810   35.8880 C   0  0  0  0  0  0  0  0  0  0  0  0
   41.8020   21.3590   36.4090 C   0  0  0  0  0  0  0  0  0  0  0  0
   42.1020   20.4620   37.4780 N   0  0  0  0  0  0  0  0  0  0  0  0
   42.9820   19.3810   37.1960 C   0  0  0  0  0  0  0  0  0  0  0  0
   43.9320   19.4780   36.3000 N   0  0  0  0  0  0  0  0  0  0  0  0
   42.9480   18.0870   37.8300 N   0  0  0  0  0  0  0  0  0  0  0  0
   44.0820   20.3430   35.7620 H   0  0  0  0  0  0  0  0  0  0  0  0
   41.8900   22.8882   37.8715 H   0  0  0  0  0  0  0  0  0  0  0  0
   39.8881   23.6008   39.0169 H   0  0  0  0  0  0  0  0  0  0  0  0
   37.3620   23.6913   39.0959 H   0  0  0  0  0  0  0  0  0  0  0  0
   37.2170   22.0936   35.1378 H   0  0  0  0  0  0  0  0  0  0  0  0
   42.0583   24.6993   36.4087 H   0  0  0  0  0  0  0  0  0  0  0  0
   42.5754   23.4208   35.2577 H   0  0  0  0  0  0  0  0  0  0  0  0
   40.8731   23.9942   35.2577 H   0  0  0  0  0  0  0  0  0  0  0  0
   40.9794   20.9369   35.8131 H   0  0  0  0  0  0  0  0  0  0  0  0
   42.7134   21.4805   35.8052 H   0  0  0  0  0  0  0  0  0  0  0  0
   41.6973   20.5924   38.4161 H   0  0  0  0  0  0  0  0  0  0  0  0
   43.6288   17.3629   37.5595 H   0  0  0  0  0  0  0  0  0  0  0  0
   42.2429   17.8864   38.5536 H   0  0  0  0  0  0  0  0  0  0  0  0
  1  2  1  0
  2  3  2  0
  3  4  1  0
  5  4  2  0
  6  5  1  0
  7  6  2  0
  7  2  1  0
  8  1  1  0
  9  1  1  0
  9 10  1  0
 11 10  1  0
 11 13  1  0
 12 11  2  0
 14 12  1  0
  1 15  1  1
  3 16  1  0
  4 17  1  0
  6 18  1  0
  8 19  1  0
  8 20  1  0
  8 21  1  0
  9 22  1  0
  9 23  1  0
 10 24  1  0
 13 25  1  0
 13 26  1  0
M  ISO  8  15   8  16  14  17  14  18  14  19   8  20   8  21   8  22   8
M  ISO  1  23   8
M  END
>  <minimizedAffinity>  (1) 
-3.82999086

>  <minimizedRMSD>  (1) 
1.19581115

$$$$
