
     RDKit          3D

 36 39  0  0  0  0  0  0  0  0999 V2000
   37.5640   25.0290   33.7250 C   0  0  0  0  0  0  0  0  0  0  0  0
   37.8880   25.3970   35.0270 C   0  0  0  0  0  0  0  0  0  0  0  0
   37.7870   26.7460   35.3630 C   0  0  0  0  0  0  0  0  0  0  0  0
   37.3810   27.6390   34.4200 N   0  0  0  0  0  0  0  0  0  0  0  0
   37.0740   27.2440   33.1640 C   0  0  0  0  0  0  0  0  0  0  0  0
   37.1640   25.9440   32.8130 N   0  0  0  0  0  0  0  0  0  0  0  0
   37.6300   23.6830   33.2710 N   0  0  0  0  0  0  0  0  0  0  0  0
   38.0210   22.4680   33.9980 C   0  0  0  0  0  0  0  0  0  0  0  0
   36.7960   21.5740   34.0680 C   0  0  0  0  0  0  0  0  0  0  0  0
   36.2350   21.2390   32.7220 C   0  0  0  0  0  0  0  0  0  0  0  0
   36.0000   22.4990   31.9270 C   0  0  0  0  0  0  0  0  0  0  0  0
   37.2900   23.2880   31.8960 C   0  0  0  0  0  0  0  0  0  0  0  0
   38.2960   24.4420   35.9480 N   0  0  0  0  0  0  0  0  0  0  0  0
   37.5210   23.8450   36.8770 C   0  0  0  0  0  0  0  0  0  0  0  0
   38.2100   22.9650   37.6190 N   0  0  0  0  0  0  0  0  0  0  0  0
   39.4800   22.9920   37.1550 C   0  0  0  0  0  0  0  0  0  0  0  0
   40.6300   22.3310   37.4970 C   0  0  0  0  0  0  0  0  0  0  0  0
   41.8030   22.5240   36.8820 N   0  0  0  0  0  0  0  0  0  0  0  0
   41.8050   23.4360   35.8680 C   0  0  0  0  0  0  0  0  0  0  0  0
   40.6830   24.0670   35.5500 N   0  0  0  0  0  0  0  0  0  0  0  0
   39.4990   23.9160   36.1230 C   0  0  0  0  0  0  0  0  0  0  0  0
   38.0330   27.0852   36.3801 H   0  0  0  0  0  0  0  0  0  0  0  0
   36.7483   27.9881   32.4223 H   0  0  0  0  0  0  0  0  0  0  0  0
   38.8331   21.9536   33.4633 H   0  0  0  0  0  0  0  0  0  0  0  0
   38.3824   22.7155   35.0070 H   0  0  0  0  0  0  0  0  0  0  0  0
   37.0745   20.6378   34.5739 H   0  0  0  0  0  0  0  0  0  0  0  0
   36.0194   22.1250   34.6187 H   0  0  0  0  0  0  0  0  0  0  0  0
   36.9456   20.5960   32.1820 H   0  0  0  0  0  0  0  0  0  0  0  0
   35.2775   20.7136   32.8530 H   0  0  0  0  0  0  0  0  0  0  0  0
   35.6971   22.2408   30.9015 H   0  0  0  0  0  0  0  0  0  0  0  0
   35.2012   23.0964   32.3906 H   0  0  0  0  0  0  0  0  0  0  0  0
   38.0954   22.6656   31.4791 H   0  0  0  0  0  0  0  0  0  0  0  0
   37.1693   24.1820   31.2666 H   0  0  0  0  0  0  0  0  0  0  0  0
   36.4495   24.0552   37.0104 H   0  0  0  0  0  0  0  0  0  0  0  0
   40.5872   21.6031   38.3206 H   0  0  0  0  0  0  0  0  0  0  0  0
   42.7331   23.6471   35.3165 H   0  0  0  0  0  0  0  0  0  0  0  0
  1  2  1  0
  2  3  2  0
  2 13  1  0
  4  3  1  0
  5  4  2  0
  6  5  1  0
  6  1  2  0
  7  1  1  0
  7  8  1  0
  8  9  1  0
 10  9  1  0
 11 10  1  0
 12 11  1  0
 12  7  1  0
 13 21  1  0
 13 14  1  0
 14 15  2  0
 16 17  2  0
 16 15  1  0
 18 17  1  0
 19 18  2  0
 20 19  1  0
 20 21  2  0
 21 16  1  0
  3 22  1  0
  5 23  1  0
  8 24  1  0
  8 25  1  0
  9 26  1  0
  9 27  1  0
 10 28  1  0
 10 29  1  0
 11 30  1  0
 11 31  1  0
 12 32  1  0
 12 33  1  0
 14 34  1  0
 17 35  1  0
 19 36  1  0
M  ISO  8  22  14  23  14  24  13  25  13  26  13  27  13  28  13  29  13
M  ISO  7  30  13  31  13  32  13  33  13  34  14  35  14  36  14
M  END
>  <minimizedAffinity>  (1) 
-5.38811779

>  <minimizedRMSD>  (1) 
0.859450102

$$$$
