
     RDKit          3D

 30 31  0  0  1  0  0  0  0  0999 V2000
   41.0300   22.9550   35.6640 C   0  0  2  0  0  0  0  0  0  0  0  0
   39.8500   23.3450   36.5130 C   0  0  0  0  0  0  0  0  0  0  0  0
   39.7610   22.9200   37.8450 C   0  0  0  0  0  0  0  0  0  0  0  0
   38.6570   23.3130   38.5920 C   0  0  0  0  0  0  0  0  0  0  0  0
   37.7100   24.0980   37.9820 N   0  0  0  0  0  0  0  0  0  0  0  0
   37.8210   24.4920   36.7000 C   0  0  0  0  0  0  0  0  0  0  0  0
   38.8910   24.1130   35.9710 N   0  0  0  0  0  0  0  0  0  0  0  0
   40.4450   22.1260   34.5450 C   0  0  0  0  0  0  0  0  0  0  0  0
   41.9960   22.1710   36.5090 C   0  0  0  0  0  0  0  0  0  0  0  0
   43.3580   22.6350   36.3840 N   0  0  0  0  0  0  0  0  0  0  0  0
   43.5600   23.9050   36.8050 C   0  0  0  0  0  0  0  0  0  0  0  0
   44.8040   24.5160   36.7590 C   0  0  0  0  0  0  0  0  0  0  0  0
   45.8450   23.7540   36.2530 C   0  0  0  0  0  0  0  0  0  0  0  0
   47.1450   24.3770   36.1990 N   0  0  0  0  0  0  0  0  0  0  0  0
   45.6270   22.5120   35.8450 N   0  0  0  0  0  0  0  0  0  0  0  0
   44.4080   21.9560   35.9070 C   0  0  0  0  0  0  0  0  0  0  0  0
   44.1770   20.7840   35.5270 O   0  0  0  0  0  0  0  0  0  0  0  0
   41.5884   23.8111   35.2575 H   0  0  0  0  0  0  0  0  0  0  0  0
   40.5462   22.2903   38.2889 H   0  0  0  0  0  0  0  0  0  0  0  0
   38.5451   23.0041   39.6418 H   0  0  0  0  0  0  0  0  0  0  0  0
   37.0409   25.1218   36.2475 H   0  0  0  0  0  0  0  0  0  0  0  0
   39.8600   21.2970   34.9700 H   0  0  0  0  0  0  0  0  0  0  0  0
   39.7906   22.7565   33.9251 H   0  0  0  0  0  0  0  0  0  0  0  0
   41.2583   21.7208   33.9251 H   0  0  0  0  0  0  0  0  0  0  0  0
   41.6911   22.2576   37.5623 H   0  0  0  0  0  0  0  0  0  0  0  0
   41.9694   21.1285   36.1591 H   0  0  0  0  0  0  0  0  0  0  0  0
   42.7051   24.4743   37.1986 H   0  0  0  0  0  0  0  0  0  0  0  0
   44.9561   25.5490   37.1052 H   0  0  0  0  0  0  0  0  0  0  0  0
   47.9522   23.8534   35.8313 H   0  0  0  0  0  0  0  0  0  0  0  0
   47.2660   25.3455   36.5281 H   0  0  0  0  0  0  0  0  0  0  0  0
  1  9  1  0
  1  2  1  0
  2  3  2  0
  3  4  1  0
  5  4  2  0
  6  5  1  0
  7  2  1  0
  7  6  2  0
  8  1  1  0
 10  9  1  0
 10 11  1  0
 12 11  2  0
 13 12  1  0
 14 13  1  0
 15 16  1  0
 15 13  2  0
 16 10  1  0
 17 16  2  0
  1 18  1  6
  3 19  1  0
  4 20  1  0
  6 21  1  0
  8 22  1  0
  8 23  1  0
  8 24  1  0
  9 25  1  0
  9 26  1  0
 11 27  1  0
 12 28  1  0
 14 29  1  0
 14 30  1  0
M  ISO  8  18   8  19  14  20  14  21  14  22   8  23   8  24   8  25   8
M  ISO  3  26   8  27  14  28  14
M  END
>  <minimizedAffinity>  (1) 
-3.81924272

>  <minimizedRMSD>  (1) 
2.24239373

$$$$
