
     RDKit          3D

 43 48  0  0  0  0  0  0  0  0999 V2000
   39.1410   23.5880   32.4200 C   0  0  0  0  0  0  0  0  0  0  0  0
   39.8750   22.4440   32.7190 C   0  0  0  0  0  0  0  0  0  0  0  0
   39.3360   21.1640   32.6110 C   0  0  0  0  0  0  0  0  0  0  0  0
   38.0220   21.0050   32.1930 C   0  0  0  0  0  0  0  0  0  0  0  0
   37.2800   22.1020   31.8940 C   0  0  0  0  0  0  0  0  0  0  0  0
   35.9760   21.9630   31.4810 C   0  0  0  0  0  0  0  0  0  0  0  0
   35.1780   23.0460   31.1650 C   0  0  0  0  0  0  0  0  0  0  0  0
   35.7430   24.3130   31.2800 C   0  0  0  0  0  0  0  0  0  0  0  0
   37.0620   24.4270   31.7000 C   0  0  0  0  0  0  0  0  0  0  0  0
   37.8520   23.3610   32.0130 C   0  0  0  0  0  0  0  0  0  0  0  0
   39.7330   24.8900   32.5540 C   0  0  0  0  0  0  0  0  0  0  0  0
   39.7560   25.5990   33.7670 C   0  0  0  0  0  0  0  0  0  0  0  0
   40.3640   26.8580   33.7700 C   0  0  0  0  0  0  0  0  0  0  0  0
   40.9080   27.3540   32.6280 N   0  0  0  0  0  0  0  0  0  0  0  0
   40.8710   26.6400   31.4740 C   0  0  0  0  0  0  0  0  0  0  0  0
   40.3020   25.4560   31.4630 N   0  0  0  0  0  0  0  0  0  0  0  0
   39.1950   25.0460   34.9080 N   0  0  0  0  0  0  0  0  0  0  0  0
   37.9550   25.2630   35.3750 C   0  0  0  0  0  0  0  0  0  0  0  0
   37.7120   24.5740   36.5070 N   0  0  0  0  0  0  0  0  0  0  0  0
   38.8510   23.8840   36.7750 C   0  0  0  0  0  0  0  0  0  0  0  0
   39.2220   23.0200   37.7710 C   0  0  0  0  0  0  0  0  0  0  0  0
   40.4390   22.4360   37.8390 N   0  0  0  0  0  0  0  0  0  0  0  0
   41.3060   22.7600   36.8380 C   0  0  0  0  0  0  0  0  0  0  0  0
   40.9330   23.5990   35.8770 N   0  0  0  0  0  0  0  0  0  0  0  0
   39.7600   24.1900   35.7710 C   0  0  0  0  0  0  0  0  0  0  0  0
   37.3100   25.8370   31.6890 N   0  0  0  0  0  0  0  0  0  0  0  0
   36.8210   26.5720   32.7710 C   0  0  0  0  0  0  0  0  0  0  0  0
   37.1520   27.9050   32.6880 N   0  0  0  0  0  0  0  0  0  0  0  0
   37.8580   27.9450   31.5170 C   0  0  0  0  0  0  0  0  0  0  0  0
   37.9410   26.7370   30.9510 N   0  0  0  0  0  0  0  0  0  0  0  0
   40.9174   22.5544   33.0523 H   0  0  0  0  0  0  0  0  0  0  0  0
   39.9486   20.2838   32.8557 H   0  0  0  0  0  0  0  0  0  0  0  0
   37.5857   19.9991   32.1048 H   0  0  0  0  0  0  0  0  0  0  0  0
   35.5519   20.9514   31.3990 H   0  0  0  0  0  0  0  0  0  0  0  0
   34.1371   22.9121   30.8355 H   0  0  0  0  0  0  0  0  0  0  0  0
   35.1536   25.2107   31.0418 H   0  0  0  0  0  0  0  0  0  0  0  0
   40.4020   27.4476   34.6979 H   0  0  0  0  0  0  0  0  0  0  0  0
   41.3144   27.0500   30.5546 H   0  0  0  0  0  0  0  0  0  0  0  0
   37.2231   25.9258   34.8901 H   0  0  0  0  0  0  0  0  0  0  0  0
   38.4895   22.7888   38.5584 H   0  0  0  0  0  0  0  0  0  0  0  0
   42.3167   22.3260   36.8257 H   0  0  0  0  0  0  0  0  0  0  0  0
   36.2380   26.1353   33.5953 H   0  0  0  0  0  0  0  0  0  0  0  0
   38.3022   28.8580   31.0937 H   0  0  0  0  0  0  0  0  0  0  0  0
  1 11  1  0
  1  2  2  0
  3  2  1  0
  4  3  2  0
  5 10  2  0
  5  4  1  0
  6  5  1  0
  7  8  1  0
  7  6  2  0
  8  9  2  0
  9 10  1  0
 10  1  1  0
 11 12  1  0
 12 13  2  0
 12 17  1  0
 14 13  1  0
 15 14  2  0
 16 15  1  0
 16 11  2  0
 17 18  1  0
 17 25  1  0
 18 19  2  0
 19 20  1  0
 20 21  2  0
 21 22  1  0
 23 22  2  0
 24 23  1  0
 25 24  2  0
 25 20  1  0
 26  9  1  0
 26 27  1  0
 28 27  2  0
 29 28  1  0
 30 29  2  0
 30 26  1  0
  2 31  1  0
  3 32  1  0
  4 33  1  0
  6 34  1  0
  7 35  1  0
  8 36  1  0
 13 37  1  0
 15 38  1  0
 18 39  1  0
 21 40  1  0
 23 41  1  0
 27 42  1  0
 29 43  1  0
M  ISO  8  31  14  32  14  33  14  34  14  35  14  36  14  37  14  38  14
M  ISO  5  39  14  40  14  41  14  42  14  43  14
M  END
>  <minimizedAffinity>  (1) 
-5.97469759

>  <minimizedRMSD>  (1) 
1.26848972

$$$$
