
     RDKit          3D

 44 49  0  0  0  0  0  0  0  0999 V2000
   39.1570   23.5540   32.4320 C   0  0  0  0  0  0  0  0  0  0  0  0
   39.9060   22.4200   32.7240 C   0  0  0  0  0  0  0  0  0  0  0  0
   39.3900   21.1310   32.6000 C   0  0  0  0  0  0  0  0  0  0  0  0
   38.0810   20.9550   32.1680 C   0  0  0  0  0  0  0  0  0  0  0  0
   37.3270   22.0470   31.8750 C   0  0  0  0  0  0  0  0  0  0  0  0
   36.0270   21.8900   31.4520 C   0  0  0  0  0  0  0  0  0  0  0  0
   35.2080   22.9620   31.1430 C   0  0  0  0  0  0  0  0  0  0  0  0
   35.7570   24.2330   31.2770 C   0  0  0  0  0  0  0  0  0  0  0  0
   37.0690   24.3670   31.7050 C   0  0  0  0  0  0  0  0  0  0  0  0
   37.8780   23.3140   32.0110 C   0  0  0  0  0  0  0  0  0  0  0  0
   39.7270   24.8630   32.5820 C   0  0  0  0  0  0  0  0  0  0  0  0
   39.7420   25.5580   33.8060 C   0  0  0  0  0  0  0  0  0  0  0  0
   40.3310   26.8240   33.8250 C   0  0  0  0  0  0  0  0  0  0  0  0
   40.8640   27.3410   32.6880 N   0  0  0  0  0  0  0  0  0  0  0  0
   40.8350   26.6440   31.5270 C   0  0  0  0  0  0  0  0  0  0  0  0
   40.2830   25.4530   31.4980 N   0  0  0  0  0  0  0  0  0  0  0  0
   39.1930   24.9770   34.9410 N   0  0  0  0  0  0  0  0  0  0  0  0
   37.9470   25.1570   35.4070 C   0  0  0  0  0  0  0  0  0  0  0  0
   37.7260   24.4460   36.5330 N   0  0  0  0  0  0  0  0  0  0  0  0
   38.8810   23.7860   36.7950 C   0  0  0  0  0  0  0  0  0  0  0  0
   39.2800   22.9210   37.7790 C   0  0  0  0  0  0  0  0  0  0  0  0
   40.5130   22.3670   37.8440 N   0  0  0  0  0  0  0  0  0  0  0  0
   41.3680   22.7250   36.8490 C   0  0  0  0  0  0  0  0  0  0  0  0
   40.9670   23.5660   35.9000 N   0  0  0  0  0  0  0  0  0  0  0  0
   39.7750   24.1270   35.8000 C   0  0  0  0  0  0  0  0  0  0  0  0
   37.2930   25.7770   31.7090 N   0  0  0  0  0  0  0  0  0  0  0  0
   37.9150   26.6950   30.9880 N   0  0  0  0  0  0  0  0  0  0  0  0
   37.8230   27.9070   31.5440 C   0  0  0  0  0  0  0  0  0  0  0  0
   37.1050   27.8750   32.7200 C   0  0  0  0  0  0  0  0  0  0  0  0
   36.7920   26.5080   32.7830 C   0  0  0  0  0  0  0  0  0  0  0  0
   40.9442   22.5444   33.0655 H   0  0  0  0  0  0  0  0  0  0  0  0
   40.0149   20.2588   32.8425 H   0  0  0  0  0  0  0  0  0  0  0  0
   37.6602   19.9440   32.0644 H   0  0  0  0  0  0  0  0  0  0  0  0
   35.6225   20.8716   31.3556 H   0  0  0  0  0  0  0  0  0  0  0  0
   34.1709   22.8157   30.8070 H   0  0  0  0  0  0  0  0  0  0  0  0
   35.1554   25.1243   31.0454 H   0  0  0  0  0  0  0  0  0  0  0  0
   40.3632   27.4021   34.7603 H   0  0  0  0  0  0  0  0  0  0  0  0
   41.2716   27.0735   30.6132 H   0  0  0  0  0  0  0  0  0  0  0  0
   37.1973   25.8050   34.9294 H   0  0  0  0  0  0  0  0  0  0  0  0
   38.5545   22.6609   38.5638 H   0  0  0  0  0  0  0  0  0  0  0  0
   42.3903   22.3194   36.8291 H   0  0  0  0  0  0  0  0  0  0  0  0
   38.2660   28.8182   31.1156 H   0  0  0  0  0  0  0  0  0  0  0  0
   36.8495   28.6900   33.4131 H   0  0  0  0  0  0  0  0  0  0  0  0
   36.2086   26.0587   33.6001 H   0  0  0  0  0  0  0  0  0  0  0  0
  1 11  1  0
  1  2  2  0
  3  2  1  0
  4  3  2  0
  5 10  2  0
  5  4  1  0
  6  5  1  0
  7  8  1  0
  7  6  2  0
  8  9  2  0
  9 26  1  0
  9 10  1  0
 10  1  1  0
 11 12  1  0
 12 13  2  0
 12 17  1  0
 14 13  1  0
 15 14  2  0
 16 15  1  0
 16 11  2  0
 17 18  1  0
 17 25  1  0
 18 19  2  0
 19 20  1  0
 20 21  2  0
 21 22  1  0
 23 22  2  0
 24 23  1  0
 25 24  2  0
 25 20  1  0
 26 30  1  0
 27 28  2  0
 27 26  1  0
 28 29  1  0
 29 30  2  0
  2 31  1  0
  3 32  1  0
  4 33  1  0
  6 34  1  0
  7 35  1  0
  8 36  1  0
 13 37  1  0
 15 38  1  0
 18 39  1  0
 21 40  1  0
 23 41  1  0
 28 42  1  0
 29 43  1  0
 30 44  1  0
M  ISO  8  31  14  32  14  33  14  34  14  35  14  36  14  37  14  38  14
M  ISO  6  39  14  40  14  41  14  42  14  43  14  44  14
M  END
>  <minimizedAffinity>  (1) 
-6.02916193

>  <minimizedRMSD>  (1) 
1.26123488

$$$$
