
     RDKit          3D

 44 49  0  0  0  0  0  0  0  0999 V2000
   39.6500   25.5300   32.5980 C   0  0  0  0  0  0  0  0  0  0  0  0
   39.8850   25.9280   33.9400 C   0  0  0  0  0  0  0  0  0  0  0  0
   40.7550   26.9990   34.1310 C   0  0  0  0  0  0  0  0  0  0  0  0
   41.3420   27.6150   33.0770 N   0  0  0  0  0  0  0  0  0  0  0  0
   41.1000   27.2040   31.8120 C   0  0  0  0  0  0  0  0  0  0  0  0
   40.2830   26.1990   31.6090 N   0  0  0  0  0  0  0  0  0  0  0  0
   38.7800   24.4480   32.2540 C   0  0  0  0  0  0  0  0  0  0  0  0
   39.2450   23.1430   32.3270 C   0  0  0  0  0  0  0  0  0  0  0  0
   38.4400   22.0490   32.0120 C   0  0  0  0  0  0  0  0  0  0  0  0
   37.1250   22.2510   31.6100 C   0  0  0  0  0  0  0  0  0  0  0  0
   36.6460   23.5390   31.5320 C   0  0  0  0  0  0  0  0  0  0  0  0
   35.3670   23.7360   31.1190 C   0  0  0  0  0  0  0  0  0  0  0  0
   34.8380   25.0060   30.9920 C   0  0  0  0  0  0  0  0  0  0  0  0
   35.6590   26.0930   31.3010 C   0  0  0  0  0  0  0  0  0  0  0  0
   36.9530   25.8330   31.7230 C   0  0  0  0  0  0  0  0  0  0  0  0
   37.4720   24.5870   31.8490 C   0  0  0  0  0  0  0  0  0  0  0  0
   37.6890   27.0990   32.0170 C   0  0  0  0  0  0  0  0  0  0  0  0
   37.0360   28.0990   33.0470 C   0  0  0  0  0  0  0  0  0  0  0  0
   36.9650   28.2970   31.6550 C   0  0  0  0  0  0  0  0  0  0  0  0
   39.2580   25.2710   34.9750 N   0  0  0  0  0  0  0  0  0  0  0  0
   37.9980   25.4870   35.4020 C   0  0  0  0  0  0  0  0  0  0  0  0
   37.6850   24.6800   36.4470 N   0  0  0  0  0  0  0  0  0  0  0  0
   38.7820   23.9320   36.6840 C   0  0  0  0  0  0  0  0  0  0  0  0
   39.0880   22.9560   37.5890 C   0  0  0  0  0  0  0  0  0  0  0  0
   40.2900   22.3260   37.6440 N   0  0  0  0  0  0  0  0  0  0  0  0
   41.2020   22.7300   36.7230 C   0  0  0  0  0  0  0  0  0  0  0  0
   40.8910   23.6810   35.8490 N   0  0  0  0  0  0  0  0  0  0  0  0
   39.7380   24.3180   35.7620 C   0  0  0  0  0  0  0  0  0  0  0  0
   40.9683   27.3493   35.1517 H   0  0  0  0  0  0  0  0  0  0  0  0
   41.5835   27.7076   30.9619 H   0  0  0  0  0  0  0  0  0  0  0  0
   40.2833   22.9654   32.6439 H   0  0  0  0  0  0  0  0  0  0  0  0
   38.8447   21.0285   32.0815 H   0  0  0  0  0  0  0  0  0  0  0  0
   36.4788   21.3970   31.3587 H   0  0  0  0  0  0  0  0  0  0  0  0
   34.7386   22.8652   30.8804 H   0  0  0  0  0  0  0  0  0  0  0  0
   33.8010   25.1567   30.6575 H   0  0  0  0  0  0  0  0  0  0  0  0
   35.2892   27.1251   31.2120 H   0  0  0  0  0  0  0  0  0  0  0  0
   38.6880   26.6625   31.8709 H   0  0  0  0  0  0  0  0  0  0  0  0
   36.1397   27.8073   33.6141 H   0  0  0  0  0  0  0  0  0  0  0  0
   37.3828   28.6821   33.9128 H   0  0  0  0  0  0  0  0  0  0  0  0
   37.5196   29.1368   31.2108 H   0  0  0  0  0  0  0  0  0  0  0  0
   36.1124   28.4633   30.9801 H   0  0  0  0  0  0  0  0  0  0  0  0
   37.3110   26.2235   34.9598 H   0  0  0  0  0  0  0  0  0  0  0  0
   38.3160   22.6631   38.3157 H   0  0  0  0  0  0  0  0  0  0  0  0
   42.2005   22.2690   36.7004 H   0  0  0  0  0  0  0  0  0  0  0  0
  1  2  1  0
  2  3  2  0
  2 20  1  0
  4  3  1  0
  5  4  2  0
  6  5  1  0
  6  1  2  0
  7  8  2  0
  7  1  1  0
  9  8  1  0
 10  9  2  0
 11 10  1  0
 11 16  2  0
 12 11  1  0
 13 12  2  0
 13 14  1  0
 14 15  2  0
 15 16  1  0
 15 17  1  0
 16  7  1  0
 17 18  1  0
 19 17  1  0
 19 18  1  0
 20 21  1  0
 20 28  1  0
 21 22  2  0
 22 23  1  0
 23 24  2  0
 24 25  1  0
 26 25  2  0
 27 26  1  0
 28 27  2  0
 28 23  1  0
  3 29  1  0
  5 30  1  0
  8 31  1  0
  9 32  1  0
 10 33  1  0
 12 34  1  0
 13 35  1  0
 14 36  1  0
 17 37  1  0
 18 38  1  0
 18 39  1  0
 19 40  1  0
 19 41  1  0
 21 42  1  0
 24 43  1  0
 26 44  1  0
M  ISO  8  29  14  30  14  31  14  32  14  33  14  34  14  35  14  36  14
M  ISO  8  37  13  38  13  39  13  40  13  41  13  42  14  43  14  44  14
M  END
>  <minimizedAffinity>  (1) 
-6.12540674

>  <minimizedRMSD>  (1) 
0.276315212

$$$$
