
     RDKit          3D

 48 53  0  0  0  0  0  0  0  0999 V2000
   39.7760   23.3650   32.5280 C   0  0  0  0  0  0  0  0  0  0  0  0
   40.8350   22.4730   32.4310 C   0  0  0  0  0  0  0  0  0  0  0  0
   40.6530   21.1380   32.0700 C   0  0  0  0  0  0  0  0  0  0  0  0
   39.3770   20.6640   31.7950 C   0  0  0  0  0  0  0  0  0  0  0  0
   38.3050   21.5330   31.8840 C   0  0  0  0  0  0  0  0  0  0  0  0
   37.0420   21.0740   31.6180 C   0  0  0  0  0  0  0  0  0  0  0  0
   35.9400   21.8840   31.6860 C   0  0  0  0  0  0  0  0  0  0  0  0
   36.1540   23.2200   32.0420 C   0  0  0  0  0  0  0  0  0  0  0  0
   37.4460   23.6420   32.3020 C   0  0  0  0  0  0  0  0  0  0  0  0
   38.5450   22.8420   32.2420 C   0  0  0  0  0  0  0  0  0  0  0  0
   37.2800   25.0290   32.5150 N   0  0  0  0  0  0  0  0  0  0  0  0
   37.0890   25.9180   33.4860 C   0  0  0  0  0  0  0  0  0  0  0  0
   36.9010   27.2630   33.3230 C   0  0  0  0  0  0  0  0  0  0  0  0
   36.8920   27.8570   32.0830 C   0  0  0  0  0  0  0  0  0  0  0  0
   36.6860   29.2510   32.1180 N   0  0  0  0  0  0  0  0  0  0  0  0
   37.0800   27.0240   31.0180 N   0  0  0  0  0  0  0  0  0  0  0  0
   37.2610   25.6860   31.2720 C   0  0  0  0  0  0  0  0  0  0  0  0
   37.4150   25.1150   30.1340 O   0  0  0  0  0  0  0  0  0  0  0  0
   39.9960   24.7260   32.9230 C   0  0  0  0  0  0  0  0  0  0  0  0
   40.0030   25.1470   34.2720 C   0  0  0  0  0  0  0  0  0  0  0  0
   40.2370   26.5010   34.5350 C   0  0  0  0  0  0  0  0  0  0  0  0
   40.4490   27.3580   33.4940 N   0  0  0  0  0  0  0  0  0  0  0  0
   40.4390   26.9200   32.2070 C   0  0  0  0  0  0  0  0  0  0  0  0
   40.2200   25.6510   31.9630 N   0  0  0  0  0  0  0  0  0  0  0  0
   39.8100   24.2260   35.2850 N   0  0  0  0  0  0  0  0  0  0  0  0
   38.6510   23.9420   35.8910 C   0  0  0  0  0  0  0  0  0  0  0  0
   38.7950   22.9950   36.8430 N   0  0  0  0  0  0  0  0  0  0  0  0
   40.1150   22.6630   36.8400 C   0  0  0  0  0  0  0  0  0  0  0  0
   40.8590   21.7750   37.5690 C   0  0  0  0  0  0  0  0  0  0  0  0
   42.1880   21.6000   37.3960 N   0  0  0  0  0  0  0  0  0  0  0  0
   42.7540   22.3710   36.4370 C   0  0  0  0  0  0  0  0  0  0  0  0
   42.0130   23.2270   35.7400 N   0  0  0  0  0  0  0  0  0  0  0  0
   40.7150   23.4350   35.8730 C   0  0  0  0  0  0  0  0  0  0  0  0
   41.8526   22.8311   32.6462 H   0  0  0  0  0  0  0  0  0  0  0  0
   41.5183   20.4622   32.0033 H   0  0  0  0  0  0  0  0  0  0  0  0
   39.2213   19.6129   31.5106 H   0  0  0  0  0  0  0  0  0  0  0  0
   36.9084   20.0181   31.3401 H   0  0  0  0  0  0  0  0  0  0  0  0
   34.9315   21.5013   31.4703 H   0  0  0  0  0  0  0  0  0  0  0  0
   35.3104   23.9223   32.1139 H   0  0  0  0  0  0  0  0  0  0  0  0
   37.0815   25.5354   34.5173 H   0  0  0  0  0  0  0  0  0  0  0  0
   36.7520   27.8906   34.2140 H   0  0  0  0  0  0  0  0  0  0  0  0
   36.6622   29.7903   31.2408 H   0  0  0  0  0  0  0  0  0  0  0  0
   36.5592   29.7304   33.0208 H   0  0  0  0  0  0  0  0  0  0  0  0
   40.2500   26.8714   35.5707 H   0  0  0  0  0  0  0  0  0  0  0  0
   40.6129   27.6232   31.3792 H   0  0  0  0  0  0  0  0  0  0  0  0
   37.6936   24.4234   35.6428 H   0  0  0  0  0  0  0  0  0  0  0  0
   40.3490   21.1727   38.3352 H   0  0  0  0  0  0  0  0  0  0  0  0
   43.8319   22.2885   36.2338 H   0  0  0  0  0  0  0  0  0  0  0  0
  1 19  1  0
  2  1  2  0
  3  2  1  0
  4  5  1  0
  4  3  2  0
  5 10  2  0
  6  7  2  0
  6  5  1  0
  7  8  1  0
  8  9  2  0
  9 11  1  0
 10  9  1  0
 10  1  1  0
 11 12  1  0
 13 12  2  0
 14 15  1  0
 14 13  1  0
 16 17  1  0
 16 14  2  0
 17 11  1  0
 18 17  2  0
 19 20  1  0
 20 21  2  0
 20 25  1  0
 22 21  1  0
 23 22  2  0
 24 23  1  0
 24 19  2  0
 25 33  1  0
 25 26  1  0
 26 27  2  0
 28 27  1  0
 28 29  2  0
 30 29  1  0
 31 30  2  0
 32 33  2  0
 32 31  1  0
 33 28  1  0
  2 34  1  0
  3 35  1  0
  4 36  1  0
  6 37  1  0
  7 38  1  0
  8 39  1  0
 12 40  1  0
 13 41  1  0
 15 42  1  0
 15 43  1  0
 21 44  1  0
 23 45  1  0
 26 46  1  0
 29 47  1  0
 31 48  1  0
M  ISO  8  34  14  35  14  36  14  37  14  38  14  39  14  40  14  41  14
M  ISO  5  44  14  45  14  46  14  47  14  48  14
M  END
>  <minimizedAffinity>  (1) 
-5.70810699

>  <minimizedRMSD>  (1) 
2.26874971

$$$$
