
     RDKit          3D

 40 44  0  0  0  0  0  0  0  0999 V2000
   39.7330   25.6150   32.5050 C   0  0  0  0  0  0  0  0  0  0  0  0
   39.9730   26.0090   33.8560 C   0  0  0  0  0  0  0  0  0  0  0  0
   40.9020   27.0270   34.0550 C   0  0  0  0  0  0  0  0  0  0  0  0
   41.5420   27.6010   33.0040 N   0  0  0  0  0  0  0  0  0  0  0  0
   41.2960   27.1970   31.7390 C   0  0  0  0  0  0  0  0  0  0  0  0
   40.4280   26.2460   31.5400 N   0  0  0  0  0  0  0  0  0  0  0  0
   38.8100   24.5820   32.1540 C   0  0  0  0  0  0  0  0  0  0  0  0
   39.2220   23.2690   32.1910 C   0  0  0  0  0  0  0  0  0  0  0  0
   38.3690   22.2130   31.8560 C   0  0  0  0  0  0  0  0  0  0  0  0
   37.0640   22.4810   31.4730 C   0  0  0  0  0  0  0  0  0  0  0  0
   36.6390   23.7910   31.4320 C   0  0  0  0  0  0  0  0  0  0  0  0
   35.3620   24.0590   31.0390 C   0  0  0  0  0  0  0  0  0  0  0  0
   34.8840   25.3390   30.9580 C   0  0  0  0  0  0  0  0  0  0  0  0
   35.7570   26.3620   31.2940 C   0  0  0  0  0  0  0  0  0  0  0  0
   37.0500   26.0850   31.6940 C   0  0  0  0  0  0  0  0  0  0  0  0
   37.5170   24.8080   31.7710 C   0  0  0  0  0  0  0  0  0  0  0  0
   37.8150   27.3070   31.9760 C   0  0  0  0  0  0  0  0  0  0  0  0
   39.2990   25.3920   34.8830 N   0  0  0  0  0  0  0  0  0  0  0  0
   38.0570   25.6770   35.2930 C   0  0  0  0  0  0  0  0  0  0  0  0
   37.6740   24.8940   36.3290 N   0  0  0  0  0  0  0  0  0  0  0  0
   38.7270   24.0780   36.5800 C   0  0  0  0  0  0  0  0  0  0  0  0
   38.9620   23.0820   37.4870 C   0  0  0  0  0  0  0  0  0  0  0  0
   40.1160   22.3850   37.5570 N   0  0  0  0  0  0  0  0  0  0  0  0
   41.0640   22.7350   36.6500 C   0  0  0  0  0  0  0  0  0  0  0  0
   40.8250   23.7050   35.7720 N   0  0  0  0  0  0  0  0  0  0  0  0
   39.7130   24.4090   35.6720 C   0  0  0  0  0  0  0  0  0  0  0  0
   41.1202   27.3706   35.0769 H   0  0  0  0  0  0  0  0  0  0  0  0
   41.8195   27.6629   30.8912 H   0  0  0  0  0  0  0  0  0  0  0  0
   40.2552   23.0434   32.4938 H   0  0  0  0  0  0  0  0  0  0  0  0
   38.7315   21.1752   31.8962 H   0  0  0  0  0  0  0  0  0  0  0  0
   36.3797   21.6621   31.2065 H   0  0  0  0  0  0  0  0  0  0  0  0
   34.6963   23.2227   30.7794 H   0  0  0  0  0  0  0  0  0  0  0  0
   33.8517   25.5469   30.6400 H   0  0  0  0  0  0  0  0  0  0  0  0
   35.4162   27.4066   31.2415 H   0  0  0  0  0  0  0  0  0  0  0  0
   37.9003   27.4433   33.0642 H   0  0  0  0  0  0  0  0  0  0  0  0
   38.8200   27.2198   31.5375 H   0  0  0  0  0  0  0  0  0  0  0  0
   37.2975   28.1730   31.5375 H   0  0  0  0  0  0  0  0  0  0  0  0
   37.4231   26.4547   34.8420 H   0  0  0  0  0  0  0  0  0  0  0  0
   38.1635   22.8341   38.2018 H   0  0  0  0  0  0  0  0  0  0  0  0
   42.0330   22.2145   36.6414 H   0  0  0  0  0  0  0  0  0  0  0  0
  1  2  1  0
  2  3  2  0
  2 18  1  0
  4  3  1  0
  5  4  2  0
  6  5  1  0
  6  1  2  0
  7  8  2  0
  7  1  1  0
  9  8  1  0
 10  9  2  0
 11 10  1  0
 11 16  2  0
 12 11  1  0
 13 12  2  0
 13 14  1  0
 14 15  2  0
 15 16  1  0
 15 17  1  0
 16  7  1  0
 18 19  1  0
 18 26  1  0
 19 20  2  0
 20 21  1  0
 21 22  2  0
 22 23  1  0
 24 23  2  0
 25 24  1  0
 26 25  2  0
 26 21  1  0
  3 27  1  0
  5 28  1  0
  8 29  1  0
  9 30  1  0
 10 31  1  0
 12 32  1  0
 13 33  1  0
 14 34  1  0
 17 35  1  0
 17 36  1  0
 17 37  1  0
 19 38  1  0
 22 39  1  0
 24 40  1  0
M  ISO  8  27  14  28  14  29  14  30  14  31  14  32  14  33  14  34  14
M  ISO  6  35   8  36   8  37   8  38  14  39  14  40  14
M  END
>  <minimizedAffinity>  (1) 
-5.94892979

>  <minimizedRMSD>  (1) 
0.145150349

$$$$
