
     RDKit          3D

 32 33  0  0  1  0  0  0  0  0999 V2000
   41.2950   22.8360   36.6890 C   0  0  2  0  0  0  0  0  0  0  0  0
   39.8040   22.8500   36.8850 C   0  0  0  0  0  0  0  0  0  0  0  0
   39.2430   23.2920   38.0900 C   0  0  0  0  0  0  0  0  0  0  0  0
   37.8590   23.2930   38.2250 C   0  0  0  0  0  0  0  0  0  0  0  0
   37.1220   22.8630   37.1750 N   0  0  0  0  0  0  0  0  0  0  0  0
   37.6720   22.4370   36.0130 C   0  0  0  0  0  0  0  0  0  0  0  0
   39.0140   22.4350   35.8810 N   0  0  0  0  0  0  0  0  0  0  0  0
   41.5590   23.8980   35.6460 C   0  0  0  0  0  0  0  0  0  0  0  0
   41.7020   21.4680   36.2000 C   0  0  0  0  0  0  0  0  0  0  0  0
   43.0190   21.1280   36.8770 C   0  0  0  0  0  0  0  0  0  0  0  0
   44.1720   21.4040   35.9650 C   0  0  0  0  0  0  0  0  0  0  0  0
   44.8930   20.0820   35.7670 C   0  0  0  0  0  0  0  0  0  0  0  0
   44.3890   19.1660   36.8450 C   0  0  0  0  0  0  0  0  0  0  0  0
   42.9970   19.6640   37.1710 C   0  0  0  0  0  0  0  0  0  0  0  0
   41.8640   23.0388   37.6083 H   0  0  0  0  0  0  0  0  0  0  0  0
   39.8860   23.6324   38.9150 H   0  0  0  0  0  0  0  0  0  0  0  0
   37.3792   23.6322   39.1549 H   0  0  0  0  0  0  0  0  0  0  0  0
   37.0313   22.0965   35.1863 H   0  0  0  0  0  0  0  0  0  0  0  0
   41.7956   24.8500   36.1438 H   0  0  0  0  0  0  0  0  0  0  0  0
   42.4083   23.5917   35.0177 H   0  0  0  0  0  0  0  0  0  0  0  0
   40.6651   24.0251   35.0177 H   0  0  0  0  0  0  0  0  0  0  0  0
   40.9357   20.7267   36.4706 H   0  0  0  0  0  0  0  0  0  0  0  0
   41.8093   21.4583   35.1053 H   0  0  0  0  0  0  0  0  0  0  0  0
   43.1364   21.7345   37.7872 H   0  0  0  0  0  0  0  0  0  0  0  0
   43.8095   21.7872   34.9997 H   0  0  0  0  0  0  0  0  0  0  0  0
   44.8439   22.1628   36.3926 H   0  0  0  0  0  0  0  0  0  0  0  0
   44.6627   19.6666   34.7748 H   0  0  0  0  0  0  0  0  0  0  0  0
   45.9843   20.2074   35.8245 H   0  0  0  0  0  0  0  0  0  0  0  0
   44.3523   18.1279   36.4830 H   0  0  0  0  0  0  0  0  0  0  0  0
   45.0446   19.1711   37.7283 H   0  0  0  0  0  0  0  0  0  0  0  0
   42.7642   19.4882   38.2316 H   0  0  0  0  0  0  0  0  0  0  0  0
   42.2280   19.1409   36.5836 H   0  0  0  0  0  0  0  0  0  0  0  0
  1  2  1  0
  2  3  2  0
  3  4  1  0
  5  4  2  0
  6  5  1  0
  7  6  2  0
  7  2  1  0
  8  1  1  0
  9  1  1  0
  9 10  1  0
 10 14  1  0
 11 10  1  0
 12 11  1  0
 12 13  1  0
 13 14  1  0
  1 15  1  1
  3 16  1  0
  4 17  1  0
  6 18  1  0
  8 19  1  0
  8 20  1  0
  8 21  1  0
  9 22  1  0
  9 23  1  0
 10 24  1  0
 11 25  1  0
 11 26  1  0
 12 27  1  0
 12 28  1  0
 13 29  1  0
 13 30  1  0
 14 31  1  0
 14 32  1  0
M  ISO  8  15   8  16  14  17  14  18  14  19   8  20   8  21   8  22   8
M  ISO  8  23   8  24  13  25  13  26  13  27  13  28  13  29  13  30  13
M  ISO  2  31  13  32  13
M  END
>  <minimizedAffinity>  (1) 
-3.57988048

>  <minimizedRMSD>  (1) 
0.702814937

$$$$
