
     RDKit          3D

 35 38  0  0  0  0  0  0  0  0999 V2000
   39.5810   22.9590   37.2870 C   0  0  0  0  0  0  0  0  0  0  0  0
   39.0220   23.2040   38.5540 C   0  0  0  0  0  0  0  0  0  0  0  0
   38.0590   24.2290   38.6360 C   0  0  0  0  0  0  0  0  0  0  0  0
   37.7250   24.9110   37.5240 N   0  0  0  0  0  0  0  0  0  0  0  0
   38.2960   24.6360   36.3130 C   0  0  0  0  0  0  0  0  0  0  0  0
   39.2070   23.6720   36.2160 N   0  0  0  0  0  0  0  0  0  0  0  0
   37.8930   25.4080   35.1410 C   0  0  0  0  0  0  0  0  0  0  0  0
   37.9150   24.8280   33.8860 C   0  0  0  0  0  0  0  0  0  0  0  0
   37.5340   25.5610   32.7810 C   0  0  0  0  0  0  0  0  0  0  0  0
   37.1350   26.8700   32.9510 C   0  0  0  0  0  0  0  0  0  0  0  0
   37.0890   27.5160   34.1850 C   0  0  0  0  0  0  0  0  0  0  0  0
   37.4840   26.7310   35.2680 C   0  0  0  0  0  0  0  0  0  0  0  0
   40.5110   21.9690   37.2050 O   0  0  0  0  0  0  0  0  0  0  0  0
   41.7940   22.0950   36.7330 C   0  0  0  0  0  0  0  0  0  0  0  0
   42.3630   23.2370   36.1730 C   0  0  0  0  0  0  0  0  0  0  0  0
   43.6310   23.0180   35.8170 N   0  0  0  0  0  0  0  0  0  0  0  0
   43.9630   21.7510   36.1140 C   0  0  0  0  0  0  0  0  0  0  0  0
   45.1270   21.0110   35.9610 C   0  0  0  0  0  0  0  0  0  0  0  0
   45.1640   19.6880   36.3740 C   0  0  0  0  0  0  0  0  0  0  0  0
   44.0340   19.1100   36.9400 C   0  0  0  0  0  0  0  0  0  0  0  0
   42.8690   19.8640   37.0890 C   0  0  0  0  0  0  0  0  0  0  0  0
   42.8390   21.1950   36.6710 C   0  0  0  0  0  0  0  0  0  0  0  0
   39.3223   22.6232   39.4386 H   0  0  0  0  0  0  0  0  0  0  0  0
   37.5847   24.4698   39.5988 H   0  0  0  0  0  0  0  0  0  0  0  0
   38.2362   23.7825   33.7687 H   0  0  0  0  0  0  0  0  0  0  0  0
   37.5483   25.1078   31.7788 H   0  0  0  0  0  0  0  0  0  0  0  0
   36.8349   27.4387   32.0586 H   0  0  0  0  0  0  0  0  0  0  0  0
   36.7668   28.5619   34.2960 H   0  0  0  0  0  0  0  0  0  0  0  0
   37.4714   27.1805   36.2719 H   0  0  0  0  0  0  0  0  0  0  0  0
   41.8364   24.1938   36.0414 H   0  0  0  0  0  0  0  0  0  0  0  0
   44.2564   23.7118   35.3828 H   0  0  0  0  0  0  0  0  0  0  0  0
   46.0188   21.4733   35.5128 H   0  0  0  0  0  0  0  0  0  0  0  0
   46.0846   19.0979   36.2541 H   0  0  0  0  0  0  0  0  0  0  0  0
   44.0577   18.0609   37.2697 H   0  0  0  0  0  0  0  0  0  0  0  0
   41.9733   19.4085   37.5365 H   0  0  0  0  0  0  0  0  0  0  0  0
  1  2  2  0
  2  3  1  0
  4  3  2  0
  5  4  1  0
  6  5  2  0
  6  1  1  0
  7 12  1  0
  7  5  1  0
  8  7  2  0
  9 10  2  0
  9  8  1  0
 10 11  1  0
 11 12  2  0
 13  1  1  0
 14 13  1  0
 15 14  2  0
 16 17  1  0
 16 15  1  0
 17 22  2  0
 18 17  1  0
 18 19  2  0
 19 20  1  0
 20 21  2  0
 22 14  1  0
 22 21  1  0
  2 23  1  0
  3 24  1  0
  8 25  1  0
  9 26  1  0
 10 27  1  0
 11 28  1  0
 12 29  1  0
 15 30  1  0
 16 31  1  0
 18 32  1  0
 19 33  1  0
 20 34  1  0
 21 35  1  0
M  ISO  8  23  14  24  14  25  14  26  14  27  14  28  14  29  14  30  14
M  ISO  5  31   9  32  14  33  14  34  14  35  14
M  END
>  <minimizedAffinity>  (1) 
-5.44094706

>  <minimizedRMSD>  (1) 
1.46282661

$$$$
