
     RDKit          3D

 32 35  0  0  0  0  0  0  0  0999 V2000
   40.5650   21.9630   37.3020 O   0  0  0  0  0  0  0  0  0  0  0  0
   41.8390   22.0930   36.7920 C   0  0  0  0  0  0  0  0  0  0  0  0
   42.3860   23.2290   36.2210 C   0  0  0  0  0  0  0  0  0  0  0  0
   43.6420   23.0090   35.8310 N   0  0  0  0  0  0  0  0  0  0  0  0
   43.9930   21.7270   36.1180 C   0  0  0  0  0  0  0  0  0  0  0  0
   45.1450   21.0070   35.9290 C   0  0  0  0  0  0  0  0  0  0  0  0
   45.1960   19.6760   36.3420 C   0  0  0  0  0  0  0  0  0  0  0  0
   44.0780   19.0960   36.9420 C   0  0  0  0  0  0  0  0  0  0  0  0
   42.9270   19.8520   37.1200 C   0  0  0  0  0  0  0  0  0  0  0  0
   42.8830   21.1710   36.7070 C   0  0  0  0  0  0  0  0  0  0  0  0
   39.6020   22.9230   37.2820 C   0  0  0  0  0  0  0  0  0  0  0  0
   39.0210   23.2330   38.5240 C   0  0  0  0  0  0  0  0  0  0  0  0
   38.0260   24.2140   38.5580 C   0  0  0  0  0  0  0  0  0  0  0  0
   37.6720   24.8150   37.3880 N   0  0  0  0  0  0  0  0  0  0  0  0
   38.2630   24.4800   36.2190 C   0  0  0  0  0  0  0  0  0  0  0  0
   39.2070   23.5550   36.1560 N   0  0  0  0  0  0  0  0  0  0  0  0
   37.8310   25.1690   35.0080 C   0  0  0  0  0  0  0  0  0  0  0  0
   37.3350   26.4460   34.8700 C   0  0  0  0  0  0  0  0  0  0  0  0
   37.0430   26.7350   33.5890 N   0  0  0  0  0  0  0  0  0  0  0  0
   37.3520   25.6340   32.8760 C   0  0  0  0  0  0  0  0  0  0  0  0
   37.8260   24.6980   33.7470 N   0  0  0  0  0  0  0  0  0  0  0  0
   41.8555   24.1855   36.1045 H   0  0  0  0  0  0  0  0  0  0  0  0
   44.2536   23.7047   35.3806 H   0  0  0  0  0  0  0  0  0  0  0  0
   46.0208   21.4752   35.4559 H   0  0  0  0  0  0  0  0  0  0  0  0
   46.1130   19.0865   36.1954 H   0  0  0  0  0  0  0  0  0  0  0  0
   44.1081   18.0470   37.2718 H   0  0  0  0  0  0  0  0  0  0  0  0
   42.0436   19.3983   37.5931 H   0  0  0  0  0  0  0  0  0  0  0  0
   39.3402   22.7185   39.4424 H   0  0  0  0  0  0  0  0  0  0  0  0
   37.5413   24.4935   39.5051 H   0  0  0  0  0  0  0  0  0  0  0  0
   37.1944   27.1460   35.7068 H   0  0  0  0  0  0  0  0  0  0  0  0
   37.2418   25.5124   31.7883 H   0  0  0  0  0  0  0  0  0  0  0  0
   38.1390   23.7549   33.4758 H   0  0  0  0  0  0  0  0  0  0  0  0
  2  1  1  0
  3  2  2  0
  4  5  1  0
  4  3  1  0
  5 10  2  0
  6  5  1  0
  6  7  2  0
  7  8  1  0
  8  9  2  0
 10  2  1  0
 10  9  1  0
 11  1  1  0
 11 12  2  0
 12 13  1  0
 14 13  2  0
 15 14  1  0
 16 15  2  0
 16 11  1  0
 17 15  1  0
 18 17  2  0
 19 18  1  0
 20 19  2  0
 20 21  1  0
 21 17  1  0
  3 22  1  0
  4 23  1  0
  6 24  1  0
  7 25  1  0
  8 26  1  0
  9 27  1  0
 12 28  1  0
 13 29  1  0
 18 30  1  0
 20 31  1  0
 21 32  1  0
M  ISO  8  22  14  23   9  24  14  25  14  26  14  27  14  28  14  29  14
M  ISO  3  30  14  31  14  32   9
M  END
>  <minimizedAffinity>  (1) 
-5.03798676

>  <minimizedRMSD>  (1) 
1.12768579

$$$$
