
     RDKit          3D

 27 28  0  0  1  0  0  0  0  0999 V2000
   41.3620   22.6590   37.2140 C   0  0  2  0  0  0  0  0  0  0  0  0
   39.8690   22.7610   37.1960 C   0  0  0  0  0  0  0  0  0  0  0  0
   39.1750   23.2810   38.2970 C   0  0  0  0  0  0  0  0  0  0  0  0
   37.7900   23.3640   38.2330 C   0  0  0  0  0  0  0  0  0  0  0  0
   37.1780   22.9370   37.1030 N   0  0  0  0  0  0  0  0  0  0  0  0
   37.8580   22.4350   36.0420 C   0  0  0  0  0  0  0  0  0  0  0  0
   39.1940   22.3630   36.1260 N   0  0  0  0  0  0  0  0  0  0  0  0
   41.8210   23.4740   36.0340 C   0  0  0  0  0  0  0  0  0  0  0  0
   41.7690   21.2160   37.0630 C   0  0  0  0  0  0  0  0  0  0  0  0
   42.6910   21.0060   35.9290 C   0  0  0  0  0  0  0  0  0  0  0  0
   44.0760   21.0620   36.1150 C   0  0  0  0  0  0  0  0  0  0  0  0
   45.0250   20.8800   35.1250 C   0  0  0  0  0  0  0  0  0  0  0  0
   44.5530   20.6320   33.8910 N   0  0  0  0  0  0  0  0  0  0  0  0
   43.2320   20.5710   33.6680 C   0  0  0  0  0  0  0  0  0  0  0  0
   42.3650   20.7550   34.6620 N   0  0  0  0  0  0  0  0  0  0  0  0
   41.8048   23.0238   38.1525 H   0  0  0  0  0  0  0  0  0  0  0  0
   39.7163   23.6167   39.1938 H   0  0  0  0  0  0  0  0  0  0  0  0
   37.2073   23.7648   39.0755 H   0  0  0  0  0  0  0  0  0  0  0  0
   37.3286   22.0969   35.1390 H   0  0  0  0  0  0  0  0  0  0  0  0
   42.3316   24.3806   36.3909 H   0  0  0  0  0  0  0  0  0  0  0  0
   42.5159   22.8777   35.4245 H   0  0  0  0  0  0  0  0  0  0  0  0
   40.9508   23.7591   35.4245 H   0  0  0  0  0  0  0  0  0  0  0  0
   42.2675   20.8911   37.9882 H   0  0  0  0  0  0  0  0  0  0  0  0
   40.8589   20.6299   36.8677 H   0  0  0  0  0  0  0  0  0  0  0  0
   44.4408   21.2677   37.1322 H   0  0  0  0  0  0  0  0  0  0  0  0
   46.1033   20.9350   35.3354 H   0  0  0  0  0  0  0  0  0  0  0  0
   42.8605   20.3668   32.6530 H   0  0  0  0  0  0  0  0  0  0  0  0
  2  1  1  0
  2  3  2  0
  4  3  1  0
  5  4  2  0
  6  7  2  0
  6  5  1  0
  7  2  1  0
  8  1  1  0
  9  1  1  0
 10 11  2  0
 10  9  1  0
 12 11  1  0
 13 12  2  0
 14 13  1  0
 14 15  2  0
 15 10  1  0
  1 16  1  1
  3 17  1  0
  4 18  1  0
  6 19  1  0
  8 20  1  0
  8 21  1  0
  8 22  1  0
  9 23  1  0
  9 24  1  0
 11 25  1  0
 12 26  1  0
 14 27  1  0
M  ISO  8  16   8  17  14  18  14  19  14  20   8  21   8  22   8  23   8
M  ISO  4  24   8  25  14  26  14  27  14
M  END
>  <minimizedAffinity>  (1) 
-3.49617457

>  <minimizedRMSD>  (1) 
2.03130341

$$$$
