
     RDKit          3D

 26 28  0  0  0  0  0  0  0  0999 V2000
   41.9640   22.0620   37.0190 C   0  0  0  0  0  0  0  0  0  0  0  0
   42.5520   23.1920   36.4900 C   0  0  0  0  0  0  0  0  0  0  0  0
   43.7700   22.9250   35.9970 N   0  0  0  0  0  0  0  0  0  0  0  0
   44.0360   21.6020   36.1830 C   0  0  0  0  0  0  0  0  0  0  0  0
   45.1140   20.8020   35.8780 C   0  0  0  0  0  0  0  0  0  0  0  0
   45.0990   19.4560   36.1970 C   0  0  0  0  0  0  0  0  0  0  0  0
   43.9860   18.9240   36.8270 C   0  0  0  0  0  0  0  0  0  0  0  0
   42.8950   19.7320   37.1360 C   0  0  0  0  0  0  0  0  0  0  0  0
   42.9220   21.0910   36.8080 C   0  0  0  0  0  0  0  0  0  0  0  0
   40.7250   21.9940   37.5990 O   0  0  0  0  0  0  0  0  0  0  0  0
   39.6480   22.7890   37.3250 C   0  0  0  0  0  0  0  0  0  0  0  0
   38.9500   23.3030   38.4320 C   0  0  0  0  0  0  0  0  0  0  0  0
   37.8450   24.1210   38.1380 C   0  0  0  0  0  0  0  0  0  0  0  0
   37.5160   24.3650   36.8550 N   0  0  0  0  0  0  0  0  0  0  0  0
   38.2240   23.8430   35.8210 C   0  0  0  0  0  0  0  0  0  0  0  0
   39.2720   23.0690   36.0690 N   0  0  0  0  0  0  0  0  0  0  0  0
   37.8690   24.1070   34.5090 O   0  0  0  0  0  0  0  0  0  0  0  0
   42.0814   24.1861   36.4745 H   0  0  0  0  0  0  0  0  0  0  0  0
   44.4001   23.6072   35.5515 H   0  0  0  0  0  0  0  0  0  0  0  0
   45.9925   21.2356   35.3777 H   0  0  0  0  0  0  0  0  0  0  0  0
   45.9601   18.8163   35.9534 H   0  0  0  0  0  0  0  0  0  0  0  0
   43.9639   17.8550   37.0852 H   0  0  0  0  0  0  0  0  0  0  0  0
   42.0146   19.3026   37.6366 H   0  0  0  0  0  0  0  0  0  0  0  0
   39.2505   23.0786   39.4661 H   0  0  0  0  0  0  0  0  0  0  0  0
   37.2512   24.5602   38.9531 H   0  0  0  0  0  0  0  0  0  0  0  0
   37.0883   24.6836   34.3139 H   0  0  0  0  0  0  0  0  0  0  0  0
  1 10  1  0
  2  1  2  0
  3  4  1  0
  3  2  1  0
  4  9  2  0
  5  4  1  0
  5  6  2  0
  6  7  1  0
  7  8  2  0
  9  1  1  0
  9  8  1  0
 11 10  1  0
 11 12  2  0
 13 12  1  0
 14 13  2  0
 15 16  2  0
 15 14  1  0
 16 11  1  0
 17 15  1  0
  2 18  1  0
  3 19  1  0
  5 20  1  0
  6 21  1  0
  7 22  1  0
  8 23  1  0
 12 24  1  0
 13 25  1  0
 17 26  1  0
M  ISO  8  18  14  19   9  20  14  21  14  22  14  23  14  24  14  25  14
M  ISO  1  26   3
M  END
>  <minimizedAffinity>  (1) 
-4.35236692

>  <minimizedRMSD>  (1) 
0.289618224

$$$$
