
     RDKit          3D

 38 41  0  0  0  0  0  0  0  0999 V2000
   40.1390   23.7290   35.7570 C   0  0  0  0  0  0  0  0  0  0  0  0
   40.3660   22.4240   36.2020 C   0  0  0  0  0  0  0  0  0  0  0  0
   41.7120   22.0320   36.3700 C   0  0  0  0  0  0  0  0  0  0  0  0
   42.6990   22.9150   36.1010 N   0  0  0  0  0  0  0  0  0  0  0  0
   42.4100   24.1690   35.6710 C   0  0  0  0  0  0  0  0  0  0  0  0
   41.1580   24.5560   35.5070 N   0  0  0  0  0  0  0  0  0  0  0  0
   43.3990   25.1580   35.3650 N   0  0  0  0  0  0  0  0  0  0  0  0
   43.3880   25.7960   34.1520 C   0  0  0  0  0  0  0  0  0  0  0  0
   44.3770   26.7490   33.9160 C   0  0  0  0  0  0  0  0  0  0  0  0
   45.3390   27.0420   34.8740 C   0  0  0  0  0  0  0  0  0  0  0  0
   46.2320   27.9100   34.6480 O   0  0  0  0  0  0  0  0  0  0  0  0
   45.3080   26.3900   36.0470 N   0  0  0  0  0  0  0  0  0  0  0  0
   44.3530   25.4700   36.2750 C   0  0  0  0  0  0  0  0  0  0  0  0
   44.3080   24.8500   37.3690 O   0  0  0  0  0  0  0  0  0  0  0  0
   38.8390   24.1070   35.5940 O   0  0  0  0  0  0  0  0  0  0  0  0
   38.1870   24.2620   34.3970 C   0  0  0  0  0  0  0  0  0  0  0  0
   37.8940   23.2630   33.4880 C   0  0  0  0  0  0  0  0  0  0  0  0
   37.2470   23.7710   32.4210 N   0  0  0  0  0  0  0  0  0  0  0  0
   37.0870   25.1140   32.5800 C   0  0  0  0  0  0  0  0  0  0  0  0
   36.5050   26.0840   31.7990 C   0  0  0  0  0  0  0  0  0  0  0  0
   36.4940   27.3900   32.2310 C   0  0  0  0  0  0  0  0  0  0  0  0
   37.0810   27.7040   33.4650 C   0  0  0  0  0  0  0  0  0  0  0  0
   37.6590   26.7140   34.2320 C   0  0  0  0  0  0  0  0  0  0  0  0
   37.6650   25.4080   33.7920 C   0  0  0  0  0  0  0  0  0  0  0  0
   38.2830   27.0610   35.5490 C   0  0  0  0  0  0  0  0  0  0  0  0
   37.8790   26.1710   36.5330 F   0  0  0  0  0  0  0  0  0  0  0  0
   37.8300   28.3170   35.9720 F   0  0  0  0  0  0  0  0  0  0  0  0
   39.6610   27.0190   35.5110 F   0  0  0  0  0  0  0  0  0  0  0  0
   39.5350   21.7344   36.4116 H   0  0  0  0  0  0  0  0  0  0  0  0
   41.9551   21.0168   36.7168 H   0  0  0  0  0  0  0  0  0  0  0  0
   42.6265   25.5643   33.3927 H   0  0  0  0  0  0  0  0  0  0  0  0
   44.3961   27.2794   32.9525 H   0  0  0  0  0  0  0  0  0  0  0  0
   46.0129   26.5933   36.7700 H   0  0  0  0  0  0  0  0  0  0  0  0
   38.1528   22.2018   33.6175 H   0  0  0  0  0  0  0  0  0  0  0  0
   36.9228   23.2266   31.6089 H   0  0  0  0  0  0  0  0  0  0  0  0
   36.0504   25.8173   30.8335 H   0  0  0  0  0  0  0  0  0  0  0  0
   36.0313   28.1768   31.6171 H   0  0  0  0  0  0  0  0  0  0  0  0
   37.0806   28.7441   33.8229 H   0  0  0  0  0  0  0  0  0  0  0  0
  1  2  2  0
  2  3  1  0
  4  3  2  0
  5  4  1  0
  6  5  2  0
  6  1  1  0
  7  5  1  0
  7 13  1  0
  8  7  1  0
  9  8  2  0
  9 10  1  0
 10 12  1  0
 11 10  2  0
 12 13  1  0
 13 14  2  0
 15  1  1  0
 16 15  1  0
 17 16  2  0
 18 19  1  0
 18 17  1  0
 19 24  2  0
 20 21  2  0
 20 19  1  0
 21 22  1  0
 22 23  2  0
 23 25  1  0
 24 23  1  0
 24 16  1  0
 25 27  1  0
 25 26  1  0
 28 25  1  0
  2 29  1  0
  3 30  1  0
  8 31  1  0
  9 32  1  0
 12 33  1  0
 17 34  1  0
 18 35  1  0
 20 36  1  0
 21 37  1  0
 22 38  1  0
M  ISO  8  29  14  30  14  31  14  32  14  33   9  34  14  35   9  36  14
M  ISO  2  37  14  38  14
M  END
>  <minimizedAffinity>  (1) 
-6.28322601

>  <minimizedRMSD>  (1) 
8.29008293

$$$$
