
     RDKit          3D

 44 48  0  0  0  0  0  0  0  0999 V2000
   42.6490   22.7870   36.3120 C   0  0  0  0  0  0  0  0  0  0  0  0
   42.5390   24.1720   36.3270 C   0  0  0  0  0  0  0  0  0  0  0  0
   43.7490   24.7370   36.1160 N   0  0  0  0  0  0  0  0  0  0  0  0
   44.6890   23.7550   35.9570 C   0  0  0  0  0  0  0  0  0  0  0  0
   46.0290   23.8160   35.7220 C   0  0  0  0  0  0  0  0  0  0  0  0
   46.7400   22.6280   35.5990 C   0  0  0  0  0  0  0  0  0  0  0  0
   46.0640   21.4210   35.7200 C   0  0  0  0  0  0  0  0  0  0  0  0
   44.6940   21.3690   35.9630 C   0  0  0  0  0  0  0  0  0  0  0  0
   44.0020   22.5460   36.0810 C   0  0  0  0  0  0  0  0  0  0  0  0
   44.0970   20.0460   36.0760 C   0  0  0  0  0  0  0  0  0  0  0  0
   43.7740   19.3330   34.9450 C   0  0  0  0  0  0  0  0  0  0  0  0
   43.2070   18.0950   34.9160 C   0  0  0  0  0  0  0  0  0  0  0  0
   42.9060   17.4490   36.0940 C   0  0  0  0  0  0  0  0  0  0  0  0
   43.2290   18.1630   37.2170 C   0  0  0  0  0  0  0  0  0  0  0  0
   43.7790   19.3620   37.1530 N   0  0  0  0  0  0  0  0  0  0  0  0
   41.6240   21.9020   36.4890 O   0  0  0  0  0  0  0  0  0  0  0  0
   40.2900   22.2250   36.6530 C   0  0  0  0  0  0  0  0  0  0  0  0
   39.9510   22.9390   37.7940 C   0  0  0  0  0  0  0  0  0  0  0  0
   38.5880   23.2670   37.9620 C   0  0  0  0  0  0  0  0  0  0  0  0
   37.7020   22.8810   37.0270 N   0  0  0  0  0  0  0  0  0  0  0  0
   38.0890   22.1850   35.9270 C   0  0  0  0  0  0  0  0  0  0  0  0
   39.3600   21.8660   35.7500 N   0  0  0  0  0  0  0  0  0  0  0  0
   37.2090   21.7390   34.8950 N   0  0  0  0  0  0  0  0  0  0  0  0
   37.4630   22.0380   33.5990 C   0  0  0  0  0  0  0  0  0  0  0  0
   36.5620   21.5720   32.6480 C   0  0  0  0  0  0  0  0  0  0  0  0
   35.4460   20.8330   32.9850 C   0  0  0  0  0  0  0  0  0  0  0  0
   34.6220   20.4060   32.1310 O   0  0  0  0  0  0  0  0  0  0  0  0
   35.2410   20.5650   34.2790 N   0  0  0  0  0  0  0  0  0  0  0  0
   36.1100   21.0120   35.2180 C   0  0  0  0  0  0  0  0  0  0  0  0
   35.9290   20.7660   36.4380 O   0  0  0  0  0  0  0  0  0  0  0  0
   41.6035   24.7280   36.4872 H   0  0  0  0  0  0  0  0  0  0  0  0
   43.9346   25.7495   36.0804 H   0  0  0  0  0  0  0  0  0  0  0  0
   46.5388   24.7865   35.6313 H   0  0  0  0  0  0  0  0  0  0  0  0
   47.8233   22.6437   35.4084 H   0  0  0  0  0  0  0  0  0  0  0  0
   46.6260   20.4806   35.6212 H   0  0  0  0  0  0  0  0  0  0  0  0
   43.9935   19.8054   33.9762 H   0  0  0  0  0  0  0  0  0  0  0  0
   42.9897   17.6116   33.9521 H   0  0  0  0  0  0  0  0  0  0  0  0
   42.4475   16.4497   36.1298 H   0  0  0  0  0  0  0  0  0  0  0  0
   43.0237   17.7237   38.2043 H   0  0  0  0  0  0  0  0  0  0  0  0
   40.7094   23.2357   38.5334 H   0  0  0  0  0  0  0  0  0  0  0  0
   38.2553   23.8308   38.8460 H   0  0  0  0  0  0  0  0  0  0  0  0
   38.3467   22.6260   33.3101 H   0  0  0  0  0  0  0  0  0  0  0  0
   36.7454   21.8008   31.5878 H   0  0  0  0  0  0  0  0  0  0  0  0
   34.4177   20.0155   34.5638 H   0  0  0  0  0  0  0  0  0  0  0  0
  1  2  2  0
  1 16  1  0
  3  2  1  0
  4  9  2  0
  4  3  1  0
  5  4  1  0
  6  7  1  0
  6  5  2  0
  7  8  2  0
  8 10  1  0
  8  9  1  0
  9  1  1  0
 10 15  1  0
 11 10  2  0
 12 11  1  0
 12 13  2  0
 13 14  1  0
 15 14  2  0
 16 17  1  0
 17 18  2  0
 18 19  1  0
 20 19  2  0
 21 20  1  0
 22 21  2  0
 22 17  1  0
 23 29  1  0
 23 21  1  0
 24 23  1  0
 25 26  1  0
 25 24  2  0
 26 28  1  0
 27 26  2  0
 28 29  1  0
 29 30  2  0
  2 31  1  0
  3 32  1  0
  5 33  1  0
  6 34  1  0
  7 35  1  0
 11 36  1  0
 12 37  1  0
 13 38  1  0
 14 39  1  0
 18 40  1  0
 19 41  1  0
 24 42  1  0
 25 43  1  0
 28 44  1  0
M  ISO  8  31  14  32   9  33  14  34  14  35  14  36  14  37  14  38  14
M  ISO  6  39  14  40  14  41  14  42  14  43  14  44   9
M  END
>  <minimizedAffinity>  (1) 
-5.81832838

>  <minimizedRMSD>  (1) 
2.46216083

$$$$
