
     RDKit          3D

 47 50  0  0  0  0  0  0  0  0999 V2000
   40.0280   22.3150   36.4260 C   0  0  0  0  0  0  0  0  0  0  0  0
   39.6370   23.0350   37.5460 C   0  0  0  0  0  0  0  0  0  0  0  0
   38.2610   23.3020   37.6880 C   0  0  0  0  0  0  0  0  0  0  0  0
   37.4010   22.8550   36.7470 N   0  0  0  0  0  0  0  0  0  0  0  0
   37.8350   22.1500   35.6610 C   0  0  0  0  0  0  0  0  0  0  0  0
   39.1280   21.8950   35.5210 N   0  0  0  0  0  0  0  0  0  0  0  0
   36.9940   21.6490   34.6320 N   0  0  0  0  0  0  0  0  0  0  0  0
   37.2490   21.9460   33.3330 C   0  0  0  0  0  0  0  0  0  0  0  0
   36.3840   21.4260   32.3670 C   0  0  0  0  0  0  0  0  0  0  0  0
   35.3020   20.6340   32.7170 C   0  0  0  0  0  0  0  0  0  0  0  0
   34.5050   20.1520   31.8610 O   0  0  0  0  0  0  0  0  0  0  0  0
   35.0960   20.3690   34.0210 N   0  0  0  0  0  0  0  0  0  0  0  0
   35.9270   20.8690   34.9550 C   0  0  0  0  0  0  0  0  0  0  0  0
   35.7500   20.6320   36.1660 O   0  0  0  0  0  0  0  0  0  0  0  0
   41.3680   22.0450   36.2730 O   0  0  0  0  0  0  0  0  0  0  0  0
   42.3480   22.9720   35.9910 C   0  0  0  0  0  0  0  0  0  0  0  0
   42.1770   24.3230   35.7370 C   0  0  0  0  0  0  0  0  0  0  0  0
   43.3710   24.9080   35.5030 N   0  0  0  0  0  0  0  0  0  0  0  0
   44.3660   23.9750   35.5920 C   0  0  0  0  0  0  0  0  0  0  0  0
   45.7260   24.0500   35.4460 C   0  0  0  0  0  0  0  0  0  0  0  0
   46.4910   22.9200   35.6000 C   0  0  0  0  0  0  0  0  0  0  0  0
   45.8590   21.7200   35.9020 C   0  0  0  0  0  0  0  0  0  0  0  0
   44.4800   21.6370   36.0530 C   0  0  0  0  0  0  0  0  0  0  0  0
   43.7260   22.7970   35.8920 C   0  0  0  0  0  0  0  0  0  0  0  0
   43.8950   20.2980   36.3710 C   0  0  0  0  0  0  0  0  0  0  0  0
   43.1070   19.7940   35.1480 C   0  0  0  0  0  0  0  0  0  0  0  0
   42.8400   20.4030   37.4540 C   0  0  0  0  0  0  0  0  0  0  0  0
   44.9380   19.2460   36.6500 C   0  0  0  0  0  0  0  0  0  0  0  0
   40.3691   23.3819   38.2901 H   0  0  0  0  0  0  0  0  0  0  0  0
   37.8910   23.8682   38.5555 H   0  0  0  0  0  0  0  0  0  0  0  0
   38.1066   22.5741   33.0503 H   0  0  0  0  0  0  0  0  0  0  0  0
   36.5657   21.6501   31.3055 H   0  0  0  0  0  0  0  0  0  0  0  0
   34.2993   19.7813   34.3052 H   0  0  0  0  0  0  0  0  0  0  0  0
   41.2082   24.8439   35.7274 H   0  0  0  0  0  0  0  0  0  0  0  0
   43.5110   25.9059   35.2898 H   0  0  0  0  0  0  0  0  0  0  0  0
   46.2034   25.0116   35.2064 H   0  0  0  0  0  0  0  0  0  0  0  0
   47.5842   22.9641   35.4863 H   0  0  0  0  0  0  0  0  0  0  0  0
   46.4665   20.8113   36.0249 H   0  0  0  0  0  0  0  0  0  0  0  0
   42.2254   19.2301   35.4868 H   0  0  0  0  0  0  0  0  0  0  0  0
   42.7824   20.6525   34.5417 H   0  0  0  0  0  0  0  0  0  0  0  0
   43.7503   19.1393   34.5417 H   0  0  0  0  0  0  0  0  0  0  0  0
   43.3222   20.3550   38.4415 H   0  0  0  0  0  0  0  0  0  0  0  0
   42.3050   21.3588   37.3533 H   0  0  0  0  0  0  0  0  0  0  0  0
   42.1271   19.5714   37.3533 H   0  0  0  0  0  0  0  0  0  0  0  0
   45.0566   19.1264   37.7370 H   0  0  0  0  0  0  0  0  0  0  0  0
   44.6215   18.2896   36.2083 H   0  0  0  0  0  0  0  0  0  0  0  0
   45.8971   19.5543   36.2083 H   0  0  0  0  0  0  0  0  0  0  0  0
  1  2  2  0
  2  3  1  0
  4  3  2  0
  5  4  1  0
  6  5  2  0
  6  1  1  0
  7 13  1  0
  7  5  1  0
  8  7  1  0
  9 10  1  0
  9  8  2  0
 10 12  1  0
 11 10  2  0
 12 13  1  0
 13 14  2  0
 15  1  1  0
 16 15  1  0
 17 16  2  0
 18 19  1  0
 18 17  1  0
 19 24  2  0
 20 19  1  0
 20 21  2  0
 21 22  1  0
 22 23  2  0
 23 25  1  0
 24 16  1  0
 24 23  1  0
 25 28  1  0
 25 27  1  0
 26 25  1  0
  2 29  1  0
  3 30  1  0
  8 31  1  0
  9 32  1  0
 12 33  1  0
 17 34  1  0
 18 35  1  0
 20 36  1  0
 21 37  1  0
 22 38  1  0
 26 39  1  0
 26 40  1  0
 26 41  1  0
 27 42  1  0
 27 43  1  0
 27 44  1  0
 28 45  1  0
 28 46  1  0
 28 47  1  0
M  ISO  8  29  14  30  14  31  14  32  14  33   9  34  14  35   9  36  14
M  ISO  8  37  14  38  14  39   8  40   8  41   8  42   8  43   8  44   8
M  ISO  3  45   8  46   8  47   8
M  END
>  <minimizedAffinity>  (1) 
-5.85175419

>  <minimizedRMSD>  (1) 
2.04245186

$$$$
