
     RDKit          3D

 32 33  0  0  1  0  0  0  0  0999 V2000
   41.3020   22.8460   36.7280 C   0  0  2  0  0  0  0  0  0  0  0  0
   39.8110   22.8480   36.9080 C   0  0  0  0  0  0  0  0  0  0  0  0
   39.2360   23.2920   38.1120 C   0  0  0  0  0  0  0  0  0  0  0  0
   37.8410   23.2860   38.2240 C   0  0  0  0  0  0  0  0  0  0  0  0
   37.1250   22.8510   37.1590 N   0  0  0  0  0  0  0  0  0  0  0  0
   37.6980   22.4350   36.0230 C   0  0  0  0  0  0  0  0  0  0  0  0
   39.0390   22.4330   35.8980 N   0  0  0  0  0  0  0  0  0  0  0  0
   41.5740   23.8800   35.6600 C   0  0  0  0  0  0  0  0  0  0  0  0
   41.7330   21.4700   36.3170 C   0  0  0  0  0  0  0  0  0  0  0  0
   42.9520   21.0150   36.9420 N   0  0  0  0  0  0  0  0  0  0  0  0
   42.9700   19.5860   37.1440 C   0  0  0  0  0  0  0  0  0  0  0  0
   44.3710   19.0170   36.9630 C   0  0  0  0  0  0  0  0  0  0  0  0
   44.7860   19.0380   35.6330 O   0  0  0  0  0  0  0  0  0  0  0  0
   44.1320   20.0990   35.0100 C   0  0  0  0  0  0  0  0  0  0  0  0
   44.0200   21.2900   35.9730 C   0  0  0  0  0  0  0  0  0  0  0  0
   41.8603   23.0928   37.6431 H   0  0  0  0  0  0  0  0  0  0  0  0
   39.8669   23.6355   38.9450 H   0  0  0  0  0  0  0  0  0  0  0  0
   37.3428   23.6229   39.1451 H   0  0  0  0  0  0  0  0  0  0  0  0
   37.0702   22.0929   35.1870 H   0  0  0  0  0  0  0  0  0  0  0  0
   41.8265   24.8397   36.1346 H   0  0  0  0  0  0  0  0  0  0  0  0
   42.4154   23.5480   35.0340 H   0  0  0  0  0  0  0  0  0  0  0  0
   40.6782   24.0050   35.0340 H   0  0  0  0  0  0  0  0  0  0  0  0
   40.9292   20.7656   36.5775 H   0  0  0  0  0  0  0  0  0  0  0  0
   41.9319   21.5133   35.2360 H   0  0  0  0  0  0  0  0  0  0  0  0
   42.6226   19.3643   38.1639 H   0  0  0  0  0  0  0  0  0  0  0  0
   42.3088   19.1224   36.3971 H   0  0  0  0  0  0  0  0  0  0  0  0
   45.0746   19.6139   37.5619 H   0  0  0  0  0  0  0  0  0  0  0  0
   44.3512   17.9673   37.2912 H   0  0  0  0  0  0  0  0  0  0  0  0
   44.7007   20.4039   34.1191 H   0  0  0  0  0  0  0  0  0  0  0  0
   43.1217   19.7768   34.7177 H   0  0  0  0  0  0  0  0  0  0  0  0
   44.9739   21.4279   36.5032 H   0  0  0  0  0  0  0  0  0  0  0  0
   43.7875   22.2059   35.4099 H   0  0  0  0  0  0  0  0  0  0  0  0
  1  2  1  0
  2  3  2  0
  3  4  1  0
  5  4  2  0
  6  5  1  0
  7  6  2  0
  7  2  1  0
  8  1  1  0
  9  1  1  0
  9 10  1  0
 10 11  1  0
 12 11  1  0
 13 12  1  0
 14 13  1  0
 14 15  1  0
 15 10  1  0
  1 16  1  1
  3 17  1  0
  4 18  1  0
  6 19  1  0
  8 20  1  0
  8 21  1  0
  8 22  1  0
  9 23  1  0
  9 24  1  0
 11 25  1  0
 11 26  1  0
 12 27  1  0
 12 28  1  0
 14 29  1  0
 14 30  1  0
 15 31  1  0
 15 32  1  0
M  ISO  8  16   8  17  14  18  14  19  14  20   8  21   8  22   8  23   8
M  ISO  8  24   8  25  13  26  13  27  13  28  13  29  13  30  13  31  13
M  ISO  1  32  13
M  END
>  <minimizedAffinity>  (1) 
-3.36853623

>  <minimizedRMSD>  (1) 
1.42697859

$$$$
