
     RDKit          3D

 20 21  0  0  0  0  0  0  0  0999 V2000
   38.8340   26.9280   35.7110 C   0  0  0  0  0  0  0  0  0  0  0  0
   37.7760   23.4390   36.7180 C   0  0  0  0  0  0  0  0  0  0  0  0
   37.7580   24.8270   36.5770 C   0  0  0  0  0  0  0  0  0  0  0  0
   38.8110   25.4480   35.8870 C   0  0  0  0  0  0  0  0  0  0  0  0
   39.8020   24.6590   35.3860 N   0  0  0  0  0  0  0  0  0  0  0  0
   39.7880   23.3170   35.5410 C   0  0  0  0  0  0  0  0  0  0  0  0
   38.7840   22.7080   36.2010 N   0  0  0  0  0  0  0  0  0  0  0  0
   37.9070   27.3790   34.6550 C   0  0  0  0  0  0  0  0  0  0  0  0
   38.1570   27.1300   33.3080 C   0  0  0  0  0  0  0  0  0  0  0  0
   37.0710   27.7040   32.6500 C   0  0  0  0  0  0  0  0  0  0  0  0
   36.2240   28.2620   33.5630 N   0  0  0  0  0  0  0  0  0  0  0  0
   36.7470   28.0540   34.7730 N   0  0  0  0  0  0  0  0  0  0  0  0
   38.5462   27.4021   36.6610 H   0  0  0  0  0  0  0  0  0  0  0  0
   39.8524   27.2164   35.4116 H   0  0  0  0  0  0  0  0  0  0  0  0
   36.9593   22.9359   37.2565 H   0  0  0  0  0  0  0  0  0  0  0  0
   36.9349   25.4229   36.9982 H   0  0  0  0  0  0  0  0  0  0  0  0
   40.6072   22.7137   35.1228 H   0  0  0  0  0  0  0  0  0  0  0  0
   39.0143   26.6018   32.8653 H   0  0  0  0  0  0  0  0  0  0  0  0
   36.9195   27.7069   31.5605 H   0  0  0  0  0  0  0  0  0  0  0  0
   35.3428   28.7535   33.3561 H   0  0  0  0  0  0  0  0  0  0  0  0
  1  4  1  0
  3  2  2  0
  4  3  1  0
  5  6  1  0
  5  4  2  0
  6  7  2  0
  7  2  1  0
  8 12  2  0
  8  1  1  0
  9  8  1  0
 10  9  2  0
 10 11  1  0
 11 12  1  0
  1 13  1  0
  1 14  1  0
  2 15  1  0
  3 16  1  0
  6 17  1  0
  9 18  1  0
 10 19  1  0
 11 20  1  0
M  ISO  8  13   8  14   8  15  14  16  14  17  14  18  14  19  14  20   9
M  END
>  <minimizedAffinity>  (1) 
-3.38323617

>  <minimizedRMSD>  (1) 
5.68830299

$$$$
