
     RDKit          3D

 28 29  0  0  1  0  0  0  0  0999 V2000
   43.5210   24.2120   35.6490 C   0  0  2  0  0  0  0  0  0  0  0  0
   42.2530   23.4930   36.0090 C   0  0  0  0  0  0  0  0  0  0  0  0
   42.2990   22.3370   36.7980 C   0  0  0  0  0  0  0  0  0  0  0  0
   41.1050   21.7000   37.1170 C   0  0  0  0  0  0  0  0  0  0  0  0
   39.9500   22.2350   36.6420 N   0  0  0  0  0  0  0  0  0  0  0  0
   39.9230   23.3550   35.8800 C   0  0  0  0  0  0  0  0  0  0  0  0
   41.0780   23.9760   35.5680 N   0  0  0  0  0  0  0  0  0  0  0  0
   44.2120   24.4460   36.9710 C   0  0  0  0  0  0  0  0  0  0  0  0
   43.1800   25.5200   34.9830 C   0  0  0  0  0  0  0  0  0  0  0  0
   44.3860   26.1730   34.4110 C   0  0  0  0  0  0  0  0  0  0  0  0
   45.1630   25.4940   33.4830 C   0  0  0  0  0  0  0  0  0  0  0  0
   46.2930   26.0330   32.9080 C   0  0  0  0  0  0  0  0  0  0  0  0
   46.6930   27.3150   33.2590 C   0  0  0  0  0  0  0  0  0  0  0  0
   45.9070   27.9680   34.1810 C   0  0  0  0  0  0  0  0  0  0  0  0
   44.7980   27.4210   34.7350 N   0  0  0  0  0  0  0  0  0  0  0  0
   44.1568   23.6478   34.9508 H   0  0  0  0  0  0  0  0  0  0  0  0
   43.2600   21.9410   37.1580 H   0  0  0  0  0  0  0  0  0  0  0  0
   41.0958   20.7903   37.7353 H   0  0  0  0  0  0  0  0  0  0  0  0
   38.9644   23.7551   35.5182 H   0  0  0  0  0  0  0  0  0  0  0  0
   43.5198   24.2116   37.7931 H   0  0  0  0  0  0  0  0  0  0  0  0
   45.0979   23.7978   37.0415 H   0  0  0  0  0  0  0  0  0  0  0  0
   44.5217   25.4991   37.0415 H   0  0  0  0  0  0  0  0  0  0  0  0
   42.4586   25.3315   34.1743 H   0  0  0  0  0  0  0  0  0  0  0  0
   42.7523   26.1915   35.7421 H   0  0  0  0  0  0  0  0  0  0  0  0
   44.8622   24.4766   33.1926 H   0  0  0  0  0  0  0  0  0  0  0  0
   46.8737   25.4519   32.1765 H   0  0  0  0  0  0  0  0  0  0  0  0
   47.5885   27.7831   32.8244 H   0  0  0  0  0  0  0  0  0  0  0  0
   46.1938   28.9859   34.4836 H   0  0  0  0  0  0  0  0  0  0  0  0
  1  2  1  0
  1  8  1  0
  2  3  2  0
  3  4  1  0
  5  4  2  0
  6  5  1  0
  7  6  2  0
  7  2  1  0
  9  1  1  0
 10 15  1  0
 10  9  1  0
 11 10  2  0
 12 13  2  0
 12 11  1  0
 13 14  1  0
 14 15  2  0
  1 16  1  6
  3 17  1  0
  4 18  1  0
  6 19  1  0
  8 20  1  0
  8 21  1  0
  8 22  1  0
  9 23  1  0
  9 24  1  0
 11 25  1  0
 12 26  1  0
 13 27  1  0
 14 28  1  0
M  ISO  8  16   8  17  14  18  14  19  14  20   8  21   8  22   8  23   8
M  ISO  5  24   8  25  14  26  14  27  14  28  14
M  END
>  <minimizedAffinity>  (1) 
-3.06246829

>  <minimizedRMSD>  (1) 
7.06347942

$$$$
