
     RDKit          3D

 32 34  0  0  1  0  0  0  0  0999 V2000
   37.6520   25.4830   34.4260 N   0  0  0  0  0  0  0  0  0  0  0  0
   37.1540   25.4990   33.1000 C   0  0  0  0  0  0  0  0  0  0  0  0
   36.7880   26.9520   32.8280 C   0  0  0  0  0  0  0  0  0  0  0  0
   37.1530   27.6830   34.1080 C   0  0  0  0  0  0  0  0  0  0  0  0
   38.2570   26.7750   34.6120 C   0  0  2  0  0  0  0  0  0  0  0  0
   39.5270   26.9650   33.9490 C   0  0  0  0  0  0  0  0  0  0  0  0
   40.7630   26.8750   34.6010 C   0  0  0  0  0  0  0  0  0  0  0  0
   41.7260   27.1150   33.6470 C   0  0  0  0  0  0  0  0  0  0  0  0
   41.0610   27.3380   32.4760 N   0  0  0  0  0  0  0  0  0  0  0  0
   39.7430   27.2480   32.6560 N   0  0  0  0  0  0  0  0  0  0  0  0
   38.6720   24.4970   34.6620 C   0  0  0  0  0  0  0  0  0  0  0  0
   37.8920   24.0330   38.3250 C   0  0  0  0  0  0  0  0  0  0  0  0
   37.7800   24.4640   36.9960 C   0  0  0  0  0  0  0  0  0  0  0  0
   38.7560   24.0600   36.0820 C   0  0  0  0  0  0  0  0  0  0  0  0
   39.7890   23.2580   36.5090 N   0  0  0  0  0  0  0  0  0  0  0  0
   39.8500   22.8680   37.8130 C   0  0  0  0  0  0  0  0  0  0  0  0
   38.9170   23.2490   38.7050 N   0  0  0  0  0  0  0  0  0  0  0  0
   37.9253   25.1569   32.3942 H   0  0  0  0  0  0  0  0  0  0  0  0
   36.2912   24.8279   32.9769 H   0  0  0  0  0  0  0  0  0  0  0  0
   37.3646   27.3454   31.9778 H   0  0  0  0  0  0  0  0  0  0  0  0
   35.7267   27.0735   32.5654 H   0  0  0  0  0  0  0  0  0  0  0  0
   37.5187   28.7011   33.9086 H   0  0  0  0  0  0  0  0  0  0  0  0
   36.3206   27.8402   34.8097 H   0  0  0  0  0  0  0  0  0  0  0  0
   38.5621   26.9642   35.6518 H   0  0  0  0  0  0  0  0  0  0  0  0
   40.9313   26.6557   35.6657 H   0  0  0  0  0  0  0  0  0  0  0  0
   42.8155   27.1251   33.7984 H   0  0  0  0  0  0  0  0  0  0  0  0
   41.5156   27.5473   31.5758 H   0  0  0  0  0  0  0  0  0  0  0  0
   38.4565   23.6166   34.0387 H   0  0  0  0  0  0  0  0  0  0  0  0
   39.6364   24.9611   34.4080 H   0  0  0  0  0  0  0  0  0  0  0  0
   37.1357   24.3383   39.0632 H   0  0  0  0  0  0  0  0  0  0  0  0
   36.9436   25.1050   36.6803 H   0  0  0  0  0  0  0  0  0  0  0  0
   40.6805   22.2273   38.1442 H   0  0  0  0  0  0  0  0  0  0  0  0
  1  5  1  0
  1 11  1  0
  2  1  1  0
  3  2  1  0
  3  4  1  0
  4  5  1  0
  6  7  1  0
  6  5  1  0
  8  7  2  0
  9 10  1  0
  9  8  1  0
 10  6  2  0
 11 14  1  0
 12 17  2  0
 13 12  1  0
 14 15  1  0
 14 13  2  0
 15 16  2  0
 16 17  1  0
  2 18  1  0
  2 19  1  0
  3 20  1  0
  3 21  1  0
  4 22  1  0
  4 23  1  0
  5 24  1  1
  7 25  1  0
  8 26  1  0
  9 27  1  0
 11 28  1  0
 11 29  1  0
 12 30  1  0
 13 31  1  0
 16 32  1  0
M  ISO  8  18  13  19  13  20  13  21  13  22  13  23  13  24  13  25  14
M  ISO  7  26  14  27   9  28   8  29   8  30  14  31  14  32  14
M  END
>  <minimizedAffinity>  (1) 
-4.48505926

>  <minimizedRMSD>  (1) 
0.818190098

$$$$
