
     RDKit          3D

 21 21  0  0  1  0  0  0  0  0999 V2000
   41.3960   22.6210   37.2880 C   0  0  2  0  0  0  0  0  0  0  0  0
   39.9020   22.6940   37.1460 C   0  0  0  0  0  0  0  0  0  0  0  0
   39.1250   23.2720   38.1690 C   0  0  0  0  0  0  0  0  0  0  0  0
   37.7430   23.3270   37.9910 C   0  0  0  0  0  0  0  0  0  0  0  0
   37.2200   22.8130   36.8300 N   0  0  0  0  0  0  0  0  0  0  0  0
   37.9970   22.2680   35.8750 C   0  0  0  0  0  0  0  0  0  0  0  0
   39.3320   22.2090   36.0340 N   0  0  0  0  0  0  0  0  0  0  0  0
   41.9340   22.9820   35.9260 C   0  0  0  0  0  0  0  0  0  0  0  0
   41.7840   21.2340   37.7110 C   0  0  0  0  0  0  0  0  0  0  0  0
   42.0610   20.4180   36.5580 N   0  0  0  0  0  0  0  0  0  0  0  0
   41.8010   23.3004   38.0525 H   0  0  0  0  0  0  0  0  0  0  0  0
   39.5946   23.6683   39.0814 H   0  0  0  0  0  0  0  0  0  0  0  0
   37.0907   23.7693   38.7584 H   0  0  0  0  0  0  0  0  0  0  0  0
   37.5376   21.8684   34.9589 H   0  0  0  0  0  0  0  0  0  0  0  0
   42.8425   23.5916   36.0404 H   0  0  0  0  0  0  0  0  0  0  0  0
   42.1764   22.0630   35.3721 H   0  0  0  0  0  0  0  0  0  0  0  0
   41.1755   23.5547   35.3721 H   0  0  0  0  0  0  0  0  0  0  0  0
   42.6828   21.2857   38.3431 H   0  0  0  0  0  0  0  0  0  0  0  0
   40.9519   20.7862   38.2741 H   0  0  0  0  0  0  0  0  0  0  0  0
   42.3771   19.4868   36.8643 H   0  0  0  0  0  0  0  0  0  0  0  0
   41.2057   20.3213   35.9923 H   0  0  0  0  0  0  0  0  0  0  0  0
  1  9  1  0
  2  1  1  0
  2  3  2  0
  4  3  1  0
  5  4  2  0
  6  7  2  0
  6  5  1  0
  7  2  1  0
  8  1  1  0
 10  9  1  0
  1 11  1  1
  3 12  1  0
  4 13  1  0
  6 14  1  0
  8 15  1  0
  8 16  1  0
  8 17  1  0
  9 18  1  0
  9 19  1  0
 10 20  1  0
 10 21  1  0
M  ISO  8  11   8  12  14  13  14  14  14  15   8  16   8  17   8  18   8
M  ISO  3  19   8  20   5  21   5
M  END
>  <minimizedAffinity>  (1) 
-2.94587755

>  <minimizedRMSD>  (1) 
0.355794728

$$$$
