
     RDKit          3D

 32 34  0  0  1  0  0  0  0  0999 V2000
   37.6290   24.3030   33.7190 N   0  0  0  0  0  0  0  0  0  0  0  0
   37.7470   23.0670   33.0030 C   0  0  0  0  0  0  0  0  0  0  0  0
   36.8610   23.2270   31.7800 C   0  0  0  0  0  0  0  0  0  0  0  0
   36.2720   24.6370   31.9180 C   0  0  0  0  0  0  0  0  0  0  0  0
   37.4460   25.2660   32.6750 C   0  0  1  0  0  0  0  0  0  0  0  0
   37.0130   26.5580   33.1460 N   0  0  0  0  0  0  0  0  0  0  0  0
   36.8280   27.0190   34.3920 C   0  0  0  0  0  0  0  0  0  0  0  0
   36.4070   28.3260   34.2930 C   0  0  0  0  0  0  0  0  0  0  0  0
   36.3420   28.6430   32.9700 N   0  0  0  0  0  0  0  0  0  0  0  0
   36.7200   27.5390   32.2690 C   0  0  0  0  0  0  0  0  0  0  0  0
   38.8400   24.6800   34.4190 C   0  0  0  0  0  0  0  0  0  0  0  0
   37.9020   24.0170   38.0280 C   0  0  0  0  0  0  0  0  0  0  0  0
   37.8550   24.5220   36.7350 C   0  0  0  0  0  0  0  0  0  0  0  0
   38.8450   24.1660   35.8190 C   0  0  0  0  0  0  0  0  0  0  0  0
   39.8260   23.3210   36.2590 N   0  0  0  0  0  0  0  0  0  0  0  0
   39.8500   22.8440   37.5160 C   0  0  0  0  0  0  0  0  0  0  0  0
   38.8790   23.1990   38.3970 N   0  0  0  0  0  0  0  0  0  0  0  0
   38.7909   22.8937   32.7027 H   0  0  0  0  0  0  0  0  0  0  0  0
   37.4460   22.2061   33.6180 H   0  0  0  0  0  0  0  0  0  0  0  0
   36.0627   22.4703   31.7759 H   0  0  0  0  0  0  0  0  0  0  0  0
   37.4161   23.0944   30.8396 H   0  0  0  0  0  0  0  0  0  0  0  0
   36.0968   25.1156   30.9432 H   0  0  0  0  0  0  0  0  0  0  0  0
   35.2850   24.7100   32.3981 H   0  0  0  0  0  0  0  0  0  0  0  0
   38.3765   25.4512   32.1184 H   0  0  0  0  0  0  0  0  0  0  0  0
   36.9843   26.4552   35.3235 H   0  0  0  0  0  0  0  0  0  0  0  0
   36.1661   28.9948   35.1324 H   0  0  0  0  0  0  0  0  0  0  0  0
   36.7767   27.4607   31.1733 H   0  0  0  0  0  0  0  0  0  0  0  0
   39.7064   24.2653   33.8830 H   0  0  0  0  0  0  0  0  0  0  0  0
   38.8902   25.7783   34.4545 H   0  0  0  0  0  0  0  0  0  0  0  0
   37.1228   24.2976   38.7519 H   0  0  0  0  0  0  0  0  0  0  0  0
   37.0416   25.1990   36.4349 H   0  0  0  0  0  0  0  0  0  0  0  0
   40.6566   22.1657   37.8311 H   0  0  0  0  0  0  0  0  0  0  0  0
  1 11  1  0
  2  1  1  0
  3  4  1  0
  3  2  1  0
  4  5  1  0
  5  6  1  0
  5  1  1  0
  6  7  1  0
  8  7  2  0
  9  8  1  0
 10  9  2  0
 10  6  1  0
 11 14  1  0
 12 17  2  0
 13 12  1  0
 14 15  1  0
 14 13  2  0
 15 16  2  0
 16 17  1  0
  2 18  1  0
  2 19  1  0
  3 20  1  0
  3 21  1  0
  4 22  1  0
  4 23  1  0
  5 24  1  6
  7 25  1  0
  8 26  1  0
 10 27  1  0
 11 28  1  0
 11 29  1  0
 12 30  1  0
 13 31  1  0
 16 32  1  0
M  ISO  8  18  13  19  13  20  13  21  13  22  13  23  13  24  13  25  14
M  ISO  7  26  14  27  14  28   8  29   8  30  14  31  14  32  14
M  END
>  <minimizedAffinity>  (1) 
-4.30884981

>  <minimizedRMSD>  (1) 
2.56872296

$$$$
