
     RDKit          3D

 38 40  0  0  1  0  0  0  0  0999 V2000
   38.5460   25.8530   34.3500 N   0  0  0  0  0  0  0  0  0  0  0  0
   38.1190   27.1600   33.9230 C   0  0  0  0  0  0  0  0  0  0  0  0
   38.5890   27.2930   32.5030 C   0  0  0  0  0  0  0  0  0  0  0  0
   39.2410   25.9640   32.1890 C   0  0  0  0  0  0  0  0  0  0  0  0
   38.4330   25.0570   33.1620 C   0  0  2  0  0  0  0  0  0  0  0  0
   37.6950   25.2720   35.3250 C   0  0  0  0  0  0  0  0  0  0  0  0
   40.2850   22.9480   36.8460 C   0  0  0  0  0  0  0  0  0  0  0  0
   39.6220   23.7520   35.9140 C   0  0  0  0  0  0  0  0  0  0  0  0
   38.4470   24.3980   36.2870 C   0  0  0  0  0  0  0  0  0  0  0  0
   37.9890   24.2110   37.5780 N   0  0  0  0  0  0  0  0  0  0  0  0
   38.6510   23.4340   38.4420 C   0  0  0  0  0  0  0  0  0  0  0  0
   39.7880   22.8090   38.0800 N   0  0  0  0  0  0  0  0  0  0  0  0
   37.1690   24.8710   32.7060 O   0  0  0  0  0  0  0  0  0  0  0  0
   37.1430   22.4990   32.8980 N   0  0  0  0  0  0  0  0  0  0  0  0
   36.0470   21.5970   32.6170 C   0  0  0  0  0  0  0  0  0  0  0  0
   35.5540   22.0510   31.2370 C   0  0  0  0  0  0  0  0  0  0  0  0
   35.5870   23.5490   31.4690 C   0  0  0  0  0  0  0  0  0  0  0  0
   36.9990   23.6640   32.0820 C   0  0  1  0  0  0  0  0  0  0  0  0
   37.0233   27.2420   33.9743 H   0  0  0  0  0  0  0  0  0  0  0  0
   38.5307   27.9531   34.5645 H   0  0  0  0  0  0  0  0  0  0  0  0
   37.7396   27.4775   31.8288 H   0  0  0  0  0  0  0  0  0  0  0  0
   39.2808   28.1379   32.3706 H   0  0  0  0  0  0  0  0  0  0  0  0
   39.0966   25.6723   31.1382 H   0  0  0  0  0  0  0  0  0  0  0  0
   40.3336   25.9334   32.3128 H   0  0  0  0  0  0  0  0  0  0  0  0
   38.7784   24.0218   33.2998 H   0  0  0  0  0  0  0  0  0  0  0  0
   37.2017   26.0771   35.8893 H   0  0  0  0  0  0  0  0  0  0  0  0
   36.9612   24.6426   34.8003 H   0  0  0  0  0  0  0  0  0  0  0  0
   41.2140   22.4305   36.5649 H   0  0  0  0  0  0  0  0  0  0  0  0
   40.0245   23.8727   34.8974 H   0  0  0  0  0  0  0  0  0  0  0  0
   38.2616   23.3035   39.4625 H   0  0  0  0  0  0  0  0  0  0  0  0
   37.1244   22.7678   33.8921 H   0  0  0  0  0  0  0  0  0  0  0  0
   36.3943   20.5537   32.5867 H   0  0  0  0  0  0  0  0  0  0  0  0
   35.2596   21.6275   33.3845 H   0  0  0  0  0  0  0  0  0  0  0  0
   34.5389   21.6875   31.0192 H   0  0  0  0  0  0  0  0  0  0  0  0
   36.1368   21.6875   30.3778 H   0  0  0  0  0  0  0  0  0  0  0  0
   35.4972   24.1144   30.5297 H   0  0  0  0  0  0  0  0  0  0  0  0
   34.7687   23.9518   32.0839 H   0  0  0  0  0  0  0  0  0  0  0  0
   37.8116   23.6734   31.3407 H   0  0  0  0  0  0  0  0  0  0  0  0
  1  6  1  0
  2  1  1  0
  3  2  1  0
  4  3  1  0
  4  5  1  0
  5  1  1  0
  6  9  1  0
  7 12  2  0
  8  9  2  0
  8  7  1  0
  9 10  1  0
 10 11  2  0
 12 11  1  0
 13  5  1  0
 15 14  1  0
 16 17  1  0
 16 15  1  0
 17 18  1  0
 18 13  1  0
 18 14  1  0
  2 19  1  0
  2 20  1  0
  3 21  1  0
  3 22  1  0
  4 23  1  0
  4 24  1  0
  5 25  1  1
  6 26  1  0
  6 27  1  0
  7 28  1  0
  8 29  1  0
 11 30  1  0
 14 31  1  0
 15 32  1  0
 15 33  1  0
 16 34  1  0
 16 35  1  0
 17 36  1  0
 17 37  1  0
 18 38  1  6
M  ISO  8  19  13  20  13  21  13  22  13  23  13  24  13  25  13  26   8
M  ISO  8  27   8  28  14  29  14  30  14  31   5  32  13  33  13  34  13
M  ISO  4  35  13  36  13  37  13  38  13
M  END
>  <minimizedAffinity>  (1) 
-4.33801174

>  <minimizedRMSD>  (1) 
4.58662367

$$$$
