
     RDKit          3D

 46 50  0  0  1  0  0  0  0  0999 V2000
   37.7990   25.2610   34.4110 N   0  0  0  0  0  0  0  0  0  0  0  0
   37.3000   25.3820   33.0580 C   0  0  0  0  0  0  0  0  0  0  0  0
   37.3990   26.8310   32.7220 C   0  0  0  0  0  0  0  0  0  0  0  0
   38.0110   27.4590   33.9600 C   0  0  0  0  0  0  0  0  0  0  0  0
   38.8340   26.2420   34.4800 C   0  0  2  0  0  0  0  0  0  0  0  0
   38.4060   23.9810   34.6410 C   0  0  0  0  0  0  0  0  0  0  0  0
   37.9190   23.8630   38.3960 C   0  0  0  0  0  0  0  0  0  0  0  0
   37.6570   24.1350   37.0590 C   0  0  0  0  0  0  0  0  0  0  0  0
   38.6160   23.7280   36.1020 C   0  0  0  0  0  0  0  0  0  0  0  0
   39.7360   23.0950   36.5580 N   0  0  0  0  0  0  0  0  0  0  0  0
   39.9280   22.8620   37.8740 C   0  0  0  0  0  0  0  0  0  0  0  0
   39.0160   23.2490   38.7750 N   0  0  0  0  0  0  0  0  0  0  0  0
   39.8940   25.9600   33.6630 O   0  0  0  0  0  0  0  0  0  0  0  0
   41.0690   26.5640   34.0490 C   0  0  2  0  0  0  0  0  0  0  0  0
   41.6350   27.5730   33.0860 C   0  0  0  0  0  0  0  0  0  0  0  0
   42.3470   26.2660   33.3290 C   0  0  1  0  0  0  0  0  0  0  0  0
   43.5510   26.4180   34.1170 N   0  0  0  0  0  0  0  0  0  0  0  0
   44.5390   27.3390   33.9190 C   0  0  0  0  0  0  0  0  0  0  0  0
   45.5230   27.2150   34.8270 N   0  0  0  0  0  0  0  0  0  0  0  0
   45.1960   26.1990   35.6470 C   0  0  0  0  0  0  0  0  0  0  0  0
   45.7490   25.5760   36.7440 C   0  0  0  0  0  0  0  0  0  0  0  0
   45.1650   24.5430   37.3800 N   0  0  0  0  0  0  0  0  0  0  0  0
   43.9840   24.1060   36.9110 C   0  0  0  0  0  0  0  0  0  0  0  0
   43.4440   24.7040   35.8510 N   0  0  0  0  0  0  0  0  0  0  0  0
   43.9840   25.7290   35.1890 C   0  0  0  0  0  0  0  0  0  0  0  0
   47.0040   26.0600   37.2210 N   0  0  0  0  0  0  0  0  0  0  0  0
   37.9139   24.7850   32.3676 H   0  0  0  0  0  0  0  0  0  0  0  0
   36.2672   25.0137   32.9708 H   0  0  0  0  0  0  0  0  0  0  0  0
   38.0461   26.9850   31.8459 H   0  0  0  0  0  0  0  0  0  0  0  0
   36.4245   27.2713   32.4640 H   0  0  0  0  0  0  0  0  0  0  0  0
   38.6555   28.3149   33.7110 H   0  0  0  0  0  0  0  0  0  0  0  0
   37.2917   27.8808   34.6774 H   0  0  0  0  0  0  0  0  0  0  0  0
   39.3139   26.3549   35.4633 H   0  0  0  0  0  0  0  0  0  0  0  0
   37.7518   23.1966   34.2328 H   0  0  0  0  0  0  0  0  0  0  0  0
   39.3874   23.9700   34.1442 H   0  0  0  0  0  0  0  0  0  0  0  0
   37.1875   24.1704   39.1578 H   0  0  0  0  0  0  0  0  0  0  0  0
   36.7340   24.6500   36.7545 H   0  0  0  0  0  0  0  0  0  0  0  0
   40.8419   22.3496   38.2091 H   0  0  0  0  0  0  0  0  0  0  0  0
   40.7839   26.5394   35.1111 H   0  0  0  0  0  0  0  0  0  0  0  0
   42.0649   28.5131   33.4621 H   0  0  0  0  0  0  0  0  0  0  0  0
   41.2571   28.1026   32.1990 H   0  0  0  0  0  0  0  0  0  0  0  0
   42.7005   25.4280   32.7103 H   0  0  0  0  0  0  0  0  0  0  0  0
   44.5311   28.0902   33.1155 H   0  0  0  0  0  0  0  0  0  0  0  0
   43.4694   23.2641   37.3971 H   0  0  0  0  0  0  0  0  0  0  0  0
   47.4486   25.6195   38.0390 H   0  0  0  0  0  0  0  0  0  0  0  0
   47.4651   26.8498   36.7473 H   0  0  0  0  0  0  0  0  0  0  0  0
  1  5  1  0
  1  6  1  0
  2  1  1  0
  3  2  1  0
  3  4  1  0
  4  5  1  0
  6  9  1  0
  7 12  2  0
  8  7  1  0
  9 10  1  0
  9  8  2  0
 10 11  2  0
 11 12  1  0
 13 14  1  0
 13  5  1  0
 15 16  1  0
 15 14  1  0
 16 14  1  0
 16 17  1  0
 17 25  1  0
 18 17  1  0
 18 19  2  0
 19 20  1  0
 20 21  2  0
 21 26  1  0
 21 22  1  0
 23 22  2  0
 24 23  1  0
 25 20  1  0
 25 24  2  0
  2 27  1  0
  2 28  1  0
  3 29  1  0
  3 30  1  0
  4 31  1  0
  4 32  1  0
  5 33  1  1
  6 34  1  0
  6 35  1  0
  7 36  1  0
  8 37  1  0
 11 38  1  0
 14 39  1  1
 15 40  1  0
 15 41  1  0
 16 42  1  6
 18 43  1  0
 23 44  1  0
 26 45  1  0
 26 46  1  0
M  ISO  8  27  13  28  13  29  13  30  13  31  13  32  13  33  13  34   8
M  ISO  8  35   8  36  14  37  14  38  14  39  13  40  13  41  13  42  13
M  ISO  2  43  14  44  14
M  END
>  <minimizedAffinity>  (1) 
-5.32153511

>  <minimizedRMSD>  (1) 
1.3064431

$$$$
