
     RDKit          3D

 46 49  0  0  1  0  0  0  0  0999 V2000
   37.6070   25.5180   34.2260 N   0  0  0  0  0  0  0  0  0  0  0  0
   37.0610   25.5290   32.8850 C   0  0  0  0  0  0  0  0  0  0  0  0
   36.7560   26.9580   32.5880 C   0  0  0  0  0  0  0  0  0  0  0  0
   37.2020   27.7010   33.8360 C   0  0  0  0  0  0  0  0  0  0  0  0
   38.3360   26.7430   34.3090 C   0  0  2  0  0  0  0  0  0  0  0  0
   38.5430   24.4480   34.4060 C   0  0  0  0  0  0  0  0  0  0  0  0
   37.8550   24.0830   38.1160 C   0  0  0  0  0  0  0  0  0  0  0  0
   37.7120   24.5010   36.7900 C   0  0  0  0  0  0  0  0  0  0  0  0
   38.6440   24.0390   35.8370 C   0  0  0  0  0  0  0  0  0  0  0  0
   39.6320   23.2050   36.2850 N   0  0  0  0  0  0  0  0  0  0  0  0
   39.7220   22.8360   37.5710 C   0  0  0  0  0  0  0  0  0  0  0  0
   38.8330   23.2770   38.4720 N   0  0  0  0  0  0  0  0  0  0  0  0
   39.4130   26.7900   33.4780 O   0  0  0  0  0  0  0  0  0  0  0  0
   40.6320   26.8820   34.0890 C   0  0  2  0  0  0  0  0  0  0  0  0
   41.6780   27.6120   33.2780 C   0  0  0  0  0  0  0  0  0  0  0  0
   41.8180   26.1550   33.5440 C   0  0  1  0  0  0  0  0  0  0  0  0
   42.9010   25.7160   34.3810 N   0  0  0  0  0  0  0  0  0  0  0  0
   42.6680   24.5630   35.0760 C   0  0  0  0  0  0  0  0  0  0  0  0
   43.6000   24.0040   35.9230 C   0  0  0  0  0  0  0  0  0  0  0  0
   43.3000   22.7340   36.6670 C   0  0  0  0  0  0  0  0  0  0  0  0
   44.7980   24.6360   36.0650 C   0  0  0  0  0  0  0  0  0  0  0  0
   45.6690   24.1560   36.8280 O   0  0  0  0  0  0  0  0  0  0  0  0
   45.0290   25.7740   35.3790 N   0  0  0  0  0  0  0  0  0  0  0  0
   44.1010   26.3000   34.5580 C   0  0  0  0  0  0  0  0  0  0  0  0
   44.2830   27.3490   33.9120 O   0  0  0  0  0  0  0  0  0  0  0  0
   37.7966   25.1363   32.1677 H   0  0  0  0  0  0  0  0  0  0  0  0
   36.1646   24.8964   32.8053 H   0  0  0  0  0  0  0  0  0  0  0  0
   37.3181   27.3021   31.7073 H   0  0  0  0  0  0  0  0  0  0  0  0
   35.6934   27.1229   32.3564 H   0  0  0  0  0  0  0  0  0  0  0  0
   37.5838   28.7057   33.6018 H   0  0  0  0  0  0  0  0  0  0  0  0
   36.4110   27.8939   34.5757 H   0  0  0  0  0  0  0  0  0  0  0  0
   38.7871   26.9533   35.2899 H   0  0  0  0  0  0  0  0  0  0  0  0
   38.2151   23.5834   33.8103 H   0  0  0  0  0  0  0  0  0  0  0  0
   39.5328   24.7992   34.0788 H   0  0  0  0  0  0  0  0  0  0  0  0
   37.1390   24.4331   38.8741 H   0  0  0  0  0  0  0  0  0  0  0  0
   36.8927   25.1738   36.4966 H   0  0  0  0  0  0  0  0  0  0  0  0
   40.5332   22.1649   37.8896 H   0  0  0  0  0  0  0  0  0  0  0  0
   40.1891   26.9349   35.0945 H   0  0  0  0  0  0  0  0  0  0  0  0
   42.3535   28.3287   33.7680 H   0  0  0  0  0  0  0  0  0  0  0  0
   41.6654   28.2419   32.3763 H   0  0  0  0  0  0  0  0  0  0  0  0
   41.9238   25.2420   32.9396 H   0  0  0  0  0  0  0  0  0  0  0  0
   41.6970   24.0606   34.9544 H   0  0  0  0  0  0  0  0  0  0  0  0
   43.3449   22.9239   37.7496 H   0  0  0  0  0  0  0  0  0  0  0  0
   42.2936   22.3805   36.3981 H   0  0  0  0  0  0  0  0  0  0  0  0
   44.0418   21.9676   36.3981 H   0  0  0  0  0  0  0  0  0  0  0  0
   45.9356   26.2511   35.4857 H   0  0  0  0  0  0  0  0  0  0  0  0
  1  5  1  0
  1  6  1  0
  2  1  1  0
  3  2  1  0
  3  4  1  0
  4  5  1  0
  6  9  1  0
  7 12  2  0
  8  7  1  0
  9 10  1  0
  9  8  2  0
 10 11  2  0
 11 12  1  0
 13 14  1  0
 13  5  1  0
 15 16  1  0
 15 14  1  0
 16 14  1  0
 16 17  1  0
 17 24  1  0
 17 18  1  0
 18 19  2  0
 19 21  1  0
 19 20  1  0
 21 22  2  0
 23 21  1  0
 24 23  1  0
 25 24  2  0
  2 26  1  0
  2 27  1  0
  3 28  1  0
  3 29  1  0
  4 30  1  0
  4 31  1  0
  5 32  1  1
  6 33  1  0
  6 34  1  0
  7 35  1  0
  8 36  1  0
 11 37  1  0
 14 38  1  1
 15 39  1  0
 15 40  1  0
 16 41  1  6
 18 42  1  0
 20 43  1  0
 20 44  1  0
 20 45  1  0
 23 46  1  0
M  ISO  8  26  13  27  13  28  13  29  13  30  13  31  13  32  13  33   8
M  ISO  8  34   8  35  14  36  14  37  14  38  13  39  13  40  13  41  13
M  ISO  5  42  14  43   8  44   8  45   8  46   9
M  END
>  <minimizedAffinity>  (1) 
-5.18963623

>  <minimizedRMSD>  (1) 
1.28264868

$$$$
