
     RDKit          3D

 42 45  0  0  1  0  0  0  0  0999 V2000
   37.8250   25.2460   34.2650 N   0  0  0  0  0  0  0  0  0  0  0  0
   37.2170   25.1270   32.9530 C   0  0  0  0  0  0  0  0  0  0  0  0
   37.0630   26.5250   32.4570 C   0  0  0  0  0  0  0  0  0  0  0  0
   37.6740   27.3780   33.5570 C   0  0  0  0  0  0  0  0  0  0  0  0
   38.7060   26.3560   34.1210 C   0  0  2  0  0  0  0  0  0  0  0  0
   38.6220   24.1010   34.5780 C   0  0  0  0  0  0  0  0  0  0  0  0
   37.9180   24.1790   38.2850 C   0  0  0  0  0  0  0  0  0  0  0  0
   37.7920   24.4440   36.9220 C   0  0  0  0  0  0  0  0  0  0  0  0
   38.7210   23.8520   36.0310 C   0  0  0  0  0  0  0  0  0  0  0  0
   39.6870   23.0550   36.5790 N   0  0  0  0  0  0  0  0  0  0  0  0
   39.7540   22.8390   37.9080 C   0  0  0  0  0  0  0  0  0  0  0  0
   38.8700   23.4030   38.7460 N   0  0  0  0  0  0  0  0  0  0  0  0
   39.7250   26.1170   33.2340 O   0  0  0  0  0  0  0  0  0  0  0  0
   40.4900   27.2200   32.9700 C   0  0  2  0  0  0  0  0  0  0  0  0
   41.6060   27.0470   31.9920 C   0  0  0  0  0  0  0  0  0  0  0  0
   41.8790   27.3760   33.4290 C   0  0  2  0  0  0  0  0  0  0  0  0
   42.6680   26.4390   34.2260 C   0  0  0  0  0  0  0  0  0  0  0  0
   42.1560   25.3360   34.9200 C   0  0  0  0  0  0  0  0  0  0  0  0
   42.8560   24.4380   35.6750 C   0  0  0  0  0  0  0  0  0  0  0  0
   44.2170   24.6200   35.7770 C   0  0  0  0  0  0  0  0  0  0  0  0
   44.7590   25.6970   35.1090 C   0  0  0  0  0  0  0  0  0  0  0  0
   44.0210   26.5500   34.3780 N   0  0  0  0  0  0  0  0  0  0  0  0
   37.8668   24.5494   32.2791 H   0  0  0  0  0  0  0  0  0  0  0  0
   36.2520   24.6008   32.9966 H   0  0  0  0  0  0  0  0  0  0  0  0
   37.6031   26.6647   31.5090 H   0  0  0  0  0  0  0  0  0  0  0  0
   36.0145   26.7873   32.2525 H   0  0  0  0  0  0  0  0  0  0  0  0
   38.1631   28.2781   33.1561 H   0  0  0  0  0  0  0  0  0  0  0  0
   36.9610   27.7813   34.2912 H   0  0  0  0  0  0  0  0  0  0  0  0
   39.2460   26.6546   35.0316 H   0  0  0  0  0  0  0  0  0  0  0  0
   38.1721   23.2183   34.1000 H   0  0  0  0  0  0  0  0  0  0  0  0
   39.6388   24.2933   34.2050 H   0  0  0  0  0  0  0  0  0  0  0  0
   37.2036   24.6304   38.9892 H   0  0  0  0  0  0  0  0  0  0  0  0
   36.9903   25.0973   36.5472 H   0  0  0  0  0  0  0  0  0  0  0  0
   40.5454   22.1905   38.3120 H   0  0  0  0  0  0  0  0  0  0  0  0
   39.6028   27.8596   33.0873 H   0  0  0  0  0  0  0  0  0  0  0  0
   41.8463   26.0485   31.5979 H   0  0  0  0  0  0  0  0  0  0  0  0
   41.8740   27.4898   31.0214 H   0  0  0  0  0  0  0  0  0  0  0  0
   42.3592   28.1677   34.0229 H   0  0  0  0  0  0  0  0  0  0  0  0
   41.0702   25.1747   34.8495 H   0  0  0  0  0  0  0  0  0  0  0  0
   42.3518   23.6019   36.1818 H   0  0  0  0  0  0  0  0  0  0  0  0
   44.8448   23.9354   36.3662 H   0  0  0  0  0  0  0  0  0  0  0  0
   45.8438   25.8659   35.1772 H   0  0  0  0  0  0  0  0  0  0  0  0
  1  6  1  0
  2  1  1  0
  3  2  1  0
  3  4  1  0
  4  5  1  0
  5  1  1  0
  6  9  1  0
  7 12  2  0
  8  7  1  0
  9 10  1  0
  9  8  2  0
 10 11  2  0
 11 12  1  0
 13  5  1  0
 14 13  1  0
 14 16  1  0
 15 14  1  0
 15 16  1  0
 16 17  1  0
 17 22  1  0
 17 18  2  0
 18 19  1  0
 19 20  2  0
 21 20  1  0
 22 21  2  0
  2 23  1  0
  2 24  1  0
  3 25  1  0
  3 26  1  0
  4 27  1  0
  4 28  1  0
  5 29  1  1
  6 30  1  0
  6 31  1  0
  7 32  1  0
  8 33  1  0
 11 34  1  0
 14 35  1  6
 15 36  1  0
 15 37  1  0
 16 38  1  6
 18 39  1  0
 19 40  1  0
 20 41  1  0
 21 42  1  0
M  ISO  8  23  13  24  13  25  13  26  13  27  13  28  13  29  13  30   8
M  ISO  8  31   8  32  14  33  14  34  14  35  13  36  13  37  13  38  13
M  ISO  4  39  14  40  14  41  14  42  14
M  END
>  <minimizedAffinity>  (1) 
-4.65839481

>  <minimizedRMSD>  (1) 
1.55595887

$$$$
