
     RDKit          3D

 46 49  0  0  1  0  0  0  0  0999 V2000
   37.6510   25.4690   34.5640 N   0  0  0  0  0  0  0  0  0  0  0  0
   37.2010   25.7240   33.2120 C   0  0  0  0  0  0  0  0  0  0  0  0
   37.2870   27.1990   33.0310 C   0  0  0  0  0  0  0  0  0  0  0  0
   37.8390   27.7060   34.3540 C   0  0  0  0  0  0  0  0  0  0  0  0
   38.6600   26.4550   34.7770 C   0  0  2  0  0  0  0  0  0  0  0  0
   38.2690   24.1790   34.6820 C   0  0  0  0  0  0  0  0  0  0  0  0
   37.9330   23.8240   38.4410 C   0  0  0  0  0  0  0  0  0  0  0  0
   37.6240   24.1810   37.1320 C   0  0  0  0  0  0  0  0  0  0  0  0
   38.5390   23.8290   36.1150 C   0  0  0  0  0  0  0  0  0  0  0  0
   39.6690   23.1590   36.4860 N   0  0  0  0  0  0  0  0  0  0  0  0
   39.9100   22.8420   37.7740 C   0  0  0  0  0  0  0  0  0  0  0  0
   39.0410   23.1780   38.7330 N   0  0  0  0  0  0  0  0  0  0  0  0
   39.7580   26.2690   33.9810 O   0  0  0  0  0  0  0  0  0  0  0  0
   40.9510   26.5900   34.5770 C   0  0  2  0  0  0  0  0  0  0  0  0
   41.9910   27.1800   33.6770 C   0  0  0  0  0  0  0  0  0  0  0  0
   42.1970   25.8240   34.2520 C   0  0  1  0  0  0  0  0  0  0  0  0
   43.0660   25.5660   35.3400 N   0  0  0  0  0  0  0  0  0  0  0  0
   44.4250   26.0050   35.1480 C   0  0  0  0  0  0  0  0  0  0  0  0
   45.2270   24.8060   34.7450 C   0  0  0  0  0  0  0  0  0  0  0  0
   45.4280   24.0040   35.8770 O   0  0  0  0  0  0  0  0  0  0  0  0
   44.2720   23.9890   36.6620 C   0  0  0  0  0  0  0  0  0  0  0  0
   43.0200   24.2150   35.8390 C   0  0  0  0  0  0  0  0  0  0  0  0
   37.8506   25.2101   32.4881 H   0  0  0  0  0  0  0  0  0  0  0  0
   36.1784   25.3534   33.0475 H   0  0  0  0  0  0  0  0  0  0  0  0
   37.9655   27.4515   32.2028 H   0  0  0  0  0  0  0  0  0  0  0  0
   36.3157   27.6498   32.7794 H   0  0  0  0  0  0  0  0  0  0  0  0
   38.4776   28.5917   34.2211 H   0  0  0  0  0  0  0  0  0  0  0  0
   37.0851   28.0425   35.0809 H   0  0  0  0  0  0  0  0  0  0  0  0
   39.0960   26.4776   35.7866 H   0  0  0  0  0  0  0  0  0  0  0  0
   37.6000   23.4210   34.2487 H   0  0  0  0  0  0  0  0  0  0  0  0
   39.2292   24.2055   34.1460 H   0  0  0  0  0  0  0  0  0  0  0  0
   37.2353   24.0878   39.2494 H   0  0  0  0  0  0  0  0  0  0  0  0
   36.6951   24.7211   36.8963 H   0  0  0  0  0  0  0  0  0  0  0  0
   40.8308   22.3015   38.0386 H   0  0  0  0  0  0  0  0  0  0  0  0
   40.4553   26.8549   35.5226 H   0  0  0  0  0  0  0  0  0  0  0  0
   42.6047   28.0236   34.0259 H   0  0  0  0  0  0  0  0  0  0  0  0
   41.9898   27.6000   32.6603 H   0  0  0  0  0  0  0  0  0  0  0  0
   42.4726   24.8648   33.7893 H   0  0  0  0  0  0  0  0  0  0  0  0
   44.4659   26.7685   34.3572 H   0  0  0  0  0  0  0  0  0  0  0  0
   44.8252   26.4491   36.0714 H   0  0  0  0  0  0  0  0  0  0  0  0
   44.6820   24.2357   33.9783 H   0  0  0  0  0  0  0  0  0  0  0  0
   46.1956   25.1225   34.3307 H   0  0  0  0  0  0  0  0  0  0  0  0
   44.1959   23.0123   37.1623 H   0  0  0  0  0  0  0  0  0  0  0  0
   44.3487   24.8075   37.3929 H   0  0  0  0  0  0  0  0  0  0  0  0
   42.1278   24.0772   36.4675 H   0  0  0  0  0  0  0  0  0  0  0  0
   42.9690   23.4970   35.0072 H   0  0  0  0  0  0  0  0  0  0  0  0
  1  6  1  0
  1  5  1  0
  2  1  1  0
  3  2  1  0
  3  4  1  0
  4  5  1  0
  6  9  1  0
  7 12  2  0
  8  7  1  0
  9 10  1  0
  9  8  2  0
 10 11  2  0
 11 12  1  0
 13 14  1  0
 13  5  1  0
 15 16  1  0
 15 14  1  0
 16 14  1  0
 16 17  1  0
 17 22  1  0
 18 17  1  0
 19 18  1  0
 19 20  1  0
 20 21  1  0
 22 21  1  0
  2 23  1  0
  2 24  1  0
  3 25  1  0
  3 26  1  0
  4 27  1  0
  4 28  1  0
  5 29  1  1
  6 30  1  0
  6 31  1  0
  7 32  1  0
  8 33  1  0
 11 34  1  0
 14 35  1  1
 15 36  1  0
 15 37  1  0
 16 38  1  6
 18 39  1  0
 18 40  1  0
 19 41  1  0
 19 42  1  0
 21 43  1  0
 21 44  1  0
 22 45  1  0
 22 46  1  0
M  ISO  8  23  13  24  13  25  13  26  13  27  13  28  13  29  13  30   8
M  ISO  8  31   8  32  14  33  14  34  14  35  13  36  13  37  13  38  13
M  ISO  8  39  13  40  13  41  13  42  13  43  13  44  13  45  13  46  13
M  END
>  <minimizedAffinity>  (1) 
-4.60465574

>  <minimizedRMSD>  (1) 
1.05580115

$$$$
