
     RDKit          3D

 45 48  0  0  1  0  0  0  0  0999 V2000
   37.7130   25.3450   34.3300 N   0  0  0  0  0  0  0  0  0  0  0  0
   37.1240   25.3020   33.0040 C   0  0  0  0  0  0  0  0  0  0  0  0
   36.8700   26.7270   32.6480 C   0  0  0  0  0  0  0  0  0  0  0  0
   37.4370   27.5200   33.8010 C   0  0  0  0  0  0  0  0  0  0  0  0
   38.5230   26.5150   34.2900 C   0  0  2  0  0  0  0  0  0  0  0  0
   38.5870   24.2300   34.5540 C   0  0  0  0  0  0  0  0  0  0  0  0
   37.8470   23.9820   38.2630 C   0  0  0  0  0  0  0  0  0  0  0  0
   37.6950   24.3240   36.9250 C   0  0  0  0  0  0  0  0  0  0  0  0
   38.6890   23.8930   36.0100 C   0  0  0  0  0  0  0  0  0  0  0  0
   39.7320   23.1690   36.5090 N   0  0  0  0  0  0  0  0  0  0  0  0
   39.8170   22.8710   37.8220 C   0  0  0  0  0  0  0  0  0  0  0  0
   38.8770   23.2800   38.6810 N   0  0  0  0  0  0  0  0  0  0  0  0
   39.5600   26.4190   33.4040 O   0  0  0  0  0  0  0  0  0  0  0  0
   40.6510   27.1860   33.7340 C   0  0  2  0  0  0  0  0  0  0  0  0
   41.8690   26.9910   32.8840 C   0  0  0  0  0  0  0  0  0  0  0  0
   41.8720   26.6250   34.3410 C   0  0  2  0  0  0  0  0  0  0  0  0
   42.0840   25.2860   34.7570 N   0  0  0  0  0  0  0  0  0  0  0  0
   42.4040   24.3300   33.7480 C   0  0  0  0  0  0  0  0  0  0  0  0
   42.7280   23.1150   34.6230 C   0  0  0  0  0  0  0  0  0  0  0  0
   43.2800   23.7100   35.9250 C   0  0  0  0  0  0  0  0  0  0  0  0
   43.2610   25.1880   35.6030 C   0  0  0  0  0  0  0  0  0  0  0  0
   37.8198   24.8425   32.2866 H   0  0  0  0  0  0  0  0  0  0  0  0
   36.2037   24.6999   32.9801 H   0  0  0  0  0  0  0  0  0  0  0  0
   37.3806   26.9888   31.7095 H   0  0  0  0  0  0  0  0  0  0  0  0
   35.8007   26.9311   32.4900 H   0  0  0  0  0  0  0  0  0  0  0  0
   37.8776   28.4714   33.4682 H   0  0  0  0  0  0  0  0  0  0  0  0
   36.7061   27.8290   34.5628 H   0  0  0  0  0  0  0  0  0  0  0  0
   39.0346   26.7642   35.2313 H   0  0  0  0  0  0  0  0  0  0  0  0
   38.1968   23.3560   34.0118 H   0  0  0  0  0  0  0  0  0  0  0  0
   39.5899   24.5010   34.1925 H   0  0  0  0  0  0  0  0  0  0  0  0
   37.0876   24.3062   38.9898 H   0  0  0  0  0  0  0  0  0  0  0  0
   36.8293   24.9117   36.5855 H   0  0  0  0  0  0  0  0  0  0  0  0
   40.6708   22.2838   38.1910 H   0  0  0  0  0  0  0  0  0  0  0  0
   39.9949   28.0139   34.0407 H   0  0  0  0  0  0  0  0  0  0  0  0
   41.8872   26.2038   32.1159 H   0  0  0  0  0  0  0  0  0  0  0  0
   42.4835   27.6323   32.2351 H   0  0  0  0  0  0  0  0  0  0  0  0
   42.4380   26.8912   35.2459 H   0  0  0  0  0  0  0  0  0  0  0  0
   41.5493   24.1374   33.0829 H   0  0  0  0  0  0  0  0  0  0  0  0
   43.2083   24.6335   33.0617 H   0  0  0  0  0  0  0  0  0  0  0  0
   41.8204   22.5255   34.8199 H   0  0  0  0  0  0  0  0  0  0  0  0
   43.4436   22.4330   34.1404 H   0  0  0  0  0  0  0  0  0  0  0  0
   42.6316   23.4757   36.7821 H   0  0  0  0  0  0  0  0  0  0  0  0
   44.2682   23.3235   36.2150 H   0  0  0  0  0  0  0  0  0  0  0  0
   44.1698   25.4933   35.0637 H   0  0  0  0  0  0  0  0  0  0  0  0
   43.2315   25.8393   36.4890 H   0  0  0  0  0  0  0  0  0  0  0  0
  1  6  1  0
  2  1  1  0
  3  2  1  0
  3  4  1  0
  4  5  1  0
  5  1  1  0
  6  9  1  0
  7 12  2  0
  8  7  1  0
  9 10  1  0
  9  8  2  0
 10 11  2  0
 11 12  1  0
 13 14  1  0
 13  5  1  0
 14 16  1  0
 15 14  1  0
 15 16  1  0
 16 17  1  0
 17 18  1  0
 17 21  1  0
 18 19  1  0
 19 20  1  0
 21 20  1  0
  2 22  1  0
  2 23  1  0
  3 24  1  0
  3 25  1  0
  4 26  1  0
  4 27  1  0
  5 28  1  1
  6 29  1  0
  6 30  1  0
  7 31  1  0
  8 32  1  0
 11 33  1  0
 14 34  1  1
 15 35  1  0
 15 36  1  0
 16 37  1  1
 18 38  1  0
 18 39  1  0
 19 40  1  0
 19 41  1  0
 20 42  1  0
 20 43  1  0
 21 44  1  0
 21 45  1  0
M  ISO  8  22  13  23  13  24  13  25  13  26  13  27  13  28  13  29   8
M  ISO  8  30   8  31  14  32  14  33  14  34  13  35  13  36  13  37  13
M  ISO  8  38  13  39  13  40  13  41  13  42  13  43  13  44  13  45  13
M  END
>  <minimizedAffinity>  (1) 
-4.35516405

>  <minimizedRMSD>  (1) 
0.903712153

$$$$
