
     RDKit          3D

 27 28  0  0  1  0  0  0  0  0999 V2000
   38.2130   24.3200   36.8730 C   0  0  1  0  0  0  0  0  0  0  0  0
   41.0460   21.8660   37.4900 C   0  0  0  0  0  0  0  0  0  0  0  0
   39.9800   22.7600   37.7300 C   0  0  0  0  0  0  0  0  0  0  0  0
   39.3150   23.3710   36.6330 C   0  0  0  0  0  0  0  0  0  0  0  0
   39.7660   23.0390   35.3990 N   0  0  0  0  0  0  0  0  0  0  0  0
   40.7740   22.1940   35.1780 C   0  0  0  0  0  0  0  0  0  0  0  0
   41.4170   21.6050   36.2300 N   0  0  0  0  0  0  0  0  0  0  0  0
   37.8180   24.3930   38.3330 C   0  0  0  0  0  0  0  0  0  0  0  0
   38.4960   25.6920   36.3570 C   0  0  0  0  0  0  0  0  0  0  0  0
   37.8780   25.9080   35.0440 C   0  0  0  0  0  0  0  0  0  0  0  0
   37.3970   27.2280   35.0590 C   0  0  0  0  0  0  0  0  0  0  0  0
   36.7340   27.8310   33.9830 C   0  0  0  0  0  0  0  0  0  0  0  0
   36.5390   27.1140   32.8590 N   0  0  0  0  0  0  0  0  0  0  0  0
   37.0090   25.8370   32.8580 C   0  0  0  0  0  0  0  0  0  0  0  0
   37.6290   25.3040   33.8890 N   0  0  0  0  0  0  0  0  0  0  0  0
   37.3650   23.9145   36.3016 H   0  0  0  0  0  0  0  0  0  0  0  0
   41.5679   21.3874   38.3317 H   0  0  0  0  0  0  0  0  0  0  0  0
   39.6660   22.9823   38.7605 H   0  0  0  0  0  0  0  0  0  0  0  0
   41.0881   21.9710   34.1476 H   0  0  0  0  0  0  0  0  0  0  0  0
   38.7056   24.2290   38.9616 H   0  0  0  0  0  0  0  0  0  0  0  0
   37.3939   25.3847   38.5490 H   0  0  0  0  0  0  0  0  0  0  0  0
   37.0675   23.6183   38.5490 H   0  0  0  0  0  0  0  0  0  0  0  0
   38.0959   26.4309   37.0668 H   0  0  0  0  0  0  0  0  0  0  0  0
   39.5850   25.8038   36.2497 H   0  0  0  0  0  0  0  0  0  0  0  0
   37.5505   27.8237   35.9709 H   0  0  0  0  0  0  0  0  0  0  0  0
   36.3793   28.8698   34.0540 H   0  0  0  0  0  0  0  0  0  0  0  0
   36.8644   25.2238   31.9563 H   0  0  0  0  0  0  0  0  0  0  0  0
  1  8  1  0
  2  3  2  0
  4  1  1  0
  4  3  1  0
  5  4  2  0
  6  5  1  0
  6  7  2  0
  7  2  1  0
  9  1  1  0
 10 11  2  0
 10  9  1  0
 12 11  1  0
 13 12  2  0
 14 13  1  0
 14 15  2  0
 15 10  1  0
  1 16  1  6
  2 17  1  0
  3 18  1  0
  6 19  1  0
  8 20  1  0
  8 21  1  0
  8 22  1  0
  9 23  1  0
  9 24  1  0
 11 25  1  0
 12 26  1  0
 14 27  1  0
M  ISO  8  16   8  17  14  18  14  19  14  20   8  21   8  22   8  23   8
M  ISO  4  24   8  25  14  26  14  27  14
M  END
>  <minimizedAffinity>  (1) 
-4.21716976

>  <minimizedRMSD>  (1) 
0.866697848

$$$$
