
     RDKit          3D

 35 36  0  0  1  0  0  0  0  0999 V2000
   38.2260   24.3200   36.8200 C   0  0  1  0  0  0  0  0  0  0  0  0
   41.0300   21.8580   37.4640 C   0  0  0  0  0  0  0  0  0  0  0  0
   39.9750   22.7440   37.7340 C   0  0  0  0  0  0  0  0  0  0  0  0
   39.3420   23.3610   36.6210 C   0  0  0  0  0  0  0  0  0  0  0  0
   39.7930   23.0600   35.3600 N   0  0  0  0  0  0  0  0  0  0  0  0
   40.8020   22.2100   35.1490 C   0  0  0  0  0  0  0  0  0  0  0  0
   41.4280   21.6030   36.1990 N   0  0  0  0  0  0  0  0  0  0  0  0
   37.9030   24.4880   38.2940 C   0  0  0  0  0  0  0  0  0  0  0  0
   38.4380   25.6460   36.1930 C   0  0  0  0  0  0  0  0  0  0  0  0
   37.3680   26.1030   35.2450 C   0  0  0  0  0  0  0  0  0  0  0  0
   37.3530   27.6150   35.1100 C   0  0  0  0  0  0  0  0  0  0  0  0
   36.6790   27.9780   33.8040 C   0  0  0  0  0  0  0  0  0  0  0  0
   37.5550   27.6490   32.6170 C   0  0  0  0  0  0  0  0  0  0  0  0
   38.4710   26.5110   33.0420 C   0  0  0  0  0  0  0  0  0  0  0  0
   37.6190   25.5240   33.8440 C   0  0  0  0  0  0  0  0  0  0  0  0
   37.3686   23.8680   36.2998 H   0  0  0  0  0  0  0  0  0  0  0  0
   41.5432   21.3611   38.3004 H   0  0  0  0  0  0  0  0  0  0  0  0
   39.6516   22.9521   38.7646 H   0  0  0  0  0  0  0  0  0  0  0  0
   41.1308   21.9977   34.1210 H   0  0  0  0  0  0  0  0  0  0  0  0
   38.7182   24.0640   38.8987 H   0  0  0  0  0  0  0  0  0  0  0  0
   37.7928   25.5577   38.5256 H   0  0  0  0  0  0  0  0  0  0  0  0
   36.9639   23.9641   38.5256 H   0  0  0  0  0  0  0  0  0  0  0  0
   38.5148   26.3910   36.9986 H   0  0  0  0  0  0  0  0  0  0  0  0
   39.3496   25.5450   35.5857 H   0  0  0  0  0  0  0  0  0  0  0  0
   36.4081   25.7544   35.6538 H   0  0  0  0  0  0  0  0  0  0  0  0
   36.7957   28.0562   35.9495 H   0  0  0  0  0  0  0  0  0  0  0  0
   38.3822   28.0030   35.1216 H   0  0  0  0  0  0  0  0  0  0  0  0
   35.7373   27.4158   33.7197 H   0  0  0  0  0  0  0  0  0  0  0  0
   36.4903   29.0617   33.8032 H   0  0  0  0  0  0  0  0  0  0  0  0
   38.1518   28.5282   32.3327 H   0  0  0  0  0  0  0  0  0  0  0  0
   36.9460   27.3591   31.7481 H   0  0  0  0  0  0  0  0  0  0  0  0
   38.8911   26.0134   32.1555 H   0  0  0  0  0  0  0  0  0  0  0  0
   39.3087   26.8875   33.6474 H   0  0  0  0  0  0  0  0  0  0  0  0
   36.6580   25.3661   33.3326 H   0  0  0  0  0  0  0  0  0  0  0  0
   38.1454   24.5619   33.9284 H   0  0  0  0  0  0  0  0  0  0  0  0
  1  8  1  0
  2  3  2  0
  4  1  1  0
  4  3  1  0
  5  4  2  0
  6  5  1  0
  6  7  2  0
  7  2  1  0
  9  1  1  0
 10  9  1  0
 11 10  1  0
 12 11  1  0
 13 14  1  0
 13 12  1  0
 14 15  1  0
 15 10  1  0
  1 16  1  6
  2 17  1  0
  3 18  1  0
  6 19  1  0
  8 20  1  0
  8 21  1  0
  8 22  1  0
  9 23  1  0
  9 24  1  0
 10 25  1  0
 11 26  1  0
 11 27  1  0
 12 28  1  0
 12 29  1  0
 13 30  1  0
 13 31  1  0
 14 32  1  0
 14 33  1  0
 15 34  1  0
 15 35  1  0
M  ISO  8  16   8  17  14  18  14  19  14  20   8  21   8  22   8  23   8
M  ISO  8  24   8  25  13  26  13  27  13  28  13  29  13  30  13  31  13
M  ISO  4  32  13  33  13  34  13  35  13
M  END
>  <minimizedAffinity>  (1) 
-4.47012234

>  <minimizedRMSD>  (1) 
1.22950113

$$$$
