
     RDKit          3D

 26 27  0  0  1  0  0  0  0  0999 V2000
   37.9020   24.6320   36.8610 C   0  0  1  0  0  0  0  0  0  0  0  0
   40.6640   22.4990   35.4390 C   0  0  0  0  0  0  0  0  0  0  0  0
   39.9670   23.4100   36.2550 C   0  0  0  0  0  0  0  0  0  0  0  0
   38.6060   23.6950   35.9890 C   0  0  0  0  0  0  0  0  0  0  0  0
   38.0110   23.0700   34.9350 N   0  0  0  0  0  0  0  0  0  0  0  0
   38.7140   22.1920   34.1620 C   0  0  0  0  0  0  0  0  0  0  0  0
   40.0290   21.9040   34.4040 N   0  0  0  0  0  0  0  0  0  0  0  0
   37.9550   24.2690   38.3210 C   0  0  0  0  0  0  0  0  0  0  0  0
   38.3300   26.0680   36.6540 C   0  0  0  0  0  0  0  0  0  0  0  0
   38.1170   26.5540   35.3210 N   0  0  0  0  0  0  0  0  0  0  0  0
   39.0650   26.7130   34.4280 N   0  0  0  0  0  0  0  0  0  0  0  0
   38.5610   27.1860   33.2660 C   0  0  0  0  0  0  0  0  0  0  0  0
   37.2110   27.3280   33.4500 C   0  0  0  0  0  0  0  0  0  0  0  0
   36.9520   26.9230   34.7570 C   0  0  0  0  0  0  0  0  0  0  0  0
   36.8503   24.5442   36.5507 H   0  0  0  0  0  0  0  0  0  0  0  0
   41.7209   22.2721   35.6425 H   0  0  0  0  0  0  0  0  0  0  0  0
   40.4785   23.8991   37.0971 H   0  0  0  0  0  0  0  0  0  0  0  0
   38.2073   21.7007   33.3182 H   0  0  0  0  0  0  0  0  0  0  0  0
   37.8226   25.1759   38.9293 H   0  0  0  0  0  0  0  0  0  0  0  0
   37.1518   23.5532   38.5502 H   0  0  0  0  0  0  0  0  0  0  0  0
   38.9293   23.8127   38.5502 H   0  0  0  0  0  0  0  0  0  0  0  0
   37.7600   26.7024   37.3487 H   0  0  0  0  0  0  0  0  0  0  0  0
   39.4139   26.1066   36.8374 H   0  0  0  0  0  0  0  0  0  0  0  0
   39.1259   27.4130   32.3498 H   0  0  0  0  0  0  0  0  0  0  0  0
   36.4785   27.6894   32.7132 H   0  0  0  0  0  0  0  0  0  0  0  0
   35.9659   26.9074   35.2442 H   0  0  0  0  0  0  0  0  0  0  0  0
  1  8  1  0
  2  3  2  0
  4  3  1  0
  4  1  1  0
  5  4  2  0
  6  7  2  0
  6  5  1  0
  7  2  1  0
  9  1  1  0
 10  9  1  0
 11 10  1  0
 12 13  1  0
 12 11  2  0
 13 14  2  0
 14 10  1  0
  1 15  1  6
  2 16  1  0
  3 17  1  0
  6 18  1  0
  8 19  1  0
  8 20  1  0
  8 21  1  0
  9 22  1  0
  9 23  1  0
 12 24  1  0
 13 25  1  0
 14 26  1  0
M  ISO  8  15   8  16  14  17  14  18  14  19   8  20   8  21   8  22   8
M  ISO  4  23   8  24  14  25  14  26  14
M  END
>  <minimizedAffinity>  (1) 
-3.3623054

>  <minimizedRMSD>  (1) 
2.6605649

$$$$
