
     RDKit          3D

 20 20  0  0  1  0  0  0  0  0999 V2000
   38.7630   23.2920   36.6250 C   0  0  1  0  0  0  0  0  0  0  0  0
   40.3140   26.1640   34.6980 C   0  0  0  0  0  0  0  0  0  0  0  0
   40.0880   24.8570   35.1950 C   0  0  0  0  0  0  0  0  0  0  0  0
   39.0080   24.6380   36.0870 C   0  0  0  0  0  0  0  0  0  0  0  0
   38.2300   25.7180   36.4270 N   0  0  0  0  0  0  0  0  0  0  0  0
   38.4740   26.9450   35.9350 C   0  0  0  0  0  0  0  0  0  0  0  0
   39.5070   27.1730   35.0780 N   0  0  0  0  0  0  0  0  0  0  0  0
   39.8980   22.7930   37.4800 C   0  0  0  0  0  0  0  0  0  0  0  0
   37.4690   23.2060   37.4140 C   0  0  0  0  0  0  0  0  0  0  0  0
   36.7860   22.0830   36.9950 O   0  0  0  0  0  0  0  0  0  0  0  0
   38.6798   22.6446   35.7396 H   0  0  0  0  0  0  0  0  0  0  0  0
   41.1459   26.3542   34.0039 H   0  0  0  0  0  0  0  0  0  0  0  0
   40.7406   24.0244   34.8934 H   0  0  0  0  0  0  0  0  0  0  0  0
   37.8253   27.7825   36.2311 H   0  0  0  0  0  0  0  0  0  0  0  0
   39.6354   22.9085   38.5419 H   0  0  0  0  0  0  0  0  0  0  0  0
   40.0823   21.7308   37.2613 H   0  0  0  0  0  0  0  0  0  0  0  0
   40.8053   23.3752   37.2613 H   0  0  0  0  0  0  0  0  0  0  0  0
   37.6918   23.1278   38.4884 H   0  0  0  0  0  0  0  0  0  0  0  0
   36.8602   24.1069   37.2474 H   0  0  0  0  0  0  0  0  0  0  0  0
   36.4753   21.5722   37.7841 H   0  0  0  0  0  0  0  0  0  0  0  0
  1  9  1  0
  1  8  1  0
  2  7  2  0
  2  3  1  0
  3  4  2  0
  4  5  1  0
  4  1  1  0
  6  5  2  0
  7  6  1  0
 10  9  1  0
  1 11  1  6
  2 12  1  0
  3 13  1  0
  6 14  1  0
  8 15  1  0
  8 16  1  0
  8 17  1  0
  9 18  1  0
  9 19  1  0
 10 20  1  0
M  ISO  8  11   8  12  14  13  14  14  14  15   8  16   8  17   8  18   8
M  ISO  2  19   8  20   3
M  END
>  <minimizedAffinity>  (1) 
-3.25683546

>  <minimizedRMSD>  (1) 
3.82083702

$$$$
