
     RDKit          3D

 42 45  0  0  1  0  0  0  0  0999 V2000
   39.9120   23.1710   36.6400 C   0  0  0  0  0  0  0  0  0  0  0  0
   40.0130   23.0830   38.0270 C   0  0  0  0  0  0  0  0  0  0  0  0
   38.9020   23.2640   38.8410 C   0  0  0  0  0  0  0  0  0  0  0  0
   37.6610   23.5380   38.2900 C   0  0  0  0  0  0  0  0  0  0  0  0
   37.5490   23.6290   36.8850 C   0  0  0  0  0  0  0  0  0  0  0  0
   38.6740   23.4420   36.1060 C   0  0  0  0  0  0  0  0  0  0  0  0
   38.2440   23.5540   34.7580 N   0  0  0  0  0  0  0  0  0  0  0  0
   37.8150   22.4610   34.0530 C   0  0  0  0  0  0  0  0  0  0  0  0
   37.4550   22.8900   32.8250 N   0  0  0  0  0  0  0  0  0  0  0  0
   37.6360   24.2110   32.7130 C   0  0  0  0  0  0  0  0  0  0  0  0
   37.4720   25.2170   31.7710 C   0  0  0  0  0  0  0  0  0  0  0  0
   37.7750   26.5080   32.0230 N   0  0  0  0  0  0  0  0  0  0  0  0
   38.2610   26.8810   33.2300 C   0  0  0  0  0  0  0  0  0  0  0  0
   38.4350   25.9210   34.1800 N   0  0  0  0  0  0  0  0  0  0  0  0
   38.1330   24.6360   33.9260 C   0  0  0  0  0  0  0  0  0  0  0  0
   36.9560   24.8110   30.4970 N   0  0  0  0  0  0  0  0  0  0  0  0
   41.0510   22.9630   35.7660 C   0  0  0  0  0  0  0  0  0  0  0  0
   42.3780   23.3670   36.2710 C   0  0  2  0  0  0  0  0  0  0  0  0
   42.8340   24.5890   35.5170 C   0  0  0  0  0  0  0  0  0  0  0  0
   41.9300   25.2950   34.7200 C   0  0  0  0  0  0  0  0  0  0  0  0
   42.3760   26.4110   34.0340 C   0  0  0  0  0  0  0  0  0  0  0  0
   43.6990   26.7530   34.1870 N   0  0  0  0  0  0  0  0  0  0  0  0
   44.5520   26.0610   34.9580 C   0  0  0  0  0  0  0  0  0  0  0  0
   44.1050   24.9800   35.6190 N   0  0  0  0  0  0  0  0  0  0  0  0
   43.4690   22.3360   35.9930 C   0  0  0  0  0  0  0  0  0  0  0  0
   40.9893   22.8665   38.4852 H   0  0  0  0  0  0  0  0  0  0  0  0
   39.0087   23.1890   39.9332 H   0  0  0  0  0  0  0  0  0  0  0  0
   36.7806   23.6818   38.9336 H   0  0  0  0  0  0  0  0  0  0  0  0
   36.5776   23.8462   36.4169 H   0  0  0  0  0  0  0  0  0  0  0  0
   37.7718   21.4249   34.4198 H   0  0  0  0  0  0  0  0  0  0  0  0
   38.5090   27.9323   33.4381 H   0  0  0  0  0  0  0  0  0  0  0  0
   36.7309   23.8208   30.3244 H   0  0  0  0  0  0  0  0  0  0  0  0
   36.8103   25.5094   29.7541 H   0  0  0  0  0  0  0  0  0  0  0  0
   40.8642   23.5278   34.8407 H   0  0  0  0  0  0  0  0  0  0  0  0
   41.1167   21.8717   35.6447 H   0  0  0  0  0  0  0  0  0  0  0  0
   42.2528   23.5128   37.3541 H   0  0  0  0  0  0  0  0  0  0  0  0
   40.8823   24.9697   34.6391 H   0  0  0  0  0  0  0  0  0  0  0  0
   41.7015   26.9989   33.3942 H   0  0  0  0  0  0  0  0  0  0  0  0
   45.6026   26.3744   35.0476 H   0  0  0  0  0  0  0  0  0  0  0  0
   43.8683   21.9587   36.9460 H   0  0  0  0  0  0  0  0  0  0  0  0
   43.0455   21.5004   35.4164 H   0  0  0  0  0  0  0  0  0  0  0  0
   44.2793   22.8060   35.4164 H   0  0  0  0  0  0  0  0  0  0  0  0
  1  2  2  0
  2  3  1  0
  4  3  2  0
  5  4  1  0
  6  1  1  0
  6  5  2  0
  7  6  1  0
  8  7  1  0
  9  8  2  0
 10  9  1  0
 10 15  2  0
 11 12  2  0
 11 10  1  0
 12 13  1  0
 13 14  2  0
 15 14  1  0
 15  7  1  0
 16 11  1  0
 17 18  1  0
 17  1  1  0
 19 24  1  0
 19 18  1  0
 20 19  2  0
 21 22  2  0
 21 20  1  0
 22 23  1  0
 23 24  2  0
 25 18  1  0
  2 26  1  0
  3 27  1  0
  4 28  1  0
  5 29  1  0
  8 30  1  0
 13 31  1  0
 16 32  1  0
 16 33  1  0
 17 34  1  0
 17 35  1  0
 18 36  1  1
 20 37  1  0
 21 38  1  0
 23 39  1  0
 25 40  1  0
 25 41  1  0
 25 42  1  0
M  ISO  8  26  14  27  14  28  14  29  14  30  14  31  14  34   8  35   8
M  ISO  7  36   8  37  14  38  14  39  14  40   8  41   8  42   8
M  END
>  <minimizedAffinity>  (1) 
-5.54239273

>  <minimizedRMSD>  (1) 
4.10635328

$$$$
