
     RDKit          3D

 41 43  0  0  1  0  0  0  0  0999 V2000
   38.5990   25.0370   34.7250 C   0  0  0  0  0  0  0  0  0  0  0  0
   37.8080   24.7610   33.5880 N   0  0  0  0  0  0  0  0  0  0  0  0
   37.5300   23.6680   32.8350 C   0  0  0  0  0  0  0  0  0  0  0  0
   36.6570   23.8970   31.7930 C   0  0  0  0  0  0  0  0  0  0  0  0
   36.3770   25.2130   31.9090 N   0  0  0  0  0  0  0  0  0  0  0  0
   37.0560   25.7200   32.9690 C   0  0  0  0  0  0  0  0  0  0  0  0
   36.9170   27.1100   33.2510 N   0  0  0  0  0  0  0  0  0  0  0  0
   36.8120   27.6280   34.5990 C   0  0  0  0  0  0  0  0  0  0  0  0
   36.2980   29.0490   34.6120 C   0  0  0  0  0  0  0  0  0  0  0  0
   35.1200   29.1140   33.6600 C   0  0  0  0  0  0  0  0  0  0  0  0
   35.5780   28.8940   32.2360 C   0  0  0  0  0  0  0  0  0  0  0  0
   36.8550   28.0880   32.1780 C   0  0  0  0  0  0  0  0  0  0  0  0
   38.3700   24.0640   35.8410 C   0  0  1  0  0  0  0  0  0  0  0  0
   40.9800   21.9150   37.5430 C   0  0  0  0  0  0  0  0  0  0  0  0
   39.8750   22.7540   37.3970 C   0  0  0  0  0  0  0  0  0  0  0  0
   39.5290   23.1670   36.0730 C   0  0  0  0  0  0  0  0  0  0  0  0
   40.2920   22.7230   35.0370 N   0  0  0  0  0  0  0  0  0  0  0  0
   41.3460   21.9200   35.2080 C   0  0  0  0  0  0  0  0  0  0  0  0
   41.6910   21.5140   36.4710 N   0  0  0  0  0  0  0  0  0  0  0  0
   37.9610   24.7850   37.1000 C   0  0  0  0  0  0  0  0  0  0  0  0
   38.3569   26.0479   35.0847 H   0  0  0  0  0  0  0  0  0  0  0  0
   39.6535   24.9532   34.4234 H   0  0  0  0  0  0  0  0  0  0  0  0
   37.9658   22.6788   33.0391 H   0  0  0  0  0  0  0  0  0  0  0  0
   36.2799   23.1813   31.0477 H   0  0  0  0  0  0  0  0  0  0  0  0
   36.1203   26.9932   35.1722 H   0  0  0  0  0  0  0  0  0  0  0  0
   37.8160   27.6218   35.0484 H   0  0  0  0  0  0  0  0  0  0  0  0
   35.9762   29.3231   35.6275 H   0  0  0  0  0  0  0  0  0  0  0  0
   37.0869   29.7501   34.3020 H   0  0  0  0  0  0  0  0  0  0  0  0
   34.3922   28.3349   33.9308 H   0  0  0  0  0  0  0  0  0  0  0  0
   34.6560   30.1085   33.7351 H   0  0  0  0  0  0  0  0  0  0  0  0
   34.7912   28.3553   31.6876 H   0  0  0  0  0  0  0  0  0  0  0  0
   35.7720   29.8771   31.7823 H   0  0  0  0  0  0  0  0  0  0  0  0
   36.9026   27.5629   31.2126 H   0  0  0  0  0  0  0  0  0  0  0  0
   37.7040   28.7782   32.2908 H   0  0  0  0  0  0  0  0  0  0  0  0
   37.5414   23.4097   35.5325 H   0  0  0  0  0  0  0  0  0  0  0  0
   41.2749   21.5762   38.5471 H   0  0  0  0  0  0  0  0  0  0  0  0
   39.2915   23.0855   38.2686 H   0  0  0  0  0  0  0  0  0  0  0  0
   41.9337   21.5865   34.3400 H   0  0  0  0  0  0  0  0  0  0  0  0
   38.2889   24.2070   37.9766 H   0  0  0  0  0  0  0  0  0  0  0  0
   38.4290   25.7802   37.1211 H   0  0  0  0  0  0  0  0  0  0  0  0
   36.8666   24.8939   37.1211 H   0  0  0  0  0  0  0  0  0  0  0  0
  1 13  1  0
  2  1  1  0
  3  2  1  0
  4  5  1  0
  4  3  2  0
  5  6  2  0
  6  7  1  0
  6  2  1  0
  7  8  1  0
  8  9  1  0
 10  9  1  0
 11 10  1  0
 12 11  1  0
 12  7  1  0
 13 16  1  0
 13 20  1  0
 15 14  2  0
 16 15  1  0
 17 18  1  0
 17 16  2  0
 18 19  2  0
 19 14  1  0
  1 21  1  0
  1 22  1  0
  3 23  1  0
  4 24  1  0
  8 25  1  0
  8 26  1  0
  9 27  1  0
  9 28  1  0
 10 29  1  0
 10 30  1  0
 11 31  1  0
 11 32  1  0
 12 33  1  0
 12 34  1  0
 13 35  1  6
 14 36  1  0
 15 37  1  0
 18 38  1  0
 20 39  1  0
 20 40  1  0
 20 41  1  0
M  ISO  8  21   8  22   8  23  14  24  14  25  13  26  13  27  13  28  13
M  ISO  8  29  13  30  13  31  13  32  13  33  13  34  13  35   8  36  14
M  ISO  5  37  14  38  14  39   8  40   8  41   8
M  END
>  <minimizedAffinity>  (1) 
-4.82290077

>  <minimizedRMSD>  (1) 
2.28749156

$$$$
