
     RDKit          3D

 39 41  0  0  1  0  0  0  0  0999 V2000
   39.2480   24.9650   35.5290 C   0  0  0  0  0  0  0  0  0  0  0  0
   40.1050   25.8220   34.8070 N   0  0  0  0  0  0  0  0  0  0  0  0
   41.4220   26.0790   34.7940 C   0  0  0  0  0  0  0  0  0  0  0  0
   41.8250   27.0320   33.8860 C   0  0  0  0  0  0  0  0  0  0  0  0
   40.6600   27.3880   33.2920 N   0  0  0  0  0  0  0  0  0  0  0  0
   39.6530   26.6700   33.8420 C   0  0  0  0  0  0  0  0  0  0  0  0
   38.3020   26.8250   33.4050 N   0  0  0  0  0  0  0  0  0  0  0  0
   37.1890   26.6320   34.3470 C   0  0  0  0  0  0  0  0  0  0  0  0
   36.5920   28.0130   34.6030 C   0  0  0  0  0  0  0  0  0  0  0  0
   36.3750   28.6810   33.4030 O   0  0  0  0  0  0  0  0  0  0  0  0
   36.4060   27.8140   32.3130 C   0  0  0  0  0  0  0  0  0  0  0  0
   37.7640   27.1740   32.1020 C   0  0  0  0  0  0  0  0  0  0  0  0
   39.2550   23.5610   35.0120 C   0  0  1  0  0  0  0  0  0  0  0  0
   41.2570   21.6470   37.5850 C   0  0  0  0  0  0  0  0  0  0  0  0
   40.2480   22.4610   37.0600 C   0  0  0  0  0  0  0  0  0  0  0  0
   40.2720   22.7000   35.6600 C   0  0  0  0  0  0  0  0  0  0  0  0
   41.2740   22.1270   34.9000 N   0  0  0  0  0  0  0  0  0  0  0  0
   42.2100   21.3610   35.4410 C   0  0  0  0  0  0  0  0  0  0  0  0
   42.2050   21.1160   36.8020 N   0  0  0  0  0  0  0  0  0  0  0  0
   37.8810   22.9530   35.1020 C   0  0  0  0  0  0  0  0  0  0  0  0
   39.5692   24.9529   36.5810 H   0  0  0  0  0  0  0  0  0  0  0  0
   38.2245   25.3521   35.4169 H   0  0  0  0  0  0  0  0  0  0  0  0
   42.1292   25.5648   35.4614 H   0  0  0  0  0  0  0  0  0  0  0  0
   42.8394   27.4102   33.6912 H   0  0  0  0  0  0  0  0  0  0  0  0
   36.4313   25.9660   33.9084 H   0  0  0  0  0  0  0  0  0  0  0  0
   37.5361   26.1695   35.2827 H   0  0  0  0  0  0  0  0  0  0  0  0
   35.6346   27.9007   35.1328 H   0  0  0  0  0  0  0  0  0  0  0  0
   37.2970   28.5974   35.2124 H   0  0  0  0  0  0  0  0  0  0  0  0
   35.6652   27.0177   32.4777 H   0  0  0  0  0  0  0  0  0  0  0  0
   36.1793   28.4073   31.4149 H   0  0  0  0  0  0  0  0  0  0  0  0
   37.6585   26.2683   31.4867 H   0  0  0  0  0  0  0  0  0  0  0  0
   38.4390   27.8710   31.5837 H   0  0  0  0  0  0  0  0  0  0  0  0
   39.5456   23.6196   33.9527 H   0  0  0  0  0  0  0  0  0  0  0  0
   41.2723   21.4383   38.6649 H   0  0  0  0  0  0  0  0  0  0  0  0
   39.4696   22.8972   37.7034 H   0  0  0  0  0  0  0  0  0  0  0  0
   42.9924   20.9192   34.8065 H   0  0  0  0  0  0  0  0  0  0  0  0
   37.6030   22.8300   36.1592 H   0  0  0  0  0  0  0  0  0  0  0  0
   37.1545   23.6137   34.6063 H   0  0  0  0  0  0  0  0  0  0  0  0
   37.8814   21.9710   34.6063 H   0  0  0  0  0  0  0  0  0  0  0  0
  2  1  1  0
  3  2  1  0
  4  3  2  0
  5  6  2  0
  5  4  1  0
  6  2  1  0
  7  6  1  0
  7  8  1  0
  8  9  1  0
 10  9  1  0
 11 10  1  0
 12 11  1  0
 12  7  1  0
 13 20  1  0
 13  1  1  0
 13 16  1  0
 15 14  2  0
 16 15  1  0
 17 18  1  0
 17 16  2  0
 18 19  2  0
 19 14  1  0
  1 21  1  0
  1 22  1  0
  3 23  1  0
  4 24  1  0
  8 25  1  0
  8 26  1  0
  9 27  1  0
  9 28  1  0
 11 29  1  0
 11 30  1  0
 12 31  1  0
 12 32  1  0
 13 33  1  6
 14 34  1  0
 15 35  1  0
 18 36  1  0
 20 37  1  0
 20 38  1  0
 20 39  1  0
M  ISO  8  21   8  22   8  23  14  24  14  25  13  26  13  27  13  28  13
M  ISO  8  29  13  30  13  31  13  32  13  33   8  34  14  35  14  36  14
M  ISO  3  37   8  38   8  39   8
M  END
>  <minimizedAffinity>  (1) 
-4.22331238

>  <minimizedRMSD>  (1) 
3.13504267

$$$$
