
     RDKit          3D

 28 29  0  0  1  0  0  0  0  0999 V2000
   38.2900   24.2670   36.7630 C   0  0  1  0  0  0  0  0  0  0  0  0
   41.0860   21.8210   37.4890 C   0  0  0  0  0  0  0  0  0  0  0  0
   40.0330   22.7090   37.7410 C   0  0  0  0  0  0  0  0  0  0  0  0
   39.4060   23.3000   36.6000 C   0  0  0  0  0  0  0  0  0  0  0  0
   39.8620   22.9740   35.3440 N   0  0  0  0  0  0  0  0  0  0  0  0
   40.8670   22.1250   35.1560 C   0  0  0  0  0  0  0  0  0  0  0  0
   41.4760   21.5510   36.2420 N   0  0  0  0  0  0  0  0  0  0  0  0
   37.8390   24.3320   38.2030 C   0  0  0  0  0  0  0  0  0  0  0  0
   38.6480   25.6400   36.2810 C   0  0  0  0  0  0  0  0  0  0  0  0
   37.9810   26.0030   35.1000 N   0  0  0  0  0  0  0  0  0  0  0  0
   37.6600   25.3820   33.9610 C   0  0  0  0  0  0  0  0  0  0  0  0
   36.9910   26.1490   33.0300 C   0  0  0  0  0  0  0  0  0  0  0  0
   36.8870   27.3330   33.6340 N   0  0  0  0  0  0  0  0  0  0  0  0
   37.4810   27.2460   34.8770 C   0  0  0  0  0  0  0  0  0  0  0  0
   37.4760   28.4170   35.6900 N   0  0  0  0  0  0  0  0  0  0  0  0
   37.4629   23.8982   36.1386 H   0  0  0  0  0  0  0  0  0  0  0  0
   41.6001   21.3381   38.3331 H   0  0  0  0  0  0  0  0  0  0  0  0
   39.7048   22.9402   38.7651 H   0  0  0  0  0  0  0  0  0  0  0  0
   41.2073   21.8849   34.1379 H   0  0  0  0  0  0  0  0  0  0  0  0
   38.7082   24.2067   38.8655 H   0  0  0  0  0  0  0  0  0  0  0  0
   37.3683   25.3073   38.3961 H   0  0  0  0  0  0  0  0  0  0  0  0
   37.1121   23.5293   38.3961 H   0  0  0  0  0  0  0  0  0  0  0  0
   38.3880   26.3650   37.0663 H   0  0  0  0  0  0  0  0  0  0  0  0
   39.7257   25.6384   36.0605 H   0  0  0  0  0  0  0  0  0  0  0  0
   37.9130   24.3273   33.7778 H   0  0  0  0  0  0  0  0  0  0  0  0
   36.6312   25.8555   32.0328 H   0  0  0  0  0  0  0  0  0  0  0  0
   37.9082   28.3968   36.6247 H   0  0  0  0  0  0  0  0  0  0  0  0
   37.0402   29.2832   35.3427 H   0  0  0  0  0  0  0  0  0  0  0  0
  1  8  1  0
  2  3  2  0
  4  1  1  0
  4  3  1  0
  5  4  2  0
  6  5  1  0
  6  7  2  0
  7  2  1  0
  9  1  1  0
 10  9  1  0
 11 10  1  0
 12 13  1  0
 12 11  2  0
 13 14  2  0
 14 10  1  0
 14 15  1  0
  1 16  1  6
  2 17  1  0
  3 18  1  0
  6 19  1  0
  8 20  1  0
  8 21  1  0
  8 22  1  0
  9 23  1  0
  9 24  1  0
 11 25  1  0
 12 26  1  0
 15 27  1  0
 15 28  1  0
M  ISO  8  16   8  17  14  18  14  19  14  20   8  21   8  22   8  23   8
M  ISO  3  24   8  25  14  26  14
M  END
>  <minimizedAffinity>  (1) 
-3.9007709

>  <minimizedRMSD>  (1) 
0.157203481

$$$$
