
     RDKit          3D

 46 49  0  0  1  0  0  0  0  0999 V2000
   37.6090   25.3280   32.9680 N   0  0  0  0  0  0  0  0  0  0  0  0
   37.1870   24.1430   32.5120 C   0  0  0  0  0  0  0  0  0  0  0  0
   36.2150   24.2310   31.5450 C   0  0  0  0  0  0  0  0  0  0  0  0
   36.0270   25.5460   31.3940 N   0  0  0  0  0  0  0  0  0  0  0  0
   36.8620   26.2060   32.2450 C   0  0  0  0  0  0  0  0  0  0  0  0
   36.8690   27.7100   32.2500 C   0  0  1  0  0  0  0  0  0  0  0  0
   36.1740   28.4020   31.1420 C   0  0  0  0  0  0  0  0  0  0  0  0
   35.5300   28.3820   32.5070 C   0  0  2  0  0  0  0  0  0  0  0  0
   35.8620   32.1520   34.5760 C   0  0  0  0  0  0  0  0  0  0  0  0
   35.7700   30.9640   35.2660 C   0  0  0  0  0  0  0  0  0  0  0  0
   35.6640   29.7540   34.6240 C   0  0  0  0  0  0  0  0  0  0  0  0
   35.6430   29.6590   33.2580 C   0  0  0  0  0  0  0  0  0  0  0  0
   35.7350   30.8570   32.5520 C   0  0  0  0  0  0  0  0  0  0  0  0
   35.8430   32.0860   33.2070 C   0  0  0  0  0  0  0  0  0  0  0  0
   35.9950   33.6640   35.4460 S   0  0  0  0  0  0  0  0  0  0  0  0
   35.2950   33.5610   36.7590 O   0  0  0  0  0  0  0  0  0  0  0  0
   37.4590   33.9850   35.6010 O   0  0  0  0  0  0  0  0  0  0  0  0
   38.5480   25.7510   33.9350 C   0  0  0  0  0  0  0  0  0  0  0  0
   37.9880   25.8490   35.3050 C   0  0  1  0  0  0  0  0  0  0  0  0
   38.4440   23.6090   38.3230 C   0  0  0  0  0  0  0  0  0  0  0  0
   37.9010   24.6190   37.5230 C   0  0  0  0  0  0  0  0  0  0  0  0
   38.4940   24.8200   36.2340 C   0  0  0  0  0  0  0  0  0  0  0  0
   39.5570   24.0200   35.8460 N   0  0  0  0  0  0  0  0  0  0  0  0
   40.0370   23.0690   36.6490 C   0  0  0  0  0  0  0  0  0  0  0  0
   39.4820   22.8590   37.8940 N   0  0  0  0  0  0  0  0  0  0  0  0
   38.2210   27.2390   35.8840 C   0  0  0  0  0  0  0  0  0  0  0  0
   37.5828   23.1843   32.8785 H   0  0  0  0  0  0  0  0  0  0  0  0
   35.7086   23.4095   31.0171 H   0  0  0  0  0  0  0  0  0  0  0  0
   37.8776   27.7772   32.6839 H   0  0  0  0  0  0  0  0  0  0  0  0
   36.5817   29.3427   30.7434 H   0  0  0  0  0  0  0  0  0  0  0  0
   35.8504   28.1092   30.1323 H   0  0  0  0  0  0  0  0  0  0  0  0
   34.5521   28.0776   32.9084 H   0  0  0  0  0  0  0  0  0  0  0  0
   35.7817   30.9844   36.3657 H   0  0  0  0  0  0  0  0  0  0  0  0
   35.5940   28.8350   35.2245 H   0  0  0  0  0  0  0  0  0  0  0  0
   35.7223   30.8342   31.4523 H   0  0  0  0  0  0  0  0  0  0  0  0
   35.9136   33.0118   32.6172 H   0  0  0  0  0  0  0  0  0  0  0  0
   35.3916   34.6836   34.7581 H   0  0  0  0  0  0  0  0  0  0  0  0
   39.3796   25.0311   33.9501 H   0  0  0  0  0  0  0  0  0  0  0  0
   38.8738   26.7615   33.6472 H   0  0  0  0  0  0  0  0  0  0  0  0
   36.9087   25.6649   35.1989 H   0  0  0  0  0  0  0  0  0  0  0  0
   38.0181   23.4219   39.3198 H   0  0  0  0  0  0  0  0  0  0  0  0
   37.0556   25.2325   37.8680 H   0  0  0  0  0  0  0  0  0  0  0  0
   40.8815   22.4479   36.3158 H   0  0  0  0  0  0  0  0  0  0  0  0
   38.2119   27.1848   36.9826 H   0  0  0  0  0  0  0  0  0  0  0  0
   39.1954   27.6194   35.5437 H   0  0  0  0  0  0  0  0  0  0  0  0
   37.4239   27.9163   35.5437 H   0  0  0  0  0  0  0  0  0  0  0  0
  1 18  1  0
  2  1  1  0
  3  2  2  0
  4  3  1  0
  4  5  2  0
  5  6  1  0
  5  1  1  0
  6  8  1  0
  7  6  1  0
  7  8  1  0
  8 12  1  0
  9 10  2  0
  9 15  1  0
 11 10  1  0
 12 11  2  0
 13 14  2  0
 13 12  1  0
 14  9  1  0
 15 17  2  0
 15 16  2  0
 18 19  1  0
 19 26  1  0
 19 22  1  0
 21 20  2  0
 22 21  1  0
 23 22  2  0
 23 24  1  0
 24 25  2  0
 25 20  1  0
  2 27  1  0
  3 28  1  0
  6 29  1  1
  7 30  1  0
  7 31  1  0
  8 32  1  6
 10 33  1  0
 11 34  1  0
 13 35  1  0
 14 36  1  0
 15 37  1  0
 18 38  1  0
 18 39  1  0
 19 40  1  6
 20 41  1  0
 21 42  1  0
 24 43  1  0
 26 44  1  0
 26 45  1  0
 26 46  1  0
M  ISO  8  27  14  28  14  29  13  30  13  31  13  32  13  33  14  34  14
M  ISO  8  35  14  36  14  37  11  38   8  39   8  40   8  41  14  42  14
M  ISO  4  43  14  44   8  45   8  46   8
M  END
>  <minimizedAffinity>  (1) 
-6.01508379

>  <minimizedRMSD>  (1) 
1.26751304

$$$$
