
     RDKit          3D

 49 52  0  0  1  0  0  0  0  0999 V2000
   37.3900   26.0640   32.9310 N   0  0  0  0  0  0  0  0  0  0  0  0
   37.0000   25.0000   32.2300 C   0  0  0  0  0  0  0  0  0  0  0  0
   35.9350   25.2380   31.3950 C   0  0  0  0  0  0  0  0  0  0  0  0
   35.6490   26.5250   31.5920 N   0  0  0  0  0  0  0  0  0  0  0  0
   36.5270   27.0250   32.5170 C   0  0  0  0  0  0  0  0  0  0  0  0
   36.4510   28.4840   32.9100 C   0  0  1  0  0  0  0  0  0  0  0  0
   35.7140   29.3770   31.9810 C   0  0  0  0  0  0  0  0  0  0  0  0
   35.0710   28.9950   33.2750 C   0  0  2  0  0  0  0  0  0  0  0  0
   34.9200   30.1510   34.2080 C   0  0  0  0  0  0  0  0  0  0  0  0
   36.0860   30.2810   35.1630 C   0  0  0  0  0  0  0  0  0  0  0  0
   35.8290   31.5060   36.0220 C   0  0  0  0  0  0  0  0  0  0  0  0
   36.2350   32.6880   35.1550 C   0  0  0  0  0  0  0  0  0  0  0  0
   36.0240   32.3580   33.6840 C   0  0  0  0  0  0  0  0  0  0  0  0
   34.7880   31.4710   33.5180 C   0  0  0  0  0  0  0  0  0  0  0  0
   38.3940   26.3130   33.8950 C   0  0  0  0  0  0  0  0  0  0  0  0
   37.9130   26.1950   35.2950 C   0  0  1  0  0  0  0  0  0  0  0  0
   38.4780   23.4390   37.8250 C   0  0  0  0  0  0  0  0  0  0  0  0
   37.9090   24.5830   37.2460 C   0  0  0  0  0  0  0  0  0  0  0  0
   38.4590   25.0050   35.9910 C   0  0  0  0  0  0  0  0  0  0  0  0
   39.4970   24.2880   35.4180 N   0  0  0  0  0  0  0  0  0  0  0  0
   39.9980   23.2100   36.0130 C   0  0  0  0  0  0  0  0  0  0  0  0
   39.4930   22.7750   37.2240 N   0  0  0  0  0  0  0  0  0  0  0  0
   38.2670   27.4580   36.0720 C   0  0  0  0  0  0  0  0  0  0  0  0
   37.4877   24.0175   32.3125 H   0  0  0  0  0  0  0  0  0  0  0  0
   35.4337   24.5294   30.7193 H   0  0  0  0  0  0  0  0  0  0  0  0
   37.4443   28.5029   33.3822 H   0  0  0  0  0  0  0  0  0  0  0  0
   36.0595   30.4098   31.8261 H   0  0  0  0  0  0  0  0  0  0  0  0
   35.4164   29.3130   30.9240 H   0  0  0  0  0  0  0  0  0  0  0  0
   34.1617   28.4867   33.6284 H   0  0  0  0  0  0  0  0  0  0  0  0
   33.9899   29.9201   34.7480 H   0  0  0  0  0  0  0  0  0  0  0  0
   36.1559   29.3845   35.7965 H   0  0  0  0  0  0  0  0  0  0  0  0
   37.0325   30.3825   34.6118 H   0  0  0  0  0  0  0  0  0  0  0  0
   34.7647   31.5723   36.2920 H   0  0  0  0  0  0  0  0  0  0  0  0
   36.3924   31.4737   36.9662 H   0  0  0  0  0  0  0  0  0  0  0  0
   35.6232   33.5621   35.4227 H   0  0  0  0  0  0  0  0  0  0  0  0
   37.2993   32.9085   35.3243 H   0  0  0  0  0  0  0  0  0  0  0  0
   35.8816   33.2906   33.1184 H   0  0  0  0  0  0  0  0  0  0  0  0
   36.9064   31.8221   33.3043 H   0  0  0  0  0  0  0  0  0  0  0  0
   33.9184   31.9996   33.9356 H   0  0  0  0  0  0  0  0  0  0  0  0
   34.6687   31.2702   32.4431 H   0  0  0  0  0  0  0  0  0  0  0  0
   39.2085   25.5891   33.7445 H   0  0  0  0  0  0  0  0  0  0  0  0
   38.7277   27.3516   33.7539 H   0  0  0  0  0  0  0  0  0  0  0  0
   36.8209   26.0705   35.2521 H   0  0  0  0  0  0  0  0  0  0  0  0
   38.0912   23.0738   38.7878 H   0  0  0  0  0  0  0  0  0  0  0  0
   37.0844   25.1275   37.7293 H   0  0  0  0  0  0  0  0  0  0  0  0
   40.8224   22.6588   35.5371 H   0  0  0  0  0  0  0  0  0  0  0  0
   38.2095   27.2528   37.1512 H   0  0  0  0  0  0  0  0  0  0  0  0
   39.2883   27.7738   35.8127 H   0  0  0  0  0  0  0  0  0  0  0  0
   37.5586   28.2586   35.8127 H   0  0  0  0  0  0  0  0  0  0  0  0
  1 15  1  0
  2  1  1  0
  3  4  1  0
  3  2  2  0
  4  5  2  0
  5  6  1  0
  5  1  1  0
  6  8  1  0
  7  6  1  0
  7  8  1  0
  8  9  1  0
  9 10  1  0
 10 11  1  0
 12 11  1  0
 13 12  1  0
 14 13  1  0
 14  9  1  0
 15 16  1  0
 16 19  1  0
 16 23  1  0
 18 17  2  0
 19 18  1  0
 20 19  2  0
 20 21  1  0
 21 22  2  0
 22 17  1  0
  2 24  1  0
  3 25  1  0
  6 26  1  1
  7 27  1  0
  7 28  1  0
  8 29  1  6
  9 30  1  0
 10 31  1  0
 10 32  1  0
 11 33  1  0
 11 34  1  0
 12 35  1  0
 12 36  1  0
 13 37  1  0
 13 38  1  0
 14 39  1  0
 14 40  1  0
 15 41  1  0
 15 42  1  0
 16 43  1  6
 17 44  1  0
 18 45  1  0
 21 46  1  0
 23 47  1  0
 23 48  1  0
 23 49  1  0
M  ISO  8  24  14  25  14  26  13  27  13  28  13  29  13  30  13  31  13
M  ISO  8  32  13  33  13  34  13  35  13  36  13  37  13  38  13  39  13
M  ISO  8  40  13  41   8  42   8  43   8  44  14  45  14  46  14  47   8
M  ISO  2  48   8  49   8
M  END
>  <minimizedAffinity>  (1) 
-5.7196703

>  <minimizedRMSD>  (1) 
1.16048467

$$$$
