
     RDKit          3D

 48 51  0  0  1  0  0  0  0  0999 V2000
   37.3810   25.8180   32.8780 N   0  0  0  0  0  0  0  0  0  0  0  0
   36.8470   24.7420   32.2970 C   0  0  0  0  0  0  0  0  0  0  0  0
   35.8280   25.0240   31.4200 C   0  0  0  0  0  0  0  0  0  0  0  0
   35.7240   26.3510   31.4620 N   0  0  0  0  0  0  0  0  0  0  0  0
   36.6570   26.8370   32.3380 C   0  0  0  0  0  0  0  0  0  0  0  0
   36.7770   28.3260   32.5500 C   0  0  1  0  0  0  0  0  0  0  0  0
   36.0880   29.1690   31.5440 C   0  0  0  0  0  0  0  0  0  0  0  0
   35.5030   29.0510   32.9300 C   0  0  2  0  0  0  0  0  0  0  0  0
   35.4950   30.2810   33.6040 N   0  0  0  0  0  0  0  0  0  0  0  0
   35.6020   31.4670   32.8530 C   0  0  0  0  0  0  0  0  0  0  0  0
   35.5760   32.6540   33.7970 C   0  0  0  0  0  0  0  0  0  0  0  0
   36.3960   32.4090   35.0340 C   0  0  0  0  0  0  0  0  0  0  0  0
   35.8800   31.2060   35.7610 C   0  0  0  0  0  0  0  0  0  0  0  0
   34.9390   30.3690   34.8940 C   0  0  0  0  0  0  0  0  0  0  0  0
   38.4050   26.0440   33.8260 C   0  0  0  0  0  0  0  0  0  0  0  0
   37.9180   26.0360   35.2290 C   0  0  1  0  0  0  0  0  0  0  0  0
   38.5040   23.5180   37.9960 C   0  0  0  0  0  0  0  0  0  0  0  0
   37.9080   24.5890   37.3110 C   0  0  0  0  0  0  0  0  0  0  0  0
   38.4750   24.9320   36.0510 C   0  0  0  0  0  0  0  0  0  0  0  0
   39.5570   24.2160   35.5680 N   0  0  0  0  0  0  0  0  0  0  0  0
   40.0870   23.2090   36.2520 C   0  0  0  0  0  0  0  0  0  0  0  0
   39.5600   22.8530   37.4780 N   0  0  0  0  0  0  0  0  0  0  0  0
   38.1900   27.3770   35.9020 C   0  0  0  0  0  0  0  0  0  0  0  0
   37.1927   23.7182   32.5025 H   0  0  0  0  0  0  0  0  0  0  0  0
   35.2349   24.3170   30.8213 H   0  0  0  0  0  0  0  0  0  0  0  0
   37.7939   28.2815   32.9670 H   0  0  0  0  0  0  0  0  0  0  0  0
   36.5423   30.1170   31.2201 H   0  0  0  0  0  0  0  0  0  0  0  0
   35.7052   29.0011   30.5265 H   0  0  0  0  0  0  0  0  0  0  0  0
   34.5954   28.6975   33.4411 H   0  0  0  0  0  0  0  0  0  0  0  0
   36.5476   31.4635   32.2910 H   0  0  0  0  0  0  0  0  0  0  0  0
   34.7620   31.5361   32.1462 H   0  0  0  0  0  0  0  0  0  0  0  0
   35.9783   33.5334   33.2728 H   0  0  0  0  0  0  0  0  0  0  0  0
   34.5336   32.8180   34.1076 H   0  0  0  0  0  0  0  0  0  0  0  0
   37.4447   32.2398   34.7482 H   0  0  0  0  0  0  0  0  0  0  0  0
   36.3258   33.2867   35.6933 H   0  0  0  0  0  0  0  0  0  0  0  0
   36.7334   30.5812   36.0632 H   0  0  0  0  0  0  0  0  0  0  0  0
   35.3123   31.5567   36.6355 H   0  0  0  0  0  0  0  0  0  0  0  0
   33.9518   30.8514   34.8423 H   0  0  0  0  0  0  0  0  0  0  0  0
   34.8161   29.3645   35.3252 H   0  0  0  0  0  0  0  0  0  0  0  0
   39.1638   25.2554   33.7152 H   0  0  0  0  0  0  0  0  0  0  0  0
   38.8163   27.0451   33.6293 H   0  0  0  0  0  0  0  0  0  0  0  0
   36.8336   25.8622   35.1672 H   0  0  0  0  0  0  0  0  0  0  0  0
   38.1031   23.2142   38.9742 H   0  0  0  0  0  0  0  0  0  0  0  0
   37.0478   25.1346   37.7263 H   0  0  0  0  0  0  0  0  0  0  0  0
   40.9462   22.6580   35.8421 H   0  0  0  0  0  0  0  0  0  0  0  0
   38.1644   27.2509   36.9944 H   0  0  0  0  0  0  0  0  0  0  0  0
   39.1811   27.7452   35.5985 H   0  0  0  0  0  0  0  0  0  0  0  0
   37.4207   28.1023   35.5985 H   0  0  0  0  0  0  0  0  0  0  0  0
  1 15  1  0
  2  1  1  0
  3  4  1  0
  3  2  2  0
  4  5  2  0
  5  6  1  0
  5  1  1  0
  6  8  1  0
  7  6  1  0
  7  8  1  0
  8  9  1  0
  9 14  1  0
 10  9  1  0
 10 11  1  0
 11 12  1  0
 12 13  1  0
 14 13  1  0
 15 16  1  0
 16 23  1  0
 16 19  1  0
 18 17  2  0
 19 18  1  0
 20 19  2  0
 20 21  1  0
 21 22  2  0
 22 17  1  0
  2 24  1  0
  3 25  1  0
  6 26  1  1
  7 27  1  0
  7 28  1  0
  8 29  1  6
 10 30  1  0
 10 31  1  0
 11 32  1  0
 11 33  1  0
 12 34  1  0
 12 35  1  0
 13 36  1  0
 13 37  1  0
 14 38  1  0
 14 39  1  0
 15 40  1  0
 15 41  1  0
 16 42  1  6
 17 43  1  0
 18 44  1  0
 21 45  1  0
 23 46  1  0
 23 47  1  0
 23 48  1  0
M  ISO  8  24  14  25  14  26  13  27  13  28  13  29  13  30  13  31  13
M  ISO  8  32  13  33  13  34  13  35  13  36  13  37  13  38  13  39  13
M  ISO  8  40   8  41   8  42   8  43  14  44  14  45  14  46   8  47   8
M  ISO  1  48   8
M  END
>  <minimizedAffinity>  (1) 
-5.6335721

>  <minimizedRMSD>  (1) 
0.788822293

$$$$
