
     RDKit          3D

 45 47  0  0  1  0  0  0  0  0999 V2000
   38.5900   25.6640   34.0400 C   0  0  0  0  0  0  0  0  0  0  0  0
   37.6090   25.3310   33.0800 N   0  0  0  0  0  0  0  0  0  0  0  0
   37.1700   24.1950   32.5380 C   0  0  0  0  0  0  0  0  0  0  0  0
   36.1590   24.3660   31.6230 C   0  0  0  0  0  0  0  0  0  0  0  0
   35.9630   25.6790   31.5960 N   0  0  0  0  0  0  0  0  0  0  0  0
   36.8370   26.2680   32.4750 C   0  0  0  0  0  0  0  0  0  0  0  0
   36.8500   27.7780   32.6220 C   0  0  1  0  0  0  0  0  0  0  0  0
   36.5200   28.5250   31.3860 C   0  0  0  0  0  0  0  0  0  0  0  0
   35.5180   28.4650   32.5210 C   0  0  2  0  0  0  0  0  0  0  0  0
   35.2000   29.8180   32.9830 C   0  0  0  0  0  0  0  0  0  0  0  0
   35.5190   29.8980   34.4880 C   0  0  0  0  0  0  0  0  0  0  0  0
   33.7050   30.1860   32.9510 C   0  0  0  0  0  0  0  0  0  0  0  0
   35.8910   30.9710   32.3540 C   0  0  0  0  0  0  0  0  0  0  0  0
   38.0620   25.7230   35.4250 C   0  0  1  0  0  0  0  0  0  0  0  0
   38.6560   23.4230   38.3740 C   0  0  0  0  0  0  0  0  0  0  0  0
   38.0500   24.4370   37.6120 C   0  0  0  0  0  0  0  0  0  0  0  0
   38.6350   24.6850   36.3160 C   0  0  0  0  0  0  0  0  0  0  0  0
   39.7250   23.9450   35.8890 N   0  0  0  0  0  0  0  0  0  0  0  0
   40.2510   22.9980   36.6630 C   0  0  0  0  0  0  0  0  0  0  0  0
   39.7130   22.7350   37.9150 N   0  0  0  0  0  0  0  0  0  0  0  0
   38.3020   27.1050   36.0200 C   0  0  0  0  0  0  0  0  0  0  0  0
   39.0085   26.6486   33.7840 H   0  0  0  0  0  0  0  0  0  0  0  0
   39.3510   24.8701   34.0159 H   0  0  0  0  0  0  0  0  0  0  0  0
   37.5804   23.2086   32.7998 H   0  0  0  0  0  0  0  0  0  0  0  0
   35.6325   23.5921   31.0451 H   0  0  0  0  0  0  0  0  0  0  0  0
   37.6703   27.8027   33.3545 H   0  0  0  0  0  0  0  0  0  0  0  0
   36.3240   27.9805   30.4505 H   0  0  0  0  0  0  0  0  0  0  0  0
   37.0001   29.3337   30.8154 H   0  0  0  0  0  0  0  0  0  0  0  0
   34.5222   28.0864   32.7951 H   0  0  0  0  0  0  0  0  0  0  0  0
   34.6122   29.6706   35.0676 H   0  0  0  0  0  0  0  0  0  0  0  0
   36.3048   29.1691   34.7355 H   0  0  0  0  0  0  0  0  0  0  0  0
   35.8678   30.9114   34.7355 H   0  0  0  0  0  0  0  0  0  0  0  0
   33.3281   30.2788   33.9802 H   0  0  0  0  0  0  0  0  0  0  0  0
   33.5742   31.1432   32.4249 H   0  0  0  0  0  0  0  0  0  0  0  0
   33.1448   29.3989   32.4249 H   0  0  0  0  0  0  0  0  0  0  0  0
   36.2877   31.6329   33.1379 H   0  0  0  0  0  0  0  0  0  0  0  0
   36.7191   30.6057   31.7289 H   0  0  0  0  0  0  0  0  0  0  0  0
   35.1784   31.5291   31.7289 H   0  0  0  0  0  0  0  0  0  0  0  0
   36.9827   25.5222   35.3559 H   0  0  0  0  0  0  0  0  0  0  0  0
   38.2542   23.1877   39.3706 H   0  0  0  0  0  0  0  0  0  0  0  0
   37.1838   25.0061   37.9805 H   0  0  0  0  0  0  0  0  0  0  0  0
   41.1173   22.4205   36.3080 H   0  0  0  0  0  0  0  0  0  0  0  0
   38.2905   27.0386   37.1179 H   0  0  0  0  0  0  0  0  0  0  0  0
   39.2793   27.4834   35.6858 H   0  0  0  0  0  0  0  0  0  0  0  0
   37.5095   27.7908   35.6858 H   0  0  0  0  0  0  0  0  0  0  0  0
  1 14  1  0
  2  1  1  0
  3  2  1  0
  4  3  2  0
  5  4  1  0
  5  6  2  0
  6  7  1  0
  6  2  1  0
  8  9  1  0
  8  7  1  0
  9  7  1  0
  9 10  1  0
 10 11  1  0
 12 10  1  0
 13 10  1  0
 14 21  1  0
 14 17  1  0
 16 15  2  0
 17 16  1  0
 18 17  2  0
 18 19  1  0
 19 20  2  0
 20 15  1  0
  1 22  1  0
  1 23  1  0
  3 24  1  0
  4 25  1  0
  7 26  1  1
  8 27  1  0
  8 28  1  0
  9 29  1  6
 11 30  1  0
 11 31  1  0
 11 32  1  0
 12 33  1  0
 12 34  1  0
 12 35  1  0
 13 36  1  0
 13 37  1  0
 13 38  1  0
 14 39  1  6
 15 40  1  0
 16 41  1  0
 19 42  1  0
 21 43  1  0
 21 44  1  0
 21 45  1  0
M  ISO  8  22   8  23   8  24  14  25  14  26  13  27  13  28  13  29  13
M  ISO  8  30   8  31   8  32   8  33   8  34   8  35   8  36   8  37   8
M  ISO  8  38   8  39   8  40  14  41  14  42  14  43   8  44   8  45   8
M  END
>  <minimizedAffinity>  (1) 
-5.25329638

>  <minimizedRMSD>  (1) 
1.02851343

$$$$
