
     RDKit          3D

 39 42  0  0  1  0  0  0  0  0999 V2000
   37.3860   25.8190   32.9030 N   0  0  0  0  0  0  0  0  0  0  0  0
   36.8900   24.7350   32.3070 C   0  0  0  0  0  0  0  0  0  0  0  0
   35.8560   24.9980   31.4380 C   0  0  0  0  0  0  0  0  0  0  0  0
   35.7080   26.3240   31.5040 N   0  0  0  0  0  0  0  0  0  0  0  0
   36.6250   26.8160   32.3820 C   0  0  0  0  0  0  0  0  0  0  0  0
   36.6870   28.3070   32.6140 C   0  0  1  0  0  0  0  0  0  0  0  0
   35.8980   29.1730   31.7120 C   0  0  0  0  0  0  0  0  0  0  0  0
   35.4030   28.9570   33.1220 C   0  0  2  0  0  0  0  0  0  0  0  0
   35.6520   30.0140   34.0820 N   0  0  0  0  0  0  0  0  0  0  0  0
   35.4750   31.2850   33.6270 C   0  0  0  0  0  0  0  0  0  0  0  0
   35.7450   32.1610   34.6380 N   0  0  0  0  0  0  0  0  0  0  0  0
   36.0900   31.4020   35.7140 C   0  0  0  0  0  0  0  0  0  0  0  0
   36.0240   30.1310   35.3500 N   0  0  0  0  0  0  0  0  0  0  0  0
   38.4040   26.0610   33.8500 C   0  0  0  0  0  0  0  0  0  0  0  0
   37.9340   26.0370   35.2570 C   0  0  1  0  0  0  0  0  0  0  0  0
   38.5320   23.4790   37.9830 C   0  0  0  0  0  0  0  0  0  0  0  0
   37.9270   24.5670   37.3250 C   0  0  0  0  0  0  0  0  0  0  0  0
   38.5030   24.9180   36.0490 C   0  0  0  0  0  0  0  0  0  0  0  0
   39.5790   24.2060   35.5440 N   0  0  0  0  0  0  0  0  0  0  0  0
   40.0900   23.1870   36.2390 C   0  0  0  0  0  0  0  0  0  0  0  0
   39.5690   22.8220   37.4600 N   0  0  0  0  0  0  0  0  0  0  0  0
   38.2350   27.3690   35.9310 C   0  0  0  0  0  0  0  0  0  0  0  0
   37.2730   23.7208   32.4931 H   0  0  0  0  0  0  0  0  0  0  0  0
   35.2837   24.2821   30.8298 H   0  0  0  0  0  0  0  0  0  0  0  0
   37.7392   28.2889   32.9341 H   0  0  0  0  0  0  0  0  0  0  0  0
   36.2922   30.1564   31.4163 H   0  0  0  0  0  0  0  0  0  0  0  0
   35.4560   29.0435   30.7131 H   0  0  0  0  0  0  0  0  0  0  0  0
   34.4434   28.6375   33.5545 H   0  0  0  0  0  0  0  0  0  0  0  0
   35.1644   31.5613   32.6086 H   0  0  0  0  0  0  0  0  0  0  0  0
   36.3731   31.7777   36.7083 H   0  0  0  0  0  0  0  0  0  0  0  0
   39.1788   25.2894   33.7304 H   0  0  0  0  0  0  0  0  0  0  0  0
   38.7846   27.0750   33.6577 H   0  0  0  0  0  0  0  0  0  0  0  0
   36.8471   25.8712   35.2233 H   0  0  0  0  0  0  0  0  0  0  0  0
   38.1373   23.1606   38.9591 H   0  0  0  0  0  0  0  0  0  0  0  0
   37.0735   25.1123   37.7542 H   0  0  0  0  0  0  0  0  0  0  0  0
   40.9438   22.6283   35.8281 H   0  0  0  0  0  0  0  0  0  0  0  0
   38.2063   27.2420   37.0233 H   0  0  0  0  0  0  0  0  0  0  0  0
   39.2341   27.7156   35.6283 H   0  0  0  0  0  0  0  0  0  0  0  0
   37.4820   28.1115   35.6283 H   0  0  0  0  0  0  0  0  0  0  0  0
  1 14  1  0
  2  1  1  0
  3  4  1  0
  3  2  2  0
  4  5  2  0
  5  6  1  0
  5  1  1  0
  6  8  1  0
  7  6  1  0
  7  8  1  0
  8  9  1  0
  9 13  1  0
 10  9  1  0
 10 11  2  0
 11 12  1  0
 13 12  2  0
 14 15  1  0
 15 22  1  0
 15 18  1  0
 17 16  2  0
 18 17  1  0
 19 18  2  0
 19 20  1  0
 20 21  2  0
 21 16  1  0
  2 23  1  0
  3 24  1  0
  6 25  1  1
  7 26  1  0
  7 27  1  0
  8 28  1  6
 10 29  1  0
 12 30  1  0
 14 31  1  0
 14 32  1  0
 15 33  1  6
 16 34  1  0
 17 35  1  0
 20 36  1  0
 22 37  1  0
 22 38  1  0
 22 39  1  0
M  ISO  8  23  14  24  14  25  13  26  13  27  13  28  13  29  14  30  14
M  ISO  8  31   8  32   8  33   8  34  14  35  14  36  14  37   8  38   8
M  ISO  1  39   8
M  END
>  <minimizedAffinity>  (1) 
-5.22630835

>  <minimizedRMSD>  (1) 
0.890750587

$$$$
