
     RDKit          3D

 45 48  0  0  1  0  0  0  0  0999 V2000
   37.3500   25.7150   32.7290 N   0  0  0  0  0  0  0  0  0  0  0  0
   36.6080   24.6690   32.3620 C   0  0  0  0  0  0  0  0  0  0  0  0
   35.7330   24.9380   31.3400 C   0  0  0  0  0  0  0  0  0  0  0  0
   35.9440   26.2230   31.0560 N   0  0  0  0  0  0  0  0  0  0  0  0
   36.9100   26.6870   31.8860 C   0  0  0  0  0  0  0  0  0  0  0  0
   37.3540   28.1110   31.7490 C   0  0  1  0  0  0  0  0  0  0  0  0
   36.5770   29.0170   30.8760 C   0  0  0  0  0  0  0  0  0  0  0  0
   36.4540   29.1790   32.3490 C   0  0  1  0  0  0  0  0  0  0  0  0
   35.3340   28.9010   33.1390 N   0  0  0  0  0  0  0  0  0  0  0  0
   35.3830   29.6870   34.3830 C   0  0  0  0  0  0  0  0  0  0  0  0
   33.9970   29.6910   34.9230 C   0  0  0  0  0  0  0  0  0  0  0  0
   33.1140   29.4900   33.7410 C   0  0  0  0  0  0  0  0  0  0  0  0
   34.0260   29.0760   32.6180 C   0  0  0  0  0  0  0  0  0  0  0  0
   38.3510   25.9470   33.7010 C   0  0  0  0  0  0  0  0  0  0  0  0
   37.8240   26.0130   35.0870 C   0  0  1  0  0  0  0  0  0  0  0  0
   38.3800   23.6870   38.0210 C   0  0  0  0  0  0  0  0  0  0  0  0
   37.7860   24.7140   37.2670 C   0  0  0  0  0  0  0  0  0  0  0  0
   38.3720   24.9700   35.9810 C   0  0  0  0  0  0  0  0  0  0  0  0
   39.4570   24.2160   35.5650 N   0  0  0  0  0  0  0  0  0  0  0  0
   39.9780   23.2570   36.3170 C   0  0  0  0  0  0  0  0  0  0  0  0
   39.4400   22.9830   37.5620 N   0  0  0  0  0  0  0  0  0  0  0  0
   38.0790   27.3960   35.6800 C   0  0  0  0  0  0  0  0  0  0  0  0
   36.6902   23.6798   32.8361 H   0  0  0  0  0  0  0  0  0  0  0  0
   35.0196   24.2496   30.8634 H   0  0  0  0  0  0  0  0  0  0  0  0
   38.4165   27.8370   31.8273 H   0  0  0  0  0  0  0  0  0  0  0  0
   37.0982   29.7842   30.2846 H   0  0  0  0  0  0  0  0  0  0  0  0
   35.8580   28.8650   30.0575 H   0  0  0  0  0  0  0  0  0  0  0  0
   36.5601   30.0289   33.0392 H   0  0  0  0  0  0  0  0  0  0  0  0
   36.0718   29.2203   35.1026 H   0  0  0  0  0  0  0  0  0  0  0  0
   35.7455   30.7091   34.1987 H   0  0  0  0  0  0  0  0  0  0  0  0
   33.8633   28.8739   35.6472 H   0  0  0  0  0  0  0  0  0  0  0  0
   33.7661   30.6269   35.4529 H   0  0  0  0  0  0  0  0  0  0  0  0
   32.3739   28.7020   33.9445 H   0  0  0  0  0  0  0  0  0  0  0  0
   32.5529   30.4031   33.4931 H   0  0  0  0  0  0  0  0  0  0  0  0
   34.0371   29.8562   31.8427 H   0  0  0  0  0  0  0  0  0  0  0  0
   33.6701   28.1357   32.1717 H   0  0  0  0  0  0  0  0  0  0  0  0
   39.0860   25.1304   33.6461 H   0  0  0  0  0  0  0  0  0  0  0  0
   38.7993   26.9263   33.4775 H   0  0  0  0  0  0  0  0  0  0  0  0
   36.7428   25.8235   35.0153 H   0  0  0  0  0  0  0  0  0  0  0  0
   37.9707   23.4487   39.0138 H   0  0  0  0  0  0  0  0  0  0  0  0
   36.9242   25.2871   37.6395 H   0  0  0  0  0  0  0  0  0  0  0  0
   40.8389   22.6783   35.9510 H   0  0  0  0  0  0  0  0  0  0  0  0
   38.0672   27.3320   36.7781 H   0  0  0  0  0  0  0  0  0  0  0  0
   39.0601   27.7635   35.3447 H   0  0  0  0  0  0  0  0  0  0  0  0
   37.2935   28.0893   35.3447 H   0  0  0  0  0  0  0  0  0  0  0  0
  1 14  1  0
  2  1  1  0
  3  2  2  0
  4  3  1  0
  4  5  2  0
  5  1  1  0
  6  5  1  0
  6  8  1  0
  7  6  1  0
  7  8  1  0
  8  9  1  0
  9 10  1  0
 10 11  1  0
 12 11  1  0
 13  9  1  0
 13 12  1  0
 14 15  1  0
 15 22  1  0
 15 18  1  0
 17 16  2  0
 18 17  1  0
 19 18  2  0
 19 20  1  0
 20 21  2  0
 21 16  1  0
  2 23  1  0
  3 24  1  0
  6 25  1  6
  7 26  1  0
  7 27  1  0
  8 28  1  6
 10 29  1  0
 10 30  1  0
 11 31  1  0
 11 32  1  0
 12 33  1  0
 12 34  1  0
 13 35  1  0
 13 36  1  0
 14 37  1  0
 14 38  1  0
 15 39  1  6
 16 40  1  0
 17 41  1  0
 20 42  1  0
 22 43  1  0
 22 44  1  0
 22 45  1  0
M  ISO  8  23  14  24  14  25  13  26  13  27  13  28  13  29  13  30  13
M  ISO  8  31  13  32  13  33  13  34  13  35  13  36  13  37   8  38   8
M  ISO  7  39   8  40  14  41  14  42  14  43   8  44   8  45   8
M  END
>  <minimizedAffinity>  (1) 
-5.03075361

>  <minimizedRMSD>  (1) 
1.77928543

$$$$
