
     RDKit          3D

 35 37  0  0  1  0  0  0  0  0999 V2000
   38.5700   25.7630   34.0750 C   0  0  0  0  0  0  0  0  0  0  0  0
   37.5900   25.5080   33.1030 N   0  0  0  0  0  0  0  0  0  0  0  0
   37.1500   24.4060   32.4940 C   0  0  0  0  0  0  0  0  0  0  0  0
   36.1280   24.6350   31.5860 C   0  0  0  0  0  0  0  0  0  0  0  0
   35.9360   25.9530   31.6490 N   0  0  0  0  0  0  0  0  0  0  0  0
   36.8110   26.4750   32.5560 C   0  0  0  0  0  0  0  0  0  0  0  0
   36.8270   27.9650   32.8050 C   0  0  1  0  0  0  0  0  0  0  0  0
   35.7280   28.7590   32.2190 C   0  0  0  0  0  0  0  0  0  0  0  0
   35.7100   28.4890   33.7070 C   0  0  2  0  0  0  0  0  0  0  0  0
   36.0060   29.6540   34.4860 N   0  0  0  0  0  0  0  0  0  0  0  0
   38.0510   25.7820   35.4640 C   0  0  1  0  0  0  0  0  0  0  0  0
   38.6650   23.3820   38.3230 C   0  0  0  0  0  0  0  0  0  0  0  0
   38.0610   24.4230   37.5990 C   0  0  0  0  0  0  0  0  0  0  0  0
   38.6220   24.7170   36.3090 C   0  0  0  0  0  0  0  0  0  0  0  0
   39.7030   23.9780   35.8550 N   0  0  0  0  0  0  0  0  0  0  0  0
   40.2370   23.0020   36.5830 C   0  0  0  0  0  0  0  0  0  0  0  0
   39.7100   22.7020   37.8310 N   0  0  0  0  0  0  0  0  0  0  0  0
   38.2920   27.1470   36.1010 C   0  0  0  0  0  0  0  0  0  0  0  0
   39.0225   26.7426   33.8613 H   0  0  0  0  0  0  0  0  0  0  0  0
   39.2968   24.9393   34.0180 H   0  0  0  0  0  0  0  0  0  0  0  0
   37.5611   23.4056   32.6942 H   0  0  0  0  0  0  0  0  0  0  0  0
   35.5992   23.9012   30.9600 H   0  0  0  0  0  0  0  0  0  0  0  0
   37.9240   28.0432   32.7839 H   0  0  0  0  0  0  0  0  0  0  0  0
   35.9257   29.7767   31.8512 H   0  0  0  0  0  0  0  0  0  0  0  0
   35.0133   28.5951   31.3990 H   0  0  0  0  0  0  0  0  0  0  0  0
   35.0336   28.0266   34.4410 H   0  0  0  0  0  0  0  0  0  0  0  0
   35.9469   29.4214   35.4876 H   0  0  0  0  0  0  0  0  0  0  0  0
   36.9571   29.9821   34.2653 H   0  0  0  0  0  0  0  0  0  0  0  0
   36.9700   25.5891   35.3988 H   0  0  0  0  0  0  0  0  0  0  0  0
   38.2716   23.1189   39.3160 H   0  0  0  0  0  0  0  0  0  0  0  0
   37.2033   24.9840   37.9985 H   0  0  0  0  0  0  0  0  0  0  0  0
   41.0954   22.4331   36.1964 H   0  0  0  0  0  0  0  0  0  0  0  0
   38.2746   27.0486   37.1965 H   0  0  0  0  0  0  0  0  0  0  0  0
   39.2720   27.5322   35.7829 H   0  0  0  0  0  0  0  0  0  0  0  0
   37.5031   27.8445   35.7829 H   0  0  0  0  0  0  0  0  0  0  0  0
  1 11  1  0
  2  1  1  0
  3  2  1  0
  4  5  1  0
  4  3  2  0
  5  6  2  0
  6  7  1  0
  6  2  1  0
  7  9  1  0
  8  7  1  0
  8  9  1  0
  9 10  1  0
 11 18  1  0
 11 14  1  0
 13 12  2  0
 14 13  1  0
 15 14  2  0
 15 16  1  0
 16 17  2  0
 17 12  1  0
  1 19  1  0
  1 20  1  0
  3 21  1  0
  4 22  1  0
  7 23  1  1
  8 24  1  0
  8 25  1  0
  9 26  1  1
 10 27  1  0
 10 28  1  0
 11 29  1  6
 12 30  1  0
 13 31  1  0
 16 32  1  0
 18 33  1  0
 18 34  1  0
 18 35  1  0
M  ISO  8  19   8  20   8  21  14  22  14  23  13  24  13  25  13  26  13
M  ISO  8  27   5  28   5  29   8  30  14  31  14  32  14  33   8  34   8
M  ISO  1  35   8
M  END
>  <minimizedAffinity>  (1) 
-4.65486622

>  <minimizedRMSD>  (1) 
0.191837341

$$$$
