
     RDKit          3D

 34 36  0  0  1  0  0  0  0  0999 V2000
   38.7130   25.7220   33.8170 C   0  0  0  0  0  0  0  0  0  0  0  0
   37.7900   25.2440   32.8660 N   0  0  0  0  0  0  0  0  0  0  0  0
   37.0500   24.1400   32.7400 C   0  0  0  0  0  0  0  0  0  0  0  0
   36.2610   24.1190   31.6110 C   0  0  0  0  0  0  0  0  0  0  0  0
   36.5340   25.2820   31.0070 N   0  0  0  0  0  0  0  0  0  0  0  0
   37.4530   25.9570   31.7590 C   0  0  0  0  0  0  0  0  0  0  0  0
   37.9550   27.2890   31.2740 C   0  0  1  0  0  0  0  0  0  0  0  0
   37.0830   28.0610   30.3630 C   0  0  0  0  0  0  0  0  0  0  0  0
   37.2240   28.5120   31.7960 C   0  0  1  0  0  0  0  0  0  0  0  0
   35.8860   28.3560   32.9600 S   0  0  0  0  0  0  0  0  0  0  0  0
   38.1490   25.8800   35.1780 C   0  0  1  0  0  0  0  0  0  0  0  0
   38.4290   23.6420   38.2170 C   0  0  0  0  0  0  0  0  0  0  0  0
   37.9300   24.6720   37.3990 C   0  0  0  0  0  0  0  0  0  0  0  0
   38.6010   24.8400   36.1330 C   0  0  0  0  0  0  0  0  0  0  0  0
   39.6600   24.0200   35.7880 N   0  0  0  0  0  0  0  0  0  0  0  0
   40.0800   23.0610   36.6170 C   0  0  0  0  0  0  0  0  0  0  0  0
   39.4620   22.8690   37.8440 N   0  0  0  0  0  0  0  0  0  0  0  0
   38.4590   27.2700   35.7220 C   0  0  0  0  0  0  0  0  0  0  0  0
   39.0813   26.7020   33.4793 H   0  0  0  0  0  0  0  0  0  0  0  0
   39.5131   24.9706   33.8894 H   0  0  0  0  0  0  0  0  0  0  0  0
   37.0687   23.3198   33.4728 H   0  0  0  0  0  0  0  0  0  0  0  0
   35.5681   23.3304   31.2824 H   0  0  0  0  0  0  0  0  0  0  0  0
   39.0036   26.9589   31.2364 H   0  0  0  0  0  0  0  0  0  0  0  0
   37.5292   28.6591   29.5548 H   0  0  0  0  0  0  0  0  0  0  0  0
   36.2316   27.8104   29.7131 H   0  0  0  0  0  0  0  0  0  0  0  0
   37.5092   29.4481   32.2983 H   0  0  0  0  0  0  0  0  0  0  0  0
   36.3816   28.4138   34.2359 H   0  0  0  0  0  0  0  0  0  0  0  0
   37.0610   25.7532   35.0771 H   0  0  0  0  0  0  0  0  0  0  0  0
   37.9574   23.4638   39.1947 H   0  0  0  0  0  0  0  0  0  0  0  0
   37.0850   25.3066   37.7042 H   0  0  0  0  0  0  0  0  0  0  0  0
   40.9231   22.4179   36.3244 H   0  0  0  0  0  0  0  0  0  0  0  0
   38.4530   27.2431   36.8217 H   0  0  0  0  0  0  0  0  0  0  0  0
   39.4504   27.5894   35.3684 H   0  0  0  0  0  0  0  0  0  0  0  0
   37.6972   27.9804   35.3684 H   0  0  0  0  0  0  0  0  0  0  0  0
  1 11  1  0
  2  1  1  0
  3  2  1  0
  4  3  2  0
  5  4  1  0
  5  6  2  0
  6  2  1  0
  7  6  1  0
  7  9  1  0
  8  7  1  0
  8  9  1  0
  9 10  1  0
 11 18  1  0
 11 14  1  0
 13 12  2  0
 14 13  1  0
 15 14  2  0
 15 16  1  0
 16 17  2  0
 17 12  1  0
  1 19  1  0
  1 20  1  0
  3 21  1  0
  4 22  1  0
  7 23  1  6
  8 24  1  0
  8 25  1  0
  9 26  1  6
 10 27  1  0
 11 28  1  6
 12 29  1  0
 13 30  1  0
 16 31  1  0
 18 32  1  0
 18 33  1  0
 18 34  1  0
M  ISO  8  19   8  20   8  21  14  22  14  23  13  24  13  25  13  26  13
M  ISO  8  27  11  28   8  29  14  30  14  31  14  32   8  33   8  34   8
M  END
>  <minimizedAffinity>  (1) 
-4.33737469

>  <minimizedRMSD>  (1) 
1.04369938

$$$$
