
     RDKit          3D

 20 20  0  0  0  0  0  0  0  0999 V2000
   40.3600   22.4600   37.6020 C   0  0  0  0  0  0  0  0  0  0  0  0
   39.3520   23.3420   37.1310 C   0  0  0  0  0  0  0  0  0  0  0  0
   39.7680   23.8850   35.9570 C   0  0  0  0  0  0  0  0  0  0  0  0
   40.9790   23.6040   35.3510 N   0  0  0  0  0  0  0  0  0  0  0  0
   41.8560   22.7630   35.8730 C   0  0  0  0  0  0  0  0  0  0  0  0
   41.5390   22.1860   37.0140 N   0  0  0  0  0  0  0  0  0  0  0  0
   38.1950   23.4580   37.9410 C   0  0  0  0  0  0  0  0  0  0  0  0
   38.1190   24.7470   38.5650 F   0  0  0  0  0  0  0  0  0  0  0  0
   38.0830   22.8410   39.1150 F   0  0  0  0  0  0  0  0  0  0  0  0
   36.9660   23.7100   37.2720 F   0  0  0  0  0  0  0  0  0  0  0  0
   38.8220   24.7780   35.3860 C   0  0  0  0  0  0  0  0  0  0  0  0
   38.1760   24.3010   34.1900 C   0  0  0  0  0  0  0  0  0  0  0  0
   37.4550   25.5910   33.1390 S   0  0  0  0  0  0  0  0  0  0  0  0
   40.1547   21.9441   38.5516 H   0  0  0  0  0  0  0  0  0  0  0  0
   42.8134   22.5533   35.3736 H   0  0  0  0  0  0  0  0  0  0  0  0
   38.0438   24.9764   36.1377 H   0  0  0  0  0  0  0  0  0  0  0  0
   39.3863   25.6754   35.0923 H   0  0  0  0  0  0  0  0  0  0  0  0
   38.9219   23.7538   33.5948 H   0  0  0  0  0  0  0  0  0  0  0  0
   37.3367   23.6735   34.5244 H   0  0  0  0  0  0  0  0  0  0  0  0
   36.9082   26.5693   33.9269 H   0  0  0  0  0  0  0  0  0  0  0  0
  2  1  2  0
  2  7  1  0
  3  2  1  0
  4  5  1  0
  4  3  2  0
  5  6  2  0
  6  1  1  0
  7  8  1  0
  7  9  1  0
 10  7  1  0
 11  3  1  0
 12 11  1  0
 13 12  1  0
  1 14  1  0
  5 15  1  0
 11 16  1  0
 11 17  1  0
 12 18  1  0
 12 19  1  0
 13 20  1  0
M  ISO  7  14  14  15  14  16   8  17   8  18   8  19   8  20  11
M  END
>  <minimizedAffinity>  (1) 
-3.66817713

>  <minimizedRMSD>  (1) 
3.96331334

$$$$
