
     RDKit          3D

 37 40  0  0  1  0  0  0  0  0999 V2000
   39.2260   26.9240   34.3650 C   0  0  0  0  0  0  0  0  0  0  0  0
   38.3770   26.5680   33.1350 C   0  0  2  0  0  0  0  0  0  0  0  0
   37.9680   27.7380   32.3190 C   0  0  0  0  0  0  0  0  0  0  0  0
   36.9870   26.8350   33.0190 C   0  0  1  0  0  0  0  0  0  0  0  0
   36.3260   25.8140   32.1450 N   0  0  0  0  0  0  0  0  0  0  0  0
   35.4140   26.0260   31.1840 C   0  0  0  0  0  0  0  0  0  0  0  0
   35.0910   24.8320   30.6500 N   0  0  0  0  0  0  0  0  0  0  0  0
   35.7820   23.8670   31.2570 C   0  0  0  0  0  0  0  0  0  0  0  0
   35.9320   22.4970   31.2110 C   0  0  0  0  0  0  0  0  0  0  0  0
   36.7530   21.7880   31.9980 N   0  0  0  0  0  0  0  0  0  0  0  0
   37.4950   22.4280   32.9050 C   0  0  0  0  0  0  0  0  0  0  0  0
   37.4000   23.7790   33.0050 N   0  0  0  0  0  0  0  0  0  0  0  0
   36.5800   24.4930   32.2200 C   0  0  0  0  0  0  0  0  0  0  0  0
   40.0460   25.7730   34.6920 C   0  0  0  0  0  0  0  0  0  0  0  0
   39.2070   22.8010   36.5000 C   0  0  0  0  0  0  0  0  0  0  0  0
   39.9020   23.6120   35.5690 C   0  0  0  0  0  0  0  0  0  0  0  0
   39.4130   24.8520   35.5590 C   0  0  0  0  0  0  0  0  0  0  0  0
   38.3590   25.2570   36.3690 N   0  0  0  0  0  0  0  0  0  0  0  0
   37.7530   24.4430   37.2190 C   0  0  0  0  0  0  0  0  0  0  0  0
   38.1810   23.2050   37.2840 N   0  0  0  0  0  0  0  0  0  0  0  0
   40.9460   22.9530   34.8750 C   0  0  0  0  0  0  0  0  0  0  0  0
   40.8090   23.0530   33.4680 F   0  0  0  0  0  0  0  0  0  0  0  0
   41.0100   21.6130   34.7790 F   0  0  0  0  0  0  0  0  0  0  0  0
   42.1990   23.5680   34.8160 F   0  0  0  0  0  0  0  0  0  0  0  0
   38.5699   27.1681   35.2135 H   0  0  0  0  0  0  0  0  0  0  0  0
   39.8604   27.7970   34.1518 H   0  0  0  0  0  0  0  0  0  0  0  0
   38.9255   25.6237   33.0029 H   0  0  0  0  0  0  0  0  0  0  0  0
   38.0641   27.7163   31.2234 H   0  0  0  0  0  0  0  0  0  0  0  0
   38.1888   28.8155   32.3047 H   0  0  0  0  0  0  0  0  0  0  0  0
   36.1465   27.0259   33.7024 H   0  0  0  0  0  0  0  0  0  0  0  0
   35.0030   27.0016   30.8852 H   0  0  0  0  0  0  0  0  0  0  0  0
   35.3325   21.9444   30.4726 H   0  0  0  0  0  0  0  0  0  0  0  0
   38.1751   21.8676   33.5634 H   0  0  0  0  0  0  0  0  0  0  0  0
   40.3010   25.2515   33.7576 H   0  0  0  0  0  0  0  0  0  0  0  0
   40.9352   26.1507   35.2179 H   0  0  0  0  0  0  0  0  0  0  0  0
   39.5291   21.7534   36.5934 H   0  0  0  0  0  0  0  0  0  0  0  0
   36.9208   24.7922   37.8479 H   0  0  0  0  0  0  0  0  0  0  0  0
  1 14  1  0
  2  1  1  0
  3  4  1  0
  3  2  1  0
  4  2  1  0
  5 13  1  0
  5  4  1  0
  6  5  1  0
  7  6  2  0
  7  8  1  0
  8 13  2  0
  9  8  1  0
  9 10  2  0
 10 11  1  0
 11 12  2  0
 13 12  1  0
 14 17  1  0
 15 20  2  0
 16 15  1  0
 17 16  2  0
 17 18  1  0
 18 19  2  0
 19 20  1  0
 21 16  1  0
 22 21  1  0
 23 21  1  0
 24 21  1  0
  1 25  1  0
  1 26  1  0
  2 27  1  6
  3 28  1  0
  3 29  1  0
  4 30  1  1
  6 31  1  0
  9 32  1  0
 11 33  1  0
 14 34  1  0
 14 35  1  0
 15 36  1  0
 19 37  1  0
M  ISO  8  25   8  26   8  27  13  28  13  29  13  30  13  31  14  32  14
M  ISO  5  33  14  34   8  35   8  36  14  37  14
M  END
>  <minimizedAffinity>  (1) 
-4.89355755

>  <minimizedRMSD>  (1) 
4.98309422

$$$$
