
     RDKit          3D

 44 46  0  0  1  0  0  0  0  0999 V2000
   40.7060   22.0020   35.8770 C   0  0  0  0  0  0  0  0  0  0  0  0
   39.8000   22.8260   36.6510 C   0  0  0  0  0  0  0  0  0  0  0  0
   39.7260   22.7810   38.0400 C   0  0  0  0  0  0  0  0  0  0  0  0
   38.8260   23.5800   38.7340 C   0  0  0  0  0  0  0  0  0  0  0  0
   37.9780   24.4410   38.0580 C   0  0  0  0  0  0  0  0  0  0  0  0
   38.0350   24.5040   36.6480 C   0  0  0  0  0  0  0  0  0  0  0  0
   38.9450   23.6900   36.0000 C   0  0  0  0  0  0  0  0  0  0  0  0
   38.7810   23.9050   34.6040 N   0  0  0  0  0  0  0  0  0  0  0  0
   37.8830   23.1360   33.7180 C   0  0  0  0  0  0  0  0  0  0  0  0
   37.6130   23.9120   32.4730 C   0  0  0  0  0  0  0  0  0  0  0  0
   37.3590   25.3550   32.8560 C   0  0  0  0  0  0  0  0  0  0  0  0
   38.6150   26.0180   33.3790 C   0  0  0  0  0  0  0  0  0  0  0  0
   39.5560   25.0020   33.9910 C   0  0  0  0  0  0  0  0  0  0  0  0
   42.0690   22.5100   35.6470 C   0  0  2  0  0  0  0  0  0  0  0  0
   43.0650   21.4440   35.9970 C   0  0  0  0  0  0  0  0  0  0  0  0
   42.6650   20.3400   36.7550 C   0  0  0  0  0  0  0  0  0  0  0  0
   43.5980   19.3750   37.0730 C   0  0  0  0  0  0  0  0  0  0  0  0
   44.8800   19.5640   36.6180 N   0  0  0  0  0  0  0  0  0  0  0  0
   45.2500   20.6290   35.8890 C   0  0  0  0  0  0  0  0  0  0  0  0
   44.3250   21.5600   35.5890 N   0  0  0  0  0  0  0  0  0  0  0  0
   42.4470   23.6900   36.5260 C   0  0  0  0  0  0  0  0  0  0  0  0
   40.7988   21.0377   36.3980 H   0  0  0  0  0  0  0  0  0  0  0  0
   40.2537   21.9584   34.8752 H   0  0  0  0  0  0  0  0  0  0  0  0
   40.3898   22.1029   38.5965 H   0  0  0  0  0  0  0  0  0  0  0  0
   38.7866   23.5281   39.8321 H   0  0  0  0  0  0  0  0  0  0  0  0
   37.2668   25.0699   38.6136 H   0  0  0  0  0  0  0  0  0  0  0  0
   37.3758   25.1797   36.0833 H   0  0  0  0  0  0  0  0  0  0  0  0
   38.3599   22.1800   33.4559 H   0  0  0  0  0  0  0  0  0  0  0  0
   36.9336   22.9466   34.2402 H   0  0  0  0  0  0  0  0  0  0  0  0
   36.7287   23.5015   31.9636 H   0  0  0  0  0  0  0  0  0  0  0  0
   38.4747   23.8472   31.7924 H   0  0  0  0  0  0  0  0  0  0  0  0
   37.0074   25.9037   31.9698 H   0  0  0  0  0  0  0  0  0  0  0  0
   36.6011   25.3729   33.6530 H   0  0  0  0  0  0  0  0  0  0  0  0
   39.1260   26.5251   32.5473 H   0  0  0  0  0  0  0  0  0  0  0  0
   38.3291   26.7411   34.1571 H   0  0  0  0  0  0  0  0  0  0  0  0
   40.2106   24.5927   33.2074 H   0  0  0  0  0  0  0  0  0  0  0  0
   40.1646   25.4922   34.7652 H   0  0  0  0  0  0  0  0  0  0  0  0
   42.0830   22.8143   34.5900 H   0  0  0  0  0  0  0  0  0  0  0  0
   41.6227   20.2422   37.0927 H   0  0  0  0  0  0  0  0  0  0  0  0
   43.3262   18.4899   37.6670 H   0  0  0  0  0  0  0  0  0  0  0  0
   46.2886   20.7387   35.5436 H   0  0  0  0  0  0  0  0  0  0  0  0
   42.3552   23.4033   37.5840 H   0  0  0  0  0  0  0  0  0  0  0  0
   43.4851   23.9865   36.3152 H   0  0  0  0  0  0  0  0  0  0  0  0
   41.7744   24.5345   36.3152 H   0  0  0  0  0  0  0  0  0  0  0  0
  1  2  1  0
  2  3  2  0
  3  4  1  0
  5  4  2  0
  6  5  1  0
  7  6  2  0
  7  2  1  0
  8  7  1  0
  9  8  1  0
 10 11  1  0
 10  9  1  0
 11 12  1  0
 12 13  1  0
 13  8  1  0
 14  1  1  0
 14 15  1  0
 14 21  1  0
 15 16  2  0
 16 17  1  0
 18 17  2  0
 19 18  1  0
 20 19  2  0
 20 15  1  0
  1 22  1  0
  1 23  1  0
  3 24  1  0
  4 25  1  0
  5 26  1  0
  6 27  1  0
  9 28  1  0
  9 29  1  0
 10 30  1  0
 10 31  1  0
 11 32  1  0
 11 33  1  0
 12 34  1  0
 12 35  1  0
 13 36  1  0
 13 37  1  0
 14 38  1  6
 16 39  1  0
 17 40  1  0
 19 41  1  0
 21 42  1  0
 21 43  1  0
 21 44  1  0
M  ISO  8  22   8  23   8  24  14  25  14  26  14  27  14  28  13  29  13
M  ISO  8  30  13  31  13  32  13  33  13  34  13  35  13  36  13  37  13
M  ISO  7  38   8  39  14  40  14  41  14  42   8  43   8  44   8
M  END
>  <minimizedAffinity>  (1) 
-4.53853035

>  <minimizedRMSD>  (1) 
2.30561662

$$$$
