
     RDKit          3D

 32 34  0  0  1  0  0  0  0  0999 V2000
   39.6000   24.4150   35.2740 C   0  0  0  0  0  0  0  0  0  0  0  0
   42.7180   23.1870   36.5350 C   0  0  0  0  0  0  0  0  0  0  0  0
   41.3080   23.2590   36.3720 C   0  0  0  0  0  0  0  0  0  0  0  0
   40.9770   24.2560   35.5510 C   0  0  0  0  0  0  0  0  0  0  0  0
   41.9220   25.0880   34.9560 N   0  0  0  0  0  0  0  0  0  0  0  0
   43.2220   24.9640   35.1520 C   0  0  0  0  0  0  0  0  0  0  0  0
   43.6170   24.0030   35.9500 N   0  0  0  0  0  0  0  0  0  0  0  0
   40.5740   22.2800   37.0860 C   0  0  0  0  0  0  0  0  0  0  0  0
   39.7880   22.8400   38.1230 F   0  0  0  0  0  0  0  0  0  0  0  0
   41.1560   21.4470   37.9690 F   0  0  0  0  0  0  0  0  0  0  0  0
   39.4400   21.7330   36.4870 F   0  0  0  0  0  0  0  0  0  0  0  0
   39.2230   25.7670   34.9170 C   0  0  0  0  0  0  0  0  0  0  0  0
   38.4750   25.7160   33.5800 C   0  0  2  0  0  0  0  0  0  0  0  0
   38.7300   26.8750   32.6840 C   0  0  0  0  0  0  0  0  0  0  0  0
   37.3710   26.5510   33.2400 C   0  0  1  0  0  0  0  0  0  0  0  0
   36.4780   25.8820   32.2430 N   0  0  0  0  0  0  0  0  0  0  0  0
   35.5930   26.3870   31.3400 C   0  0  0  0  0  0  0  0  0  0  0  0
   35.0320   25.3890   30.6730 N   0  0  0  0  0  0  0  0  0  0  0  0
   35.5340   24.2520   31.1250 C   0  0  0  0  0  0  0  0  0  0  0  0
   36.4060   24.5500   32.0720 N   0  0  0  0  0  0  0  0  0  0  0  0
   39.3364   23.7503   34.4381 H   0  0  0  0  0  0  0  0  0  0  0  0
   39.0587   24.1676   36.1991 H   0  0  0  0  0  0  0  0  0  0  0  0
   43.1087   22.3982   37.1947 H   0  0  0  0  0  0  0  0  0  0  0  0
   43.9423   25.6386   34.6661 H   0  0  0  0  0  0  0  0  0  0  0  0
   38.5690   26.1892   35.6942 H   0  0  0  0  0  0  0  0  0  0  0  0
   40.1174   26.4012   34.8291 H   0  0  0  0  0  0  0  0  0  0  0  0
   38.5652   24.6200   33.5556 H   0  0  0  0  0  0  0  0  0  0  0  0
   38.9486   26.7186   31.6174 H   0  0  0  0  0  0  0  0  0  0  0  0
   39.4016   27.7462   32.6820 H   0  0  0  0  0  0  0  0  0  0  0  0
   36.6146   27.1227   33.7977 H   0  0  0  0  0  0  0  0  0  0  0  0
   35.3777   27.4550   31.1881 H   0  0  0  0  0  0  0  0  0  0  0  0
   35.2731   23.2420   30.7761 H   0  0  0  0  0  0  0  0  0  0  0  0
  1  4  1  0
  3  2  2  0
  3  8  1  0
  4  3  1  0
  5  6  1  0
  5  4  2  0
  6  7  2  0
  7  2  1  0
  8 10  1  0
  8  9  1  0
 11  8  1  0
 12  1  1  0
 13 12  1  0
 14 15  1  0
 14 13  1  0
 15 13  1  0
 16 15  1  0
 17 16  1  0
 18 19  1  0
 18 17  2  0
 19 20  2  0
 20 16  1  0
  1 21  1  0
  1 22  1  0
  2 23  1  0
  6 24  1  0
 12 25  1  0
 12 26  1  0
 13 27  1  6
 14 28  1  0
 14 29  1  0
 15 30  1  1
 17 31  1  0
 19 32  1  0
M  ISO  8  21   8  22   8  23  14  24  14  25   8  26   8  27  13  28  13
M  ISO  4  29  13  30  13  31  14  32  14
M  END
>  <minimizedAffinity>  (1) 
-4.60154057

>  <minimizedRMSD>  (1) 
3.74254823

$$$$
