
     RDKit          3D

 42 45  0  0  1  0  0  0  0  0999 V2000
   41.6420   27.3230   33.5380 C   0  0  0  0  0  0  0  0  0  0  0  0
   40.3760   26.4780   33.7530 C   0  0  2  0  0  0  0  0  0  0  0  0
   39.2120   27.2320   34.2800 C   0  0  0  0  0  0  0  0  0  0  0  0
   39.8790   26.0970   35.0260 C   0  0  1  0  0  0  0  0  0  0  0  0
   39.1540   24.7530   34.9440 C   0  0  0  0  0  0  0  0  0  0  0  0
   39.0740   24.0200   33.8070 C   0  0  0  0  0  0  0  0  0  0  0  0
   38.4190   22.8150   33.7330 C   0  0  0  0  0  0  0  0  0  0  0  0
   37.8070   22.3120   34.8610 C   0  0  0  0  0  0  0  0  0  0  0  0
   37.8650   23.0180   36.0230 C   0  0  0  0  0  0  0  0  0  0  0  0
   37.2480   22.5050   37.1470 C   0  0  0  0  0  0  0  0  0  0  0  0
   37.2720   23.1670   38.3410 C   0  0  0  0  0  0  0  0  0  0  0  0
   37.9300   24.3690   38.3970 C   0  0  0  0  0  0  0  0  0  0  0  0
   38.5450   24.8730   37.2620 C   0  0  0  0  0  0  0  0  0  0  0  0
   38.5310   24.2200   36.0520 C   0  0  0  0  0  0  0  0  0  0  0  0
   42.7160   26.4350   33.1480 C   0  0  0  0  0  0  0  0  0  0  0  0
   45.1940   25.5510   35.5800 C   0  0  0  0  0  0  0  0  0  0  0  0
   44.0110   25.4070   34.7960 C   0  0  0  0  0  0  0  0  0  0  0  0
   43.8370   26.4700   34.0070 C   0  0  0  0  0  0  0  0  0  0  0  0
   44.7200   27.5480   33.9900 N   0  0  0  0  0  0  0  0  0  0  0  0
   45.7960   27.6110   34.7460 C   0  0  0  0  0  0  0  0  0  0  0  0
   46.0260   26.5970   35.5460 N   0  0  0  0  0  0  0  0  0  0  0  0
   43.2920   24.1990   35.0070 C   0  0  0  0  0  0  0  0  0  0  0  0
   42.2700   24.3500   35.9770 F   0  0  0  0  0  0  0  0  0  0  0  0
   43.8110   23.1710   35.7020 F   0  0  0  0  0  0  0  0  0  0  0  0
   42.3590   23.8060   34.0520 F   0  0  0  0  0  0  0  0  0  0  0  0
   41.4649   28.0643   32.7449 H   0  0  0  0  0  0  0  0  0  0  0  0
   41.9058   27.8555   34.4637 H   0  0  0  0  0  0  0  0  0  0  0  0
   40.6207   25.8575   32.8783 H   0  0  0  0  0  0  0  0  0  0  0  0
   39.3271   28.2708   34.6229 H   0  0  0  0  0  0  0  0  0  0  0  0
   38.1950   27.4720   33.9363 H   0  0  0  0  0  0  0  0  0  0  0  0
   40.2779   25.9982   36.0463 H   0  0  0  0  0  0  0  0  0  0  0  0
   39.5574   24.4092   32.8988 H   0  0  0  0  0  0  0  0  0  0  0  0
   38.3833   22.2581   32.7850 H   0  0  0  0  0  0  0  0  0  0  0  0
   37.2767   21.3490   34.8223 H   0  0  0  0  0  0  0  0  0  0  0  0
   36.7246   21.5399   37.0788 H   0  0  0  0  0  0  0  0  0  0  0  0
   36.7786   22.7490   39.2308 H   0  0  0  0  0  0  0  0  0  0  0  0
   37.9695   24.9320   39.3412 H   0  0  0  0  0  0  0  0  0  0  0  0
   39.0676   25.8384   37.3322 H   0  0  0  0  0  0  0  0  0  0  0  0
   42.3252   25.4069   33.1326 H   0  0  0  0  0  0  0  0  0  0  0  0
   43.0635   26.7737   32.1608 H   0  0  0  0  0  0  0  0  0  0  0  0
   45.4428   24.7321   36.2710 H   0  0  0  0  0  0  0  0  0  0  0  0
   46.4733   28.4769   34.7085 H   0  0  0  0  0  0  0  0  0  0  0  0
  1  2  1  0
  2  3  1  0
  2  4  1  0
  3  4  1  0
  5  4  1  0
  5 14  1  0
  6  5  2  0
  7  6  1  0
  7  8  2  0
  8  9  1  0
  9 14  2  0
  9 10  1  0
 10 11  2  0
 11 12  1  0
 13 12  2  0
 14 13  1  0
 15  1  1  0
 15 18  1  0
 17 22  1  0
 17 16  2  0
 18 17  1  0
 19 18  2  0
 19 20  1  0
 20 21  2  0
 21 16  1  0
 22 24  1  0
 22 23  1  0
 25 22  1  0
  1 26  1  0
  1 27  1  0
  2 28  1  6
  3 29  1  0
  3 30  1  0
  4 31  1  1
  6 32  1  0
  7 33  1  0
  8 34  1  0
 10 35  1  0
 11 36  1  0
 12 37  1  0
 13 38  1  0
 15 39  1  0
 15 40  1  0
 16 41  1  0
 20 42  1  0
M  ISO  8  26   8  27   8  28  13  29  13  30  13  31  13  32  14  33  14
M  ISO  8  34  14  35  14  36  14  37  14  38  14  39   8  40   8  41  14
M  ISO  1  42  14
M  END
>  <minimizedAffinity>  (1) 
-4.50269842

>  <minimizedRMSD>  (1) 
4.17949724

$$$$
