
     RDKit          3D

 29 30  0  0  1  0  0  0  0  0999 V2000
   40.4130   23.4730   34.4400 C   0  0  0  0  0  0  0  0  0  0  0  0
   43.1290   23.3370   36.7700 C   0  0  0  0  0  0  0  0  0  0  0  0
   41.9270   22.9140   36.1290 C   0  0  0  0  0  0  0  0  0  0  0  0
   41.5760   23.7850   35.1770 C   0  0  0  0  0  0  0  0  0  0  0  0
   42.3160   24.9310   34.8890 N   0  0  0  0  0  0  0  0  0  0  0  0
   43.4200   25.2540   35.5280 C   0  0  0  0  0  0  0  0  0  0  0  0
   43.8240   24.4420   36.4770 N   0  0  0  0  0  0  0  0  0  0  0  0
   41.3730   21.6990   36.6110 C   0  0  0  0  0  0  0  0  0  0  0  0
   41.4330   21.6070   38.0230 F   0  0  0  0  0  0  0  0  0  0  0  0
   42.0300   20.5270   36.5000 F   0  0  0  0  0  0  0  0  0  0  0  0
   39.9910   21.5600   36.6300 F   0  0  0  0  0  0  0  0  0  0  0  0
   39.3970   24.5100   34.4740 C   0  0  0  0  0  0  0  0  0  0  0  0
   38.5010   24.2670   35.6910 C   0  0  2  0  0  0  0  0  0  0  0  0
   37.5990   25.3950   36.0320 C   0  0  0  0  0  0  0  0  0  0  0  0
   38.6720   24.9060   36.9640 C   0  0  1  0  0  0  0  0  0  0  0  0
   38.1750   24.0010   38.1150 C   0  0  0  0  0  0  0  0  0  0  0  0
   39.2500   23.4230   38.7580 F   0  0  0  0  0  0  0  0  0  0  0  0
   37.4260   24.7400   39.0000 F   0  0  0  0  0  0  0  0  0  0  0  0
   37.4450   22.9790   37.5570 F   0  0  0  0  0  0  0  0  0  0  0  0
   39.9793   22.5500   34.8523 H   0  0  0  0  0  0  0  0  0  0  0  0
   40.7213   23.3634   33.3898 H   0  0  0  0  0  0  0  0  0  0  0  0
   43.5189   22.6984   37.5763 H   0  0  0  0  0  0  0  0  0  0  0  0
   43.9810   26.1664   35.2774 H   0  0  0  0  0  0  0  0  0  0  0  0
   39.8758   25.4969   34.5560 H   0  0  0  0  0  0  0  0  0  0  0  0
   38.7981   24.4835   33.5517 H   0  0  0  0  0  0  0  0  0  0  0  0
   38.4253   23.1990   35.4389 H   0  0  0  0  0  0  0  0  0  0  0  0
   37.7027   26.3646   35.5230 H   0  0  0  0  0  0  0  0  0  0  0  0
   36.5116   25.5516   36.0876 H   0  0  0  0  0  0  0  0  0  0  0  0
   39.4896   25.4055   37.5044 H   0  0  0  0  0  0  0  0  0  0  0  0
  1 12  1  0
  1  4  1  0
  3  8  1  0
  3  2  2  0
  4  3  1  0
  5  4  2  0
  5  6  1  0
  6  7  2  0
  7  2  1  0
  8 11  1  0
  8  9  1  0
 10  8  1  0
 12 13  1  0
 13 14  1  0
 13 15  1  0
 14 15  1  0
 15 16  1  0
 16 17  1  0
 16 18  1  0
 19 16  1  0
  1 20  1  0
  1 21  1  0
  2 22  1  0
  6 23  1  0
 12 24  1  0
 12 25  1  0
 13 26  1  1
 14 27  1  0
 14 28  1  0
 15 29  1  1
M  ISO  8  20   8  21   8  22  14  23  14  24   8  25   8  26  13  27  13
M  ISO  2  28  13  29  13
M  END
>  <minimizedAffinity>  (1) 
-4.33875084

>  <minimizedRMSD>  (1) 
1.87923157

$$$$
