
     RDKit          3D

 37 39  0  0  1  0  0  0  0  0999 V2000
   40.9790   21.6920   37.0030 C   0  0  0  0  0  0  0  0  0  0  0  0
   39.8660   22.6060   37.1420 C   0  0  0  0  0  0  0  0  0  0  0  0
   39.4430   23.0730   38.3860 C   0  0  0  0  0  0  0  0  0  0  0  0
   38.4010   23.9480   38.5800 C   0  0  0  0  0  0  0  0  0  0  0  0
   37.7260   24.4020   37.4970 C   0  0  0  0  0  0  0  0  0  0  0  0
   38.1260   23.9510   36.2380 C   0  0  0  0  0  0  0  0  0  0  0  0
   39.1750   23.0650   36.0530 C   0  0  0  0  0  0  0  0  0  0  0  0
   39.2890   22.7720   34.6410 C   0  0  0  0  0  0  0  0  0  0  0  0
   38.7470   21.7380   33.9060 C   0  0  0  0  0  0  0  0  0  0  0  0
   38.7950   21.5390   32.5690 C   0  0  0  0  0  0  0  0  0  0  0  0
   39.4590   22.4700   31.8460 N   0  0  0  0  0  0  0  0  0  0  0  0
   40.0170   23.5110   32.4900 C   0  0  0  0  0  0  0  0  0  0  0  0
   39.9190   23.6270   33.8180 N   0  0  0  0  0  0  0  0  0  0  0  0
   42.1250   22.1360   36.1970 C   0  0  2  0  0  0  0  0  0  0  0  0
   43.2510   21.1550   36.3410 C   0  0  0  0  0  0  0  0  0  0  0  0
   43.0320   19.9280   36.9770 C   0  0  0  0  0  0  0  0  0  0  0  0
   44.0810   19.0250   37.0930 C   0  0  0  0  0  0  0  0  0  0  0  0
   45.2790   19.4040   36.5700 N   0  0  0  0  0  0  0  0  0  0  0  0
   45.4770   20.6030   35.9550 C   0  0  0  0  0  0  0  0  0  0  0  0
   44.4470   21.4870   35.8420 N   0  0  0  0  0  0  0  0  0  0  0  0
   42.7180   23.4600   36.6720 C   0  0  0  0  0  0  0  0  0  0  0  0
   41.3527   21.4717   38.0139 H   0  0  0  0  0  0  0  0  0  0  0  0
   40.5680   20.8311   36.4554 H   0  0  0  0  0  0  0  0  0  0  0  0
   39.9819   22.7155   39.2758 H   0  0  0  0  0  0  0  0  0  0  0  0
   38.1212   24.2726   39.5931 H   0  0  0  0  0  0  0  0  0  0  0  0
   36.8874   25.1054   37.6064 H   0  0  0  0  0  0  0  0  0  0  0  0
   37.5840   24.3154   35.3529 H   0  0  0  0  0  0  0  0  0  0  0  0
   38.2044   20.9749   34.4833 H   0  0  0  0  0  0  0  0  0  0  0  0
   38.3199   20.6674   32.0952 H   0  0  0  0  0  0  0  0  0  0  0  0
   40.5607   24.2762   31.9166 H   0  0  0  0  0  0  0  0  0  0  0  0
   41.7394   22.2311   35.1712 H   0  0  0  0  0  0  0  0  0  0  0  0
   42.0391   19.6811   37.3810 H   0  0  0  0  0  0  0  0  0  0  0  0
   43.9497   18.0496   37.5844 H   0  0  0  0  0  0  0  0  0  0  0  0
   46.4677   20.8571   35.5500 H   0  0  0  0  0  0  0  0  0  0  0  0
   42.7285   23.4835   37.7717 H   0  0  0  0  0  0  0  0  0  0  0  0
   43.7461   23.5582   36.2933 H   0  0  0  0  0  0  0  0  0  0  0  0
   42.1067   24.2924   36.2933 H   0  0  0  0  0  0  0  0  0  0  0  0
  1  2  1  0
  2  3  2  0
  3  4  1  0
  5  4  2  0
  6  5  1  0
  7  6  2  0
  7  2  1  0
  8  7  1  0
  9  8  2  0
 10  9  1  0
 11 12  1  0
 11 10  2  0
 12 13  2  0
 13  8  1  0
 14 15  1  0
 14 21  1  0
 14  1  1  0
 15 16  2  0
 16 17  1  0
 18 17  2  0
 19 18  1  0
 20 19  2  0
 20 15  1  0
  1 22  1  0
  1 23  1  0
  3 24  1  0
  4 25  1  0
  5 26  1  0
  6 27  1  0
  9 28  1  0
 10 29  1  0
 12 30  1  0
 14 31  1  6
 16 32  1  0
 17 33  1  0
 19 34  1  0
 21 35  1  0
 21 36  1  0
 21 37  1  0
M  ISO  8  22   8  23   8  24  14  25  14  26  14  27  14  28  14  29  14
M  ISO  8  30  14  31   8  32  14  33  14  34  14  35   8  36   8  37   8
M  END
>  <minimizedAffinity>  (1) 
-4.53088188

>  <minimizedRMSD>  (1) 
0.756256342

$$$$
