
     RDKit          3D

 38 40  0  0  1  0  0  0  0  0999 V2000
   39.7160   25.0840   35.3530 C   0  0  0  0  0  0  0  0  0  0  0  0
   38.3390   24.5510   35.7680 C   0  0  2  0  0  0  0  0  0  0  0  0
   38.0350   24.6890   37.2080 C   0  0  0  0  0  0  0  0  0  0  0  0
   38.1440   23.3370   36.5090 C   0  0  1  0  0  0  0  0  0  0  0  0
   36.8520   22.7020   36.1430 N   0  0  0  0  0  0  0  0  0  0  0  0
   37.0800   21.6710   35.1470 C   0  0  0  0  0  0  0  0  0  0  0  0
   35.8230   20.8220   35.2290 C   0  0  0  0  0  0  0  0  0  0  0  0
   35.3820   20.9220   36.6780 C   0  0  0  0  0  0  0  0  0  0  0  0
   36.3440   21.9090   37.2370 C   0  0  0  0  0  0  0  0  0  0  0  0
   40.5610   23.9540   35.0050 C   0  0  0  0  0  0  0  0  0  0  0  0
   43.6490   23.3390   36.6970 C   0  0  0  0  0  0  0  0  0  0  0  0
   42.2980   23.1230   36.3340 C   0  0  0  0  0  0  0  0  0  0  0  0
   41.8890   24.0640   35.4740 C   0  0  0  0  0  0  0  0  0  0  0  0
   42.7140   25.0900   35.0270 N   0  0  0  0  0  0  0  0  0  0  0  0
   43.9750   25.2230   35.4150 C   0  0  0  0  0  0  0  0  0  0  0  0
   44.4450   24.3340   36.2610 N   0  0  0  0  0  0  0  0  0  0  0  0
   41.6850   21.9940   36.9250 C   0  0  0  0  0  0  0  0  0  0  0  0
   40.8260   22.3480   37.9970 F   0  0  0  0  0  0  0  0  0  0  0  0
   42.3590   21.1530   37.7280 F   0  0  0  0  0  0  0  0  0  0  0  0
   40.6300   21.3750   36.2500 F   0  0  0  0  0  0  0  0  0  0  0  0
   39.6099   25.7498   34.4838 H   0  0  0  0  0  0  0  0  0  0  0  0
   40.1664   25.6511   36.1810 H   0  0  0  0  0  0  0  0  0  0  0  0
   37.9020   24.8690   34.8099 H   0  0  0  0  0  0  0  0  0  0  0  0
   38.8127   25.0166   37.9135 H   0  0  0  0  0  0  0  0  0  0  0  0
   37.2805   25.2115   37.8143 H   0  0  0  0  0  0  0  0  0  0  0  0
   38.7109   22.4190   36.7233 H   0  0  0  0  0  0  0  0  0  0  0  0
   37.1945   22.1097   34.1448 H   0  0  0  0  0  0  0  0  0  0  0  0
   38.0004   21.0958   35.3257 H   0  0  0  0  0  0  0  0  0  0  0  0
   35.0447   21.2161   34.5589 H   0  0  0  0  0  0  0  0  0  0  0  0
   36.0035   19.7817   34.9206 H   0  0  0  0  0  0  0  0  0  0  0  0
   34.3473   21.2873   36.7548 H   0  0  0  0  0  0  0  0  0  0  0  0
   35.3855   19.9571   37.2061 H   0  0  0  0  0  0  0  0  0  0  0  0
   37.1727   21.3832   37.7338 H   0  0  0  0  0  0  0  0  0  0  0  0
   35.8462   22.5521   37.9776 H   0  0  0  0  0  0  0  0  0  0  0  0
   40.1165   23.0443   35.4349 H   0  0  0  0  0  0  0  0  0  0  0  0
   40.6129   23.9216   33.9067 H   0  0  0  0  0  0  0  0  0  0  0  0
   44.0925   22.6235   37.4051 H   0  0  0  0  0  0  0  0  0  0  0  0
   44.6034   26.0457   35.0431 H   0  0  0  0  0  0  0  0  0  0  0  0
  1  2  1  0
  2  4  1  0
  2  3  1  0
  4  3  1  0
  5  6  1  0
  5  4  1  0
  5  9  1  0
  6  7  1  0
  7  8  1  0
  8  9  1  0
 10  1  1  0
 10 13  1  0
 12 11  2  0
 12 17  1  0
 13 12  1  0
 14 15  1  0
 14 13  2  0
 15 16  2  0
 16 11  1  0
 17 19  1  0
 17 18  1  0
 20 17  1  0
  1 21  1  0
  1 22  1  0
  2 23  1  6
  3 24  1  0
  3 25  1  0
  4 26  1  1
  6 27  1  0
  6 28  1  0
  7 29  1  0
  7 30  1  0
  8 31  1  0
  8 32  1  0
  9 33  1  0
  9 34  1  0
 10 35  1  0
 10 36  1  0
 11 37  1  0
 15 38  1  0
M  ISO  8  21   8  22   8  23  13  24  13  25  13  26  13  27  13  28  13
M  ISO  8  29  13  30  13  31  13  32  13  33  13  34  13  35   8  36   8
M  ISO  2  37  14  38  14
M  END
>  <minimizedAffinity>  (1) 
-4.01465893

>  <minimizedRMSD>  (1) 
0.950333595

$$$$
