
     RDKit          3D

 27 28  0  0  1  0  0  0  0  0999 V2000
   39.7830   23.8860   35.3270 C   0  0  0  0  0  0  0  0  0  0  0  0
   43.2230   23.6020   36.2830 C   0  0  0  0  0  0  0  0  0  0  0  0
   41.8450   23.2510   36.2280 C   0  0  0  0  0  0  0  0  0  0  0  0
   41.1620   24.1400   35.4960 C   0  0  0  0  0  0  0  0  0  0  0  0
   41.7660   25.2400   34.8950 N   0  0  0  0  0  0  0  0  0  0  0  0
   43.0560   25.5020   34.9920 C   0  0  0  0  0  0  0  0  0  0  0  0
   43.7840   24.6680   35.6960 N   0  0  0  0  0  0  0  0  0  0  0  0
   41.4950   22.0680   36.9270 C   0  0  0  0  0  0  0  0  0  0  0  0
   40.8000   22.3460   38.1330 F   0  0  0  0  0  0  0  0  0  0  0  0
   42.4070   21.3520   37.6110 F   0  0  0  0  0  0  0  0  0  0  0  0
   40.4310   21.3080   36.4560 F   0  0  0  0  0  0  0  0  0  0  0  0
   38.9220   24.9220   35.8610 C   0  0  0  0  0  0  0  0  0  0  0  0
   37.7770   24.2410   36.6240 C   0  0  2  0  0  0  0  0  0  0  0  0
   37.9510   24.2280   38.0970 C   0  0  0  0  0  0  0  0  0  0  0  0
   37.8810   22.9750   37.2570 C   0  0  1  0  0  0  0  0  0  0  0  0
   36.6040   22.3080   37.2670 O   0  0  0  0  0  0  0  0  0  0  0  0
   39.5790   23.7878   34.2506 H   0  0  0  0  0  0  0  0  0  0  0  0
   39.5584   22.9662   35.8870 H   0  0  0  0  0  0  0  0  0  0  0  0
   43.8864   22.9396   36.8584 H   0  0  0  0  0  0  0  0  0  0  0  0
   43.5013   26.3814   34.5038 H   0  0  0  0  0  0  0  0  0  0  0  0
   39.4939   25.5673   36.5441 H   0  0  0  0  0  0  0  0  0  0  0  0
   38.5218   25.5436   35.0465 H   0  0  0  0  0  0  0  0  0  0  0  0
   37.0438   24.5990   35.8863 H   0  0  0  0  0  0  0  0  0  0  0  0
   38.9018   24.5448   38.5506 H   0  0  0  0  0  0  0  0  0  0  0  0
   37.4150   24.6357   38.9667 H   0  0  0  0  0  0  0  0  0  0  0  0
   38.5251   22.0872   37.1744 H   0  0  0  0  0  0  0  0  0  0  0  0
   36.3172   22.1582   38.2027 H   0  0  0  0  0  0  0  0  0  0  0  0
  1  4  1  0
  1 12  1  0
  3  2  2  0
  3  8  1  0
  4  3  1  0
  5  6  1  0
  5  4  2  0
  6  7  2  0
  7  2  1  0
  8 10  1  0
  8  9  1  0
 11  8  1  0
 12 13  1  0
 13 15  1  0
 13 14  1  0
 15 16  1  0
 15 14  1  0
  1 17  1  0
  1 18  1  0
  2 19  1  0
  6 20  1  0
 12 21  1  0
 12 22  1  0
 13 23  1  1
 14 24  1  0
 14 25  1  0
 15 26  1  6
 16 27  1  0
M  ISO  8  17   8  18   8  19  14  20  14  21   8  22   8  23  13  24  13
M  ISO  3  25  13  26  13  27   3
M  END
>  <minimizedAffinity>  (1) 
-4.04207802

>  <minimizedRMSD>  (1) 
0.404302686

$$$$
