
     RDKit          3D

 35 38  0  0  1  0  0  0  0  0999 V2000
   37.9760   22.3930   33.6090 C   0  0  1  0  0  0  0  0  0  0  0  0
   37.1640   21.4920   34.4320 C   0  0  0  0  0  0  0  0  0  0  0  0
   36.6740   21.8370   33.0550 C   0  0  2  0  0  0  0  0  0  0  0  0
   36.6840   20.8550   32.0110 N   0  0  0  0  0  0  0  0  0  0  0  0
   37.3320   20.9360   30.8370 C   0  0  0  0  0  0  0  0  0  0  0  0
   37.2810   19.9350   29.8910 C   0  0  0  0  0  0  0  0  0  0  0  0
   36.5440   18.7890   30.1250 C   0  0  0  0  0  0  0  0  0  0  0  0
   36.4730   17.7400   29.1650 N   0  0  0  0  0  0  0  0  0  0  0  0
   35.9030   18.7300   31.3070 N   0  0  0  0  0  0  0  0  0  0  0  0
   35.9760   19.7270   32.2060 C   0  0  0  0  0  0  0  0  0  0  0  0
   35.2950   19.4490   33.2380 O   0  0  0  0  0  0  0  0  0  0  0  0
   38.1450   24.6130   34.8240 C   0  0  0  0  0  0  0  0  0  0  0  0
   38.0030   25.9560   34.5120 C   0  0  0  0  0  0  0  0  0  0  0  0
   37.6940   25.9380   33.1830 N   0  0  0  0  0  0  0  0  0  0  0  0
   37.6650   24.6840   32.7840 C   0  0  0  0  0  0  0  0  0  0  0  0
   37.9400   23.8240   33.7730 N   0  0  0  0  0  0  0  0  0  0  0  0
   38.4820   24.1000   36.1530 C   0  0  0  0  0  0  0  0  0  0  0  0
   39.6860   23.4520   36.3830 C   0  0  0  0  0  0  0  0  0  0  0  0
   39.9920   22.9660   37.6640 C   0  0  0  0  0  0  0  0  0  0  0  0
   39.0570   23.1710   38.6250 N   0  0  0  0  0  0  0  0  0  0  0  0
   37.8890   23.8020   38.3910 C   0  0  0  0  0  0  0  0  0  0  0  0
   37.6070   24.2630   37.1610 N   0  0  0  0  0  0  0  0  0  0  0  0
   39.0510   22.3834   33.3762 H   0  0  0  0  0  0  0  0  0  0  0  0
   37.5235   20.4742   34.6439 H   0  0  0  0  0  0  0  0  0  0  0  0
   36.7291   21.5554   35.4404 H   0  0  0  0  0  0  0  0  0  0  0  0
   35.7538   22.2617   32.6273 H   0  0  0  0  0  0  0  0  0  0  0  0
   37.9265   21.8363   30.6224 H   0  0  0  0  0  0  0  0  0  0  0  0
   37.8298   20.0486   28.9445 H   0  0  0  0  0  0  0  0  0  0  0  0
   35.9166   16.8964   29.3642 H   0  0  0  0  0  0  0  0  0  0  0  0
   36.9780   17.8247   28.2713 H   0  0  0  0  0  0  0  0  0  0  0  0
   38.1129   26.8264   35.1756 H   0  0  0  0  0  0  0  0  0  0  0  0
   37.4398   24.3764   31.7522 H   0  0  0  0  0  0  0  0  0  0  0  0
   40.4032   23.3184   35.5597 H   0  0  0  0  0  0  0  0  0  0  0  0
   40.9384   22.4473   37.8768 H   0  0  0  0  0  0  0  0  0  0  0  0
   37.1658   23.9396   39.2083 H   0  0  0  0  0  0  0  0  0  0  0  0
  1 16  1  0
  1  2  1  0
  3  1  1  0
  3  2  1  0
  4 10  1  0
  4  3  1  0
  5  4  1  0
  6  7  1  0
  6  5  2  0
  7  9  2  0
  8  7  1  0
  9 10  1  0
 10 11  2  0
 12 17  1  0
 13 12  2  0
 14 13  1  0
 15 14  2  0
 15 16  1  0
 16 12  1  0
 17 18  2  0
 17 22  1  0
 18 19  1  0
 19 20  2  0
 21 20  1  0
 22 21  2  0
  1 23  1  6
  2 24  1  0
  2 25  1  0
  3 26  1  1
  5 27  1  0
  6 28  1  0
  8 29  1  0
  8 30  1  0
 13 31  1  0
 15 32  1  0
 18 33  1  0
 19 34  1  0
 21 35  1  0
M  ISO  8  23  13  24  13  25  13  26  13  27  14  28  14  31  14  32  14
M  ISO  3  33  14  34  14  35  14
M  END
>  <minimizedAffinity>  (1) 
-5.1649642

>  <minimizedRMSD>  (1) 
2.0669744

$$$$
