
     RDKit          3D

 31 34  0  0  1  0  0  0  0  0999 V2000
   38.0740   23.7630   34.4850 C   0  0  0  0  0  0  0  0  0  0  0  0
   38.2280   24.9780   33.8190 C   0  0  0  0  0  0  0  0  0  0  0  0
   37.7770   24.7030   32.5520 N   0  0  0  0  0  0  0  0  0  0  0  0
   37.4020   23.4410   32.5140 C   0  0  0  0  0  0  0  0  0  0  0  0
   37.5720   22.8250   33.6970 N   0  0  0  0  0  0  0  0  0  0  0  0
   38.4200   23.5460   35.8780 C   0  0  0  0  0  0  0  0  0  0  0  0
   39.6250   22.9480   36.2310 C   0  0  0  0  0  0  0  0  0  0  0  0
   39.9310   22.7500   37.5950 C   0  0  0  0  0  0  0  0  0  0  0  0
   39.0210   23.1610   38.4870 N   0  0  0  0  0  0  0  0  0  0  0  0
   37.8470   23.7450   38.1310 C   0  0  0  0  0  0  0  0  0  0  0  0
   37.5380   23.9410   36.8330 N   0  0  0  0  0  0  0  0  0  0  0  0
   37.2430   21.4360   33.9420 C   0  0  1  0  0  0  0  0  0  0  0  0
   36.0110   21.0270   34.5930 C   0  0  0  0  0  0  0  0  0  0  0  0
   36.0860   20.9620   33.0750 C   0  0  2  0  0  0  0  0  0  0  0  0
   36.1180   19.5620   32.5700 C   0  0  0  0  0  0  0  0  0  0  0  0
   35.2510   18.5100   32.8860 C   0  0  0  0  0  0  0  0  0  0  0  0
   35.7010   17.4150   32.1590 C   0  0  0  0  0  0  0  0  0  0  0  0
   36.8010   17.8530   31.4500 C   0  0  0  0  0  0  0  0  0  0  0  0
   37.0150   19.0980   31.7090 O   0  0  0  0  0  0  0  0  0  0  0  0
   38.6172   25.9281   34.2137 H   0  0  0  0  0  0  0  0  0  0  0  0
   36.9966   22.9480   31.6181 H   0  0  0  0  0  0  0  0  0  0  0  0
   40.3349   22.6314   35.4527 H   0  0  0  0  0  0  0  0  0  0  0  0
   40.8740   22.2796   37.9105 H   0  0  0  0  0  0  0  0  0  0  0  0
   37.1396   24.0620   38.9114 H   0  0  0  0  0  0  0  0  0  0  0  0
   38.2850   21.1601   34.1612 H   0  0  0  0  0  0  0  0  0  0  0  0
   35.9861   20.0962   35.1786 H   0  0  0  0  0  0  0  0  0  0  0  0
   35.3251   21.5030   35.3092 H   0  0  0  0  0  0  0  0  0  0  0  0
   35.5647   21.3791   32.2008 H   0  0  0  0  0  0  0  0  0  0  0  0
   34.3899   18.5432   33.5697 H   0  0  0  0  0  0  0  0  0  0  0  0
   35.2682   16.4038   32.1503 H   0  0  0  0  0  0  0  0  0  0  0  0
   37.4032   17.2346   30.7681 H   0  0  0  0  0  0  0  0  0  0  0  0
  1  6  1  0
  2  1  2  0
  3  2  1  0
  4  3  2  0
  4  5  1  0
  5 12  1  0
  5  1  1  0
  6  7  2  0
  6 11  1  0
  7  8  1  0
  8  9  2  0
 10  9  1  0
 11 10  2  0
 12 13  1  0
 14 12  1  0
 14 13  1  0
 15 16  2  0
 15 14  1  0
 17 16  1  0
 18 19  1  0
 18 17  2  0
 19 15  1  0
  2 20  1  0
  4 21  1  0
  7 22  1  0
  8 23  1  0
 10 24  1  0
 12 25  1  1
 13 26  1  0
 13 27  1  0
 14 28  1  6
 16 29  1  0
 17 30  1  0
 18 31  1  0
M  ISO  8  20  14  21  14  22  14  23  14  24  14  25  13  26  13  27  13
M  ISO  4  28  13  29  14  30  14  31  14
M  END
>  <minimizedAffinity>  (1) 
-4.79509115

>  <minimizedRMSD>  (1) 
0.769789577

$$$$
