
     RDKit          3D

 36 39  0  0  1  0  0  0  0  0999 V2000
   38.1520   24.0690   34.7770 C   0  0  0  0  0  0  0  0  0  0  0  0
   38.2300   25.3340   34.2000 C   0  0  0  0  0  0  0  0  0  0  0  0
   37.8590   25.1170   32.8980 N   0  0  0  0  0  0  0  0  0  0  0  0
   37.5940   23.8240   32.7620 C   0  0  0  0  0  0  0  0  0  0  0  0
   37.7660   23.1380   33.9150 N   0  0  0  0  0  0  0  0  0  0  0  0
   38.4580   23.7870   36.1730 C   0  0  0  0  0  0  0  0  0  0  0  0
   39.6220   23.1210   36.5290 C   0  0  0  0  0  0  0  0  0  0  0  0
   39.8900   22.8630   37.8910 C   0  0  0  0  0  0  0  0  0  0  0  0
   38.9830   23.2870   38.7820 N   0  0  0  0  0  0  0  0  0  0  0  0
   37.8480   23.9370   38.4180 C   0  0  0  0  0  0  0  0  0  0  0  0
   37.5930   24.1830   37.1240 N   0  0  0  0  0  0  0  0  0  0  0  0
   37.5500   21.7310   34.0490 C   0  0  1  0  0  0  0  0  0  0  0  0
   36.3210   21.1840   34.6440 C   0  0  0  0  0  0  0  0  0  0  0  0
   36.4320   21.2080   33.1470 C   0  0  2  0  0  0  0  0  0  0  0  0
   36.5720   19.9520   32.5070 N   0  0  0  0  0  0  0  0  0  0  0  0
   35.5150   18.9940   32.7710 C   0  0  0  0  0  0  0  0  0  0  0  0
   35.9100   17.8650   31.8480 C   0  0  0  0  0  0  0  0  0  0  0  0
   36.4160   18.5660   30.6120 C   0  0  0  0  0  0  0  0  0  0  0  0
   36.7090   19.9840   31.0670 C   0  0  0  0  0  0  0  0  0  0  0  0
   38.5204   26.2823   34.6759 H   0  0  0  0  0  0  0  0  0  0  0  0
   37.2707   23.3618   31.8176 H   0  0  0  0  0  0  0  0  0  0  0  0
   40.3321   22.7958   35.7544 H   0  0  0  0  0  0  0  0  0  0  0  0
   40.8030   22.3371   38.2070 H   0  0  0  0  0  0  0  0  0  0  0  0
   37.1337   24.2637   39.1881 H   0  0  0  0  0  0  0  0  0  0  0  0
   38.6108   21.5286   34.2582 H   0  0  0  0  0  0  0  0  0  0  0  0
   36.3552   20.2226   35.1774 H   0  0  0  0  0  0  0  0  0  0  0  0
   35.5823   21.5658   35.3640 H   0  0  0  0  0  0  0  0  0  0  0  0
   35.8680   21.6261   32.3002 H   0  0  0  0  0  0  0  0  0  0  0  0
   35.5141   18.6736   33.8233 H   0  0  0  0  0  0  0  0  0  0  0  0
   34.4996   19.3822   32.6029 H   0  0  0  0  0  0  0  0  0  0  0  0
   36.7013   17.2488   32.2999 H   0  0  0  0  0  0  0  0  0  0  0  0
   35.0761   17.1798   31.6353 H   0  0  0  0  0  0  0  0  0  0  0  0
   35.6499   18.5622   29.8227 H   0  0  0  0  0  0  0  0  0  0  0  0
   37.3030   18.0732   30.1873 H   0  0  0  0  0  0  0  0  0  0  0  0
   37.7301   20.2780   30.7824 H   0  0  0  0  0  0  0  0  0  0  0  0
   36.0297   20.7148   30.6038 H   0  0  0  0  0  0  0  0  0  0  0  0
  1  6  1  0
  2  1  2  0
  3  2  1  0
  4  3  2  0
  4  5  1  0
  5 12  1  0
  5  1  1  0
  6  7  2  0
  6 11  1  0
  7  8  1  0
  8  9  2  0
 10  9  1  0
 11 10  2  0
 12 13  1  0
 14 12  1  0
 14 13  1  0
 15 16  1  0
 15 14  1  0
 17 16  1  0
 18 19  1  0
 18 17  1  0
 19 15  1  0
  2 20  1  0
  4 21  1  0
  7 22  1  0
  8 23  1  0
 10 24  1  0
 12 25  1  1
 13 26  1  0
 13 27  1  0
 14 28  1  6
 16 29  1  0
 16 30  1  0
 17 31  1  0
 17 32  1  0
 18 33  1  0
 18 34  1  0
 19 35  1  0
 19 36  1  0
M  ISO  8  20  14  21  14  22  14  23  14  24  14  25  13  26  13  27  13
M  ISO  8  28  13  29  13  30  13  31  13  32  13  33  13  34  13  35  13
M  ISO  1  36  13
M  END
>  <minimizedAffinity>  (1) 
-4.6597662

>  <minimizedRMSD>  (1) 
1.09044313

$$$$
