
     RDKit          3D

 34 36  0  0  1  0  0  0  0  0999 V2000
   40.9690   21.6770   36.8140 C   0  0  0  0  0  0  0  0  0  0  0  0
   39.8850   22.5890   37.0920 C   0  0  0  0  0  0  0  0  0  0  0  0
   39.5220   23.0110   38.3710 C   0  0  0  0  0  0  0  0  0  0  0  0
   38.4940   23.9000   38.6140 C   0  0  0  0  0  0  0  0  0  0  0  0
   37.7850   24.4080   37.5710 C   0  0  0  0  0  0  0  0  0  0  0  0
   38.1250   24.0020   36.2880 C   0  0  0  0  0  0  0  0  0  0  0  0
   39.1590   23.1000   36.0470 C   0  0  0  0  0  0  0  0  0  0  0  0
   39.2120   22.7450   34.6020 C   0  0  0  0  0  0  0  0  0  0  0  0
   39.8730   23.3780   33.5800 N   0  0  0  0  0  0  0  0  0  0  0  0
   39.6270   22.7440   32.4830 O   0  0  0  0  0  0  0  0  0  0  0  0
   38.8410   21.7270   32.7190 C   0  0  0  0  0  0  0  0  0  0  0  0
   38.5750   21.7140   34.0260 N   0  0  0  0  0  0  0  0  0  0  0  0
   42.1500   22.1930   36.0930 C   0  0  2  0  0  0  0  0  0  0  0  0
   43.2780   21.2060   36.2570 C   0  0  0  0  0  0  0  0  0  0  0  0
   43.0510   19.9790   36.9070 C   0  0  0  0  0  0  0  0  0  0  0  0
   44.1000   19.0930   37.0650 C   0  0  0  0  0  0  0  0  0  0  0  0
   45.3160   19.4850   36.5660 N   0  0  0  0  0  0  0  0  0  0  0  0
   45.5190   20.6570   35.9490 C   0  0  0  0  0  0  0  0  0  0  0  0
   44.4880   21.5130   35.7990 N   0  0  0  0  0  0  0  0  0  0  0  0
   42.7070   23.4870   36.6960 C   0  0  0  0  0  0  0  0  0  0  0  0
   41.3220   21.2864   37.7799 H   0  0  0  0  0  0  0  0  0  0  0  0
   40.5325   20.9377   36.1263 H   0  0  0  0  0  0  0  0  0  0  0  0
   40.0836   22.6152   39.2301 H   0  0  0  0  0  0  0  0  0  0  0  0
   38.2501   24.1955   39.6451 H   0  0  0  0  0  0  0  0  0  0  0  0
   36.9645   25.1211   37.7393 H   0  0  0  0  0  0  0  0  0  0  0  0
   37.5602   24.4052   35.4345 H   0  0  0  0  0  0  0  0  0  0  0  0
   38.4660   21.0103   31.9735 H   0  0  0  0  0  0  0  0  0  0  0  0
   41.8235   22.3601   35.0560 H   0  0  0  0  0  0  0  0  0  0  0  0
   42.0492   19.7275   37.2854 H   0  0  0  0  0  0  0  0  0  0  0  0
   43.9664   18.1226   37.5656 H   0  0  0  0  0  0  0  0  0  0  0  0
   46.5174   20.9184   35.5684 H   0  0  0  0  0  0  0  0  0  0  0  0
   42.6789   23.4218   37.7937 H   0  0  0  0  0  0  0  0  0  0  0  0
   43.7459   23.6289   36.3636 H   0  0  0  0  0  0  0  0  0  0  0  0
   42.0960   24.3391   36.3636 H   0  0  0  0  0  0  0  0  0  0  0  0
  1  2  1  0
  2  3  2  0
  3  4  1  0
  5  4  2  0
  6  5  1  0
  7  6  2  0
  7  2  1  0
  8  7  1  0
  9  8  2  0
 10 11  1  0
 10  9  1  0
 11 12  2  0
 12  8  1  0
 13 14  1  0
 13 20  1  0
 13  1  1  0
 14 15  2  0
 15 16  1  0
 17 16  2  0
 18 17  1  0
 19 18  2  0
 19 14  1  0
  1 21  1  0
  1 22  1  0
  3 23  1  0
  4 24  1  0
  5 25  1  0
  6 26  1  0
 11 27  1  0
 13 28  1  6
 15 29  1  0
 16 30  1  0
 18 31  1  0
 20 32  1  0
 20 33  1  0
 20 34  1  0
M  ISO  8  21   8  22   8  23  14  24  14  25  14  26  14  27  14  28   8
M  ISO  6  29  14  30  14  31  14  32   8  33   8  34   8
M  END
>  <minimizedAffinity>  (1) 
-4.33904076

>  <minimizedRMSD>  (1) 
0.596810043

$$$$
