
     RDKit          3D

 36 38  0  0  1  0  0  0  0  0999 V2000
   41.0390   21.6490   37.1090 C   0  0  0  0  0  0  0  0  0  0  0  0
   39.8660   22.5080   37.1980 C   0  0  0  0  0  0  0  0  0  0  0  0
   39.5050   23.1400   38.3870 C   0  0  0  0  0  0  0  0  0  0  0  0
   38.3860   23.9470   38.4660 C   0  0  0  0  0  0  0  0  0  0  0  0
   37.6000   24.1470   37.3710 C   0  0  0  0  0  0  0  0  0  0  0  0
   37.9460   23.5170   36.1610 C   0  0  0  0  0  0  0  0  0  0  0  0
   39.0650   22.7120   36.0880 C   0  0  0  0  0  0  0  0  0  0  0  0
   39.2710   22.1410   34.7460 C   0  0  0  0  0  0  0  0  0  0  0  0
   38.5410   22.4910   33.5420 C   0  0  0  0  0  0  0  0  0  0  0  0
   39.8080   23.1990   33.7160 C   0  0  0  0  0  0  0  0  0  0  0  0
   42.1400   22.0840   36.2460 C   0  0  2  0  0  0  0  0  0  0  0  0
   43.2810   21.1170   36.3690 C   0  0  0  0  0  0  0  0  0  0  0  0
   43.0750   19.8890   36.9950 C   0  0  0  0  0  0  0  0  0  0  0  0
   44.1390   19.0050   37.0970 C   0  0  0  0  0  0  0  0  0  0  0  0
   45.3310   19.3960   36.5740 N   0  0  0  0  0  0  0  0  0  0  0  0
   45.5160   20.5820   35.9730 C   0  0  0  0  0  0  0  0  0  0  0  0
   44.4790   21.4370   35.8760 N   0  0  0  0  0  0  0  0  0  0  0  0
   42.7470   23.4230   36.6490 C   0  0  0  0  0  0  0  0  0  0  0  0
   41.4431   21.5390   38.1262 H   0  0  0  0  0  0  0  0  0  0  0  0
   40.6701   20.7237   36.6424 H   0  0  0  0  0  0  0  0  0  0  0  0
   40.1254   22.9929   39.2833 H   0  0  0  0  0  0  0  0  0  0  0  0
   38.1280   24.4313   39.4194 H   0  0  0  0  0  0  0  0  0  0  0  0
   36.7098   24.7902   37.4318 H   0  0  0  0  0  0  0  0  0  0  0  0
   37.3211   23.6669   35.2682 H   0  0  0  0  0  0  0  0  0  0  0  0
   39.4988   21.1563   35.1802 H   0  0  0  0  0  0  0  0  0  0  0  0
   37.5986   23.0512   33.6318 H   0  0  0  0  0  0  0  0  0  0  0  0
   38.1305   21.8892   32.7178 H   0  0  0  0  0  0  0  0  0  0  0  0
   40.6705   22.9654   33.0745 H   0  0  0  0  0  0  0  0  0  0  0  0
   40.1334   24.2492   33.7518 H   0  0  0  0  0  0  0  0  0  0  0  0
   41.7020   22.1517   35.2392 H   0  0  0  0  0  0  0  0  0  0  0  0
   42.0870   19.6257   37.4006 H   0  0  0  0  0  0  0  0  0  0  0  0
   44.0225   18.0249   37.5826 H   0  0  0  0  0  0  0  0  0  0  0  0
   46.5011   20.8523   35.5651 H   0  0  0  0  0  0  0  0  0  0  0  0
   42.7798   23.4954   37.7461 H   0  0  0  0  0  0  0  0  0  0  0  0
   43.7676   23.4991   36.2458 H   0  0  0  0  0  0  0  0  0  0  0  0
   42.1316   24.2408   36.2458 H   0  0  0  0  0  0  0  0  0  0  0  0
  1  2  1  0
  2  3  2  0
  3  4  1  0
  5  4  2  0
  6  5  1  0
  7  6  2  0
  7  2  1  0
  8  7  1  0
  9 10  1  0
  9  8  1  0
 10  8  1  0
 11 12  1  0
 11 18  1  0
 11  1  1  0
 12 13  2  0
 13 14  1  0
 15 14  2  0
 16 15  1  0
 17 16  2  0
 17 12  1  0
  1 19  1  0
  1 20  1  0
  3 21  1  0
  4 22  1  0
  5 23  1  0
  6 24  1  0
  8 25  1  0
  9 26  1  0
  9 27  1  0
 10 28  1  0
 10 29  1  0
 11 30  1  6
 13 31  1  0
 14 32  1  0
 16 33  1  0
 18 34  1  0
 18 35  1  0
 18 36  1  0
M  ISO  8  19   8  20   8  21  14  22  14  23  14  24  14  25  13  26  13
M  ISO  8  27  13  28  13  29  13  30   8  31  14  32  14  33  14  34   8
M  ISO  2  35   8  36   8
M  END
>  <minimizedAffinity>  (1) 
-4.25783253

>  <minimizedRMSD>  (1) 
0.449483931

$$$$
