
     RDKit          3D

 47 51  0  0  1  0  0  0  0  0999 V2000
   40.9520   22.9510   35.6890 C   0  0  0  0  0  0  0  0  0  0  0  0
   39.8440   23.1930   36.5790 C   0  0  0  0  0  0  0  0  0  0  0  0
   39.9750   23.0770   37.9600 C   0  0  0  0  0  0  0  0  0  0  0  0
   38.8990   23.2880   38.8210 C   0  0  0  0  0  0  0  0  0  0  0  0
   37.6570   23.6230   38.2990 C   0  0  0  0  0  0  0  0  0  0  0  0
   37.5220   23.7410   36.9000 C   0  0  0  0  0  0  0  0  0  0  0  0
   38.6160   23.5240   36.0770 C   0  0  0  0  0  0  0  0  0  0  0  0
   38.1700   23.7080   34.7520 N   0  0  0  0  0  0  0  0  0  0  0  0
   37.7620   22.6840   33.9210 C   0  0  0  0  0  0  0  0  0  0  0  0
   37.3780   23.1580   32.7040 N   0  0  0  0  0  0  0  0  0  0  0  0
   37.5370   24.4730   32.7480 C   0  0  0  0  0  0  0  0  0  0  0  0
   37.3550   25.5510   31.9090 C   0  0  0  0  0  0  0  0  0  0  0  0
   37.6020   26.8340   32.2080 N   0  0  0  0  0  0  0  0  0  0  0  0
   38.0720   27.1310   33.4350 C   0  0  0  0  0  0  0  0  0  0  0  0
   38.2740   26.1140   34.3100 N   0  0  0  0  0  0  0  0  0  0  0  0
   38.0230   24.8330   33.9980 C   0  0  0  0  0  0  0  0  0  0  0  0
   42.3000   23.3620   36.1090 C   0  0  2  0  0  0  0  0  0  0  0  0
   42.7300   24.6030   35.4110 C   0  0  0  0  0  0  0  0  0  0  0  0
   41.7860   25.3710   34.7470 C   0  0  0  0  0  0  0  0  0  0  0  0
   42.1830   26.5140   34.0790 C   0  0  0  0  0  0  0  0  0  0  0  0
   43.5260   26.8160   34.1230 N   0  0  0  0  0  0  0  0  0  0  0  0
   44.4220   26.0670   34.7660 C   0  0  0  0  0  0  0  0  0  0  0  0
   44.0180   24.9510   35.4140 N   0  0  0  0  0  0  0  0  0  0  0  0
   43.3760   22.3240   35.7690 C   0  0  0  0  0  0  0  0  0  0  0  0
   43.1330   21.0190   36.3850 C   0  0  0  0  0  0  0  0  0  0  0  0
   43.4550   19.7930   35.8280 C   0  0  0  0  0  0  0  0  0  0  0  0
   43.0940   18.7590   36.6630 C   0  0  0  0  0  0  0  0  0  0  0  0
   42.5550   19.3830   37.7220 N   0  0  0  0  0  0  0  0  0  0  0  0
   42.5740   20.6850   37.5690 N   0  0  0  0  0  0  0  0  0  0  0  0
   40.7320   23.4768   34.7482 H   0  0  0  0  0  0  0  0  0  0  0  0
   41.0135   21.8542   35.6325 H   0  0  0  0  0  0  0  0  0  0  0  0
   40.9548   22.8115   38.3837 H   0  0  0  0  0  0  0  0  0  0  0  0
   39.0334   23.1896   39.9083 H   0  0  0  0  0  0  0  0  0  0  0  0
   36.7963   23.7928   38.9625 H   0  0  0  0  0  0  0  0  0  0  0  0
   36.5482   24.0053   36.4619 H   0  0  0  0  0  0  0  0  0  0  0  0
   37.7489   21.6215   34.2056 H   0  0  0  0  0  0  0  0  0  0  0  0
   36.9714   25.3388   30.9001 H   0  0  0  0  0  0  0  0  0  0  0  0
   38.2865   28.1715   33.7202 H   0  0  0  0  0  0  0  0  0  0  0  0
   42.2173   23.4981   37.1974 H   0  0  0  0  0  0  0  0  0  0  0  0
   40.7273   25.0725   34.7517 H   0  0  0  0  0  0  0  0  0  0  0  0
   41.4641   27.1491   33.5405 H   0  0  0  0  0  0  0  0  0  0  0  0
   45.4836   26.3551   34.7694 H   0  0  0  0  0  0  0  0  0  0  0  0
   43.4049   22.1952   34.6769 H   0  0  0  0  0  0  0  0  0  0  0  0
   44.3303   22.7003   36.1660 H   0  0  0  0  0  0  0  0  0  0  0  0
   43.9360   19.6621   34.8474 H   0  0  0  0  0  0  0  0  0  0  0  0
   43.2180   17.6782   36.5005 H   0  0  0  0  0  0  0  0  0  0  0  0
   42.1751   18.9007   38.5490 H   0  0  0  0  0  0  0  0  0  0  0  0
  1 17  1  0
  1  2  1  0
  2  3  2  0
  3  4  1  0
  5  4  2  0
  6  5  1  0
  7  2  1  0
  7  6  2  0
  8  7  1  0
  9  8  1  0
 10 11  1  0
 10  9  2  0
 11 16  2  0
 12 13  2  0
 12 11  1  0
 13 14  1  0
 14 15  2  0
 16 15  1  0
 16  8  1  0
 18 23  1  0
 18 17  1  0
 19 18  2  0
 20 21  2  0
 20 19  1  0
 21 22  1  0
 22 23  2  0
 24 17  1  0
 24 25  1  0
 25 29  2  0
 26 25  1  0
 26 27  2  0
 27 28  1  0
 29 28  1  0
  1 30  1  0
  1 31  1  0
  3 32  1  0
  4 33  1  0
  5 34  1  0
  6 35  1  0
  9 36  1  0
 12 37  1  0
 14 38  1  0
 17 39  1  1
 19 40  1  0
 20 41  1  0
 22 42  1  0
 24 43  1  0
 24 44  1  0
 26 45  1  0
 27 46  1  0
 28 47  1  0
M  ISO  8  30   8  31   8  32  14  33  14  34  14  35  14  36  14  37  14
M  ISO  8  38  14  39   8  40  14  41  14  42  14  43   8  44   8  45  14
M  ISO  2  46  14  47   9
M  END
>  <minimizedAffinity>  (1) 
-5.76130962

>  <minimizedRMSD>  (1) 
0.451426238

$$$$
