
     RDKit          3D

 52 56  0  0  1  0  0  0  0  0999 V2000
   41.0200   23.2060   35.6700 C   0  0  0  0  0  0  0  0  0  0  0  0
   39.8890   23.2980   36.5640 C   0  0  0  0  0  0  0  0  0  0  0  0
   40.0280   23.1400   37.9420 C   0  0  0  0  0  0  0  0  0  0  0  0
   38.9310   23.2030   38.7990 C   0  0  0  0  0  0  0  0  0  0  0  0
   37.6620   23.4300   38.2800 C   0  0  0  0  0  0  0  0  0  0  0  0
   37.5200   23.5910   36.8820 C   0  0  0  0  0  0  0  0  0  0  0  0
   38.6360   23.5210   36.0680 C   0  0  0  0  0  0  0  0  0  0  0  0
   38.1780   23.7090   34.7490 N   0  0  0  0  0  0  0  0  0  0  0  0
   37.7640   22.6880   33.9160 C   0  0  0  0  0  0  0  0  0  0  0  0
   37.3670   23.1540   32.7040 N   0  0  0  0  0  0  0  0  0  0  0  0
   37.5240   24.4820   32.7540 C   0  0  0  0  0  0  0  0  0  0  0  0
   37.3290   25.5640   31.9180 C   0  0  0  0  0  0  0  0  0  0  0  0
   37.5770   26.8500   32.2250 N   0  0  0  0  0  0  0  0  0  0  0  0
   38.0550   27.1370   33.4470 C   0  0  0  0  0  0  0  0  0  0  0  0
   38.2690   26.1150   34.3170 N   0  0  0  0  0  0  0  0  0  0  0  0
   38.0200   24.8420   34.0010 C   0  0  0  0  0  0  0  0  0  0  0  0
   42.3560   23.5090   36.2010 C   0  0  2  0  0  0  0  0  0  0  0  0
   42.9510   24.6970   35.5210 C   0  0  0  0  0  0  0  0  0  0  0  0
   42.1610   25.4560   34.6640 C   0  0  0  0  0  0  0  0  0  0  0  0
   42.7140   26.5420   34.0180 C   0  0  0  0  0  0  0  0  0  0  0  0
   44.0390   26.8070   34.2700 N   0  0  0  0  0  0  0  0  0  0  0  0
   44.7820   26.0690   35.0950 C   0  0  0  0  0  0  0  0  0  0  0  0
   44.2220   25.0190   35.7100 N   0  0  0  0  0  0  0  0  0  0  0  0
   43.3700   22.3900   35.9480 C   0  0  0  0  0  0  0  0  0  0  0  0
   42.8020   21.0840   35.9380 N   0  0  0  0  0  0  0  0  0  0  0  0
   42.7030   20.4070   37.1760 C   0  0  0  0  0  0  0  0  0  0  0  0
   43.3120   19.0320   37.0120 C   0  0  0  0  0  0  0  0  0  0  0  0
   43.5680   18.8720   35.5540 C   0  0  0  0  0  0  0  0  0  0  0  0
   43.3890   20.2380   34.9420 C   0  0  0  0  0  0  0  0  0  0  0  0
   40.8349   23.9019   34.8385 H   0  0  0  0  0  0  0  0  0  0  0  0
   41.0695   22.1396   35.4049 H   0  0  0  0  0  0  0  0  0  0  0  0
   41.0283   22.9612   38.3633 H   0  0  0  0  0  0  0  0  0  0  0  0
   39.0690   23.0735   39.8826 H   0  0  0  0  0  0  0  0  0  0  0  0
   36.7858   23.4834   38.9429 H   0  0  0  0  0  0  0  0  0  0  0  0
   36.5270   23.7710   36.4443 H   0  0  0  0  0  0  0  0  0  0  0  0
   37.7568   21.6254   34.2002 H   0  0  0  0  0  0  0  0  0  0  0  0
   36.9361   25.3557   30.9119 H   0  0  0  0  0  0  0  0  0  0  0  0
   38.2686   28.1763   33.7372 H   0  0  0  0  0  0  0  0  0  0  0  0
   42.1899   23.6636   37.2773 H   0  0  0  0  0  0  0  0  0  0  0  0
   41.1052   25.1927   34.5029 H   0  0  0  0  0  0  0  0  0  0  0  0
   42.1222   27.1669   33.3330 H   0  0  0  0  0  0  0  0  0  0  0  0
   45.8392   26.3186   35.2681 H   0  0  0  0  0  0  0  0  0  0  0  0
   43.8449   22.5680   34.9719 H   0  0  0  0  0  0  0  0  0  0  0  0
   44.0885   22.4178   36.7805 H   0  0  0  0  0  0  0  0  0  0  0  0
   43.2482   20.9659   37.9508 H   0  0  0  0  0  0  0  0  0  0  0  0
   41.6492   20.3224   37.4799 H   0  0  0  0  0  0  0  0  0  0  0  0
   44.2536   18.9605   37.5762 H   0  0  0  0  0  0  0  0  0  0  0  0
   42.6444   18.2457   37.3941 H   0  0  0  0  0  0  0  0  0  0  0  0
   44.5927   18.5097   35.3845 H   0  0  0  0  0  0  0  0  0  0  0  0
   42.8815   18.1391   35.1050 H   0  0  0  0  0  0  0  0  0  0  0  0
   44.3646   20.6420   34.6340 H   0  0  0  0  0  0  0  0  0  0  0  0
   42.7438   20.1820   34.0529 H   0  0  0  0  0  0  0  0  0  0  0  0
  1 17  1  0
  1  2  1  0
  2  3  2  0
  3  4  1  0
  5  4  2  0
  6  5  1  0
  7  2  1  0
  7  6  2  0
  8  7  1  0
  9  8  1  0
 10 11  1  0
 10  9  2  0
 11 16  2  0
 12 13  2  0
 12 11  1  0
 13 14  1  0
 14 15  2  0
 16 15  1  0
 16  8  1  0
 18 23  1  0
 18 17  1  0
 19 18  2  0
 20 21  2  0
 20 19  1  0
 21 22  1  0
 22 23  2  0
 24 17  1  0
 25 24  1  0
 25 26  1  0
 27 26  1  0
 28 27  1  0
 29 28  1  0
 29 25  1  0
  1 30  1  0
  1 31  1  0
  3 32  1  0
  4 33  1  0
  5 34  1  0
  6 35  1  0
  9 36  1  0
 12 37  1  0
 14 38  1  0
 17 39  1  1
 19 40  1  0
 20 41  1  0
 22 42  1  0
 24 43  1  0
 24 44  1  0
 26 45  1  0
 26 46  1  0
 27 47  1  0
 27 48  1  0
 28 49  1  0
 28 50  1  0
 29 51  1  0
 29 52  1  0
M  ISO  8  30   8  31   8  32  14  33  14  34  14  35  14  36  14  37  14
M  ISO  8  38  14  39   8  40  14  41  14  42  14  43   8  44   8  45  13
M  ISO  7  46  13  47  13  48  13  49  13  50  13  51  13  52  13
M  END
>  <minimizedAffinity>  (1) 
-5.28806353

>  <minimizedRMSD>  (1) 
0.496654838

$$$$
