
     RDKit          3D

 47 51  0  0  1  0  0  0  0  0999 V2000
   41.0610   23.1750   35.7140 C   0  0  0  0  0  0  0  0  0  0  0  0
   39.9130   23.2780   36.5940 C   0  0  0  0  0  0  0  0  0  0  0  0
   40.0330   23.1220   37.9690 C   0  0  0  0  0  0  0  0  0  0  0  0
   38.9270   23.1930   38.8140 C   0  0  0  0  0  0  0  0  0  0  0  0
   37.6660   23.4270   38.2750 C   0  0  0  0  0  0  0  0  0  0  0  0
   37.5480   23.5870   36.8730 C   0  0  0  0  0  0  0  0  0  0  0  0
   38.6710   23.5080   36.0750 C   0  0  0  0  0  0  0  0  0  0  0  0
   38.2330   23.6960   34.7500 N   0  0  0  0  0  0  0  0  0  0  0  0
   37.8700   22.6710   33.8990 C   0  0  0  0  0  0  0  0  0  0  0  0
   37.4830   23.1490   32.6850 N   0  0  0  0  0  0  0  0  0  0  0  0
   37.5940   24.4670   32.7500 C   0  0  0  0  0  0  0  0  0  0  0  0
   37.3810   25.5520   31.9230 C   0  0  0  0  0  0  0  0  0  0  0  0
   37.5790   26.8360   32.2430 N   0  0  0  0  0  0  0  0  0  0  0  0
   38.0260   27.1320   33.4820 C   0  0  0  0  0  0  0  0  0  0  0  0
   38.2560   26.1100   34.3460 N   0  0  0  0  0  0  0  0  0  0  0  0
   38.0530   24.8260   34.0100 C   0  0  0  0  0  0  0  0  0  0  0  0
   42.3500   23.7030   36.1700 C   0  0  2  0  0  0  0  0  0  0  0  0
   42.7670   24.8910   35.3790 C   0  0  0  0  0  0  0  0  0  0  0  0
   41.7950   25.6290   34.7090 C   0  0  0  0  0  0  0  0  0  0  0  0
   42.1770   26.7240   33.9520 C   0  0  0  0  0  0  0  0  0  0  0  0
   43.5250   27.0090   33.9150 N   0  0  0  0  0  0  0  0  0  0  0  0
   44.4430   26.2870   34.5660 C   0  0  0  0  0  0  0  0  0  0  0  0
   44.0520   25.2240   35.3000 N   0  0  0  0  0  0  0  0  0  0  0  0
   43.5020   22.7090   36.0250 C   0  0  0  0  0  0  0  0  0  0  0  0
   43.2820   21.6590   35.0430 C   0  0  0  0  0  0  0  0  0  0  0  0
   42.8950   20.3410   35.1350 C   0  0  0  0  0  0  0  0  0  0  0  0
   42.8250   19.7580   33.9210 N   0  0  0  0  0  0  0  0  0  0  0  0
   43.1700   20.7020   33.0230 C   0  0  0  0  0  0  0  0  0  0  0  0
   43.4390   21.8270   33.7040 N   0  0  0  0  0  0  0  0  0  0  0  0
   40.8048   23.7054   34.7850 H   0  0  0  0  0  0  0  0  0  0  0  0
   41.2330   22.0920   35.6270 H   0  0  0  0  0  0  0  0  0  0  0  0
   41.0271   22.9376   38.4023 H   0  0  0  0  0  0  0  0  0  0  0  0
   39.0503   23.0649   39.8995 H   0  0  0  0  0  0  0  0  0  0  0  0
   36.7798   23.4864   38.9239 H   0  0  0  0  0  0  0  0  0  0  0  0
   36.5628   23.7739   36.4208 H   0  0  0  0  0  0  0  0  0  0  0  0
   37.8909   21.6046   34.1679 H   0  0  0  0  0  0  0  0  0  0  0  0
   37.0147   25.3413   30.9074 H   0  0  0  0  0  0  0  0  0  0  0  0
   38.1996   28.1753   33.7842 H   0  0  0  0  0  0  0  0  0  0  0  0
   42.1753   23.9420   37.2294 H   0  0  0  0  0  0  0  0  0  0  0  0
   40.7346   25.3453   34.7802 H   0  0  0  0  0  0  0  0  0  0  0  0
   41.4419   27.3352   33.4079 H   0  0  0  0  0  0  0  0  0  0  0  0
   45.5075   26.5570   34.5039 H   0  0  0  0  0  0  0  0  0  0  0  0
   44.4021   23.2689   35.7313 H   0  0  0  0  0  0  0  0  0  0  0  0
   43.6016   22.2065   36.9984 H   0  0  0  0  0  0  0  0  0  0  0  0
   42.6707   19.8272   36.0814 H   0  0  0  0  0  0  0  0  0  0  0  0
   43.2217   20.5739   31.9317 H   0  0  0  0  0  0  0  0  0  0  0  0
   43.7297   22.7118   33.2640 H   0  0  0  0  0  0  0  0  0  0  0  0
  1 17  1  0
  1  2  1  0
  2  3  2  0
  3  4  1  0
  5  4  2  0
  6  5  1  0
  7  2  1  0
  7  6  2  0
  8  7  1  0
  9  8  1  0
 10 11  1  0
 10  9  2  0
 11 16  2  0
 12 13  2  0
 12 11  1  0
 13 14  1  0
 14 15  2  0
 16 15  1  0
 16  8  1  0
 18 17  1  0
 19 18  2  0
 20 19  1  0
 21 20  2  0
 21 22  1  0
 22 23  2  0
 23 18  1  0
 24 17  1  0
 25 26  2  0
 25 24  1  0
 27 26  1  0
 28 29  1  0
 28 27  2  0
 29 25  1  0
  1 30  1  0
  1 31  1  0
  3 32  1  0
  4 33  1  0
  5 34  1  0
  6 35  1  0
  9 36  1  0
 12 37  1  0
 14 38  1  0
 17 39  1  1
 19 40  1  0
 20 41  1  0
 22 42  1  0
 24 43  1  0
 24 44  1  0
 26 45  1  0
 28 46  1  0
 29 47  1  0
M  ISO  8  30   8  31   8  32  14  33  14  34  14  35  14  36  14  37  14
M  ISO  8  38  14  39   8  40  14  41  14  42  14  43   8  44   8  45  14
M  ISO  2  46  14  47   9
M  END
>  <minimizedAffinity>  (1) 
-5.02589512

>  <minimizedRMSD>  (1) 
0.724254251

$$$$
