
     RDKit          3D

 30 33  0  0  0  0  0  0  0  0999 V2000
   40.0030   26.9250   34.8330 C   0  0  0  0  0  0  0  0  0  0  0  0
   38.8760   26.9630   35.6820 C   0  0  0  0  0  0  0  0  0  0  0  0
   37.7160   26.3310   35.2330 C   0  0  0  0  0  0  0  0  0  0  0  0
   37.7240   25.7070   33.9980 N   0  0  0  0  0  0  0  0  0  0  0  0
   38.8370   25.7030   33.2250 C   0  0  0  0  0  0  0  0  0  0  0  0
   39.9640   26.3100   33.6460 N   0  0  0  0  0  0  0  0  0  0  0  0
   38.8370   25.0620   31.9610 N   0  0  0  0  0  0  0  0  0  0  0  0
   39.2820   25.4840   30.7570 C   0  0  0  0  0  0  0  0  0  0  0  0
   39.0680   24.5020   29.7980 C   0  0  0  0  0  0  0  0  0  0  0  0
   38.4800   23.4570   30.4230 N   0  0  0  0  0  0  0  0  0  0  0  0
   38.3570   23.8250   31.7140 C   0  0  0  0  0  0  0  0  0  0  0  0
   37.7540   22.8950   32.6380 N   0  0  0  0  0  0  0  0  0  0  0  0
   37.1090   21.7350   32.3680 C   0  0  0  0  0  0  0  0  0  0  0  0
   36.6950   21.1610   33.5050 N   0  0  0  0  0  0  0  0  0  0  0  0
   37.0580   21.9320   34.5430 C   0  0  0  0  0  0  0  0  0  0  0  0
   36.9180   21.8690   35.9150 C   0  0  0  0  0  0  0  0  0  0  0  0
   37.4240   22.8500   36.6630 N   0  0  0  0  0  0  0  0  0  0  0  0
   38.0650   23.8970   36.1310 C   0  0  0  0  0  0  0  0  0  0  0  0
   38.2110   23.9750   34.7850 N   0  0  0  0  0  0  0  0  0  0  0  0
   37.7110   22.9960   33.9880 C   0  0  0  0  0  0  0  0  0  0  0  0
   36.2410   20.7650   36.5010 N   0  0  0  0  0  0  0  0  0  0  0  0
   40.9350   27.4125   35.1551 H   0  0  0  0  0  0  0  0  0  0  0  0
   38.9108   27.4701   36.6575 H   0  0  0  0  0  0  0  0  0  0  0  0
   36.8071   26.3288   35.8526 H   0  0  0  0  0  0  0  0  0  0  0  0
   39.7461   26.4625   30.5643 H   0  0  0  0  0  0  0  0  0  0  0  0
   39.3280   24.5630   28.7309 H   0  0  0  0  0  0  0  0  0  0  0  0
   36.9484   21.3238   31.3605 H   0  0  0  0  0  0  0  0  0  0  0  0
   38.4700   24.6876   36.7797 H   0  0  0  0  0  0  0  0  0  0  0  0
   36.1327   20.7112   37.5239 H   0  0  0  0  0  0  0  0  0  0  0  0
   35.8587   20.0188   35.9027 H   0  0  0  0  0  0  0  0  0  0  0  0
  1  2  2  0
  3  2  1  0
  4  3  2  0
  5  6  2  0
  5  4  1  0
  6  1  1  0
  7  5  1  0
  8  7  1  0
  9 10  1  0
  9  8  2  0
 10 11  2  0
 11  7  1  0
 11 12  1  0
 12 20  1  0
 13 12  1  0
 13 14  2  0
 14 15  1  0
 15 16  2  0
 16 21  1  0
 16 17  1  0
 18 17  2  0
 19 18  1  0
 20 15  1  0
 20 19  2  0
  1 22  1  0
  2 23  1  0
  3 24  1  0
  8 25  1  0
  9 26  1  0
 13 27  1  0
 18 28  1  0
 21 29  1  0
 21 30  1  0
M  ISO  7  22  14  23  14  24  14  25  14  26  14  27  14  28  14
M  END
>  <minimizedAffinity>  (1) 
-4.99879313

>  <minimizedRMSD>  (1) 
4.8936162

$$$$
