
     RDKit          3D

 31 34  0  0  0  0  0  0  0  0999 V2000
   44.8000   23.7530   36.8690 C   0  0  0  0  0  0  0  0  0  0  0  0
   44.6520   25.1260   36.5870 C   0  0  0  0  0  0  0  0  0  0  0  0
   43.8310   25.4730   35.5100 C   0  0  0  0  0  0  0  0  0  0  0  0
   43.2170   24.4710   34.7880 N   0  0  0  0  0  0  0  0  0  0  0  0
   43.3850   23.1740   35.0900 C   0  0  0  0  0  0  0  0  0  0  0  0
   44.1770   22.8430   36.1290 N   0  0  0  0  0  0  0  0  0  0  0  0
   42.7560   22.1470   34.3510 N   0  0  0  0  0  0  0  0  0  0  0  0
   43.2580   21.0010   33.8420 C   0  0  0  0  0  0  0  0  0  0  0  0
   42.2570   20.2950   33.1850 C   0  0  0  0  0  0  0  0  0  0  0  0
   41.1150   21.0270   33.2940 N   0  0  0  0  0  0  0  0  0  0  0  0
   41.4540   22.1260   33.9970 C   0  0  0  0  0  0  0  0  0  0  0  0
   40.4270   23.0750   34.2570 N   0  0  0  0  0  0  0  0  0  0  0  0
   39.9810   23.8840   33.2660 C   0  0  0  0  0  0  0  0  0  0  0  0
   39.0150   24.6980   33.7300 N   0  0  0  0  0  0  0  0  0  0  0  0
   38.8240   24.4230   35.0300 C   0  0  0  0  0  0  0  0  0  0  0  0
   38.0000   24.8950   36.0390 C   0  0  0  0  0  0  0  0  0  0  0  0
   37.1980   25.8150   35.7500 O   0  0  0  0  0  0  0  0  0  0  0  0
   38.1090   24.3440   37.2590 N   0  0  0  0  0  0  0  0  0  0  0  0
   38.9890   23.3500   37.5430 C   0  0  0  0  0  0  0  0  0  0  0  0
   38.9730   22.8800   38.8860 N   0  0  0  0  0  0  0  0  0  0  0  0
   39.8060   22.8710   36.5670 N   0  0  0  0  0  0  0  0  0  0  0  0
   39.7100   23.4120   35.3390 C   0  0  0  0  0  0  0  0  0  0  0  0
   45.4358   23.4330   37.7077 H   0  0  0  0  0  0  0  0  0  0  0  0
   45.1613   25.8927   37.1893 H   0  0  0  0  0  0  0  0  0  0  0  0
   43.6771   26.5288   35.2425 H   0  0  0  0  0  0  0  0  0  0  0  0
   44.3044   20.6746   33.9338 H   0  0  0  0  0  0  0  0  0  0  0  0
   42.3671   19.3274   32.6736 H   0  0  0  0  0  0  0  0  0  0  0  0
   40.3546   23.8766   32.2314 H   0  0  0  0  0  0  0  0  0  0  0  0
   37.4981   24.6908   38.0123 H   0  0  0  0  0  0  0  0  0  0  0  0
   39.6131   22.1269   39.1757 H   0  0  0  0  0  0  0  0  0  0  0  0
   38.3213   23.2929   39.5684 H   0  0  0  0  0  0  0  0  0  0  0  0
  2  1  2  0
  3  2  1  0
  4  5  1  0
  4  3  2  0
  5  6  2  0
  6  1  1  0
  7  5  1  0
  8  7  1  0
  9 10  1  0
  9  8  2  0
 10 11  2  0
 11 12  1  0
 11  7  1  0
 12 22  1  0
 13 14  2  0
 13 12  1  0
 14 15  1  0
 15 22  2  0
 15 16  1  0
 16 18  1  0
 17 16  2  0
 18 19  1  0
 19 20  1  0
 21 19  2  0
 22 21  1  0
  1 23  1  0
  2 24  1  0
  3 25  1  0
  8 26  1  0
  9 27  1  0
 13 28  1  0
 18 29  1  0
 20 30  1  0
 20 31  1  0
M  ISO  7  23  14  24  14  25  14  26  14  27  14  28  14  29   9
M  END
>  <minimizedAffinity>  (1) 
-4.8936491

>  <minimizedRMSD>  (1) 
6.44615412

$$$$
