
     RDKit          3D

 18 19  0  0  0  0  0  0  0  0999 V2000
   39.8980   22.6080   37.2140 C   0  0  0  0  0  0  0  0  0  0  0  0
   39.2790   23.3390   38.2680 C   0  0  0  0  0  0  0  0  0  0  0  0
   37.9000   23.5020   38.2010 C   0  0  0  0  0  0  0  0  0  0  0  0
   37.1930   22.9660   37.1430 N   0  0  0  0  0  0  0  0  0  0  0  0
   37.8360   22.2780   36.1650 C   0  0  0  0  0  0  0  0  0  0  0  0
   39.1730   22.1120   36.2180 N   0  0  0  0  0  0  0  0  0  0  0  0
   37.1240   21.7220   35.0730 N   0  0  0  0  0  0  0  0  0  0  0  0
   37.3650   21.7800   33.7470 C   0  0  0  0  0  0  0  0  0  0  0  0
   36.3850   21.0780   33.0590 C   0  0  0  0  0  0  0  0  0  0  0  0
   35.5170   20.5730   33.9790 N   0  0  0  0  0  0  0  0  0  0  0  0
   36.0000   20.9860   35.1750 C   0  0  0  0  0  0  0  0  0  0  0  0
   35.3040   20.6130   36.3310 O   0  0  0  0  0  0  0  0  0  0  0  0
   40.9869   22.4528   37.2250 H   0  0  0  0  0  0  0  0  0  0  0  0
   39.8665   23.7565   39.0990 H   0  0  0  0  0  0  0  0  0  0  0  0
   37.3725   24.0576   38.9903 H   0  0  0  0  0  0  0  0  0  0  0  0
   38.2116   22.3051   33.2807 H   0  0  0  0  0  0  0  0  0  0  0  0
   36.3210   20.9523   31.9681 H   0  0  0  0  0  0  0  0  0  0  0  0
   34.4831   20.0644   36.2592 H   0  0  0  0  0  0  0  0  0  0  0  0
  1  2  2  0
  3  2  1  0
  4  3  2  0
  5  6  2  0
  5  4  1  0
  6  1  1  0
  7 11  1  0
  7  5  1  0
  8  7  1  0
  9  8  2  0
  9 10  1  0
 10 11  2  0
 11 12  1  0
  1 13  1  0
  2 14  1  0
  3 15  1  0
  8 16  1  0
  9 17  1  0
 12 18  1  0
M  ISO  6  13  14  14  14  15  14  16  14  17  14  18   3
M  END
>  <minimizedAffinity>  (1) 
-4.44934034

>  <minimizedRMSD>  (1) 
0.0687379763

$$$$
