
     RDKit          3D

 24 26  0  0  0  0  0  0  0  0999 V2000
   39.4980   22.8480   37.9150 C   0  0  0  0  0  0  0  0  0  0  0  0
   38.5360   23.8300   38.2190 C   0  0  0  0  0  0  0  0  0  0  0  0
   37.6630   24.2020   37.1960 C   0  0  0  0  0  0  0  0  0  0  0  0
   37.8030   23.5940   35.9780 N   0  0  0  0  0  0  0  0  0  0  0  0
   38.7310   22.6610   35.7190 C   0  0  0  0  0  0  0  0  0  0  0  0
   39.5770   22.2950   36.7020 N   0  0  0  0  0  0  0  0  0  0  0  0
   38.8510   22.0470   34.4470 N   0  0  0  0  0  0  0  0  0  0  0  0
   39.9350   21.8090   33.6860 C   0  0  0  0  0  0  0  0  0  0  0  0
   39.5570   21.1790   32.5090 C   0  0  0  0  0  0  0  0  0  0  0  0
   38.2200   21.0280   32.5480 N   0  0  0  0  0  0  0  0  0  0  0  0
   37.8240   21.5590   33.7220 C   0  0  0  0  0  0  0  0  0  0  0  0
   36.4010   21.5910   34.1550 C   0  0  0  0  0  0  0  0  0  0  0  0
   35.8590   20.6680   35.1550 C   0  0  0  0  0  0  0  0  0  0  0  0
   35.6060   20.3640   33.7020 C   0  0  0  0  0  0  0  0  0  0  0  0
   40.2027   22.5280   38.6967 H   0  0  0  0  0  0  0  0  0  0  0  0
   38.4753   24.2841   39.2191 H   0  0  0  0  0  0  0  0  0  0  0  0
   36.8852   24.9616   37.3636 H   0  0  0  0  0  0  0  0  0  0  0  0
   40.9675   22.0745   33.9569 H   0  0  0  0  0  0  0  0  0  0  0  0
   40.2257   20.8619   31.6952 H   0  0  0  0  0  0  0  0  0  0  0  0
   36.3504   22.6875   34.0828 H   0  0  0  0  0  0  0  0  0  0  0  0
   36.5427   20.0296   35.7337 H   0  0  0  0  0  0  0  0  0  0  0  0
   35.2118   20.7876   36.0364 H   0  0  0  0  0  0  0  0  0  0  0  0
   34.5982   20.4800   33.2766 H   0  0  0  0  0  0  0  0  0  0  0  0
   35.7819   19.5112   33.0298 H   0  0  0  0  0  0  0  0  0  0  0  0
  1  2  2  0
  3  2  1  0
  4  3  2  0
  5  4  1  0
  5  6  2  0
  6  1  1  0
  7  5  1  0
  8  7  1  0
  9 10  1  0
  9  8  2  0
 10 11  2  0
 11 12  1  0
 11  7  1  0
 12 13  1  0
 14 12  1  0
 14 13  1  0
  1 15  1  0
  2 16  1  0
  3 17  1  0
  8 18  1  0
  9 19  1  0
 12 20  1  0
 13 21  1  0
 13 22  1  0
 14 23  1  0
 14 24  1  0
M  ISO  8  15  14  16  14  17  14  18  14  19  14  20  13  21  13  22  13
M  ISO  2  23  13  24  13
M  END
>  <minimizedAffinity>  (1) 
-3.86221838

>  <minimizedRMSD>  (1) 
2.33358264

$$$$
