
     RDKit          3D

 36 37  0  0  0  0  0  0  0  0999 V2000
   38.9300   24.1020   36.0750 C   0  0  0  0  0  0  0  0  0  0  0  0
   41.3670   21.5570   37.3900 C   0  0  0  0  0  0  0  0  0  0  0  0
   40.3480   22.5070   37.4150 C   0  0  0  0  0  0  0  0  0  0  0  0
   39.9870   23.1080   36.2120 C   0  0  0  0  0  0  0  0  0  0  0  0
   40.6490   22.7380   35.0650 N   0  0  0  0  0  0  0  0  0  0  0  0
   41.6340   21.8090   35.0940 C   0  0  0  0  0  0  0  0  0  0  0  0
   41.9910   21.2240   36.2430 N   0  0  0  0  0  0  0  0  0  0  0  0
   38.3080   24.2580   37.4750 C   0  0  0  0  0  0  0  0  0  0  0  0
   39.4000   25.4630   35.6040 C   0  0  0  0  0  0  0  0  0  0  0  0
   37.8690   23.6470   35.1130 C   0  0  0  0  0  0  0  0  0  0  0  0
   37.4480   22.3120   35.1510 N   0  0  0  0  0  0  0  0  0  0  0  0
   37.0670   21.6050   34.0230 C   0  0  0  0  0  0  0  0  0  0  0  0
   35.8810   20.6900   34.1460 C   0  0  0  0  0  0  0  0  0  0  0  0
   35.5790   20.2380   35.4660 N   0  0  0  0  0  0  0  0  0  0  0  0
   35.4290   21.4620   36.2720 C   0  0  0  0  0  0  0  0  0  0  0  0
   36.8450   21.9720   36.4070 C   0  0  0  0  0  0  0  0  0  0  0  0
   41.6689   21.0678   38.3278 H   0  0  0  0  0  0  0  0  0  0  0  0
   39.8444   22.7739   38.3558 H   0  0  0  0  0  0  0  0  0  0  0  0
   42.1469   21.5320   34.1612 H   0  0  0  0  0  0  0  0  0  0  0  0
   39.0745   24.0658   38.2402 H   0  0  0  0  0  0  0  0  0  0  0  0
   37.9211   25.2810   37.5924 H   0  0  0  0  0  0  0  0  0  0  0  0
   37.4841   23.5387   37.5924 H   0  0  0  0  0  0  0  0  0  0  0  0
   39.6190   26.0972   36.4757 H   0  0  0  0  0  0  0  0  0  0  0  0
   40.3101   25.3469   34.9972 H   0  0  0  0  0  0  0  0  0  0  0  0
   38.6122   25.9332   34.9972 H   0  0  0  0  0  0  0  0  0  0  0  0
   38.2503   23.8364   34.0987 H   0  0  0  0  0  0  0  0  0  0  0  0
   36.9766   24.2147   35.4153 H   0  0  0  0  0  0  0  0  0  0  0  0
   37.9258   20.9916   33.7128 H   0  0  0  0  0  0  0  0  0  0  0  0
   36.7540   22.3746   33.3020 H   0  0  0  0  0  0  0  0  0  0  0  0
   35.0001   21.2261   33.7631 H   0  0  0  0  0  0  0  0  0  0  0  0
   36.1396   19.7873   33.5731 H   0  0  0  0  0  0  0  0  0  0  0  0
   34.7042   19.6943   35.4697 H   0  0  0  0  0  0  0  0  0  0  0  0
   34.7940   22.1971   35.7559 H   0  0  0  0  0  0  0  0  0  0  0  0
   34.9455   21.2788   37.2429 H   0  0  0  0  0  0  0  0  0  0  0  0
   37.4533   21.1907   36.8861 H   0  0  0  0  0  0  0  0  0  0  0  0
   36.8037   22.8923   37.0081 H   0  0  0  0  0  0  0  0  0  0  0  0
  1  4  1  0
  1  8  1  0
  2  3  2  0
  4  3  1  0
  5  6  1  0
  5  4  2  0
  6  7  2  0
  7  2  1  0
  9  1  1  0
 10 11  1  0
 10  1  1  0
 11 16  1  0
 12 13  1  0
 12 11  1  0
 13 14  1  0
 14 15  1  0
 15 16  1  0
  2 17  1  0
  3 18  1  0
  6 19  1  0
  8 20  1  0
  8 21  1  0
  8 22  1  0
  9 23  1  0
  9 24  1  0
  9 25  1  0
 10 26  1  0
 10 27  1  0
 12 28  1  0
 12 29  1  0
 13 30  1  0
 13 31  1  0
 14 32  1  0
 15 33  1  0
 15 34  1  0
 16 35  1  0
 16 36  1  0
M  ISO  8  17  14  18  14  19  14  20   8  21   8  22   8  23   8  24   8
M  ISO  8  25   8  26   8  27   8  28  13  29  13  30  13  31  13  32   5
M  ISO  4  33  13  34  13  35  13  36  13
M  END
>  <minimizedAffinity>  (1) 
-3.59320045

>  <minimizedRMSD>  (1) 
2.30623341

$$$$
