
     RDKit          3D

 20 21  0  0  0  0  0  0  0  0999 V2000
   40.3410   22.6050   37.3310 C   0  0  0  0  0  0  0  0  0  0  0  0
   39.8780   23.4740   38.3450 C   0  0  0  0  0  0  0  0  0  0  0  0
   38.5020   23.7790   38.3680 C   0  0  0  0  0  0  0  0  0  0  0  0
   37.6860   23.2200   37.4130 N   0  0  0  0  0  0  0  0  0  0  0  0
   38.1740   22.3910   36.4570 C   0  0  0  0  0  0  0  0  0  0  0  0
   39.4890   22.1030   36.4390 N   0  0  0  0  0  0  0  0  0  0  0  0
   37.3290   21.8200   35.4790 N   0  0  0  0  0  0  0  0  0  0  0  0
   37.4520   21.7250   34.1500 C   0  0  0  0  0  0  0  0  0  0  0  0
   36.3850   21.0870   33.5800 C   0  0  0  0  0  0  0  0  0  0  0  0
   35.5590   20.7680   34.5870 N   0  0  0  0  0  0  0  0  0  0  0  0
   36.1480   21.2180   35.7140 C   0  0  0  0  0  0  0  0  0  0  0  0
   35.4520   20.9990   36.9800 C   0  0  0  0  0  0  0  0  0  0  0  0
   35.9110   21.0990   38.1470 O   0  0  0  0  0  0  0  0  0  0  0  0
   34.1330   20.6340   37.1090 O   0  0  0  0  0  0  0  0  0  0  0  0
   41.4080   22.3426   37.2785 H   0  0  0  0  0  0  0  0  0  0  0  0
   40.5674   23.8975   39.0902 H   0  0  0  0  0  0  0  0  0  0  0  0
   38.0892   24.4510   39.1349 H   0  0  0  0  0  0  0  0  0  0  0  0
   38.3103   22.1142   33.5827 H   0  0  0  0  0  0  0  0  0  0  0  0
   36.2346   20.8777   32.5106 H   0  0  0  0  0  0  0  0  0  0  0  0
   33.7404   20.5064   38.0088 H   0  0  0  0  0  0  0  0  0  0  0  0
  1  2  2  0
  2  3  1  0
  4  3  2  0
  5  4  1  0
  6  5  2  0
  6  1  1  0
  7 11  1  0
  7  5  1  0
  8  7  1  0
  9  8  2  0
  9 10  1  0
 10 11  2  0
 11 12  1  0
 12 14  1  0
 12 13  2  0
  1 15  1  0
  2 16  1  0
  3 17  1  0
  8 18  1  0
  9 19  1  0
 14 20  1  0
M  ISO  6  15  14  16  14  17  14  18  14  19  14  20   3
M  END
>  <minimizedAffinity>  (1) 
-3.73130608

>  <minimizedRMSD>  (1) 
0.616672873

$$$$
