
     RDKit          3D

 36 39  0  0  0  0  0  0  0  0999 V2000
   39.7920   23.1480   38.2680 C   0  0  0  0  0  0  0  0  0  0  0  0
   38.5360   23.6620   38.6620 C   0  0  0  0  0  0  0  0  0  0  0  0
   37.5750   23.8660   37.6490 C   0  0  0  0  0  0  0  0  0  0  0  0
   37.8960   23.5620   36.3390 N   0  0  0  0  0  0  0  0  0  0  0  0
   39.1150   23.0720   36.0270 C   0  0  0  0  0  0  0  0  0  0  0  0
   40.0330   22.8760   36.9880 N   0  0  0  0  0  0  0  0  0  0  0  0
   39.4380   22.7450   34.6870 N   0  0  0  0  0  0  0  0  0  0  0  0
   40.5240   23.0360   33.9470 C   0  0  0  0  0  0  0  0  0  0  0  0
   40.4160   22.5240   32.6770 C   0  0  0  0  0  0  0  0  0  0  0  0
   39.2130   21.8910   32.6320 N   0  0  0  0  0  0  0  0  0  0  0  0
   38.6560   22.0390   33.8390 C   0  0  0  0  0  0  0  0  0  0  0  0
   37.3720   21.4750   34.0620 N   0  0  0  0  0  0  0  0  0  0  0  0
   36.9440   21.3540   35.3570 C   0  0  0  0  0  0  0  0  0  0  0  0
   35.6560   20.8420   35.2480 C   0  0  0  0  0  0  0  0  0  0  0  0
   35.3360   20.6590   33.9120 N   0  0  0  0  0  0  0  0  0  0  0  0
   36.4030   21.0520   33.1720 C   0  0  0  0  0  0  0  0  0  0  0  0
   36.5670   21.0740   31.7660 N   0  0  0  0  0  0  0  0  0  0  0  0
   37.2080   22.0610   30.9120 C   0  0  0  0  0  0  0  0  0  0  0  0
   38.3660   21.2100   30.3740 C   0  0  0  0  0  0  0  0  0  0  0  0
   37.5590   20.0060   29.8940 C   0  0  0  0  0  0  0  0  0  0  0  0
   36.2420   20.2200   30.6350 C   0  0  0  0  0  0  0  0  0  0  0  0
   40.5732   22.9721   39.0222 H   0  0  0  0  0  0  0  0  0  0  0  0
   38.3165   23.8935   39.7147 H   0  0  0  0  0  0  0  0  0  0  0  0
   36.5801   24.2630   37.8992 H   0  0  0  0  0  0  0  0  0  0  0  0
   41.3878   23.6106   34.3126 H   0  0  0  0  0  0  0  0  0  0  0  0
   41.1514   22.6086   31.8634 H   0  0  0  0  0  0  0  0  0  0  0  0
   37.4946   21.6050   36.2756 H   0  0  0  0  0  0  0  0  0  0  0  0
   34.9910   20.6162   36.0947 H   0  0  0  0  0  0  0  0  0  0  0  0
   36.5410   22.4034   30.1071 H   0  0  0  0  0  0  0  0  0  0  0  0
   37.5041   22.9944   31.4131 H   0  0  0  0  0  0  0  0  0  0  0  0
   38.8978   21.7077   29.5497 H   0  0  0  0  0  0  0  0  0  0  0  0
   39.1704   20.9903   31.0914 H   0  0  0  0  0  0  0  0  0  0  0  0
   37.4161   20.0249   28.8035 H   0  0  0  0  0  0  0  0  0  0  0  0
   38.0359   19.0344   30.0907 H   0  0  0  0  0  0  0  0  0  0  0  0
   35.5080   20.7122   29.9801 H   0  0  0  0  0  0  0  0  0  0  0  0
   35.7958   19.2677   30.9576 H   0  0  0  0  0  0  0  0  0  0  0  0
  1  2  2  0
  3  2  1  0
  4  3  2  0
  5  4  1  0
  5  6  2  0
  6  1  1  0
  7  5  1  0
  8  7  1  0
  9  8  2  0
 10  9  1  0
 10 11  2  0
 11 12  1  0
 11  7  1  0
 12 13  1  0
 14 13  2  0
 15 14  1  0
 16 15  2  0
 16 12  1  0
 17 16  1  0
 18 17  1  0
 19 18  1  0
 20 19  1  0
 20 21  1  0
 21 17  1  0
  1 22  1  0
  2 23  1  0
  3 24  1  0
  8 25  1  0
  9 26  1  0
 13 27  1  0
 14 28  1  0
 18 29  1  0
 18 30  1  0
 19 31  1  0
 19 32  1  0
 20 33  1  0
 20 34  1  0
 21 35  1  0
 21 36  1  0
M  ISO  8  22  14  23  14  24  14  25  14  26  14  27  14  28  14  29  13
M  ISO  7  30  13  31  13  32  13  33  13  34  13  35  13  36  13
M  END
>  <minimizedAffinity>  (1) 
-5.15379906

>  <minimizedRMSD>  (1) 
0.404419392

$$$$
