
     RDKit          3D

 23 23  0  0  0  0  0  0  0  0999 V2000
   38.4110   23.6470   37.2190 C   0  0  0  0  0  0  0  0  0  0  0  0
   41.5950   21.6370   37.0230 C   0  0  0  0  0  0  0  0  0  0  0  0
   40.4900   22.2760   37.5840 C   0  0  0  0  0  0  0  0  0  0  0  0
   39.5970   22.9470   36.7310 C   0  0  0  0  0  0  0  0  0  0  0  0
   39.8530   22.9410   35.4000 N   0  0  0  0  0  0  0  0  0  0  0  0
   40.9330   22.3130   34.8910 C   0  0  0  0  0  0  0  0  0  0  0  0
   41.8020   21.6640   35.6810 N   0  0  0  0  0  0  0  0  0  0  0  0
   38.5240   23.6930   38.7510 C   0  0  0  0  0  0  0  0  0  0  0  0
   38.2230   25.0220   36.6510 C   0  0  0  0  0  0  0  0  0  0  0  0
   37.1650   22.8490   36.8560 C   0  0  0  0  0  0  0  0  0  0  0  0
   37.5690   21.6200   36.3420 O   0  0  0  0  0  0  0  0  0  0  0  0
   42.3057   21.1061   37.6734 H   0  0  0  0  0  0  0  0  0  0  0  0
   40.3208   22.2554   38.6707 H   0  0  0  0  0  0  0  0  0  0  0  0
   41.1050   22.3334   33.8047 H   0  0  0  0  0  0  0  0  0  0  0  0
   37.5934   23.3142   39.1988 H   0  0  0  0  0  0  0  0  0  0  0  0
   39.3684   23.0670   39.0753 H   0  0  0  0  0  0  0  0  0  0  0  0
   38.6911   24.7307   39.0753 H   0  0  0  0  0  0  0  0  0  0  0  0
   38.1238   25.7474   37.4719 H   0  0  0  0  0  0  0  0  0  0  0  0
   39.0935   25.2853   36.0322 H   0  0  0  0  0  0  0  0  0  0  0  0
   37.3138   25.0419   36.0322 H   0  0  0  0  0  0  0  0  0  0  0  0
   36.5486   22.6926   37.7535 H   0  0  0  0  0  0  0  0  0  0  0  0
   36.5686   23.3948   36.1101 H   0  0  0  0  0  0  0  0  0  0  0  0
   37.7724   21.0013   37.0876 H   0  0  0  0  0  0  0  0  0  0  0  0
  1  8  1  0
  2  3  2  0
  4  1  1  0
  4  3  1  0
  5  4  2  0
  6  5  1  0
  6  7  2  0
  7  2  1  0
  9  1  1  0
 10  1  1  0
 11 10  1  0
  2 12  1  0
  3 13  1  0
  6 14  1  0
  8 15  1  0
  8 16  1  0
  8 17  1  0
  9 18  1  0
  9 19  1  0
  9 20  1  0
 10 21  1  0
 10 22  1  0
 11 23  1  0
M  ISO  8  12  14  13  14  14  14  15   8  16   8  17   8  18   8  19   8
M  ISO  4  20   8  21   8  22   8  23   3
M  END
>  <minimizedAffinity>  (1) 
-3.5526135

>  <minimizedRMSD>  (1) 
0.390347332

$$$$
