
     RDKit          3D

 27 29  0  0  0  0  0  0  0  0999 V2000
   39.8770   22.9980   38.1130 C   0  0  0  0  0  0  0  0  0  0  0  0
   38.6150   23.4460   38.5770 C   0  0  0  0  0  0  0  0  0  0  0  0
   37.6190   23.6820   37.6090 C   0  0  0  0  0  0  0  0  0  0  0  0
   37.9070   23.4720   36.2770 N   0  0  0  0  0  0  0  0  0  0  0  0
   39.1190   23.0460   35.8840 C   0  0  0  0  0  0  0  0  0  0  0  0
   40.0820   22.8170   36.8130 N   0  0  0  0  0  0  0  0  0  0  0  0
   39.4270   22.7960   34.5220 N   0  0  0  0  0  0  0  0  0  0  0  0
   40.5070   23.1320   33.7880 C   0  0  0  0  0  0  0  0  0  0  0  0
   40.3860   22.6750   32.4990 C   0  0  0  0  0  0  0  0  0  0  0  0
   39.1920   22.0370   32.4370 N   0  0  0  0  0  0  0  0  0  0  0  0
   38.6360   22.1210   33.6540 C   0  0  0  0  0  0  0  0  0  0  0  0
   37.3530   21.5530   33.8680 N   0  0  0  0  0  0  0  0  0  0  0  0
   36.9950   21.2990   35.1730 C   0  0  0  0  0  0  0  0  0  0  0  0
   35.6820   20.8070   35.0630 C   0  0  0  0  0  0  0  0  0  0  0  0
   35.3010   20.7760   33.7280 N   0  0  0  0  0  0  0  0  0  0  0  0
   36.3380   21.2360   32.9940 C   0  0  0  0  0  0  0  0  0  0  0  0
   36.3750   21.3790   31.5660 C   0  0  0  0  0  0  0  0  0  0  0  0
   35.5620   22.0980   30.9770 O   0  0  0  0  0  0  0  0  0  0  0  0
   37.1530   20.8790   30.5540 O   0  0  0  0  0  0  0  0  0  0  0  0
   40.6874   22.8000   38.8299 H   0  0  0  0  0  0  0  0  0  0  0  0
   38.4212   23.6029   39.6484 H   0  0  0  0  0  0  0  0  0  0  0  0
   36.6209   24.0305   37.9129 H   0  0  0  0  0  0  0  0  0  0  0  0
   41.3698   23.6968   34.1708 H   0  0  0  0  0  0  0  0  0  0  0  0
   41.1115   22.8012   31.6819 H   0  0  0  0  0  0  0  0  0  0  0  0
   37.5932   21.4459   36.0843 H   0  0  0  0  0  0  0  0  0  0  0  0
   35.0513   20.4937   35.9080 H   0  0  0  0  0  0  0  0  0  0  0  0
   36.9712   21.1378   29.6159 H   0  0  0  0  0  0  0  0  0  0  0  0
  1  2  2  0
  3  2  1  0
  4  3  2  0
  5  4  1  0
  5  6  2  0
  6  1  1  0
  7  5  1  0
  8  7  1  0
  9  8  2  0
 10  9  1  0
 10 11  2  0
 11 12  1  0
 11  7  1  0
 12 13  1  0
 14 13  2  0
 15 14  1  0
 16 15  2  0
 16 12  1  0
 17 16  1  0
 18 17  2  0
 19 17  1  0
  1 20  1  0
  2 21  1  0
  3 22  1  0
  8 23  1  0
  9 24  1  0
 13 25  1  0
 14 26  1  0
 19 27  1  0
M  ISO  8  20  14  21  14  22  14  23  14  24  14  25  14  26  14  27   3
M  END
>  <minimizedAffinity>  (1) 
-4.5569253

>  <minimizedRMSD>  (1) 
0.20910795

$$$$
