
     RDKit          3D

 32 35  0  0  0  0  0  0  0  0999 V2000
   39.2710   23.1320   38.4250 C   0  0  0  0  0  0  0  0  0  0  0  0
   37.9520   23.6540   38.3920 C   0  0  0  0  0  0  0  0  0  0  0  0
   37.4420   24.0290   37.1320 C   0  0  0  0  0  0  0  0  0  0  0  0
   38.2330   23.8760   36.0190 N   0  0  0  0  0  0  0  0  0  0  0  0
   39.4970   23.3680   36.1100 C   0  0  0  0  0  0  0  0  0  0  0  0
   39.9740   23.0120   37.3050 N   0  0  0  0  0  0  0  0  0  0  0  0
   40.2740   23.2230   34.9410 N   0  0  0  0  0  0  0  0  0  0  0  0
   41.5630   23.5920   34.7240 C   0  0  0  0  0  0  0  0  0  0  0  0
   41.9210   23.3100   33.4400 C   0  0  0  0  0  0  0  0  0  0  0  0
   40.8310   22.7630   32.8770 N   0  0  0  0  0  0  0  0  0  0  0  0
   39.8610   22.7100   33.7630 C   0  0  0  0  0  0  0  0  0  0  0  0
   38.6070   22.1770   33.4180 N   0  0  0  0  0  0  0  0  0  0  0  0
   37.7320   21.8760   34.4410 C   0  0  0  0  0  0  0  0  0  0  0  0
   36.5840   21.4440   33.7860 C   0  0  0  0  0  0  0  0  0  0  0  0
   36.7850   21.4860   32.4210 N   0  0  0  0  0  0  0  0  0  0  0  0
   38.0420   21.9390   32.1770 C   0  0  0  0  0  0  0  0  0  0  0  0
   38.6700   22.1460   30.9110 C   0  0  0  0  0  0  0  0  0  0  0  0
   38.5160   23.4360   30.3820 C   0  0  0  0  0  0  0  0  0  0  0  0
   39.0320   23.8680   29.1850 C   0  0  0  0  0  0  0  0  0  0  0  0
   39.7300   22.9840   28.4810 N   0  0  0  0  0  0  0  0  0  0  0  0
   39.9020   21.7370   28.9510 C   0  0  0  0  0  0  0  0  0  0  0  0
   39.3710   21.3980   30.1200 N   0  0  0  0  0  0  0  0  0  0  0  0
   39.7137   22.8250   39.3840 H   0  0  0  0  0  0  0  0  0  0  0  0
   37.3538   23.7614   39.3088 H   0  0  0  0  0  0  0  0  0  0  0  0
   36.4250   24.4383   37.0414 H   0  0  0  0  0  0  0  0  0  0  0  0
   42.2219   24.0516   35.4754 H   0  0  0  0  0  0  0  0  0  0  0  0
   42.8963   23.4918   32.9649 H   0  0  0  0  0  0  0  0  0  0  0  0
   37.9029   21.9586   35.5245 H   0  0  0  0  0  0  0  0  0  0  0  0
   35.6569   21.1184   34.2803 H   0  0  0  0  0  0  0  0  0  0  0  0
   37.9355   24.1594   30.9733 H   0  0  0  0  0  0  0  0  0  0  0  0
   38.8749   24.8961   28.8266 H   0  0  0  0  0  0  0  0  0  0  0  0
   40.4790   21.0016   28.3711 H   0  0  0  0  0  0  0  0  0  0  0  0
  2  1  2  0
  3  2  1  0
  4  5  1  0
  4  3  2  0
  5  6  2  0
  6  1  1  0
  7  5  1  0
  8  7  1  0
  9  8  2  0
 10  9  1  0
 10 11  2  0
 11  7  1  0
 12 11  1  0
 12 13  1  0
 14 13  2  0
 15 14  1  0
 16 15  2  0
 16 12  1  0
 17 16  1  0
 18 17  2  0
 19 18  1  0
 20 21  1  0
 20 19  2  0
 21 22  2  0
 22 17  1  0
  1 23  1  0
  2 24  1  0
  3 25  1  0
  8 26  1  0
  9 27  1  0
 13 28  1  0
 14 29  1  0
 18 30  1  0
 19 31  1  0
 21 32  1  0
M  ISO  8  23  14  24  14  25  14  26  14  27  14  28  14  29  14  30  14
M  ISO  2  31  14  32  14
M  END
>  <minimizedAffinity>  (1) 
-4.38782358

>  <minimizedRMSD>  (1) 
1.99385309

$$$$
