
     RDKit          3D

 26 28  0  0  0  0  0  0  0  0999 V2000
   39.8860   22.9690   38.0350 C   0  0  0  0  0  0  0  0  0  0  0  0
   38.6170   23.3460   38.5440 C   0  0  0  0  0  0  0  0  0  0  0  0
   37.5970   23.6110   37.6060 C   0  0  0  0  0  0  0  0  0  0  0  0
   37.8640   23.4980   36.2560 N   0  0  0  0  0  0  0  0  0  0  0  0
   39.0890   23.1340   35.8300 C   0  0  0  0  0  0  0  0  0  0  0  0
   40.0790   22.8760   36.7210 N   0  0  0  0  0  0  0  0  0  0  0  0
   39.3830   22.9870   34.4620 N   0  0  0  0  0  0  0  0  0  0  0  0
   40.4320   23.4120   33.7200 C   0  0  0  0  0  0  0  0  0  0  0  0
   40.3010   23.0340   32.4020 C   0  0  0  0  0  0  0  0  0  0  0  0
   39.1320   22.3470   32.3120 N   0  0  0  0  0  0  0  0  0  0  0  0
   38.6110   22.3400   33.5650 C   0  0  0  0  0  0  0  0  0  0  0  0
   37.3480   21.6960   33.7460 N   0  0  0  0  0  0  0  0  0  0  0  0
   37.0190   21.3560   35.0380 C   0  0  0  0  0  0  0  0  0  0  0  0
   35.7330   20.8080   34.9190 C   0  0  0  0  0  0  0  0  0  0  0  0
   35.3310   20.8250   33.5880 N   0  0  0  0  0  0  0  0  0  0  0  0
   36.3390   21.3770   32.8650 C   0  0  0  0  0  0  0  0  0  0  0  0
   36.5310   21.6620   31.4870 N   0  0  0  0  0  0  0  0  0  0  0  0
   40.7128   22.7529   38.7276 H   0  0  0  0  0  0  0  0  0  0  0  0
   38.4355   23.4284   39.6258 H   0  0  0  0  0  0  0  0  0  0  0  0
   36.5942   23.9061   37.9484 H   0  0  0  0  0  0  0  0  0  0  0  0
   41.2812   23.9863   34.1188 H   0  0  0  0  0  0  0  0  0  0  0  0
   41.0043   23.2464   31.5833 H   0  0  0  0  0  0  0  0  0  0  0  0
   37.6219   21.4837   35.9491 H   0  0  0  0  0  0  0  0  0  0  0  0
   35.1315   20.4219   35.7552 H   0  0  0  0  0  0  0  0  0  0  0  0
   37.4084   22.0974   31.1685 H   0  0  0  0  0  0  0  0  0  0  0  0
   35.7928   21.4333   30.8061 H   0  0  0  0  0  0  0  0  0  0  0  0
  1  2  2  0
  3  2  1  0
  4  3  2  0
  5  4  1  0
  5  6  2  0
  6  1  1  0
  7  5  1  0
  8  7  1  0
  9  8  2  0
 10  9  1  0
 10 11  2  0
 11 12  1  0
 11  7  1  0
 12 13  1  0
 14 13  2  0
 15 14  1  0
 16 15  2  0
 16 12  1  0
 17 16  1  0
  1 18  1  0
  2 19  1  0
  3 20  1  0
  8 21  1  0
  9 22  1  0
 13 23  1  0
 14 24  1  0
 17 25  1  0
 17 26  1  0
M  ISO  7  18  14  19  14  20  14  21  14  22  14  23  14  24  14
M  END
>  <minimizedAffinity>  (1) 
-4.31005955

>  <minimizedRMSD>  (1) 
0.14128913

$$$$
