
     RDKit          3D

 31 34  0  0  0  0  0  0  0  0999 V2000
   39.1150   23.2830   38.5560 C   0  0  0  0  0  0  0  0  0  0  0  0
   37.9110   23.9670   38.4100 C   0  0  0  0  0  0  0  0  0  0  0  0
   37.4760   24.1990   37.0940 C   0  0  0  0  0  0  0  0  0  0  0  0
   38.2360   23.7520   36.0330 N   0  0  0  0  0  0  0  0  0  0  0  0
   39.3850   23.0970   36.2330 C   0  0  0  0  0  0  0  0  0  0  0  0
   39.7930   22.8800   37.4950 N   0  0  0  0  0  0  0  0  0  0  0  0
   40.1570   22.6000   35.1460 N   0  0  0  0  0  0  0  0  0  0  0  0
   41.4880   22.6600   34.9420 C   0  0  0  0  0  0  0  0  0  0  0  0
   41.8200   22.0250   33.7680 C   0  0  0  0  0  0  0  0  0  0  0  0
   40.6650   21.5720   33.2550 N   0  0  0  0  0  0  0  0  0  0  0  0
   39.6740   21.9200   34.0820 C   0  0  0  0  0  0  0  0  0  0  0  0
   38.3340   21.6010   33.7620 N   0  0  0  0  0  0  0  0  0  0  0  0
   37.4250   21.6030   34.7970 C   0  0  0  0  0  0  0  0  0  0  0  0
   36.2120   21.2960   34.1700 C   0  0  0  0  0  0  0  0  0  0  0  0
   36.4140   21.1170   32.8170 N   0  0  0  0  0  0  0  0  0  0  0  0
   37.7390   21.3070   32.5570 C   0  0  0  0  0  0  0  0  0  0  0  0
   38.2710   21.2170   31.2370 C   0  0  0  0  0  0  0  0  0  0  0  0
   37.8670   20.1880   30.4020 C   0  0  0  0  0  0  0  0  0  0  0  0
   38.4810   20.2460   29.2010 N   0  0  0  0  0  0  0  0  0  0  0  0
   39.3110   21.3160   29.2010 C   0  0  0  0  0  0  0  0  0  0  0  0
   39.1160   21.8070   30.4160 N   0  0  0  0  0  0  0  0  0  0  0  0
   39.5056   23.0761   39.5633 H   0  0  0  0  0  0  0  0  0  0  0  0
   37.3304   24.3081   39.2798 H   0  0  0  0  0  0  0  0  0  0  0  0
   36.5331   24.7350   36.9106 H   0  0  0  0  0  0  0  0  0  0  0  0
   42.2061   23.1472   35.6179 H   0  0  0  0  0  0  0  0  0  0  0  0
   42.8259   21.9115   33.3375 H   0  0  0  0  0  0  0  0  0  0  0  0
   37.6089   21.7994   35.8636 H   0  0  0  0  0  0  0  0  0  0  0  0
   35.2413   21.2101   34.6804 H   0  0  0  0  0  0  0  0  0  0  0  0
   37.1346   19.4170   30.6835 H   0  0  0  0  0  0  0  0  0  0  0  0
   39.9731   21.6814   28.4022 H   0  0  0  0  0  0  0  0  0  0  0  0
   39.6249   22.6498   30.7187 H   0  0  0  0  0  0  0  0  0  0  0  0
  2  1  2  0
  3  2  1  0
  4  5  1  0
  4  3  2  0
  5  6  2  0
  6  1  1  0
  7  5  1  0
  8  7  1  0
  9  8  2  0
 10  9  1  0
 10 11  2  0
 11  7  1  0
 12 11  1  0
 12 13  1  0
 14 13  2  0
 15 14  1  0
 16 15  2  0
 16 12  1  0
 17 16  1  0
 18 17  2  0
 19 18  1  0
 20 19  2  0
 20 21  1  0
 21 17  1  0
  1 22  1  0
  2 23  1  0
  3 24  1  0
  8 25  1  0
  9 26  1  0
 13 27  1  0
 14 28  1  0
 18 29  1  0
 20 30  1  0
 21 31  1  0
M  ISO  8  22  14  23  14  24  14  25  14  26  14  27  14  28  14  29  14
M  ISO  2  30  14  31   9
M  END
>  <minimizedAffinity>  (1) 
-4.23475885

>  <minimizedRMSD>  (1) 
1.81951976

$$$$
