
     RDKit          3D

 31 34  0  0  0  0  0  0  0  0999 V2000
   39.1630   23.2490   38.5380 C   0  0  0  0  0  0  0  0  0  0  0  0
   37.9360   23.9500   38.4170 C   0  0  0  0  0  0  0  0  0  0  0  0
   37.4610   24.1960   37.1110 C   0  0  0  0  0  0  0  0  0  0  0  0
   38.1910   23.7560   36.0210 N   0  0  0  0  0  0  0  0  0  0  0  0
   39.3650   23.0850   36.2100 C   0  0  0  0  0  0  0  0  0  0  0  0
   39.8150   22.8530   37.4510 N   0  0  0  0  0  0  0  0  0  0  0  0
   40.1000   22.6190   35.1080 N   0  0  0  0  0  0  0  0  0  0  0  0
   41.4190   22.7040   34.8320 C   0  0  0  0  0  0  0  0  0  0  0  0
   41.7170   22.1140   33.6290 C   0  0  0  0  0  0  0  0  0  0  0  0
   40.5360   21.6390   33.1300 N   0  0  0  0  0  0  0  0  0  0  0  0
   39.5970   21.9590   34.0400 C   0  0  0  0  0  0  0  0  0  0  0  0
   38.2480   21.5960   33.7570 N   0  0  0  0  0  0  0  0  0  0  0  0
   37.3690   21.6000   34.8170 C   0  0  0  0  0  0  0  0  0  0  0  0
   36.1410   21.2730   34.2330 C   0  0  0  0  0  0  0  0  0  0  0  0
   36.2990   21.0740   32.8640 N   0  0  0  0  0  0  0  0  0  0  0  0
   37.6070   21.2760   32.5810 C   0  0  0  0  0  0  0  0  0  0  0  0
   38.3080   21.1960   31.3270 C   0  0  0  0  0  0  0  0  0  0  0  0
   38.6830   22.2520   30.3720 C   0  0  0  0  0  0  0  0  0  0  0  0
   39.3510   21.8710   29.2600 C   0  0  0  0  0  0  0  0  0  0  0  0
   39.6500   20.4400   29.0900 C   0  0  0  0  0  0  0  0  0  0  0  0
   38.8840   19.7160   30.6670 S   0  0  0  0  0  0  0  0  0  0  0  0
   39.5755   23.0328   39.5345 H   0  0  0  0  0  0  0  0  0  0  0  0
   37.3785   24.2875   39.3031 H   0  0  0  0  0  0  0  0  0  0  0  0
   36.5142   24.7354   36.9602 H   0  0  0  0  0  0  0  0  0  0  0  0
   42.1601   23.1847   35.4875 H   0  0  0  0  0  0  0  0  0  0  0  0
   42.7089   22.0384   33.1596 H   0  0  0  0  0  0  0  0  0  0  0  0
   37.5827   21.8110   35.8752 H   0  0  0  0  0  0  0  0  0  0  0  0
   35.1886   21.1857   34.7763 H   0  0  0  0  0  0  0  0  0  0  0  0
   38.4303   23.3067   30.5555 H   0  0  0  0  0  0  0  0  0  0  0  0
   39.6616   22.6083   28.5051 H   0  0  0  0  0  0  0  0  0  0  0  0
   40.1756   19.9286   28.2701 H   0  0  0  0  0  0  0  0  0  0  0  0
  2  1  2  0
  3  2  1  0
  4  5  1  0
  4  3  2  0
  5  6  2  0
  6  1  1  0
  7  5  1  0
  8  7  1  0
  9  8  2  0
 10  9  1  0
 10 11  2  0
 11  7  1  0
 12 11  1  0
 12 13  1  0
 14 13  2  0
 15 14  1  0
 16 15  2  0
 16 12  1  0
 17 16  1  0
 18 17  2  0
 19 18  1  0
 20 19  2  0
 20 21  1  0
 21 17  1  0
  1 22  1  0
  2 23  1  0
  3 24  1  0
  8 25  1  0
  9 26  1  0
 13 27  1  0
 14 28  1  0
 18 29  1  0
 19 30  1  0
 20 31  1  0
M  ISO  8  22  14  23  14  24  14  25  14  26  14  27  14  28  14  29  14
M  ISO  2  30  14  31  14
M  END
>  <minimizedAffinity>  (1) 
-4.20975065

>  <minimizedRMSD>  (1) 
1.72765636

$$$$
