
     RDKit          3D

 41 45  0  0  0  0  0  0  0  0999 V2000
   41.9900   22.2500   36.9140 C   0  0  0  0  0  0  0  0  0  0  0  0
   40.7520   22.0850   37.6110 C   0  0  0  0  0  0  0  0  0  0  0  0
   39.6330   22.8320   37.1460 C   0  0  0  0  0  0  0  0  0  0  0  0
   39.7660   23.6730   36.0680 N   0  0  0  0  0  0  0  0  0  0  0  0
   40.9740   23.7830   35.4490 C   0  0  0  0  0  0  0  0  0  0  0  0
   42.0630   23.0850   35.8640 N   0  0  0  0  0  0  0  0  0  0  0  0
   41.1330   24.6090   34.3240 N   0  0  0  0  0  0  0  0  0  0  0  0
   42.0920   25.5110   34.0070 C   0  0  0  0  0  0  0  0  0  0  0  0
   41.8460   26.1040   32.7750 C   0  0  0  0  0  0  0  0  0  0  0  0
   40.6940   25.5480   32.3110 N   0  0  0  0  0  0  0  0  0  0  0  0
   40.2910   24.6570   33.2610 C   0  0  0  0  0  0  0  0  0  0  0  0
   39.0900   23.9500   33.0320 N   0  0  0  0  0  0  0  0  0  0  0  0
   38.9280   22.7890   33.7290 C   0  0  0  0  0  0  0  0  0  0  0  0
   37.6600   22.3390   33.3490 C   0  0  0  0  0  0  0  0  0  0  0  0
   37.0900   23.2330   32.4320 N   0  0  0  0  0  0  0  0  0  0  0  0
   38.0010   24.2350   32.2430 C   0  0  0  0  0  0  0  0  0  0  0  0
   38.0060   25.4450   31.3720 C   0  0  0  0  0  0  0  0  0  0  0  0
   37.0950   26.4640   31.7760 N   0  0  0  0  0  0  0  0  0  0  0  0
   36.0570   27.0200   31.1610 C   0  0  0  0  0  0  0  0  0  0  0  0
   35.4330   27.9680   31.8870 N   0  0  0  0  0  0  0  0  0  0  0  0
   36.0830   28.0620   33.0610 C   0  0  0  0  0  0  0  0  0  0  0  0
   35.9610   28.8130   34.2120 C   0  0  0  0  0  0  0  0  0  0  0  0
   35.0100   29.6440   34.2260 O   0  0  0  0  0  0  0  0  0  0  0  0
   36.7850   28.6870   35.2630 N   0  0  0  0  0  0  0  0  0  0  0  0
   37.7610   27.7710   35.1390 C   0  0  0  0  0  0  0  0  0  0  0  0
   38.6570   27.5960   36.2170 N   0  0  0  0  0  0  0  0  0  0  0  0
   37.9180   27.0210   34.0440 N   0  0  0  0  0  0  0  0  0  0  0  0
   37.0850   27.1390   32.9660 C   0  0  0  0  0  0  0  0  0  0  0  0
   42.8820   21.6935   37.2375 H   0  0  0  0  0  0  0  0  0  0  0  0
   40.6678   21.4070   38.4731 H   0  0  0  0  0  0  0  0  0  0  0  0
   38.6604   22.7357   37.6507 H   0  0  0  0  0  0  0  0  0  0  0  0
   42.9571   25.7448   34.6449 H   0  0  0  0  0  0  0  0  0  0  0  0
   42.4589   26.8687   32.2754 H   0  0  0  0  0  0  0  0  0  0  0  0
   39.6325   22.3158   34.4288 H   0  0  0  0  0  0  0  0  0  0  0  0
   37.1805   21.4193   33.7155 H   0  0  0  0  0  0  0  0  0  0  0  0
   37.7438   25.1344   30.3498 H   0  0  0  0  0  0  0  0  0  0  0  0
   39.0144   25.8789   31.4425 H   0  0  0  0  0  0  0  0  0  0  0  0
   35.7356   26.7320   30.1492 H   0  0  0  0  0  0  0  0  0  0  0  0
   36.6764   29.2576   36.1136 H   0  0  0  0  0  0  0  0  0  0  0  0
   39.4144   26.9012   36.1496 H   0  0  0  0  0  0  0  0  0  0  0  0
   38.5529   28.1632   37.0705 H   0  0  0  0  0  0  0  0  0  0  0  0
  1  2  2  0
  3  2  1  0
  4  3  2  0
  5  6  2  0
  5  4  1  0
  6  1  1  0
  7  5  1  0
  8  7  1  0
  9  8  2  0
 10  9  1  0
 10 11  2  0
 11  7  1  0
 12 11  1  0
 12 13  1  0
 14 13  2  0
 15 14  1  0
 16 15  2  0
 16 12  1  0
 17 18  1  0
 17 16  1  0
 18 28  1  0
 19 18  1  0
 19 20  2  0
 20 21  1  0
 21 22  1  0
 22 23  2  0
 22 24  1  0
 25 24  1  0
 25 26  1  0
 27 25  2  0
 28 21  2  0
 28 27  1  0
  1 29  1  0
  2 30  1  0
  3 31  1  0
  8 32  1  0
  9 33  1  0
 13 34  1  0
 14 35  1  0
 17 36  1  0
 17 37  1  0
 19 38  1  0
 24 39  1  0
 26 40  1  0
 26 41  1  0
M  ISO  8  29  14  30  14  31  14  32  14  33  14  34  14  35  14  36   8
M  ISO  3  37   8  38  14  39   9
M  END
>  <minimizedAffinity>  (1) 
-5.9535923

>  <minimizedRMSD>  (1) 
3.07131147

$$$$
