
     RDKit          3D

 43 47  0  0  0  0  0  0  0  0999 V2000
   39.9790   23.2290   38.1200 C   0  0  0  0  0  0  0  0  0  0  0  0
   38.7170   23.5610   38.7020 C   0  0  0  0  0  0  0  0  0  0  0  0
   37.6170   23.7440   37.8170 C   0  0  0  0  0  0  0  0  0  0  0  0
   37.7860   23.6040   36.4590 N   0  0  0  0  0  0  0  0  0  0  0  0
   39.0200   23.2840   35.9710 C   0  0  0  0  0  0  0  0  0  0  0  0
   40.0920   23.1020   36.7900 N   0  0  0  0  0  0  0  0  0  0  0  0
   39.2270   23.1010   34.5960 N   0  0  0  0  0  0  0  0  0  0  0  0
   40.2000   23.5520   33.7690 C   0  0  0  0  0  0  0  0  0  0  0  0
   40.0060   23.1160   32.4650 C   0  0  0  0  0  0  0  0  0  0  0  0
   38.8620   22.3610   32.4790 N   0  0  0  0  0  0  0  0  0  0  0  0
   38.4260   22.3780   33.7740 C   0  0  0  0  0  0  0  0  0  0  0  0
   37.2300   21.6810   34.0660 N   0  0  0  0  0  0  0  0  0  0  0  0
   37.0450   21.3200   35.3690 C   0  0  0  0  0  0  0  0  0  0  0  0
   35.7900   20.7040   35.3740 C   0  0  0  0  0  0  0  0  0  0  0  0
   35.2490   20.7040   34.0810 N   0  0  0  0  0  0  0  0  0  0  0  0
   36.1670   21.3190   33.2730 C   0  0  0  0  0  0  0  0  0  0  0  0
   36.2080   21.5990   31.8030 C   0  0  0  0  0  0  0  0  0  0  0  0
   36.9380   20.5100   31.1490 C   0  0  0  0  0  0  0  0  0  0  0  0
   38.0090   20.7270   30.3040 C   0  0  0  0  0  0  0  0  0  0  0  0
   38.6470   19.6720   29.7270 C   0  0  0  0  0  0  0  0  0  0  0  0
   38.2900   18.3510   29.9300 C   0  0  0  0  0  0  0  0  0  0  0  0
   37.2130   18.1660   30.7820 C   0  0  0  0  0  0  0  0  0  0  0  0
   36.8230   16.8510   31.0130 C   0  0  0  0  0  0  0  0  0  0  0  0
   35.7520   16.6100   31.8560 C   0  0  0  0  0  0  0  0  0  0  0  0
   35.0850   17.6650   32.4570 C   0  0  0  0  0  0  0  0  0  0  0  0
   35.4840   18.9660   32.2190 C   0  0  0  0  0  0  0  0  0  0  0  0
   36.5430   19.2010   31.3840 C   0  0  0  0  0  0  0  0  0  0  0  0
   40.8583   23.0775   38.7634 H   0  0  0  0  0  0  0  0  0  0  0  0
   38.6001   23.6708   39.7902 H   0  0  0  0  0  0  0  0  0  0  0  0
   36.6263   23.9988   38.2214 H   0  0  0  0  0  0  0  0  0  0  0  0
   41.0400   24.1853   34.0905 H   0  0  0  0  0  0  0  0  0  0  0  0
   40.6429   23.3331   31.5948 H   0  0  0  0  0  0  0  0  0  0  0  0
   37.7257   21.4773   36.2186 H   0  0  0  0  0  0  0  0  0  0  0  0
   35.2989   20.2811   36.2628 H   0  0  0  0  0  0  0  0  0  0  0  0
   35.1837   21.6519   31.4054 H   0  0  0  0  0  0  0  0  0  0  0  0
   36.7092   22.5596   31.6133 H   0  0  0  0  0  0  0  0  0  0  0  0
   38.3466   21.7533   30.0972 H   0  0  0  0  0  0  0  0  0  0  0  0
   39.4962   19.8822   29.0602 H   0  0  0  0  0  0  0  0  0  0  0  0
   38.8195   17.5133   29.4526 H   0  0  0  0  0  0  0  0  0  0  0  0
   37.3566   16.0169   30.5339 H   0  0  0  0  0  0  0  0  0  0  0  0
   35.4291   15.5764   32.0496 H   0  0  0  0  0  0  0  0  0  0  0  0
   34.2348   17.4661   33.1260 H   0  0  0  0  0  0  0  0  0  0  0  0
   34.9559   19.8049   32.6958 H   0  0  0  0  0  0  0  0  0  0  0  0
  1  2  2  0
  3  2  1  0
  4  3  2  0
  5  4  1  0
  5  6  2  0
  6  1  1  0
  7  5  1  0
  8  7  1  0
  9 10  1  0
  9  8  2  0
 10 11  2  0
 11 12  1  0
 11  7  1  0
 12 13  1  0
 13 14  2  0
 15 14  1  0
 16 12  1  0
 16 15  2  0
 17 16  1  0
 18 27  1  0
 18 17  1  0
 19 18  2  0
 20 21  2  0
 20 19  1  0
 21 22  1  0
 22 23  1  0
 22 27  2  0
 23 24  2  0
 24 25  1  0
 26 25  2  0
 27 26  1  0
  1 28  1  0
  2 29  1  0
  3 30  1  0
  8 31  1  0
  9 32  1  0
 13 33  1  0
 14 34  1  0
 17 35  1  0
 17 36  1  0
 19 37  1  0
 20 38  1  0
 21 39  1  0
 23 40  1  0
 24 41  1  0
 25 42  1  0
 26 43  1  0
M  ISO  8  28  14  29  14  30  14  31  14  32  14  33  14  34  14  35   8
M  ISO  8  36   8  37  14  38  14  39  14  40  14  41  14  42  14  43  14
M  END
>  <minimizedAffinity>  (1) 
-5.75150108

>  <minimizedRMSD>  (1) 
0.42887643

$$$$
