
     RDKit          3D

 40 43  0  0  0  0  0  0  0  0999 V2000
   39.7110   23.0340   38.1490 C   0  0  0  0  0  0  0  0  0  0  0  0
   38.4410   23.5940   38.4890 C   0  0  0  0  0  0  0  0  0  0  0  0
   37.5340   23.8450   37.4220 C   0  0  0  0  0  0  0  0  0  0  0  0
   37.8790   23.5550   36.1270 N   0  0  0  0  0  0  0  0  0  0  0  0
   39.1110   23.0190   35.8770 C   0  0  0  0  0  0  0  0  0  0  0  0
   40.0090   22.7640   36.8680 N   0  0  0  0  0  0  0  0  0  0  0  0
   39.4970   22.6780   34.5670 N   0  0  0  0  0  0  0  0  0  0  0  0
   40.6380   22.9170   33.8810 C   0  0  0  0  0  0  0  0  0  0  0  0
   40.5830   22.3900   32.6000 C   0  0  0  0  0  0  0  0  0  0  0  0
   39.3580   21.8020   32.4920 N   0  0  0  0  0  0  0  0  0  0  0  0
   38.7350   21.9890   33.6750 C   0  0  0  0  0  0  0  0  0  0  0  0
   37.4210   21.4890   33.8270 N   0  0  0  0  0  0  0  0  0  0  0  0
   36.9810   21.2930   35.1020 C   0  0  0  0  0  0  0  0  0  0  0  0
   35.6610   20.8620   34.9470 C   0  0  0  0  0  0  0  0  0  0  0  0
   35.3400   20.8060   33.5810 N   0  0  0  0  0  0  0  0  0  0  0  0
   36.4500   21.1970   32.8990 C   0  0  0  0  0  0  0  0  0  0  0  0
   36.7450   21.2980   31.4420 C   0  0  0  0  0  0  0  0  0  0  0  0
   37.0000   17.1470   30.2810 C   0  0  0  0  0  0  0  0  0  0  0  0
   37.1850   17.5800   31.5750 C   0  0  0  0  0  0  0  0  0  0  0  0
   37.0810   18.9330   31.8170 C   0  0  0  0  0  0  0  0  0  0  0  0
   36.8010   19.9330   30.8700 C   0  0  0  0  0  0  0  0  0  0  0  0
   36.6300   19.4140   29.6090 C   0  0  0  0  0  0  0  0  0  0  0  0
   36.7220   18.0770   29.3080 C   0  0  0  0  0  0  0  0  0  0  0  0
   37.0910   15.4800   29.7670 S   0  0  0  0  0  0  0  0  0  0  0  0
   35.6690   14.9500   29.7340 O   0  0  0  0  0  0  0  0  0  0  0  0
   37.8280   14.6910   30.8380 O   0  0  0  0  0  0  0  0  0  0  0  0
   40.4467   22.8235   38.9392 H   0  0  0  0  0  0  0  0  0  0  0  0
   38.1758   23.8215   39.5320 H   0  0  0  0  0  0  0  0  0  0  0  0
   36.5455   24.2763   37.6382 H   0  0  0  0  0  0  0  0  0  0  0  0
   41.5022   23.4618   34.2889 H   0  0  0  0  0  0  0  0  0  0  0  0
   41.3666   22.4367   31.8294 H   0  0  0  0  0  0  0  0  0  0  0  0
   37.5379   21.4405   36.0391 H   0  0  0  0  0  0  0  0  0  0  0  0
   34.9773   20.6056   35.7697 H   0  0  0  0  0  0  0  0  0  0  0  0
   35.9524   21.8754   30.9436 H   0  0  0  0  0  0  0  0  0  0  0  0
   37.7087   21.8063   31.2904 H   0  0  0  0  0  0  0  0  0  0  0  0
   37.4078   16.8716   32.3865 H   0  0  0  0  0  0  0  0  0  0  0  0
   37.2323   19.2631   32.8553 H   0  0  0  0  0  0  0  0  0  0  0  0
   36.4055   20.1128   28.7897 H   0  0  0  0  0  0  0  0  0  0  0  0
   36.5706   17.7449   28.2703 H   0  0  0  0  0  0  0  0  0  0  0  0
   37.7176   15.3727   28.5534 H   0  0  0  0  0  0  0  0  0  0  0  0
  1  2  2  0
  3  2  1  0
  4  3  2  0
  5  4  1  0
  5  6  2  0
  6  1  1  0
  7  5  1  0
  8  7  1  0
  9  8  2  0
 10  9  1  0
 10 11  2  0
 11 12  1  0
 11  7  1  0
 12 13  1  0
 14 13  2  0
 15 14  1  0
 16 15  2  0
 16 12  1  0
 17 16  1  0
 18 19  2  0
 19 20  1  0
 21 17  1  0
 21 20  2  0
 22 21  1  0
 23 22  2  0
 23 18  1  0
 24 18  1  0
 24 26  2  0
 25 24  2  0
  1 27  1  0
  2 28  1  0
  3 29  1  0
  8 30  1  0
  9 31  1  0
 13 32  1  0
 14 33  1  0
 17 34  1  0
 17 35  1  0
 19 36  1  0
 20 37  1  0
 22 38  1  0
 23 39  1  0
 24 40  1  0
M  ISO  8  27  14  28  14  29  14  30  14  31  14  32  14  33  14  34   8
M  ISO  6  35   8  36  14  37  14  38  14  39  14  40  11
M  END
>  <minimizedAffinity>  (1) 
-5.21068859

>  <minimizedRMSD>  (1) 
0.907369852

$$$$
