
     RDKit          3D

 34 37  0  0  0  0  0  0  0  0999 V2000
   39.9410   22.9820   38.0300 C   0  0  0  0  0  0  0  0  0  0  0  0
   38.6720   23.3420   38.5820 C   0  0  0  0  0  0  0  0  0  0  0  0
   37.6150   23.6250   37.6700 C   0  0  0  0  0  0  0  0  0  0  0  0
   37.8350   23.5460   36.3140 N   0  0  0  0  0  0  0  0  0  0  0  0
   39.0710   23.1930   35.8560 C   0  0  0  0  0  0  0  0  0  0  0  0
   40.1000   22.9190   36.7000 N   0  0  0  0  0  0  0  0  0  0  0  0
   39.3200   23.0760   34.4770 N   0  0  0  0  0  0  0  0  0  0  0  0
   40.3400   23.5350   33.7120 C   0  0  0  0  0  0  0  0  0  0  0  0
   40.1700   23.1810   32.3790 C   0  0  0  0  0  0  0  0  0  0  0  0
   39.0030   22.4780   32.3220 N   0  0  0  0  0  0  0  0  0  0  0  0
   38.5200   22.4320   33.5860 C   0  0  0  0  0  0  0  0  0  0  0  0
   37.2950   21.7640   33.8070 N   0  0  0  0  0  0  0  0  0  0  0  0
   37.0480   21.3470   35.0830 C   0  0  0  0  0  0  0  0  0  0  0  0
   35.7700   20.7750   35.0060 C   0  0  0  0  0  0  0  0  0  0  0  0
   35.2900   20.8600   33.6910 N   0  0  0  0  0  0  0  0  0  0  0  0
   36.2550   21.4760   32.9620 C   0  0  0  0  0  0  0  0  0  0  0  0
   36.3440   21.8090   31.5090 C   0  0  0  0  0  0  0  0  0  0  0  0
   36.6280   20.5230   30.8220 C   0  0  0  0  0  0  0  0  0  0  0  0
   37.6130   19.9860   30.0250 C   0  0  0  0  0  0  0  0  0  0  0  0
   37.3250   18.6820   29.6840 C   0  0  0  0  0  0  0  0  0  0  0  0
   36.1510   18.4640   30.2970 N   0  0  0  0  0  0  0  0  0  0  0  0
   35.7460   19.5160   30.9510 N   0  0  0  0  0  0  0  0  0  0  0  0
   40.7867   22.7568   38.6963 H   0  0  0  0  0  0  0  0  0  0  0  0
   38.5179   23.3983   39.6697 H   0  0  0  0  0  0  0  0  0  0  0  0
   36.6220   23.9069   38.0501 H   0  0  0  0  0  0  0  0  0  0  0  0
   41.1929   24.1134   34.0967 H   0  0  0  0  0  0  0  0  0  0  0  0
   40.8406   23.4194   31.5403 H   0  0  0  0  0  0  0  0  0  0  0  0
   37.6989   21.4383   35.9650 H   0  0  0  0  0  0  0  0  0  0  0  0
   35.2257   20.3269   35.8503 H   0  0  0  0  0  0  0  0  0  0  0  0
   35.3934   22.2329   31.1531 H   0  0  0  0  0  0  0  0  0  0  0  0
   37.1244   22.5583   31.3098 H   0  0  0  0  0  0  0  0  0  0  0  0
   38.5141   20.5277   29.7017 H   0  0  0  0  0  0  0  0  0  0  0  0
   37.9126   17.9903   29.0625 H   0  0  0  0  0  0  0  0  0  0  0  0
   35.6336   17.5743   30.2556 H   0  0  0  0  0  0  0  0  0  0  0  0
  1  2  2  0
  3  2  1  0
  4  3  2  0
  5  4  1  0
  5  6  2  0
  6  1  1  0
  7  5  1  0
  8  7  1  0
  9  8  2  0
 10  9  1  0
 10 11  2  0
 11 12  1  0
 11  7  1  0
 12 13  1  0
 14 13  2  0
 15 14  1  0
 16 15  2  0
 16 12  1  0
 17 16  1  0
 18 22  2  0
 18 17  1  0
 19 18  1  0
 20 19  2  0
 20 21  1  0
 21 22  1  0
  1 23  1  0
  2 24  1  0
  3 25  1  0
  8 26  1  0
  9 27  1  0
 13 28  1  0
 14 29  1  0
 17 30  1  0
 17 31  1  0
 19 32  1  0
 20 33  1  0
 21 34  1  0
M  ISO  8  23  14  24  14  25  14  26  14  27  14  28  14  29  14  30   8
M  ISO  4  31   8  32  14  33  14  34   9
M  END
>  <minimizedAffinity>  (1) 
-5.12974262

>  <minimizedRMSD>  (1) 
0.148479566

$$$$
