
     RDKit          3D

 38 41  0  0  0  0  0  0  0  0999 V2000
   39.9240   23.1330   38.1860 C   0  0  0  0  0  0  0  0  0  0  0  0
   38.6400   23.4180   38.7440 C   0  0  0  0  0  0  0  0  0  0  0  0
   37.5680   23.6580   37.8390 C   0  0  0  0  0  0  0  0  0  0  0  0
   37.7880   23.6100   36.4790 N   0  0  0  0  0  0  0  0  0  0  0  0
   39.0390   23.3310   36.0170 C   0  0  0  0  0  0  0  0  0  0  0  0
   40.0820   23.0980   36.8540 N   0  0  0  0  0  0  0  0  0  0  0  0
   39.2860   23.2430   34.6360 N   0  0  0  0  0  0  0  0  0  0  0  0
   40.2720   23.7750   33.8720 C   0  0  0  0  0  0  0  0  0  0  0  0
   40.1240   23.4200   32.5370 C   0  0  0  0  0  0  0  0  0  0  0  0
   39.0180   22.6520   32.4880 N   0  0  0  0  0  0  0  0  0  0  0  0
   38.5310   22.5540   33.7360 C   0  0  0  0  0  0  0  0  0  0  0  0
   37.3410   21.8220   33.9530 N   0  0  0  0  0  0  0  0  0  0  0  0
   37.1040   21.3910   35.2220 C   0  0  0  0  0  0  0  0  0  0  0  0
   35.8450   20.7780   35.1350 C   0  0  0  0  0  0  0  0  0  0  0  0
   35.3690   20.8580   33.8150 N   0  0  0  0  0  0  0  0  0  0  0  0
   36.3160   21.5090   33.0970 C   0  0  0  0  0  0  0  0  0  0  0  0
   36.4020   21.8320   31.6480 C   0  0  0  0  0  0  0  0  0  0  0  0
   36.7640   20.6300   30.9430 N   0  0  0  0  0  0  0  0  0  0  0  0
   37.9570   20.6340   30.2590 C   0  0  0  0  0  0  0  0  0  0  0  0
   38.5020   19.6200   29.5160 C   0  0  0  0  0  0  0  0  0  0  0  0
   37.7910   18.4460   29.4280 C   0  0  0  0  0  0  0  0  0  0  0  0
   38.2320   17.3160   28.6960 N   0  0  0  0  0  0  0  0  0  0  0  0
   36.6330   18.4300   30.0860 N   0  0  0  0  0  0  0  0  0  0  0  0
   36.1640   19.4670   30.7960 C   0  0  0  0  0  0  0  0  0  0  0  0
   35.0600   19.3060   31.3620 O   0  0  0  0  0  0  0  0  0  0  0  0
   40.7820   22.9425   38.8475 H   0  0  0  0  0  0  0  0  0  0  0  0
   38.4856   23.4507   39.8326 H   0  0  0  0  0  0  0  0  0  0  0  0
   36.5627   23.8821   38.2253 H   0  0  0  0  0  0  0  0  0  0  0  0
   41.0849   24.4067   34.2596 H   0  0  0  0  0  0  0  0  0  0  0  0
   40.7734   23.7059   31.6965 H   0  0  0  0  0  0  0  0  0  0  0  0
   37.7479   21.4981   36.1074 H   0  0  0  0  0  0  0  0  0  0  0  0
   35.3112   20.3062   35.9731 H   0  0  0  0  0  0  0  0  0  0  0  0
   35.4282   22.1962   31.2887 H   0  0  0  0  0  0  0  0  0  0  0  0
   37.1541   22.6160   31.4761 H   0  0  0  0  0  0  0  0  0  0  0  0
   38.5441   21.5625   30.3151 H   0  0  0  0  0  0  0  0  0  0  0  0
   39.4709   19.7403   29.0094 H   0  0  0  0  0  0  0  0  0  0  0  0
   37.6546   16.4636   28.6673 H   0  0  0  0  0  0  0  0  0  0  0  0
   39.1300   17.3469   28.1925 H   0  0  0  0  0  0  0  0  0  0  0  0
  1  2  2  0
  3  2  1  0
  4  3  2  0
  5  4  1  0
  5  6  2  0
  6  1  1  0
  7  5  1  0
  8  7  1  0
  9  8  2  0
 10  9  1  0
 10 11  2  0
 11 12  1  0
 11  7  1  0
 12 13  1  0
 14 13  2  0
 15 14  1  0
 16 15  2  0
 16 12  1  0
 17 16  1  0
 18 17  1  0
 19 18  1  0
 20 19  2  0
 21 20  1  0
 21 23  2  0
 22 21  1  0
 23 24  1  0
 24 18  1  0
 24 25  2  0
  1 26  1  0
  2 27  1  0
  3 28  1  0
  8 29  1  0
  9 30  1  0
 13 31  1  0
 14 32  1  0
 17 33  1  0
 17 34  1  0
 19 35  1  0
 20 36  1  0
 22 37  1  0
 22 38  1  0
M  ISO  8  26  14  27  14  28  14  29  14  30  14  31  14  32  14  33   8
M  ISO  3  34   8  35  14  36  14
M  END
>  <minimizedAffinity>  (1) 
-4.99575186

>  <minimizedRMSD>  (1) 
0.62065202

$$$$
