
     RDKit          3D

 42 45  0  0  0  0  0  0  0  0999 V2000
   40.0080   22.9710   36.8960 C   0  0  0  0  0  0  0  0  0  0  0  0
   38.6340   22.6930   37.1770 C   0  0  0  0  0  0  0  0  0  0  0  0
   37.6570   23.4760   36.5020 C   0  0  0  0  0  0  0  0  0  0  0  0
   38.0410   24.4560   35.6190 N   0  0  0  0  0  0  0  0  0  0  0  0
   39.3700   24.6650   35.3980 C   0  0  0  0  0  0  0  0  0  0  0  0
   40.3350   23.9390   36.0240 N   0  0  0  0  0  0  0  0  0  0  0  0
   39.8040   25.6380   34.4810 N   0  0  0  0  0  0  0  0  0  0  0  0
   40.7590   26.5950   34.5720 C   0  0  0  0  0  0  0  0  0  0  0  0
   40.8450   27.3390   33.4030 C   0  0  0  0  0  0  0  0  0  0  0  0
   39.9100   26.8270   32.5600 N   0  0  0  0  0  0  0  0  0  0  0  0
   39.3040   25.8140   33.2270 C   0  0  0  0  0  0  0  0  0  0  0  0
   38.2630   25.1190   32.5720 N   0  0  0  0  0  0  0  0  0  0  0  0
   37.9700   23.8750   33.0460 C   0  0  0  0  0  0  0  0  0  0  0  0
   36.8930   23.4540   32.2610 C   0  0  0  0  0  0  0  0  0  0  0  0
   36.5630   24.4470   31.3290 N   0  0  0  0  0  0  0  0  0  0  0  0
   37.4330   25.4850   31.5370 C   0  0  0  0  0  0  0  0  0  0  0  0
   37.6280   26.7960   30.8550 C   0  0  0  0  0  0  0  0  0  0  0  0
   36.4040   27.5680   30.7480 N   0  0  0  0  0  0  0  0  0  0  0  0
   36.7360   28.8440   30.1930 C   0  0  0  0  0  0  0  0  0  0  0  0
   35.9060   29.9710   30.7630 C   0  0  0  0  0  0  0  0  0  0  0  0
   35.9630   30.0470   32.2570 C   0  0  0  0  0  0  0  0  0  0  0  0
   36.3760   28.7460   32.9000 C   0  0  0  0  0  0  0  0  0  0  0  0
   35.8220   27.6160   32.0640 C   0  0  0  0  0  0  0  0  0  0  0  0
   40.7987   22.3912   37.3947 H   0  0  0  0  0  0  0  0  0  0  0  0
   38.3439   21.9047   37.8872 H   0  0  0  0  0  0  0  0  0  0  0  0
   36.5879   23.2959   36.6880 H   0  0  0  0  0  0  0  0  0  0  0  0
   41.3867   26.7614   35.4598 H   0  0  0  0  0  0  0  0  0  0  0  0
   41.5314   28.1743   33.2001 H   0  0  0  0  0  0  0  0  0  0  0  0
   38.4675   23.3276   33.8602 H   0  0  0  0  0  0  0  0  0  0  0  0
   36.3801   22.4860   32.3602 H   0  0  0  0  0  0  0  0  0  0  0  0
   38.3631   27.3821   31.4261 H   0  0  0  0  0  0  0  0  0  0  0  0
   37.9746   26.5861   29.8324 H   0  0  0  0  0  0  0  0  0  0  0  0
   37.7965   29.0507   30.3996 H   0  0  0  0  0  0  0  0  0  0  0  0
   36.5290   28.7968   29.1137 H   0  0  0  0  0  0  0  0  0  0  0  0
   36.2757   30.9212   30.3501 H   0  0  0  0  0  0  0  0  0  0  0  0
   34.8591   29.7796   30.4847 H   0  0  0  0  0  0  0  0  0  0  0  0
   36.6885   30.8236   32.5407 H   0  0  0  0  0  0  0  0  0  0  0  0
   34.9488   30.2815   32.6126 H   0  0  0  0  0  0  0  0  0  0  0  0
   37.4734   28.6797   32.9372 H   0  0  0  0  0  0  0  0  0  0  0  0
   35.9879   28.6873   33.9276 H   0  0  0  0  0  0  0  0  0  0  0  0
   34.7349   27.7509   31.9644 H   0  0  0  0  0  0  0  0  0  0  0  0
   36.0671   26.6721   32.5728 H   0  0  0  0  0  0  0  0  0  0  0  0
  1  2  2  0
  3  2  1  0
  4  3  2  0
  5  4  1  0
  5  6  2  0
  6  1  1  0
  7  8  1  0
  7  5  1  0
  9  8  2  0
 10 11  2  0
 10  9  1  0
 11  7  1  0
 12 13  1  0
 12 11  1  0
 14 13  2  0
 15 16  2  0
 15 14  1  0
 16 12  1  0
 17 16  1  0
 18 17  1  0
 18 23  1  0
 19 18  1  0
 19 20  1  0
 20 21  1  0
 21 22  1  0
 23 22  1  0
  1 24  1  0
  2 25  1  0
  3 26  1  0
  8 27  1  0
  9 28  1  0
 13 29  1  0
 14 30  1  0
 17 31  1  0
 17 32  1  0
 19 33  1  0
 19 34  1  0
 20 35  1  0
 20 36  1  0
 21 37  1  0
 21 38  1  0
 22 39  1  0
 22 40  1  0
 23 41  1  0
 23 42  1  0
M  ISO  8  24  14  25  14  26  14  27  14  28  14  29  14  30  14  31   8
M  ISO  8  32   8  33  13  34  13  35  13  36  13  37  13  38  13  39  13
M  ISO  3  40  13  41  13  42  13
M  END
>  <minimizedAffinity>  (1) 
-4.98940659

>  <minimizedRMSD>  (1) 
3.70811439

$$$$
