
     RDKit          3D

 34 37  0  0  0  0  0  0  0  0999 V2000
   39.9250   22.9870   38.0760 C   0  0  0  0  0  0  0  0  0  0  0  0
   38.6460   23.3440   38.6100 C   0  0  0  0  0  0  0  0  0  0  0  0
   37.6090   23.6280   37.6910 C   0  0  0  0  0  0  0  0  0  0  0  0
   37.8460   23.5570   36.3360 N   0  0  0  0  0  0  0  0  0  0  0  0
   39.0890   23.2080   35.8960 C   0  0  0  0  0  0  0  0  0  0  0  0
   40.1120   22.9290   36.7480 N   0  0  0  0  0  0  0  0  0  0  0  0
   39.3570   23.0900   34.5150 N   0  0  0  0  0  0  0  0  0  0  0  0
   40.3860   23.5500   33.7650 C   0  0  0  0  0  0  0  0  0  0  0  0
   40.2400   23.1970   32.4330 C   0  0  0  0  0  0  0  0  0  0  0  0
   39.0760   22.4900   32.3580 N   0  0  0  0  0  0  0  0  0  0  0  0
   38.5730   22.4440   33.6140 C   0  0  0  0  0  0  0  0  0  0  0  0
   37.3430   21.7760   33.8110 N   0  0  0  0  0  0  0  0  0  0  0  0
   37.0670   21.3710   35.0840 C   0  0  0  0  0  0  0  0  0  0  0  0
   35.7920   20.8050   34.9970 C   0  0  0  0  0  0  0  0  0  0  0  0
   35.3360   20.8800   33.6730 N   0  0  0  0  0  0  0  0  0  0  0  0
   36.3170   21.4850   32.9510 C   0  0  0  0  0  0  0  0  0  0  0  0
   36.4420   21.7990   31.4980 C   0  0  0  0  0  0  0  0  0  0  0  0
   36.6680   20.5180   30.7810 C   0  0  0  0  0  0  0  0  0  0  0  0
   36.1270   19.2600   30.6610 C   0  0  0  0  0  0  0  0  0  0  0  0
   36.8430   18.4830   29.7780 C   0  0  0  0  0  0  0  0  0  0  0  0
   37.8420   19.3360   29.3720 C   0  0  0  0  0  0  0  0  0  0  0  0
   37.7210   20.4930   29.9600 O   0  0  0  0  0  0  0  0  0  0  0  0
   40.7584   22.7592   38.7568 H   0  0  0  0  0  0  0  0  0  0  0  0
   38.4757   23.3956   39.6955 H   0  0  0  0  0  0  0  0  0  0  0  0
   36.6106   23.9063   38.0594 H   0  0  0  0  0  0  0  0  0  0  0  0
   41.2313   24.1307   34.1628 H   0  0  0  0  0  0  0  0  0  0  0  0
   40.9232   23.4378   31.6052 H   0  0  0  0  0  0  0  0  0  0  0  0
   37.7032   21.4678   35.9761 H   0  0  0  0  0  0  0  0  0  0  0  0
   35.2326   20.3681   35.8374 H   0  0  0  0  0  0  0  0  0  0  0  0
   35.5183   22.2740   31.1358 H   0  0  0  0  0  0  0  0  0  0  0  0
   37.2771   22.4931   31.3226 H   0  0  0  0  0  0  0  0  0  0  0  0
   35.2334   18.9168   31.2029 H   0  0  0  0  0  0  0  0  0  0  0  0
   36.6614   17.4416   29.4739 H   0  0  0  0  0  0  0  0  0  0  0  0
   38.6326   19.0782   28.6519 H   0  0  0  0  0  0  0  0  0  0  0  0
  1  2  2  0
  3  2  1  0
  4  3  2  0
  5  4  1  0
  5  6  2  0
  6  1  1  0
  7  5  1  0
  8  7  1  0
  9  8  2  0
 10  9  1  0
 10 11  2  0
 11 12  1  0
 11  7  1  0
 12 13  1  0
 14 13  2  0
 15 14  1  0
 16 15  2  0
 16 12  1  0
 17 16  1  0
 18 17  1  0
 19 18  2  0
 20 19  1  0
 21 20  2  0
 21 22  1  0
 22 18  1  0
  1 23  1  0
  2 24  1  0
  3 25  1  0
  8 26  1  0
  9 27  1  0
 13 28  1  0
 14 29  1  0
 17 30  1  0
 17 31  1  0
 19 32  1  0
 20 33  1  0
 21 34  1  0
M  ISO  8  23  14  24  14  25  14  26  14  27  14  28  14  29  14  30   8
M  ISO  4  31   8  32  14  33  14  34  14
M  END
>  <minimizedAffinity>  (1) 
-4.98079824

>  <minimizedRMSD>  (1) 
0.224044517

$$$$
