
     RDKit          3D

 40 43  0  0  0  0  0  0  0  0999 V2000
   41.4800   22.3170   36.9920 C   0  0  0  0  0  0  0  0  0  0  0  0
   40.1680   22.2840   37.5570 C   0  0  0  0  0  0  0  0  0  0  0  0
   39.2150   23.2120   37.0540 C   0  0  0  0  0  0  0  0  0  0  0  0
   39.5680   24.0980   36.0590 N   0  0  0  0  0  0  0  0  0  0  0  0
   40.8390   24.0740   35.5620 C   0  0  0  0  0  0  0  0  0  0  0  0
   41.7760   23.2000   36.0230 N   0  0  0  0  0  0  0  0  0  0  0  0
   41.2230   24.9420   34.5320 N   0  0  0  0  0  0  0  0  0  0  0  0
   42.3180   25.7260   34.3820 C   0  0  0  0  0  0  0  0  0  0  0  0
   42.2810   26.4300   33.1860 C   0  0  0  0  0  0  0  0  0  0  0  0
   41.1180   26.0720   32.5650 N   0  0  0  0  0  0  0  0  0  0  0  0
   40.5110   25.1800   33.3990 C   0  0  0  0  0  0  0  0  0  0  0  0
   39.2600   24.6580   33.0000 N   0  0  0  0  0  0  0  0  0  0  0  0
   38.8760   23.4890   33.5870 C   0  0  0  0  0  0  0  0  0  0  0  0
   37.6070   23.2380   33.0530 C   0  0  0  0  0  0  0  0  0  0  0  0
   37.2490   24.2540   32.1550 N   0  0  0  0  0  0  0  0  0  0  0  0
   38.3030   25.1300   32.1380 C   0  0  0  0  0  0  0  0  0  0  0  0
   38.5590   26.3770   31.3550 C   0  0  0  0  0  0  0  0  0  0  0  0
   38.2620   27.5850   32.0570 N   0  0  0  0  0  0  0  0  0  0  0  0
   37.8580   28.5500   31.0300 C   0  0  0  0  0  0  0  0  0  0  0  0
   36.6930   27.9880   30.2250 C   0  0  0  0  0  0  0  0  0  0  0  0
   35.7030   27.4400   31.0460 O   0  0  0  0  0  0  0  0  0  0  0  0
   35.8360   27.9020   32.3510 C   0  0  0  0  0  0  0  0  0  0  0  0
   37.1570   27.4770   32.9620 C   0  0  0  0  0  0  0  0  0  0  0  0
   42.2497   21.6179   37.3510 H   0  0  0  0  0  0  0  0  0  0  0  0
   39.9053   21.5686   38.3502 H   0  0  0  0  0  0  0  0  0  0  0  0
   38.1929   23.2227   37.4603 H   0  0  0  0  0  0  0  0  0  0  0  0
   43.1342   25.7959   35.1161 H   0  0  0  0  0  0  0  0  0  0  0  0
   43.0377   27.1357   32.8126 H   0  0  0  0  0  0  0  0  0  0  0  0
   39.4355   22.8820   34.3140 H   0  0  0  0  0  0  0  0  0  0  0  0
   36.9804   22.3688   33.3018 H   0  0  0  0  0  0  0  0  0  0  0  0
   37.9400   26.3460   30.4462 H   0  0  0  0  0  0  0  0  0  0  0  0
   39.6373   26.3963   31.1384 H   0  0  0  0  0  0  0  0  0  0  0  0
   37.5494   29.4892   31.5124 H   0  0  0  0  0  0  0  0  0  0  0  0
   38.7066   28.7411   30.3567 H   0  0  0  0  0  0  0  0  0  0  0  0
   36.2502   28.7990   29.6282 H   0  0  0  0  0  0  0  0  0  0  0  0
   37.0818   27.1855   29.5810 H   0  0  0  0  0  0  0  0  0  0  0  0
   35.7812   29.0006   32.3480 H   0  0  0  0  0  0  0  0  0  0  0  0
   35.0235   27.4696   32.9534 H   0  0  0  0  0  0  0  0  0  0  0  0
   37.0712   26.4288   33.2843 H   0  0  0  0  0  0  0  0  0  0  0  0
   37.3589   28.1551   33.8042 H   0  0  0  0  0  0  0  0  0  0  0  0
  1  2  2  0
  3  2  1  0
  4  3  2  0
  5  6  2  0
  5  4  1  0
  6  1  1  0
  7  5  1  0
  8  7  1  0
  9  8  2  0
 10  9  1  0
 10 11  2  0
 11  7  1  0
 12 11  1  0
 12 13  1  0
 14 13  2  0
 15 14  1  0
 16 15  2  0
 16 12  1  0
 17 18  1  0
 17 16  1  0
 18 23  1  0
 19 18  1  0
 20 19  1  0
 20 21  1  0
 21 22  1  0
 22 23  1  0
  1 24  1  0
  2 25  1  0
  3 26  1  0
  8 27  1  0
  9 28  1  0
 13 29  1  0
 14 30  1  0
 17 31  1  0
 17 32  1  0
 19 33  1  0
 19 34  1  0
 20 35  1  0
 20 36  1  0
 22 37  1  0
 22 38  1  0
 23 39  1  0
 23 40  1  0
M  ISO  8  24  14  25  14  26  14  27  14  28  14  29  14  30  14  31   8
M  ISO  8  32   8  33  13  34  13  35  13  36  13  37  13  38  13  39  13
M  ISO  1  40  13
M  END
>  <minimizedAffinity>  (1) 
-4.41101933

>  <minimizedRMSD>  (1) 
3.74224615

$$$$
