
     RDKit          3D

 28 30  0  0  0  0  0  0  0  0999 V2000
   39.9240   22.9440   37.9790 C   0  0  0  0  0  0  0  0  0  0  0  0
   38.6370   23.1750   38.5580 C   0  0  0  0  0  0  0  0  0  0  0  0
   37.5660   23.4890   37.6730 C   0  0  0  0  0  0  0  0  0  0  0  0
   37.7930   23.5600   36.3170 N   0  0  0  0  0  0  0  0  0  0  0  0
   39.0440   23.3280   35.8310 C   0  0  0  0  0  0  0  0  0  0  0  0
   40.0850   23.0270   36.6480 N   0  0  0  0  0  0  0  0  0  0  0  0
   39.2930   23.3690   34.4510 N   0  0  0  0  0  0  0  0  0  0  0  0
   40.2820   23.9620   33.7410 C   0  0  0  0  0  0  0  0  0  0  0  0
   40.1290   23.7410   32.3780 C   0  0  0  0  0  0  0  0  0  0  0  0
   39.0070   22.9860   32.2460 N   0  0  0  0  0  0  0  0  0  0  0  0
   38.5280   22.7780   33.4970 C   0  0  0  0  0  0  0  0  0  0  0  0
   37.3410   22.0270   33.6370 N   0  0  0  0  0  0  0  0  0  0  0  0
   37.1180   21.4650   34.8600 C   0  0  0  0  0  0  0  0  0  0  0  0
   35.8720   20.8420   34.7240 C   0  0  0  0  0  0  0  0  0  0  0  0
   35.3750   21.0370   33.4290 N   0  0  0  0  0  0  0  0  0  0  0  0
   36.3090   21.7800   32.7570 C   0  0  0  0  0  0  0  0  0  0  0  0
   36.4020   22.2770   31.3510 C   0  0  0  0  0  0  0  0  0  0  0  0
   35.6770   23.8960   31.1100 S   0  0  0  0  0  0  0  0  0  0  0  0
   40.7814   22.6986   38.6230 H   0  0  0  0  0  0  0  0  0  0  0  0
   38.4802   23.1126   39.6450 H   0  0  0  0  0  0  0  0  0  0  0  0
   36.5582   23.6746   38.0728 H   0  0  0  0  0  0  0  0  0  0  0  0
   41.1019   24.5444   34.1866 H   0  0  0  0  0  0  0  0  0  0  0  0
   40.7825   24.1032   31.5707 H   0  0  0  0  0  0  0  0  0  0  0  0
   37.7672   21.4946   35.7475 H   0  0  0  0  0  0  0  0  0  0  0  0
   35.3580   20.2810   35.5184 H   0  0  0  0  0  0  0  0  0  0  0  0
   37.4643   22.3270   31.0700 H   0  0  0  0  0  0  0  0  0  0  0  0
   35.8342   21.5741   30.7236 H   0  0  0  0  0  0  0  0  0  0  0  0
   35.4210   24.4677   32.3284 H   0  0  0  0  0  0  0  0  0  0  0  0
  1  2  2  0
  3  2  1  0
  4  3  2  0
  5  4  1  0
  5  6  2  0
  6  1  1  0
  7  5  1  0
  8  7  1  0
  9  8  2  0
 10  9  1  0
 10 11  2  0
 11 12  1  0
 11  7  1  0
 12 13  1  0
 14 13  2  0
 15 14  1  0
 16 15  2  0
 16 12  1  0
 17 16  1  0
 18 17  1  0
  1 19  1  0
  2 20  1  0
  3 21  1  0
  8 22  1  0
  9 23  1  0
 13 24  1  0
 14 25  1  0
 17 26  1  0
 17 27  1  0
 18 28  1  0
M  ISO  8  19  14  20  14  21  14  22  14  23  14  24  14  25  14  26   8
M  ISO  2  27   8  28  11
M  END
>  <minimizedAffinity>  (1) 
-4.36443281

>  <minimizedRMSD>  (1) 
0.348978043

$$$$
