
     RDKit          3D

 34 36  0  0  0  0  0  0  0  0999 V2000
   39.8960   22.9630   38.0110 C   0  0  0  0  0  0  0  0  0  0  0  0
   38.6280   23.3610   38.5380 C   0  0  0  0  0  0  0  0  0  0  0  0
   37.6000   23.6480   37.5960 C   0  0  0  0  0  0  0  0  0  0  0  0
   37.8370   23.5380   36.2470 N   0  0  0  0  0  0  0  0  0  0  0  0
   39.0740   23.1500   35.8190 C   0  0  0  0  0  0  0  0  0  0  0  0
   40.0850   22.8670   36.6850 N   0  0  0  0  0  0  0  0  0  0  0  0
   39.3460   23.0000   34.4490 N   0  0  0  0  0  0  0  0  0  0  0  0
   40.3870   23.4180   33.6890 C   0  0  0  0  0  0  0  0  0  0  0  0
   40.2350   23.0380   32.3610 C   0  0  0  0  0  0  0  0  0  0  0  0
   39.0600   22.3620   32.3020 N   0  0  0  0  0  0  0  0  0  0  0  0
   38.5500   22.3530   33.5560 C   0  0  0  0  0  0  0  0  0  0  0  0
   37.3040   21.7180   33.7650 N   0  0  0  0  0  0  0  0  0  0  0  0
   37.0300   21.3300   35.0460 C   0  0  0  0  0  0  0  0  0  0  0  0
   35.7370   20.7890   34.9550 C   0  0  0  0  0  0  0  0  0  0  0  0
   35.2760   20.8650   33.6300 N   0  0  0  0  0  0  0  0  0  0  0  0
   36.2590   21.4440   32.8870 C   0  0  0  0  0  0  0  0  0  0  0  0
   36.3900   21.7730   31.4580 C   0  0  0  0  0  0  0  0  0  0  0  0
   36.9780   20.6860   30.7300 N   0  0  0  0  0  0  0  0  0  0  0  0
   36.8630   19.3000   30.9300 C   0  0  0  0  0  0  0  0  0  0  0  0
   35.7360   18.7530   30.9830 N   0  0  0  0  0  0  0  0  0  0  0  0
   38.0310   18.4660   31.0690 N   0  0  0  0  0  0  0  0  0  0  0  0
   34.8400   19.2100   30.8940 H   0  0  0  0  0  0  0  0  0  0  0  0
   40.7240   22.7334   38.6977 H   0  0  0  0  0  0  0  0  0  0  0  0
   38.4548   23.4417   39.6213 H   0  0  0  0  0  0  0  0  0  0  0  0
   36.6070   23.9606   37.9512 H   0  0  0  0  0  0  0  0  0  0  0  0
   41.2454   23.9872   34.0751 H   0  0  0  0  0  0  0  0  0  0  0  0
   40.9250   23.2430   31.5292 H   0  0  0  0  0  0  0  0  0  0  0  0
   37.6696   21.4199   35.9364 H   0  0  0  0  0  0  0  0  0  0  0  0
   35.1688   20.3677   35.7974 H   0  0  0  0  0  0  0  0  0  0  0  0
   35.3926   21.9842   31.0450 H   0  0  0  0  0  0  0  0  0  0  0  0
   37.0429   22.6528   31.3603 H   0  0  0  0  0  0  0  0  0  0  0  0
   37.5764   20.9641   29.9392 H   0  0  0  0  0  0  0  0  0  0  0  0
   37.9253   17.4519   31.2150 H   0  0  0  0  0  0  0  0  0  0  0  0
   38.9711   18.8844   31.0223 H   0  0  0  0  0  0  0  0  0  0  0  0
  1  2  2  0
  3  2  1  0
  4  3  2  0
  5  4  1  0
  5  6  2  0
  6  1  1  0
  7  5  1  0
  8  7  1  0
  9  8  2  0
 10  9  1  0
 10 11  2  0
 11 12  1  0
 11  7  1  0
 12 13  1  0
 14 13  2  0
 15 14  1  0
 16 15  2  0
 16 12  1  0
 17 16  1  0
 18 19  1  0
 18 17  1  0
 19 20  2  0
 19 21  1  0
 22 20  1  0
  1 23  1  0
  2 24  1  0
  3 25  1  0
  8 26  1  0
  9 27  1  0
 13 28  1  0
 14 29  1  0
 17 30  1  0
 17 31  1  0
 18 32  1  0
 21 33  1  0
 21 34  1  0
M  ISO  8  23  14  24  14  25  14  26  14  27  14  28  14  29  14  30   8
M  ISO  1  31   8
M  END
>  <minimizedAffinity>  (1) 
-4.74244022

>  <minimizedRMSD>  (1) 
0.299523711

$$$$
