
     RDKit          3D

 23 23  0  0  0  0  0  0  0  0999 V2000
   37.8440   24.1380   38.1120 C   0  0  0  0  0  0  0  0  0  0  0  0
   38.8560   23.2980   38.6430 C   0  0  0  0  0  0  0  0  0  0  0  0
   39.8630   22.8490   37.7660 C   0  0  0  0  0  0  0  0  0  0  0  0
   39.8030   23.2480   36.4630 N   0  0  0  0  0  0  0  0  0  0  0  0
   38.8180   24.0490   36.0030 C   0  0  0  0  0  0  0  0  0  0  0  0
   37.8580   24.4820   36.8260 N   0  0  0  0  0  0  0  0  0  0  0  0
   38.7510   24.4580   34.6840 O   0  0  0  0  0  0  0  0  0  0  0  0
   38.3420   23.5960   33.6630 C   0  0  0  0  0  0  0  0  0  0  0  0
   37.6920   22.3540   34.1850 C   0  0  0  0  0  0  0  0  0  0  0  0
   39.6030   23.2390   32.8680 C   0  0  0  0  0  0  0  0  0  0  0  0
   37.4560   24.3880   32.7340 C   0  0  0  0  0  0  0  0  0  0  0  0
   37.0418   24.5079   38.7675 H   0  0  0  0  0  0  0  0  0  0  0  0
   38.8546   23.0069   39.7038 H   0  0  0  0  0  0  0  0  0  0  0  0
   40.6737   22.1960   38.1215 H   0  0  0  0  0  0  0  0  0  0  0  0
   37.7005   22.3702   35.2848 H   0  0  0  0  0  0  0  0  0  0  0  0
   36.6530   22.3057   33.8270 H   0  0  0  0  0  0  0  0  0  0  0  0
   38.2445   21.4728   33.8270 H   0  0  0  0  0  0  0  0  0  0  0  0
   40.4222   23.0071   33.5645 H   0  0  0  0  0  0  0  0  0  0  0  0
   39.4012   22.3627   32.2345 H   0  0  0  0  0  0  0  0  0  0  0  0
   39.8905   24.0910   32.2345 H   0  0  0  0  0  0  0  0  0  0  0  0
   36.7644   25.0062   33.3252 H   0  0  0  0  0  0  0  0  0  0  0  0
   38.0773   25.0373   32.0996 H   0  0  0  0  0  0  0  0  0  0  0  0
   36.8802   23.6981   32.0996 H   0  0  0  0  0  0  0  0  0  0  0  0
  1  2  2  0
  3  2  1  0
  4  3  2  0
  5  4  1  0
  5  6  2  0
  6  1  1  0
  7  5  1  0
  8  9  1  0
  8  7  1  0
 10  8  1  0
 11  8  1  0
  1 12  1  0
  2 13  1  0
  3 14  1  0
  9 15  1  0
  9 16  1  0
  9 17  1  0
 10 18  1  0
 10 19  1  0
 10 20  1  0
 11 21  1  0
 11 22  1  0
 11 23  1  0
M  ISO  8  12  14  13  14  14  14  15   8  16   8  17   8  18   8  19   8
M  ISO  4  20   8  21   8  22   8  23   8
M  END
>  <minimizedAffinity>  (1) 
-3.00431395

>  <minimizedRMSD>  (1) 
3.04578972

$$$$
