
     RDKit          3D

 17 17  0  0  0  0  0  0  0  0999 V2000
   40.0750   25.2830   34.8350 C   0  0  0  0  0  0  0  0  0  0  0  0
   40.0180   26.6870   34.8790 C   0  0  0  0  0  0  0  0  0  0  0  0
   39.0010   27.2500   35.6540 C   0  0  0  0  0  0  0  0  0  0  0  0
   38.1350   26.4360   36.3120 N   0  0  0  0  0  0  0  0  0  0  0  0
   38.2350   25.0920   36.2350 C   0  0  0  0  0  0  0  0  0  0  0  0
   39.2000   24.5190   35.4990 N   0  0  0  0  0  0  0  0  0  0  0  0
   37.3750   24.2360   36.8890 O   0  0  0  0  0  0  0  0  0  0  0  0
   37.7770   23.2450   37.8040 C   0  0  0  0  0  0  0  0  0  0  0  0
   38.6870   23.6880   38.8880 C   0  0  0  0  0  0  0  0  0  0  0  0
   40.8615   24.7987   34.2376 H   0  0  0  0  0  0  0  0  0  0  0  0
   40.7385   27.3114   34.3304 H   0  0  0  0  0  0  0  0  0  0  0  0
   38.9023   28.3429   35.7307 H   0  0  0  0  0  0  0  0  0  0  0  0
   36.8711   22.8333   38.2730 H   0  0  0  0  0  0  0  0  0  0  0  0
   38.3522   22.5153   37.2152 H   0  0  0  0  0  0  0  0  0  0  0  0
   38.2304   23.4657   39.8638 H   0  0  0  0  0  0  0  0  0  0  0  0
   39.6459   23.1559   38.8021 H   0  0  0  0  0  0  0  0  0  0  0  0
   38.8597   24.7710   38.8021 H   0  0  0  0  0  0  0  0  0  0  0  0
  1  2  2  0
  1  6  1  0
  2  3  1  0
  3  4  2  0
  5  4  1  0
  5  7  1  0
  6  5  2  0
  7  8  1  0
  8  9  1  0
  1 10  1  0
  2 11  1  0
  3 12  1  0
  8 13  1  0
  8 14  1  0
  9 15  1  0
  9 16  1  0
  9 17  1  0
M  ISO  8  10  14  11  14  12  14  13   8  14   8  15   8  16   8  17   8
M  END
>  <minimizedAffinity>  (1) 
-2.99756265

>  <minimizedRMSD>  (1) 
4.17520094

$$$$
