
     RDKit          3D

 29 30  0  0  0  0  0  0  0  0999 V2000
   38.2100   23.6440   36.9820 C   0  0  0  0  0  0  0  0  0  0  0  0
   41.5950   21.9930   37.1940 C   0  0  0  0  0  0  0  0  0  0  0  0
   40.2590   22.2610   37.4810 C   0  0  0  0  0  0  0  0  0  0  0  0
   39.6170   23.2840   36.7640 C   0  0  0  0  0  0  0  0  0  0  0  0
   40.3210   23.9780   35.8130 N   0  0  0  0  0  0  0  0  0  0  0  0
   41.6150   23.6830   35.5680 C   0  0  0  0  0  0  0  0  0  0  0  0
   42.2500   22.6960   36.2540 N   0  0  0  0  0  0  0  0  0  0  0  0
   38.1200   24.2580   38.3810 C   0  0  0  0  0  0  0  0  0  0  0  0
   37.6350   24.5630   35.9460 C   0  0  0  0  0  0  0  0  0  0  0  0
   37.3590   22.3830   36.9720 C   0  0  0  0  0  0  0  0  0  0  0  0
   37.1000   21.8710   35.6380 C   0  0  0  0  0  0  0  0  0  0  0  0
   35.9990   21.1320   35.3680 C   0  0  0  0  0  0  0  0  0  0  0  0
   35.6150   20.5900   34.2100 C   0  0  0  0  0  0  0  0  0  0  0  0
   36.6560   20.9460   33.1840 C   0  0  0  0  0  0  0  0  0  0  0  0
   37.9820   21.9940   34.1020 S   0  0  0  0  0  0  0  0  0  0  0  0
   42.1201   21.1972   37.7426 H   0  0  0  0  0  0  0  0  0  0  0  0
   39.7205   21.6866   38.2491 H   0  0  0  0  0  0  0  0  0  0  0  0
   42.1641   24.2498   34.8017 H   0  0  0  0  0  0  0  0  0  0  0  0
   38.2359   23.4671   39.1367 H   0  0  0  0  0  0  0  0  0  0  0  0
   38.9183   25.0044   38.5059 H   0  0  0  0  0  0  0  0  0  0  0  0
   37.1410   24.7438   38.5059 H   0  0  0  0  0  0  0  0  0  0  0  0
   37.1143   25.3951   36.4424 H   0  0  0  0  0  0  0  0  0  0  0  0
   38.4458   24.9604   35.3178 H   0  0  0  0  0  0  0  0  0  0  0  0
   36.9230   24.0076   35.3178 H   0  0  0  0  0  0  0  0  0  0  0  0
   37.8817   21.6054   37.5483 H   0  0  0  0  0  0  0  0  0  0  0  0
   36.3860   22.6451   37.4131 H   0  0  0  0  0  0  0  0  0  0  0  0
   35.3275   20.9531   36.2207 H   0  0  0  0  0  0  0  0  0  0  0  0
   34.7065   19.9941   34.0381 H   0  0  0  0  0  0  0  0  0  0  0  0
   36.6584   20.6634   32.1209 H   0  0  0  0  0  0  0  0  0  0  0  0
  1  8  1  0
  2  3  2  0
  4  1  1  0
  4  3  1  0
  5  4  2  0
  6  5  1  0
  6  7  2  0
  7  2  1  0
  9  1  1  0
 10  1  1  0
 11 10  1  0
 12 11  2  0
 13 12  1  0
 14 15  1  0
 14 13  2  0
 15 11  1  0
  2 16  1  0
  3 17  1  0
  6 18  1  0
  8 19  1  0
  8 20  1  0
  8 21  1  0
  9 22  1  0
  9 23  1  0
  9 24  1  0
 10 25  1  0
 10 26  1  0
 12 27  1  0
 13 28  1  0
 14 29  1  0
M  ISO  8  16  14  17  14  18  14  19   8  20   8  21   8  22   8  23   8
M  ISO  6  24   8  25   8  26   8  27  14  28  14  29  14
M  END
>  <minimizedAffinity>  (1) 
-3.85237074

>  <minimizedRMSD>  (1) 
1.01718593

$$$$
