
     RDKit          3D

 18 19  0  0  0  0  0  0  0  0999 V2000
   39.9850   22.6510   37.5270 C   0  0  0  0  0  0  0  0  0  0  0  0
   39.0240   23.2900   38.3300 C   0  0  0  0  0  0  0  0  0  0  0  0
   37.7130   23.3910   37.8080 C   0  0  0  0  0  0  0  0  0  0  0  0
   37.4720   22.8690   36.5830 N   0  0  0  0  0  0  0  0  0  0  0  0
   38.4360   22.2630   35.8500 C   0  0  0  0  0  0  0  0  0  0  0  0
   39.6770   22.1600   36.3280 N   0  0  0  0  0  0  0  0  0  0  0  0
   38.2010   21.7270   34.5980 O   0  0  0  0  0  0  0  0  0  0  0  0
   36.9780   21.8040   33.9180 C   0  0  0  0  0  0  0  0  0  0  0  0
   36.8040   20.7090   32.8480 C   0  0  0  0  0  0  0  0  0  0  0  0
   35.9340   20.7740   34.0420 C   0  0  0  0  0  0  0  0  0  0  0  0
   41.0160   22.5543   37.8980 H   0  0  0  0  0  0  0  0  0  0  0  0
   39.2802   23.6937   39.3206 H   0  0  0  0  0  0  0  0  0  0  0  0
   36.9120   23.8801   38.3818 H   0  0  0  0  0  0  0  0  0  0  0  0
   36.9403   22.8994   34.0114 H   0  0  0  0  0  0  0  0  0  0  0  0
   36.4033   20.9622   31.8553 H   0  0  0  0  0  0  0  0  0  0  0  0
   37.4516   19.9495   32.3857 H   0  0  0  0  0  0  0  0  0  0  0  0
   36.0243   20.0023   34.8206 H   0  0  0  0  0  0  0  0  0  0  0  0
   34.8442   20.8101   34.1872 H   0  0  0  0  0  0  0  0  0  0  0  0
  1  2  2  0
  3  2  1  0
  4  3  2  0
  5  6  2  0
  5  4  1  0
  6  1  1  0
  7  5  1  0
  8 10  1  0
  8  7  1  0
  9  8  1  0
  9 10  1  0
  1 11  1  0
  2 12  1  0
  3 13  1  0
  8 14  1  0
  9 15  1  0
  9 16  1  0
 10 17  1  0
 10 18  1  0
M  ISO  8  11  14  12  14  13  14  14  13  15  13  16  13  17  13  18  13
M  END
>  <minimizedAffinity>  (1) 
-3.17491055

>  <minimizedRMSD>  (1) 
0.172689527

$$$$
