
     RDKit          3D

 31 33  0  0  1  0  0  0  0  0999 V2000
   37.6300   21.8090   32.6110 C   0  0  1  0  0  0  0  0  0  0  0  0
   37.5040   23.2850   32.3920 C   0  0  0  0  0  0  0  0  0  0  0  0
   37.5110   22.7360   33.7840 C   0  0  2  0  0  0  0  0  0  0  0  0
   38.5780   22.9540   34.6910 N   0  0  0  0  0  0  0  0  0  0  0  0
   39.1000   24.2810   34.7840 C   0  0  0  0  0  0  0  0  0  0  0  0
   38.5230   25.0720   35.9380 C   0  0  0  0  0  0  0  0  0  0  0  0
   38.3740   24.3600   37.0990 O   0  0  0  0  0  0  0  0  0  0  0  0
   37.5930   23.2450   36.9000 C   0  0  0  0  0  0  0  0  0  0  0  0
   38.3630   22.3400   35.9540 C   0  0  0  0  0  0  0  0  0  0  0  0
   36.4540   21.0420   32.3530 O   0  0  0  0  0  0  0  0  0  0  0  0
   35.3020   17.7180   32.6030 C   0  0  0  0  0  0  0  0  0  0  0  0
   36.3730   16.9380   32.1010 C   0  0  0  0  0  0  0  0  0  0  0  0
   37.5140   17.6310   31.6690 C   0  0  0  0  0  0  0  0  0  0  0  0
   37.5200   18.9820   31.7590 N   0  0  0  0  0  0  0  0  0  0  0  0
   36.4530   19.6770   32.2540 C   0  0  0  0  0  0  0  0  0  0  0  0
   35.3510   19.0580   32.6740 N   0  0  0  0  0  0  0  0  0  0  0  0
   38.3431   21.0387   32.2823 H   0  0  0  0  0  0  0  0  0  0  0  0
   38.3655   23.8616   32.0242 H   0  0  0  0  0  0  0  0  0  0  0  0
   36.8253   23.9297   31.8144 H   0  0  0  0  0  0  0  0  0  0  0  0
   36.8407   22.8149   34.6526 H   0  0  0  0  0  0  0  0  0  0  0  0
   40.1905   24.2188   34.9141 H   0  0  0  0  0  0  0  0  0  0  0  0
   38.8221   24.8059   33.8581 H   0  0  0  0  0  0  0  0  0  0  0  0
   39.1917   25.9217   36.1400 H   0  0  0  0  0  0  0  0  0  0  0  0
   37.5133   25.3815   35.6301 H   0  0  0  0  0  0  0  0  0  0  0  0
   37.4144   22.7310   37.8560 H   0  0  0  0  0  0  0  0  0  0  0  0
   36.6132   23.5164   36.4802 H   0  0  0  0  0  0  0  0  0  0  0  0
   37.7914   21.4120   35.8056 H   0  0  0  0  0  0  0  0  0  0  0  0
   39.3452   22.1331   36.4041 H   0  0  0  0  0  0  0  0  0  0  0  0
   34.3927   17.2046   32.9489 H   0  0  0  0  0  0  0  0  0  0  0  0
   36.3128   15.8407   32.0522 H   0  0  0  0  0  0  0  0  0  0  0  0
   38.3830   17.0896   31.2668 H   0  0  0  0  0  0  0  0  0  0  0  0
  1  3  1  0
  2  1  1  0
  2  3  1  0
  3  4  1  0
  4  5  1  0
  4  9  1  0
  5  6  1  0
  6  7  1  0
  8  7  1  0
  9  8  1  0
 10  1  1  0
 11 16  2  0
 12 11  1  0
 13 14  1  0
 13 12  2  0
 14 15  2  0
 15 10  1  0
 15 16  1  0
  1 17  1  1
  2 18  1  0
  2 19  1  0
  3 20  1  1
  5 21  1  0
  5 22  1  0
  6 23  1  0
  6 24  1  0
  8 25  1  0
  8 26  1  0
  9 27  1  0
  9 28  1  0
 11 29  1  0
 12 30  1  0
 13 31  1  0
M  ISO  8  17  13  18  13  19  13  20  13  21  13  22  13  23  13  24  13
M  ISO  7  25  13  26  13  27  13  28  13  29  14  30  14  31  14
M  END
>  <minimizedAffinity>  (1) 
-3.42320752

>  <minimizedRMSD>  (1) 
6.0410533

$$$$
