
     RDKit          3D

 21 22  0  0  1  0  0  0  0  0999 V2000
   38.4540   21.7740   34.6010 O   0  0  0  0  0  0  0  0  0  0  0  0
   39.9760   22.6750   37.6520 C   0  0  0  0  0  0  0  0  0  0  0  0
   38.9430   23.3220   38.3770 C   0  0  0  0  0  0  0  0  0  0  0  0
   37.6920   23.4340   37.7520 C   0  0  0  0  0  0  0  0  0  0  0  0
   37.5730   22.9190   36.5180 N   0  0  0  0  0  0  0  0  0  0  0  0
   38.5970   22.3020   35.8590 C   0  0  0  0  0  0  0  0  0  0  0  0
   39.7900   22.1800   36.4160 N   0  0  0  0  0  0  0  0  0  0  0  0
   37.4120   22.1390   33.7020 C   0  0  1  0  0  0  0  0  0  0  0  0
   37.6580   21.8190   32.2620 C   0  0  0  0  0  0  0  0  0  0  0  0
   36.7100   20.9760   33.0490 C   0  0  2  0  0  0  0  0  0  0  0  0
   35.2370   21.0330   32.7800 C   0  0  0  0  0  0  0  0  0  0  0  0
   40.9670   22.5744   38.1187 H   0  0  0  0  0  0  0  0  0  0  0  0
   39.1156   23.7197   39.3880 H   0  0  0  0  0  0  0  0  0  0  0  0
   36.8436   23.9236   38.2525 H   0  0  0  0  0  0  0  0  0  0  0  0
   37.1005   23.0373   34.2551 H   0  0  0  0  0  0  0  0  0  0  0  0
   38.6290   21.4069   31.9499 H   0  0  0  0  0  0  0  0  0  0  0  0
   37.5931   22.3848   31.3209 H   0  0  0  0  0  0  0  0  0  0  0  0
   36.6179   19.9009   33.2629 H   0  0  0  0  0  0  0  0  0  0  0  0
   34.6905   21.0541   33.7344 H   0  0  0  0  0  0  0  0  0  0  0  0
   35.0043   21.9408   32.2041 H   0  0  0  0  0  0  0  0  0  0  0  0
   34.9348   20.1459   32.2041 H   0  0  0  0  0  0  0  0  0  0  0  0
  1  6  1  0
  2  3  2  0
  4  3  1  0
  5  4  2  0
  6  7  2  0
  6  5  1  0
  7  2  1  0
  8  1  1  0
  9 10  1  0
  9  8  1  0
 10  8  1  0
 11 10  1  0
  2 12  1  0
  3 13  1  0
  4 14  1  0
  8 15  1  6
  9 16  1  0
  9 17  1  0
 10 18  1  1
 11 19  1  0
 11 20  1  0
 11 21  1  0
M  ISO  8  12  14  13  14  14  14  15  13  16  13  17  13  18  13  19   8
M  ISO  2  20   8  21   8
M  END
>  <minimizedAffinity>  (1) 
-3.42128134

>  <minimizedRMSD>  (1) 
0.764709353

$$$$
