
     RDKit          3D

 25 26  0  0  1  0  0  0  0  0999 V2000
   36.7120   21.4670   33.5640 C   0  0  1  0  0  0  0  0  0  0  0  0
   36.0870   20.1830   33.1160 C   0  0  0  0  0  0  0  0  0  0  0  0
   35.4440   20.9700   34.2090 C   0  0  1  0  0  0  0  0  0  0  0  0
   35.5170   20.3720   35.5310 N   0  0  0  0  0  0  0  0  0  0  0  0
   35.5590   21.1270   36.7530 C   0  0  0  0  0  0  0  0  0  0  0  0
   35.9740   22.3360   36.6390 N   0  0  0  0  0  0  0  0  0  0  0  0
   35.1270   20.4090   37.9250 N   0  0  0  0  0  0  0  0  0  0  0  0
   36.0310   22.9450   37.4880 H   0  0  0  0  0  0  0  0  0  0  0  0
   37.8780   21.3270   34.3820 O   0  0  0  0  0  0  0  0  0  0  0  0
   40.4020   23.2010   35.9890 C   0  0  0  0  0  0  0  0  0  0  0  0
   40.4590   24.4090   35.2440 C   0  0  0  0  0  0  0  0  0  0  0  0
   39.5840   24.5470   34.1540 C   0  0  0  0  0  0  0  0  0  0  0  0
   38.7560   23.5210   33.8970 N   0  0  0  0  0  0  0  0  0  0  0  0
   38.7350   22.3760   34.6410 C   0  0  0  0  0  0  0  0  0  0  0  0
   39.5450   22.2120   35.6730 N   0  0  0  0  0  0  0  0  0  0  0  0
   37.0315   22.3913   33.0605 H   0  0  0  0  0  0  0  0  0  0  0  0
   35.6066   20.1221   32.1283 H   0  0  0  0  0  0  0  0  0  0  0  0
   36.4379   19.1457   33.0117 H   0  0  0  0  0  0  0  0  0  0  0  0
   34.4593   21.4235   34.3954 H   0  0  0  0  0  0  0  0  0  0  0  0
   35.5401   19.3443   35.5964 H   0  0  0  0  0  0  0  0  0  0  0  0
   35.1255   20.8755   38.8433 H   0  0  0  0  0  0  0  0  0  0  0  0
   34.8196   19.4292   37.8446 H   0  0  0  0  0  0  0  0  0  0  0  0
   41.0767   23.0700   36.8478 H   0  0  0  0  0  0  0  0  0  0  0  0
   41.1645   25.2094   35.5116 H   0  0  0  0  0  0  0  0  0  0  0  0
   39.5771   25.4573   33.5365 H   0  0  0  0  0  0  0  0  0  0  0  0
  1  3  1  0
  1  9  1  0
  2  1  1  0
  2  3  1  0
  3  4  1  0
  4  5  1  0
  5  7  1  0
  6  5  2  0
  6  8  1  0
  9 14  1  0
 11 10  2  0
 12 11  1  0
 13 12  2  0
 13 14  1  0
 14 15  2  0
 15 10  1  0
  1 16  1  6
  2 17  1  0
  2 18  1  0
  3 19  1  6
  4 20  1  0
  7 21  1  0
  7 22  1  0
 10 23  1  0
 11 24  1  0
 12 25  1  0
M  ISO  7  16  13  17  13  18  13  19  13  23  14  24  14  25  14
M  END
>  <minimizedAffinity>  (1) 
-3.31107426

>  <minimizedRMSD>  (1) 
2.26916862

$$$$
