
     RDKit          3D

 31 33  0  0  1  0  0  0  0  0999 V2000
   39.8160   23.2060   35.0260 C   0  0  1  0  0  0  0  0  0  0  0  0
   39.9990   24.6890   35.1320 C   0  0  0  0  0  0  0  0  0  0  0  0
   40.9170   23.7810   35.8810 C   0  0  2  0  0  0  0  0  0  0  0  0
   42.3290   23.7610   35.4050 C   0  0  0  0  0  0  0  0  0  0  0  0
   43.2510   23.1390   36.4260 C   0  0  0  0  0  0  0  0  0  0  0  0
   44.0900   24.2910   36.9420 C   0  0  0  0  0  0  0  0  0  0  0  0
   44.1340   25.3120   35.8340 C   0  0  0  0  0  0  0  0  0  0  0  0
   42.7800   25.1820   35.1950 C   0  0  0  0  0  0  0  0  0  0  0  0
   38.7280   22.6730   35.7670 O   0  0  0  0  0  0  0  0  0  0  0  0
   35.7110   20.8640   35.5710 C   0  0  0  0  0  0  0  0  0  0  0  0
   35.5590   20.5790   34.1890 C   0  0  0  0  0  0  0  0  0  0  0  0
   36.5790   21.0630   33.3190 C   0  0  0  0  0  0  0  0  0  0  0  0
   37.5970   21.7460   33.8670 N   0  0  0  0  0  0  0  0  0  0  0  0
   37.6810   21.9830   35.2100 C   0  0  0  0  0  0  0  0  0  0  0  0
   36.7600   21.5550   36.0560 N   0  0  0  0  0  0  0  0  0  0  0  0
   39.7541   22.4904   34.1929 H   0  0  0  0  0  0  0  0  0  0  0  0
   40.3745   25.2584   34.2690 H   0  0  0  0  0  0  0  0  0  0  0  0
   39.3483   25.5319   35.4078 H   0  0  0  0  0  0  0  0  0  0  0  0
   41.2166   23.6201   36.9271 H   0  0  0  0  0  0  0  0  0  0  0  0
   42.3694   23.1705   34.4778 H   0  0  0  0  0  0  0  0  0  0  0  0
   42.6730   22.6838   37.2437 H   0  0  0  0  0  0  0  0  0  0  0  0
   43.8676   22.3366   35.9947 H   0  0  0  0  0  0  0  0  0  0  0  0
   43.6290   24.7249   37.8416 H   0  0  0  0  0  0  0  0  0  0  0  0
   45.1010   23.9569   37.2182 H   0  0  0  0  0  0  0  0  0  0  0  0
   44.2850   26.3246   36.2362 H   0  0  0  0  0  0  0  0  0  0  0  0
   44.9620   25.1483   35.1286 H   0  0  0  0  0  0  0  0  0  0  0  0
   42.8472   25.4020   34.1193 H   0  0  0  0  0  0  0  0  0  0  0  0
   42.0660   25.8904   35.6403 H   0  0  0  0  0  0  0  0  0  0  0  0
   34.9427   20.5068   36.2725 H   0  0  0  0  0  0  0  0  0  0  0  0
   34.6965   20.0125   33.8081 H   0  0  0  0  0  0  0  0  0  0  0  0
   36.5338   20.8830   32.2348 H   0  0  0  0  0  0  0  0  0  0  0  0
  1  2  1  0
  1  9  1  0
  1  3  1  0
  2  3  1  0
  4  3  1  0
  4  5  1  0
  5  6  1  0
  7  6  1  0
  8  4  1  0
  8  7  1  0
 10 15  2  0
 11 10  1  0
 12 13  1  0
 12 11  2  0
 13 14  2  0
 14  9  1  0
 14 15  1  0
  1 16  1  6
  2 17  1  0
  2 18  1  0
  3 19  1  1
  4 20  1  0
  5 21  1  0
  5 22  1  0
  6 23  1  0
  6 24  1  0
  7 25  1  0
  7 26  1  0
  8 27  1  0
  8 28  1  0
 10 29  1  0
 11 30  1  0
 12 31  1  0
M  ISO  8  16  13  17  13  18  13  19  13  20  13  21  13  22  13  23  13
M  ISO  8  24  13  25  13  26  13  27  13  28  13  29  14  30  14  31  14
M  END
>  <minimizedAffinity>  (1) 
-3.87115169

>  <minimizedRMSD>  (1) 
6.93710041

$$$$
