
     RDKit          3D

 46 49  0  0  1  0  0  0  0  0999 V2000
   39.7280   23.2710   35.0710 C   0  0  1  0  0  0  0  0  0  0  0  0
   39.9600   24.7480   35.3470 C   0  0  0  0  0  0  0  0  0  0  0  0
   40.8780   23.7120   35.9040 C   0  0  2  0  0  0  0  0  0  0  0  0
   42.2650   23.6900   35.4010 C   0  0  0  0  0  0  0  0  0  0  0  0
   43.2090   23.1500   36.4640 C   0  0  0  0  0  0  0  0  0  0  0  0
   44.0450   24.3370   36.8900 C   0  0  0  0  0  0  0  0  0  0  0  0
   44.0510   25.3000   35.7210 C   0  0  0  0  0  0  0  0  0  0  0  0
   42.6940   25.1100   35.1090 C   0  0  0  0  0  0  0  0  0  0  0  0
   38.6070   22.7620   35.7830 O   0  0  0  0  0  0  0  0  0  0  0  0
   35.6840   20.8220   35.5350 C   0  0  0  0  0  0  0  0  0  0  0  0
   35.5640   20.5280   34.1620 C   0  0  0  0  0  0  0  0  0  0  0  0
   36.5710   21.0470   33.3180 C   0  0  0  0  0  0  0  0  0  0  0  0
   37.5570   21.7720   33.8620 N   0  0  0  0  0  0  0  0  0  0  0  0
   37.6050   22.0180   35.2170 C   0  0  0  0  0  0  0  0  0  0  0  0
   36.6910   21.5590   36.0720 N   0  0  0  0  0  0  0  0  0  0  0  0
   36.5170   20.7940   31.9380 N   0  0  0  0  0  0  0  0  0  0  0  0
   35.8850   19.6170   31.3750 C   0  0  0  0  0  0  0  0  0  0  0  0
   36.4570   19.2890   30.0100 C   0  0  0  0  0  0  0  0  0  0  0  0
   37.9290   19.6300   29.9290 C   0  0  0  0  0  0  0  0  0  0  0  0
   38.2470   21.0500   30.2660 C   0  0  0  0  0  0  0  0  0  0  0  0
   37.1160   21.7420   31.0180 C   0  0  0  0  0  0  0  0  0  0  0  0
   39.6300   22.6235   34.1872 H   0  0  0  0  0  0  0  0  0  0  0  0
   40.3024   25.4134   34.5408 H   0  0  0  0  0  0  0  0  0  0  0  0
   39.3606   25.5696   35.7661 H   0  0  0  0  0  0  0  0  0  0  0  0
   41.2295   23.4121   36.9023 H   0  0  0  0  0  0  0  0  0  0  0  0
   42.3026   23.0551   34.5035 H   0  0  0  0  0  0  0  0  0  0  0  0
   42.6414   22.7513   37.3178 H   0  0  0  0  0  0  0  0  0  0  0  0
   43.8291   22.3251   36.0833 H   0  0  0  0  0  0  0  0  0  0  0  0
   43.6013   24.8164   37.7750 H   0  0  0  0  0  0  0  0  0  0  0  0
   45.0667   24.0289   37.1570 H   0  0  0  0  0  0  0  0  0  0  0  0
   44.1865   26.3361   36.0649 H   0  0  0  0  0  0  0  0  0  0  0  0
   44.8720   25.1123   35.0134 H   0  0  0  0  0  0  0  0  0  0  0  0
   42.7450   25.2721   34.0222 H   0  0  0  0  0  0  0  0  0  0  0  0
   41.9737   25.8286   35.5271 H   0  0  0  0  0  0  0  0  0  0  0  0
   34.9134   20.4299   36.2150 H   0  0  0  0  0  0  0  0  0  0  0  0
   34.7311   19.9268   33.7686 H   0  0  0  0  0  0  0  0  0  0  0  0
   36.0513   18.7633   32.0485 H   0  0  0  0  0  0  0  0  0  0  0  0
   34.8094   19.8184   31.2633 H   0  0  0  0  0  0  0  0  0  0  0  0
   36.3281   18.2137   29.8174 H   0  0  0  0  0  0  0  0  0  0  0  0
   35.9221   19.8883   29.2586 H   0  0  0  0  0  0  0  0  0  0  0  0
   38.4731   18.9789   30.6290 H   0  0  0  0  0  0  0  0  0  0  0  0
   38.2321   19.4775   28.8826 H   0  0  0  0  0  0  0  0  0  0  0  0
   39.1505   21.0693   30.8932 H   0  0  0  0  0  0  0  0  0  0  0  0
   38.3977   21.5909   29.3201 H   0  0  0  0  0  0  0  0  0  0  0  0
   37.5157   22.5996   31.5791 H   0  0  0  0  0  0  0  0  0  0  0  0
   36.3585   22.1008   30.3057 H   0  0  0  0  0  0  0  0  0  0  0  0
  1  2  1  0
  1  9  1  0
  1  3  1  0
  2  3  1  0
  4  3  1  0
  4  5  1  0
  5  6  1  0
  7  6  1  0
  8  4  1  0
  8  7  1  0
 10 15  2  0
 11 10  1  0
 12 13  1  0
 12 11  2  0
 13 14  2  0
 14  9  1  0
 14 15  1  0
 16 12  1  0
 17 16  1  0
 18 17  1  0
 19 18  1  0
 19 20  1  0
 20 21  1  0
 21 16  1  0
  1 22  1  6
  2 23  1  0
  2 24  1  0
  3 25  1  1
  4 26  1  0
  5 27  1  0
  5 28  1  0
  6 29  1  0
  6 30  1  0
  7 31  1  0
  7 32  1  0
  8 33  1  0
  8 34  1  0
 10 35  1  0
 11 36  1  0
 17 37  1  0
 17 38  1  0
 18 39  1  0
 18 40  1  0
 19 41  1  0
 19 42  1  0
 20 43  1  0
 20 44  1  0
 21 45  1  0
 21 46  1  0
M  ISO  8  22  13  23  13  24  13  25  13  26  13  27  13  28  13  29  13
M  ISO  8  30  13  31  13  32  13  33  13  34  13  35  14  36  14  37  13
M  ISO  8  38  13  39  13  40  13  41  13  42  13  43  13  44  13  45  13
M  ISO  1  46  13
M  END
>  <minimizedAffinity>  (1) 
-4.85408688

>  <minimizedRMSD>  (1) 
0.0893716663

$$$$
