
     RDKit          3D

 42 46  0  0  1  0  0  0  0  0999 V2000
   39.7730   23.2280   35.1490 C   0  0  1  0  0  0  0  0  0  0  0  0
   39.9950   24.7260   35.2600 C   0  0  0  0  0  0  0  0  0  0  0  0
   40.9170   23.7690   35.9320 C   0  0  2  0  0  0  0  0  0  0  0  0
   42.3040   23.7040   35.4270 C   0  0  0  0  0  0  0  0  0  0  0  0
   43.2460   23.1740   36.4910 C   0  0  0  0  0  0  0  0  0  0  0  0
   44.1050   24.3400   36.8870 C   0  0  0  0  0  0  0  0  0  0  0  0
   44.0910   25.3180   35.7460 C   0  0  0  0  0  0  0  0  0  0  0  0
   42.7560   25.1040   35.1010 C   0  0  0  0  0  0  0  0  0  0  0  0
   38.6520   22.7940   35.9150 O   0  0  0  0  0  0  0  0  0  0  0  0
   35.6570   20.9520   35.8260 C   0  0  0  0  0  0  0  0  0  0  0  0
   35.5420   20.5170   34.4940 C   0  0  0  0  0  0  0  0  0  0  0  0
   36.5780   20.9000   33.6110 C   0  0  0  0  0  0  0  0  0  0  0  0
   37.5780   21.6410   34.1070 N   0  0  0  0  0  0  0  0  0  0  0  0
   37.6280   22.0340   35.4260 C   0  0  0  0  0  0  0  0  0  0  0  0
   36.6860   21.7030   36.3010 N   0  0  0  0  0  0  0  0  0  0  0  0
   36.5500   20.5070   32.2450 N   0  0  0  0  0  0  0  0  0  0  0  0
   36.4030   21.3500   31.2150 C   0  0  0  0  0  0  0  0  0  0  0  0
   36.4160   20.6800   30.0500 N   0  0  0  0  0  0  0  0  0  0  0  0
   36.5730   19.3800   30.3050 C   0  0  0  0  0  0  0  0  0  0  0  0
   36.6630   18.2210   29.5540 C   0  0  0  0  0  0  0  0  0  0  0  0
   36.8270   17.0380   30.1820 N   0  0  0  0  0  0  0  0  0  0  0  0
   36.9070   16.9470   31.5300 C   0  0  0  0  0  0  0  0  0  0  0  0
   36.8180   18.0810   32.2380 N   0  0  0  0  0  0  0  0  0  0  0  0
   36.6570   19.2860   31.6940 C   0  0  0  0  0  0  0  0  0  0  0  0
   39.6818   22.4858   34.3422 H   0  0  0  0  0  0  0  0  0  0  0  0
   40.3363   25.2997   34.3857 H   0  0  0  0  0  0  0  0  0  0  0  0
   39.3879   25.5846   35.5830 H   0  0  0  0  0  0  0  0  0  0  0  0
   41.2666   23.5860   36.9588 H   0  0  0  0  0  0  0  0  0  0  0  0
   42.3228   23.0418   34.5489 H   0  0  0  0  0  0  0  0  0  0  0  0
   42.6777   22.8041   37.3572 H   0  0  0  0  0  0  0  0  0  0  0  0
   43.8486   22.3325   36.1185 H   0  0  0  0  0  0  0  0  0  0  0  0
   43.7004   24.8142   37.7933 H   0  0  0  0  0  0  0  0  0  0  0  0
   45.1319   24.0098   37.1023 H   0  0  0  0  0  0  0  0  0  0  0  0
   44.1862   26.3500   36.1146 H   0  0  0  0  0  0  0  0  0  0  0  0
   44.9275   25.1659   35.0480 H   0  0  0  0  0  0  0  0  0  0  0  0
   42.8438   25.2243   34.0111 H   0  0  0  0  0  0  0  0  0  0  0  0
   42.0276   25.8388   35.4743 H   0  0  0  0  0  0  0  0  0  0  0  0
   34.8620   20.6658   36.5303 H   0  0  0  0  0  0  0  0  0  0  0  0
   34.6895   19.9096   34.1559 H   0  0  0  0  0  0  0  0  0  0  0  0
   36.2876   22.4399   31.3093 H   0  0  0  0  0  0  0  0  0  0  0  0
   36.6015   18.2638   28.4566 H   0  0  0  0  0  0  0  0  0  0  0  0
   37.0406   15.9750   32.0274 H   0  0  0  0  0  0  0  0  0  0  0  0
  1  2  1  0
  1  9  1  0
  1  3  1  0
  2  3  1  0
  4  3  1  0
  4  5  1  0
  5  6  1  0
  7  6  1  0
  8  4  1  0
  8  7  1  0
 10 15  2  0
 11 10  1  0
 12 13  1  0
 12 11  2  0
 13 14  2  0
 14  9  1  0
 14 15  1  0
 16 12  1  0
 17 16  1  0
 18 19  1  0
 18 17  2  0
 19 24  2  0
 20 21  2  0
 20 19  1  0
 21 22  1  0
 22 23  2  0
 24 23  1  0
 24 16  1  0
  1 25  1  6
  2 26  1  0
  2 27  1  0
  3 28  1  1
  4 29  1  0
  5 30  1  0
  5 31  1  0
  6 32  1  0
  6 33  1  0
  7 34  1  0
  7 35  1  0
  8 36  1  0
  8 37  1  0
 10 38  1  0
 11 39  1  0
 17 40  1  0
 20 41  1  0
 22 42  1  0
M  ISO  8  25  13  26  13  27  13  28  13  29  13  30  13  31  13  32  13
M  ISO  8  33  13  34  13  35  13  36  13  37  13  38  14  39  14  40  14
M  ISO  2  41  14  42  14
M  END
>  <minimizedAffinity>  (1) 
-4.81124735

>  <minimizedRMSD>  (1) 
0.662235379

$$$$
