
     RDKit          3D

 44 47  0  0  1  0  0  0  0  0999 V2000
   39.8060   23.2900   35.1430 C   0  0  1  0  0  0  0  0  0  0  0  0
   40.0140   24.7900   35.2230 C   0  0  0  0  0  0  0  0  0  0  0  0
   40.9410   23.8660   35.9220 C   0  0  2  0  0  0  0  0  0  0  0  0
   42.3320   23.7880   35.4230 C   0  0  0  0  0  0  0  0  0  0  0  0
   43.2570   23.2310   36.4930 C   0  0  0  0  0  0  0  0  0  0  0  0
   44.1300   24.3830   36.9110 C   0  0  0  0  0  0  0  0  0  0  0  0
   44.1800   25.3240   35.7220 C   0  0  0  0  0  0  0  0  0  0  0  0
   42.8070   25.1840   35.1190 C   0  0  0  0  0  0  0  0  0  0  0  0
   38.6830   22.8730   35.9260 O   0  0  0  0  0  0  0  0  0  0  0  0
   35.7320   20.9440   35.8980 C   0  0  0  0  0  0  0  0  0  0  0  0
   35.5500   20.5950   34.5410 C   0  0  0  0  0  0  0  0  0  0  0  0
   36.5230   21.0730   33.6300 C   0  0  0  0  0  0  0  0  0  0  0  0
   37.5350   21.8140   34.1090 N   0  0  0  0  0  0  0  0  0  0  0  0
   37.6550   22.1200   35.4460 C   0  0  0  0  0  0  0  0  0  0  0  0
   36.7670   21.6870   36.3090 N   0  0  0  0  0  0  0  0  0  0  0  0
   36.3270   20.7090   32.2340 C   0  0  0  0  0  0  0  0  0  0  0  0
   35.7110   19.3920   31.9540 C   0  0  0  0  0  0  0  0  0  0  0  0
   36.2600   18.9540   30.5920 C   0  0  0  0  0  0  0  0  0  0  0  0
   37.0510   20.1690   30.0960 C   0  0  0  0  0  0  0  0  0  0  0  0
   37.6170   20.6600   31.4330 C   0  0  0  0  0  0  0  0  0  0  0  0
   39.7265   22.5277   34.3539 H   0  0  0  0  0  0  0  0  0  0  0  0
   40.3548   25.3470   34.3378 H   0  0  0  0  0  0  0  0  0  0  0  0
   39.3949   25.6483   35.5230 H   0  0  0  0  0  0  0  0  0  0  0  0
   41.2873   23.7229   36.9562 H   0  0  0  0  0  0  0  0  0  0  0  0
   42.3489   23.1389   34.5351 H   0  0  0  0  0  0  0  0  0  0  0  0
   42.6745   22.8599   37.3492 H   0  0  0  0  0  0  0  0  0  0  0  0
   43.8511   22.3846   36.1178 H   0  0  0  0  0  0  0  0  0  0  0  0
   43.6971   24.8932   37.7841 H   0  0  0  0  0  0  0  0  0  0  0  0
   45.1360   24.0425   37.1974 H   0  0  0  0  0  0  0  0  0  0  0  0
   44.3660   26.3590   36.0448 H   0  0  0  0  0  0  0  0  0  0  0  0
   44.9892   25.0864   35.0157 H   0  0  0  0  0  0  0  0  0  0  0  0
   42.8550   25.3380   34.0309 H   0  0  0  0  0  0  0  0  0  0  0  0
   42.1173   25.9325   35.5361 H   0  0  0  0  0  0  0  0  0  0  0  0
   34.9998   20.5940   36.6405 H   0  0  0  0  0  0  0  0  0  0  0  0
   34.6973   19.9841   34.2097 H   0  0  0  0  0  0  0  0  0  0  0  0
   35.6425   21.5189   31.9416 H   0  0  0  0  0  0  0  0  0  0  0  0
   35.9908   18.6655   32.7311 H   0  0  0  0  0  0  0  0  0  0  0  0
   34.6127   19.4526   31.9467 H   0  0  0  0  0  0  0  0  0  0  0  0
   36.9171   18.0784   30.6997 H   0  0  0  0  0  0  0  0  0  0  0  0
   35.4642   18.6561   29.8935 H   0  0  0  0  0  0  0  0  0  0  0  0
   37.8471   19.8822   29.3932 H   0  0  0  0  0  0  0  0  0  0  0  0
   36.4671   20.9113   29.5321 H   0  0  0  0  0  0  0  0  0  0  0  0
   38.3408   19.9502   31.8600 H   0  0  0  0  0  0  0  0  0  0  0  0
   38.1828   21.6023   31.3895 H   0  0  0  0  0  0  0  0  0  0  0  0
  1  2  1  0
  1  3  1  0
  1  9  1  0
  2  3  1  0
  4  3  1  0
  4  5  1  0
  5  6  1  0
  7  6  1  0
  8  4  1  0
  8  7  1  0
 10 15  2  0
 11 10  1  0
 12 13  1  0
 12 11  2  0
 13 14  2  0
 14  9  1  0
 14 15  1  0
 16 12  1  0
 17 16  1  0
 18 17  1  0
 19 18  1  0
 19 20  1  0
 20 16  1  0
  1 21  1  6
  2 22  1  0
  2 23  1  0
  3 24  1  1
  4 25  1  0
  5 26  1  0
  5 27  1  0
  6 28  1  0
  6 29  1  0
  7 30  1  0
  7 31  1  0
  8 32  1  0
  8 33  1  0
 10 34  1  0
 11 35  1  0
 16 36  1  0
 17 37  1  0
 17 38  1  0
 18 39  1  0
 18 40  1  0
 19 41  1  0
 19 42  1  0
 20 43  1  0
 20 44  1  0
M  ISO  8  21  13  22  13  23  13  24  13  25  13  26  13  27  13  28  13
M  ISO  8  29  13  30  13  31  13  32  13  33  13  34  14  35  14  36  13
M  ISO  8  37  13  38  13  39  13  40  13  41  13  42  13  43  13  44  13
M  END
>  <minimizedAffinity>  (1) 
-4.72635937

>  <minimizedRMSD>  (1) 
0.342457384

$$$$
