
     RDKit          3D

 39 42  0  0  1  0  0  0  0  0999 V2000
   39.8130   23.5290   35.2820 C   0  0  1  0  0  0  0  0  0  0  0  0
   40.1170   25.0000   35.0520 C   0  0  0  0  0  0  0  0  0  0  0  0
   41.0010   24.1570   35.9210 C   0  0  2  0  0  0  0  0  0  0  0  0
   42.3740   23.9160   35.4310 C   0  0  0  0  0  0  0  0  0  0  0  0
   43.2270   23.2730   36.5120 C   0  0  0  0  0  0  0  0  0  0  0  0
   44.2140   24.3640   36.9190 C   0  0  0  0  0  0  0  0  0  0  0  0
   44.3690   25.2630   35.7280 C   0  0  0  0  0  0  0  0  0  0  0  0
   43.0010   25.2430   35.0960 C   0  0  0  0  0  0  0  0  0  0  0  0
   38.6860   23.3260   36.1040 O   0  0  0  0  0  0  0  0  0  0  0  0
   35.7960   21.3670   36.6060 C   0  0  0  0  0  0  0  0  0  0  0  0
   35.5710   20.7580   35.3550 C   0  0  0  0  0  0  0  0  0  0  0  0
   36.4880   21.0680   34.3250 C   0  0  0  0  0  0  0  0  0  0  0  0
   37.4940   21.9090   34.6110 N   0  0  0  0  0  0  0  0  0  0  0  0
   37.6560   22.4720   35.8550 C   0  0  0  0  0  0  0  0  0  0  0  0
   36.8270   22.2090   36.8360 N   0  0  0  0  0  0  0  0  0  0  0  0
   36.4010   20.5250   32.9780 C   0  0  0  0  0  0  0  0  0  0  0  0
   35.7420   19.3580   32.6620 C   0  0  0  0  0  0  0  0  0  0  0  0
   35.6520   18.8340   31.3880 C   0  0  0  0  0  0  0  0  0  0  0  0
   36.2550   19.5190   30.4060 N   0  0  0  0  0  0  0  0  0  0  0  0
   36.9010   20.6520   30.6760 C   0  0  0  0  0  0  0  0  0  0  0  0
   36.9760   21.1450   31.9250 N   0  0  0  0  0  0  0  0  0  0  0  0
   39.6698   22.6318   34.6619 H   0  0  0  0  0  0  0  0  0  0  0  0
   40.4733   25.3436   34.0697 H   0  0  0  0  0  0  0  0  0  0  0  0
   39.5646   25.9429   35.1774 H   0  0  0  0  0  0  0  0  0  0  0  0
   41.3572   24.1747   36.9616 H   0  0  0  0  0  0  0  0  0  0  0  0
   42.3222   23.2525   34.5552 H   0  0  0  0  0  0  0  0  0  0  0  0
   42.6065   22.9707   37.3685 H   0  0  0  0  0  0  0  0  0  0  0  0
   43.7325   22.3619   36.1594 H   0  0  0  0  0  0  0  0  0  0  0  0
   43.8212   24.9318   37.7753 H   0  0  0  0  0  0  0  0  0  0  0  0
   45.1802   23.9340   37.2216 H   0  0  0  0  0  0  0  0  0  0  0  0
   44.6451   26.2819   36.0371 H   0  0  0  0  0  0  0  0  0  0  0  0
   45.1640   24.9347   35.0423 H   0  0  0  0  0  0  0  0  0  0  0  0
   43.0884   25.3536   34.0051 H   0  0  0  0  0  0  0  0  0  0  0  0
   42.3847   26.0721   35.4739 H   0  0  0  0  0  0  0  0  0  0  0  0
   35.1021   21.1472   37.4307 H   0  0  0  0  0  0  0  0  0  0  0  0
   34.7243   20.0758   35.1886 H   0  0  0  0  0  0  0  0  0  0  0  0
   35.2546   18.8063   33.4794 H   0  0  0  0  0  0  0  0  0  0  0  0
   35.1105   17.8977   31.1879 H   0  0  0  0  0  0  0  0  0  0  0  0
   37.3866   21.1996   29.8548 H   0  0  0  0  0  0  0  0  0  0  0  0
  1  3  1  0
  1  9  1  0
  2  1  1  0
  2  3  1  0
  4  3  1  0
  4  5  1  0
  5  6  1  0
  7  6  1  0
  8  4  1  0
  8  7  1  0
 10 15  2  0
 11 10  1  0
 12 13  1  0
 12 11  2  0
 13 14  2  0
 14  9  1  0
 14 15  1  0
 16 12  1  0
 17 16  2  0
 18 17  1  0
 19 20  1  0
 19 18  2  0
 20 21  2  0
 21 16  1  0
  1 22  1  6
  2 23  1  0
  2 24  1  0
  3 25  1  1
  4 26  1  0
  5 27  1  0
  5 28  1  0
  6 29  1  0
  6 30  1  0
  7 31  1  0
  7 32  1  0
  8 33  1  0
  8 34  1  0
 10 35  1  0
 11 36  1  0
 17 37  1  0
 18 38  1  0
 20 39  1  0
M  ISO  8  22  13  23  13  24  13  25  13  26  13  27  13  28  13  29  13
M  ISO  8  30  13  31  13  32  13  33  13  34  13  35  14  36  14  37  14
M  ISO  2  38  14  39  14
M  END
>  <minimizedAffinity>  (1) 
-4.50441933

>  <minimizedRMSD>  (1) 
0.989441931

$$$$
