
     RDKit          3D

 39 42  0  0  1  0  0  0  0  0999 V2000
   39.8110   23.5220   35.2650 C   0  0  1  0  0  0  0  0  0  0  0  0
   40.1110   24.9930   35.0690 C   0  0  0  0  0  0  0  0  0  0  0  0
   40.9950   24.1500   35.9220 C   0  0  2  0  0  0  0  0  0  0  0  0
   42.3690   23.9040   35.4350 C   0  0  0  0  0  0  0  0  0  0  0  0
   43.2210   23.2500   36.5030 C   0  0  0  0  0  0  0  0  0  0  0  0
   44.2210   24.3170   36.9110 C   0  0  0  0  0  0  0  0  0  0  0  0
   44.3710   25.2340   35.7380 C   0  0  0  0  0  0  0  0  0  0  0  0
   43.0080   25.2310   35.1090 C   0  0  0  0  0  0  0  0  0  0  0  0
   38.6840   23.3120   36.1210 O   0  0  0  0  0  0  0  0  0  0  0  0
   35.7850   21.3520   36.5710 C   0  0  0  0  0  0  0  0  0  0  0  0
   35.5720   20.7440   35.3140 C   0  0  0  0  0  0  0  0  0  0  0  0
   36.5040   21.0580   34.2970 C   0  0  0  0  0  0  0  0  0  0  0  0
   37.5020   21.8930   34.5910 N   0  0  0  0  0  0  0  0  0  0  0  0
   37.6600   22.4520   35.8210 C   0  0  0  0  0  0  0  0  0  0  0  0
   36.8140   22.1810   36.7850 N   0  0  0  0  0  0  0  0  0  0  0  0
   36.4240   20.5130   32.9490 C   0  0  0  0  0  0  0  0  0  0  0  0
   35.7680   19.3480   32.6170 C   0  0  0  0  0  0  0  0  0  0  0  0
   35.7030   18.8440   31.3330 C   0  0  0  0  0  0  0  0  0  0  0  0
   36.3030   19.5080   30.3250 N   0  0  0  0  0  0  0  0  0  0  0  0
   36.9470   20.6510   30.6510 C   0  0  0  0  0  0  0  0  0  0  0  0
   37.0090   21.1390   31.9030 N   0  0  0  0  0  0  0  0  0  0  0  0
   39.6670   22.6411   34.6221 H   0  0  0  0  0  0  0  0  0  0  0  0
   40.4695   25.3574   34.0950 H   0  0  0  0  0  0  0  0  0  0  0  0
   39.5513   25.9292   35.2114 H   0  0  0  0  0  0  0  0  0  0  0  0
   41.3496   24.1665   36.9631 H   0  0  0  0  0  0  0  0  0  0  0  0
   42.3081   23.2447   34.5566 H   0  0  0  0  0  0  0  0  0  0  0  0
   42.6026   22.9502   37.3619 H   0  0  0  0  0  0  0  0  0  0  0  0
   43.7145   22.3371   36.1382 H   0  0  0  0  0  0  0  0  0  0  0  0
   43.8471   24.8740   37.7827 H   0  0  0  0  0  0  0  0  0  0  0  0
   45.1863   23.8696   37.1905 H   0  0  0  0  0  0  0  0  0  0  0  0
   44.6503   26.2466   36.0646 H   0  0  0  0  0  0  0  0  0  0  0  0
   45.1620   24.9134   35.0441 H   0  0  0  0  0  0  0  0  0  0  0  0
   43.0958   25.3493   34.0189 H   0  0  0  0  0  0  0  0  0  0  0  0
   42.3989   26.0625   35.4932 H   0  0  0  0  0  0  0  0  0  0  0  0
   35.0878   21.1389   37.3947 H   0  0  0  0  0  0  0  0  0  0  0  0
   34.7269   20.0629   35.1354 H   0  0  0  0  0  0  0  0  0  0  0  0
   35.2676   18.7874   33.4203 H   0  0  0  0  0  0  0  0  0  0  0  0
   35.1645   17.9057   31.1339 H   0  0  0  0  0  0  0  0  0  0  0  0
   37.4477   21.2127   29.8486 H   0  0  0  0  0  0  0  0  0  0  0  0
  1  3  1  0
  1  9  1  0
  2  1  1  0
  2  3  1  0
  4  3  1  0
  4  5  1  0
  5  6  1  0
  7  6  1  0
  8  4  1  0
  8  7  1  0
 10 15  2  0
 11 10  1  0
 12 13  1  0
 12 11  2  0
 13 14  2  0
 14  9  1  0
 14 15  1  0
 16 12  1  0
 17 16  2  0
 18 17  1  0
 19 20  1  0
 19 18  2  0
 20 21  2  0
 21 16  1  0
  1 22  1  6
  2 23  1  0
  2 24  1  0
  3 25  1  1
  4 26  1  0
  5 27  1  0
  5 28  1  0
  6 29  1  0
  6 30  1  0
  7 31  1  0
  7 32  1  0
  8 33  1  0
  8 34  1  0
 10 35  1  0
 11 36  1  0
 17 37  1  0
 18 38  1  0
 20 39  1  0
M  ISO  8  22  13  23  13  24  13  25  13  26  13  27  13  28  13  29  13
M  ISO  8  30  13  31  13  32  13  33  13  34  13  35  14  36  14  37  14
M  ISO  2  38  14  39  14
M  END
>  <minimizedAffinity>  (1) 
-4.50262737

>  <minimizedRMSD>  (1) 
0.946314156

$$$$
