
     RDKit          3D

 42 44  0  0  0  0  0  0  0  0999 V2000
   37.2730   22.5820   37.1320 C   0  0  0  0  0  0  0  0  0  0  0  0
   36.9760   21.9100   35.8860 C   0  0  0  0  0  0  0  0  0  0  0  0
   35.8700   21.1670   35.6810 C   0  0  0  0  0  0  0  0  0  0  0  0
   35.5320   20.5240   34.5580 C   0  0  0  0  0  0  0  0  0  0  0  0
   36.5770   20.7430   33.5200 C   0  0  0  0  0  0  0  0  0  0  0  0
   37.8650   21.8420   34.3550 S   0  0  0  0  0  0  0  0  0  0  0  0
   36.7160   20.3040   32.1900 N   0  0  0  0  0  0  0  0  0  0  0  0
   37.7350   20.8520   31.4870 C   0  0  0  0  0  0  0  0  0  0  0  0
   37.8920   20.4310   30.1670 C   0  0  0  0  0  0  0  0  0  0  0  0
   38.9970   21.0120   29.3720 C   0  0  0  0  0  0  0  0  0  0  0  0
   37.0150   19.4930   29.6480 C   0  0  0  0  0  0  0  0  0  0  0  0
   37.1400   19.1030   28.4600 O   0  0  0  0  0  0  0  0  0  0  0  0
   36.0070   18.9620   30.3700 N   0  0  0  0  0  0  0  0  0  0  0  0
   35.8820   19.3940   31.6540 C   0  0  0  0  0  0  0  0  0  0  0  0
   34.9550   18.9290   32.3750 O   0  0  0  0  0  0  0  0  0  0  0  0
   38.1640   23.7890   37.0070 C   0  0  0  0  0  0  0  0  0  0  0  0
   41.4570   21.9920   37.2400 C   0  0  0  0  0  0  0  0  0  0  0  0
   40.1400   22.3360   37.5330 C   0  0  0  0  0  0  0  0  0  0  0  0
   39.5440   23.3580   36.7750 C   0  0  0  0  0  0  0  0  0  0  0  0
   40.2670   23.9660   35.7950 N   0  0  0  0  0  0  0  0  0  0  0  0
   41.5340   23.6140   35.5360 C   0  0  0  0  0  0  0  0  0  0  0  0
   42.1350   22.6270   36.2550 N   0  0  0  0  0  0  0  0  0  0  0  0
   38.1350   24.5460   38.3410 C   0  0  0  0  0  0  0  0  0  0  0  0
   37.5920   24.6360   35.9110 C   0  0  0  0  0  0  0  0  0  0  0  0
   36.3220   22.9048   37.5808 H   0  0  0  0  0  0  0  0  0  0  0  0
   37.8230   21.8564   37.7492 H   0  0  0  0  0  0  0  0  0  0  0  0
   35.1718   21.0804   36.5266 H   0  0  0  0  0  0  0  0  0  0  0  0
   34.6201   19.9242   34.4218 H   0  0  0  0  0  0  0  0  0  0  0  0
   38.4088   21.5960   31.9369 H   0  0  0  0  0  0  0  0  0  0  0  0
   39.7638   21.4152   30.0498 H   0  0  0  0  0  0  0  0  0  0  0  0
   39.4422   20.2314   28.7377 H   0  0  0  0  0  0  0  0  0  0  0  0
   38.6062   21.8213   28.7377 H   0  0  0  0  0  0  0  0  0  0  0  0
   35.3640   18.2643   29.9692 H   0  0  0  0  0  0  0  0  0  0  0  0
   41.9520   21.1956   37.8151 H   0  0  0  0  0  0  0  0  0  0  0  0
   39.5840   21.8241   38.3322 H   0  0  0  0  0  0  0  0  0  0  0  0
   42.0914   24.1258   34.7376 H   0  0  0  0  0  0  0  0  0  0  0  0
   38.1626   23.8258   39.1720 H   0  0  0  0  0  0  0  0  0  0  0  0
   39.0083   25.2119   38.4038 H   0  0  0  0  0  0  0  0  0  0  0  0
   37.2133   25.1431   38.4038 H   0  0  0  0  0  0  0  0  0  0  0  0
   37.0276   25.4718   36.3501 H   0  0  0  0  0  0  0  0  0  0  0  0
   38.4086   25.0316   35.2892 H   0  0  0  0  0  0  0  0  0  0  0  0
   36.9200   24.0263   35.2892 H   0  0  0  0  0  0  0  0  0  0  0  0
  2  1  1  0
  3  2  2  0
  4  3  1  0
  5  6  1  0
  5  4  2  0
  6  2  1  0
  7  5  1  0
  8  7  1  0
  9  8  2  0
 10  9  1  0
 11  9  1  0
 11 13  1  0
 12 11  2  0
 13 14  1  0
 14  7  1  0
 14 15  2  0
 16  1  1  0
 16 23  1  0
 17 18  2  0
 19 16  1  0
 19 18  1  0
 20 19  2  0
 21 20  1  0
 21 22  2  0
 22 17  1  0
 24 16  1  0
  1 25  1  0
  1 26  1  0
  3 27  1  0
  4 28  1  0
  8 29  1  0
 10 30  1  0
 10 31  1  0
 10 32  1  0
 13 33  1  0
 17 34  1  0
 18 35  1  0
 21 36  1  0
 23 37  1  0
 23 38  1  0
 23 39  1  0
 24 40  1  0
 24 41  1  0
 24 42  1  0
M  ISO  8  25   8  26   8  27  14  28  14  29  14  30   8  31   8  32   8
M  ISO  8  33   9  34  14  35  14  36  14  37   8  38   8  39   8  40   8
M  ISO  2  41   8  42   8
M  END
>  <minimizedAffinity>  (1) 
-5.28020954

>  <minimizedRMSD>  (1) 
0.600648582

$$$$
