
     RDKit          3D

 37 39  0  0  1  0  0  0  0  0999 V2000
   39.7600   23.2460   35.0420 C   0  0  1  0  0  0  0  0  0  0  0  0
   39.9860   24.7280   35.2590 C   0  0  0  0  0  0  0  0  0  0  0  0
   40.8950   23.7340   35.8800 C   0  0  2  0  0  0  0  0  0  0  0  0
   42.2880   23.6800   35.3920 C   0  0  0  0  0  0  0  0  0  0  0  0
   43.2170   23.1370   36.4670 C   0  0  0  0  0  0  0  0  0  0  0  0
   44.0570   24.3300   36.8920 C   0  0  0  0  0  0  0  0  0  0  0  0
   44.1030   25.2600   35.7150 C   0  0  0  0  0  0  0  0  0  0  0  0
   42.7360   25.0990   35.1100 C   0  0  0  0  0  0  0  0  0  0  0  0
   38.6310   22.7590   35.7740 O   0  0  0  0  0  0  0  0  0  0  0  0
   35.6990   20.8190   35.5950 C   0  0  0  0  0  0  0  0  0  0  0  0
   35.5400   20.5620   34.1970 C   0  0  0  0  0  0  0  0  0  0  0  0
   36.5220   21.1080   33.3350 C   0  0  0  0  0  0  0  0  0  0  0  0
   37.5140   21.8170   33.8940 N   0  0  0  0  0  0  0  0  0  0  0  0
   37.6110   22.0290   35.2430 C   0  0  0  0  0  0  0  0  0  0  0  0
   36.7250   21.5430   36.0790 N   0  0  0  0  0  0  0  0  0  0  0  0
   36.4150   20.8780   31.8780 C   0  0  0  0  0  0  0  0  0  0  0  0
   35.5810   21.9070   31.1610 C   0  0  0  0  0  0  0  0  0  0  0  0
   39.6749   22.5643   34.1829 H   0  0  0  0  0  0  0  0  0  0  0  0
   40.3421   25.3580   34.4305 H   0  0  0  0  0  0  0  0  0  0  0  0
   39.3744   25.5636   35.6301 H   0  0  0  0  0  0  0  0  0  0  0  0
   41.2298   23.4952   36.9002 H   0  0  0  0  0  0  0  0  0  0  0  0
   42.3262   23.0350   34.5017 H   0  0  0  0  0  0  0  0  0  0  0  0
   42.6391   22.7470   37.3179 H   0  0  0  0  0  0  0  0  0  0  0  0
   43.8344   22.3036   36.1004 H   0  0  0  0  0  0  0  0  0  0  0  0
   43.5950   24.8319   37.7550 H   0  0  0  0  0  0  0  0  0  0  0  0
   45.0682   24.0178   37.1919 H   0  0  0  0  0  0  0  0  0  0  0  0
   44.2743   26.2979   36.0365 H   0  0  0  0  0  0  0  0  0  0  0  0
   44.9193   25.0343   35.0131 H   0  0  0  0  0  0  0  0  0  0  0  0
   42.7811   25.2717   34.0246 H   0  0  0  0  0  0  0  0  0  0  0  0
   42.0300   25.8249   35.5396 H   0  0  0  0  0  0  0  0  0  0  0  0
   34.9578   20.4112   36.2981 H   0  0  0  0  0  0  0  0  0  0  0  0
   34.6972   19.9699   33.8108 H   0  0  0  0  0  0  0  0  0  0  0  0
   37.4279   20.8921   31.4491 H   0  0  0  0  0  0  0  0  0  0  0  0
   35.9145   19.9079   31.7422 H   0  0  0  0  0  0  0  0  0  0  0  0
   35.0671   22.5411   31.8985 H   0  0  0  0  0  0  0  0  0  0  0  0
   36.2311   22.5313   30.5304 H   0  0  0  0  0  0  0  0  0  0  0  0
   34.8356   21.4002   30.5304 H   0  0  0  0  0  0  0  0  0  0  0  0
  1  2  1  0
  1  9  1  0
  1  3  1  0
  2  3  1  0
  4  3  1  0
  4  5  1  0
  5  6  1  0
  7  6  1  0
  8  4  1  0
  8  7  1  0
 10 15  2  0
 11 10  1  0
 12 13  1  0
 12 11  2  0
 13 14  2  0
 14  9  1  0
 14 15  1  0
 16 12  1  0
 17 16  1  0
  1 18  1  6
  2 19  1  0
  2 20  1  0
  3 21  1  1
  4 22  1  0
  5 23  1  0
  5 24  1  0
  6 25  1  0
  6 26  1  0
  7 27  1  0
  7 28  1  0
  8 29  1  0
  8 30  1  0
 10 31  1  0
 11 32  1  0
 16 33  1  0
 16 34  1  0
 17 35  1  0
 17 36  1  0
 17 37  1  0
M  ISO  8  18  13  19  13  20  13  21  13  22  13  23  13  24  13  25  13
M  ISO  8  26  13  27  13  28  13  29  13  30  13  31  14  32  14  33   8
M  ISO  4  34   8  35   8  36   8  37   8
M  END
>  <minimizedAffinity>  (1) 
-4.27734089

>  <minimizedRMSD>  (1) 
0.0895952657

$$$$
