
     RDKit          3D

 33 35  0  0  1  0  0  0  0  0999 V2000
   39.7580   23.2250   35.0090 C   0  0  1  0  0  0  0  0  0  0  0  0
   39.9760   24.6990   35.2710 C   0  0  0  0  0  0  0  0  0  0  0  0
   40.8830   23.6860   35.8770 C   0  0  2  0  0  0  0  0  0  0  0  0
   42.2790   23.6610   35.3930 C   0  0  0  0  0  0  0  0  0  0  0  0
   43.2220   23.1250   36.4500 C   0  0  0  0  0  0  0  0  0  0  0  0
   44.0390   24.3180   36.8950 C   0  0  0  0  0  0  0  0  0  0  0  0
   44.0570   25.2760   35.7450 C   0  0  0  0  0  0  0  0  0  0  0  0
   42.7060   25.0860   35.1140 C   0  0  0  0  0  0  0  0  0  0  0  0
   38.6210   22.7170   35.7110 O   0  0  0  0  0  0  0  0  0  0  0  0
   35.6870   20.7960   35.3680 C   0  0  0  0  0  0  0  0  0  0  0  0
   35.5570   20.5800   33.9810 C   0  0  0  0  0  0  0  0  0  0  0  0
   36.5620   21.1470   33.1610 C   0  0  0  0  0  0  0  0  0  0  0  0
   37.5440   21.8350   33.7520 N   0  0  0  0  0  0  0  0  0  0  0  0
   37.6070   22.0050   35.1160 C   0  0  0  0  0  0  0  0  0  0  0  0
   36.7020   21.5000   35.9330 N   0  0  0  0  0  0  0  0  0  0  0  0
   36.4830   20.9590   31.7180 C   0  0  0  0  0  0  0  0  0  0  0  0
   35.5210   21.4430   31.0700 O   0  0  0  0  0  0  0  0  0  0  0  0
   39.6860   22.5693   34.1287 H   0  0  0  0  0  0  0  0  0  0  0  0
   40.3409   25.3536   34.4658 H   0  0  0  0  0  0  0  0  0  0  0  0
   39.3571   25.5220   35.6578 H   0  0  0  0  0  0  0  0  0  0  0  0
   41.2054   23.4120   36.8924 H   0  0  0  0  0  0  0  0  0  0  0  0
   42.3214   23.0195   34.5004 H   0  0  0  0  0  0  0  0  0  0  0  0
   42.6561   22.7079   37.2960 H   0  0  0  0  0  0  0  0  0  0  0  0
   43.8562   22.3143   36.0620 H   0  0  0  0  0  0  0  0  0  0  0  0
   43.5753   24.7890   37.7743 H   0  0  0  0  0  0  0  0  0  0  0  0
   45.0588   24.0177   37.1775 H   0  0  0  0  0  0  0  0  0  0  0  0
   44.1857   26.3105   36.0961 H   0  0  0  0  0  0  0  0  0  0  0  0
   44.8872   25.0940   35.0467 H   0  0  0  0  0  0  0  0  0  0  0  0
   42.7696   25.2549   34.0289 H   0  0  0  0  0  0  0  0  0  0  0  0
   41.9780   25.8000   35.5267 H   0  0  0  0  0  0  0  0  0  0  0  0
   34.9210   20.3691   36.0321 H   0  0  0  0  0  0  0  0  0  0  0  0
   34.7209   20.0028   33.5593 H   0  0  0  0  0  0  0  0  0  0  0  0
   37.2672   20.3922   31.1947 H   0  0  0  0  0  0  0  0  0  0  0  0
  1  2  1  0
  1  9  1  0
  1  3  1  0
  2  3  1  0
  4  3  1  0
  4  5  1  0
  5  6  1  0
  7  6  1  0
  8  4  1  0
  8  7  1  0
 10 15  2  0
 11 10  1  0
 12 13  1  0
 12 11  2  0
 13 14  2  0
 14  9  1  0
 14 15  1  0
 16 12  1  0
 17 16  2  0
  1 18  1  6
  2 19  1  0
  2 20  1  0
  3 21  1  1
  4 22  1  0
  5 23  1  0
  5 24  1  0
  6 25  1  0
  6 26  1  0
  7 27  1  0
  7 28  1  0
  8 29  1  0
  8 30  1  0
 10 31  1  0
 11 32  1  0
 16 33  1  0
M  ISO  8  18  13  19  13  20  13  21  13  22  13  23  13  24  13  25  13
M  ISO  8  26  13  27  13  28  13  29  13  30  13  31  14  32  14  33   6
M  END
>  <minimizedAffinity>  (1) 
-4.1131587

>  <minimizedRMSD>  (1) 
0.542856932

$$$$
