
     RDKit          3D

 50 54  0  0  1  0  0  0  0  0999 V2000
   42.2890   23.9150   35.3060 O   0  0  0  0  0  0  0  0  0  0  0  0
   39.1010   23.2380   36.6840 C   0  0  0  0  0  0  0  0  0  0  0  0
   38.2030   23.7510   35.7390 C   0  0  0  0  0  0  0  0  0  0  0  0
   38.7400   24.3530   34.5910 C   0  0  0  0  0  0  0  0  0  0  0  0
   40.0730   24.3810   34.4990 N   0  0  0  0  0  0  0  0  0  0  0  0
   40.9170   23.8680   35.4410 C   0  0  0  0  0  0  0  0  0  0  0  0
   40.4550   23.2980   36.5320 N   0  0  0  0  0  0  0  0  0  0  0  0
   37.8920   24.9000   33.6080 N   0  0  0  0  0  0  0  0  0  0  0  0
   37.6800   26.1990   33.4060 N   0  0  0  0  0  0  0  0  0  0  0  0
   36.8040   26.3650   32.3790 C   0  0  0  0  0  0  0  0  0  0  0  0
   36.4750   25.0720   31.9440 C   0  0  0  0  0  0  0  0  0  0  0  0
   37.1750   24.1680   32.7360 C   0  0  0  0  0  0  0  0  0  0  0  0
   36.9630   22.8230   32.4690 N   0  0  0  0  0  0  0  0  0  0  0  0
   35.9880   22.3540   31.4640 C   0  0  0  0  0  0  0  0  0  0  0  0
   35.1360   21.4750   32.3960 C   0  0  0  0  0  0  0  0  0  0  0  0
   36.2530   20.5990   32.9740 C   0  0  0  0  0  0  0  0  0  0  0  0
   37.4420   21.5100   32.9370 C   0  0  0  0  0  0  0  0  0  0  0  0
   43.1760   24.2840   36.3600 C   0  0  1  0  0  0  0  0  0  0  0  0
   44.4470   23.4570   36.3040 C   0  0  0  0  0  0  0  0  0  0  0  0
   44.4580   24.8950   35.9490 C   0  0  2  0  0  0  0  0  0  0  0  0
   45.2190   25.7940   36.8470 C   0  0  0  0  0  0  0  0  0  0  0  0
   46.6780   25.4130   36.8980 C   0  0  0  0  0  0  0  0  0  0  0  0
   46.9020   24.8760   38.2910 C   0  0  0  0  0  0  0  0  0  0  0  0
   45.8570   25.4890   39.1650 C   0  0  0  0  0  0  0  0  0  0  0  0
   44.6820   25.6370   38.2530 C   0  0  0  0  0  0  0  0  0  0  0  0
   38.6953   22.7650   37.5904 H   0  0  0  0  0  0  0  0  0  0  0  0
   37.1157   23.6842   35.8916 H   0  0  0  0  0  0  0  0  0  0  0  0
   36.4304   27.3166   31.9730 H   0  0  0  0  0  0  0  0  0  0  0  0
   35.7870   24.8189   31.1239 H   0  0  0  0  0  0  0  0  0  0  0  0
   36.4634   21.7723   30.6605 H   0  0  0  0  0  0  0  0  0  0  0  0
   35.4496   23.1360   30.9085 H   0  0  0  0  0  0  0  0  0  0  0  0
   34.6296   22.0660   33.1734 H   0  0  0  0  0  0  0  0  0  0  0  0
   34.3080   20.9341   31.9145 H   0  0  0  0  0  0  0  0  0  0  0  0
   36.0219   20.2908   34.0043 H   0  0  0  0  0  0  0  0  0  0  0  0
   36.4044   19.6625   32.4171 H   0  0  0  0  0  0  0  0  0  0  0  0
   38.1994   21.1150   32.2440 H   0  0  0  0  0  0  0  0  0  0  0  0
   37.9053   21.5922   33.9313 H   0  0  0  0  0  0  0  0  0  0  0  0
   42.4128   24.5592   37.1029 H   0  0  0  0  0  0  0  0  0  0  0  0
   44.9243   23.1137   37.2337 H   0  0  0  0  0  0  0  0  0  0  0  0
   44.7538   22.5251   35.8066 H   0  0  0  0  0  0  0  0  0  0  0  0
   44.7388   25.4999   35.0742 H   0  0  0  0  0  0  0  0  0  0  0  0
   45.1142   26.8209   36.4668 H   0  0  0  0  0  0  0  0  0  0  0  0
   46.9008   24.6407   36.1471 H   0  0  0  0  0  0  0  0  0  0  0  0
   47.3329   26.2691   36.6787 H   0  0  0  0  0  0  0  0  0  0  0  0
   46.8033   23.7804   38.2946 H   0  0  0  0  0  0  0  0  0  0  0  0
   47.9115   25.1235   38.6510 H   0  0  0  0  0  0  0  0  0  0  0  0
   45.6166   24.8297   40.0120 H   0  0  0  0  0  0  0  0  0  0  0  0
   46.1765   26.4428   39.6102 H   0  0  0  0  0  0  0  0  0  0  0  0
   44.0974   26.5255   38.5338 H   0  0  0  0  0  0  0  0  0  0  0  0
   44.0232   24.7588   38.3219 H   0  0  0  0  0  0  0  0  0  0  0  0
  1  6  1  0
  1 18  1  0
  3  2  2  0
  4  3  1  0
  5  4  2  0
  5  6  1  0
  6  7  2  0
  7  2  1  0
  8  4  1  0
  9  8  1  0
 10  9  2  0
 11 10  1  0
 11 12  2  0
 12  8  1  0
 13 12  1  0
 13 17  1  0
 14 15  1  0
 14 13  1  0
 15 16  1  0
 17 16  1  0
 19 18  1  0
 20 19  1  0
 20 18  1  0
 20 21  1  0
 21 22  1  0
 21 25  1  0
 22 23  1  0
 23 24  1  0
 25 24  1  0
  2 26  1  0
  3 27  1  0
 10 28  1  0
 11 29  1  0
 14 30  1  0
 14 31  1  0
 15 32  1  0
 15 33  1  0
 16 34  1  0
 16 35  1  0
 17 36  1  0
 17 37  1  0
 18 38  1  1
 19 39  1  0
 19 40  1  0
 20 41  1  6
 21 42  1  0
 22 43  1  0
 22 44  1  0
 23 45  1  0
 23 46  1  0
 24 47  1  0
 24 48  1  0
 25 49  1  0
 25 50  1  0
M  ISO  8  26  14  27  14  28  14  29  14  30  13  31  13  32  13  33  13
M  ISO  8  34  13  35  13  36  13  37  13  38  13  39  13  40  13  41  13
M  ISO  8  42  13  43  13  44  13  45  13  46  13  47  13  48  13  49  13
M  ISO  1  50  13
M  END
>  <minimizedAffinity>  (1) 
-5.78439951

>  <minimizedRMSD>  (1) 
4.41259289

$$$$
