
     RDKit          3D

 45 49  0  0  1  0  0  0  0  0999 V2000
   38.6950   23.0750   36.1420 O   0  0  0  0  0  0  0  0  0  0  0  0
   35.7430   21.1230   36.2950 C   0  0  0  0  0  0  0  0  0  0  0  0
   35.5620   20.6560   34.9780 C   0  0  0  0  0  0  0  0  0  0  0  0
   36.5240   21.0650   34.0050 C   0  0  0  0  0  0  0  0  0  0  0  0
   37.5210   21.8540   34.4330 N   0  0  0  0  0  0  0  0  0  0  0  0
   37.6460   22.2720   35.7410 C   0  0  0  0  0  0  0  0  0  0  0  0
   36.7780   21.9240   36.6670 N   0  0  0  0  0  0  0  0  0  0  0  0
   36.4190   20.6280   32.6680 N   0  0  0  0  0  0  0  0  0  0  0  0
   36.4130   19.3440   32.2950 N   0  0  0  0  0  0  0  0  0  0  0  0
   36.1820   19.2700   30.9540 C   0  0  0  0  0  0  0  0  0  0  0  0
   36.0450   20.6140   30.5220 C   0  0  0  0  0  0  0  0  0  0  0  0
   36.2070   21.4700   31.6300 C   0  0  0  0  0  0  0  0  0  0  0  0
   36.1710   22.8780   31.3640 C   0  0  0  0  0  0  0  0  0  0  0  0
   35.2520   23.9010   31.3780 C   0  0  0  0  0  0  0  0  0  0  0  0
   35.7400   25.1280   31.0400 C   0  0  0  0  0  0  0  0  0  0  0  0
   37.0490   24.8030   30.8090 C   0  0  0  0  0  0  0  0  0  0  0  0
   37.2560   23.5350   31.0000 O   0  0  0  0  0  0  0  0  0  0  0  0
   39.8430   23.3390   35.3360 C   0  0  1  0  0  0  0  0  0  0  0  0
   40.0730   24.8370   35.2370 C   0  0  0  0  0  0  0  0  0  0  0  0
   41.0010   23.9670   36.0080 C   0  0  2  0  0  0  0  0  0  0  0  0
   42.3690   23.8410   35.4890 C   0  0  0  0  0  0  0  0  0  0  0  0
   43.3000   23.2440   36.5180 C   0  0  0  0  0  0  0  0  0  0  0  0
   44.2250   24.3690   36.9210 C   0  0  0  0  0  0  0  0  0  0  0  0
   44.2570   25.3470   35.8030 C   0  0  0  0  0  0  0  0  0  0  0  0
   42.9090   25.2170   35.1770 C   0  0  0  0  0  0  0  0  0  0  0  0
   35.0112   20.8252   37.0604 H   0  0  0  0  0  0  0  0  0  0  0  0
   34.7166   20.0048   34.7110 H   0  0  0  0  0  0  0  0  0  0  0  0
   36.1159   18.3613   30.3377 H   0  0  0  0  0  0  0  0  0  0  0  0
   35.8447   20.9361   29.4895 H   0  0  0  0  0  0  0  0  0  0  0  0
   34.1967   23.7403   31.6435 H   0  0  0  0  0  0  0  0  0  0  0  0
   35.2288   26.0996   30.9724 H   0  0  0  0  0  0  0  0  0  0  0  0
   37.8238   25.5209   30.5020 H   0  0  0  0  0  0  0  0  0  0  0  0
   39.7511   22.4739   34.6629 H   0  0  0  0  0  0  0  0  0  0  0  0
   40.3968   25.2851   34.2860 H   0  0  0  0  0  0  0  0  0  0  0  0
   39.4797   25.7374   35.4544 H   0  0  0  0  0  0  0  0  0  0  0  0
   41.3717   23.9090   37.0420 H   0  0  0  0  0  0  0  0  0  0  0  0
   42.3237   23.1951   34.5997 H   0  0  0  0  0  0  0  0  0  0  0  0
   42.7317   22.8824   37.3877 H   0  0  0  0  0  0  0  0  0  0  0  0
   43.8537   22.3818   36.1181 H   0  0  0  0  0  0  0  0  0  0  0  0
   43.8493   24.8548   37.8336 H   0  0  0  0  0  0  0  0  0  0  0  0
   45.2348   23.9840   37.1263 H   0  0  0  0  0  0  0  0  0  0  0  0
   44.4171   26.3679   36.1800 H   0  0  0  0  0  0  0  0  0  0  0  0
   45.0755   25.1552   35.0936 H   0  0  0  0  0  0  0  0  0  0  0  0
   42.9913   25.3456   34.0876 H   0  0  0  0  0  0  0  0  0  0  0  0
   42.2320   25.9877   35.5741 H   0  0  0  0  0  0  0  0  0  0  0  0
  2  7  2  0
  3  2  1  0
  4  5  1  0
  4  3  2  0
  5  6  2  0
  6  1  1  0
  6  7  1  0
  8  4  1  0
  9  8  1  0
 10  9  2  0
 11 10  1  0
 11 12  2  0
 12  8  1  0
 13 14  2  0
 13 12  1  0
 15 14  1  0
 16 17  1  0
 16 15  2  0
 17 13  1  0
 18 20  1  0
 18  1  1  0
 19 18  1  0
 19 20  1  0
 21 20  1  0
 21 22  1  0
 22 23  1  0
 24 23  1  0
 25 21  1  0
 25 24  1  0
  2 26  1  0
  3 27  1  0
 10 28  1  0
 11 29  1  0
 14 30  1  0
 15 31  1  0
 16 32  1  0
 18 33  1  6
 19 34  1  0
 19 35  1  0
 20 36  1  1
 21 37  1  0
 22 38  1  0
 22 39  1  0
 23 40  1  0
 23 41  1  0
 24 42  1  0
 24 43  1  0
 25 44  1  0
 25 45  1  0
M  ISO  8  26  14  27  14  28  14  29  14  30  14  31  14  32  14  33  13
M  ISO  8  34  13  35  13  36  13  37  13  38  13  39  13  40  13  41  13
M  ISO  4  42  13  43  13  44  13  45  13
M  END
>  <minimizedAffinity>  (1) 
-5.43579483

>  <minimizedRMSD>  (1) 
2.60785937

$$$$
