
     RDKit          3D

 45 49  0  0  1  0  0  0  0  0999 V2000
   40.3960   24.8110   35.1280 O   0  0  0  0  0  0  0  0  0  0  0  0
   37.8480   22.6360   36.2390 C   0  0  0  0  0  0  0  0  0  0  0  0
   37.4560   21.9460   35.0960 C   0  0  0  0  0  0  0  0  0  0  0  0
   38.1110   22.2570   33.8820 C   0  0  0  0  0  0  0  0  0  0  0  0
   39.0730   23.2010   33.9260 N   0  0  0  0  0  0  0  0  0  0  0  0
   39.4210   23.8530   35.0940 C   0  0  0  0  0  0  0  0  0  0  0  0
   38.8210   23.5810   36.2400 N   0  0  0  0  0  0  0  0  0  0  0  0
   37.7780   21.5760   32.7000 N   0  0  0  0  0  0  0  0  0  0  0  0
   38.0350   20.2760   32.4840 N   0  0  0  0  0  0  0  0  0  0  0  0
   37.5020   19.8840   31.3050 C   0  0  0  0  0  0  0  0  0  0  0  0
   36.9020   21.0200   30.7980 C   0  0  0  0  0  0  0  0  0  0  0  0
   37.0880   22.0950   31.6890 C   0  0  0  0  0  0  0  0  0  0  0  0
   36.6420   23.4260   31.3150 C   0  0  0  0  0  0  0  0  0  0  0  0
   35.3030   23.8250   31.4510 C   0  0  0  0  0  0  0  0  0  0  0  0
   35.0660   25.1030   31.0490 C   0  0  0  0  0  0  0  0  0  0  0  0
   36.2550   25.5370   30.6500 N   0  0  0  0  0  0  0  0  0  0  0  0
   37.0690   24.5680   30.8240 N   0  0  0  0  0  0  0  0  0  0  0  0
   41.7360   24.5840   34.7310 C   0  0  1  0  0  0  0  0  0  0  0  0
   42.3290   25.8030   34.0400 C   0  0  0  0  0  0  0  0  0  0  0  0
   42.7740   25.3940   35.3990 C   0  0  2  0  0  0  0  0  0  0  0  0
   44.1650   24.9360   35.5200 C   0  0  0  0  0  0  0  0  0  0  0  0
   44.3670   24.1640   36.8110 C   0  0  0  0  0  0  0  0  0  0  0  0
   45.2530   25.0450   37.6590 C   0  0  0  0  0  0  0  0  0  0  0  0
   45.9900   25.9590   36.7490 C   0  0  0  0  0  0  0  0  0  0  0  0
   45.0650   26.1370   35.5960 C   0  0  0  0  0  0  0  0  0  0  0  0
   37.3439   22.4036   37.1887 H   0  0  0  0  0  0  0  0  0  0  0  0
   36.6633   21.1843   35.1355 H   0  0  0  0  0  0  0  0  0  0  0  0
   37.5382   18.8829   30.8506 H   0  0  0  0  0  0  0  0  0  0  0  0
   36.3604   21.0767   29.8423 H   0  0  0  0  0  0  0  0  0  0  0  0
   34.5171   23.1647   31.8465 H   0  0  0  0  0  0  0  0  0  0  0  0
   34.1113   25.6493   31.0536 H   0  0  0  0  0  0  0  0  0  0  0  0
   36.4773   26.4700   30.2745 H   0  0  0  0  0  0  0  0  0  0  0  0
   41.6316   23.5071   34.5323 H   0  0  0  0  0  0  0  0  0  0  0  0
   42.9998   25.6783   33.1772 H   0  0  0  0  0  0  0  0  0  0  0  0
   41.9276   26.7225   33.5890 H   0  0  0  0  0  0  0  0  0  0  0  0
   42.8173   25.8500   36.3991 H   0  0  0  0  0  0  0  0  0  0  0  0
   44.3922   24.2983   34.6530 H   0  0  0  0  0  0  0  0  0  0  0  0
   43.4033   23.9889   37.3115 H   0  0  0  0  0  0  0  0  0  0  0  0
   44.8150   23.1749   36.6350 H   0  0  0  0  0  0  0  0  0  0  0  0
   44.6387   25.6298   38.3595 H   0  0  0  0  0  0  0  0  0  0  0  0
   45.9573   24.4335   38.2421 H   0  0  0  0  0  0  0  0  0  0  0  0
   46.1924   26.9219   37.2409 H   0  0  0  0  0  0  0  0  0  0  0  0
   46.9704   25.5603   36.4493 H   0  0  0  0  0  0  0  0  0  0  0  0
   45.6444   26.2265   34.6653 H   0  0  0  0  0  0  0  0  0  0  0  0
   44.4663   27.0501   35.7293 H   0  0  0  0  0  0  0  0  0  0  0  0
  2  7  2  0
  3  2  1  0
  4  5  1  0
  4  3  2  0
  5  6  2  0
  6  1  1  0
  6  7  1  0
  8  4  1  0
  9  8  1  0
 10  9  2  0
 11 10  1  0
 11 12  2  0
 12  8  1  0
 13 14  1  0
 13 12  1  0
 15 14  2  0
 16 17  1  0
 16 15  1  0
 17 13  2  0
 18  1  1  0
 18 20  1  0
 19 18  1  0
 19 20  1  0
 20 21  1  0
 21 25  1  0
 21 22  1  0
 22 23  1  0
 24 23  1  0
 25 24  1  0
  2 26  1  0
  3 27  1  0
 10 28  1  0
 11 29  1  0
 14 30  1  0
 15 31  1  0
 16 32  1  0
 18 33  1  6
 19 34  1  0
 19 35  1  0
 20 36  1  1
 21 37  1  0
 22 38  1  0
 22 39  1  0
 23 40  1  0
 23 41  1  0
 24 42  1  0
 24 43  1  0
 25 44  1  0
 25 45  1  0
M  ISO  8  26  14  27  14  28  14  29  14  30  14  31  14  32   9  33  13
M  ISO  8  34  13  35  13  36  13  37  13  38  13  39  13  40  13  41  13
M  ISO  4  42  13  43  13  44  13  45  13
M  END
>  <minimizedAffinity>  (1) 
-5.28553104

>  <minimizedRMSD>  (1) 
3.29030347

$$$$
