
     RDKit          3D

 51 55  0  0  1  0  0  0  0  0999 V2000
   40.1930   22.4210   36.6570 O   0  0  0  0  0  0  0  0  0  0  0  0
   37.7520   24.9720   36.7850 C   0  0  0  0  0  0  0  0  0  0  0  0
   37.9580   25.7040   35.6010 C   0  0  0  0  0  0  0  0  0  0  0  0
   38.9870   25.2760   34.7480 C   0  0  0  0  0  0  0  0  0  0  0  0
   39.6840   24.2090   35.1320 N   0  0  0  0  0  0  0  0  0  0  0  0
   39.4500   23.5240   36.2930 C   0  0  0  0  0  0  0  0  0  0  0  0
   38.5000   23.8860   37.1210 N   0  0  0  0  0  0  0  0  0  0  0  0
   39.2480   25.9680   33.5500 N   0  0  0  0  0  0  0  0  0  0  0  0
   40.2700   26.7890   33.3280 N   0  0  0  0  0  0  0  0  0  0  0  0
   40.2040   27.2890   32.0660 C   0  0  0  0  0  0  0  0  0  0  0  0
   39.0690   26.7310   31.5020 C   0  0  0  0  0  0  0  0  0  0  0  0
   38.4940   25.9130   32.4500 C   0  0  0  0  0  0  0  0  0  0  0  0
   37.3130   25.2610   32.0690 N   0  0  0  0  0  0  0  0  0  0  0  0
   37.5130   23.8060   32.1140 C   0  0  0  0  0  0  0  0  0  0  0  0
   36.5020   23.1990   31.1760 C   0  0  0  0  0  0  0  0  0  0  0  0
   35.2590   23.7050   31.4650 O   0  0  0  0  0  0  0  0  0  0  0  0
   35.0960   25.0250   31.0520 C   0  0  0  0  0  0  0  0  0  0  0  0
   36.0680   25.9540   31.7220 C   0  0  0  0  0  0  0  0  0  0  0  0
   41.4970   22.4890   37.2200 C   0  0  1  0  0  0  0  0  0  0  0  0
   42.3700   21.3480   36.7450 C   0  0  0  0  0  0  0  0  0  0  0  0
   42.6180   22.7390   36.2790 C   0  0  2  0  0  0  0  0  0  0  0  0
   43.8770   23.3820   36.6950 C   0  0  0  0  0  0  0  0  0  0  0  0
   43.8730   24.8590   36.3570 C   0  0  0  0  0  0  0  0  0  0  0  0
   44.8860   25.0070   35.2370 C   0  0  0  0  0  0  0  0  0  0  0  0
   45.8390   23.8640   35.3310 C   0  0  0  0  0  0  0  0  0  0  0  0
   45.0030   22.7560   35.8820 C   0  0  0  0  0  0  0  0  0  0  0  0
   36.9516   25.2915   37.4686 H   0  0  0  0  0  0  0  0  0  0  0  0
   37.3368   26.5775   35.3537 H   0  0  0  0  0  0  0  0  0  0  0  0
   40.9058   27.9906   31.5915 H   0  0  0  0  0  0  0  0  0  0  0  0
   38.6947   26.9085   30.4830 H   0  0  0  0  0  0  0  0  0  0  0  0
   38.5325   23.5535   31.7871 H   0  0  0  0  0  0  0  0  0  0  0  0
   37.3842   23.4211   33.1364 H   0  0  0  0  0  0  0  0  0  0  0  0
   36.4929   22.1062   31.3016 H   0  0  0  0  0  0  0  0  0  0  0  0
   36.7683   23.4425   30.1369 H   0  0  0  0  0  0  0  0  0  0  0  0
   35.2489   25.0771   29.9639 H   0  0  0  0  0  0  0  0  0  0  0  0
   34.0800   25.3423   31.3294 H   0  0  0  0  0  0  0  0  0  0  0  0
   36.2986   26.7850   31.0392 H   0  0  0  0  0  0  0  0  0  0  0  0
   35.6086   26.3285   32.6487 H   0  0  0  0  0  0  0  0  0  0  0  0
   41.2011   22.9408   38.1783 H   0  0  0  0  0  0  0  0  0  0  0  0
   43.0731   20.8650   37.4394 H   0  0  0  0  0  0  0  0  0  0  0  0
   42.1925   20.3792   36.2551 H   0  0  0  0  0  0  0  0  0  0  0  0
   42.6709   23.2630   35.3133 H   0  0  0  0  0  0  0  0  0  0  0  0
   44.0001   23.2488   37.7800 H   0  0  0  0  0  0  0  0  0  0  0  0
   42.8750   25.1761   36.0203 H   0  0  0  0  0  0  0  0  0  0  0  0
   44.1242   25.4832   37.2272 H   0  0  0  0  0  0  0  0  0  0  0  0
   45.4292   25.9572   35.3468 H   0  0  0  0  0  0  0  0  0  0  0  0
   44.3812   25.0073   34.2597 H   0  0  0  0  0  0  0  0  0  0  0  0
   46.2362   23.6009   34.3395 H   0  0  0  0  0  0  0  0  0  0  0  0
   46.7167   24.0888   35.9548 H   0  0  0  0  0  0  0  0  0  0  0  0
   44.5831   22.1592   35.0589 H   0  0  0  0  0  0  0  0  0  0  0  0
   45.6118   22.0938   36.5152 H   0  0  0  0  0  0  0  0  0  0  0  0
  1 19  1  0
  2  7  2  0
  3  2  1  0
  4  5  1  0
  4  3  2  0
  5  6  2  0
  6  1  1  0
  6  7  1  0
  8  4  1  0
  9  8  1  0
 10  9  2  0
 11 10  1  0
 11 12  2  0
 12  8  1  0
 13 14  1  0
 13 12  1  0
 15 16  1  0
 15 14  1  0
 17 16  1  0
 17 18  1  0
 18 13  1  0
 20 19  1  0
 21 22  1  0
 21 20  1  0
 21 19  1  0
 23 22  1  0
 24 25  1  0
 24 23  1  0
 25 26  1  0
 26 22  1  0
  2 27  1  0
  3 28  1  0
 10 29  1  0
 11 30  1  0
 14 31  1  0
 14 32  1  0
 15 33  1  0
 15 34  1  0
 17 35  1  0
 17 36  1  0
 18 37  1  0
 18 38  1  0
 19 39  1  1
 20 40  1  0
 20 41  1  0
 21 42  1  6
 22 43  1  0
 23 44  1  0
 23 45  1  0
 24 46  1  0
 24 47  1  0
 25 48  1  0
 25 49  1  0
 26 50  1  0
 26 51  1  0
M  ISO  8  27  14  28  14  29  14  30  14  31  13  32  13  33  13  34  13
M  ISO  8  35  13  36  13  37  13  38  13  39  13  40  13  41  13  42  13
M  ISO  8  43  13  44  13  45  13  46  13  47  13  48  13  49  13  50  13
M  ISO  1  51  13
M  END
>  <minimizedAffinity>  (1) 
-5.19768763

>  <minimizedRMSD>  (1) 
5.12527323

$$$$
