
     RDKit          3D

 40 43  0  0  0  0  0  0  0  0999 V2000
   37.2890   22.5980   37.3270 C   0  0  0  0  0  0  0  0  0  0  0  0
   36.9670   21.9620   36.0650 C   0  0  0  0  0  0  0  0  0  0  0  0
   35.8990   21.1660   35.8860 C   0  0  0  0  0  0  0  0  0  0  0  0
   35.5270   20.5520   34.7600 C   0  0  0  0  0  0  0  0  0  0  0  0
   36.4940   20.8750   33.6720 C   0  0  0  0  0  0  0  0  0  0  0  0
   37.7680   22.0130   34.4870 S   0  0  0  0  0  0  0  0  0  0  0  0
   36.5920   20.5110   32.3120 N   0  0  0  0  0  0  0  0  0  0  0  0
   36.6760   21.4640   31.3460 C   0  0  0  0  0  0  0  0  0  0  0  0
   36.7570   20.8880   30.1580 N   0  0  0  0  0  0  0  0  0  0  0  0
   36.7310   19.5600   30.3030 C   0  0  0  0  0  0  0  0  0  0  0  0
   36.7790   18.4190   29.4990 C   0  0  0  0  0  0  0  0  0  0  0  0
   36.7230   17.1890   30.0540 N   0  0  0  0  0  0  0  0  0  0  0  0
   36.6210   17.0080   31.3840 C   0  0  0  0  0  0  0  0  0  0  0  0
   36.5730   18.1070   32.1910 N   0  0  0  0  0  0  0  0  0  0  0  0
   36.6270   19.3390   31.6610 C   0  0  0  0  0  0  0  0  0  0  0  0
   38.1970   23.8050   37.2070 C   0  0  0  0  0  0  0  0  0  0  0  0
   41.4850   21.9790   37.2160 C   0  0  0  0  0  0  0  0  0  0  0  0
   40.1980   22.3230   37.5990 C   0  0  0  0  0  0  0  0  0  0  0  0
   39.5490   23.3630   36.8910 C   0  0  0  0  0  0  0  0  0  0  0  0
   40.2140   23.9860   35.8650 N   0  0  0  0  0  0  0  0  0  0  0  0
   41.4730   23.6110   35.5310 C   0  0  0  0  0  0  0  0  0  0  0  0
   42.1040   22.6200   36.1970 N   0  0  0  0  0  0  0  0  0  0  0  0
   38.2500   24.4860   38.5820 C   0  0  0  0  0  0  0  0  0  0  0  0
   37.5880   24.7130   36.1760 C   0  0  0  0  0  0  0  0  0  0  0  0
   36.3493   22.9203   37.7993 H   0  0  0  0  0  0  0  0  0  0  0  0
   37.8356   21.8526   37.9233 H   0  0  0  0  0  0  0  0  0  0  0  0
   35.2595   21.0018   36.7658 H   0  0  0  0  0  0  0  0  0  0  0  0
   34.6427   19.9068   34.6517 H   0  0  0  0  0  0  0  0  0  0  0  0
   36.6765   22.5493   31.5252 H   0  0  0  0  0  0  0  0  0  0  0  0
   36.8629   18.5228   28.4071 H   0  0  0  0  0  0  0  0  0  0  0  0
   36.5773   15.9953   31.8112 H   0  0  0  0  0  0  0  0  0  0  0  0
   42.0113   21.1729   37.7482 H   0  0  0  0  0  0  0  0  0  0  0  0
   39.6959   21.8033   38.4284 H   0  0  0  0  0  0  0  0  0  0  0  0
   41.9888   24.1218   34.7046 H   0  0  0  0  0  0  0  0  0  0  0  0
   38.1906   23.7226   39.3718 H   0  0  0  0  0  0  0  0  0  0  0  0
   39.1941   25.0419   38.6797 H   0  0  0  0  0  0  0  0  0  0  0  0
   37.4033   25.1813   38.6797 H   0  0  0  0  0  0  0  0  0  0  0  0
   37.0431   25.5255   36.6790 H   0  0  0  0  0  0  0  0  0  0  0  0
   38.3835   25.1394   35.5472 H   0  0  0  0  0  0  0  0  0  0  0  0
   36.8917   24.1388   35.5472 H   0  0  0  0  0  0  0  0  0  0  0  0
  2  1  1  0
  3  2  2  0
  4  3  1  0
  5  6  1  0
  5  4  2  0
  6  2  1  0
  7  5  1  0
  8  7  1  0
  9 10  1  0
  9  8  2  0
 10 15  2  0
 11 12  2  0
 11 10  1  0
 12 13  1  0
 13 14  2  0
 15 14  1  0
 15  7  1  0
 16  1  1  0
 16 23  1  0
 17 18  2  0
 19 16  1  0
 19 18  1  0
 20 19  2  0
 21 20  1  0
 21 22  2  0
 22 17  1  0
 24 16  1  0
  1 25  1  0
  1 26  1  0
  3 27  1  0
  4 28  1  0
  8 29  1  0
 11 30  1  0
 13 31  1  0
 17 32  1  0
 18 33  1  0
 21 34  1  0
 23 35  1  0
 23 36  1  0
 23 37  1  0
 24 38  1  0
 24 39  1  0
 24 40  1  0
M  ISO  8  25   8  26   8  27  14  28  14  29  14  30  14  31  14  32  14
M  ISO  8  33  14  34  14  35   8  36   8  37   8  38   8  39   8  40   8
M  END
>  <minimizedAffinity>  (1) 
-4.94860268

>  <minimizedRMSD>  (1) 
0.759494901

$$$$
