
     RDKit          3D

 40 43  0  0  1  0  0  0  0  0999 V2000
   39.8060   23.3130   35.1990 C   0  0  1  0  0  0  0  0  0  0  0  0
   40.0350   24.8190   35.1740 C   0  0  0  0  0  0  0  0  0  0  0  0
   40.9540   23.9060   35.9200 C   0  0  2  0  0  0  0  0  0  0  0  0
   42.3340   23.8020   35.4270 C   0  0  0  0  0  0  0  0  0  0  0  0
   43.2440   23.1820   36.4570 C   0  0  0  0  0  0  0  0  0  0  0  0
   44.1570   24.3000   36.9060 C   0  0  0  0  0  0  0  0  0  0  0  0
   44.1820   25.3300   35.8420 C   0  0  0  0  0  0  0  0  0  0  0  0
   42.8580   25.1970   35.1730 C   0  0  0  0  0  0  0  0  0  0  0  0
   38.6540   22.9870   35.9730 O   0  0  0  0  0  0  0  0  0  0  0  0
   35.7000   21.0460   35.9720 C   0  0  0  0  0  0  0  0  0  0  0  0
   35.5920   20.5790   34.6490 C   0  0  0  0  0  0  0  0  0  0  0  0
   36.5920   20.9650   33.7440 C   0  0  0  0  0  0  0  0  0  0  0  0
   37.5640   21.7450   34.2160 N   0  0  0  0  0  0  0  0  0  0  0  0
   37.6370   22.1840   35.5170 C   0  0  0  0  0  0  0  0  0  0  0  0
   36.7180   21.8420   36.3930 N   0  0  0  0  0  0  0  0  0  0  0  0
   36.5450   20.5240   32.4070 N   0  0  0  0  0  0  0  0  0  0  0  0
   36.9930   21.1820   31.3530 N   0  0  0  0  0  0  0  0  0  0  0  0
   36.8000   20.4660   30.2210 C   0  0  0  0  0  0  0  0  0  0  0  0
   36.1910   19.2930   30.6270 C   0  0  0  0  0  0  0  0  0  0  0  0
   36.0510   19.3710   31.9850 C   0  0  0  0  0  0  0  0  0  0  0  0
   35.4280   18.2690   32.6350 C   0  0  0  0  0  0  0  0  0  0  0  0
   34.6260   17.4200   32.2180 O   0  0  0  0  0  0  0  0  0  0  0  0
   39.7219   22.4870   34.4775 H   0  0  0  0  0  0  0  0  0  0  0  0
   40.3738   25.3122   34.2510 H   0  0  0  0  0  0  0  0  0  0  0  0
   39.4381   25.7084   35.4241 H   0  0  0  0  0  0  0  0  0  0  0  0
   41.3076   23.7969   36.9559 H   0  0  0  0  0  0  0  0  0  0  0  0
   42.3224   23.1806   34.5194 H   0  0  0  0  0  0  0  0  0  0  0  0
   42.6597   22.7971   37.3058 H   0  0  0  0  0  0  0  0  0  0  0  0
   43.8079   22.3310   36.0474 H   0  0  0  0  0  0  0  0  0  0  0  0
   43.7773   24.7387   37.8406 H   0  0  0  0  0  0  0  0  0  0  0  0
   45.1712   23.9142   37.0864 H   0  0  0  0  0  0  0  0  0  0  0  0
   44.3015   26.3345   36.2742 H   0  0  0  0  0  0  0  0  0  0  0  0
   45.0218   25.1947   35.1445 H   0  0  0  0  0  0  0  0  0  0  0  0
   42.9702   25.3606   34.0910 H   0  0  0  0  0  0  0  0  0  0  0  0
   42.1557   25.9435   35.5724 H   0  0  0  0  0  0  0  0  0  0  0  0
   34.9264   20.7539   36.6974 H   0  0  0  0  0  0  0  0  0  0  0  0
   34.7559   19.9362   34.3365 H   0  0  0  0  0  0  0  0  0  0  0  0
   37.0704   20.7559   29.1949 H   0  0  0  0  0  0  0  0  0  0  0  0
   35.8793   18.4582   29.9821 H   0  0  0  0  0  0  0  0  0  0  0  0
   35.7066   18.1493   33.6924 H   0  0  0  0  0  0  0  0  0  0  0  0
  1  3  1  0
  1  9  1  0
  2  1  1  0
  2  3  1  0
  4  3  1  0
  4  5  1  0
  5  6  1  0
  7  6  1  0
  8  4  1  0
  8  7  1  0
 10 15  2  0
 11 10  1  0
 12 13  1  0
 12 11  2  0
 13 14  2  0
 14  9  1  0
 14 15  1  0
 16 12  1  0
 17 16  1  0
 18 19  1  0
 18 17  2  0
 19 20  2  0
 20 16  1  0
 20 21  1  0
 22 21  2  0
  1 23  1  6
  2 24  1  0
  2 25  1  0
  3 26  1  1
  4 27  1  0
  5 28  1  0
  5 29  1  0
  6 30  1  0
  6 31  1  0
  7 32  1  0
  7 33  1  0
  8 34  1  0
  8 35  1  0
 10 36  1  0
 11 37  1  0
 18 38  1  0
 19 39  1  0
 21 40  1  0
M  ISO  8  23  13  24  13  25  13  26  13  27  13  28  13  29  13  30  13
M  ISO  8  31  13  32  13  33  13  34  13  35  13  36  14  37  14  38  14
M  ISO  2  39  14  40   6
M  END
>  <minimizedAffinity>  (1) 
-5.08969831

>  <minimizedRMSD>  (1) 
0.72096616

$$$$
