
     RDKit          3D

 41 44  0  0  1  0  0  0  0  0999 V2000
   41.7020   24.5880   34.6240 C   0  0  1  0  0  0  0  0  0  0  0  0
   42.3020   25.8520   34.0410 C   0  0  0  0  0  0  0  0  0  0  0  0
   42.7190   25.3590   35.3740 C   0  0  2  0  0  0  0  0  0  0  0  0
   44.1060   24.8980   35.5150 C   0  0  0  0  0  0  0  0  0  0  0  0
   44.3110   24.1350   36.8060 C   0  0  0  0  0  0  0  0  0  0  0  0
   45.1730   25.0330   37.6660 C   0  0  0  0  0  0  0  0  0  0  0  0
   45.9340   25.9380   36.7390 C   0  0  0  0  0  0  0  0  0  0  0  0
   45.0140   26.0960   35.5810 C   0  0  0  0  0  0  0  0  0  0  0  0
   40.3350   24.8070   34.9840 O   0  0  0  0  0  0  0  0  0  0  0  0
   37.7570   22.6850   36.1540 C   0  0  0  0  0  0  0  0  0  0  0  0
   37.4880   21.8420   35.0610 C   0  0  0  0  0  0  0  0  0  0  0  0
   38.2320   22.0350   33.8850 C   0  0  0  0  0  0  0  0  0  0  0  0
   39.1450   23.0140   33.9110 N   0  0  0  0  0  0  0  0  0  0  0  0
   39.3780   23.8130   35.0000 C   0  0  0  0  0  0  0  0  0  0  0  0
   38.7000   23.6640   36.1160 N   0  0  0  0  0  0  0  0  0  0  0  0
   38.0220   21.2150   32.7590 N   0  0  0  0  0  0  0  0  0  0  0  0
   38.8690   20.2620   32.3490 N   0  0  0  0  0  0  0  0  0  0  0  0
   38.3120   19.6430   31.2600 C   0  0  0  0  0  0  0  0  0  0  0  0
   37.0740   20.2820   31.0330 C   0  0  0  0  0  0  0  0  0  0  0  0
   36.9120   21.2810   31.9960 C   0  0  0  0  0  0  0  0  0  0  0  0
   35.6980   22.0960   31.8850 C   0  0  0  0  0  0  0  0  0  0  0  0
   35.9080   23.4630   31.9700 F   0  0  0  0  0  0  0  0  0  0  0  0
   34.6500   21.7250   32.6820 F   0  0  0  0  0  0  0  0  0  0  0  0
   35.1430   21.9760   30.5710 F   0  0  0  0  0  0  0  0  0  0  0  0
   41.6122   23.5239   34.3603 H   0  0  0  0  0  0  0  0  0  0  0  0
   42.9947   25.7923   33.1886 H   0  0  0  0  0  0  0  0  0  0  0  0
   41.9027   26.7979   33.6462 H   0  0  0  0  0  0  0  0  0  0  0  0
   42.7378   25.7524   36.4011 H   0  0  0  0  0  0  0  0  0  0  0  0
   44.3267   24.2477   34.6557 H   0  0  0  0  0  0  0  0  0  0  0  0
   43.3459   23.9416   37.2970 H   0  0  0  0  0  0  0  0  0  0  0  0
   44.7817   23.1558   36.6341 H   0  0  0  0  0  0  0  0  0  0  0  0
   44.5407   25.6294   38.3402 H   0  0  0  0  0  0  0  0  0  0  0  0
   45.8617   24.4383   38.2840 H   0  0  0  0  0  0  0  0  0  0  0  0
   46.1378   26.9084   37.2153 H   0  0  0  0  0  0  0  0  0  0  0  0
   46.9170   25.5342   36.4551 H   0  0  0  0  0  0  0  0  0  0  0  0
   45.5984   26.1684   34.6519 H   0  0  0  0  0  0  0  0  0  0  0  0
   44.4161   27.0115   35.7013 H   0  0  0  0  0  0  0  0  0  0  0  0
   37.1795   22.5464   37.0799 H   0  0  0  0  0  0  0  0  0  0  0  0
   36.7200   21.0570   35.1248 H   0  0  0  0  0  0  0  0  0  0  0  0
   38.7434   18.8143   30.6794 H   0  0  0  0  0  0  0  0  0  0  0  0
   36.3590   20.0355   30.2343 H   0  0  0  0  0  0  0  0  0  0  0  0
  1  9  1  0
  1  3  1  0
  2  1  1  0
  2  3  1  0
  3  4  1  0
  4  8  1  0
  4  5  1  0
  5  6  1  0
  7  6  1  0
  8  7  1  0
  9 14  1  0
 11 10  2  0
 12 13  2  0
 12 11  1  0
 13 14  1  0
 14 15  2  0
 15 10  1  0
 16 12  1  0
 17 16  1  0
 18 17  2  0
 19 18  1  0
 19 20  2  0
 20 16  1  0
 21 22  1  0
 21 20  1  0
 21 23  1  0
 24 21  1  0
  1 25  1  6
  2 26  1  0
  2 27  1  0
  3 28  1  1
  4 29  1  0
  5 30  1  0
  5 31  1  0
  6 32  1  0
  6 33  1  0
  7 34  1  0
  7 35  1  0
  8 36  1  0
  8 37  1  0
 10 38  1  0
 11 39  1  0
 18 40  1  0
 19 41  1  0
M  ISO  8  25  13  26  13  27  13  28  13  29  13  30  13  31  13  32  13
M  ISO  8  33  13  34  13  35  13  36  13  37  13  38  14  39  14  40  14
M  ISO  1  41  14
M  END
>  <minimizedAffinity>  (1) 
-4.93212938

>  <minimizedRMSD>  (1) 
2.39378405

$$$$
