
     RDKit          3D

 45 49  0  0  1  0  0  0  0  0999 V2000
   40.1220   23.8470   35.7720 C   0  0  1  0  0  0  0  0  0  0  0  0
   40.6760   22.8400   36.7710 C   0  0  0  0  0  0  0  0  0  0  0  0
   41.1160   22.8440   35.3410 C   0  0  2  0  0  0  0  0  0  0  0  0
   42.5300   23.1870   35.0990 C   0  0  0  0  0  0  0  0  0  0  0  0
   43.3800   22.8170   36.3070 C   0  0  0  0  0  0  0  0  0  0  0  0
   43.8180   24.1410   36.8940 C   0  0  0  0  0  0  0  0  0  0  0  0
   43.7670   25.1500   35.7970 C   0  0  0  0  0  0  0  0  0  0  0  0
   42.6540   24.6770   34.9330 C   0  0  0  0  0  0  0  0  0  0  0  0
   38.7620   23.5790   35.4750 O   0  0  0  0  0  0  0  0  0  0  0  0
   37.1760   25.0270   32.6650 C   0  0  0  0  0  0  0  0  0  0  0  0
   37.0820   23.9790   31.7360 C   0  0  0  0  0  0  0  0  0  0  0  0
   37.6000   22.7290   32.1290 C   0  0  0  0  0  0  0  0  0  0  0  0
   38.1420   22.6340   33.3580 N   0  0  0  0  0  0  0  0  0  0  0  0
   38.2050   23.7030   34.2280 C   0  0  0  0  0  0  0  0  0  0  0  0
   37.7320   24.8860   33.8970 N   0  0  0  0  0  0  0  0  0  0  0  0
   37.5440   21.6300   31.2470 N   0  0  0  0  0  0  0  0  0  0  0  0
   38.4200   21.3460   30.3020 N   0  0  0  0  0  0  0  0  0  0  0  0
   38.0720   20.2010   29.6470 C   0  0  0  0  0  0  0  0  0  0  0  0
   36.9100   19.7870   30.2540 C   0  0  0  0  0  0  0  0  0  0  0  0
   36.6100   20.6970   31.2400 C   0  0  0  0  0  0  0  0  0  0  0  0
   35.3550   20.4850   31.9790 C   0  0  0  0  0  0  0  0  0  0  0  0
   35.4580   20.2090   33.4350 C   0  0  0  0  0  0  0  0  0  0  0  0
   35.0180   19.1290   32.5480 C   0  0  0  0  0  0  0  0  0  0  0  0
   40.0665   24.9400   35.6615 H   0  0  0  0  0  0  0  0  0  0  0  0
   41.3650   23.1675   37.5635 H   0  0  0  0  0  0  0  0  0  0  0  0
   40.2462   22.0974   37.4593 H   0  0  0  0  0  0  0  0  0  0  0  0
   41.1228   22.1370   34.4983 H   0  0  0  0  0  0  0  0  0  0  0  0
   42.8660   22.6429   34.2040 H   0  0  0  0  0  0  0  0  0  0  0  0
   42.7873   22.2468   37.0374 H   0  0  0  0  0  0  0  0  0  0  0  0
   44.2353   22.1819   36.0330 H   0  0  0  0  0  0  0  0  0  0  0  0
   43.1391   24.4351   37.7080 H   0  0  0  0  0  0  0  0  0  0  0  0
   44.8343   24.0666   37.3083 H   0  0  0  0  0  0  0  0  0  0  0  0
   43.5545   26.1527   36.1962 H   0  0  0  0  0  0  0  0  0  0  0  0
   44.7198   25.2374   35.2542 H   0  0  0  0  0  0  0  0  0  0  0  0
   42.8706   24.9177   33.8818 H   0  0  0  0  0  0  0  0  0  0  0  0
   41.7140   25.1707   35.2205 H   0  0  0  0  0  0  0  0  0  0  0  0
   36.7793   26.0130   32.3813 H   0  0  0  0  0  0  0  0  0  0  0  0
   36.6249   24.1268   30.7465 H   0  0  0  0  0  0  0  0  0  0  0  0
   38.6043   19.7156   28.8157 H   0  0  0  0  0  0  0  0  0  0  0  0
   36.3264   18.8906   29.9974 H   0  0  0  0  0  0  0  0  0  0  0  0
   34.8252   21.1983   31.3305 H   0  0  0  0  0  0  0  0  0  0  0  0
   36.4479   20.1548   33.9116 H   0  0  0  0  0  0  0  0  0  0  0  0
   35.0424   20.6797   34.3381 H   0  0  0  0  0  0  0  0  0  0  0  0
   33.9727   18.7873   32.5736 H   0  0  0  0  0  0  0  0  0  0  0  0
   35.3497   18.0986   32.3525 H   0  0  0  0  0  0  0  0  0  0  0  0
  1  2  1  0
  3  1  1  0
  3  2  1  0
  4  3  1  0
  4  5  1  0
  5  6  1  0
  7  6  1  0
  8  4  1  0
  8  7  1  0
  9  1  1  0
 10 15  2  0
 11 12  2  0
 11 10  1  0
 12 13  1  0
 13 14  2  0
 14  9  1  0
 15 14  1  0
 16 12  1  0
 17 16  1  0
 18 19  1  0
 18 17  2  0
 19 20  2  0
 20 16  1  0
 20 21  1  0
 21 23  1  0
 21 22  1  0
 23 22  1  0
  1 24  1  1
  2 25  1  0
  2 26  1  0
  3 27  1  6
  4 28  1  0
  5 29  1  0
  5 30  1  0
  6 31  1  0
  6 32  1  0
  7 33  1  0
  7 34  1  0
  8 35  1  0
  8 36  1  0
 10 37  1  0
 11 38  1  0
 18 39  1  0
 19 40  1  0
 21 41  1  0
 22 42  1  0
 22 43  1  0
 23 44  1  0
 23 45  1  0
M  ISO  8  24  13  25  13  26  13  27  13  28  13  29  13  30  13  31  13
M  ISO  8  32  13  33  13  34  13  35  13  36  13  37  14  38  14  39  14
M  ISO  6  40  14  41  13  42  13  43  13  44  13  45  13
M  END
>  <minimizedAffinity>  (1) 
-4.76814127

>  <minimizedRMSD>  (1) 
2.06105924

$$$$
