
     RDKit          3D

 45 47  0  0  0  0  0  0  0  0999 V2000
   38.3100   23.6520   37.3440 C   0  0  0  0  0  0  0  0  0  0  0  0
   41.6200   21.8850   37.1120 C   0  0  0  0  0  0  0  0  0  0  0  0
   40.3480   22.1800   37.5640 C   0  0  0  0  0  0  0  0  0  0  0  0
   39.6590   23.2400   36.9600 C   0  0  0  0  0  0  0  0  0  0  0  0
   40.2720   23.9340   35.9520 N   0  0  0  0  0  0  0  0  0  0  0  0
   41.5140   23.6120   35.5430 C   0  0  0  0  0  0  0  0  0  0  0  0
   42.1870   22.5880   36.1230 N   0  0  0  0  0  0  0  0  0  0  0  0
   38.3960   24.1830   38.7850 C   0  0  0  0  0  0  0  0  0  0  0  0
   37.6700   24.6600   36.4360 C   0  0  0  0  0  0  0  0  0  0  0  0
   37.4090   22.4340   37.3580 C   0  0  0  0  0  0  0  0  0  0  0  0
   37.0530   21.9390   36.0470 C   0  0  0  0  0  0  0  0  0  0  0  0
   35.9960   21.1380   35.8160 C   0  0  0  0  0  0  0  0  0  0  0  0
   35.5940   20.6520   34.6350 C   0  0  0  0  0  0  0  0  0  0  0  0
   36.5050   21.1300   33.5650 C   0  0  0  0  0  0  0  0  0  0  0  0
   37.7910   22.2020   34.4420 S   0  0  0  0  0  0  0  0  0  0  0  0
   36.5540   20.9220   32.1120 C   0  0  0  0  0  0  0  0  0  0  0  0
   35.6080   21.8230   31.4050 C   0  0  0  0  0  0  0  0  0  0  0  0
   36.1180   23.1720   31.0170 C   0  0  0  0  0  0  0  0  0  0  0  0
   37.6060   23.2390   30.7780 C   0  0  0  0  0  0  0  0  0  0  0  0
   38.0130   21.8370   30.3220 C   0  0  0  0  0  0  0  0  0  0  0  0
   37.9790   21.0230   31.6180 C   0  0  0  0  0  0  0  0  0  0  0  0
   42.1777   21.0567   37.5734 H   0  0  0  0  0  0  0  0  0  0  0  0
   39.8885   21.5981   38.3765 H   0  0  0  0  0  0  0  0  0  0  0  0
   41.9865   24.1847   34.7314 H   0  0  0  0  0  0  0  0  0  0  0  0
   38.2612   23.3505   39.4912 H   0  0  0  0  0  0  0  0  0  0  0  0
   39.3808   24.6455   38.9472 H   0  0  0  0  0  0  0  0  0  0  0  0
   37.6076   24.9327   38.9472 H   0  0  0  0  0  0  0  0  0  0  0  0
   37.1771   25.4364   37.0396 H   0  0  0  0  0  0  0  0  0  0  0  0
   38.4400   25.1228   35.8013 H   0  0  0  0  0  0  0  0  0  0  0  0
   36.9236   24.1600   35.8013 H   0  0  0  0  0  0  0  0  0  0  0  0
   37.9268   21.6293   37.9006 H   0  0  0  0  0  0  0  0  0  0  0  0
   36.4709   22.7432   37.8421 H   0  0  0  0  0  0  0  0  0  0  0  0
   35.3973   20.8515   36.6932 H   0  0  0  0  0  0  0  0  0  0  0  0
   34.7224   19.9988   34.4812 H   0  0  0  0  0  0  0  0  0  0  0  0
   36.2131   19.9025   31.8786 H   0  0  0  0  0  0  0  0  0  0  0  0
   35.2879   21.3120   30.4850 H   0  0  0  0  0  0  0  0  0  0  0  0
   34.8044   22.0192   32.1301 H   0  0  0  0  0  0  0  0  0  0  0  0
   35.6083   23.4777   30.0914 H   0  0  0  0  0  0  0  0  0  0  0  0
   35.9096   23.8389   31.8666 H   0  0  0  0  0  0  0  0  0  0  0  0
   37.8365   23.9787   29.9972 H   0  0  0  0  0  0  0  0  0  0  0  0
   38.1501   23.5465   31.6832 H   0  0  0  0  0  0  0  0  0  0  0  0
   37.2981   21.4384   29.5871 H   0  0  0  0  0  0  0  0  0  0  0  0
   38.9934   21.8135   29.8238 H   0  0  0  0  0  0  0  0  0  0  0  0
   38.3736   20.0140   31.4278 H   0  0  0  0  0  0  0  0  0  0  0  0
   38.5969   21.5206   32.3800 H   0  0  0  0  0  0  0  0  0  0  0  0
  1 10  1  0
  1  8  1  0
  2  3  2  0
  4  1  1  0
  4  3  1  0
  5  4  2  0
  6  5  1  0
  6  7  2  0
  7  2  1  0
  9  1  1  0
 11 10  1  0
 12 11  2  0
 13 12  1  0
 14 15  1  0
 14 13  2  0
 15 11  1  0
 16 14  1  0
 17 16  1  0
 18 17  1  0
 19 18  1  0
 20 19  1  0
 20 21  1  0
 21 16  1  0
  2 22  1  0
  3 23  1  0
  6 24  1  0
  8 25  1  0
  8 26  1  0
  8 27  1  0
  9 28  1  0
  9 29  1  0
  9 30  1  0
 10 31  1  0
 10 32  1  0
 12 33  1  0
 13 34  1  0
 16 35  1  0
 17 36  1  0
 17 37  1  0
 18 38  1  0
 18 39  1  0
 19 40  1  0
 19 41  1  0
 20 42  1  0
 20 43  1  0
 21 44  1  0
 21 45  1  0
M  ISO  8  22  14  23  14  24  14  25   8  26   8  27   8  28   8  29   8
M  ISO  8  30   8  31   8  32   8  33  14  34  14  35  13  36  13  37  13
M  ISO  8  38  13  39  13  40  13  41  13  42  13  43  13  44  13  45  13
M  END
>  <minimizedAffinity>  (1) 
-4.93479061

>  <minimizedRMSD>  (1) 
1.34478378

$$$$
