
     RDKit          3D

 52 57  0  0  1  0  0  0  0  0999 V2000
   38.6990   22.9850   36.4600 C   0  0  0  0  0  0  0  0  0  0  0  0
   38.5290   22.0750   35.4040 C   0  0  0  0  0  0  0  0  0  0  0  0
   39.1800   22.3900   34.1540 C   0  0  0  0  0  0  0  0  0  0  0  0
   39.8980   23.5250   34.1150 N   0  0  0  0  0  0  0  0  0  0  0  0
   40.0260   24.3720   35.2000 C   0  0  0  0  0  0  0  0  0  0  0  0
   39.4440   24.1230   36.3530 N   0  0  0  0  0  0  0  0  0  0  0  0
   39.0840   21.5200   33.0450 N   0  0  0  0  0  0  0  0  0  0  0  0
   39.9070   20.5150   32.8030 N   0  0  0  0  0  0  0  0  0  0  0  0
   39.4190   19.7190   31.8180 C   0  0  0  0  0  0  0  0  0  0  0  0
   38.2210   20.3120   31.4600 C   0  0  0  0  0  0  0  0  0  0  0  0
   38.0480   21.4580   32.2520 C   0  0  0  0  0  0  0  0  0  0  0  0
   36.8480   22.1450   31.9340 C   0  0  0  0  0  0  0  0  0  0  0  0
   35.7070   21.7760   31.2760 C   0  0  0  0  0  0  0  0  0  0  0  0
   34.8900   22.7070   30.8550 N   0  0  0  0  0  0  0  0  0  0  0  0
   35.4230   23.8700   31.2000 C   0  0  0  0  0  0  0  0  0  0  0  0
   34.9390   25.1180   30.9020 C   0  0  0  0  0  0  0  0  0  0  0  0
   35.6910   26.2010   31.2650 C   0  0  0  0  0  0  0  0  0  0  0  0
   36.8930   26.0100   31.9080 C   0  0  0  0  0  0  0  0  0  0  0  0
   37.2620   24.7230   32.1500 C   0  0  0  0  0  0  0  0  0  0  0  0
   36.5930   23.5330   31.8410 C   0  0  0  0  0  0  0  0  0  0  0  0
   40.7880   25.5180   35.1180 O   0  0  0  0  0  0  0  0  0  0  0  0
   41.7570   25.7550   34.0940 C   0  0  1  0  0  0  0  0  0  0  0  0
   41.7580   27.2160   33.7030 C   0  0  0  0  0  0  0  0  0  0  0  0
   42.8950   26.6300   34.4480 C   0  0  2  0  0  0  0  0  0  0  0  0
   44.1850   26.5650   33.7370 C   0  0  0  0  0  0  0  0  0  0  0  0
   45.3360   26.9120   34.6580 C   0  0  0  0  0  0  0  0  0  0  0  0
   45.8500   28.2450   34.1620 C   0  0  0  0  0  0  0  0  0  0  0  0
   45.4760   28.3530   32.7260 C   0  0  0  0  0  0  0  0  0  0  0  0
   44.1950   27.6030   32.6410 C   0  0  0  0  0  0  0  0  0  0  0  0
   38.2075   22.7698   37.4203 H   0  0  0  0  0  0  0  0  0  0  0  0
   37.9265   21.1625   35.5237 H   0  0  0  0  0  0  0  0  0  0  0  0
   39.8729   18.8088   31.3992 H   0  0  0  0  0  0  0  0  0  0  0  0
   37.5255   19.9487   30.6891 H   0  0  0  0  0  0  0  0  0  0  0  0
   35.4800   20.7136   31.1036 H   0  0  0  0  0  0  0  0  0  0  0  0
   34.0027   22.5635   30.3519 H   0  0  0  0  0  0  0  0  0  0  0  0
   33.9754   25.2441   30.3867 H   0  0  0  0  0  0  0  0  0  0  0  0
   35.3373   27.2190   31.0444 H   0  0  0  0  0  0  0  0  0  0  0  0
   37.5251   26.8575   32.2117 H   0  0  0  0  0  0  0  0  0  0  0  0
   38.2270   24.5997   32.6635 H   0  0  0  0  0  0  0  0  0  0  0  0
   41.6917   24.7732   33.6023 H   0  0  0  0  0  0  0  0  0  0  0  0
   41.8791   27.5054   32.6487 H   0  0  0  0  0  0  0  0  0  0  0  0
   41.0782   28.0673   33.8554 H   0  0  0  0  0  0  0  0  0  0  0  0
   43.4109   26.8168   35.4014 H   0  0  0  0  0  0  0  0  0  0  0  0
   44.3003   25.5421   33.3491 H   0  0  0  0  0  0  0  0  0  0  0  0
   44.9868   26.9955   35.6978 H   0  0  0  0  0  0  0  0  0  0  0  0
   46.1187   26.1392   34.6483 H   0  0  0  0  0  0  0  0  0  0  0  0
   45.3889   29.0635   34.7343 H   0  0  0  0  0  0  0  0  0  0  0  0
   46.9405   28.3149   34.2882 H   0  0  0  0  0  0  0  0  0  0  0  0
   45.3356   29.4044   32.4347 H   0  0  0  0  0  0  0  0  0  0  0  0
   46.2493   27.9560   32.0519 H   0  0  0  0  0  0  0  0  0  0  0  0
   43.3492   28.2936   32.7740 H   0  0  0  0  0  0  0  0  0  0  0  0
   44.1014   27.1193   31.6575 H   0  0  0  0  0  0  0  0  0  0  0  0
  2  1  2  0
  3  2  1  0
  4  3  2  0
  4  5  1  0
  5  6  2  0
  6  1  1  0
  7  3  1  0
  8  7  1  0
  9  8  2  0
 10  9  1  0
 10 11  2  0
 11  7  1  0
 12 11  1  0
 13 12  2  0
 14 15  1  0
 14 13  1  0
 15 20  2  0
 16 15  1  0
 16 17  2  0
 17 18  1  0
 18 19  2  0
 20 12  1  0
 20 19  1  0
 21  5  1  0
 22 24  1  0
 22 21  1  0
 23 22  1  0
 23 24  1  0
 25 24  1  0
 25 26  1  0
 27 26  1  0
 28 27  1  0
 29 28  1  0
 29 25  1  0
  1 30  1  0
  2 31  1  0
  9 32  1  0
 10 33  1  0
 13 34  1  0
 14 35  1  0
 16 36  1  0
 17 37  1  0
 18 38  1  0
 19 39  1  0
 22 40  1  6
 23 41  1  0
 23 42  1  0
 24 43  1  1
 25 44  1  0
 26 45  1  0
 26 46  1  0
 27 47  1  0
 27 48  1  0
 28 49  1  0
 28 50  1  0
 29 51  1  0
 29 52  1  0
M  ISO  8  30  14  31  14  32  14  33  14  34  14  35   9  36  14  37  14
M  ISO  8  38  14  39  14  40  13  41  13  42  13  43  13  44  13  45  13
M  ISO  7  46  13  47  13  48  13  49  13  50  13  51  13  52  13
M  END
>  <minimizedAffinity>  (1) 
-4.75453091

>  <minimizedRMSD>  (1) 
4.04399204

$$$$
