
     RDKit          3D

 44 48  0  0  1  0  0  0  0  0999 V2000
   39.7780   23.0550   35.1340 C   0  0  1  0  0  0  0  0  0  0  0  0
   39.9850   24.5240   35.4830 C   0  0  0  0  0  0  0  0  0  0  0  0
   40.9260   23.4760   35.9650 C   0  0  2  0  0  0  0  0  0  0  0  0
   42.2990   23.5300   35.4510 C   0  0  0  0  0  0  0  0  0  0  0  0
   43.2950   23.0780   36.5010 C   0  0  0  0  0  0  0  0  0  0  0  0
   44.0600   24.3260   36.8800 C   0  0  0  0  0  0  0  0  0  0  0  0
   43.9640   25.2840   35.7370 C   0  0  0  0  0  0  0  0  0  0  0  0
   42.6310   24.9710   35.1420 C   0  0  0  0  0  0  0  0  0  0  0  0
   38.6470   22.5250   35.8000 O   0  0  0  0  0  0  0  0  0  0  0  0
   35.5900   20.8270   35.3240 C   0  0  0  0  0  0  0  0  0  0  0  0
   35.6030   20.4580   33.9720 C   0  0  0  0  0  0  0  0  0  0  0  0
   36.7290   20.8250   33.2170 C   0  0  0  0  0  0  0  0  0  0  0  0
   37.7030   21.4990   33.8460 N   0  0  0  0  0  0  0  0  0  0  0  0
   37.6420   21.8380   35.1810 C   0  0  0  0  0  0  0  0  0  0  0  0
   36.6080   21.5130   35.9190 N   0  0  0  0  0  0  0  0  0  0  0  0
   36.8290   20.4500   31.8600 N   0  0  0  0  0  0  0  0  0  0  0  0
   37.1870   21.2340   30.8620 N   0  0  0  0  0  0  0  0  0  0  0  0
   37.2300   20.5690   29.7000 C   0  0  0  0  0  0  0  0  0  0  0  0
   36.8610   19.2640   30.0380 C   0  0  0  0  0  0  0  0  0  0  0  0
   36.6190   19.2330   31.3860 C   0  0  0  0  0  0  0  0  0  0  0  0
   36.2160   17.9950   31.8990 N   0  0  0  0  0  0  0  0  0  0  0  0
   37.2290   17.0720   31.9140 C   0  0  0  0  0  0  0  0  0  0  0  0
   36.7820   15.9050   32.4440 N   0  0  0  0  0  0  0  0  0  0  0  0
   35.4800   16.1160   32.7550 C   0  0  0  0  0  0  0  0  0  0  0  0
   35.1430   17.3710   32.4290 N   0  0  0  0  0  0  0  0  0  0  0  0
   39.6970   22.4302   34.2323 H   0  0  0  0  0  0  0  0  0  0  0  0
   40.3013   25.2377   34.7080 H   0  0  0  0  0  0  0  0  0  0  0  0
   39.3791   25.3118   35.9544 H   0  0  0  0  0  0  0  0  0  0  0  0
   41.2975   23.1177   36.9364 H   0  0  0  0  0  0  0  0  0  0  0  0
   42.3614   22.8777   34.5675 H   0  0  0  0  0  0  0  0  0  0  0  0
   42.7727   22.6643   37.3762 H   0  0  0  0  0  0  0  0  0  0  0  0
   43.9588   22.2852   36.1257 H   0  0  0  0  0  0  0  0  0  0  0  0
   43.6203   24.7750   37.7828 H   0  0  0  0  0  0  0  0  0  0  0  0
   45.1119   24.0832   37.0912 H   0  0  0  0  0  0  0  0  0  0  0  0
   44.0039   26.3250   36.0902 H   0  0  0  0  0  0  0  0  0  0  0  0
   44.7915   25.1841   35.0192 H   0  0  0  0  0  0  0  0  0  0  0  0
   42.6662   25.1190   34.0526 H   0  0  0  0  0  0  0  0  0  0  0  0
   41.8626   25.6354   35.5641 H   0  0  0  0  0  0  0  0  0  0  0  0
   34.7176   20.5504   35.9343 H   0  0  0  0  0  0  0  0  0  0  0  0
   34.7664   19.9042   33.5211 H   0  0  0  0  0  0  0  0  0  0  0  0
   37.4951   20.9605   28.7068 H   0  0  0  0  0  0  0  0  0  0  0  0
   36.7794   18.4135   29.3452 H   0  0  0  0  0  0  0  0  0  0  0  0
   38.2518   17.2503   31.5507 H   0  0  0  0  0  0  0  0  0  0  0  0
   34.8052   15.3729   33.2049 H   0  0  0  0  0  0  0  0  0  0  0  0
  1  2  1  0
  1  9  1  0
  1  3  1  0
  2  3  1  0
  4  3  1  0
  4  5  1  0
  5  6  1  0
  7  6  1  0
  8  4  1  0
  8  7  1  0
 10 15  2  0
 11 10  1  0
 12 13  1  0
 12 11  2  0
 13 14  2  0
 14  9  1  0
 14 15  1  0
 16 12  1  0
 17 16  1  0
 18 19  1  0
 18 17  2  0
 19 20  2  0
 20 16  1  0
 20 21  1  0
 21 22  1  0
 21 25  1  0
 22 23  2  0
 23 24  1  0
 25 24  2  0
  1 26  1  6
  2 27  1  0
  2 28  1  0
  3 29  1  1
  4 30  1  0
  5 31  1  0
  5 32  1  0
  6 33  1  0
  6 34  1  0
  7 35  1  0
  7 36  1  0
  8 37  1  0
  8 38  1  0
 10 39  1  0
 11 40  1  0
 18 41  1  0
 19 42  1  0
 22 43  1  0
 24 44  1  0
M  ISO  8  26  13  27  13  28  13  29  13  30  13  31  13  32  13  33  13
M  ISO  8  34  13  35  13  36  13  37  13  38  13  39  14  40  14  41  14
M  ISO  3  42  14  43  14  44  14
M  END
>  <minimizedAffinity>  (1) 
-4.70500946

>  <minimizedRMSD>  (1) 
1.63437033

$$$$
