
     RDKit          3D

 41 44  0  0  1  0  0  0  0  0999 V2000
   39.8530   23.4000   35.1490 C   0  0  1  0  0  0  0  0  0  0  0  0
   40.1030   24.8880   35.2390 C   0  0  0  0  0  0  0  0  0  0  0  0
   40.9910   23.9300   35.9360 C   0  0  2  0  0  0  0  0  0  0  0  0
   42.3830   23.8360   35.4540 C   0  0  0  0  0  0  0  0  0  0  0  0
   43.2970   23.2620   36.5220 C   0  0  0  0  0  0  0  0  0  0  0  0
   44.1800   24.4090   36.9510 C   0  0  0  0  0  0  0  0  0  0  0  0
   44.2350   25.3660   35.8100 C   0  0  0  0  0  0  0  0  0  0  0  0
   42.8890   25.2340   35.1800 C   0  0  0  0  0  0  0  0  0  0  0  0
   38.6880   23.0380   35.8980 O   0  0  0  0  0  0  0  0  0  0  0  0
   35.7860   21.0180   35.8100 C   0  0  0  0  0  0  0  0  0  0  0  0
   35.7440   20.5360   34.4960 C   0  0  0  0  0  0  0  0  0  0  0  0
   36.7640   20.9390   33.6190 C   0  0  0  0  0  0  0  0  0  0  0  0
   37.6930   21.7510   34.1220 N   0  0  0  0  0  0  0  0  0  0  0  0
   37.7020   22.1990   35.4120 C   0  0  0  0  0  0  0  0  0  0  0  0
   36.7640   21.8460   36.2600 N   0  0  0  0  0  0  0  0  0  0  0  0
   36.7680   20.4860   32.2850 N   0  0  0  0  0  0  0  0  0  0  0  0
   37.8550   20.3780   31.5190 N   0  0  0  0  0  0  0  0  0  0  0  0
   37.5010   19.8970   30.2920 C   0  0  0  0  0  0  0  0  0  0  0  0
   36.1190   19.7110   30.3430 C   0  0  0  0  0  0  0  0  0  0  0  0
   35.6790   20.0910   31.6110 C   0  0  0  0  0  0  0  0  0  0  0  0
   34.2350   20.0170   31.9020 C   0  0  0  0  0  0  0  0  0  0  0  0
   39.7688   22.6332   34.3648 H   0  0  0  0  0  0  0  0  0  0  0  0
   40.4683   25.4403   34.3606 H   0  0  0  0  0  0  0  0  0  0  0  0
   39.5088   25.7636   35.5393 H   0  0  0  0  0  0  0  0  0  0  0  0
   41.3217   23.7543   36.9703 H   0  0  0  0  0  0  0  0  0  0  0  0
   42.3897   23.1937   34.5610 H   0  0  0  0  0  0  0  0  0  0  0  0
   42.7082   22.8900   37.3734 H   0  0  0  0  0  0  0  0  0  0  0  0
   43.8843   22.4118   36.1448 H   0  0  0  0  0  0  0  0  0  0  0  0
   43.7548   24.9021   37.8376 H   0  0  0  0  0  0  0  0  0  0  0  0
   45.1870   24.0526   37.2137 H   0  0  0  0  0  0  0  0  0  0  0  0
   44.4036   26.3931   36.1660 H   0  0  0  0  0  0  0  0  0  0  0  0
   45.0578   25.1534   35.1116 H   0  0  0  0  0  0  0  0  0  0  0  0
   42.9665   25.3975   34.0950 H   0  0  0  0  0  0  0  0  0  0  0  0
   42.1964   25.9806   35.5957 H   0  0  0  0  0  0  0  0  0  0  0  0
   34.9925   20.7128   36.5080 H   0  0  0  0  0  0  0  0  0  0  0  0
   34.9393   19.8645   34.1621 H   0  0  0  0  0  0  0  0  0  0  0  0
   38.1669   19.6973   29.4396 H   0  0  0  0  0  0  0  0  0  0  0  0
   35.4873   19.3313   29.5265 H   0  0  0  0  0  0  0  0  0  0  0  0
   34.0804   20.0091   32.9910 H   0  0  0  0  0  0  0  0  0  0  0  0
   33.7279   20.8903   31.4660 H   0  0  0  0  0  0  0  0  0  0  0  0
   33.8198   19.0964   31.4660 H   0  0  0  0  0  0  0  0  0  0  0  0
  1  2  1  0
  1  9  1  0
  1  3  1  0
  2  3  1  0
  4  3  1  0
  4  5  1  0
  5  6  1  0
  7  6  1  0
  8  4  1  0
  8  7  1  0
 10 15  2  0
 11 10  1  0
 12 13  1  0
 12 11  2  0
 13 14  2  0
 14  9  1  0
 14 15  1  0
 16 12  1  0
 17 16  1  0
 18 19  1  0
 18 17  2  0
 19 20  2  0
 20 21  1  0
 20 16  1  0
  1 22  1  6
  2 23  1  0
  2 24  1  0
  3 25  1  1
  4 26  1  0
  5 27  1  0
  5 28  1  0
  6 29  1  0
  6 30  1  0
  7 31  1  0
  7 32  1  0
  8 33  1  0
  8 34  1  0
 10 35  1  0
 11 36  1  0
 18 37  1  0
 19 38  1  0
 21 39  1  0
 21 40  1  0
 21 41  1  0
M  ISO  8  22  13  23  13  24  13  25  13  26  13  27  13  28  13  29  13
M  ISO  8  30  13  31  13  32  13  33  13  34  13  35  14  36  14  37  14
M  ISO  4  38  14  39   8  40   8  41   8
M  END
>  <minimizedAffinity>  (1) 
-4.69461441

>  <minimizedRMSD>  (1) 
0.354916483

$$$$
