
     RDKit          3D

 35 38  0  0  1  0  0  0  0  0999 V2000
   38.4020   23.7130   36.1110 N   0  0  0  0  0  0  0  0  0  0  0  0
   37.4300   24.1960   37.0960 C   0  0  0  0  0  0  0  0  0  0  0  0
   37.9750   23.5830   38.3910 C   0  0  0  0  0  0  0  0  0  0  0  0
   39.3460   23.0220   38.0350 C   0  0  0  0  0  0  0  0  0  0  0  0
   39.6340   23.9020   36.8230 C   0  0  1  0  0  0  0  0  0  0  0  0
   38.1410   23.2020   34.8090 C   0  0  0  0  0  0  0  0  0  0  0  0
   38.0350   21.8260   34.5390 C   0  0  0  0  0  0  0  0  0  0  0  0
   37.7750   21.4340   33.2180 C   0  0  0  0  0  0  0  0  0  0  0  0
   37.6410   22.4140   32.2700 N   0  0  0  0  0  0  0  0  0  0  0  0
   37.7510   23.7180   32.5760 C   0  0  0  0  0  0  0  0  0  0  0  0
   37.9990   24.1330   33.8280 N   0  0  0  0  0  0  0  0  0  0  0  0
   40.8170   23.5240   36.1310 N   0  0  0  0  0  0  0  0  0  0  0  0
   41.3120   24.2670   35.1230 C   0  0  0  0  0  0  0  0  0  0  0  0
   42.4420   23.6550   34.6640 N   0  0  0  0  0  0  0  0  0  0  0  0
   42.6330   22.5580   35.3790 C   0  0  0  0  0  0  0  0  0  0  0  0
   43.5990   21.5710   35.3570 C   0  0  0  0  0  0  0  0  0  0  0  0
   43.5200   20.5530   36.2360 N   0  0  0  0  0  0  0  0  0  0  0  0
   42.5320   20.4680   37.1330 C   0  0  0  0  0  0  0  0  0  0  0  0
   41.5700   21.4320   37.1690 N   0  0  0  0  0  0  0  0  0  0  0  0
   41.6220   22.4590   36.3070 C   0  0  0  0  0  0  0  0  0  0  0  0
   44.6830   21.5900   34.4320 N   0  0  0  0  0  0  0  0  0  0  0  0
   37.4200   25.2949   37.1449 H   0  0  0  0  0  0  0  0  0  0  0  0
   36.3895   23.9182   36.8721 H   0  0  0  0  0  0  0  0  0  0  0  0
   38.0662   24.3529   39.1713 H   0  0  0  0  0  0  0  0  0  0  0  0
   37.3064   22.8032   38.7844 H   0  0  0  0  0  0  0  0  0  0  0  0
   40.0789   23.1723   38.8414 H   0  0  0  0  0  0  0  0  0  0  0  0
   39.3910   21.9366   37.8623 H   0  0  0  0  0  0  0  0  0  0  0  0
   39.8669   24.9576   37.0268 H   0  0  0  0  0  0  0  0  0  0  0  0
   38.1524   21.0804   35.3392 H   0  0  0  0  0  0  0  0  0  0  0  0
   37.6814   20.3711   32.9508 H   0  0  0  0  0  0  0  0  0  0  0  0
   37.6345   24.4661   31.7780 H   0  0  0  0  0  0  0  0  0  0  0  0
   40.8812   25.2028   34.7373 H   0  0  0  0  0  0  0  0  0  0  0  0
   42.4962   19.6244   37.8380 H   0  0  0  0  0  0  0  0  0  0  0  0
   45.3848   20.8362   34.4454 H   0  0  0  0  0  0  0  0  0  0  0  0
   44.7647   22.3576   33.7500 H   0  0  0  0  0  0  0  0  0  0  0  0
  1  5  1  0
  1  2  1  0
  2  3  1  0
  4  3  1  0
  5  4  1  0
  6  1  1  0
  7  6  2  0
  8  7  1  0
  9 10  1  0
  9  8  2  0
 10 11  2  0
 11  6  1  0
 12 20  1  0
 12  5  1  0
 13 12  1  0
 14 13  2  0
 14 15  1  0
 15 20  2  0
 16 15  1  0
 16 17  2  0
 17 18  1  0
 18 19  2  0
 20 19  1  0
 21 16  1  0
  2 22  1  0
  2 23  1  0
  3 24  1  0
  3 25  1  0
  4 26  1  0
  4 27  1  0
  5 28  1  1
  7 29  1  0
  8 30  1  0
 10 31  1  0
 13 32  1  0
 18 33  1  0
 21 34  1  0
 21 35  1  0
M  ISO  8  22  13  23  13  24  13  25  13  26  13  27  13  28  13  29  14
M  ISO  4  30  14  31  14  32  14  33  14
M  END
>  <minimizedAffinity>  (1) 
-4.29750109

>  <minimizedRMSD>  (1) 
1.2525326

$$$$
