
     RDKit          3D

 32 34  0  0  1  0  0  0  0  0999 V2000
   38.9380   23.8140   36.1400 N   0  0  0  0  0  0  0  0  0  0  0  0
   37.9600   24.6820   36.7480 C   0  0  0  0  0  0  0  0  0  0  0  0
   37.8370   24.1180   38.1650 C   0  0  0  0  0  0  0  0  0  0  0  0
   39.0040   23.1400   38.3010 C   0  0  0  0  0  0  0  0  0  0  0  0
   39.9060   23.7240   37.2070 C   0  0  1  0  0  0  0  0  0  0  0  0
   38.9390   23.2190   34.8480 C   0  0  0  0  0  0  0  0  0  0  0  0
   38.3780   21.9730   34.5870 C   0  0  0  0  0  0  0  0  0  0  0  0
   38.4380   21.4790   33.2920 C   0  0  0  0  0  0  0  0  0  0  0  0
   39.0470   22.2470   32.3320 N   0  0  0  0  0  0  0  0  0  0  0  0
   39.5770   23.4450   32.6190 C   0  0  0  0  0  0  0  0  0  0  0  0
   39.5290   23.9340   33.8580 N   0  0  0  0  0  0  0  0  0  0  0  0
   41.0600   22.8740   36.9330 C   0  0  0  0  0  0  0  0  0  0  0  0
   42.1720   23.3870   36.2550 C   0  0  0  0  0  0  0  0  0  0  0  0
   43.2900   22.6540   35.9620 C   0  0  0  0  0  0  0  0  0  0  0  0
   43.3480   21.3160   36.3520 C   0  0  0  0  0  0  0  0  0  0  0  0
   42.2650   20.7700   37.0270 C   0  0  0  0  0  0  0  0  0  0  0  0
   41.1600   21.5710   37.2930 C   0  0  0  0  0  0  0  0  0  0  0  0
   38.3122   25.7239   36.7659 H   0  0  0  0  0  0  0  0  0  0  0  0
   37.0035   24.7063   36.2054 H   0  0  0  0  0  0  0  0  0  0  0  0
   37.9176   24.9229   38.9104 H   0  0  0  0  0  0  0  0  0  0  0  0
   36.8657   23.6302   38.3339 H   0  0  0  0  0  0  0  0  0  0  0  0
   39.4723   23.1869   39.2952 H   0  0  0  0  0  0  0  0  0  0  0  0
   38.7528   22.0739   38.1993 H   0  0  0  0  0  0  0  0  0  0  0  0
   40.4022   24.6793   37.4334 H   0  0  0  0  0  0  0  0  0  0  0  0
   37.8979   21.3929   35.3889 H   0  0  0  0  0  0  0  0  0  0  0  0
   38.0087   20.4977   33.0416 H   0  0  0  0  0  0  0  0  0  0  0  0
   40.0574   24.0314   31.8219 H   0  0  0  0  0  0  0  0  0  0  0  0
   42.1457   24.4404   35.9394 H   0  0  0  0  0  0  0  0  0  0  0  0
   44.1327   23.1144   35.4254 H   0  0  0  0  0  0  0  0  0  0  0  0
   44.2352   20.7052   36.1289 H   0  0  0  0  0  0  0  0  0  0  0  0
   42.2807   19.7178   37.3472 H   0  0  0  0  0  0  0  0  0  0  0  0
   40.3131   21.1185   37.8297 H   0  0  0  0  0  0  0  0  0  0  0  0
  1  2  1  0
  1  5  1  0
  2  3  1  0
  3  4  1  0
  5  4  1  0
  6  1  1  0
  7  6  2  0
  8  7  1  0
  9 10  1  0
  9  8  2  0
 10 11  2  0
 11  6  1  0
 12  5  1  0
 12 17  1  0
 13 12  2  0
 14 13  1  0
 14 15  2  0
 15 16  1  0
 16 17  2  0
  2 18  1  0
  2 19  1  0
  3 20  1  0
  3 21  1  0
  4 22  1  0
  4 23  1  0
  5 24  1  1
  7 25  1  0
  8 26  1  0
 10 27  1  0
 13 28  1  0
 14 29  1  0
 15 30  1  0
 16 31  1  0
 17 32  1  0
M  ISO  8  18  13  19  13  20  13  21  13  22  13  23  13  24  13  25  14
M  ISO  7  26  14  27  14  28  14  29  14  30  14  31  14  32  14
M  END
>  <minimizedAffinity>  (1) 
-4.19248724

>  <minimizedRMSD>  (1) 
2.10531902

$$$$
