
     RDKit          3D

 42 44  0  0  0  0  0  0  0  0999 V2000
   38.1780   23.6450   37.0540 C   0  0  0  0  0  0  0  0  0  0  0  0
   41.5850   22.0300   37.1740 C   0  0  0  0  0  0  0  0  0  0  0  0
   40.2600   22.2670   37.5090 C   0  0  0  0  0  0  0  0  0  0  0  0
   39.5850   23.2870   36.8030 C   0  0  0  0  0  0  0  0  0  0  0  0
   40.2620   23.9820   35.8360 N   0  0  0  0  0  0  0  0  0  0  0  0
   41.5430   23.7170   35.5490 C   0  0  0  0  0  0  0  0  0  0  0  0
   42.2090   22.7440   36.2120 N   0  0  0  0  0  0  0  0  0  0  0  0
   38.1210   24.2330   38.4710 C   0  0  0  0  0  0  0  0  0  0  0  0
   37.5830   24.5700   36.0480 C   0  0  0  0  0  0  0  0  0  0  0  0
   37.3450   22.3830   37.0470 C   0  0  0  0  0  0  0  0  0  0  0  0
   37.0320   21.8750   35.7310 C   0  0  0  0  0  0  0  0  0  0  0  0
   35.9650   21.1000   35.4680 C   0  0  0  0  0  0  0  0  0  0  0  0
   35.6000   20.6020   34.2820 C   0  0  0  0  0  0  0  0  0  0  0  0
   36.5720   21.0350   33.2410 C   0  0  0  0  0  0  0  0  0  0  0  0
   37.8390   22.0840   34.1670 S   0  0  0  0  0  0  0  0  0  0  0  0
   36.6680   20.7930   31.7960 C   0  0  0  0  0  0  0  0  0  0  0  0
   35.9220   19.5520   31.3370 C   0  0  0  0  0  0  0  0  0  0  0  0
   36.4720   19.4030   29.9280 C   0  0  0  0  0  0  0  0  0  0  0  0
   37.8560   20.0010   29.9290 C   0  0  0  0  0  0  0  0  0  0  0  0
   38.0780   20.4870   31.3380 C   0  0  0  0  0  0  0  0  0  0  0  0
   42.1405   21.2423   37.7040 H   0  0  0  0  0  0  0  0  0  0  0  0
   39.7552   21.6838   38.2932 H   0  0  0  0  0  0  0  0  0  0  0  0
   42.0578   24.2953   34.7677 H   0  0  0  0  0  0  0  0  0  0  0  0
   38.1997   23.4207   39.2085 H   0  0  0  0  0  0  0  0  0  0  0  0
   38.9552   24.9365   38.6099 H   0  0  0  0  0  0  0  0  0  0  0  0
   37.1673   24.7632   38.6099 H   0  0  0  0  0  0  0  0  0  0  0  0
   37.0580   25.3862   36.5658 H   0  0  0  0  0  0  0  0  0  0  0  0
   38.3813   24.9891   35.4179 H   0  0  0  0  0  0  0  0  0  0  0  0
   36.8706   24.0173   35.4179 H   0  0  0  0  0  0  0  0  0  0  0  0
   37.8979   21.6042   37.5926 H   0  0  0  0  0  0  0  0  0  0  0  0
   36.3848   22.6412   37.5175 H   0  0  0  0  0  0  0  0  0  0  0  0
   35.3211   20.8478   36.3234 H   0  0  0  0  0  0  0  0  0  0  0  0
   34.7177   19.9699   34.1032 H   0  0  0  0  0  0  0  0  0  0  0  0
   36.2585   21.7261   31.3816 H   0  0  0  0  0  0  0  0  0  0  0  0
   36.1632   18.6791   31.9614 H   0  0  0  0  0  0  0  0  0  0  0  0
   34.8262   19.6282   31.3955 H   0  0  0  0  0  0  0  0  0  0  0  0
   35.8297   19.9384   29.2133 H   0  0  0  0  0  0  0  0  0  0  0  0
   36.5019   18.3450   29.6283 H   0  0  0  0  0  0  0  0  0  0  0  0
   38.6045   19.2407   29.6612 H   0  0  0  0  0  0  0  0  0  0  0  0
   37.9519   20.8144   29.1947 H   0  0  0  0  0  0  0  0  0  0  0  0
   38.5393   19.7067   31.9611 H   0  0  0  0  0  0  0  0  0  0  0  0
   38.7610   21.3465   31.4064 H   0  0  0  0  0  0  0  0  0  0  0  0
  1  8  1  0
  2  3  2  0
  4  1  1  0
  4  3  1  0
  5  4  2  0
  6  5  1  0
  6  7  2  0
  7  2  1  0
  9  1  1  0
 10  1  1  0
 11 10  1  0
 12 11  2  0
 13 12  1  0
 14 15  1  0
 14 13  2  0
 15 11  1  0
 16 14  1  0
 17 16  1  0
 18 19  1  0
 18 17  1  0
 19 20  1  0
 20 16  1  0
  2 21  1  0
  3 22  1  0
  6 23  1  0
  8 24  1  0
  8 25  1  0
  8 26  1  0
  9 27  1  0
  9 28  1  0
  9 29  1  0
 10 30  1  0
 10 31  1  0
 12 32  1  0
 13 33  1  0
 16 34  1  0
 17 35  1  0
 17 36  1  0
 18 37  1  0
 18 38  1  0
 19 39  1  0
 19 40  1  0
 20 41  1  0
 20 42  1  0
M  ISO  8  21  14  22  14  23  14  24   8  25   8  26   8  27   8  28   8
M  ISO  8  29   8  30   8  31   8  32  14  33  14  34  13  35  13  36  13
M  ISO  6  37  13  38  13  39  13  40  13  41  13  42  13
M  END
>  <minimizedAffinity>  (1) 
-4.78914118

>  <minimizedRMSD>  (1) 
0.851901889

$$$$
