
     RDKit          3D

 44 46  0  0  0  0  0  0  0  0999 V2000
   38.1710   23.7340   37.1720 C   0  0  0  0  0  0  0  0  0  0  0  0
   41.5110   21.9750   37.2520 C   0  0  0  0  0  0  0  0  0  0  0  0
   40.2040   22.2890   37.5760 C   0  0  0  0  0  0  0  0  0  0  0  0
   39.5630   23.3230   36.8930 C   0  0  0  0  0  0  0  0  0  0  0  0
   40.2490   24.0010   35.9170 N   0  0  0  0  0  0  0  0  0  0  0  0
   41.5220   23.6700   35.6270 C   0  0  0  0  0  0  0  0  0  0  0  0
   42.1530   22.6600   36.2910 N   0  0  0  0  0  0  0  0  0  0  0  0
   38.1560   24.3040   38.5920 C   0  0  0  0  0  0  0  0  0  0  0  0
   37.6100   24.7020   36.1700 C   0  0  0  0  0  0  0  0  0  0  0  0
   37.2880   22.5180   37.1460 C   0  0  0  0  0  0  0  0  0  0  0  0
   37.0410   21.9660   35.8300 C   0  0  0  0  0  0  0  0  0  0  0  0
   35.9860   21.1810   35.5330 C   0  0  0  0  0  0  0  0  0  0  0  0
   35.6960   20.6350   34.3480 C   0  0  0  0  0  0  0  0  0  0  0  0
   36.7300   21.0220   33.3580 C   0  0  0  0  0  0  0  0  0  0  0  0
   37.9430   22.1100   34.3140 S   0  0  0  0  0  0  0  0  0  0  0  0
   36.9280   20.7110   32.0000 N   0  0  0  0  0  0  0  0  0  0  0  0
   38.3420   20.4980   31.6810 C   0  0  0  0  0  0  0  0  0  0  0  0
   38.5160   19.0200   31.4290 C   0  0  0  0  0  0  0  0  0  0  0  0
   37.6740   18.7040   30.2030 C   0  0  0  0  0  0  0  0  0  0  0  0
   36.2440   19.1060   30.3810 C   0  0  0  0  0  0  0  0  0  0  0  0
   36.0590   20.5360   30.8490 C   0  0  0  0  0  0  0  0  0  0  0  0
   42.0270   21.1615   37.7830 H   0  0  0  0  0  0  0  0  0  0  0  0
   39.6760   21.7303   38.3628 H   0  0  0  0  0  0  0  0  0  0  0  0
   42.0605   24.2226   34.8430 H   0  0  0  0  0  0  0  0  0  0  0  0
   38.1777   23.4785   39.3187 H   0  0  0  0  0  0  0  0  0  0  0  0
   39.0376   24.9452   38.7390 H   0  0  0  0  0  0  0  0  0  0  0  0
   37.2419   24.8980   38.7390 H   0  0  0  0  0  0  0  0  0  0  0  0
   37.1261   25.5369   36.6979 H   0  0  0  0  0  0  0  0  0  0  0  0
   38.4236   25.0894   35.5391 H   0  0  0  0  0  0  0  0  0  0  0  0
   36.8694   24.1887   35.5391 H   0  0  0  0  0  0  0  0  0  0  0  0
   37.7638   21.7382   37.7588 H   0  0  0  0  0  0  0  0  0  0  0  0
   36.3097   22.8416   37.5310 H   0  0  0  0  0  0  0  0  0  0  0  0
   35.2878   20.9665   36.3555 H   0  0  0  0  0  0  0  0  0  0  0  0
   34.8246   19.9969   34.1393 H   0  0  0  0  0  0  0  0  0  0  0  0
   38.6176   21.0700   30.7828 H   0  0  0  0  0  0  0  0  0  0  0  0
   38.9872   20.8358   32.5054 H   0  0  0  0  0  0  0  0  0  0  0  0
   39.5737   18.7865   31.2372 H   0  0  0  0  0  0  0  0  0  0  0  0
   38.2035   18.4227   32.2983 H   0  0  0  0  0  0  0  0  0  0  0  0
   37.7167   17.6213   30.0133 H   0  0  0  0  0  0  0  0  0  0  0  0
   38.0826   19.2750   29.3562 H   0  0  0  0  0  0  0  0  0  0  0  0
   35.7290   18.9885   29.4161 H   0  0  0  0  0  0  0  0  0  0  0  0
   35.8266   18.4579   31.1657 H   0  0  0  0  0  0  0  0  0  0  0  0
   36.3419   21.2367   30.0496 H   0  0  0  0  0  0  0  0  0  0  0  0
   35.0092   20.7356   31.1101 H   0  0  0  0  0  0  0  0  0  0  0  0
  1  8  1  0
  2  3  2  0
  4  1  1  0
  4  3  1  0
  5  4  2  0
  6  5  1  0
  6  7  2  0
  7  2  1  0
  9  1  1  0
 10  1  1  0
 11 10  1  0
 12 11  2  0
 13 12  1  0
 14 15  1  0
 14 13  2  0
 15 11  1  0
 16 14  1  0
 17 16  1  0
 18 17  1  0
 19 20  1  0
 19 18  1  0
 20 21  1  0
 21 16  1  0
  2 22  1  0
  3 23  1  0
  6 24  1  0
  8 25  1  0
  8 26  1  0
  8 27  1  0
  9 28  1  0
  9 29  1  0
  9 30  1  0
 10 31  1  0
 10 32  1  0
 12 33  1  0
 13 34  1  0
 17 35  1  0
 17 36  1  0
 18 37  1  0
 18 38  1  0
 19 39  1  0
 19 40  1  0
 20 41  1  0
 20 42  1  0
 21 43  1  0
 21 44  1  0
M  ISO  8  22  14  23  14  24  14  25   8  26   8  27   8  28   8  29   8
M  ISO  8  30   8  31   8  32   8  33  14  34  14  35  13  36  13  37  13
M  ISO  7  38  13  39  13  40  13  41  13  42  13  43  13  44  13
M  END
>  <minimizedAffinity>  (1) 
-4.78763056

>  <minimizedRMSD>  (1) 
1.0289284

$$$$
