
     RDKit          3D

 40 44  0  0  1  0  0  0  0  0999 V2000
   38.8230   23.7340   36.1630 N   0  0  0  0  0  0  0  0  0  0  0  0
   37.6870   24.4680   36.7040 C   0  0  0  0  0  0  0  0  0  0  0  0
   37.5300   23.8200   38.0800 C   0  0  0  0  0  0  0  0  0  0  0  0
   38.7820   22.9770   38.2770 C   0  0  0  0  0  0  0  0  0  0  0  0
   39.7220   23.6500   37.3220 C   0  0  1  0  0  0  0  0  0  0  0  0
   39.0060   23.2330   34.8400 C   0  0  0  0  0  0  0  0  0  0  0  0
   38.5590   21.9590   34.4610 C   0  0  0  0  0  0  0  0  0  0  0  0
   38.7850   21.5530   33.1480 C   0  0  0  0  0  0  0  0  0  0  0  0
   39.4370   22.4320   32.3050 N   0  0  0  0  0  0  0  0  0  0  0  0
   39.8420   23.6310   32.7150 C   0  0  0  0  0  0  0  0  0  0  0  0
   39.6470   24.0710   33.9750 N   0  0  0  0  0  0  0  0  0  0  0  0
   40.9690   22.9500   37.0710 C   0  0  0  0  0  0  0  0  0  0  0  0
   41.1920   21.5800   37.2670 C   0  0  0  0  0  0  0  0  0  0  0  0
   42.5010   21.3270   36.9090 C   0  0  0  0  0  0  0  0  0  0  0  0
   43.0100   22.5580   36.5100 C   0  0  0  0  0  0  0  0  0  0  0  0
   42.0920   23.4790   36.6190 O   0  0  0  0  0  0  0  0  0  0  0  0
   44.3730   22.6210   36.0740 N   0  0  0  0  0  0  0  0  0  0  0  0
   45.0720   21.7420   35.3050 C   0  0  0  0  0  0  0  0  0  0  0  0
   46.3310   22.1810   35.1290 N   0  0  0  0  0  0  0  0  0  0  0  0
   46.4860   23.3500   35.7710 C   0  0  0  0  0  0  0  0  0  0  0  0
   47.4710   24.2910   35.9880 C   0  0  0  0  0  0  0  0  0  0  0  0
   47.2300   25.4040   36.7350 N   0  0  0  0  0  0  0  0  0  0  0  0
   46.0210   25.6230   37.2870 C   0  0  0  0  0  0  0  0  0  0  0  0
   45.0450   24.7190   37.0890 N   0  0  0  0  0  0  0  0  0  0  0  0
   45.2640   23.6160   36.3560 C   0  0  0  0  0  0  0  0  0  0  0  0
   37.9069   25.5424   36.7890 H   0  0  0  0  0  0  0  0  0  0  0  0
   36.7829   24.4174   36.0795 H   0  0  0  0  0  0  0  0  0  0  0  0
   37.4581   24.5904   38.8619 H   0  0  0  0  0  0  0  0  0  0  0  0
   36.6148   23.2130   38.1435 H   0  0  0  0  0  0  0  0  0  0  0  0
   39.1485   23.0312   39.3127 H   0  0  0  0  0  0  0  0  0  0  0  0
   38.6413   21.9009   38.0977 H   0  0  0  0  0  0  0  0  0  0  0  0
   40.1371   24.6048   37.6770 H   0  0  0  0  0  0  0  0  0  0  0  0
   38.0461   21.3011   35.1780 H   0  0  0  0  0  0  0  0  0  0  0  0
   38.4552   20.5651   32.7940 H   0  0  0  0  0  0  0  0  0  0  0  0
   40.3558   24.2890   31.9987 H   0  0  0  0  0  0  0  0  0  0  0  0
   40.4616   20.8451   37.6364 H   0  0  0  0  0  0  0  0  0  0  0  0
   43.0272   20.3613   36.9339 H   0  0  0  0  0  0  0  0  0  0  0  0
   44.6662   20.8084   34.8881 H   0  0  0  0  0  0  0  0  0  0  0  0
   48.4687   24.1398   35.5500 H   0  0  0  0  0  0  0  0  0  0  0  0
   45.8353   26.5248   37.8888 H   0  0  0  0  0  0  0  0  0  0  0  0
  1  2  1  0
  1  5  1  0
  2  3  1  0
  3  4  1  0
  5  4  1  0
  6  1  1  0
  7  6  2  0
  8  7  1  0
  9 10  1  0
  9  8  2  0
 10 11  2  0
 11  6  1  0
 12 13  2  0
 12  5  1  0
 14 13  1  0
 15 16  1  0
 15 14  2  0
 16 12  1  0
 17 25  1  0
 17 15  1  0
 18 17  1  0
 19 18  2  0
 19 20  1  0
 20 21  2  0
 20 25  1  0
 21 22  1  0
 22 23  2  0
 24 23  1  0
 25 24  2  0
  2 26  1  0
  2 27  1  0
  3 28  1  0
  3 29  1  0
  4 30  1  0
  4 31  1  0
  5 32  1  1
  7 33  1  0
  8 34  1  0
 10 35  1  0
 13 36  1  0
 14 37  1  0
 18 38  1  0
 21 39  1  0
 23 40  1  0
M  ISO  8  26  13  27  13  28  13  29  13  30  13  31  13  32  13  33  14
M  ISO  7  34  14  35  14  36  14  37  14  38  14  39  14  40  14
M  END
>  <minimizedAffinity>  (1) 
-4.52937269

>  <minimizedRMSD>  (1) 
2.45905638

$$$$
