
     RDKit          3D

 42 46  0  0  1  0  0  0  0  0999 V2000
   38.8300   23.7530   36.2410 N   0  0  0  0  0  0  0  0  0  0  0  0
   37.7600   24.5720   36.7880 C   0  0  0  0  0  0  0  0  0  0  0  0
   37.6200   23.9870   38.1990 C   0  0  0  0  0  0  0  0  0  0  0  0
   38.8310   23.0920   38.3840 C   0  0  0  0  0  0  0  0  0  0  0  0
   39.7700   23.6660   37.3670 C   0  0  1  0  0  0  0  0  0  0  0  0
   38.9370   23.1860   34.9400 C   0  0  0  0  0  0  0  0  0  0  0  0
   38.3210   21.9700   34.6040 C   0  0  0  0  0  0  0  0  0  0  0  0
   38.4870   21.4920   33.3050 C   0  0  0  0  0  0  0  0  0  0  0  0
   39.2410   22.2370   32.4320 N   0  0  0  0  0  0  0  0  0  0  0  0
   39.8050   23.3830   32.7990 C   0  0  0  0  0  0  0  0  0  0  0  0
   39.6770   23.8880   34.0370 N   0  0  0  0  0  0  0  0  0  0  0  0
   40.9670   22.8900   37.1060 C   0  0  0  0  0  0  0  0  0  0  0  0
   41.1110   21.5130   37.3260 C   0  0  0  0  0  0  0  0  0  0  0  0
   42.3930   21.1780   36.9470 C   0  0  0  0  0  0  0  0  0  0  0  0
   42.9710   22.3670   36.5150 C   0  0  0  0  0  0  0  0  0  0  0  0
   42.1110   23.3410   36.6220 O   0  0  0  0  0  0  0  0  0  0  0  0
   44.3240   22.3320   36.0530 N   0  0  0  0  0  0  0  0  0  0  0  0
   44.8070   21.2530   35.4050 C   0  0  0  0  0  0  0  0  0  0  0  0
   46.1020   21.5250   35.1010 N   0  0  0  0  0  0  0  0  0  0  0  0
   46.4300   22.7530   35.5470 C   0  0  0  0  0  0  0  0  0  0  0  0
   47.5620   23.5570   35.5380 C   0  0  0  0  0  0  0  0  0  0  0  0
   47.5370   24.7920   36.1050 N   0  0  0  0  0  0  0  0  0  0  0  0
   46.4040   25.2550   36.6880 C   0  0  0  0  0  0  0  0  0  0  0  0
   45.2880   24.4720   36.7020 N   0  0  0  0  0  0  0  0  0  0  0  0
   45.2940   23.2570   36.1500 C   0  0  0  0  0  0  0  0  0  0  0  0
   48.7510   23.0420   34.9120 N   0  0  0  0  0  0  0  0  0  0  0  0
   38.0429   25.6345   36.8195 H   0  0  0  0  0  0  0  0  0  0  0  0
   36.8315   24.5500   36.1986 H   0  0  0  0  0  0  0  0  0  0  0  0
   37.6164   24.7903   38.9504 H   0  0  0  0  0  0  0  0  0  0  0  0
   36.6780   23.4323   38.3211 H   0  0  0  0  0  0  0  0  0  0  0  0
   39.2403   23.1717   39.4019 H   0  0  0  0  0  0  0  0  0  0  0  0
   38.6252   22.0190   38.2560 H   0  0  0  0  0  0  0  0  0  0  0  0
   40.2541   24.6090   37.6608 H   0  0  0  0  0  0  0  0  0  0  0  0
   37.7263   21.4121   35.3423 H   0  0  0  0  0  0  0  0  0  0  0  0
   38.0268   20.5445   32.9882 H   0  0  0  0  0  0  0  0  0  0  0  0
   40.3999   23.9397   32.0600 H   0  0  0  0  0  0  0  0  0  0  0  0
   40.3465   20.8301   37.7250 H   0  0  0  0  0  0  0  0  0  0  0  0
   42.8597   20.1824   36.9793 H   0  0  0  0  0  0  0  0  0  0  0  0
   44.2577   20.3299   35.1681 H   0  0  0  0  0  0  0  0  0  0  0  0
   46.3853   26.2548   37.1463 H   0  0  0  0  0  0  0  0  0  0  0  0
   49.6084   23.6122   34.8876 H   0  0  0  0  0  0  0  0  0  0  0  0
   48.7446   22.1032   34.4883 H   0  0  0  0  0  0  0  0  0  0  0  0
  1  2  1  0
  1  5  1  0
  2  3  1  0
  3  4  1  0
  5  4  1  0
  6  1  1  0
  7  6  2  0
  8  7  1  0
  9 10  1  0
  9  8  2  0
 10 11  2  0
 11  6  1  0
 12 13  2  0
 12  5  1  0
 14 13  1  0
 15 16  1  0
 15 14  2  0
 16 12  1  0
 17 25  1  0
 17 15  1  0
 18 17  1  0
 19 18  2  0
 19 20  1  0
 20 25  2  0
 21 20  1  0
 21 22  2  0
 22 23  1  0
 23 24  2  0
 25 24  1  0
 26 21  1  0
  2 27  1  0
  2 28  1  0
  3 29  1  0
  3 30  1  0
  4 31  1  0
  4 32  1  0
  5 33  1  1
  7 34  1  0
  8 35  1  0
 10 36  1  0
 13 37  1  0
 14 38  1  0
 18 39  1  0
 23 40  1  0
 26 41  1  0
 26 42  1  0
M  ISO  8  27  13  28  13  29  13  30  13  31  13  32  13  33  13  34  14
M  ISO  6  35  14  36  14  37  14  38  14  39  14  40  14
M  END
>  <minimizedAffinity>  (1) 
-4.5089488

>  <minimizedRMSD>  (1) 
2.06840205

$$$$
