
     RDKit          3D

 42 45  0  0  1  0  0  0  0  0999 V2000
   38.8290   23.7630   36.2520 N   0  0  0  0  0  0  0  0  0  0  0  0
   37.7480   24.5630   36.8030 C   0  0  0  0  0  0  0  0  0  0  0  0
   37.6130   23.9710   38.2040 C   0  0  0  0  0  0  0  0  0  0  0  0
   38.8300   23.0820   38.3940 C   0  0  0  0  0  0  0  0  0  0  0  0
   39.7610   23.6830   37.3840 C   0  0  1  0  0  0  0  0  0  0  0  0
   38.9480   23.2050   34.9420 C   0  0  0  0  0  0  0  0  0  0  0  0
   38.3630   21.9750   34.6080 C   0  0  0  0  0  0  0  0  0  0  0  0
   38.5320   21.5070   33.3060 C   0  0  0  0  0  0  0  0  0  0  0  0
   39.2570   22.2790   32.4290 N   0  0  0  0  0  0  0  0  0  0  0  0
   39.7890   23.4410   32.8040 C   0  0  0  0  0  0  0  0  0  0  0  0
   39.6610   23.9410   34.0410 N   0  0  0  0  0  0  0  0  0  0  0  0
   40.9600   22.9010   37.1210 C   0  0  0  0  0  0  0  0  0  0  0  0
   41.1130   21.5220   37.2870 C   0  0  0  0  0  0  0  0  0  0  0  0
   42.4040   21.1920   36.9200 C   0  0  0  0  0  0  0  0  0  0  0  0
   42.9760   22.4070   36.5430 C   0  0  0  0  0  0  0  0  0  0  0  0
   42.1180   23.3510   36.6760 O   0  0  0  0  0  0  0  0  0  0  0  0
   46.9270   22.9820   35.1790 C   0  0  0  0  0  0  0  0  0  0  0  0
   46.2780   23.9650   35.9260 C   0  0  0  0  0  0  0  0  0  0  0  0
   44.9660   23.8000   36.3910 C   0  0  0  0  0  0  0  0  0  0  0  0
   44.3600   22.6010   36.0620 C   0  0  0  0  0  0  0  0  0  0  0  0
   44.9790   21.6080   35.3240 C   0  0  0  0  0  0  0  0  0  0  0  0
   46.2710   21.8040   34.8810 C   0  0  0  0  0  0  0  0  0  0  0  0
   48.5550   23.4250   34.7170 S   0  0  0  0  0  0  0  0  0  0  0  0
   49.4880   23.3880   35.9120 O   0  0  0  0  0  0  0  0  0  0  0  0
   48.5800   24.8080   34.1520 O   0  0  0  0  0  0  0  0  0  0  0  0
   38.0166   25.6290   36.8416 H   0  0  0  0  0  0  0  0  0  0  0  0
   36.8208   24.5311   36.2119 H   0  0  0  0  0  0  0  0  0  0  0  0
   37.6009   24.7710   38.9588 H   0  0  0  0  0  0  0  0  0  0  0  0
   36.6760   23.4060   38.3173 H   0  0  0  0  0  0  0  0  0  0  0  0
   39.2334   23.1569   39.4146 H   0  0  0  0  0  0  0  0  0  0  0  0
   38.6397   22.0066   38.2623 H   0  0  0  0  0  0  0  0  0  0  0  0
   40.2257   24.6341   37.6831 H   0  0  0  0  0  0  0  0  0  0  0  0
   37.7897   21.3986   35.3490 H   0  0  0  0  0  0  0  0  0  0  0  0
   38.0977   20.5473   32.9891 H   0  0  0  0  0  0  0  0  0  0  0  0
   40.3611   24.0183   32.0627 H   0  0  0  0  0  0  0  0  0  0  0  0
   40.3429   20.8233   37.6459 H   0  0  0  0  0  0  0  0  0  0  0  0
   42.8736   20.1973   36.9243 H   0  0  0  0  0  0  0  0  0  0  0  0
   46.8122   24.8984   36.1573 H   0  0  0  0  0  0  0  0  0  0  0  0
   44.4516   24.5740   36.9795 H   0  0  0  0  0  0  0  0  0  0  0  0
   44.4474   20.6731   35.0930 H   0  0  0  0  0  0  0  0  0  0  0  0
   46.7768   21.0244   34.2924 H   0  0  0  0  0  0  0  0  0  0  0  0
   48.9720   22.5205   33.7763 H   0  0  0  0  0  0  0  0  0  0  0  0
  1  2  1  0
  1  5  1  0
  2  3  1  0
  3  4  1  0
  5  4  1  0
  6  1  1  0
  7  6  2  0
  8  7  1  0
  9 10  1  0
  9  8  2  0
 10 11  2  0
 11  6  1  0
 12 13  2  0
 12  5  1  0
 14 13  1  0
 15 16  1  0
 15 14  2  0
 16 12  1  0
 17 18  2  0
 18 19  1  0
 20 19  2  0
 20 15  1  0
 21 20  1  0
 22 17  1  0
 22 21  2  0
 23 17  1  0
 23 24  2  0
 25 23  2  0
  2 26  1  0
  2 27  1  0
  3 28  1  0
  3 29  1  0
  4 30  1  0
  4 31  1  0
  5 32  1  1
  7 33  1  0
  8 34  1  0
 10 35  1  0
 13 36  1  0
 14 37  1  0
 18 38  1  0
 19 39  1  0
 21 40  1  0
 22 41  1  0
 23 42  1  0
M  ISO  8  26  13  27  13  28  13  29  13  30  13  31  13  32  13  33  14
M  ISO  8  34  14  35  14  36  14  37  14  38  14  39  14  40  14  41  14
M  ISO  1  42  11
M  END
>  <minimizedAffinity>  (1) 
-4.20356178

>  <minimizedRMSD>  (1) 
2.57711267

$$$$
