
     RDKit          3D

 41 43  0  0  1  0  0  0  0  0999 V2000
   38.8410   23.7980   36.3760 N   0  0  0  0  0  0  0  0  0  0  0  0
   37.8380   24.6570   36.9830 C   0  0  0  0  0  0  0  0  0  0  0  0
   37.7690   24.0900   38.4000 C   0  0  0  0  0  0  0  0  0  0  0  0
   38.9650   23.1580   38.5260 C   0  0  0  0  0  0  0  0  0  0  0  0
   39.8490   23.6840   37.4380 C   0  0  1  0  0  0  0  0  0  0  0  0
   38.8460   23.2180   35.0760 C   0  0  0  0  0  0  0  0  0  0  0  0
   38.1730   22.0200   34.7960 C   0  0  0  0  0  0  0  0  0  0  0  0
   38.2340   21.5260   33.4920 C   0  0  0  0  0  0  0  0  0  0  0  0
   38.9550   22.2480   32.5630 N   0  0  0  0  0  0  0  0  0  0  0  0
   39.5750   23.3800   32.8820 C   0  0  0  0  0  0  0  0  0  0  0  0
   39.5450   23.8970   34.1210 N   0  0  0  0  0  0  0  0  0  0  0  0
   40.9980   22.8650   37.1110 C   0  0  0  0  0  0  0  0  0  0  0  0
   41.1490   21.5050   37.4000 C   0  0  0  0  0  0  0  0  0  0  0  0
   42.3870   21.1250   36.9140 C   0  0  0  0  0  0  0  0  0  0  0  0
   42.9300   22.2740   36.3520 C   0  0  0  0  0  0  0  0  0  0  0  0
   42.0920   23.2650   36.4860 O   0  0  0  0  0  0  0  0  0  0  0  0
   44.2570   22.4250   35.6830 C   0  0  0  0  0  0  0  0  0  0  0  0
   45.1260   21.1900   35.8350 C   0  0  0  0  0  0  0  0  0  0  0  0
   44.1110   22.6560   34.1780 C   0  0  0  0  0  0  0  0  0  0  0  0
   45.0460   23.5700   36.2940 C   0  0  0  0  0  0  0  0  0  0  0  0
   38.1588   25.7092   36.9863 H   0  0  0  0  0  0  0  0  0  0  0  0
   36.8732   24.6628   36.4547 H   0  0  0  0  0  0  0  0  0  0  0  0
   37.8336   24.9001   39.1414 H   0  0  0  0  0  0  0  0  0  0  0  0
   36.8209   23.5627   38.5819 H   0  0  0  0  0  0  0  0  0  0  0  0
   39.4430   23.2446   39.5129 H   0  0  0  0  0  0  0  0  0  0  0  0
   38.7201   22.0894   38.4361 H   0  0  0  0  0  0  0  0  0  0  0  0
   40.3842   24.6130   37.6840 H   0  0  0  0  0  0  0  0  0  0  0  0
   37.6147   21.4864   35.5793 H   0  0  0  0  0  0  0  0  0  0  0  0
   37.7241   20.5918   33.2140 H   0  0  0  0  0  0  0  0  0  0  0  0
   40.1347   23.9142   32.1001 H   0  0  0  0  0  0  0  0  0  0  0  0
   40.4219   20.8604   37.9155 H   0  0  0  0  0  0  0  0  0  0  0  0
   42.8444   20.1258   36.9622 H   0  0  0  0  0  0  0  0  0  0  0  0
   45.2762   20.9766   36.9036 H   0  0  0  0  0  0  0  0  0  0  0  0
   44.6313   20.3323   35.3558 H   0  0  0  0  0  0  0  0  0  0  0  0
   46.1004   21.3660   35.3558 H   0  0  0  0  0  0  0  0  0  0  0  0
   43.5308   23.5739   34.0025 H   0  0  0  0  0  0  0  0  0  0  0  0
   45.1078   22.7599   33.7246 H   0  0  0  0  0  0  0  0  0  0  0  0
   43.5894   21.8002   33.7246 H   0  0  0  0  0  0  0  0  0  0  0  0
   44.9997   23.5029   37.3910 H   0  0  0  0  0  0  0  0  0  0  0  0
   46.0944   23.5086   35.9668 H   0  0  0  0  0  0  0  0  0  0  0  0
   44.6153   24.5278   35.9668 H   0  0  0  0  0  0  0  0  0  0  0  0
  1  2  1  0
  1  5  1  0
  2  3  1  0
  3  4  1  0
  5  4  1  0
  6  1  1  0
  7  6  2  0
  8  7  1  0
  9 10  1  0
  9  8  2  0
 10 11  2  0
 11  6  1  0
 12 13  2  0
 12  5  1  0
 14 13  1  0
 15 16  1  0
 15 14  2  0
 16 12  1  0
 17 18  1  0
 17 20  1  0
 17 15  1  0
 19 17  1  0
  2 21  1  0
  2 22  1  0
  3 23  1  0
  3 24  1  0
  4 25  1  0
  4 26  1  0
  5 27  1  1
  7 28  1  0
  8 29  1  0
 10 30  1  0
 13 31  1  0
 14 32  1  0
 18 33  1  0
 18 34  1  0
 18 35  1  0
 19 36  1  0
 19 37  1  0
 19 38  1  0
 20 39  1  0
 20 40  1  0
 20 41  1  0
M  ISO  8  21  13  22  13  23  13  24  13  25  13  26  13  27  13  28  14
M  ISO  8  29  14  30  14  31  14  32  14  33   8  34   8  35   8  36   8
M  ISO  5  37   8  38   8  39   8  40   8  41   8
M  END
>  <minimizedAffinity>  (1) 
-4.18698692

>  <minimizedRMSD>  (1) 
1.08720112

$$$$
