
     RDKit          3D

 42 45  0  0  1  0  0  0  0  0999 V2000
   38.8430   23.8150   36.3470 N   0  0  0  0  0  0  0  0  0  0  0  0
   37.8470   24.6840   36.9610 C   0  0  0  0  0  0  0  0  0  0  0  0
   37.7770   24.1030   38.3800 C   0  0  0  0  0  0  0  0  0  0  0  0
   38.9580   23.1620   38.4910 C   0  0  0  0  0  0  0  0  0  0  0  0
   39.8510   23.6860   37.4100 C   0  0  1  0  0  0  0  0  0  0  0  0
   38.8350   23.2420   35.0410 C   0  0  0  0  0  0  0  0  0  0  0  0
   38.1980   22.0210   34.7770 C   0  0  0  0  0  0  0  0  0  0  0  0
   38.2410   21.5310   33.4740 C   0  0  0  0  0  0  0  0  0  0  0  0
   38.9080   22.2810   32.5270 N   0  0  0  0  0  0  0  0  0  0  0  0
   39.4980   23.4360   32.8300 C   0  0  0  0  0  0  0  0  0  0  0  0
   39.4840   23.9510   34.0740 N   0  0  0  0  0  0  0  0  0  0  0  0
   40.9880   22.8580   37.0670 C   0  0  0  0  0  0  0  0  0  0  0  0
   41.1780   21.5280   37.4660 C   0  0  0  0  0  0  0  0  0  0  0  0
   42.3770   21.1040   36.9330 C   0  0  0  0  0  0  0  0  0  0  0  0
   42.8600   22.2030   36.2310 C   0  0  0  0  0  0  0  0  0  0  0  0
   42.0290   23.2030   36.3300 O   0  0  0  0  0  0  0  0  0  0  0  0
   44.1110   22.1490   35.5250 N   0  0  0  0  0  0  0  0  0  0  0  0
   44.3190   21.2670   34.5360 C   0  0  0  0  0  0  0  0  0  0  0  0
   45.4840   21.1470   33.8090 C   0  0  0  0  0  0  0  0  0  0  0  0
   45.6580   20.1470   32.7200 C   0  0  0  0  0  0  0  0  0  0  0  0
   46.5210   22.0020   34.1220 C   0  0  0  0  0  0  0  0  0  0  0  0
   47.6260   21.9680   33.5110 O   0  0  0  0  0  0  0  0  0  0  0  0
   46.3050   22.8950   35.1260 N   0  0  0  0  0  0  0  0  0  0  0  0
   45.1420   22.9650   35.8020 C   0  0  0  0  0  0  0  0  0  0  0  0
   45.0170   23.8170   36.7180 O   0  0  0  0  0  0  0  0  0  0  0  0
   38.1786   25.7328   36.9709 H   0  0  0  0  0  0  0  0  0  0  0  0
   36.8815   24.7059   36.4344 H   0  0  0  0  0  0  0  0  0  0  0  0
   37.8535   24.9057   39.1282 H   0  0  0  0  0  0  0  0  0  0  0  0
   36.8240   23.5847   38.5620 H   0  0  0  0  0  0  0  0  0  0  0  0
   39.4373   23.2316   39.4786 H   0  0  0  0  0  0  0  0  0  0  0  0
   38.6986   22.0982   38.3858 H   0  0  0  0  0  0  0  0  0  0  0  0
   40.3976   24.6041   37.6714 H   0  0  0  0  0  0  0  0  0  0  0  0
   37.6804   21.4674   35.5743 H   0  0  0  0  0  0  0  0  0  0  0  0
   37.7595   20.5782   33.2087 H   0  0  0  0  0  0  0  0  0  0  0  0
   40.0164   23.9902   32.0337 H   0  0  0  0  0  0  0  0  0  0  0  0
   40.4959   20.9318   38.0899 H   0  0  0  0  0  0  0  0  0  0  0  0
   42.8473   20.1153   37.0395 H   0  0  0  0  0  0  0  0  0  0  0  0
   43.4936   20.5846   34.2849 H   0  0  0  0  0  0  0  0  0  0  0  0
   45.8309   19.1533   33.1589 H   0  0  0  0  0  0  0  0  0  0  0  0
   44.7510   20.1204   32.0982 H   0  0  0  0  0  0  0  0  0  0  0  0
   46.5207   20.4284   32.0982 H   0  0  0  0  0  0  0  0  0  0  0  0
   47.0628   23.5448   35.3797 H   0  0  0  0  0  0  0  0  0  0  0  0
  1  2  1  0
  1  5  1  0
  2  3  1  0
  3  4  1  0
  5  4  1  0
  6  1  1  0
  7  6  2  0
  8  7  1  0
  9 10  1  0
  9  8  2  0
 10 11  2  0
 11  6  1  0
 12  5  1  0
 12 13  2  0
 14 13  1  0
 15 16  1  0
 15 14  2  0
 16 12  1  0
 17 24  1  0
 17 15  1  0
 18 17  1  0
 19 21  1  0
 19 18  2  0
 20 19  1  0
 21 23  1  0
 22 21  2  0
 23 24  1  0
 24 25  2  0
  2 26  1  0
  2 27  1  0
  3 28  1  0
  3 29  1  0
  4 30  1  0
  4 31  1  0
  5 32  1  1
  7 33  1  0
  8 34  1  0
 10 35  1  0
 13 36  1  0
 14 37  1  0
 18 38  1  0
 20 39  1  0
 20 40  1  0
 20 41  1  0
 23 42  1  0
M  ISO  8  26  13  27  13  28  13  29  13  30  13  31  13  32  13  33  14
M  ISO  8  34  14  35  14  36  14  37  14  38  14  39   8  40   8  41   8
M  ISO  1  42   9
M  END
>  <minimizedAffinity>  (1) 
-4.17664766

>  <minimizedRMSD>  (1) 
1.37677395

$$$$
