
     RDKit          3D

 39 42  0  0  1  0  0  0  0  0999 V2000
   38.8100   23.8020   36.3420 N   0  0  0  0  0  0  0  0  0  0  0  0
   37.8150   24.6650   36.9660 C   0  0  0  0  0  0  0  0  0  0  0  0
   37.7630   24.0830   38.3950 C   0  0  0  0  0  0  0  0  0  0  0  0
   38.9620   23.1630   38.4880 C   0  0  0  0  0  0  0  0  0  0  0  0
   39.8310   23.6970   37.3930 C   0  0  1  0  0  0  0  0  0  0  0  0
   38.7880   23.2170   35.0410 C   0  0  0  0  0  0  0  0  0  0  0  0
   38.1200   22.0100   34.7820 C   0  0  0  0  0  0  0  0  0  0  0  0
   38.1590   21.5180   33.4780 C   0  0  0  0  0  0  0  0  0  0  0  0
   38.8480   22.2470   32.5300 N   0  0  0  0  0  0  0  0  0  0  0  0
   39.4630   23.3860   32.8280 C   0  0  0  0  0  0  0  0  0  0  0  0
   39.4560   23.9020   34.0700 N   0  0  0  0  0  0  0  0  0  0  0  0
   40.9680   22.8600   37.0460 C   0  0  0  0  0  0  0  0  0  0  0  0
   41.1650   21.5290   37.4370 C   0  0  0  0  0  0  0  0  0  0  0  0
   42.3640   21.1130   36.8880 C   0  0  0  0  0  0  0  0  0  0  0  0
   42.8370   22.2190   36.1880 C   0  0  0  0  0  0  0  0  0  0  0  0
   42.0120   23.2090   36.2980 O   0  0  0  0  0  0  0  0  0  0  0  0
   44.0840   22.1060   35.4960 N   0  0  0  0  0  0  0  0  0  0  0  0
   44.1300   21.1500   34.5400 C   0  0  0  0  0  0  0  0  0  0  0  0
   45.3120   20.9750   33.8160 C   0  0  0  0  0  0  0  0  0  0  0  0
   46.4190   21.7840   34.0870 C   0  0  0  0  0  0  0  0  0  0  0  0
   47.4790   21.6270   33.4380 O   0  0  0  0  0  0  0  0  0  0  0  0
   46.2950   22.7110   35.0510 N   0  0  0  0  0  0  0  0  0  0  0  0
   45.1510   22.8980   35.7690 C   0  0  0  0  0  0  0  0  0  0  0  0
   45.0430   23.7580   36.6590 O   0  0  0  0  0  0  0  0  0  0  0  0
   38.1398   25.7160   36.9708 H   0  0  0  0  0  0  0  0  0  0  0  0
   36.8437   24.6791   36.4498 H   0  0  0  0  0  0  0  0  0  0  0  0
   37.8337   24.8869   39.1425 H   0  0  0  0  0  0  0  0  0  0  0  0
   36.8194   23.5526   38.5908 H   0  0  0  0  0  0  0  0  0  0  0  0
   39.4552   23.2430   39.4680 H   0  0  0  0  0  0  0  0  0  0  0  0
   38.7178   22.0952   38.3874 H   0  0  0  0  0  0  0  0  0  0  0  0
   40.3649   24.6282   37.6335 H   0  0  0  0  0  0  0  0  0  0  0  0
   37.5853   21.4720   35.5786 H   0  0  0  0  0  0  0  0  0  0  0  0
   37.6555   20.5767   33.2126 H   0  0  0  0  0  0  0  0  0  0  0  0
   39.9963   23.9258   32.0316 H   0  0  0  0  0  0  0  0  0  0  0  0
   40.4911   20.9269   38.0641 H   0  0  0  0  0  0  0  0  0  0  0  0
   42.8392   20.1256   36.9835 H   0  0  0  0  0  0  0  0  0  0  0  0
   43.2511   20.5207   34.3360 H   0  0  0  0  0  0  0  0  0  0  0  0
   45.3712   20.2027   33.0349 H   0  0  0  0  0  0  0  0  0  0  0  0
   47.1057   23.3115   35.2585 H   0  0  0  0  0  0  0  0  0  0  0  0
  1  2  1  0
  1  5  1  0
  2  3  1  0
  3  4  1  0
  5  4  1  0
  6  1  1  0
  7  6  2  0
  8  7  1  0
  9 10  1  0
  9  8  2  0
 10 11  2  0
 11  6  1  0
 12  5  1  0
 12 13  2  0
 14 13  1  0
 15 16  1  0
 15 14  2  0
 16 12  1  0
 17 23  1  0
 17 15  1  0
 18 17  1  0
 19 20  1  0
 19 18  2  0
 20 22  1  0
 21 20  2  0
 22 23  1  0
 23 24  2  0
  2 25  1  0
  2 26  1  0
  3 27  1  0
  3 28  1  0
  4 29  1  0
  4 30  1  0
  5 31  1  1
  7 32  1  0
  8 33  1  0
 10 34  1  0
 13 35  1  0
 14 36  1  0
 18 37  1  0
 19 38  1  0
 22 39  1  0
M  ISO  8  25  13  26  13  27  13  28  13  29  13  30  13  31  13  32  14
M  ISO  7  33  14  34  14  35  14  36  14  37  14  38  14  39   9
M  END
>  <minimizedAffinity>  (1) 
-4.13580132

>  <minimizedRMSD>  (1) 
1.38993526

$$$$
