
     RDKit          3D

 36 38  0  0  0  0  0  0  0  0999 V2000
   38.5691   23.8589   36.2512 N   0  0  0  0  0  0  0  0  0  0  0  0
   37.7217   24.7854   36.9897 C   0  0  0  0  0  0  0  0  0  0  0  0
   37.8482   24.2444   38.4125 C   0  0  0  0  0  0  0  0  0  0  0  0
   38.9958   23.2487   38.3710 C   0  0  0  0  0  0  0  0  0  0  0  0
   39.7250   23.7146   37.1475 C   0  0  1  0  0  0  0  0  0  0  0  0
   38.3304   23.2557   34.9802 C   0  0  0  0  0  0  0  0  0  0  0  0
   37.7216   21.9982   34.8582 C   0  0  0  0  0  0  0  0  0  0  0  0
   37.5350   21.4920   33.5724 C   0  0  0  0  0  0  0  0  0  0  0  0
   37.9593   22.2575   32.5050 N   0  0  0  0  0  0  0  0  0  0  0  0
   38.5341   23.4510   32.6827 C   0  0  0  0  0  0  0  0  0  0  0  0
   38.7355   23.9803   33.8971 N   0  0  0  0  0  0  0  0  0  0  0  0
   40.7582   22.8189   36.6602 C   0  0  0  0  0  0  0  0  0  0  0  0
   41.1257   21.5955   37.2353 C   0  0  0  0  0  0  0  0  0  0  0  0
   42.1413   21.0709   36.4573 C   0  0  0  0  0  0  0  0  0  0  0  0
   42.3408   21.9933   35.4543 C   0  0  0  0  0  0  0  0  0  0  0  0
   41.5273   22.9909   35.5994 O   0  0  0  0  0  0  0  0  0  0  0  0
   36.6991   24.8210   36.6185 H   0  0  0  0  0  0  0  0  0  0  0  0
   38.2174   25.7986   37.0034 H   0  0  0  0  0  0  0  0  0  0  0  0
   38.0855   25.0458   39.1271 H   0  0  0  0  0  0  0  0  0  0  0  0
   36.8758   23.7507   38.6172 H   0  0  0  0  0  0  0  0  0  0  0  0
   38.6010   22.2205   38.2295 H   0  0  0  0  0  0  0  0  0  0  0  0
   39.6133   23.3375   39.2878 H   0  0  0  0  0  0  0  0  0  0  0  0
   40.1264   24.7420   37.3270 H   0  0  0  0  0  0  0  0  0  0  0  0
   37.4177   21.4622   35.7479 H   0  0  0  0  0  0  0  0  0  0  0  0
   37.0681   20.5233   33.4372 H   0  0  0  0  0  0  0  0  0  0  0  0
   38.8326   23.9752   31.7841 H   0  0  0  0  0  0  0  0  0  0  0  0
   40.6651   21.1761   38.1329 H   0  0  0  0  0  0  0  0  0  0  0  0
   42.6189   20.1265   36.6686 H   0  0  0  0  0  0  0  0  0  0  0  0
   43.3009   21.8709   34.4087 N   0  0  0  0  0  0  0  0  0  0  0  0
   43.9601   20.6504   34.0987 C   0  0  0  0  0  0  0  0  0  0  0  0
   44.2466   19.8775   35.1180 N   0  0  0  0  0  0  0  0  0  0  0  0
   44.2453   20.3854   32.7209 N   0  0  0  0  0  0  0  0  0  0  0  0
   43.5536   22.7186   33.8161 H   0  0  0  0  0  0  0  0  0  0  0  0
   44.7291   18.9915   34.8555 H   0  0  0  0  0  0  0  0  0  0  0  0
   43.9735   19.4289   32.3581 H   0  0  0  0  0  0  0  0  0  0  0  0
   44.2921   19.8655   31.8343 H   0  0  0  0  0  0  0  0  0  0  0  0
  1  2  1  0
  1  5  1  0
  2  3  1  0
  4  3  1  0
  5  4  1  0
  6  1  1  0
  7  6  2  0
  8  7  1  0
  9 10  1  0
  9  8  2  0
 10 11  2  0
 11  6  1  0
 12  5  1  0
 12 13  2  0
 14 13  1  0
 15 16  1  0
 15 14  2  0
 16 12  1  0
  2 17  1  0
  2 18  1  0
  3 19  1  0
  3 20  1  0
  4 21  1  0
  4 22  1  0
  5 23  1  1
  7 24  1  0
  8 25  1  0
 10 26  1  0
 13 27  1  0
 14 28  1  0
 29 30  1  0
 30 31  2  3
 30 32  1  0
 29 33  1  0
 31 34  1  0
 32 35  1  0
 32 36  1  0
 15 29  1  0
M  END
>  <DihAtoms>  (1) 
15,14,28,29

>  <DihDeg>  (1) 
179.72511793841124

$$$$
