
     RDKit          3D

 37 40  0  0  1  0  0  0  0  0999 V2000
   38.8740   23.7840   36.2200 N   0  0  0  0  0  0  0  0  0  0  0  0
   37.8250   24.6330   36.7660 C   0  0  0  0  0  0  0  0  0  0  0  0
   37.6840   24.0550   38.1810 C   0  0  0  0  0  0  0  0  0  0  0  0
   38.8790   23.1460   38.3690 C   0  0  0  0  0  0  0  0  0  0  0  0
   39.8210   23.6950   37.3410 C   0  0  1  0  0  0  0  0  0  0  0  0
   38.9550   23.2000   34.9220 C   0  0  0  0  0  0  0  0  0  0  0  0
   38.3290   21.9830   34.6130 C   0  0  0  0  0  0  0  0  0  0  0  0
   38.4680   21.4900   33.3180 C   0  0  0  0  0  0  0  0  0  0  0  0
   39.2080   22.2240   32.4240 N   0  0  0  0  0  0  0  0  0  0  0  0
   39.7840   23.3730   32.7610 C   0  0  0  0  0  0  0  0  0  0  0  0
   39.6810   23.8970   34.0000 N   0  0  0  0  0  0  0  0  0  0  0  0
   40.9970   22.8810   37.0770 C   0  0  0  0  0  0  0  0  0  0  0  0
   41.1220   21.5100   37.3400 C   0  0  0  0  0  0  0  0  0  0  0  0
   42.3920   21.1370   36.9380 C   0  0  0  0  0  0  0  0  0  0  0  0
   42.9730   22.3020   36.4500 C   0  0  0  0  0  0  0  0  0  0  0  0
   42.1370   23.2980   36.5440 O   0  0  0  0  0  0  0  0  0  0  0  0
   44.3380   22.3310   35.9200 C   0  0  0  0  0  0  0  0  0  0  0  0
   45.2240   23.3560   36.1760 C   0  0  0  0  0  0  0  0  0  0  0  0
   46.5120   23.3960   35.6830 C   0  0  0  0  0  0  0  0  0  0  0  0
   46.9460   22.3730   34.8980 N   0  0  0  0  0  0  0  0  0  0  0  0
   46.0610   21.3720   34.6550 C   0  0  0  0  0  0  0  0  0  0  0  0
   44.7860   21.3190   35.1360 N   0  0  0  0  0  0  0  0  0  0  0  0
   38.1321   25.6890   36.7901 H   0  0  0  0  0  0  0  0  0  0  0  0
   36.8928   24.6328   36.1821 H   0  0  0  0  0  0  0  0  0  0  0  0
   37.6939   24.8620   38.9284 H   0  0  0  0  0  0  0  0  0  0  0  0
   36.7355   23.5123   38.3068 H   0  0  0  0  0  0  0  0  0  0  0  0
   39.2949   23.2303   39.3839 H   0  0  0  0  0  0  0  0  0  0  0  0
   38.6564   22.0750   38.2537 H   0  0  0  0  0  0  0  0  0  0  0  0
   40.3238   24.6326   37.6205 H   0  0  0  0  0  0  0  0  0  0  0  0
   37.7471   21.4358   35.3693 H   0  0  0  0  0  0  0  0  0  0  0  0
   37.9989   20.5407   33.0201 H   0  0  0  0  0  0  0  0  0  0  0  0
   40.3660   23.9167   32.0023 H   0  0  0  0  0  0  0  0  0  0  0  0
   40.3563   20.8554   37.7818 H   0  0  0  0  0  0  0  0  0  0  0  0
   42.8442   20.1357   36.9926 H   0  0  0  0  0  0  0  0  0  0  0  0
   44.8847   24.1891   36.8092 H   0  0  0  0  0  0  0  0  0  0  0  0
   47.1762   24.2400   35.9204 H   0  0  0  0  0  0  0  0  0  0  0  0
   46.3989   20.5391   34.0208 H   0  0  0  0  0  0  0  0  0  0  0  0
  1  2  1  0
  1  5  1  0
  2  3  1  0
  3  4  1  0
  5  4  1  0
  6  1  1  0
  7  6  2  0
  8  7  1  0
  9 10  1  0
  9  8  2  0
 10 11  2  0
 11  6  1  0
 12 13  2  0
 12  5  1  0
 14 13  1  0
 15 16  1  0
 15 14  2  0
 16 12  1  0
 17 18  2  0
 17 15  1  0
 19 18  1  0
 20 19  2  0
 21 20  1  0
 21 22  2  0
 22 17  1  0
  2 23  1  0
  2 24  1  0
  3 25  1  0
  3 26  1  0
  4 27  1  0
  4 28  1  0
  5 29  1  1
  7 30  1  0
  8 31  1  0
 10 32  1  0
 13 33  1  0
 14 34  1  0
 18 35  1  0
 19 36  1  0
 21 37  1  0
M  ISO  8  23  13  24  13  25  13  26  13  27  13  28  13  29  13  30  14
M  ISO  7  31  14  32  14  33  14  34  14  35  14  36  14  37  14
M  END
>  <minimizedAffinity>  (1) 
-4.07026196

>  <minimizedRMSD>  (1) 
1.50489295

$$$$
