
     RDKit          3D

 36 39  0  0  1  0  0  0  0  0999 V2000
   38.8130   23.8290   36.3640 N   0  0  0  0  0  0  0  0  0  0  0  0
   37.8510   24.7190   37.0050 C   0  0  0  0  0  0  0  0  0  0  0  0
   37.8150   24.1470   38.4290 C   0  0  0  0  0  0  0  0  0  0  0  0
   38.9910   23.1940   38.5060 C   0  0  0  0  0  0  0  0  0  0  0  0
   39.8530   23.7080   37.3950 C   0  0  1  0  0  0  0  0  0  0  0  0
   38.7500   23.2390   35.0680 C   0  0  0  0  0  0  0  0  0  0  0  0
   38.0510   22.0470   34.8300 C   0  0  0  0  0  0  0  0  0  0  0  0
   38.0500   21.5450   33.5280 C   0  0  0  0  0  0  0  0  0  0  0  0
   38.7360   22.2520   32.5610 N   0  0  0  0  0  0  0  0  0  0  0  0
   39.3850   23.3850   32.8440 C   0  0  0  0  0  0  0  0  0  0  0  0
   39.4130   23.9050   34.0790 N   0  0  0  0  0  0  0  0  0  0  0  0
   40.9660   22.8480   37.0280 C   0  0  0  0  0  0  0  0  0  0  0  0
   41.1280   21.5080   37.4020 C   0  0  0  0  0  0  0  0  0  0  0  0
   42.3130   21.0660   36.8410 C   0  0  0  0  0  0  0  0  0  0  0  0
   42.8100   22.1680   36.1510 C   0  0  0  0  0  0  0  0  0  0  0  0
   42.0110   23.1790   36.2770 O   0  0  0  0  0  0  0  0  0  0  0  0
   44.0930   22.1870   35.3660 C   0  0  0  0  0  0  0  0  0  0  0  0
   45.2180   21.2690   35.8120 C   0  0  0  0  0  0  0  0  0  0  0  0
   45.3080   22.7940   35.9270 C   0  0  0  0  0  0  0  0  0  0  0  0
   38.2008   25.7619   36.9986 H   0  0  0  0  0  0  0  0  0  0  0  0
   36.8699   24.7546   36.5088 H   0  0  0  0  0  0  0  0  0  0  0  0
   37.9222   24.9522   39.1707 H   0  0  0  0  0  0  0  0  0  0  0  0
   36.8621   23.6414   38.6443 H   0  0  0  0  0  0  0  0  0  0  0  0
   39.5022   23.2618   39.4776 H   0  0  0  0  0  0  0  0  0  0  0  0
   38.7192   22.1322   38.4131 H   0  0  0  0  0  0  0  0  0  0  0  0
   40.4116   24.6276   37.6237 H   0  0  0  0  0  0  0  0  0  0  0  0
   37.5219   21.5258   35.6414 H   0  0  0  0  0  0  0  0  0  0  0  0
   37.5188   20.6143   33.2798 H   0  0  0  0  0  0  0  0  0  0  0  0
   39.9149   23.9094   32.0352 H   0  0  0  0  0  0  0  0  0  0  0  0
   40.4410   20.9171   38.0256 H   0  0  0  0  0  0  0  0  0  0  0  0
   42.7627   20.0654   36.9223 H   0  0  0  0  0  0  0  0  0  0  0  0
   43.5352   22.3462   34.4314 H   0  0  0  0  0  0  0  0  0  0  0  0
   45.1058   20.6485   36.7134 H   0  0  0  0  0  0  0  0  0  0  0  0
   45.8205   20.4729   35.3502 H   0  0  0  0  0  0  0  0  0  0  0  0
   45.9932   23.3533   35.2730 H   0  0  0  0  0  0  0  0  0  0  0  0
   45.5131   23.4968   36.7480 H   0  0  0  0  0  0  0  0  0  0  0  0
  1  2  1  0
  1  5  1  0
  2  3  1  0
  3  4  1  0
  5  4  1  0
  6  1  1  0
  7  6  2  0
  8  7  1  0
  9 10  1  0
  9  8  2  0
 10 11  2  0
 11  6  1  0
 12  5  1  0
 12 13  2  0
 14 13  1  0
 15 16  1  0
 15 14  2  0
 16 12  1  0
 17 18  1  0
 17 19  1  0
 17 15  1  0
 18 19  1  0
  2 20  1  0
  2 21  1  0
  3 22  1  0
  3 23  1  0
  4 24  1  0
  4 25  1  0
  5 26  1  1
  7 27  1  0
  8 28  1  0
 10 29  1  0
 13 30  1  0
 14 31  1  0
 17 32  1  0
 18 33  1  0
 18 34  1  0
 19 35  1  0
 19 36  1  0
M  ISO  8  20  13  21  13  22  13  23  13  24  13  25  13  26  13  27  14
M  ISO  8  28  14  29  14  30  14  31  14  32  13  33  13  34  13  35  13
M  ISO  1  36  13
M  END
>  <minimizedAffinity>  (1) 
-4.00885487

>  <minimizedRMSD>  (1) 
0.797332942

$$$$
