
     RDKit          3D

 40 43  0  0  1  0  0  0  0  0999 V2000
   38.5560   23.8810   36.3180 N   0  0  0  0  0  0  0  0  0  0  0  0
   37.7420   24.8320   37.0410 C   0  0  0  0  0  0  0  0  0  0  0  0
   37.8050   24.2710   38.4600 C   0  0  0  0  0  0  0  0  0  0  0  0
   38.9490   23.2710   38.4550 C   0  0  0  0  0  0  0  0  0  0  0  0
   39.6890   23.7120   37.2310 C   0  0  1  0  0  0  0  0  0  0  0  0
   38.3230   23.2650   35.0420 C   0  0  0  0  0  0  0  0  0  0  0  0
   37.7190   22.0010   34.9410 C   0  0  0  0  0  0  0  0  0  0  0  0
   37.5390   21.4880   33.6570 C   0  0  0  0  0  0  0  0  0  0  0  0
   37.9490   22.2240   32.5850 N   0  0  0  0  0  0  0  0  0  0  0  0
   38.5240   23.4340   32.7560 C   0  0  0  0  0  0  0  0  0  0  0  0
   38.7300   23.9940   33.9640 N   0  0  0  0  0  0  0  0  0  0  0  0
   40.7240   22.7910   36.7600 C   0  0  0  0  0  0  0  0  0  0  0  0
   41.1000   21.6090   37.4050 C   0  0  0  0  0  0  0  0  0  0  0  0
   42.1020   21.0490   36.6330 C   0  0  0  0  0  0  0  0  0  0  0  0
   42.2830   21.9140   35.5620 C   0  0  0  0  0  0  0  0  0  0  0  0
   41.4620   22.9200   35.6690 O   0  0  0  0  0  0  0  0  0  0  0  0
   43.2940   21.4720   34.6610 N   0  0  0  0  0  0  0  0  0  0  0  0
   44.3550   22.3660   34.3350 C   0  0  0  0  0  0  0  0  0  0  0  0
   45.3960   21.8250   33.4260 C   0  0  0  0  0  0  0  0  0  0  0  0
   45.2420   20.5180   33.0280 O   0  0  0  0  0  0  0  0  0  0  0  0
   44.7020   19.6950   34.0000 C   0  0  0  0  0  0  0  0  0  0  0  0
   43.2340   20.1320   34.1100 C   0  0  0  0  0  0  0  0  0  0  0  0
   38.1673   25.8452   36.9903 H   0  0  0  0  0  0  0  0  0  0  0  0
   36.7208   24.9393   36.6464 H   0  0  0  0  0  0  0  0  0  0  0  0
   38.0025   25.0764   39.1827 H   0  0  0  0  0  0  0  0  0  0  0  0
   36.8551   23.8005   38.7536 H   0  0  0  0  0  0  0  0  0  0  0  0
   39.5697   23.3590   39.3589 H   0  0  0  0  0  0  0  0  0  0  0  0
   38.6368   22.2163   38.4476 H   0  0  0  0  0  0  0  0  0  0  0  0
   40.3105   24.6086   37.3722 H   0  0  0  0  0  0  0  0  0  0  0  0
   37.4026   21.4416   35.8337 H   0  0  0  0  0  0  0  0  0  0  0  0
   37.0724   20.5026   33.5109 H   0  0  0  0  0  0  0  0  0  0  0  0
   38.8407   23.9915   31.8622 H   0  0  0  0  0  0  0  0  0  0  0  0
   40.6827   21.2052   38.3392 H   0  0  0  0  0  0  0  0  0  0  0  0
   42.6437   20.1116   36.8275 H   0  0  0  0  0  0  0  0  0  0  0  0
   44.3995   23.3910   34.7316 H   0  0  0  0  0  0  0  0  0  0  0  0
   46.2455   22.4371   33.0887 H   0  0  0  0  0  0  0  0  0  0  0  0
   44.7709   18.6399   33.6968 H   0  0  0  0  0  0  0  0  0  0  0  0
   45.2341   19.7793   34.9590 H   0  0  0  0  0  0  0  0  0  0  0  0
   42.7555   20.1400   33.1196 H   0  0  0  0  0  0  0  0  0  0  0  0
   42.6402   19.4490   34.7352 H   0  0  0  0  0  0  0  0  0  0  0  0
  1  2  1  0
  1  5  1  0
  2  3  1  0
  4  3  1  0
  5  4  1  0
  6  1  1  0
  7  6  2  0
  8  7  1  0
  9 10  1  0
  9  8  2  0
 10 11  2  0
 11  6  1  0
 12  5  1  0
 12 13  2  0
 14 13  1  0
 15 16  1  0
 15 14  2  0
 16 12  1  0
 17 15  1  0
 18 17  1  0
 19 18  2  0
 20 19  1  0
 20 21  1  0
 21 22  1  0
 22 17  1  0
  2 23  1  0
  2 24  1  0
  3 25  1  0
  3 26  1  0
  4 27  1  0
  4 28  1  0
  5 29  1  1
  7 30  1  0
  8 31  1  0
 10 32  1  0
 13 33  1  0
 14 34  1  0
 18 35  1  0
 19 36  1  0
 21 37  1  0
 21 38  1  0
 22 39  1  0
 22 40  1  0
M  ISO  8  23  13  24  13  25  13  26  13  27  13  28  13  29  13  30  14
M  ISO  8  31  14  32  14  33  14  34  14  35  13  36  13  37  13  38  13
M  ISO  2  39  13  40  13
M  END
>  <minimizedAffinity>  (1) 
-4.00618649

>  <minimizedRMSD>  (1) 
0.15191184

$$$$
