
     RDKit          3D

 36 39  0  0  1  0  0  0  0  0999 V2000
   38.8970   23.8130   36.3370 N   0  0  0  0  0  0  0  0  0  0  0  0
   37.9100   24.6890   36.9460 C   0  0  0  0  0  0  0  0  0  0  0  0
   37.8220   24.1270   38.3610 C   0  0  0  0  0  0  0  0  0  0  0  0
   38.9950   23.1670   38.4910 C   0  0  0  0  0  0  0  0  0  0  0  0
   39.8920   23.6880   37.4080 C   0  0  1  0  0  0  0  0  0  0  0  0
   38.8870   23.2370   35.0330 C   0  0  0  0  0  0  0  0  0  0  0  0
   38.2090   22.0320   34.7680 C   0  0  0  0  0  0  0  0  0  0  0  0
   38.2460   21.5340   33.4690 C   0  0  0  0  0  0  0  0  0  0  0  0
   38.9480   22.2570   32.5270 N   0  0  0  0  0  0  0  0  0  0  0  0
   39.5770   23.4010   32.8330 C   0  0  0  0  0  0  0  0  0  0  0  0
   39.5710   23.9270   34.0770 N   0  0  0  0  0  0  0  0  0  0  0  0
   41.0200   22.8410   37.0730 C   0  0  0  0  0  0  0  0  0  0  0  0
   41.1780   21.4950   37.4280 C   0  0  0  0  0  0  0  0  0  0  0  0
   42.3760   21.0550   36.9190 C   0  0  0  0  0  0  0  0  0  0  0  0
   42.8920   22.1440   36.2800 C   0  0  0  0  0  0  0  0  0  0  0  0
   42.1090   23.1530   36.3770 O   0  0  0  0  0  0  0  0  0  0  0  0
   44.1660   22.1210   35.5930 C   0  0  0  0  0  0  0  0  0  0  0  0
   45.4480   22.6830   35.9350 C   0  0  0  0  0  0  0  0  0  0  0  0
   46.4370   22.4470   35.0180 C   0  0  0  0  0  0  0  0  0  0  0  0
   46.2380   21.7360   33.8660 C   0  0  0  0  0  0  0  0  0  0  0  0
   44.4120   21.2710   33.9710 S   0  0  0  0  0  0  0  0  0  0  0  0
   38.2518   25.7345   36.9512 H   0  0  0  0  0  0  0  0  0  0  0  0
   36.9467   24.7104   36.4153 H   0  0  0  0  0  0  0  0  0  0  0  0
   37.9036   24.9361   39.1017 H   0  0  0  0  0  0  0  0  0  0  0  0
   36.8608   23.6234   38.5409 H   0  0  0  0  0  0  0  0  0  0  0  0
   39.4698   23.2368   39.4808 H   0  0  0  0  0  0  0  0  0  0  0  0
   38.7309   22.1033   38.3969 H   0  0  0  0  0  0  0  0  0  0  0  0
   40.4342   24.6091   37.6679 H   0  0  0  0  0  0  0  0  0  0  0  0
   37.6665   21.5002   35.5635 H   0  0  0  0  0  0  0  0  0  0  0  0
   37.7339   20.5975   33.2030 H   0  0  0  0  0  0  0  0  0  0  0  0
   40.1203   23.9330   32.0381 H   0  0  0  0  0  0  0  0  0  0  0  0
   40.4661   20.8943   38.0131 H   0  0  0  0  0  0  0  0  0  0  0  0
   42.8187   20.0518   37.0069 H   0  0  0  0  0  0  0  0  0  0  0  0
   45.6184   23.2556   36.8586 H   0  0  0  0  0  0  0  0  0  0  0  0
   47.4414   22.8489   35.2173 H   0  0  0  0  0  0  0  0  0  0  0  0
   46.9629   21.4951   33.0745 H   0  0  0  0  0  0  0  0  0  0  0  0
  1  2  1  0
  1  5  1  0
  2  3  1  0
  3  4  1  0
  5  4  1  0
  6  1  1  0
  7  6  2  0
  8  7  1  0
  9 10  1  0
  9  8  2  0
 10 11  2  0
 11  6  1  0
 12  5  1  0
 12 13  2  0
 14 13  1  0
 15 16  1  0
 15 14  2  0
 16 12  1  0
 17 18  2  0
 17 15  1  0
 19 18  1  0
 20 21  1  0
 20 19  2  0
 21 17  1  0
  2 22  1  0
  2 23  1  0
  3 24  1  0
  3 25  1  0
  4 26  1  0
  4 27  1  0
  5 28  1  1
  7 29  1  0
  8 30  1  0
 10 31  1  0
 13 32  1  0
 14 33  1  0
 18 34  1  0
 19 35  1  0
 20 36  1  0
M  ISO  8  22  13  23  13  24  13  25  13  26  13  27  13  28  13  29  14
M  ISO  7  30  14  31  14  32  14  33  14  34  14  35  14  36  14
M  END
>  <minimizedAffinity>  (1) 
-3.9661665

>  <minimizedRMSD>  (1) 
1.1191777

$$$$
