
     RDKit          3D

 35 38  0  0  1  0  0  0  0  0999 V2000
   38.9290   23.7900   36.2960 N   0  0  0  0  0  0  0  0  0  0  0  0
   37.9000   24.6470   36.8720 C   0  0  0  0  0  0  0  0  0  0  0  0
   37.7770   24.0640   38.2880 C   0  0  0  0  0  0  0  0  0  0  0  0
   38.9660   23.1380   38.4440 C   0  0  0  0  0  0  0  0  0  0  0  0
   39.8950   23.6740   37.3980 C   0  0  1  0  0  0  0  0  0  0  0  0
   38.9760   23.2180   34.9870 C   0  0  0  0  0  0  0  0  0  0  0  0
   38.3370   22.0030   34.6920 C   0  0  0  0  0  0  0  0  0  0  0  0
   38.4370   21.5190   33.3880 C   0  0  0  0  0  0  0  0  0  0  0  0
   39.1570   22.2650   32.4780 N   0  0  0  0  0  0  0  0  0  0  0  0
   39.7480   23.4180   32.8110 C   0  0  0  0  0  0  0  0  0  0  0  0
   39.6790   23.9250   34.0570 N   0  0  0  0  0  0  0  0  0  0  0  0
   41.0430   22.8420   37.1060 C   0  0  0  0  0  0  0  0  0  0  0  0
   41.1780   21.4780   37.3870 C   0  0  0  0  0  0  0  0  0  0  0  0
   42.4100   21.0820   36.9470 C   0  0  0  0  0  0  0  0  0  0  0  0
   42.9940   22.2230   36.4070 C   0  0  0  0  0  0  0  0  0  0  0  0
   42.1680   23.2050   36.5220 O   0  0  0  0  0  0  0  0  0  0  0  0
   44.3310   22.1990   35.8280 C   0  0  0  0  0  0  0  0  0  0  0  0
   45.1190   23.4280   36.0070 C   0  0  0  0  0  0  0  0  0  0  0  0
   46.7450   23.0000   35.1360 S   0  0  0  0  0  0  0  0  0  0  0  0
   46.0640   21.3000   34.7150 C   0  0  0  0  0  0  0  0  0  0  0  0
   44.9490   21.2340   35.1610 N   0  0  0  0  0  0  0  0  0  0  0  0
   38.2201   25.6991   36.8966 H   0  0  0  0  0  0  0  0  0  0  0  0
   36.9563   24.6582   36.3070 H   0  0  0  0  0  0  0  0  0  0  0  0
   37.8125   24.8665   39.0395 H   0  0  0  0  0  0  0  0  0  0  0  0
   36.8235   23.5348   38.4321 H   0  0  0  0  0  0  0  0  0  0  0  0
   39.4056   23.2130   39.4496 H   0  0  0  0  0  0  0  0  0  0  0  0
   38.7243   22.0712   38.3278 H   0  0  0  0  0  0  0  0  0  0  0  0
   40.4205   24.6005   37.6728 H   0  0  0  0  0  0  0  0  0  0  0  0
   37.7772   21.4523   35.4624 H   0  0  0  0  0  0  0  0  0  0  0  0
   37.9575   20.5735   33.0947 H   0  0  0  0  0  0  0  0  0  0  0  0
   40.3086   23.9700   32.0422 H   0  0  0  0  0  0  0  0  0  0  0  0
   40.4272   20.8389   37.8746 H   0  0  0  0  0  0  0  0  0  0  0  0
   42.8471   20.0743   37.0072 H   0  0  0  0  0  0  0  0  0  0  0  0
   44.8355   24.3601   36.5177 H   0  0  0  0  0  0  0  0  0  0  0  0
   46.5899   20.5085   34.1610 H   0  0  0  0  0  0  0  0  0  0  0  0
  1  2  1  0
  1  5  1  0
  2  3  1  0
  3  4  1  0
  5  4  1  0
  6  1  1  0
  7  6  2  0
  8  7  1  0
  9 10  1  0
  9  8  2  0
 10 11  2  0
 11  6  1  0
 12 13  2  0
 12  5  1  0
 14 13  1  0
 15 16  1  0
 15 14  2  0
 16 12  1  0
 17 18  2  0
 17 15  1  0
 19 18  1  0
 20 19  1  0
 20 21  2  0
 21 17  1  0
  2 22  1  0
  2 23  1  0
  3 24  1  0
  3 25  1  0
  4 26  1  0
  4 27  1  0
  5 28  1  1
  7 29  1  0
  8 30  1  0
 10 31  1  0
 13 32  1  0
 14 33  1  0
 18 34  1  0
 20 35  1  0
M  ISO  8  22  13  23  13  24  13  25  13  26  13  27  13  28  13  29  14
M  ISO  6  30  14  31  14  32  14  33  14  34  14  35  14
M  END
>  <minimizedAffinity>  (1) 
-3.93483877

>  <minimizedRMSD>  (1) 
1.31097651

$$$$
