
     RDKit          3D

 30 32  0  0  1  0  0  0  0  0999 V2000
   38.5640   23.8460   36.2490 N   0  0  0  0  0  0  0  0  0  0  0  0
   37.6990   24.7570   36.9900 C   0  0  0  0  0  0  0  0  0  0  0  0
   37.8300   24.2000   38.4190 C   0  0  0  0  0  0  0  0  0  0  0  0
   38.9910   23.2310   38.3670 C   0  0  0  0  0  0  0  0  0  0  0  0
   39.7190   23.7080   37.1480 C   0  0  1  0  0  0  0  0  0  0  0  0
   38.3320   23.2540   34.9740 C   0  0  0  0  0  0  0  0  0  0  0  0
   37.7370   21.9910   34.8380 C   0  0  0  0  0  0  0  0  0  0  0  0
   37.5530   21.4920   33.5510 C   0  0  0  0  0  0  0  0  0  0  0  0
   37.9680   22.2710   32.4940 N   0  0  0  0  0  0  0  0  0  0  0  0
   38.5280   23.4650   32.6760 C   0  0  0  0  0  0  0  0  0  0  0  0
   38.7300   23.9960   33.8990 N   0  0  0  0  0  0  0  0  0  0  0  0
   40.7630   22.8240   36.6540 C   0  0  0  0  0  0  0  0  0  0  0  0
   41.1240   21.5930   37.2200 C   0  0  0  0  0  0  0  0  0  0  0  0
   42.1510   21.0900   36.4400 C   0  0  0  0  0  0  0  0  0  0  0  0
   42.3580   22.0370   35.4440 C   0  0  0  0  0  0  0  0  0  0  0  0
   41.5330   23.0340   35.6000 O   0  0  0  0  0  0  0  0  0  0  0  0
   43.3560   21.7740   34.5040 O   0  0  0  0  0  0  0  0  0  0  0  0
   38.0589   25.7946   36.9275 H   0  0  0  0  0  0  0  0  0  0  0  0
   36.6654   24.8014   36.6163 H   0  0  0  0  0  0  0  0  0  0  0  0
   38.0380   25.0121   39.1312 H   0  0  0  0  0  0  0  0  0  0  0  0
   36.9034   23.7111   38.7543 H   0  0  0  0  0  0  0  0  0  0  0  0
   39.6194   23.3072   39.2666 H   0  0  0  0  0  0  0  0  0  0  0  0
   38.6925   22.1730   38.3275 H   0  0  0  0  0  0  0  0  0  0  0  0
   40.3227   24.6153   37.2977 H   0  0  0  0  0  0  0  0  0  0  0  0
   37.4255   21.4128   35.7204 H   0  0  0  0  0  0  0  0  0  0  0  0
   37.0912   20.5077   33.3842 H   0  0  0  0  0  0  0  0  0  0  0  0
   38.8387   24.0421   31.7926 H   0  0  0  0  0  0  0  0  0  0  0  0
   40.6791   21.1205   38.1081 H   0  0  0  0  0  0  0  0  0  0  0  0
   42.6896   20.1410   36.5791 H   0  0  0  0  0  0  0  0  0  0  0  0
   43.8833   20.9381   34.5626 H   0  0  0  0  0  0  0  0  0  0  0  0
  1  2  1  0
  1  5  1  0
  2  3  1  0
  4  3  1  0
  5  4  1  0
  6  1  1  0
  7  6  2  0
  8  7  1  0
  9 10  1  0
  9  8  2  0
 10 11  2  0
 11  6  1  0
 12  5  1  0
 12 13  2  0
 14 13  1  0
 15 16  1  0
 15 14  2  0
 16 12  1  0
 17 15  1  0
  2 18  1  0
  2 19  1  0
  3 20  1  0
  3 21  1  0
  4 22  1  0
  4 23  1  0
  5 24  1  1
  7 25  1  0
  8 26  1  0
 10 27  1  0
 13 28  1  0
 14 29  1  0
 17 30  1  0
M  ISO  8  18  13  19  13  20  13  21  13  22  13  23  13  24  13  25  14
M  ISO  5  26  14  27  14  28  14  29  14  30   3
M  END
>  <minimizedAffinity>  (1) 
-3.89221096

>  <minimizedRMSD>  (1) 
0.0301955659

$$$$
