
     RDKit          3D

 32 34  0  0  1  0  0  0  0  0999 V2000
   38.8990   23.8220   36.3410 N   0  0  0  0  0  0  0  0  0  0  0  0
   37.9150   24.7160   36.9300 C   0  0  0  0  0  0  0  0  0  0  0  0
   37.8430   24.1860   38.3600 C   0  0  0  0  0  0  0  0  0  0  0  0
   38.9800   23.1920   38.4890 C   0  0  0  0  0  0  0  0  0  0  0  0
   39.8940   23.6990   37.4160 C   0  0  1  0  0  0  0  0  0  0  0  0
   38.8890   23.2240   35.0480 C   0  0  0  0  0  0  0  0  0  0  0  0
   38.2010   22.0300   34.7860 C   0  0  0  0  0  0  0  0  0  0  0  0
   38.2540   21.5210   33.4890 C   0  0  0  0  0  0  0  0  0  0  0  0
   38.9770   22.2210   32.5440 N   0  0  0  0  0  0  0  0  0  0  0  0
   39.6140   23.3560   32.8490 C   0  0  0  0  0  0  0  0  0  0  0  0
   39.5910   23.8820   34.0820 N   0  0  0  0  0  0  0  0  0  0  0  0
   41.0170   22.8300   37.1010 C   0  0  0  0  0  0  0  0  0  0  0  0
   41.1330   21.4750   37.4360 C   0  0  0  0  0  0  0  0  0  0  0  0
   42.3480   21.0310   36.9470 C   0  0  0  0  0  0  0  0  0  0  0  0
   42.9110   22.1450   36.3350 C   0  0  0  0  0  0  0  0  0  0  0  0
   42.1210   23.1580   36.4420 O   0  0  0  0  0  0  0  0  0  0  0  0
   44.2190   22.0810   35.6880 C   0  0  0  0  0  0  0  0  0  0  0  0
   45.1520   22.8340   36.0740 O   0  0  0  0  0  0  0  0  0  0  0  0
   44.4280   21.1770   34.6330 O   0  0  0  0  0  0  0  0  0  0  0  0
   38.2558   25.7616   36.9053 H   0  0  0  0  0  0  0  0  0  0  0  0
   36.9479   24.7278   36.4059 H   0  0  0  0  0  0  0  0  0  0  0  0
   37.9691   25.0079   39.0801 H   0  0  0  0  0  0  0  0  0  0  0  0
   36.8699   23.7180   38.5701 H   0  0  0  0  0  0  0  0  0  0  0  0
   39.4514   23.2380   39.4818 H   0  0  0  0  0  0  0  0  0  0  0  0
   38.6861   22.1370   38.3860 H   0  0  0  0  0  0  0  0  0  0  0  0
   40.4481   24.6160   37.6652 H   0  0  0  0  0  0  0  0  0  0  0  0
   37.6386   21.5126   35.5772 H   0  0  0  0  0  0  0  0  0  0  0  0
   37.7343   20.5878   33.2261 H   0  0  0  0  0  0  0  0  0  0  0  0
   40.1770   23.8768   32.0604 H   0  0  0  0  0  0  0  0  0  0  0  0
   40.3939   20.8746   37.9866 H   0  0  0  0  0  0  0  0  0  0  0  0
   42.7745   20.0201   37.0250 H   0  0  0  0  0  0  0  0  0  0  0  0
   43.6915   20.5872   34.3332 H   0  0  0  0  0  0  0  0  0  0  0  0
  1  2  1  0
  1  5  1  0
  2  3  1  0
  3  4  1  0
  5  4  1  0
  6  1  1  0
  7  6  2  0
  8  7  1  0
  9 10  1  0
  9  8  2  0
 10 11  2  0
 11  6  1  0
 12  5  1  0
 12 13  2  0
 14 13  1  0
 15 16  1  0
 15 14  2  0
 16 12  1  0
 17 18  2  0
 17 15  1  0
 19 17  1  0
  2 20  1  0
  2 21  1  0
  3 22  1  0
  3 23  1  0
  4 24  1  0
  4 25  1  0
  5 26  1  1
  7 27  1  0
  8 28  1  0
 10 29  1  0
 13 30  1  0
 14 31  1  0
 19 32  1  0
M  ISO  8  20  13  21  13  22  13  23  13  24  13  25  13  26  13  27  14
M  ISO  5  28  14  29  14  30  14  31  14  32   3
M  END
>  <minimizedAffinity>  (1) 
-3.8458631

>  <minimizedRMSD>  (1) 
0.955998182

$$$$
