
     RDKit          3D

 36 38  0  0  0  0  0  0  0  0999 V2000
   38.1310   23.7610   37.0410 C   0  0  0  0  0  0  0  0  0  0  0  0
   41.4650   22.0340   37.2400 C   0  0  0  0  0  0  0  0  0  0  0  0
   40.1500   22.3270   37.5560 C   0  0  0  0  0  0  0  0  0  0  0  0
   39.5210   23.3510   36.8110 C   0  0  0  0  0  0  0  0  0  0  0  0
   40.2290   23.9960   35.8310 N   0  0  0  0  0  0  0  0  0  0  0  0
   41.5050   23.6670   35.5700 C   0  0  0  0  0  0  0  0  0  0  0  0
   42.1370   22.6780   36.2770 N   0  0  0  0  0  0  0  0  0  0  0  0
   38.0800   24.4240   38.4100 C   0  0  0  0  0  0  0  0  0  0  0  0
   37.5650   24.6640   35.9750 C   0  0  0  0  0  0  0  0  0  0  0  0
   37.2640   22.5330   37.0860 C   0  0  0  0  0  0  0  0  0  0  0  0
   37.0170   21.9130   35.7990 C   0  0  0  0  0  0  0  0  0  0  0  0
   35.9280   21.1720   35.5020 C   0  0  0  0  0  0  0  0  0  0  0  0
   35.6470   20.5850   34.3290 C   0  0  0  0  0  0  0  0  0  0  0  0
   36.7120   20.8550   33.3640 C   0  0  0  0  0  0  0  0  0  0  0  0
   37.9730   21.9200   34.2890 S   0  0  0  0  0  0  0  0  0  0  0  0
   36.9570   20.5020   31.9900 C   0  0  0  0  0  0  0  0  0  0  0  0
   35.9860   19.8100   31.3230 C   0  0  0  0  0  0  0  0  0  0  0  0
   36.4090   19.5700   30.0340 C   0  0  0  0  0  0  0  0  0  0  0  0
   37.6560   20.1490   29.9890 C   0  0  0  0  0  0  0  0  0  0  0  0
   37.9340   20.6870   31.1740 O   0  0  0  0  0  0  0  0  0  0  0  0
   41.9789   21.2404   37.8022 H   0  0  0  0  0  0  0  0  0  0  0  0
   39.6171   21.7867   38.3523 H   0  0  0  0  0  0  0  0  0  0  0  0
   42.0505   24.1994   34.7770 H   0  0  0  0  0  0  0  0  0  0  0  0
   38.1393   23.6536   39.1929 H   0  0  0  0  0  0  0  0  0  0  0  0
   38.9274   25.1177   38.5133 H   0  0  0  0  0  0  0  0  0  0  0  0
   37.1364   24.9799   38.5133 H   0  0  0  0  0  0  0  0  0  0  0  0
   37.0378   25.5051   36.4489 H   0  0  0  0  0  0  0  0  0  0  0  0
   38.3831   25.0499   35.3491 H   0  0  0  0  0  0  0  0  0  0  0  0
   36.8611   24.0959   35.3491 H   0  0  0  0  0  0  0  0  0  0  0  0
   37.7547   21.7918   37.7339 H   0  0  0  0  0  0  0  0  0  0  0  0
   36.2843   22.8606   37.4639 H   0  0  0  0  0  0  0  0  0  0  0  0
   35.1924   21.0350   36.3083 H   0  0  0  0  0  0  0  0  0  0  0  0
   34.7466   19.9876   34.1230 H   0  0  0  0  0  0  0  0  0  0  0  0
   35.0212   19.4950   31.7471 H   0  0  0  0  0  0  0  0  0  0  0  0
   35.8757   19.0406   29.2307 H   0  0  0  0  0  0  0  0  0  0  0  0
   38.3191   20.1648   29.1115 H   0  0  0  0  0  0  0  0  0  0  0  0
  1 10  1  0
  1  8  1  0
  2  3  2  0
  4  1  1  0
  4  3  1  0
  5  4  2  0
  6  5  1  0
  6  7  2  0
  7  2  1  0
  9  1  1  0
 11 10  1  0
 12 11  2  0
 13 12  1  0
 14 15  1  0
 14 13  2  0
 15 11  1  0
 16 14  1  0
 17 16  2  0
 18 17  1  0
 19 18  2  0
 19 20  1  0
 20 16  1  0
  2 21  1  0
  3 22  1  0
  6 23  1  0
  8 24  1  0
  8 25  1  0
  8 26  1  0
  9 27  1  0
  9 28  1  0
  9 29  1  0
 10 30  1  0
 10 31  1  0
 12 32  1  0
 13 33  1  0
 17 34  1  0
 18 35  1  0
 19 36  1  0
M  ISO  8  21  14  22  14  23  14  24   8  25   8  26   8  27   8  28   8
M  ISO  8  29   8  30   8  31   8  32  14  33  14  34  14  35  14  36  14
M  END
>  <minimizedAffinity>  (1) 
-4.62795496

>  <minimizedRMSD>  (1) 
0.478439152

$$$$
