
     RDKit          3D

 48 51  0  0  1  0  0  0  0  0999 V2000
   41.0330   22.8600   37.1470 C   0  0  0  0  0  0  0  0  0  0  0  0
   41.1640   21.4820   37.4250 C   0  0  0  0  0  0  0  0  0  0  0  0
   42.4070   21.1050   36.9420 C   0  0  0  0  0  0  0  0  0  0  0  0
   42.9590   22.2600   36.4010 C   0  0  0  0  0  0  0  0  0  0  0  0
   42.1240   23.2600   36.5420 O   0  0  0  0  0  0  0  0  0  0  0  0
   38.9030   23.8110   36.3730 N   0  0  0  0  0  0  0  0  0  0  0  0
   37.8790   24.6670   36.9760 C   0  0  0  0  0  0  0  0  0  0  0  0
   37.7750   24.0730   38.3770 C   0  0  0  0  0  0  0  0  0  0  0  0
   38.9470   23.1300   38.4980 C   0  0  0  0  0  0  0  0  0  0  0  0
   39.8840   23.6600   37.4840 C   0  0  1  0  0  0  0  0  0  0  0  0
   38.9350   23.2740   35.0580 C   0  0  0  0  0  0  0  0  0  0  0  0
   38.3660   22.0390   34.7570 C   0  0  0  0  0  0  0  0  0  0  0  0
   38.4480   21.5940   33.4390 C   0  0  0  0  0  0  0  0  0  0  0  0
   39.0900   22.4110   32.5190 N   0  0  0  0  0  0  0  0  0  0  0  0
   39.6180   23.5850   32.8620 C   0  0  0  0  0  0  0  0  0  0  0  0
   39.5620   24.0540   34.1210 N   0  0  0  0  0  0  0  0  0  0  0  0
   44.3020   22.3550   35.7520 C   0  0  0  0  0  0  0  0  0  0  0  0
   44.4440   23.7550   35.2040 C   0  0  0  0  0  0  0  0  0  0  0  0
   45.4930   24.4930   35.8710 N   0  0  0  0  0  0  0  0  0  0  0  0
   46.1770   24.0160   36.9190 C   0  0  0  0  0  0  0  0  0  0  0  0
   47.1570   24.8340   37.4590 C   0  0  0  0  0  0  0  0  0  0  0  0
   47.9550   24.3620   38.6270 C   0  0  0  0  0  0  0  0  0  0  0  0
   47.3700   26.0730   36.8960 C   0  0  0  0  0  0  0  0  0  0  0  0
   48.2520   26.8220   37.3750 O   0  0  0  0  0  0  0  0  0  0  0  0
   46.6540   26.5270   35.8290 N   0  0  0  0  0  0  0  0  0  0  0  0
   45.7140   25.7000   35.3390 C   0  0  0  0  0  0  0  0  0  0  0  0
   45.0830   26.1750   34.3500 O   0  0  0  0  0  0  0  0  0  0  0  0
   40.4268   20.8366   37.9250 H   0  0  0  0  0  0  0  0  0  0  0  0
   42.8607   20.1036   36.9790 H   0  0  0  0  0  0  0  0  0  0  0  0
   38.2014   25.7182   37.0079 H   0  0  0  0  0  0  0  0  0  0  0  0
   36.9275   24.6858   36.4244 H   0  0  0  0  0  0  0  0  0  0  0  0
   37.8382   24.8656   39.1372 H   0  0  0  0  0  0  0  0  0  0  0  0
   36.8160   23.5574   38.5336 H   0  0  0  0  0  0  0  0  0  0  0  0
   39.3868   23.1684   39.5055 H   0  0  0  0  0  0  0  0  0  0  0  0
   38.6807   22.0741   38.3424 H   0  0  0  0  0  0  0  0  0  0  0  0
   40.4301   24.5579   37.8090 H   0  0  0  0  0  0  0  0  0  0  0  0
   37.8696   21.4364   35.5319 H   0  0  0  0  0  0  0  0  0  0  0  0
   38.0182   20.6273   33.1378 H   0  0  0  0  0  0  0  0  0  0  0  0
   40.1159   24.1904   32.0903 H   0  0  0  0  0  0  0  0  0  0  0  0
   45.0916   22.1598   36.4926 H   0  0  0  0  0  0  0  0  0  0  0  0
   44.3959   21.6124   34.9460 H   0  0  0  0  0  0  0  0  0  0  0  0
   44.6791   23.6944   34.1311 H   0  0  0  0  0  0  0  0  0  0  0  0
   43.4949   24.2845   35.3736 H   0  0  0  0  0  0  0  0  0  0  0  0
   45.9700   23.0182   37.3333 H   0  0  0  0  0  0  0  0  0  0  0  0
   47.4521   24.6595   39.5590 H   0  0  0  0  0  0  0  0  0  0  0  0
   48.0435   23.2661   38.5918 H   0  0  0  0  0  0  0  0  0  0  0  0
   48.9580   24.8122   38.5918 H   0  0  0  0  0  0  0  0  0  0  0  0
   46.8243   27.4563   35.4189 H   0  0  0  0  0  0  0  0  0  0  0  0
  1  2  2  0
  1 10  1  0
  3  2  1  0
  4  5  1  0
  4  3  2  0
  5  1  1  0
  6  7  1  0
  6 10  1  0
  7  8  1  0
  8  9  1  0
 10  9  1  0
 11  6  1  0
 12 11  2  0
 13 12  1  0
 14 15  1  0
 14 13  2  0
 15 16  2  0
 16 11  1  0
 17  4  1  0
 18 17  1  0
 18 19  1  0
 19 20  1  0
 20 21  2  0
 21 22  1  0
 23 24  2  0
 23 21  1  0
 25 23  1  0
 26 25  1  0
 26 19  1  0
 27 26  2  0
  2 28  1  0
  3 29  1  0
  7 30  1  0
  7 31  1  0
  8 32  1  0
  8 33  1  0
  9 34  1  0
  9 35  1  0
 10 36  1  1
 12 37  1  0
 13 38  1  0
 15 39  1  0
 17 40  1  0
 17 41  1  0
 18 42  1  0
 18 43  1  0
 20 44  1  0
 22 45  1  0
 22 46  1  0
 22 47  1  0
 25 48  1  0
M  ISO  8  28  14  29  14  30  13  31  13  32  13  33  13  34  13  35  13
M  ISO  8  36  13  37  14  38  14  39  14  40   8  41   8  42   8  43   8
M  ISO  5  44  14  45   8  46   8  47   8  48   9
M  END
>  <minimizedAffinity>  (1) 
-5.09387159

>  <minimizedRMSD>  (1) 
1.71951854

$$$$
