
     RDKit          3D

 49 52  0  0  1  0  0  0  0  0999 V2000
   38.9620   23.7180   36.1200 N   0  0  0  0  0  0  0  0  0  0  0  0
   37.8150   24.4360   36.6860 C   0  0  0  0  0  0  0  0  0  0  0  0
   37.6530   23.7470   38.0370 C   0  0  0  0  0  0  0  0  0  0  0  0
   38.9430   22.9720   38.2420 C   0  0  0  0  0  0  0  0  0  0  0  0
   39.8620   23.6490   37.3010 C   0  0  1  0  0  0  0  0  0  0  0  0
   39.1530   23.2300   34.8020 C   0  0  0  0  0  0  0  0  0  0  0  0
   38.7070   21.9720   34.4080 C   0  0  0  0  0  0  0  0  0  0  0  0
   38.9480   21.5860   33.0890 C   0  0  0  0  0  0  0  0  0  0  0  0
   39.6140   22.4780   32.2630 N   0  0  0  0  0  0  0  0  0  0  0  0
   40.0210   23.6740   32.6960 C   0  0  0  0  0  0  0  0  0  0  0  0
   39.8080   24.0830   33.9540 N   0  0  0  0  0  0  0  0  0  0  0  0
   41.1340   23.0060   37.0330 C   0  0  0  0  0  0  0  0  0  0  0  0
   41.3670   21.6180   37.1170 C   0  0  0  0  0  0  0  0  0  0  0  0
   42.7030   21.4360   36.7850 C   0  0  0  0  0  0  0  0  0  0  0  0
   43.1970   22.7160   36.5200 C   0  0  0  0  0  0  0  0  0  0  0  0
   42.2490   23.5920   36.6780 O   0  0  0  0  0  0  0  0  0  0  0  0
   44.6000   23.0050   36.1200 C   0  0  0  0  0  0  0  0  0  0  0  0
   44.6710   24.4710   35.7720 C   0  0  0  0  0  0  0  0  0  0  0  0
   45.3540   25.3080   36.6180 N   0  0  0  0  0  0  0  0  0  0  0  0
   44.8620   25.8110   37.8180 C   0  0  0  0  0  0  0  0  0  0  0  0
   45.6970   25.4100   39.0280 C   0  0  0  0  0  0  0  0  0  0  0  0
   46.9510   24.8160   38.6360 N   0  0  0  0  0  0  0  0  0  0  0  0
   47.5710   25.3950   37.4950 C   0  0  0  0  0  0  0  0  0  0  0  0
   46.6780   25.7170   36.3470 C   0  0  0  0  0  0  0  0  0  0  0  0
   38.0326   25.5075   36.8062 H   0  0  0  0  0  0  0  0  0  0  0  0
   36.9131   24.4021   36.0571 H   0  0  0  0  0  0  0  0  0  0  0  0
   37.5179   24.4906   38.8362 H   0  0  0  0  0  0  0  0  0  0  0  0
   36.7697   23.0920   38.0627 H   0  0  0  0  0  0  0  0  0  0  0  0
   39.2995   23.0566   39.2792 H   0  0  0  0  0  0  0  0  0  0  0  0
   38.8437   21.8910   38.0642 H   0  0  0  0  0  0  0  0  0  0  0  0
   40.2524   24.6033   37.6842 H   0  0  0  0  0  0  0  0  0  0  0  0
   38.1838   21.3066   35.1105 H   0  0  0  0  0  0  0  0  0  0  0  0
   38.6197   20.6045   32.7163 H   0  0  0  0  0  0  0  0  0  0  0  0
   40.5468   24.3433   31.9991 H   0  0  0  0  0  0  0  0  0  0  0  0
   40.6397   20.8391   37.3896 H   0  0  0  0  0  0  0  0  0  0  0  0
   43.2553   20.4858   36.7401 H   0  0  0  0  0  0  0  0  0  0  0  0
   45.2831   22.7817   36.9528 H   0  0  0  0  0  0  0  0  0  0  0  0
   44.8972   22.3848   35.2615 H   0  0  0  0  0  0  0  0  0  0  0  0
   45.1467   24.5483   34.7832 H   0  0  0  0  0  0  0  0  0  0  0  0
   43.6281   24.8153   35.8330 H   0  0  0  0  0  0  0  0  0  0  0  0
   44.8439   26.9090   37.7549 H   0  0  0  0  0  0  0  0  0  0  0  0
   43.8571   25.3870   37.9610 H   0  0  0  0  0  0  0  0  0  0  0  0
   45.9003   26.3055   39.6337 H   0  0  0  0  0  0  0  0  0  0  0  0
   45.1296   24.6650   39.6051 H   0  0  0  0  0  0  0  0  0  0  0  0
   47.6035   24.8995   39.4286 H   0  0  0  0  0  0  0  0  0  0  0  0
   48.0545   26.3297   37.8152 H   0  0  0  0  0  0  0  0  0  0  0  0
   48.2646   24.6284   37.1192 H   0  0  0  0  0  0  0  0  0  0  0  0
   47.0410   25.1954   35.4491 H   0  0  0  0  0  0  0  0  0  0  0  0
   46.6871   26.8049   36.1846 H   0  0  0  0  0  0  0  0  0  0  0  0
  1  2  1  0
  1  5  1  0
  2  3  1  0
  3  4  1  0
  5  4  1  0
  6  1  1  0
  7  6  2  0
  8  7  1  0
  9 10  1  0
  9  8  2  0
 10 11  2  0
 11  6  1  0
 12 13  2  0
 12  5  1  0
 14 13  1  0
 15 16  1  0
 15 14  2  0
 16 12  1  0
 17 15  1  0
 18 17  1  0
 18 19  1  0
 19 20  1  0
 20 21  1  0
 22 21  1  0
 23 22  1  0
 24 19  1  0
 24 23  1  0
  2 25  1  0
  2 26  1  0
  3 27  1  0
  3 28  1  0
  4 29  1  0
  4 30  1  0
  5 31  1  1
  7 32  1  0
  8 33  1  0
 10 34  1  0
 13 35  1  0
 14 36  1  0
 17 37  1  0
 17 38  1  0
 18 39  1  0
 18 40  1  0
 20 41  1  0
 20 42  1  0
 21 43  1  0
 21 44  1  0
 22 45  1  0
 23 46  1  0
 23 47  1  0
 24 48  1  0
 24 49  1  0
M  ISO  8  25  13  26  13  27  13  28  13  29  13  30  13  31  13  32  14
M  ISO  8  33  14  34  14  35  14  36  14  37   8  38   8  39   8  40   8
M  ISO  8  41  13  42  13  43  13  44  13  45   5  46  13  47  13  48  13
M  ISO  1  49  13
M  END
>  <minimizedAffinity>  (1) 
-4.66828346

>  <minimizedRMSD>  (1) 
1.61834097

$$$$
