
     RDKit          3D

 47 50  0  0  1  0  0  0  0  0999 V2000
   38.7600   23.7400   36.1550 N   0  0  0  0  0  0  0  0  0  0  0  0
   37.6860   24.5130   36.7740 C   0  0  0  0  0  0  0  0  0  0  0  0
   37.6400   23.8960   38.1820 C   0  0  0  0  0  0  0  0  0  0  0  0
   38.9180   23.0890   38.3040 C   0  0  0  0  0  0  0  0  0  0  0  0
   39.7630   23.6990   37.2530 C   0  0  1  0  0  0  0  0  0  0  0  0
   38.8250   23.1830   34.8550 C   0  0  0  0  0  0  0  0  0  0  0  0
   38.2870   21.9340   34.5490 C   0  0  0  0  0  0  0  0  0  0  0  0
   38.4070   21.4810   33.2360 C   0  0  0  0  0  0  0  0  0  0  0  0
   39.0450   22.2840   32.3240 N   0  0  0  0  0  0  0  0  0  0  0  0
   39.5480   23.4800   32.6600 C   0  0  0  0  0  0  0  0  0  0  0  0
   39.4570   23.9610   33.9130 N   0  0  0  0  0  0  0  0  0  0  0  0
   40.9880   23.0060   36.9070 C   0  0  0  0  0  0  0  0  0  0  0  0
   41.2690   21.6560   37.2070 C   0  0  0  0  0  0  0  0  0  0  0  0
   42.5390   21.4060   36.6980 C   0  0  0  0  0  0  0  0  0  0  0  0
   42.9470   22.6110   36.1240 C   0  0  0  0  0  0  0  0  0  0  0  0
   42.0180   23.5140   36.2680 O   0  0  0  0  0  0  0  0  0  0  0  0
   44.2550   22.7940   35.4580 C   0  0  0  0  0  0  0  0  0  0  0  0
   44.7650   24.1680   35.8380 C   0  0  0  0  0  0  0  0  0  0  0  0
   45.2500   24.2070   37.1970 N   0  0  0  0  0  0  0  0  0  0  0  0
   46.6920   24.2180   37.2740 C   0  0  0  0  0  0  0  0  0  0  0  0
   47.1290   25.4880   37.9340 C   0  0  0  0  0  0  0  0  0  0  0  0
   45.8840   26.0630   38.5660 C   0  0  0  0  0  0  0  0  0  0  0  0
   44.7370   25.2570   38.0060 C   0  0  0  0  0  0  0  0  0  0  0  0
   37.9320   25.5845   36.8122 H   0  0  0  0  0  0  0  0  0  0  0  0
   36.7298   24.4680   36.2321 H   0  0  0  0  0  0  0  0  0  0  0  0
   37.6072   24.6848   38.9480 H   0  0  0  0  0  0  0  0  0  0  0  0
   36.7450   23.2737   38.3293 H   0  0  0  0  0  0  0  0  0  0  0  0
   39.3712   23.2048   39.2996 H   0  0  0  0  0  0  0  0  0  0  0  0
   38.7733   22.0050   38.1857 H   0  0  0  0  0  0  0  0  0  0  0  0
   40.2084   24.6599   37.5501 H   0  0  0  0  0  0  0  0  0  0  0  0
   37.7852   21.3269   35.3169 H   0  0  0  0  0  0  0  0  0  0  0  0
   38.0001   20.5034   32.9381 H   0  0  0  0  0  0  0  0  0  0  0  0
   40.0491   24.0850   31.8900 H   0  0  0  0  0  0  0  0  0  0  0  0
   40.6163   20.9458   37.7359 H   0  0  0  0  0  0  0  0  0  0  0  0
   43.1012   20.4614   36.7390 H   0  0  0  0  0  0  0  0  0  0  0  0
   44.1347   22.7256   34.3667 H   0  0  0  0  0  0  0  0  0  0  0  0
   44.9646   22.0144   35.7722 H   0  0  0  0  0  0  0  0  0  0  0  0
   45.5863   24.4423   35.1596 H   0  0  0  0  0  0  0  0  0  0  0  0
   43.9277   24.8766   35.7552 H   0  0  0  0  0  0  0  0  0  0  0  0
   47.0375   23.3565   37.8643 H   0  0  0  0  0  0  0  0  0  0  0  0
   47.1212   24.1547   36.2632 H   0  0  0  0  0  0  0  0  0  0  0  0
   47.8892   25.2806   38.7016 H   0  0  0  0  0  0  0  0  0  0  0  0
   47.5819   26.1867   37.2152 H   0  0  0  0  0  0  0  0  0  0  0  0
   45.9267   25.9615   39.6605 H   0  0  0  0  0  0  0  0  0  0  0  0
   45.7738   27.1354   38.3472 H   0  0  0  0  0  0  0  0  0  0  0  0
   44.0931   25.9086   37.3971 H   0  0  0  0  0  0  0  0  0  0  0  0
   44.1487   24.8311   38.8321 H   0  0  0  0  0  0  0  0  0  0  0  0
  1  2  1  0
  1  5  1  0
  2  3  1  0
  3  4  1  0
  5  4  1  0
  6  1  1  0
  7  6  2  0
  8  7  1  0
  9 10  1  0
  9  8  2  0
 10 11  2  0
 11  6  1  0
 12 13  2  0
 12  5  1  0
 14 13  1  0
 15 16  1  0
 15 14  2  0
 16 12  1  0
 17 18  1  0
 17 15  1  0
 18 19  1  0
 19 20  1  0
 19 23  1  0
 20 21  1  0
 21 22  1  0
 23 22  1  0
  2 24  1  0
  2 25  1  0
  3 26  1  0
  3 27  1  0
  4 28  1  0
  4 29  1  0
  5 30  1  1
  7 31  1  0
  8 32  1  0
 10 33  1  0
 13 34  1  0
 14 35  1  0
 17 36  1  0
 17 37  1  0
 18 38  1  0
 18 39  1  0
 20 40  1  0
 20 41  1  0
 21 42  1  0
 21 43  1  0
 22 44  1  0
 22 45  1  0
 23 46  1  0
 23 47  1  0
M  ISO  8  24  13  25  13  26  13  27  13  28  13  29  13  30  13  31  14
M  ISO  8  32  14  33  14  34  14  35  14  36   8  37   8  38   8  39   8
M  ISO  8  40  13  41  13  42  13  43  13  44  13  45  13  46  13  47  13
M  END
>  <minimizedAffinity>  (1) 
-4.61149931

>  <minimizedRMSD>  (1) 
1.37814212

$$$$
