
     RDKit          3D

 42 45  0  0  1  0  0  0  0  0999 V2000
   38.8200   23.7310   36.2480 N   0  0  0  0  0  0  0  0  0  0  0  0
   37.7170   24.5100   36.8170 C   0  0  0  0  0  0  0  0  0  0  0  0
   37.5940   23.9030   38.2030 C   0  0  0  0  0  0  0  0  0  0  0  0
   38.8580   23.0770   38.3910 C   0  0  0  0  0  0  0  0  0  0  0  0
   39.7720   23.6680   37.3900 C   0  0  1  0  0  0  0  0  0  0  0  0
   38.9350   23.1900   34.9380 C   0  0  0  0  0  0  0  0  0  0  0  0
   38.3680   21.9640   34.5990 C   0  0  0  0  0  0  0  0  0  0  0  0
   38.5370   21.5160   33.2910 C   0  0  0  0  0  0  0  0  0  0  0  0
   39.2580   22.3200   32.4170 N   0  0  0  0  0  0  0  0  0  0  0  0
   39.7800   23.4900   32.8010 C   0  0  0  0  0  0  0  0  0  0  0  0
   39.6410   23.9620   34.0500 N   0  0  0  0  0  0  0  0  0  0  0  0
   40.9930   22.9600   37.0960 C   0  0  0  0  0  0  0  0  0  0  0  0
   41.1970   21.5800   37.3140 C   0  0  0  0  0  0  0  0  0  0  0  0
   42.4910   21.3100   36.9000 C   0  0  0  0  0  0  0  0  0  0  0  0
   43.0010   22.5340   36.4560 C   0  0  0  0  0  0  0  0  0  0  0  0
   42.0930   23.4600   36.5910 O   0  0  0  0  0  0  0  0  0  0  0  0
   44.3710   22.7280   35.9170 C   0  0  0  0  0  0  0  0  0  0  0  0
   44.7090   24.2010   36.0830 C   0  0  0  0  0  0  0  0  0  0  0  0
   45.3600   24.4950   37.3890 C   0  0  0  0  0  0  0  0  0  0  0  0
   46.2250   25.6990   37.4930 C   0  0  0  0  0  0  0  0  0  0  0  0
   44.8170   25.6770   38.1460 C   0  0  0  0  0  0  0  0  0  0  0  0
   37.9667   25.5800   36.8687 H   0  0  0  0  0  0  0  0  0  0  0  0
   36.7895   24.4674   36.2271 H   0  0  0  0  0  0  0  0  0  0  0  0
   37.5326   24.6930   38.9659 H   0  0  0  0  0  0  0  0  0  0  0  0
   36.6850   23.2920   38.3048 H   0  0  0  0  0  0  0  0  0  0  0  0
   39.2580   23.1870   39.4098 H   0  0  0  0  0  0  0  0  0  0  0  0
   38.7014   21.9960   38.2607 H   0  0  0  0  0  0  0  0  0  0  0  0
   40.2297   24.6130   37.7179 H   0  0  0  0  0  0  0  0  0  0  0  0
   37.8074   21.3713   35.3369 H   0  0  0  0  0  0  0  0  0  0  0  0
   38.1131   20.5562   32.9606 H   0  0  0  0  0  0  0  0  0  0  0  0
   40.3429   24.0863   32.0678 H   0  0  0  0  0  0  0  0  0  0  0  0
   40.4735   20.8631   37.7293 H   0  0  0  0  0  0  0  0  0  0  0  0
   43.0076   20.3390   36.9169 H   0  0  0  0  0  0  0  0  0  0  0  0
   44.4011   22.4510   34.8529 H   0  0  0  0  0  0  0  0  0  0  0  0
   45.0962   22.0961   36.4507 H   0  0  0  0  0  0  0  0  0  0  0  0
   45.3919   24.4992   35.2739 H   0  0  0  0  0  0  0  0  0  0  0  0
   43.7657   24.7656   36.0462 H   0  0  0  0  0  0  0  0  0  0  0  0
   45.5243   23.4322   37.6204 H   0  0  0  0  0  0  0  0  0  0  0  0
   47.1261   25.6783   38.1235 H   0  0  0  0  0  0  0  0  0  0  0  0
   46.7444   26.3526   36.7767 H   0  0  0  0  0  0  0  0  0  0  0  0
   43.9994   26.2791   37.7229 H   0  0  0  0  0  0  0  0  0  0  0  0
   44.4126   25.8495   39.1543 H   0  0  0  0  0  0  0  0  0  0  0  0
  1  2  1  0
  1  5  1  0
  2  3  1  0
  3  4  1  0
  5  4  1  0
  6  1  1  0
  7  6  2  0
  8  7  1  0
  9 10  1  0
  9  8  2  0
 10 11  2  0
 11  6  1  0
 12 13  2  0
 12  5  1  0
 14 13  1  0
 15 16  1  0
 15 14  2  0
 16 12  1  0
 17 18  1  0
 17 15  1  0
 18 19  1  0
 19 20  1  0
 19 21  1  0
 20 21  1  0
  2 22  1  0
  2 23  1  0
  3 24  1  0
  3 25  1  0
  4 26  1  0
  4 27  1  0
  5 28  1  1
  7 29  1  0
  8 30  1  0
 10 31  1  0
 13 32  1  0
 14 33  1  0
 17 34  1  0
 17 35  1  0
 18 36  1  0
 18 37  1  0
 19 38  1  0
 20 39  1  0
 20 40  1  0
 21 41  1  0
 21 42  1  0
M  ISO  8  22  13  23  13  24  13  25  13  26  13  27  13  28  13  29  14
M  ISO  8  30  14  31  14  32  14  33  14  34   8  35   8  36   8  37   8
M  ISO  5  38  13  39  13  40  13  41  13  42  13
M  END
>  <minimizedAffinity>  (1) 
-4.47688818

>  <minimizedRMSD>  (1) 
1.06395698

$$$$
