
     RDKit          3D

 44 47  0  0  1  0  0  0  0  0999 V2000
   37.9950   23.2930   35.3110 N   0  0  0  0  0  0  0  0  0  0  0  0
   37.1650   22.7670   36.3900 C   0  0  0  0  0  0  0  0  0  0  0  0
   37.8220   23.3750   37.6180 C   0  0  0  0  0  0  0  0  0  0  0  0
   38.7400   24.4640   37.0780 C   0  0  0  0  0  0  0  0  0  0  0  0
   38.1610   24.7070   35.7390 C   0  0  1  0  0  0  0  0  0  0  0  0
   38.4980   22.6210   34.1630 C   0  0  0  0  0  0  0  0  0  0  0  0
   39.8300   22.2310   34.0610 C   0  0  0  0  0  0  0  0  0  0  0  0
   40.2170   21.5810   32.8900 C   0  0  0  0  0  0  0  0  0  0  0  0
   39.2680   21.3670   31.9160 N   0  0  0  0  0  0  0  0  0  0  0  0
   38.0010   21.7640   32.0680 C   0  0  0  0  0  0  0  0  0  0  0  0
   37.5680   22.3960   33.1770 N   0  0  0  0  0  0  0  0  0  0  0  0
   38.9300   25.5060   34.8180 C   0  0  0  0  0  0  0  0  0  0  0  0
   40.0710   26.2650   35.1560 C   0  0  0  0  0  0  0  0  0  0  0  0
   40.5080   26.8750   33.9950 C   0  0  0  0  0  0  0  0  0  0  0  0
   39.6310   26.4680   33.0110 C   0  0  0  0  0  0  0  0  0  0  0  0
   38.7260   25.6700   33.5350 O   0  0  0  0  0  0  0  0  0  0  0  0
   39.6720   26.8510   31.5800 C   0  0  0  0  0  0  0  0  0  0  0  0
   38.3510   26.5600   30.9470 C   0  0  0  0  0  0  0  0  0  0  0  0
   37.4250   27.6910   31.1130 C   0  0  0  0  0  0  0  0  0  0  0  0
   37.3500   29.0250   30.7900 C   0  0  0  0  0  0  0  0  0  0  0  0
   36.2850   29.8340   31.0950 C   0  0  0  0  0  0  0  0  0  0  0  0
   35.1950   29.3210   31.7680 C   0  0  0  0  0  0  0  0  0  0  0  0
   35.2790   27.9820   32.0850 C   0  0  0  0  0  0  0  0  0  0  0  0
   36.3310   27.2020   31.7800 N   0  0  0  0  0  0  0  0  0  0  0  0
   36.1211   23.0988   36.2895 H   0  0  0  0  0  0  0  0  0  0  0  0
   37.1112   21.6686   36.4134 H   0  0  0  0  0  0  0  0  0  0  0  0
   37.0638   23.8062   38.2882 H   0  0  0  0  0  0  0  0  0  0  0  0
   38.3726   22.6251   38.2050 H   0  0  0  0  0  0  0  0  0  0  0  0
   38.6997   25.3686   37.7025 H   0  0  0  0  0  0  0  0  0  0  0  0
   39.8035   24.1836   37.0606 H   0  0  0  0  0  0  0  0  0  0  0  0
   37.2558   25.3316   35.7628 H   0  0  0  0  0  0  0  0  0  0  0  0
   40.5479   22.4275   34.8710 H   0  0  0  0  0  0  0  0  0  0  0  0
   41.2554   21.2472   32.7478 H   0  0  0  0  0  0  0  0  0  0  0  0
   37.2842   21.5675   31.2571 H   0  0  0  0  0  0  0  0  0  0  0  0
   40.5260   26.3542   36.1535 H   0  0  0  0  0  0  0  0  0  0  0  0
   41.3733   27.5443   33.8800 H   0  0  0  0  0  0  0  0  0  0  0  0
   39.8904   27.9257   31.4945 H   0  0  0  0  0  0  0  0  0  0  0  0
   40.4574   26.2746   31.0693 H   0  0  0  0  0  0  0  0  0  0  0  0
   37.9155   25.6666   31.4184 H   0  0  0  0  0  0  0  0  0  0  0  0
   38.5080   26.3912   29.8714 H   0  0  0  0  0  0  0  0  0  0  0  0
   38.1988   29.4727   30.2522 H   0  0  0  0  0  0  0  0  0  0  0  0
   36.2999   30.8943   30.8024 H   0  0  0  0  0  0  0  0  0  0  0  0
   34.3222   29.9360   32.0324 H   0  0  0  0  0  0  0  0  0  0  0  0
   34.4341   27.5238   32.6200 H   0  0  0  0  0  0  0  0  0  0  0  0
  1  5  1  0
  1  2  1  0
  2  3  1  0
  4  3  1  0
  5  4  1  0
  6  1  1  0
  7  6  2  0
  8  7  1  0
  9 10  1  0
  9  8  2  0
 10 11  2  0
 11  6  1  0
 12 13  2  0
 12  5  1  0
 14 13  1  0
 15 16  1  0
 15 14  2  0
 16 12  1  0
 17 15  1  0
 18 19  1  0
 18 17  1  0
 19 24  2  0
 20 21  2  0
 20 19  1  0
 21 22  1  0
 22 23  2  0
 24 23  1  0
  2 25  1  0
  2 26  1  0
  3 27  1  0
  3 28  1  0
  4 29  1  0
  4 30  1  0
  5 31  1  1
  7 32  1  0
  8 33  1  0
 10 34  1  0
 13 35  1  0
 14 36  1  0
 17 37  1  0
 17 38  1  0
 18 39  1  0
 18 40  1  0
 20 41  1  0
 21 42  1  0
 22 43  1  0
 23 44  1  0
M  ISO  8  25  13  26  13  27  13  28  13  29  13  30  13  31  13  32  14
M  ISO  8  33  14  34  14  35  14  36  14  37   8  38   8  39   8  40   8
M  ISO  4  41  14  42  14  43  14  44  14
M  END
>  <minimizedAffinity>  (1) 
-4.18457937

>  <minimizedRMSD>  (1) 
7.36403656

$$$$
