
     RDKit          3D

 36 38  0  0  0  0  0  0  0  0999 V2000
   38.1470   23.7460   37.0730 C   0  0  0  0  0  0  0  0  0  0  0  0
   41.4680   21.9910   37.2340 C   0  0  0  0  0  0  0  0  0  0  0  0
   40.1630   22.3190   37.5410 C   0  0  0  0  0  0  0  0  0  0  0  0
   39.5330   23.3340   36.8200 C   0  0  0  0  0  0  0  0  0  0  0  0
   40.2430   23.9570   35.8420 N   0  0  0  0  0  0  0  0  0  0  0  0
   41.5100   23.6280   35.5560 C   0  0  0  0  0  0  0  0  0  0  0  0
   42.1280   22.6450   36.2490 N   0  0  0  0  0  0  0  0  0  0  0  0
   38.1210   24.4260   38.4440 C   0  0  0  0  0  0  0  0  0  0  0  0
   37.5710   24.6470   36.0110 C   0  0  0  0  0  0  0  0  0  0  0  0
   37.2660   22.5280   37.1360 C   0  0  0  0  0  0  0  0  0  0  0  0
   36.9830   21.9140   35.8480 C   0  0  0  0  0  0  0  0  0  0  0  0
   35.9050   21.1410   35.6170 C   0  0  0  0  0  0  0  0  0  0  0  0
   35.5780   20.5500   34.4640 C   0  0  0  0  0  0  0  0  0  0  0  0
   36.5980   20.8640   33.4270 C   0  0  0  0  0  0  0  0  0  0  0  0
   37.8520   21.9650   34.3090 S   0  0  0  0  0  0  0  0  0  0  0  0
   36.7430   20.5080   32.0700 N   0  0  0  0  0  0  0  0  0  0  0  0
   37.9090   20.7290   31.4350 C   0  0  0  0  0  0  0  0  0  0  0  0
   37.7150   20.2690   30.1290 C   0  0  0  0  0  0  0  0  0  0  0  0
   36.4570   19.8040   30.0550 N   0  0  0  0  0  0  0  0  0  0  0  0
   35.8410   19.9420   31.2420 C   0  0  0  0  0  0  0  0  0  0  0  0
   41.9760   21.1920   37.7939 H   0  0  0  0  0  0  0  0  0  0  0  0
   39.6276   21.7882   38.3420 H   0  0  0  0  0  0  0  0  0  0  0  0
   42.0481   24.1582   34.7564 H   0  0  0  0  0  0  0  0  0  0  0  0
   38.1503   23.6606   39.2335 H   0  0  0  0  0  0  0  0  0  0  0  0
   38.9945   25.0874   38.5419 H   0  0  0  0  0  0  0  0  0  0  0  0
   37.1995   25.0187   38.5419 H   0  0  0  0  0  0  0  0  0  0  0  0
   37.0372   25.4819   36.4885 H   0  0  0  0  0  0  0  0  0  0  0  0
   38.3844   25.0421   35.3847 H   0  0  0  0  0  0  0  0  0  0  0  0
   36.8710   24.0746   35.3847 H   0  0  0  0  0  0  0  0  0  0  0  0
   37.7621   21.7790   37.7708 H   0  0  0  0  0  0  0  0  0  0  0  0
   36.2992   22.8649   37.5382 H   0  0  0  0  0  0  0  0  0  0  0  0
   35.2232   20.9793   36.4649 H   0  0  0  0  0  0  0  0  0  0  0  0
   34.6873   19.9244   34.3051 H   0  0  0  0  0  0  0  0  0  0  0  0
   38.8217   21.1769   31.8548 H   0  0  0  0  0  0  0  0  0  0  0  0
   38.4542   20.2849   29.3146 H   0  0  0  0  0  0  0  0  0  0  0  0
   34.8090   19.6517   31.4884 H   0  0  0  0  0  0  0  0  0  0  0  0
  1 10  1  0
  1  8  1  0
  2  3  2  0
  4  1  1  0
  4  3  1  0
  5  4  2  0
  6  5  1  0
  6  7  2  0
  7  2  1  0
  9  1  1  0
 11 10  1  0
 12 11  2  0
 13 12  1  0
 14 15  1  0
 14 13  2  0
 15 11  1  0
 16 14  1  0
 17 16  1  0
 18 17  2  0
 19 18  1  0
 19 20  2  0
 20 16  1  0
  2 21  1  0
  3 22  1  0
  6 23  1  0
  8 24  1  0
  8 25  1  0
  8 26  1  0
  9 27  1  0
  9 28  1  0
  9 29  1  0
 10 30  1  0
 10 31  1  0
 12 32  1  0
 13 33  1  0
 17 34  1  0
 18 35  1  0
 20 36  1  0
M  ISO  8  21  14  22  14  23  14  24   8  25   8  26   8  27   8  28   8
M  ISO  8  29   8  30   8  31   8  32  14  33  14  34  14  35  14  36  14
M  END
>  <minimizedAffinity>  (1) 
-4.59397459

>  <minimizedRMSD>  (1) 
0.26113373

$$$$
