
     RDKit          3D

 40 42  0  0  1  0  0  0  0  0999 V2000
   38.8080   23.7850   36.3610 N   0  0  0  0  0  0  0  0  0  0  0  0
   37.8470   24.6880   37.0180 C   0  0  0  0  0  0  0  0  0  0  0  0
   37.8110   24.1230   38.4240 C   0  0  0  0  0  0  0  0  0  0  0  0
   39.0080   23.2010   38.5080 C   0  0  0  0  0  0  0  0  0  0  0  0
   39.8730   23.6480   37.4190 C   0  0  1  0  0  0  0  0  0  0  0  0
   38.7320   23.2120   35.0660 C   0  0  0  0  0  0  0  0  0  0  0  0
   38.0630   22.0290   34.8310 C   0  0  0  0  0  0  0  0  0  0  0  0
   38.0530   21.5530   33.5200 C   0  0  0  0  0  0  0  0  0  0  0  0
   38.7150   22.2980   32.5440 N   0  0  0  0  0  0  0  0  0  0  0  0
   39.3420   23.4330   32.8390 C   0  0  0  0  0  0  0  0  0  0  0  0
   39.3830   23.9370   34.0830 N   0  0  0  0  0  0  0  0  0  0  0  0
   40.9830   22.8390   37.0120 C   0  0  0  0  0  0  0  0  0  0  0  0
   41.1630   21.4880   37.4120 C   0  0  0  0  0  0  0  0  0  0  0  0
   42.3400   21.0680   36.8120 C   0  0  0  0  0  0  0  0  0  0  0  0
   42.8020   22.1670   36.0930 C   0  0  0  0  0  0  0  0  0  0  0  0
   41.9740   23.1780   36.2410 O   0  0  0  0  0  0  0  0  0  0  0  0
   44.0450   22.1800   35.2840 C   0  0  0  0  0  0  0  0  0  0  0  0
   45.0820   23.0060   36.0540 C   0  0  0  0  0  0  0  0  0  0  0  0
   45.0780   24.3260   35.6740 O   0  0  0  0  0  0  0  0  0  0  0  0
   44.7400   25.4040   36.4780 C   0  0  0  0  0  0  0  0  0  0  0  0
   44.7120   26.6550   35.8380 N   0  0  0  0  0  0  0  0  0  0  0  0
   44.4960   25.1670   37.6730 O   0  0  0  0  0  0  0  0  0  0  0  0
   38.2049   25.7281   37.0123 H   0  0  0  0  0  0  0  0  0  0  0  0
   36.8636   24.7294   36.5268 H   0  0  0  0  0  0  0  0  0  0  0  0
   37.8921   24.9301   39.1669 H   0  0  0  0  0  0  0  0  0  0  0  0
   36.8685   23.5956   38.6327 H   0  0  0  0  0  0  0  0  0  0  0  0
   39.5150   23.3054   39.4786 H   0  0  0  0  0  0  0  0  0  0  0  0
   38.7326   22.1395   38.4225 H   0  0  0  0  0  0  0  0  0  0  0  0
   40.4672   24.5326   37.6918 H   0  0  0  0  0  0  0  0  0  0  0  0
   37.5589   21.4842   35.6428 H   0  0  0  0  0  0  0  0  0  0  0  0
   37.5373   20.6160   33.2628 H   0  0  0  0  0  0  0  0  0  0  0  0
   39.8478   23.9815   32.0308 H   0  0  0  0  0  0  0  0  0  0  0  0
   40.5037   20.8964   38.0641 H   0  0  0  0  0  0  0  0  0  0  0  0
   42.8096   20.0762   36.8879 H   0  0  0  0  0  0  0  0  0  0  0  0
   43.8510   22.6391   34.3034 H   0  0  0  0  0  0  0  0  0  0  0  0
   44.4103   21.1563   35.1152 H   0  0  0  0  0  0  0  0  0  0  0  0
   44.8559   22.9458   37.1288 H   0  0  0  0  0  0  0  0  0  0  0  0
   46.0768   22.5928   35.8311 H   0  0  0  0  0  0  0  0  0  0  0  0
   44.4691   27.5015   36.3722 H   0  0  0  0  0  0  0  0  0  0  0  0
   44.9344   26.7253   34.8348 H   0  0  0  0  0  0  0  0  0  0  0  0
  1  2  1  0
  1  5  1  0
  2  3  1  0
  3  4  1  0
  5  4  1  0
  6  1  1  0
  7  6  2  0
  8  7  1  0
  9 10  1  0
  9  8  2  0
 10 11  2  0
 11  6  1  0
 12 13  2  0
 12  5  1  0
 14 13  1  0
 15 16  1  0
 15 14  2  0
 16 12  1  0
 17 18  1  0
 17 15  1  0
 19 18  1  0
 19 20  1  0
 20 22  2  0
 21 20  1  0
  2 23  1  0
  2 24  1  0
  3 25  1  0
  3 26  1  0
  4 27  1  0
  4 28  1  0
  5 29  1  1
  7 30  1  0
  8 31  1  0
 10 32  1  0
 13 33  1  0
 14 34  1  0
 17 35  1  0
 17 36  1  0
 18 37  1  0
 18 38  1  0
 21 39  1  0
 21 40  1  0
M  ISO  8  23  13  24  13  25  13  26  13  27  13  28  13  29  13  30  14
M  ISO  8  31  14  32  14  33  14  34  14  35   8  36   8  37   8  38   8
M  END
>  <minimizedAffinity>  (1) 
-4.22888231

>  <minimizedRMSD>  (1) 
0.540500104

$$$$
