
     RDKit          3D

 38 40  0  0  1  0  0  0  0  0999 V2000
   38.7480   23.7200   36.1880 N   0  0  0  0  0  0  0  0  0  0  0  0
   37.6490   24.4920   36.7910 C   0  0  0  0  0  0  0  0  0  0  0  0
   37.5920   23.9010   38.1820 C   0  0  0  0  0  0  0  0  0  0  0  0
   38.8640   23.0950   38.3230 C   0  0  0  0  0  0  0  0  0  0  0  0
   39.7500   23.6710   37.3130 C   0  0  1  0  0  0  0  0  0  0  0  0
   38.8190   23.1760   34.8800 C   0  0  0  0  0  0  0  0  0  0  0  0
   38.3000   21.9340   34.5740 C   0  0  0  0  0  0  0  0  0  0  0  0
   38.4280   21.4940   33.2590 C   0  0  0  0  0  0  0  0  0  0  0  0
   39.0670   22.3300   32.3430 N   0  0  0  0  0  0  0  0  0  0  0  0
   39.5480   23.5190   32.7020 C   0  0  0  0  0  0  0  0  0  0  0  0
   39.4470   23.9830   33.9530 N   0  0  0  0  0  0  0  0  0  0  0  0
   40.9660   22.9930   36.9670 C   0  0  0  0  0  0  0  0  0  0  0  0
   41.2310   21.6350   37.2870 C   0  0  0  0  0  0  0  0  0  0  0  0
   42.4930   21.3660   36.7830 C   0  0  0  0  0  0  0  0  0  0  0  0
   42.9200   22.5630   36.1910 C   0  0  0  0  0  0  0  0  0  0  0  0
   41.9880   23.4780   36.3270 O   0  0  0  0  0  0  0  0  0  0  0  0
   44.2260   22.7410   35.5200 C   0  0  0  0  0  0  0  0  0  0  0  0
   45.1030   23.5680   36.4500 C   0  0  0  0  0  0  0  0  0  0  0  0
   44.7770   24.9060   36.4310 O   0  0  0  0  0  0  0  0  0  0  0  0
   45.2220   25.8230   37.3900 C   0  0  0  0  0  0  0  0  0  0  0  0
   44.6530   25.8640   38.5320 O   0  0  0  0  0  0  0  0  0  0  0  0
   37.8819   25.5667   36.8204 H   0  0  0  0  0  0  0  0  0  0  0  0
   36.7004   24.4283   36.2378 H   0  0  0  0  0  0  0  0  0  0  0  0
   37.5548   24.6985   38.9387 H   0  0  0  0  0  0  0  0  0  0  0  0
   36.6947   23.2820   38.3292 H   0  0  0  0  0  0  0  0  0  0  0  0
   39.2910   23.2082   39.3304 H   0  0  0  0  0  0  0  0  0  0  0  0
   38.7034   22.0156   38.1850 H   0  0  0  0  0  0  0  0  0  0  0  0
   40.2244   24.6061   37.6455 H   0  0  0  0  0  0  0  0  0  0  0  0
   37.8052   21.3166   35.3382 H   0  0  0  0  0  0  0  0  0  0  0  0
   38.0358   20.5136   32.9508 H   0  0  0  0  0  0  0  0  0  0  0  0
   40.0456   24.1413   31.9436 H   0  0  0  0  0  0  0  0  0  0  0  0
   40.5699   20.9395   37.8247 H   0  0  0  0  0  0  0  0  0  0  0  0
   43.0433   20.4150   36.8360 H   0  0  0  0  0  0  0  0  0  0  0  0
   44.6913   21.7614   35.3358 H   0  0  0  0  0  0  0  0  0  0  0  0
   44.1006   23.2462   34.5509 H   0  0  0  0  0  0  0  0  0  0  0  0
   44.9834   23.1903   37.4762 H   0  0  0  0  0  0  0  0  0  0  0  0
   46.1422   23.4722   36.1024 H   0  0  0  0  0  0  0  0  0  0  0  0
   46.0557   26.5032   37.1615 H   0  0  0  0  0  0  0  0  0  0  0  0
  1  2  1  0
  1  5  1  0
  2  3  1  0
  3  4  1  0
  5  4  1  0
  6  1  1  0
  7  6  2  0
  8  7  1  0
  9 10  1  0
  9  8  2  0
 10 11  2  0
 11  6  1  0
 12 13  2  0
 12  5  1  0
 14 13  1  0
 15 16  1  0
 15 14  2  0
 16 12  1  0
 17 15  1  0
 17 18  1  0
 19 18  1  0
 19 20  1  0
 20 21  2  0
  2 22  1  0
  2 23  1  0
  3 24  1  0
  3 25  1  0
  4 26  1  0
  4 27  1  0
  5 28  1  1
  7 29  1  0
  8 30  1  0
 10 31  1  0
 13 32  1  0
 14 33  1  0
 17 34  1  0
 17 35  1  0
 18 36  1  0
 18 37  1  0
 20 38  1  0
M  ISO  8  22  13  23  13  24  13  25  13  26  13  27  13  28  13  29  14
M  ISO  8  30  14  31  14  32  14  33  14  34   8  35   8  36   8  37   8
M  ISO  1  38   6
M  END
>  <minimizedAffinity>  (1) 
-3.93469453

>  <minimizedRMSD>  (1) 
0.577400625

$$$$
