
     RDKit          3D

 39 41  0  0  1  0  0  0  0  0999 V2000
   38.9260   23.7830   36.3690 N   0  0  0  0  0  0  0  0  0  0  0  0
   37.8990   24.6450   36.9840 C   0  0  0  0  0  0  0  0  0  0  0  0
   37.7780   24.0450   38.3630 C   0  0  0  0  0  0  0  0  0  0  0  0
   38.9950   23.1440   38.5080 C   0  0  0  0  0  0  0  0  0  0  0  0
   39.9190   23.6410   37.4930 C   0  0  1  0  0  0  0  0  0  0  0  0
   38.9500   23.2470   35.0550 C   0  0  0  0  0  0  0  0  0  0  0  0
   38.3900   22.0210   34.7560 C   0  0  0  0  0  0  0  0  0  0  0  0
   38.4760   21.5910   33.4310 C   0  0  0  0  0  0  0  0  0  0  0  0
   39.1140   22.4180   32.5060 N   0  0  0  0  0  0  0  0  0  0  0  0
   39.6340   23.5920   32.8600 C   0  0  0  0  0  0  0  0  0  0  0  0
   39.5790   24.0540   34.1230 N   0  0  0  0  0  0  0  0  0  0  0  0
   41.0720   22.8630   37.1380 C   0  0  0  0  0  0  0  0  0  0  0  0
   41.1920   21.4700   37.3910 C   0  0  0  0  0  0  0  0  0  0  0  0
   42.4360   21.1000   36.9030 C   0  0  0  0  0  0  0  0  0  0  0  0
   42.9940   22.2720   36.3890 C   0  0  0  0  0  0  0  0  0  0  0  0
   42.1570   23.2720   36.5530 O   0  0  0  0  0  0  0  0  0  0  0  0
   44.3280   22.3620   35.7590 C   0  0  0  0  0  0  0  0  0  0  0  0
   45.0060   23.6220   36.2930 C   0  0  0  0  0  0  0  0  0  0  0  0
   45.0090   24.6290   35.3520 O   0  0  0  0  0  0  0  0  0  0  0  0
   44.9930   25.8680   35.9710 C   0  0  0  0  0  0  0  0  0  0  0  0
   38.2310   25.6927   37.0308 H   0  0  0  0  0  0  0  0  0  0  0  0
   36.9511   24.6756   36.4267 H   0  0  0  0  0  0  0  0  0  0  0  0
   37.7870   24.8335   39.1299 H   0  0  0  0  0  0  0  0  0  0  0  0
   36.8362   23.4915   38.4918 H   0  0  0  0  0  0  0  0  0  0  0  0
   39.4318   23.2342   39.5135 H   0  0  0  0  0  0  0  0  0  0  0  0
   38.7535   22.0787   38.3784 H   0  0  0  0  0  0  0  0  0  0  0  0
   40.4710   24.5309   37.8296 H   0  0  0  0  0  0  0  0  0  0  0  0
   37.8981   21.4104   35.5275 H   0  0  0  0  0  0  0  0  0  0  0  0
   38.0513   20.6240   33.1236 H   0  0  0  0  0  0  0  0  0  0  0  0
   40.1265   24.2065   32.0920 H   0  0  0  0  0  0  0  0  0  0  0  0
   40.4497   20.8183   37.8751 H   0  0  0  0  0  0  0  0  0  0  0  0
   42.8871   20.0969   36.9177 H   0  0  0  0  0  0  0  0  0  0  0  0
   44.2231   22.4269   34.6659 H   0  0  0  0  0  0  0  0  0  0  0  0
   44.9279   21.4706   35.9949 H   0  0  0  0  0  0  0  0  0  0  0  0
   44.4651   23.9683   37.1860 H   0  0  0  0  0  0  0  0  0  0  0  0
   46.0493   23.3756   36.5395 H   0  0  0  0  0  0  0  0  0  0  0  0
   44.9947   25.7326   37.0626 H   0  0  0  0  0  0  0  0  0  0  0  0
   45.8838   26.4393   35.6710 H   0  0  0  0  0  0  0  0  0  0  0  0
   44.0877   26.4161   35.6710 H   0  0  0  0  0  0  0  0  0  0  0  0
  1  2  1  0
  1  5  1  0
  2  3  1  0
  3  4  1  0
  5  4  1  0
  6  1  1  0
  7  6  2  0
  8  7  1  0
  9 10  1  0
  9  8  2  0
 10 11  2  0
 11  6  1  0
 12 13  2  0
 12  5  1  0
 14 13  1  0
 15 16  1  0
 15 14  2  0
 16 12  1  0
 17 18  1  0
 17 15  1  0
 19 20  1  0
 19 18  1  0
  2 21  1  0
  2 22  1  0
  3 23  1  0
  3 24  1  0
  4 25  1  0
  4 26  1  0
  5 27  1  1
  7 28  1  0
  8 29  1  0
 10 30  1  0
 13 31  1  0
 14 32  1  0
 17 33  1  0
 17 34  1  0
 18 35  1  0
 18 36  1  0
 20 37  1  0
 20 38  1  0
 20 39  1  0
M  ISO  8  21  13  22  13  23  13  24  13  25  13  26  13  27  13  28  14
M  ISO  8  29  14  30  14  31  14  32  14  33   8  34   8  35   8  36   8
M  ISO  3  37   8  38   8  39   8
M  END
>  <minimizedAffinity>  (1) 
-3.81717467

>  <minimizedRMSD>  (1) 
0.224271551

$$$$
