
     RDKit          3D

 30 32  0  0  1  0  0  0  0  0999 V2000
   38.2000   22.8120   35.9320 N   0  0  0  0  0  0  0  0  0  0  0  0
   39.5820   22.5600   36.2530 C   0  0  0  0  0  0  0  0  0  0  0  0
   39.9640   22.6870   37.6690 C   0  0  0  0  0  0  0  0  0  0  0  0
   39.2000   23.6250   38.5310 C   0  0  0  0  0  0  0  0  0  0  0  0
   37.7760   23.8180   38.0870 C   0  0  0  0  0  0  0  0  0  0  0  0
   37.7510   24.0240   36.5700 C   0  0  1  0  0  0  0  0  0  0  0  0
   37.3870   21.9800   35.1000 C   0  0  0  0  0  0  0  0  0  0  0  0
   37.5640   21.8040   33.7230 C   0  0  0  0  0  0  0  0  0  0  0  0
   36.6820   20.9570   33.0610 C   0  0  0  0  0  0  0  0  0  0  0  0
   35.6960   20.3450   33.7770 N   0  0  0  0  0  0  0  0  0  0  0  0
   35.5620   20.5410   35.0980 C   0  0  0  0  0  0  0  0  0  0  0  0
   36.3970   21.3500   35.7580 N   0  0  0  0  0  0  0  0  0  0  0  0
   38.4350   25.2410   36.1390 C   0  0  0  0  0  0  0  0  0  0  0  0
   38.2770   26.4960   36.5960 N   0  0  0  0  0  0  0  0  0  0  0  0
   39.0700   27.3020   35.9560 O   0  0  0  0  0  0  0  0  0  0  0  0
   39.7560   26.6050   35.0770 C   0  0  0  0  0  0  0  0  0  0  0  0
   39.3850   25.3140   35.1630 N   0  0  0  0  0  0  0  0  0  0  0  0
   39.8166   21.5334   35.9349 H   0  0  0  0  0  0  0  0  0  0  0  0
   40.1488   23.3433   35.7285 H   0  0  0  0  0  0  0  0  0  0  0  0
   39.8752   21.6874   38.1195 H   0  0  0  0  0  0  0  0  0  0  0  0
   40.9758   23.1174   37.6359 H   0  0  0  0  0  0  0  0  0  0  0  0
   39.1948   23.2298   39.5575 H   0  0  0  0  0  0  0  0  0  0  0  0
   39.6965   24.6044   38.4655 H   0  0  0  0  0  0  0  0  0  0  0  0
   37.1843   22.9283   38.3483 H   0  0  0  0  0  0  0  0  0  0  0  0
   37.3459   24.6973   38.5888 H   0  0  0  0  0  0  0  0  0  0  0  0
   36.7177   24.2089   36.2414 H   0  0  0  0  0  0  0  0  0  0  0  0
   38.3729   22.3179   33.1830 H   0  0  0  0  0  0  0  0  0  0  0  0
   36.7780   20.7837   31.9790 H   0  0  0  0  0  0  0  0  0  0  0  0
   34.7555   20.0299   35.6441 H   0  0  0  0  0  0  0  0  0  0  0  0
   40.5091   27.0103   34.3852 H   0  0  0  0  0  0  0  0  0  0  0  0
  1  2  1  0
  1  6  1  0
  2  3  1  0
  3  4  1  0
  5  4  1  0
  6  5  1  0
  7 12  1  0
  7  1  1  0
  8  7  2  0
  9  8  1  0
  9 10  2  0
 10 11  1  0
 11 12  2  0
 13  6  1  0
 13 14  2  0
 15 14  1  0
 16 17  2  0
 16 15  1  0
 17 13  1  0
  2 18  1  0
  2 19  1  0
  3 20  1  0
  3 21  1  0
  4 22  1  0
  4 23  1  0
  5 24  1  0
  5 25  1  0
  6 26  1  6
  8 27  1  0
  9 28  1  0
 11 29  1  0
 16 30  1  0
M  ISO  8  18  13  19  13  20  13  21  13  22  13  23  13  24  13  25  13
M  ISO  5  26  13  27  14  28  14  29  14  30  14
M  END
>  <minimizedAffinity>  (1) 
-4.97454309

>  <minimizedRMSD>  (1) 
1.61171627

$$$$
