
     RDKit          3D

 38 39  0  0  0  0  0  0  0  0999 V2000
   38.2570   23.5910   37.0320 C   0  0  0  0  0  0  0  0  0  0  0  0
   41.6520   21.9580   37.1230 C   0  0  0  0  0  0  0  0  0  0  0  0
   40.3280   22.2080   37.4550 C   0  0  0  0  0  0  0  0  0  0  0  0
   39.6540   23.2390   36.7670 C   0  0  0  0  0  0  0  0  0  0  0  0
   40.3230   23.9440   35.8110 N   0  0  0  0  0  0  0  0  0  0  0  0
   41.6090   23.6680   35.5210 C   0  0  0  0  0  0  0  0  0  0  0  0
   42.2680   22.6850   36.1700 N   0  0  0  0  0  0  0  0  0  0  0  0
   38.2040   24.1760   38.4520 C   0  0  0  0  0  0  0  0  0  0  0  0
   37.6430   24.5230   36.0470 C   0  0  0  0  0  0  0  0  0  0  0  0
   37.4130   22.3340   37.0410 C   0  0  0  0  0  0  0  0  0  0  0  0
   37.0380   21.8650   35.7160 C   0  0  0  0  0  0  0  0  0  0  0  0
   35.9810   21.0620   35.4880 C   0  0  0  0  0  0  0  0  0  0  0  0
   35.5710   20.6050   34.2930 C   0  0  0  0  0  0  0  0  0  0  0  0
   36.4670   21.1180   33.2260 C   0  0  0  0  0  0  0  0  0  0  0  0
   37.7450   22.1680   34.1040 S   0  0  0  0  0  0  0  0  0  0  0  0
   36.4660   20.9250   31.7660 C   0  0  0  0  0  0  0  0  0  0  0  0
   35.7940   19.6430   31.3490 C   0  0  0  0  0  0  0  0  0  0  0  0
   35.7340   22.1020   31.2180 C   0  0  0  0  0  0  0  0  0  0  0  0
   42.2032   21.1599   37.6419 H   0  0  0  0  0  0  0  0  0  0  0  0
   39.8187   21.6193   38.2322 H   0  0  0  0  0  0  0  0  0  0  0  0
   42.1284   24.2507   34.7460 H   0  0  0  0  0  0  0  0  0  0  0  0
   38.2778   23.3612   39.1872 H   0  0  0  0  0  0  0  0  0  0  0  0
   39.0426   24.8738   38.5926 H   0  0  0  0  0  0  0  0  0  0  0  0
   37.2536   24.7118   38.5926 H   0  0  0  0  0  0  0  0  0  0  0  0
   37.1142   25.3256   36.5819 H   0  0  0  0  0  0  0  0  0  0  0  0
   38.4305   24.9601   35.4156 H   0  0  0  0  0  0  0  0  0  0  0  0
   36.9305   23.9719   35.4156 H   0  0  0  0  0  0  0  0  0  0  0  0
   37.9834   21.5377   37.5414 H   0  0  0  0  0  0  0  0  0  0  0  0
   36.4794   22.5806   37.5679 H   0  0  0  0  0  0  0  0  0  0  0  0
   35.3963   20.7499   36.3659 H   0  0  0  0  0  0  0  0  0  0  0  0
   34.7027   19.9498   34.1297 H   0  0  0  0  0  0  0  0  0  0  0  0
   37.4950   20.8485   31.3849 H   0  0  0  0  0  0  0  0  0  0  0  0
   35.4971   19.0767   32.2441 H   0  0  0  0  0  0  0  0  0  0  0  0
   34.9016   19.8751   30.7492 H   0  0  0  0  0  0  0  0  0  0  0  0
   36.4926   19.0411   30.7492 H   0  0  0  0  0  0  0  0  0  0  0  0
   35.3525   22.7153   32.0476 H   0  0  0  0  0  0  0  0  0  0  0  0
   36.4173   22.7040   30.6010 H   0  0  0  0  0  0  0  0  0  0  0  0
   34.8919   21.7553   30.6010 H   0  0  0  0  0  0  0  0  0  0  0  0
  1 10  1  0
  1  8  1  0
  2  3  2  0
  4  1  1  0
  4  3  1  0
  5  4  2  0
  6  5  1  0
  6  7  2  0
  7  2  1  0
  9  1  1  0
 11 10  1  0
 12 11  2  0
 13 12  1  0
 14 15  1  0
 14 13  2  0
 15 11  1  0
 16 14  1  0
 17 16  1  0
 18 16  1  0
  2 19  1  0
  3 20  1  0
  6 21  1  0
  8 22  1  0
  8 23  1  0
  8 24  1  0
  9 25  1  0
  9 26  1  0
  9 27  1  0
 10 28  1  0
 10 29  1  0
 12 30  1  0
 13 31  1  0
 16 32  1  0
 17 33  1  0
 17 34  1  0
 17 35  1  0
 18 36  1  0
 18 37  1  0
 18 38  1  0
M  ISO  8  19  14  20  14  21  14  22   8  23   8  24   8  25   8  26   8
M  ISO  8  27   8  28   8  29   8  30  14  31  14  32   8  33   8  34   8
M  ISO  4  35   8  36   8  37   8  38   8
M  END
>  <minimizedAffinity>  (1) 
-4.5305829

>  <minimizedRMSD>  (1) 
0.32879886

$$$$
