
     RDKit          3D

 28 29  0  0  1  0  0  0  0  0999 V2000
   38.1570   22.7620   35.9610 N   0  0  0  0  0  0  0  0  0  0  0  0
   39.5690   22.6300   36.1660 C   0  0  0  0  0  0  0  0  0  0  0  0
   40.0610   22.6610   37.5640 C   0  0  0  0  0  0  0  0  0  0  0  0
   39.2340   23.3500   38.5920 C   0  0  0  0  0  0  0  0  0  0  0  0
   37.7680   23.4280   38.2540 C   0  0  0  0  0  0  0  0  0  0  0  0
   37.6490   23.8050   36.7810 C   0  0  1  0  0  0  0  0  0  0  0  0
   37.3900   21.9600   35.0650 C   0  0  0  0  0  0  0  0  0  0  0  0
   37.6270   21.8200   33.7000 C   0  0  0  0  0  0  0  0  0  0  0  0
   36.7580   20.9820   32.9860 C   0  0  0  0  0  0  0  0  0  0  0  0
   35.7470   20.3580   33.6450 N   0  0  0  0  0  0  0  0  0  0  0  0
   35.5570   20.5230   34.9630 C   0  0  0  0  0  0  0  0  0  0  0  0
   36.3750   21.3220   35.6770 N   0  0  0  0  0  0  0  0  0  0  0  0
   38.1390   25.1890   36.5170 C   0  0  0  0  0  0  0  0  0  0  0  0
   37.2510   25.8390   35.6830 F   0  0  0  0  0  0  0  0  0  0  0  0
   39.3620   25.2760   35.9400 F   0  0  0  0  0  0  0  0  0  0  0  0
   38.1820   25.8370   37.7380 F   0  0  0  0  0  0  0  0  0  0  0  0
   39.8775   21.6689   35.7288 H   0  0  0  0  0  0  0  0  0  0  0  0
   40.0065   23.5220   35.6939 H   0  0  0  0  0  0  0  0  0  0  0  0
   40.1807   21.6171   37.8895 H   0  0  0  0  0  0  0  0  0  0  0  0
   40.9818   23.2605   37.5126 H   0  0  0  0  0  0  0  0  0  0  0  0
   39.3406   22.8058   39.5420 H   0  0  0  0  0  0  0  0  0  0  0  0
   39.6005   24.3855   38.6507 H   0  0  0  0  0  0  0  0  0  0  0  0
   37.2908   22.4527   38.4304 H   0  0  0  0  0  0  0  0  0  0  0  0
   37.2676   24.1778   38.8843 H   0  0  0  0  0  0  0  0  0  0  0  0
   36.5913   23.8792   36.4880 H   0  0  0  0  0  0  0  0  0  0  0  0
   38.4581   22.3429   33.2042 H   0  0  0  0  0  0  0  0  0  0  0  0
   36.8935   20.8317   31.9048 H   0  0  0  0  0  0  0  0  0  0  0  0
   34.7278   20.0025   35.4645 H   0  0  0  0  0  0  0  0  0  0  0  0
  1  2  1  0
  1  6  1  0
  2  3  1  0
  3  4  1  0
  5  4  1  0
  6  5  1  0
  7 12  1  0
  7  1  1  0
  8  7  2  0
  9 10  2  0
  9  8  1  0
 10 11  1  0
 11 12  2  0
 13  6  1  0
 13 16  1  0
 14 13  1  0
 15 13  1  0
  2 17  1  0
  2 18  1  0
  3 19  1  0
  3 20  1  0
  4 21  1  0
  4 22  1  0
  5 23  1  0
  5 24  1  0
  6 25  1  6
  8 26  1  0
  9 27  1  0
 11 28  1  0
M  ISO  8  17  13  18  13  19  13  20  13  21  13  22  13  23  13  24  13
M  ISO  4  25  13  26  14  27  14  28  14
M  END
>  <minimizedAffinity>  (1) 
-4.8307333

>  <minimizedRMSD>  (1) 
1.52982378

$$$$
