
     RDKit          3D

 35 37  0  0  1  0  0  0  0  0999 V2000
   39.1390   23.4770   36.0100 N   0  0  0  0  0  0  0  0  0  0  0  0
   39.6150   22.8830   37.2370 C   0  0  0  0  0  0  0  0  0  0  0  0
   38.8320   23.1690   38.4520 C   0  0  0  0  0  0  0  0  0  0  0  0
   38.0930   24.4520   38.5390 C   0  0  0  0  0  0  0  0  0  0  0  0
   37.6550   24.9740   37.1920 C   0  0  0  0  0  0  0  0  0  0  0  0
   38.8600   24.8780   36.2250 C   0  0  2  0  0  0  0  0  0  0  0  0
   38.9730   22.7800   34.7770 C   0  0  0  0  0  0  0  0  0  0  0  0
   39.9390   22.6530   33.7860 C   0  0  0  0  0  0  0  0  0  0  0  0
   39.6270   21.9420   32.6380 C   0  0  0  0  0  0  0  0  0  0  0  0
   38.3840   21.3980   32.5320 N   0  0  0  0  0  0  0  0  0  0  0  0
   37.4690   21.5350   33.5050 C   0  0  0  0  0  0  0  0  0  0  0  0
   37.7600   22.2190   34.6160 N   0  0  0  0  0  0  0  0  0  0  0  0
   38.6360   25.6420   35.0400 N   0  0  0  0  0  0  0  0  0  0  0  0
   37.4350   25.7690   34.4450 C   0  0  0  0  0  0  0  0  0  0  0  0
   37.2380   26.5180   33.2900 C   0  0  0  0  0  0  0  0  0  0  0  0
   38.2990   27.1790   32.6970 C   0  0  0  0  0  0  0  0  0  0  0  0
   38.2360   27.8740   31.6660 O   0  0  0  0  0  0  0  0  0  0  0  0
   39.5050   27.0580   33.2830 N   0  0  0  0  0  0  0  0  0  0  0  0
   39.6210   26.3160   34.3990 C   0  0  0  0  0  0  0  0  0  0  0  0
   40.7880   26.2380   34.9130 O   0  0  0  0  0  0  0  0  0  0  0  0
   39.6285   21.7920   37.0971 H   0  0  0  0  0  0  0  0  0  0  0  0
   40.6031   23.3327   37.4144 H   0  0  0  0  0  0  0  0  0  0  0  0
   38.0923   22.3618   38.5576 H   0  0  0  0  0  0  0  0  0  0  0  0
   39.5897   23.2435   39.2459 H   0  0  0  0  0  0  0  0  0  0  0  0
   37.2001   24.3003   39.1632 H   0  0  0  0  0  0  0  0  0  0  0  0
   38.7767   25.1962   38.9734 H   0  0  0  0  0  0  0  0  0  0  0  0
   36.8209   24.3671   36.8100 H   0  0  0  0  0  0  0  0  0  0  0  0
   37.3176   26.0174   37.2786 H   0  0  0  0  0  0  0  0  0  0  0  0
   39.7642   25.3320   36.6565 H   0  0  0  0  0  0  0  0  0  0  0  0
   40.9326   23.1083   33.9104 H   0  0  0  0  0  0  0  0  0  0  0  0
   40.3659   21.8204   31.8323 H   0  0  0  0  0  0  0  0  0  0  0  0
   36.4737   21.0816   33.3872 H   0  0  0  0  0  0  0  0  0  0  0  0
   36.5704   25.2571   34.8927 H   0  0  0  0  0  0  0  0  0  0  0  0
   36.2339   26.5853   32.8458 H   0  0  0  0  0  0  0  0  0  0  0  0
   40.3290   27.5279   32.8816 H   0  0  0  0  0  0  0  0  0  0  0  0
  1  6  1  0
  1  2  1  0
  2  3  1  0
  3  4  1  0
  5  4  1  0
  6  5  1  0
  7  1  1  0
  8  7  2  0
  9  8  1  0
 10  9  2  0
 10 11  1  0
 11 12  2  0
 12  7  1  0
 13  6  1  0
 14 13  1  0
 15 14  2  0
 16 18  1  0
 16 15  1  0
 17 16  2  0
 18 19  1  0
 19 20  2  0
 19 13  1  0
  2 21  1  0
  2 22  1  0
  3 23  1  0
  3 24  1  0
  4 25  1  0
  4 26  1  0
  5 27  1  0
  5 28  1  0
  6 29  1  1
  8 30  1  0
  9 31  1  0
 11 32  1  0
 14 33  1  0
 15 34  1  0
 18 35  1  0
M  ISO  8  21  13  22  13  23  13  24  13  25  13  26  13  27  13  28  13
M  ISO  7  29  13  30  14  31  14  32  14  33  14  34  14  35   9
M  END
>  <minimizedAffinity>  (1) 
-4.66300297

>  <minimizedRMSD>  (1) 
2.35926986

$$$$
