
     RDKit          3D

 32 33  0  0  1  0  0  0  0  0999 V2000
   39.0800   23.3680   36.1120 N   0  0  0  0  0  0  0  0  0  0  0  0
   39.8080   22.8980   37.2660 C   0  0  0  0  0  0  0  0  0  0  0  0
   39.1940   23.0870   38.5840 C   0  0  0  0  0  0  0  0  0  0  0  0
   38.2260   24.2130   38.7680 C   0  0  0  0  0  0  0  0  0  0  0  0
   37.5590   24.6400   37.4870 C   0  0  0  0  0  0  0  0  0  0  0  0
   38.6110   24.7010   36.3850 C   0  0  2  0  0  0  0  0  0  0  0  0
   38.8710   22.6270   34.9180 C   0  0  0  0  0  0  0  0  0  0  0  0
   39.8610   22.2850   33.9980 C   0  0  0  0  0  0  0  0  0  0  0  0
   39.4900   21.5560   32.8780 C   0  0  0  0  0  0  0  0  0  0  0  0
   38.1890   21.2060   32.7240 N   0  0  0  0  0  0  0  0  0  0  0  0
   37.2560   21.5480   33.6270 C   0  0  0  0  0  0  0  0  0  0  0  0
   37.5940   22.2530   34.7150 N   0  0  0  0  0  0  0  0  0  0  0  0
   38.0410   25.3640   35.2580 N   0  0  0  0  0  0  0  0  0  0  0  0
   37.9520   26.7830   35.3250 C   0  0  0  0  0  0  0  0  0  0  0  0
   38.7000   27.5330   36.0320 N   0  0  0  0  0  0  0  0  0  0  0  0
   36.9690   27.5190   34.5690 N   0  0  0  0  0  0  0  0  0  0  0  0
   39.4650   27.2320   36.6480 H   0  0  0  0  0  0  0  0  0  0  0  0
   39.9734   21.8187   37.1326 H   0  0  0  0  0  0  0  0  0  0  0  0
   40.7168   23.5172   37.2919 H   0  0  0  0  0  0  0  0  0  0  0  0
   38.6602   22.1570   38.8295 H   0  0  0  0  0  0  0  0  0  0  0  0
   40.0384   23.3495   39.2383 H   0  0  0  0  0  0  0  0  0  0  0  0
   37.4482   23.8926   39.4767 H   0  0  0  0  0  0  0  0  0  0  0  0
   38.7969   25.0759   39.1416 H   0  0  0  0  0  0  0  0  0  0  0  0
   36.7798   23.9127   37.2151 H   0  0  0  0  0  0  0  0  0  0  0  0
   37.0950   25.6288   37.6175 H   0  0  0  0  0  0  0  0  0  0  0  0
   39.4962   25.2821   36.6829 H   0  0  0  0  0  0  0  0  0  0  0  0
   40.9074   22.5850   34.1560 H   0  0  0  0  0  0  0  0  0  0  0  0
   40.2392   21.2663   32.1265 H   0  0  0  0  0  0  0  0  0  0  0  0
   36.2090   21.2479   33.4727 H   0  0  0  0  0  0  0  0  0  0  0  0
   37.7096   24.8409   34.4350 H   0  0  0  0  0  0  0  0  0  0  0  0
   36.9291   28.5459   34.6382 H   0  0  0  0  0  0  0  0  0  0  0  0
   36.3067   27.0178   33.9598 H   0  0  0  0  0  0  0  0  0  0  0  0
  1  6  1  0
  1  2  1  0
  2  3  1  0
  3  4  1  0
  5  4  1  0
  6  5  1  0
  7  1  1  0
  8  7  2  0
  9  8  1  0
 10  9  2  0
 10 11  1  0
 11 12  2  0
 12  7  1  0
 13 14  1  0
 13  6  1  0
 14 15  2  0
 15 17  1  0
 16 14  1  0
  2 18  1  0
  2 19  1  0
  3 20  1  0
  3 21  1  0
  4 22  1  0
  4 23  1  0
  5 24  1  0
  5 25  1  0
  6 26  1  1
  8 27  1  0
  9 28  1  0
 11 29  1  0
 13 30  1  0
 16 31  1  0
 16 32  1  0
M  ISO  8  18  13  19  13  20  13  21  13  22  13  23  13  24  13  25  13
M  ISO  4  26  13  27  14  28  14  29  14
M  END
>  <minimizedAffinity>  (1) 
-4.50996876

>  <minimizedRMSD>  (1) 
1.94484615

$$$$
