
     RDKit          3D

 37 39  0  0  1  0  0  0  0  0999 V2000
   39.0720   23.3340   36.1040 N   0  0  0  0  0  0  0  0  0  0  0  0
   39.5480   22.8200   37.3710 C   0  0  0  0  0  0  0  0  0  0  0  0
   38.7790   23.1800   38.5720 C   0  0  0  0  0  0  0  0  0  0  0  0
   38.1040   24.4920   38.5770 C   0  0  0  0  0  0  0  0  0  0  0  0
   37.6460   24.9450   37.1990 C   0  0  0  0  0  0  0  0  0  0  0  0
   38.8060   24.7340   36.2370 C   0  0  2  0  0  0  0  0  0  0  0  0
   38.8960   22.5570   34.9150 C   0  0  0  0  0  0  0  0  0  0  0  0
   39.9420   22.1990   34.0420 C   0  0  0  0  0  0  0  0  0  0  0  0
   39.5810   21.4410   32.9300 C   0  0  0  0  0  0  0  0  0  0  0  0
   38.2760   21.0930   32.7420 N   0  0  0  0  0  0  0  0  0  0  0  0
   37.3130   21.4670   33.6160 C   0  0  0  0  0  0  0  0  0  0  0  0
   37.6160   22.1970   34.7000 N   0  0  0  0  0  0  0  0  0  0  0  0
   38.6470   25.4060   34.9780 N   0  0  0  0  0  0  0  0  0  0  0  0
   39.6540   26.4340   34.7770 C   0  0  0  0  0  0  0  0  0  0  0  0
   39.1900   26.9910   33.4230 C   0  0  0  0  0  0  0  0  0  0  0  0
   37.6660   26.9020   33.5730 C   0  0  0  0  0  0  0  0  0  0  0  0
   37.4430   26.2040   34.9040 C   0  0  0  0  0  0  0  0  0  0  0  0
   39.5578   21.7223   37.3006 H   0  0  0  0  0  0  0  0  0  0  0  0
   40.5341   23.2859   37.5145 H   0  0  0  0  0  0  0  0  0  0  0  0
   38.0057   22.4103   38.7118 H   0  0  0  0  0  0  0  0  0  0  0  0
   39.5266   23.2448   39.3763 H   0  0  0  0  0  0  0  0  0  0  0  0
   37.2232   24.4277   39.2328 H   0  0  0  0  0  0  0  0  0  0  0  0
   38.8368   25.2311   38.9331 H   0  0  0  0  0  0  0  0  0  0  0  0
   36.7787   24.3497   36.8773 H   0  0  0  0  0  0  0  0  0  0  0  0
   37.3482   26.0037   37.2192 H   0  0  0  0  0  0  0  0  0  0  0  0
   39.6943   25.2142   36.6733 H   0  0  0  0  0  0  0  0  0  0  0  0
   40.9835   22.5004   34.2275 H   0  0  0  0  0  0  0  0  0  0  0  0
   40.3463   21.1243   32.2061 H   0  0  0  0  0  0  0  0  0  0  0  0
   36.2696   21.1690   33.4356 H   0  0  0  0  0  0  0  0  0  0  0  0
   39.6216   27.1987   35.5670 H   0  0  0  0  0  0  0  0  0  0  0  0
   40.6945   26.0782   34.8025 H   0  0  0  0  0  0  0  0  0  0  0  0
   39.5500   26.3725   32.5876 H   0  0  0  0  0  0  0  0  0  0  0  0
   39.5640   28.0005   33.1971 H   0  0  0  0  0  0  0  0  0  0  0  0
   37.2190   27.9070   33.5836 H   0  0  0  0  0  0  0  0  0  0  0  0
   37.1992   26.3590   32.7379 H   0  0  0  0  0  0  0  0  0  0  0  0
   37.3781   26.9219   35.7349 H   0  0  0  0  0  0  0  0  0  0  0  0
   36.5054   25.6331   34.9748 H   0  0  0  0  0  0  0  0  0  0  0  0
  1  6  1  0
  1  2  1  0
  2  3  1  0
  3  4  1  0
  5  4  1  0
  6  5  1  0
  7  1  1  0
  8  7  2  0
  9  8  1  0
 10  9  2  0
 10 11  1  0
 11 12  2  0
 12  7  1  0
 13 14  1  0
 13  6  1  0
 15 16  1  0
 15 14  1  0
 16 17  1  0
 17 13  1  0
  2 18  1  0
  2 19  1  0
  3 20  1  0
  3 21  1  0
  4 22  1  0
  4 23  1  0
  5 24  1  0
  5 25  1  0
  6 26  1  1
  8 27  1  0
  9 28  1  0
 11 29  1  0
 14 30  1  0
 14 31  1  0
 15 32  1  0
 15 33  1  0
 16 34  1  0
 16 35  1  0
 17 36  1  0
 17 37  1  0
M  ISO  8  18  13  19  13  20  13  21  13  22  13  23  13  24  13  25  13
M  ISO  8  26  13  27  14  28  14  29  14  30  13  31  13  32  13  33  13
M  ISO  4  34  13  35  13  36  13  37  13
M  END
>  <minimizedAffinity>  (1) 
-4.34474993

>  <minimizedRMSD>  (1) 
1.93571496

$$$$
