
     RDKit          3D

 31 33  0  0  1  0  0  0  0  0999 V2000
   38.3920   24.2610   36.0360 N   0  0  0  0  0  0  0  0  0  0  0  0
   37.4780   24.5330   37.1190 C   0  0  0  0  0  0  0  0  0  0  0  0
   37.9650   24.2360   38.4790 C   0  0  0  0  0  0  0  0  0  0  0  0
   39.0070   23.2050   38.6680 C   0  0  0  0  0  0  0  0  0  0  0  0
   39.8550   22.9640   37.4540 C   0  0  0  0  0  0  0  0  0  0  0  0
   38.9480   22.9550   36.2080 C   0  0  2  0  0  0  0  0  0  0  0  0
   38.6810   25.1690   34.9720 C   0  0  0  0  0  0  0  0  0  0  0  0
   37.9490   25.2230   33.7670 C   0  0  0  0  0  0  0  0  0  0  0  0
   38.3330   26.1510   32.8150 C   0  0  0  0  0  0  0  0  0  0  0  0
   39.3950   26.9630   33.0940 N   0  0  0  0  0  0  0  0  0  0  0  0
   40.0590   26.8770   34.2510 C   0  0  0  0  0  0  0  0  0  0  0  0
   39.7100   25.9900   35.1850 N   0  0  0  0  0  0  0  0  0  0  0  0
   39.8490   22.5530   35.0710 C   0  0  0  0  0  0  0  0  0  0  0  0
   39.3400   21.8980   33.7910 C   0  0  0  0  0  0  0  0  0  0  0  0
   40.9260   21.7040   32.9410 S   0  0  0  0  0  0  0  0  0  0  0  0
   41.9590   22.4810   34.3410 C   0  0  0  0  0  0  0  0  0  0  0  0
   41.1070   22.8590   35.3910 N   0  0  0  0  0  0  0  0  0  0  0  0
   37.2231   25.6024   37.0810 H   0  0  0  0  0  0  0  0  0  0  0  0
   36.6263   23.8554   36.9594 H   0  0  0  0  0  0  0  0  0  0  0  0
   38.3658   25.1752   38.8880 H   0  0  0  0  0  0  0  0  0  0  0  0
   37.0846   23.8100   38.9823 H   0  0  0  0  0  0  0  0  0  0  0  0
   39.6637   23.5239   39.4908 H   0  0  0  0  0  0  0  0  0  0  0  0
   38.4850   22.2611   38.8838 H   0  0  0  0  0  0  0  0  0  0  0  0
   40.6032   23.7650   37.3608 H   0  0  0  0  0  0  0  0  0  0  0  0
   40.3731   21.9980   37.5459 H   0  0  0  0  0  0  0  0  0  0  0  0
   38.0980   22.2604   36.2795 H   0  0  0  0  0  0  0  0  0  0  0  0
   37.0988   24.5479   33.5897 H   0  0  0  0  0  0  0  0  0  0  0  0
   37.7966   26.2325   31.8581 H   0  0  0  0  0  0  0  0  0  0  0  0
   40.9090   27.5500   34.4367 H   0  0  0  0  0  0  0  0  0  0  0  0
   38.3205   21.6265   33.4797 H   0  0  0  0  0  0  0  0  0  0  0  0
   43.0510   22.6127   34.3285 H   0  0  0  0  0  0  0  0  0  0  0  0
  1  6  1  0
  1  2  1  0
  2  3  1  0
  3  4  1  0
  5  4  1  0
  6  5  1  0
  7 12  1  0
  7  1  1  0
  8  7  2  0
  9 10  2  0
  9  8  1  0
 10 11  1  0
 11 12  2  0
 13 17  1  0
 13  6  1  0
 14 13  2  0
 15 14  1  0
 15 16  1  0
 16 17  2  0
  2 18  1  0
  2 19  1  0
  3 20  1  0
  3 21  1  0
  4 22  1  0
  4 23  1  0
  5 24  1  0
  5 25  1  0
  6 26  1  1
  8 27  1  0
  9 28  1  0
 11 29  1  0
 14 30  1  0
 16 31  1  0
M  ISO  8  18  13  19  13  20  13  21  13  22  13  23  13  24  13  25  13
M  ISO  6  26  13  27  14  28  14  29  14  30  14  31  14
M  END
>  <minimizedAffinity>  (1) 
-4.07710314

>  <minimizedRMSD>  (1) 
4.45329618

$$$$
