
     RDKit          3D

 27 28  0  0  1  0  0  0  0  0999 V2000
   38.9000   23.4820   35.7740 N   0  0  0  0  0  0  0  0  0  0  0  0
   39.9750   22.8850   36.5250 C   0  0  0  0  0  0  0  0  0  0  0  0
   39.7980   22.7070   37.9670 C   0  0  0  0  0  0  0  0  0  0  0  0
   38.8900   23.6570   38.6750 C   0  0  0  0  0  0  0  0  0  0  0  0
   37.8330   24.2610   37.7950 C   0  0  0  0  0  0  0  0  0  0  0  0
   38.4880   24.6660   36.4690 C   0  0  2  0  0  0  0  0  0  0  0  0
   38.3600   22.9750   34.5650 C   0  0  0  0  0  0  0  0  0  0  0  0
   38.7230   23.4410   33.2880 C   0  0  0  0  0  0  0  0  0  0  0  0
   38.1250   22.8580   32.1840 C   0  0  0  0  0  0  0  0  0  0  0  0
   37.2090   21.8560   32.4030 N   0  0  0  0  0  0  0  0  0  0  0  0
   36.8960   21.4450   33.6400 C   0  0  0  0  0  0  0  0  0  0  0  0
   37.4670   22.0010   34.7030 N   0  0  0  0  0  0  0  0  0  0  0  0
   37.5080   25.4420   35.6610 C   0  0  0  0  0  0  0  0  0  0  0  0
   37.5450   26.6330   35.4160 O   0  0  0  0  0  0  0  0  0  0  0  0
   40.1600   21.8899   36.0942 H   0  0  0  0  0  0  0  0  0  0  0  0
   40.8001   23.6075   36.4396 H   0  0  0  0  0  0  0  0  0  0  0  0
   39.4028   21.6930   38.1272 H   0  0  0  0  0  0  0  0  0  0  0  0
   40.7925   22.8994   38.3960 H   0  0  0  0  0  0  0  0  0  0  0  0
   38.3917   23.1153   39.4925 H   0  0  0  0  0  0  0  0  0  0  0  0
   39.5157   24.4863   39.0367 H   0  0  0  0  0  0  0  0  0  0  0  0
   37.0382   23.5239   37.6080 H   0  0  0  0  0  0  0  0  0  0  0  0
   37.3886   25.1406   38.2837 H   0  0  0  0  0  0  0  0  0  0  0  0
   39.3717   25.2957   36.6494 H   0  0  0  0  0  0  0  0  0  0  0  0
   39.4622   24.2470   33.1701 H   0  0  0  0  0  0  0  0  0  0  0  0
   38.3746   23.1858   31.1641 H   0  0  0  0  0  0  0  0  0  0  0  0
   36.1593   20.6396   33.7762 H   0  0  0  0  0  0  0  0  0  0  0  0
   36.6611   24.8793   35.2412 H   0  0  0  0  0  0  0  0  0  0  0  0
  1  6  1  0
  1  2  1  0
  2  3  1  0
  3  4  1  0
  5  4  1  0
  6  5  1  0
  7 12  1  0
  7  1  1  0
  8  7  2  0
  9 10  2  0
  9  8  1  0
 10 11  1  0
 11 12  2  0
 13  6  1  0
 14 13  2  0
  2 15  1  0
  2 16  1  0
  3 17  1  0
  3 18  1  0
  4 19  1  0
  4 20  1  0
  5 21  1  0
  5 22  1  0
  6 23  1  1
  8 24  1  0
  9 25  1  0
 11 26  1  0
 13 27  1  0
M  ISO  8  15  13  16  13  17  13  18  13  19  13  20  13  21  13  22  13
M  ISO  5  23  13  24  14  25  14  26  14  27   6
M  END
>  <minimizedAffinity>  (1) 
-3.65267706

>  <minimizedRMSD>  (1) 
0.633331895

$$$$
