
     RDKit          3D

 26 27  0  0  1  0  0  0  0  0999 V2000
   38.3360   23.3440   35.3430 N   0  0  0  0  0  0  0  0  0  0  0  0
   39.7060   23.2310   35.7630 C   0  0  0  0  0  0  0  0  0  0  0  0
   39.9620   22.8690   37.1620 C   0  0  0  0  0  0  0  0  0  0  0  0
   38.9620   23.2840   38.1770 C   0  0  0  0  0  0  0  0  0  0  0  0
   37.5630   23.3890   37.6330 C   0  0  0  0  0  0  0  0  0  0  0  0
   37.6170   24.1500   36.3040 C   0  0  1  0  0  0  0  0  0  0  0  0
   37.7770   22.7570   34.1670 C   0  0  0  0  0  0  0  0  0  0  0  0
   37.9030   23.2850   32.8850 C   0  0  0  0  0  0  0  0  0  0  0  0
   37.3020   22.5960   31.8410 C   0  0  0  0  0  0  0  0  0  0  0  0
   36.6210   21.4370   32.1260 N   0  0  0  0  0  0  0  0  0  0  0  0
   36.5290   20.9710   33.3800 C   0  0  0  0  0  0  0  0  0  0  0  0
   37.1060   21.6290   34.3940 N   0  0  0  0  0  0  0  0  0  0  0  0
   38.4470   25.7250   36.5690 S   0  0  0  0  0  0  0  0  0  0  0  0
   40.1808   22.4645   35.1329 H   0  0  0  0  0  0  0  0  0  0  0  0
   40.1138   24.2473   35.6592 H   0  0  0  0  0  0  0  0  0  0  0  0
   40.0413   21.7728   37.2083 H   0  0  0  0  0  0  0  0  0  0  0  0
   40.8746   23.4219   37.4292 H   0  0  0  0  0  0  0  0  0  0  0  0
   38.9645   22.5442   38.9910 H   0  0  0  0  0  0  0  0  0  0  0  0
   39.2504   24.2871   38.5242 H   0  0  0  0  0  0  0  0  0  0  0  0
   37.1519   22.3821   37.4682 H   0  0  0  0  0  0  0  0  0  0  0  0
   36.9184   23.9216   38.3477 H   0  0  0  0  0  0  0  0  0  0  0  0
   36.6049   24.3463   35.9205 H   0  0  0  0  0  0  0  0  0  0  0  0
   38.4599   24.2165   32.7057 H   0  0  0  0  0  0  0  0  0  0  0  0
   37.3693   22.9693   30.8085 H   0  0  0  0  0  0  0  0  0  0  0  0
   35.9754   20.0412   33.5775 H   0  0  0  0  0  0  0  0  0  0  0  0
   38.5689   25.9564   37.9138 H   0  0  0  0  0  0  0  0  0  0  0  0
  1  2  1  0
  1  6  1  0
  2  3  1  0
  3  4  1  0
  5  4  1  0
  6 13  1  0
  6  5  1  0
  7 12  1  0
  7  1  1  0
  8  7  2  0
  9 10  2  0
  9  8  1  0
 10 11  1  0
 11 12  2  0
  2 14  1  0
  2 15  1  0
  3 16  1  0
  3 17  1  0
  4 18  1  0
  4 19  1  0
  5 20  1  0
  5 21  1  0
  6 22  1  6
  8 23  1  0
  9 24  1  0
 11 25  1  0
 13 26  1  0
M  ISO  8  14  13  15  13  16  13  17  13  18  13  19  13  20  13  21  13
M  ISO  5  22  13  23  14  24  14  25  14  26  11
M  END
>  <minimizedAffinity>  (1) 
-3.31911016

>  <minimizedRMSD>  (1) 
0.768561482

$$$$
