
     RDKit          3D

 45 48  0  0  1  0  0  0  0  0999 V2000
   38.9370   23.3990   35.6300 N   0  0  0  0  0  0  0  0  0  0  0  0
   40.0620   22.7710   36.2900 C   0  0  0  0  0  0  0  0  0  0  0  0
   39.9460   22.5560   37.7480 C   0  0  0  0  0  0  0  0  0  0  0  0
   39.0450   23.4330   38.5260 C   0  0  0  0  0  0  0  0  0  0  0  0
   37.9170   24.0170   37.7070 C   0  0  0  0  0  0  0  0  0  0  0  0
   38.5280   24.5360   36.3720 C   0  0  2  0  0  0  0  0  0  0  0  0
   38.3670   22.9060   34.4190 C   0  0  0  0  0  0  0  0  0  0  0  0
   38.6990   23.3120   33.1400 C   0  0  0  0  0  0  0  0  0  0  0  0
   38.0690   22.7510   32.0480 C   0  0  0  0  0  0  0  0  0  0  0  0
   37.1320   21.8080   32.2730 N   0  0  0  0  0  0  0  0  0  0  0  0
   36.8070   21.4120   33.5230 C   0  0  0  0  0  0  0  0  0  0  0  0
   37.4290   21.9660   34.5670 N   0  0  0  0  0  0  0  0  0  0  0  0
   37.5280   25.4170   35.7010 C   0  0  0  0  0  0  0  0  0  0  0  0
   38.1830   26.7440   35.4030 C   0  0  0  0  0  0  0  0  0  0  0  0
   37.4160   27.5310   34.4600 N   0  0  0  0  0  0  0  0  0  0  0  0
   36.5470   28.5360   34.7240 C   0  0  0  0  0  0  0  0  0  0  0  0
   36.0140   29.0420   33.5920 N   0  0  0  0  0  0  0  0  0  0  0  0
   36.5510   28.3480   32.5690 C   0  0  0  0  0  0  0  0  0  0  0  0
   36.3790   28.4240   31.1820 C   0  0  0  0  0  0  0  0  0  0  0  0
   35.5850   29.2810   30.7030 O   0  0  0  0  0  0  0  0  0  0  0  0
   37.0530   27.5910   30.3450 N   0  0  0  0  0  0  0  0  0  0  0  0
   37.8780   26.7080   30.9310 C   0  0  0  0  0  0  0  0  0  0  0  0
   38.5710   25.8490   30.0360 N   0  0  0  0  0  0  0  0  0  0  0  0
   38.0590   26.6160   32.2490 N   0  0  0  0  0  0  0  0  0  0  0  0
   37.4110   27.4220   33.1200 C   0  0  0  0  0  0  0  0  0  0  0  0
   40.2169   21.7885   35.8203 H   0  0  0  0  0  0  0  0  0  0  0  0
   40.8966   23.4773   36.1693 H   0  0  0  0  0  0  0  0  0  0  0  0
   39.5993   21.5226   37.8962 H   0  0  0  0  0  0  0  0  0  0  0  0
   40.9484   22.7940   38.1334 H   0  0  0  0  0  0  0  0  0  0  0  0
   38.6104   22.8447   39.3476 H   0  0  0  0  0  0  0  0  0  0  0  0
   39.6499   24.2761   38.8911 H   0  0  0  0  0  0  0  0  0  0  0  0
   37.1637   23.2428   37.4993 H   0  0  0  0  0  0  0  0  0  0  0  0
   37.4258   24.8362   38.2526 H   0  0  0  0  0  0  0  0  0  0  0  0
   39.4210   25.1643   36.5054 H   0  0  0  0  0  0  0  0  0  0  0  0
   39.4678   24.0847   32.9923 H   0  0  0  0  0  0  0  0  0  0  0  0
   38.3236   23.0638   31.0246 H   0  0  0  0  0  0  0  0  0  0  0  0
   36.0380   20.6412   33.6794 H   0  0  0  0  0  0  0  0  0  0  0  0
   37.1920   24.9501   34.7634 H   0  0  0  0  0  0  0  0  0  0  0  0
   36.6566   25.5652   36.3557 H   0  0  0  0  0  0  0  0  0  0  0  0
   38.2800   27.3102   36.3411 H   0  0  0  0  0  0  0  0  0  0  0  0
   39.1670   26.5427   34.9545 H   0  0  0  0  0  0  0  0  0  0  0  0
   36.3057   28.8951   35.7353 H   0  0  0  0  0  0  0  0  0  0  0  0
   36.9377   27.6346   29.3224 H   0  0  0  0  0  0  0  0  0  0  0  0
   39.2240   25.1419   30.4027 H   0  0  0  0  0  0  0  0  0  0  0  0
   38.4203   25.9335   29.0206 H   0  0  0  0  0  0  0  0  0  0  0  0
  1  2  1  0
  1  6  1  0
  2  3  1  0
  3  4  1  0
  5  4  1  0
  6  5  1  0
  7 12  1  0
  7  1  1  0
  8  7  2  0
  9 10  2  0
  9  8  1  0
 10 11  1  0
 11 12  2  0
 13  6  1  0
 14 13  1  0
 15 16  1  0
 15 14  1  0
 17 16  2  0
 18 25  2  0
 18 17  1  0
 19 18  1  0
 20 19  2  0
 21 22  1  0
 21 19  1  0
 22 24  2  0
 23 22  1  0
 24 25  1  0
 25 15  1  0
  2 26  1  0
  2 27  1  0
  3 28  1  0
  3 29  1  0
  4 30  1  0
  4 31  1  0
  5 32  1  0
  5 33  1  0
  6 34  1  1
  8 35  1  0
  9 36  1  0
 11 37  1  0
 13 38  1  0
 13 39  1  0
 14 40  1  0
 14 41  1  0
 16 42  1  0
 21 43  1  0
 23 44  1  0
 23 45  1  0
M  ISO  8  26  13  27  13  28  13  29  13  30  13  31  13  32  13  33  13
M  ISO  8  34  13  35  14  36  14  37  14  38   8  39   8  40   8  41   8
M  ISO  2  42  14  43   9
M  END
>  <minimizedAffinity>  (1) 
-5.55988407

>  <minimizedRMSD>  (1) 
1.53496003

$$$$
