
     RDKit          3D

 44 46  0  0  1  0  0  0  0  0999 V2000
   38.9980   23.1340   35.3580 N   0  0  0  0  0  0  0  0  0  0  0  0
   40.2590   22.4440   35.5320 C   0  0  0  0  0  0  0  0  0  0  0  0
   40.6250   22.0420   36.9030 C   0  0  0  0  0  0  0  0  0  0  0  0
   40.0250   22.7720   38.0460 C   0  0  0  0  0  0  0  0  0  0  0  0
   38.7120   23.4440   37.7150 C   0  0  0  0  0  0  0  0  0  0  0  0
   38.8800   24.1550   36.3390 C   0  0  2  0  0  0  0  0  0  0  0  0
   38.0590   22.7950   34.3390 C   0  0  0  0  0  0  0  0  0  0  0  0
   37.8890   23.4640   33.1420 C   0  0  0  0  0  0  0  0  0  0  0  0
   36.9410   23.0350   32.2360 C   0  0  0  0  0  0  0  0  0  0  0  0
   36.1970   21.9440   32.5670 N   0  0  0  0  0  0  0  0  0  0  0  0
   36.3690   21.3010   33.7280 C   0  0  0  0  0  0  0  0  0  0  0  0
   37.2940   21.7330   34.5970 N   0  0  0  0  0  0  0  0  0  0  0  0
   37.7390   25.0970   36.1380 C   0  0  0  0  0  0  0  0  0  0  0  0
   38.2960   26.4720   35.8790 C   0  0  0  0  0  0  0  0  0  0  0  0
   37.1040   28.1890   32.1730 C   0  0  0  0  0  0  0  0  0  0  0  0
   36.2960   28.3740   33.2760 C   0  0  0  0  0  0  0  0  0  0  0  0
   36.6660   27.8220   34.5000 C   0  0  0  0  0  0  0  0  0  0  0  0
   37.8300   27.0910   34.6250 C   0  0  0  0  0  0  0  0  0  0  0  0
   38.6120   26.9280   33.4950 C   0  0  0  0  0  0  0  0  0  0  0  0
   38.2700   27.4630   32.2730 C   0  0  0  0  0  0  0  0  0  0  0  0
   36.5350   28.9300   30.6950 S   0  0  0  0  0  0  0  0  0  0  0  0
   35.4580   29.9250   31.0250 O   0  0  0  0  0  0  0  0  0  0  0  0
   37.6840   29.6730   30.0890 O   0  0  0  0  0  0  0  0  0  0  0  0
   40.2244   21.5319   34.9181 H   0  0  0  0  0  0  0  0  0  0  0  0
   41.0253   23.1763   35.2377 H   0  0  0  0  0  0  0  0  0  0  0  0
   40.3479   20.9833   37.0143 H   0  0  0  0  0  0  0  0  0  0  0  0
   41.6976   22.2763   36.9714 H   0  0  0  0  0  0  0  0  0  0  0  0
   39.8527   22.0563   38.8634 H   0  0  0  0  0  0  0  0  0  0  0  0
   40.7316   23.5669   38.3267 H   0  0  0  0  0  0  0  0  0  0  0  0
   37.9111   22.6925   37.6535 H   0  0  0  0  0  0  0  0  0  0  0  0
   38.4430   24.1713   38.4952 H   0  0  0  0  0  0  0  0  0  0  0  0
   39.7839   24.7784   36.2724 H   0  0  0  0  0  0  0  0  0  0  0  0
   38.5113   24.3411   32.9108 H   0  0  0  0  0  0  0  0  0  0  0  0
   36.7915   23.5566   31.2791 H   0  0  0  0  0  0  0  0  0  0  0  0
   35.7538   20.4214   33.9684 H   0  0  0  0  0  0  0  0  0  0  0  0
   37.1367   24.7722   35.2768 H   0  0  0  0  0  0  0  0  0  0  0  0
   37.0993   25.1113   37.0328 H   0  0  0  0  0  0  0  0  0  0  0  0
   38.0033   27.1249   36.7145 H   0  0  0  0  0  0  0  0  0  0  0  0
   39.3861   26.3570   35.7864 H   0  0  0  0  0  0  0  0  0  0  0  0
   35.3653   28.9539   33.1892 H   0  0  0  0  0  0  0  0  0  0  0  0
   36.0217   27.9707   35.3791 H   0  0  0  0  0  0  0  0  0  0  0  0
   39.5434   26.3483   33.5760 H   0  0  0  0  0  0  0  0  0  0  0  0
   38.9150   27.3135   31.3946 H   0  0  0  0  0  0  0  0  0  0  0  0
   36.0468   27.9777   29.8396 H   0  0  0  0  0  0  0  0  0  0  0  0
  1  2  1  0
  1  6  1  0
  2  3  1  0
  3  4  1  0
  5  4  1  0
  6  5  1  0
  7 12  1  0
  7  1  1  0
  8  7  2  0
  9 10  2  0
  9  8  1  0
 10 11  1  0
 11 12  2  0
 13  6  1  0
 14 13  1  0
 15 20  2  0
 15 16  1  0
 16 17  2  0
 17 18  1  0
 18 14  1  0
 19 18  2  0
 20 19  1  0
 21 22  2  0
 21 15  1  0
 23 21  2  0
  2 24  1  0
  2 25  1  0
  3 26  1  0
  3 27  1  0
  4 28  1  0
  4 29  1  0
  5 30  1  0
  5 31  1  0
  6 32  1  1
  8 33  1  0
  9 34  1  0
 11 35  1  0
 13 36  1  0
 13 37  1  0
 14 38  1  0
 14 39  1  0
 16 40  1  0
 17 41  1  0
 19 42  1  0
 20 43  1  0
 21 44  1  0
M  ISO  8  24  13  25  13  26  13  27  13  28  13  29  13  30  13  31  13
M  ISO  8  32  13  33  14  34  14  35  14  36   8  37   8  38   8  39   8
M  ISO  5  40  14  41  14  42  14  43  14  44  11
M  END
>  <minimizedAffinity>  (1) 
-5.54529905

>  <minimizedRMSD>  (1) 
1.87167919

$$$$
