
     RDKit          3D

 39 41  0  0  1  0  0  0  0  0999 V2000
   38.8740   23.4510   35.7230 N   0  0  0  0  0  0  0  0  0  0  0  0
   40.0540   22.8090   36.2580 C   0  0  0  0  0  0  0  0  0  0  0  0
   40.0690   22.5310   37.7080 C   0  0  0  0  0  0  0  0  0  0  0  0
   39.2200   23.3550   38.5970 C   0  0  0  0  0  0  0  0  0  0  0  0
   38.0430   23.9820   37.9100 C   0  0  0  0  0  0  0  0  0  0  0  0
   38.5210   24.5540   36.5440 C   0  0  2  0  0  0  0  0  0  0  0  0
   38.2050   23.0020   34.5460 C   0  0  0  0  0  0  0  0  0  0  0  0
   38.2970   23.5880   33.2940 C   0  0  0  0  0  0  0  0  0  0  0  0
   37.5920   23.0540   32.2300 C   0  0  0  0  0  0  0  0  0  0  0  0
   36.8280   21.9590   32.4610 N   0  0  0  0  0  0  0  0  0  0  0  0
   36.7430   21.3930   33.6860 C   0  0  0  0  0  0  0  0  0  0  0  0
   37.4280   21.9200   34.7010 N   0  0  0  0  0  0  0  0  0  0  0  0
   37.4610   25.4460   35.9940 C   0  0  0  0  0  0  0  0  0  0  0  0
   38.0940   26.8060   35.7120 C   0  0  0  0  0  0  0  0  0  0  0  0
   37.5480   27.4450   34.4920 C   0  0  0  0  0  0  0  0  0  0  0  0
   36.4390   28.2660   34.4840 C   0  0  0  0  0  0  0  0  0  0  0  0
   36.0620   28.7820   33.2590 C   0  0  0  0  0  0  0  0  0  0  0  0
   36.7070   28.5280   32.1160 N   0  0  0  0  0  0  0  0  0  0  0  0
   37.7810   27.7290   32.1470 C   0  0  0  0  0  0  0  0  0  0  0  0
   38.1940   27.1950   33.3210 N   0  0  0  0  0  0  0  0  0  0  0  0
   40.1748   21.8488   35.7351 H   0  0  0  0  0  0  0  0  0  0  0  0
   40.8683   23.5310   36.0980 H   0  0  0  0  0  0  0  0  0  0  0  0
   39.7570   21.4845   37.8406 H   0  0  0  0  0  0  0  0  0  0  0  0
   41.0961   22.7752   38.0168 H   0  0  0  0  0  0  0  0  0  0  0  0
   38.8453   22.7140   39.4086 H   0  0  0  0  0  0  0  0  0  0  0  0
   39.8499   24.1790   38.9634 H   0  0  0  0  0  0  0  0  0  0  0  0
   37.2629   23.2246   37.7434 H   0  0  0  0  0  0  0  0  0  0  0  0
   37.6261   24.7873   38.5326 H   0  0  0  0  0  0  0  0  0  0  0  0
   39.4157   25.1888   36.6248 H   0  0  0  0  0  0  0  0  0  0  0  0
   38.9292   24.4759   33.1462 H   0  0  0  0  0  0  0  0  0  0  0  0
   37.6499   23.5042   31.2280 H   0  0  0  0  0  0  0  0  0  0  0  0
   36.1136   20.5047   33.8438 H   0  0  0  0  0  0  0  0  0  0  0  0
   37.0598   25.0199   35.0626 H   0  0  0  0  0  0  0  0  0  0  0  0
   36.6349   25.5489   36.7130 H   0  0  0  0  0  0  0  0  0  0  0  0
   37.9059   27.4673   36.5707 H   0  0  0  0  0  0  0  0  0  0  0  0
   39.1705   26.6464   35.5519 H   0  0  0  0  0  0  0  0  0  0  0  0
   35.8839   28.4976   35.4050 H   0  0  0  0  0  0  0  0  0  0  0  0
   35.1808   29.4394   33.2222 H   0  0  0  0  0  0  0  0  0  0  0  0
   38.3279   27.5063   31.2189 H   0  0  0  0  0  0  0  0  0  0  0  0
  1  2  1  0
  1  6  1  0
  2  3  1  0
  3  4  1  0
  5  4  1  0
  6  5  1  0
  7 12  1  0
  7  1  1  0
  8  7  2  0
  9 10  2  0
  9  8  1  0
 10 11  1  0
 11 12  2  0
 13  6  1  0
 14 13  1  0
 15 14  1  0
 16 15  2  0
 17 16  1  0
 18 19  1  0
 18 17  2  0
 19 20  2  0
 20 15  1  0
  2 21  1  0
  2 22  1  0
  3 23  1  0
  3 24  1  0
  4 25  1  0
  4 26  1  0
  5 27  1  0
  5 28  1  0
  6 29  1  1
  8 30  1  0
  9 31  1  0
 11 32  1  0
 13 33  1  0
 13 34  1  0
 14 35  1  0
 14 36  1  0
 16 37  1  0
 17 38  1  0
 19 39  1  0
M  ISO  8  21  13  22  13  23  13  24  13  25  13  26  13  27  13  28  13
M  ISO  8  29  13  30  14  31  14  32  14  33   8  34   8  35   8  36   8
M  ISO  3  37  14  38  14  39  14
M  END
>  <minimizedAffinity>  (1) 
-4.93097401

>  <minimizedRMSD>  (1) 
1.12425959

$$$$
