
     RDKit          3D

 38 40  0  0  1  0  0  0  0  0999 V2000
   38.8710   23.4630   35.7340 N   0  0  0  0  0  0  0  0  0  0  0  0
   40.0270   22.7940   36.2830 C   0  0  0  0  0  0  0  0  0  0  0  0
   40.0420   22.5490   37.7330 C   0  0  0  0  0  0  0  0  0  0  0  0
   39.2090   23.4060   38.6110 C   0  0  0  0  0  0  0  0  0  0  0  0
   38.0300   24.0260   37.9090 C   0  0  0  0  0  0  0  0  0  0  0  0
   38.5290   24.5760   36.5400 C   0  0  2  0  0  0  0  0  0  0  0  0
   38.2080   23.0230   34.5490 C   0  0  0  0  0  0  0  0  0  0  0  0
   38.2850   23.6060   33.3020 C   0  0  0  0  0  0  0  0  0  0  0  0
   37.5930   23.0840   32.2380 C   0  0  0  0  0  0  0  0  0  0  0  0
   36.8370   21.9810   32.4600 N   0  0  0  0  0  0  0  0  0  0  0  0
   36.7580   21.4050   33.6790 C   0  0  0  0  0  0  0  0  0  0  0  0
   37.4420   21.9340   34.6990 N   0  0  0  0  0  0  0  0  0  0  0  0
   37.4920   25.4830   35.9760 C   0  0  0  0  0  0  0  0  0  0  0  0
   38.1430   26.8370   35.7040 C   0  0  0  0  0  0  0  0  0  0  0  0
   37.5640   27.4080   34.5040 N   0  0  0  0  0  0  0  0  0  0  0  0
   38.0260   27.2550   33.2640 N   0  0  0  0  0  0  0  0  0  0  0  0
   37.2440   27.9210   32.3900 C   0  0  0  0  0  0  0  0  0  0  0  0
   36.2190   28.5380   33.1140 C   0  0  0  0  0  0  0  0  0  0  0  0
   36.4680   28.1850   34.4080 C   0  0  0  0  0  0  0  0  0  0  0  0
   40.1120   21.8181   35.7826 H   0  0  0  0  0  0  0  0  0  0  0  0
   40.8632   23.4865   36.1061 H   0  0  0  0  0  0  0  0  0  0  0  0
   39.7137   21.5108   37.8889 H   0  0  0  0  0  0  0  0  0  0  0  0
   41.0739   22.7853   38.0320 H   0  0  0  0  0  0  0  0  0  0  0  0
   38.8341   22.7909   39.4424 H   0  0  0  0  0  0  0  0  0  0  0  0
   39.8489   24.2318   38.9554 H   0  0  0  0  0  0  0  0  0  0  0  0
   37.2499   23.2678   37.7461 H   0  0  0  0  0  0  0  0  0  0  0  0
   37.6026   24.8369   38.5171 H   0  0  0  0  0  0  0  0  0  0  0  0
   39.4348   25.1949   36.6206 H   0  0  0  0  0  0  0  0  0  0  0  0
   38.9088   24.5005   33.1581 H   0  0  0  0  0  0  0  0  0  0  0  0
   37.6498   23.5443   31.2406 H   0  0  0  0  0  0  0  0  0  0  0  0
   36.1373   20.5097   33.8313 H   0  0  0  0  0  0  0  0  0  0  0  0
   37.0995   25.0629   35.0382 H   0  0  0  0  0  0  0  0  0  0  0  0
   36.6587   25.5965   36.6850 H   0  0  0  0  0  0  0  0  0  0  0  0
   37.9640   27.5097   36.5557 H   0  0  0  0  0  0  0  0  0  0  0  0
   39.2267   26.7069   35.5674 H   0  0  0  0  0  0  0  0  0  0  0  0
   37.3871   27.9702   31.3005 H   0  0  0  0  0  0  0  0  0  0  0  0
   35.4005   29.1638   32.7288 H   0  0  0  0  0  0  0  0  0  0  0  0
   35.8517   28.4956   35.2646 H   0  0  0  0  0  0  0  0  0  0  0  0
  1  2  1  0
  1  6  1  0
  2  3  1  0
  3  4  1  0
  5  4  1  0
  6  5  1  0
  7 12  1  0
  7  1  1  0
  8  7  2  0
  9 10  2  0
  9  8  1  0
 10 11  1  0
 11 12  2  0
 13  6  1  0
 14 13  1  0
 15 14  1  0
 16 15  1  0
 17 18  1  0
 17 16  2  0
 18 19  2  0
 19 15  1  0
  2 20  1  0
  2 21  1  0
  3 22  1  0
  3 23  1  0
  4 24  1  0
  4 25  1  0
  5 26  1  0
  5 27  1  0
  6 28  1  1
  8 29  1  0
  9 30  1  0
 11 31  1  0
 13 32  1  0
 13 33  1  0
 14 34  1  0
 14 35  1  0
 17 36  1  0
 18 37  1  0
 19 38  1  0
M  ISO  8  20  13  21  13  22  13  23  13  24  13  25  13  26  13  27  13
M  ISO  8  28  13  29  14  30  14  31  14  32   8  33   8  34   8  35   8
M  ISO  3  36  14  37  14  38  14
M  END
>  <minimizedAffinity>  (1) 
-4.6018033

>  <minimizedRMSD>  (1) 
0.886148691

$$$$
