
     RDKit          3D

 37 39  0  0  1  0  0  0  0  0999 V2000
   38.8830   23.4510   35.7240 N   0  0  0  0  0  0  0  0  0  0  0  0
   40.0540   22.7940   36.2680 C   0  0  0  0  0  0  0  0  0  0  0  0
   40.0560   22.5290   37.7210 C   0  0  0  0  0  0  0  0  0  0  0  0
   39.2110   23.3700   38.6010 C   0  0  0  0  0  0  0  0  0  0  0  0
   38.0360   23.9960   37.8950 C   0  0  0  0  0  0  0  0  0  0  0  0
   38.5440   24.5630   36.5380 C   0  0  2  0  0  0  0  0  0  0  0  0
   38.2130   23.0040   34.5460 C   0  0  0  0  0  0  0  0  0  0  0  0
   38.3030   23.5810   33.2960 C   0  0  0  0  0  0  0  0  0  0  0  0
   37.6060   23.0570   32.2310 C   0  0  0  0  0  0  0  0  0  0  0  0
   36.8330   21.9560   32.4640 N   0  0  0  0  0  0  0  0  0  0  0  0
   36.7510   21.4040   33.6760 C   0  0  0  0  0  0  0  0  0  0  0  0
   37.4360   21.9290   34.6970 N   0  0  0  0  0  0  0  0  0  0  0  0
   37.5040   25.4720   35.9730 C   0  0  0  0  0  0  0  0  0  0  0  0
   38.1520   26.8020   35.6600 C   0  0  0  0  0  0  0  0  0  0  0  0
   37.5430   27.4040   34.4840 N   0  0  0  0  0  0  0  0  0  0  0  0
   37.8260   27.2990   33.1710 C   0  0  0  0  0  0  0  0  0  0  0  0
   36.9330   28.0820   32.4980 N   0  0  0  0  0  0  0  0  0  0  0  0
   36.1030   28.6680   33.4040 C   0  0  0  0  0  0  0  0  0  0  0  0
   36.5060   28.2290   34.6200 N   0  0  0  0  0  0  0  0  0  0  0  0
   40.1621   21.8277   35.7537 H   0  0  0  0  0  0  0  0  0  0  0  0
   40.8816   23.4998   36.1037 H   0  0  0  0  0  0  0  0  0  0  0  0
   39.7311   21.4873   37.8601 H   0  0  0  0  0  0  0  0  0  0  0  0
   41.0837   22.7661   38.0333 H   0  0  0  0  0  0  0  0  0  0  0  0
   38.8298   22.7420   39.4198 H   0  0  0  0  0  0  0  0  0  0  0  0
   39.8442   24.1934   38.9632 H   0  0  0  0  0  0  0  0  0  0  0  0
   37.2593   23.2378   37.7166 H   0  0  0  0  0  0  0  0  0  0  0  0
   37.6020   24.7990   38.5088 H   0  0  0  0  0  0  0  0  0  0  0  0
   39.4475   25.1836   36.6302 H   0  0  0  0  0  0  0  0  0  0  0  0
   38.9374   24.4676   33.1492 H   0  0  0  0  0  0  0  0  0  0  0  0
   37.6694   23.5083   31.2299 H   0  0  0  0  0  0  0  0  0  0  0  0
   36.1199   20.5172   33.8351 H   0  0  0  0  0  0  0  0  0  0  0  0
   37.0890   25.0352   35.0527 H   0  0  0  0  0  0  0  0  0  0  0  0
   36.6884   25.6102   36.6980 H   0  0  0  0  0  0  0  0  0  0  0  0
   38.0245   27.4773   36.5189 H   0  0  0  0  0  0  0  0  0  0  0  0
   39.2212   26.6374   35.4608 H   0  0  0  0  0  0  0  0  0  0  0  0
   38.6285   26.6940   32.7238 H   0  0  0  0  0  0  0  0  0  0  0  0
   35.2732   29.3582   33.1914 H   0  0  0  0  0  0  0  0  0  0  0  0
  1  2  1  0
  1  6  1  0
  2  3  1  0
  3  4  1  0
  5  4  1  0
  6  5  1  0
  7 12  1  0
  7  1  1  0
  8  7  2  0
  9 10  2  0
  9  8  1  0
 10 11  1  0
 11 12  2  0
 13  6  1  0
 14 13  1  0
 15 19  1  0
 15 14  1  0
 16 15  1  0
 17 16  2  0
 17 18  1  0
 18 19  2  0
  2 20  1  0
  2 21  1  0
  3 22  1  0
  3 23  1  0
  4 24  1  0
  4 25  1  0
  5 26  1  0
  5 27  1  0
  6 28  1  1
  8 29  1  0
  9 30  1  0
 11 31  1  0
 13 32  1  0
 13 33  1  0
 14 34  1  0
 14 35  1  0
 16 36  1  0
 18 37  1  0
M  ISO  8  20  13  21  13  22  13  23  13  24  13  25  13  26  13  27  13
M  ISO  8  28  13  29  14  30  14  31  14  32   8  33   8  34   8  35   8
M  ISO  2  36  14  37  14
M  END
>  <minimizedAffinity>  (1) 
-4.5270977

>  <minimizedRMSD>  (1) 
0.853358507

$$$$
