
     RDKit          3D

 49 53  0  0  1  0  0  0  0  0999 V2000
   38.9590   23.3680   35.6320 N   0  0  0  0  0  0  0  0  0  0  0  0
   40.1670   22.6590   35.9930 C   0  0  0  0  0  0  0  0  0  0  0  0
   40.3300   22.3070   37.4220 C   0  0  0  0  0  0  0  0  0  0  0  0
   39.6020   23.0850   38.4430 C   0  0  0  0  0  0  0  0  0  0  0  0
   38.3480   23.7570   37.9170 C   0  0  0  0  0  0  0  0  0  0  0  0
   38.7190   24.4200   36.5470 C   0  0  2  0  0  0  0  0  0  0  0  0
   38.1740   23.0020   34.5020 C   0  0  0  0  0  0  0  0  0  0  0  0
   38.1120   23.6830   33.3010 C   0  0  0  0  0  0  0  0  0  0  0  0
   37.3090   23.2260   32.2750 C   0  0  0  0  0  0  0  0  0  0  0  0
   36.5930   22.0920   32.4930 N   0  0  0  0  0  0  0  0  0  0  0  0
   36.6490   21.4220   33.6640 C   0  0  0  0  0  0  0  0  0  0  0  0
   37.4380   21.8830   34.6530 N   0  0  0  0  0  0  0  0  0  0  0  0
   37.6140   25.3450   36.1650 C   0  0  0  0  0  0  0  0  0  0  0  0
   38.2270   26.6970   35.8190 C   0  0  0  0  0  0  0  0  0  0  0  0
   37.7690   27.2120   34.5180 C   0  0  0  0  0  0  0  0  0  0  0  0
   36.5830   27.8970   34.2610 C   0  0  0  0  0  0  0  0  0  0  0  0
   36.6640   28.1390   32.8990 C   0  0  0  0  0  0  0  0  0  0  0  0
   37.8340   27.6210   32.3930 C   0  0  0  0  0  0  0  0  0  0  0  0
   38.4470   27.0850   33.3950 O   0  0  0  0  0  0  0  0  0  0  0  0
   38.2410   27.6920   31.0220 N   0  0  0  0  0  0  0  0  0  0  0  0
   38.9550   26.8580   30.2530 C   0  0  0  0  0  0  0  0  0  0  0  0
   39.0450   27.4190   29.0110 N   0  0  0  0  0  0  0  0  0  0  0  0
   38.3820   28.5910   29.0480 C   0  0  0  0  0  0  0  0  0  0  0  0
   38.1790   29.5330   28.0630 C   0  0  0  0  0  0  0  0  0  0  0  0
   37.4630   30.6590   28.3400 N   0  0  0  0  0  0  0  0  0  0  0  0
   36.9590   30.8410   29.5800 C   0  0  0  0  0  0  0  0  0  0  0  0
   37.1630   29.9170   30.5310 N   0  0  0  0  0  0  0  0  0  0  0  0
   37.8590   28.7820   30.3310 C   0  0  0  0  0  0  0  0  0  0  0  0
   40.1898   21.7236   35.4147 H   0  0  0  0  0  0  0  0  0  0  0  0
   40.9884   23.3564   35.7717 H   0  0  0  0  0  0  0  0  0  0  0  0
   40.0159   21.2586   37.5325 H   0  0  0  0  0  0  0  0  0  0  0  0
   41.3872   22.5308   37.6274 H   0  0  0  0  0  0  0  0  0  0  0  0
   39.3157   22.4052   39.2590 H   0  0  0  0  0  0  0  0  0  0  0  0
   40.2779   23.8844   38.7809 H   0  0  0  0  0  0  0  0  0  0  0  0
   37.5530   23.0108   37.7718 H   0  0  0  0  0  0  0  0  0  0  0  0
   37.9802   24.5105   38.6291 H   0  0  0  0  0  0  0  0  0  0  0  0
   39.6300   25.0357   36.5791 H   0  0  0  0  0  0  0  0  0  0  0  0
   38.7076   24.5972   33.1613 H   0  0  0  0  0  0  0  0  0  0  0  0
   37.2510   23.7608   31.3155 H   0  0  0  0  0  0  0  0  0  0  0  0
   36.0552   20.5074   33.8088 H   0  0  0  0  0  0  0  0  0  0  0  0
   37.0774   24.9445   35.2923 H   0  0  0  0  0  0  0  0  0  0  0  0
   36.9011   25.4511   36.9960 H   0  0  0  0  0  0  0  0  0  0  0  0
   37.9500   27.4195   36.6008 H   0  0  0  0  0  0  0  0  0  0  0  0
   39.3170   26.5619   35.7579 H   0  0  0  0  0  0  0  0  0  0  0  0
   35.7833   28.1756   34.9630 H   0  0  0  0  0  0  0  0  0  0  0  0
   35.9027   28.6688   32.3076 H   0  0  0  0  0  0  0  0  0  0  0  0
   39.3893   25.8969   30.5653 H   0  0  0  0  0  0  0  0  0  0  0  0
   38.5936   29.3766   27.0562 H   0  0  0  0  0  0  0  0  0  0  0  0
   36.3806   31.7479   29.8103 H   0  0  0  0  0  0  0  0  0  0  0  0
  1  2  1  0
  1  6  1  0
  2  3  1  0
  3  4  1  0
  5  4  1  0
  6  5  1  0
  7 12  1  0
  7  1  1  0
  8  7  2  0
  9 10  2  0
  9  8  1  0
 10 11  1  0
 11 12  2  0
 13  6  1  0
 14 13  1  0
 15 14  1  0
 16 15  2  0
 17 16  1  0
 18 17  2  0
 18 19  1  0
 19 15  1  0
 20 18  1  0
 21 20  1  0
 22 23  1  0
 22 21  2  0
 23 28  2  0
 24 25  2  0
 24 23  1  0
 25 26  1  0
 26 27  2  0
 28 27  1  0
 28 20  1  0
  2 29  1  0
  2 30  1  0
  3 31  1  0
  3 32  1  0
  4 33  1  0
  4 34  1  0
  5 35  1  0
  5 36  1  0
  6 37  1  1
  8 38  1  0
  9 39  1  0
 11 40  1  0
 13 41  1  0
 13 42  1  0
 14 43  1  0
 14 44  1  0
 16 45  1  0
 17 46  1  0
 21 47  1  0
 24 48  1  0
 26 49  1  0
M  ISO  8  29  13  30  13  31  13  32  13  33  13  34  13  35  13  36  13
M  ISO  8  37  13  38  14  39  14  40  14  41   8  42   8  43   8  44   8
M  ISO  5  45  14  46  14  47  14  48  14  49  14
M  END
>  <minimizedAffinity>  (1) 
-5.88390064

>  <minimizedRMSD>  (1) 
0.541766286

$$$$
