
     RDKit          3D

 48 51  0  0  1  0  0  0  0  0999 V2000
   38.8730   23.5100   35.6920 N   0  0  0  0  0  0  0  0  0  0  0  0
   40.0540   22.8170   36.1590 C   0  0  0  0  0  0  0  0  0  0  0  0
   40.1100   22.4900   37.6010 C   0  0  0  0  0  0  0  0  0  0  0  0
   39.2650   23.2630   38.5500 C   0  0  0  0  0  0  0  0  0  0  0  0
   38.0760   23.9250   37.9150 C   0  0  0  0  0  0  0  0  0  0  0  0
   38.5520   24.5660   36.5660 C   0  0  2  0  0  0  0  0  0  0  0  0
   38.1840   23.1230   34.5060 C   0  0  0  0  0  0  0  0  0  0  0  0
   38.1810   23.8190   33.3050 C   0  0  0  0  0  0  0  0  0  0  0  0
   37.4720   23.3380   32.2290 C   0  0  0  0  0  0  0  0  0  0  0  0
   36.7870   22.1710   32.3840 N   0  0  0  0  0  0  0  0  0  0  0  0
   36.7890   21.4940   33.5480 C   0  0  0  0  0  0  0  0  0  0  0  0
   37.4860   21.9760   34.5920 N   0  0  0  0  0  0  0  0  0  0  0  0
   37.4850   25.4880   36.0890 C   0  0  0  0  0  0  0  0  0  0  0  0
   38.1000   26.8240   35.7500 C   0  0  0  0  0  0  0  0  0  0  0  0
   37.6020   27.3970   34.4980 C   0  0  0  0  0  0  0  0  0  0  0  0
   36.4250   28.0890   34.3070 C   0  0  0  0  0  0  0  0  0  0  0  0
   36.4350   28.4030   32.9680 C   0  0  0  0  0  0  0  0  0  0  0  0
   37.5810   27.9120   32.3870 C   0  0  0  0  0  0  0  0  0  0  0  0
   38.2310   27.3270   33.3440 O   0  0  0  0  0  0  0  0  0  0  0  0
   37.9620   28.0390   30.9840 C   0  0  0  0  0  0  0  0  0  0  0  0
   39.0610   27.3420   30.5180 C   0  0  0  0  0  0  0  0  0  0  0  0
   39.4230   27.4650   29.1740 C   0  0  0  0  0  0  0  0  0  0  0  0
   38.6670   28.2810   28.3560 C   0  0  0  0  0  0  0  0  0  0  0  0
   37.5620   28.9830   28.8170 C   0  0  0  0  0  0  0  0  0  0  0  0
   37.2210   28.8490   30.1440 C   0  0  0  0  0  0  0  0  0  0  0  0
   40.1279   21.8722   35.6005 H   0  0  0  0  0  0  0  0  0  0  0  0
   40.8844   23.5185   35.9908 H   0  0  0  0  0  0  0  0  0  0  0  0
   39.8242   21.4327   37.7029 H   0  0  0  0  0  0  0  0  0  0  0  0
   41.1384   22.7519   37.8907 H   0  0  0  0  0  0  0  0  0  0  0  0
   38.9025   22.5754   39.3283 H   0  0  0  0  0  0  0  0  0  0  0  0
   39.8972   24.0675   38.9538 H   0  0  0  0  0  0  0  0  0  0  0  0
   37.2919   23.1788   37.7192 H   0  0  0  0  0  0  0  0  0  0  0  0
   37.6614   24.6948   38.5824 H   0  0  0  0  0  0  0  0  0  0  0  0
   39.4580   25.1830   36.6582 H   0  0  0  0  0  0  0  0  0  0  0  0
   38.7471   24.7577   33.2136 H   0  0  0  0  0  0  0  0  0  0  0  0
   37.4586   23.8797   31.2717 H   0  0  0  0  0  0  0  0  0  0  0  0
   36.2251   20.5544   33.6440 H   0  0  0  0  0  0  0  0  0  0  0  0
   37.0065   25.0652   35.1933 H   0  0  0  0  0  0  0  0  0  0  0  0
   36.7288   25.6181   36.8772 H   0  0  0  0  0  0  0  0  0  0  0  0
   37.8778   27.5265   36.5667 H   0  0  0  0  0  0  0  0  0  0  0  0
   39.1801   26.6592   35.6226 H   0  0  0  0  0  0  0  0  0  0  0  0
   35.6551   28.3337   35.0536 H   0  0  0  0  0  0  0  0  0  0  0  0
   35.6468   28.9616   32.4420 H   0  0  0  0  0  0  0  0  0  0  0  0
   39.6424   26.6996   31.1957 H   0  0  0  0  0  0  0  0  0  0  0  0
   40.2930   26.9225   28.7755 H   0  0  0  0  0  0  0  0  0  0  0  0
   38.9515   28.3785   27.2979 H   0  0  0  0  0  0  0  0  0  0  0  0
   36.9771   29.6263   28.1432 H   0  0  0  0  0  0  0  0  0  0  0  0
   36.3501   29.3920   30.5399 H   0  0  0  0  0  0  0  0  0  0  0  0
  1  2  1  0
  1  6  1  0
  2  3  1  0
  3  4  1  0
  5  4  1  0
  6  5  1  0
  7 12  1  0
  7  1  1  0
  8  7  2  0
  9 10  2  0
  9  8  1  0
 10 11  1  0
 11 12  2  0
 13  6  1  0
 14 13  1  0
 15 14  1  0
 16 15  2  0
 17 16  1  0
 18 17  2  0
 18 19  1  0
 19 15  1  0
 20 18  1  0
 21 20  2  0
 22 21  1  0
 23 24  1  0
 23 22  2  0
 24 25  2  0
 25 20  1  0
  2 26  1  0
  2 27  1  0
  3 28  1  0
  3 29  1  0
  4 30  1  0
  4 31  1  0
  5 32  1  0
  5 33  1  0
  6 34  1  1
  8 35  1  0
  9 36  1  0
 11 37  1  0
 13 38  1  0
 13 39  1  0
 14 40  1  0
 14 41  1  0
 16 42  1  0
 17 43  1  0
 21 44  1  0
 22 45  1  0
 23 46  1  0
 24 47  1  0
 25 48  1  0
M  ISO  8  26  13  27  13  28  13  29  13  30  13  31  13  32  13  33  13
M  ISO  8  34  13  35  14  36  14  37  14  38   8  39   8  40   8  41   8
M  ISO  7  42  14  43  14  44  14  45  14  46  14  47  14  48  14
M  END
>  <minimizedAffinity>  (1) 
-5.745543

>  <minimizedRMSD>  (1) 
0.30314821

$$$$
