
     RDKit          3D

 45 48  0  0  1  0  0  0  0  0999 V2000
   38.8570   23.4660   35.7100 N   0  0  0  0  0  0  0  0  0  0  0  0
   40.0230   22.7830   36.2250 C   0  0  0  0  0  0  0  0  0  0  0  0
   40.0590   22.5170   37.6800 C   0  0  0  0  0  0  0  0  0  0  0  0
   39.2250   23.3470   38.5860 C   0  0  0  0  0  0  0  0  0  0  0  0
   38.0270   23.9740   37.9020 C   0  0  0  0  0  0  0  0  0  0  0  0
   38.5380   24.5680   36.5440 C   0  0  2  0  0  0  0  0  0  0  0  0
   38.1800   23.0420   34.5380 C   0  0  0  0  0  0  0  0  0  0  0  0
   38.2070   23.6670   33.3050 C   0  0  0  0  0  0  0  0  0  0  0  0
   37.5030   23.1540   32.2390 C   0  0  0  0  0  0  0  0  0  0  0  0
   36.7880   22.0240   32.4360 N   0  0  0  0  0  0  0  0  0  0  0  0
   36.7550   21.4030   33.6390 C   0  0  0  0  0  0  0  0  0  0  0  0
   37.4510   21.9220   34.6680 N   0  0  0  0  0  0  0  0  0  0  0  0
   37.4770   25.4750   36.0110 C   0  0  0  0  0  0  0  0  0  0  0  0
   38.1250   26.8110   35.6790 C   0  0  0  0  0  0  0  0  0  0  0  0
   37.5510   27.4410   34.4710 C   0  0  0  0  0  0  0  0  0  0  0  0
   36.3720   28.1500   34.3720 C   0  0  0  0  0  0  0  0  0  0  0  0
   36.3240   28.5030   33.0420 C   0  0  0  0  0  0  0  0  0  0  0  0
   37.4400   28.0140   32.3910 C   0  0  0  0  0  0  0  0  0  0  0  0
   38.1130   27.4010   33.2980 O   0  0  0  0  0  0  0  0  0  0  0  0
   37.7850   28.1530   31.0070 C   0  0  0  0  0  0  0  0  0  0  0  0
   37.1180   28.8060   30.0230 C   0  0  0  0  0  0  0  0  0  0  0  0
   37.5750   28.8470   28.7560 C   0  0  0  0  0  0  0  0  0  0  0  0
   38.8190   28.1430   28.5500 C   0  0  0  0  0  0  0  0  0  0  0  0
   39.2200   27.4670   30.2690 S   0  0  0  0  0  0  0  0  0  0  0  0
   40.0947   21.8142   35.7089 H   0  0  0  0  0  0  0  0  0  0  0  0
   40.8612   23.4709   36.0401 H   0  0  0  0  0  0  0  0  0  0  0  0
   39.7485   21.4716   37.8240 H   0  0  0  0  0  0  0  0  0  0  0  0
   41.0904   22.7684   37.9679 H   0  0  0  0  0  0  0  0  0  0  0  0
   38.8632   22.7101   39.4066 H   0  0  0  0  0  0  0  0  0  0  0  0
   39.8596   24.1707   38.9448 H   0  0  0  0  0  0  0  0  0  0  0  0
   37.2561   23.2119   37.7154 H   0  0  0  0  0  0  0  0  0  0  0  0
   37.5795   24.7575   38.5312 H   0  0  0  0  0  0  0  0  0  0  0  0
   39.4461   25.1824   36.6320 H   0  0  0  0  0  0  0  0  0  0  0  0
   38.7982   24.5853   33.1742 H   0  0  0  0  0  0  0  0  0  0  0  0
   37.5218   23.6487   31.2567 H   0  0  0  0  0  0  0  0  0  0  0  0
   36.1657   20.4841   33.7740 H   0  0  0  0  0  0  0  0  0  0  0  0
   37.0342   25.0389   35.1034 H   0  0  0  0  0  0  0  0  0  0  0  0
   36.6801   25.6113   36.7569 H   0  0  0  0  0  0  0  0  0  0  0  0
   37.9837   27.4917   36.5314 H   0  0  0  0  0  0  0  0  0  0  0  0
   39.1903   26.6223   35.4801 H   0  0  0  0  0  0  0  0  0  0  0  0
   35.6448   28.3785   35.1651 H   0  0  0  0  0  0  0  0  0  0  0  0
   35.5194   29.0857   32.5697 H   0  0  0  0  0  0  0  0  0  0  0  0
   36.1753   29.3177   30.2666 H   0  0  0  0  0  0  0  0  0  0  0  0
   37.0455   29.3721   27.9473 H   0  0  0  0  0  0  0  0  0  0  0  0
   39.3935   28.0281   27.6190 H   0  0  0  0  0  0  0  0  0  0  0  0
  1  2  1  0
  1  6  1  0
  2  3  1  0
  3  4  1  0
  5  4  1  0
  6  5  1  0
  7 12  1  0
  7  1  1  0
  8  7  2  0
  9 10  2  0
  9  8  1  0
 10 11  1  0
 11 12  2  0
 13  6  1  0
 14 13  1  0
 15 14  1  0
 16 15  2  0
 17 16  1  0
 18 17  2  0
 18 19  1  0
 19 15  1  0
 20 18  1  0
 21 20  2  0
 22 21  1  0
 23 22  2  0
 23 24  1  0
 24 20  1  0
  2 25  1  0
  2 26  1  0
  3 27  1  0
  3 28  1  0
  4 29  1  0
  4 30  1  0
  5 31  1  0
  5 32  1  0
  6 33  1  1
  8 34  1  0
  9 35  1  0
 11 36  1  0
 13 37  1  0
 13 38  1  0
 14 39  1  0
 14 40  1  0
 16 41  1  0
 17 42  1  0
 21 43  1  0
 22 44  1  0
 23 45  1  0
M  ISO  8  25  13  26  13  27  13  28  13  29  13  30  13  31  13  32  13
M  ISO  8  33  13  34  14  35  14  36  14  37   8  38   8  39   8  40   8
M  ISO  5  41  14  42  14  43  14  44  14  45  14
M  END
>  <minimizedAffinity>  (1) 
-5.52192497

>  <minimizedRMSD>  (1) 
0.285646528

$$$$
