
     RDKit          3D

 45 48  0  0  1  0  0  0  0  0999 V2000
   38.8490   23.4700   35.7110 N   0  0  0  0  0  0  0  0  0  0  0  0
   40.0170   22.7850   36.2290 C   0  0  0  0  0  0  0  0  0  0  0  0
   40.0420   22.5200   37.6840 C   0  0  0  0  0  0  0  0  0  0  0  0
   39.2230   23.3590   38.5780 C   0  0  0  0  0  0  0  0  0  0  0  0
   38.0280   23.9930   37.8980 C   0  0  0  0  0  0  0  0  0  0  0  0
   38.5270   24.5670   36.5330 C   0  0  2  0  0  0  0  0  0  0  0  0
   38.1730   23.0410   34.5330 C   0  0  0  0  0  0  0  0  0  0  0  0
   38.2030   23.6670   33.3000 C   0  0  0  0  0  0  0  0  0  0  0  0
   37.5050   23.1520   32.2400 C   0  0  0  0  0  0  0  0  0  0  0  0
   36.7920   22.0230   32.4310 N   0  0  0  0  0  0  0  0  0  0  0  0
   36.7570   21.4000   33.6350 C   0  0  0  0  0  0  0  0  0  0  0  0
   37.4500   21.9230   34.6690 N   0  0  0  0  0  0  0  0  0  0  0  0
   37.4740   25.4810   35.9970 C   0  0  0  0  0  0  0  0  0  0  0  0
   38.1220   26.8130   35.6460 C   0  0  0  0  0  0  0  0  0  0  0  0
   37.5440   27.4440   34.4570 C   0  0  0  0  0  0  0  0  0  0  0  0
   36.3700   28.1600   34.3860 C   0  0  0  0  0  0  0  0  0  0  0  0
   36.2790   28.5340   33.0640 C   0  0  0  0  0  0  0  0  0  0  0  0
   37.3690   28.0510   32.3850 C   0  0  0  0  0  0  0  0  0  0  0  0
   38.0700   27.4200   33.2690 O   0  0  0  0  0  0  0  0  0  0  0  0
   37.7530   28.1620   30.9780 C   0  0  0  0  0  0  0  0  0  0  0  0
   36.9640   28.8630   30.0670 C   0  0  0  0  0  0  0  0  0  0  0  0
   37.5610   28.8090   28.8150 C   0  0  0  0  0  0  0  0  0  0  0  0
   38.6970   28.0650   29.0410 C   0  0  0  0  0  0  0  0  0  0  0  0
   38.7790   27.7080   30.3000 O   0  0  0  0  0  0  0  0  0  0  0  0
   40.0915   21.8166   35.7127 H   0  0  0  0  0  0  0  0  0  0  0  0
   40.8581   23.4698   36.0459 H   0  0  0  0  0  0  0  0  0  0  0  0
   39.7137   21.4800   37.8278 H   0  0  0  0  0  0  0  0  0  0  0  0
   41.0761   22.7542   37.9768 H   0  0  0  0  0  0  0  0  0  0  0  0
   38.8587   22.7315   39.4048 H   0  0  0  0  0  0  0  0  0  0  0  0
   39.8671   24.1807   38.9244 H   0  0  0  0  0  0  0  0  0  0  0  0
   37.2467   23.2378   37.7267 H   0  0  0  0  0  0  0  0  0  0  0  0
   37.5983   24.7891   38.5238 H   0  0  0  0  0  0  0  0  0  0  0  0
   39.4377   25.1789   36.6120 H   0  0  0  0  0  0  0  0  0  0  0  0
   38.7926   24.5865   33.1696 H   0  0  0  0  0  0  0  0  0  0  0  0
   37.5254   23.6466   31.2577 H   0  0  0  0  0  0  0  0  0  0  0  0
   36.1706   20.4789   33.7677 H   0  0  0  0  0  0  0  0  0  0  0  0
   37.0230   25.0392   35.0962 H   0  0  0  0  0  0  0  0  0  0  0  0
   36.6874   25.6321   36.7510 H   0  0  0  0  0  0  0  0  0  0  0  0
   37.9985   27.4967   36.4988 H   0  0  0  0  0  0  0  0  0  0  0  0
   39.1807   26.6118   35.4255 H   0  0  0  0  0  0  0  0  0  0  0  0
   35.6649   28.3826   35.2005 H   0  0  0  0  0  0  0  0  0  0  0  0
   35.4631   29.1253   32.6229 H   0  0  0  0  0  0  0  0  0  0  0  0
   36.0201   29.3764   30.3025 H   0  0  0  0  0  0  0  0  0  0  0  0
   37.2112   29.2530   27.8713 H   0  0  0  0  0  0  0  0  0  0  0  0
   39.4364   27.8050   28.2692 H   0  0  0  0  0  0  0  0  0  0  0  0
  1  2  1  0
  1  6  1  0
  2  3  1  0
  3  4  1  0
  5  4  1  0
  6  5  1  0
  7 12  1  0
  7  1  1  0
  8  7  2  0
  9 10  2  0
  9  8  1  0
 10 11  1  0
 11 12  2  0
 13  6  1  0
 14 13  1  0
 15 14  1  0
 16 15  2  0
 17 16  1  0
 18 17  2  0
 18 19  1  0
 19 15  1  0
 20 18  1  0
 21 20  2  0
 22 23  2  0
 22 21  1  0
 23 24  1  0
 24 20  1  0
  2 25  1  0
  2 26  1  0
  3 27  1  0
  3 28  1  0
  4 29  1  0
  4 30  1  0
  5 31  1  0
  5 32  1  0
  6 33  1  1
  8 34  1  0
  9 35  1  0
 11 36  1  0
 13 37  1  0
 13 38  1  0
 14 39  1  0
 14 40  1  0
 16 41  1  0
 17 42  1  0
 21 43  1  0
 22 44  1  0
 23 45  1  0
M  ISO  8  25  13  26  13  27  13  28  13  29  13  30  13  31  13  32  13
M  ISO  8  33  13  34  14  35  14  36  14  37   8  38   8  39   8  40   8
M  ISO  5  41  14  42  14  43  14  44  14  45  14
M  END
>  <minimizedAffinity>  (1) 
-5.5035181

>  <minimizedRMSD>  (1) 
0.227507249

$$$$
