
     RDKit          3D

 29 30  0  0  0  0  0  0  0  0999 V2000
   36.1930   20.5710   33.2960 C   0  0  0  0  0  0  0  0  0  0  0  0
   35.5930   20.4960   34.5470 C   0  0  0  0  0  0  0  0  0  0  0  0
   36.2440   21.1420   35.5760 C   0  0  0  0  0  0  0  0  0  0  0  0
   37.4280   21.8390   35.4190 C   0  0  0  0  0  0  0  0  0  0  0  0
   37.9700   21.8730   34.1400 C   0  0  0  0  0  0  0  0  0  0  0  0
   37.3790   21.2480   33.0510 C   0  0  0  0  0  0  0  0  0  0  0  0
   39.9270   22.9170   37.8610 C   0  0  0  0  0  0  0  0  0  0  0  0
   39.1980   23.7600   38.7110 C   0  0  0  0  0  0  0  0  0  0  0  0
   37.8550   23.9370   38.4190 C   0  0  0  0  0  0  0  0  0  0  0  0
   37.2880   23.3060   37.3440 N   0  0  0  0  0  0  0  0  0  0  0  0
   38.0590   22.5000   36.5600 C   0  0  0  0  0  0  0  0  0  0  0  0
   39.3700   22.2910   36.7950 N   0  0  0  0  0  0  0  0  0  0  0  0
   35.4160   19.7680   31.9670 S   0  0  0  0  0  0  0  0  0  0  0  0
   35.3850   18.2690   32.1300 O   0  0  0  0  0  0  0  0  0  0  0  0
   34.0140   20.2960   31.8820 O   0  0  0  0  0  0  0  0  0  0  0  0
   36.2250   20.1740   30.4290 C   0  0  0  0  0  0  0  0  0  0  0  0
   36.6670   18.9730   29.6610 C   0  0  0  0  0  0  0  0  0  0  0  0
   34.6508   19.9514   34.7073 H   0  0  0  0  0  0  0  0  0  0  0  0
   35.7959   21.1007   36.5798 H   0  0  0  0  0  0  0  0  0  0  0  0
   38.9110   22.4207   33.9835 H   0  0  0  0  0  0  0  0  0  0  0  0
   37.8269   21.2872   32.0471 H   0  0  0  0  0  0  0  0  0  0  0  0
   40.9955   22.7566   38.0673 H   0  0  0  0  0  0  0  0  0  0  0  0
   39.6703   24.2582   39.5705 H   0  0  0  0  0  0  0  0  0  0  0  0
   37.2395   24.5895   39.0557 H   0  0  0  0  0  0  0  0  0  0  0  0
   35.5234   20.7483   29.8061 H   0  0  0  0  0  0  0  0  0  0  0  0
   37.1269   20.7527   30.6774 H   0  0  0  0  0  0  0  0  0  0  0  0
   36.9599   18.1771   30.3616 H   0  0  0  0  0  0  0  0  0  0  0  0
   35.8406   18.6182   29.0277 H   0  0  0  0  0  0  0  0  0  0  0  0
   37.5263   19.2386   29.0277 H   0  0  0  0  0  0  0  0  0  0  0  0
  1  2  2  0
  2  3  1  0
  4  3  2  0
  4 11  1  0
  5  4  1  0
  6  1  1  0
  6  5  2  0
  7  8  2  0
  9  8  1  0
 10  9  2  0
 11 12  2  0
 11 10  1  0
 12  7  1  0
 13 14  2  0
 13  1  1  0
 15 13  2  0
 16 13  1  0
 17 16  1  0
  2 18  1  0
  3 19  1  0
  5 20  1  0
  6 21  1  0
  7 22  1  0
  8 23  1  0
  9 24  1  0
 16 25  1  0
 16 26  1  0
 17 27  1  0
 17 28  1  0
 17 29  1  0
M  ISO  8  18  14  19  14  20  14  21  14  22  14  23  14  24  14  25   8
M  ISO  4  26   8  27   8  28   8  29   8
M  END
>  <minimizedAffinity>  (1) 
-4.53806925

>  <minimizedRMSD>  (1) 
1.36689425

$$$$
