
     RDKit          3D

 35 37  0  0  1  0  0  0  0  0999 V2000
   36.5610   21.3470   32.8120 C   0  0  0  0  0  0  0  0  0  0  0  0
   36.0990   20.8010   34.0020 C   0  0  0  0  0  0  0  0  0  0  0  0
   36.6700   21.3070   35.1420 C   0  0  0  0  0  0  0  0  0  0  0  0
   37.6430   22.2940   35.1740 C   0  0  0  0  0  0  0  0  0  0  0  0
   38.0470   22.7830   33.9580 C   0  0  0  0  0  0  0  0  0  0  0  0
   37.5340   22.3390   32.7480 C   0  0  0  0  0  0  0  0  0  0  0  0
   39.9440   22.8480   37.9650 C   0  0  0  0  0  0  0  0  0  0  0  0
   39.1760   23.6110   38.8580 C   0  0  0  0  0  0  0  0  0  0  0  0
   37.8790   23.9210   38.4810 C   0  0  0  0  0  0  0  0  0  0  0  0
   37.4040   23.4820   37.2810 N   0  0  0  0  0  0  0  0  0  0  0  0
   38.1750   22.7510   36.4540 C   0  0  0  0  0  0  0  0  0  0  0  0
   39.4440   22.4280   36.7830 N   0  0  0  0  0  0  0  0  0  0  0  0
   35.8800   20.7510   31.3280 S   0  0  0  0  0  0  0  0  0  0  0  0
   34.8850   19.6460   31.5690 O   0  0  0  0  0  0  0  0  0  0  0  0
   35.2110   21.9130   30.6440 O   0  0  0  0  0  0  0  0  0  0  0  0
   38.1590   19.4850   31.1990 N   0  0  0  0  0  0  0  0  0  0  0  0
   37.6400   18.2260   31.6840 C   0  0  0  0  0  0  0  0  0  0  0  0
   36.6590   17.7650   30.6280 C   0  0  0  0  0  0  0  0  0  0  0  0
   36.6580   18.8540   29.5880 C   0  0  0  0  0  0  0  0  0  0  0  0
   37.1710   20.0670   30.3380 C   0  0  1  0  0  0  0  0  0  0  0  0
   35.3282   20.0167   34.0288 H   0  0  0  0  0  0  0  0  0  0  0  0
   36.3297   20.8982   36.1048 H   0  0  0  0  0  0  0  0  0  0  0  0
   38.8176   23.5678   33.9413 H   0  0  0  0  0  0  0  0  0  0  0  0
   37.8788   22.7501   31.7877 H   0  0  0  0  0  0  0  0  0  0  0  0
   40.9778   22.5858   38.2343 H   0  0  0  0  0  0  0  0  0  0  0  0
   39.5877   23.9499   39.8201 H   0  0  0  0  0  0  0  0  0  0  0  0
   37.2369   24.5175   39.1458 H   0  0  0  0  0  0  0  0  0  0  0  0
   38.3468   20.1149   31.9920 H   0  0  0  0  0  0  0  0  0  0  0  0
   38.4525   17.4938   31.8010 H   0  0  0  0  0  0  0  0  0  0  0  0
   37.1624   18.3316   32.6692 H   0  0  0  0  0  0  0  0  0  0  0  0
   36.9859   16.8114   30.1877 H   0  0  0  0  0  0  0  0  0  0  0  0
   35.6557   17.5941   31.0454 H   0  0  0  0  0  0  0  0  0  0  0  0
   35.6418   19.0301   29.2054 H   0  0  0  0  0  0  0  0  0  0  0  0
   37.2712   18.6051   28.7094 H   0  0  0  0  0  0  0  0  0  0  0  0
   37.5444   20.8694   29.6847 H   0  0  0  0  0  0  0  0  0  0  0  0
  1  2  2  0
  2  3  1  0
  3  4  2  0
  4 11  1  0
  5  4  1  0
  6  1  1  0
  6  5  2  0
  7  8  2  0
  9  8  1  0
 10  9  2  0
 11 12  2  0
 11 10  1  0
 12  7  1  0
 13 14  2  0
 13  1  1  0
 15 13  2  0
 16 17  1  0
 18 17  1  0
 19 20  1  0
 19 18  1  0
 20 16  1  0
 20 13  1  0
  2 21  1  0
  3 22  1  0
  5 23  1  0
  6 24  1  0
  7 25  1  0
  8 26  1  0
  9 27  1  0
 16 28  1  0
 17 29  1  0
 17 30  1  0
 18 31  1  0
 18 32  1  0
 19 33  1  0
 19 34  1  0
 20 35  1  6
M  ISO  8  21  14  22  14  23  14  24  14  25  14  26  14  27  14  28   5
M  ISO  7  29  13  30  13  31  13  32  13  33  13  34  13  35  13
M  END
>  <minimizedAffinity>  (1) 
-4.65588903

>  <minimizedRMSD>  (1) 
2.73168707

$$$$
