
     RDKit          3D

 48 51  0  0  1  0  0  0  0  0999 V2000
   35.9240   20.5760   31.4860 S   0  0  0  0  0  0  0  0  0  0  0  0
   34.7950   19.6550   31.7040 O   0  0  0  0  0  0  0  0  0  0  0  0
   35.4660   21.7560   30.6160 O   0  0  0  0  0  0  0  0  0  0  0  0
   37.9650   18.9640   31.6630 N   0  0  0  0  0  0  0  0  0  0  0  0
   37.2060   17.8570   32.1100 C   0  0  0  0  0  0  0  0  0  0  0  0
   36.2970   17.5050   30.9570 C   0  0  0  0  0  0  0  0  0  0  0  0
   36.6210   18.5400   29.8760 C   0  0  0  0  0  0  0  0  0  0  0  0
   37.1900   19.6880   30.6170 C   0  0  1  0  0  0  0  0  0  0  0  0
   38.2100   20.4970   30.0380 N   0  0  0  0  0  0  0  0  0  0  0  0
   38.1120   21.8590   30.0890 C   0  0  0  0  0  0  0  0  0  0  0  0
   39.0420   22.7440   29.5580 C   0  0  0  0  0  0  0  0  0  0  0  0
   38.9000   24.2020   29.6340 C   0  0  0  0  0  0  0  0  0  0  0  0
   40.1540   22.2290   28.9280 C   0  0  0  0  0  0  0  0  0  0  0  0
   41.0410   22.9360   28.4220 O   0  0  0  0  0  0  0  0  0  0  0  0
   40.2650   20.9020   28.8690 N   0  0  0  0  0  0  0  0  0  0  0  0
   39.3350   20.1190   29.3990 C   0  0  0  0  0  0  0  0  0  0  0  0
   39.5190   18.8690   29.2990 O   0  0  0  0  0  0  0  0  0  0  0  0
   36.6130   21.2870   32.8920 C   0  0  0  0  0  0  0  0  0  0  0  0
   36.1140   20.7790   34.1130 C   0  0  0  0  0  0  0  0  0  0  0  0
   36.6470   21.2990   35.2620 C   0  0  0  0  0  0  0  0  0  0  0  0
   37.6380   22.2820   35.2700 C   0  0  0  0  0  0  0  0  0  0  0  0
   38.0670   22.7190   34.0550 C   0  0  0  0  0  0  0  0  0  0  0  0
   37.5820   22.2490   32.8370 C   0  0  0  0  0  0  0  0  0  0  0  0
   39.8880   22.9220   38.0850 C   0  0  0  0  0  0  0  0  0  0  0  0
   39.1030   23.7010   38.9430 C   0  0  0  0  0  0  0  0  0  0  0  0
   37.8110   23.9920   38.5370 C   0  0  0  0  0  0  0  0  0  0  0  0
   37.3600   23.5220   37.3440 N   0  0  0  0  0  0  0  0  0  0  0  0
   38.1470   22.7770   36.5460 C   0  0  0  0  0  0  0  0  0  0  0  0
   39.4110   22.4690   36.9040 N   0  0  0  0  0  0  0  0  0  0  0  0
   38.1533   19.5964   32.4539 H   0  0  0  0  0  0  0  0  0  0  0  0
   37.8654   17.0107   32.3530 H   0  0  0  0  0  0  0  0  0  0  0  0
   36.6385   18.0908   33.0228 H   0  0  0  0  0  0  0  0  0  0  0  0
   36.5061   16.4876   30.5949 H   0  0  0  0  0  0  0  0  0  0  0  0
   35.2353   17.5218   31.2442 H   0  0  0  0  0  0  0  0  0  0  0  0
   35.7090   18.8384   29.3383 H   0  0  0  0  0  0  0  0  0  0  0  0
   37.3145   18.1479   29.1175 H   0  0  0  0  0  0  0  0  0  0  0  0
   37.2302   22.2870   30.5882 H   0  0  0  0  0  0  0  0  0  0  0  0
   38.8697   24.5130   30.6887 H   0  0  0  0  0  0  0  0  0  0  0  0
   39.7558   24.6803   29.1351 H   0  0  0  0  0  0  0  0  0  0  0  0
   37.9680   24.5061   29.1351 H   0  0  0  0  0  0  0  0  0  0  0  0
   41.0827   20.4797   28.4064 H   0  0  0  0  0  0  0  0  0  0  0  0
   35.3348   20.0030   34.1389 H   0  0  0  0  0  0  0  0  0  0  0  0
   36.2757   20.9234   36.2269 H   0  0  0  0  0  0  0  0  0  0  0  0
   38.8475   23.4938   34.0333 H   0  0  0  0  0  0  0  0  0  0  0  0
   37.9602   22.6331   31.8782 H   0  0  0  0  0  0  0  0  0  0  0  0
   40.9182   22.6723   38.3789 H   0  0  0  0  0  0  0  0  0  0  0  0
   39.4968   24.0678   39.9024 H   0  0  0  0  0  0  0  0  0  0  0  0
   37.1539   24.5999   39.1763 H   0  0  0  0  0  0  0  0  0  0  0  0
  1  2  2  0
  1 18  1  0
  3  1  2  0
  4  5  1  0
  6  5  1  0
  7  8  1  0
  7  6  1  0
  8  1  1  0
  8  4  1  0
  9 10  1  0
  8  9  1  6
 11 12  1  0
 11 10  2  0
 13 11  1  0
 14 13  2  0
 15 13  1  0
 15 16  1  0
 16  9  1  0
 17 16  2  0
 18 19  2  0
 19 20  1  0
 20 21  2  0
 21 28  1  0
 22 21  1  0
 23 18  1  0
 23 22  2  0
 24 25  2  0
 26 25  1  0
 27 26  2  0
 28 29  2  0
 28 27  1  0
 29 24  1  0
  4 30  1  0
  5 31  1  0
  5 32  1  0
  6 33  1  0
  6 34  1  0
  7 35  1  0
  7 36  1  0
 10 37  1  0
 12 38  1  0
 12 39  1  0
 12 40  1  0
 15 41  1  0
 19 42  1  0
 20 43  1  0
 22 44  1  0
 23 45  1  0
 24 46  1  0
 25 47  1  0
 26 48  1  0
M  ISO  8  30   5  31  13  32  13  33  13  34  13  35  13  36  13  37  14
M  ISO  8  38   8  39   8  40   8  41   9  42  14  43  14  44  14  45  14
M  ISO  3  46  14  47  14  48  14
M  END
>  <minimizedAffinity>  (1) 
-4.88886642

>  <minimizedRMSD>  (1) 
0.735523701

$$$$
