
     RDKit          3D

 44 47  0  0  1  0  0  0  0  0999 V2000
   35.9380   20.3530   31.4560 S   0  0  0  0  0  0  0  0  0  0  0  0
   34.7600   19.4950   31.7050 O   0  0  0  0  0  0  0  0  0  0  0  0
   35.5200   21.5240   30.5430 O   0  0  0  0  0  0  0  0  0  0  0  0
   37.9690   18.7740   31.6760 N   0  0  0  0  0  0  0  0  0  0  0  0
   37.2370   17.7060   32.2420 C   0  0  0  0  0  0  0  0  0  0  0  0
   36.2650   17.2510   31.1890 C   0  0  0  0  0  0  0  0  0  0  0  0
   36.5460   18.1780   30.0090 C   0  0  0  0  0  0  0  0  0  0  0  0
   37.1350   19.3980   30.6150 C   0  0  1  0  0  0  0  0  0  0  0  0
   38.0360   20.2260   29.8100 C   0  0  0  0  0  0  0  0  0  0  0  0
   38.1510   19.5060   28.5920 C   0  0  0  0  0  0  0  0  0  0  0  0
   38.9410   19.8830   27.4810 C   0  0  0  0  0  0  0  0  0  0  0  0
   39.6810   21.0450   27.5420 C   0  0  0  0  0  0  0  0  0  0  0  0
   39.5230   21.6910   28.7460 C   0  0  0  0  0  0  0  0  0  0  0  0
   38.7770   21.3060   29.7560 N   0  0  0  0  0  0  0  0  0  0  0  0
   36.6290   21.0910   32.8440 C   0  0  0  0  0  0  0  0  0  0  0  0
   36.0340   20.7160   34.0680 C   0  0  0  0  0  0  0  0  0  0  0  0
   36.5660   21.2440   35.2140 C   0  0  0  0  0  0  0  0  0  0  0  0
   37.6510   22.1220   35.2090 C   0  0  0  0  0  0  0  0  0  0  0  0
   38.1790   22.4420   33.9770 C   0  0  0  0  0  0  0  0  0  0  0  0
   37.6700   21.9290   32.7960 C   0  0  0  0  0  0  0  0  0  0  0  0
   39.9270   22.8650   37.9770 C   0  0  0  0  0  0  0  0  0  0  0  0
   39.1190   23.6380   38.8390 C   0  0  0  0  0  0  0  0  0  0  0  0
   37.8060   23.8870   38.4480 C   0  0  0  0  0  0  0  0  0  0  0  0
   37.3590   23.3830   37.2650 N   0  0  0  0  0  0  0  0  0  0  0  0
   38.1660   22.6470   36.4680 C   0  0  0  0  0  0  0  0  0  0  0  0
   39.4470   22.3820   36.8120 N   0  0  0  0  0  0  0  0  0  0  0  0
   38.1875   19.4706   32.4026 H   0  0  0  0  0  0  0  0  0  0  0  0
   37.9143   16.8834   32.5151 H   0  0  0  0  0  0  0  0  0  0  0  0
   36.7142   18.0221   33.1567 H   0  0  0  0  0  0  0  0  0  0  0  0
   36.4472   16.2014   30.9148 H   0  0  0  0  0  0  0  0  0  0  0  0
   35.2192   17.2975   31.5269 H   0  0  0  0  0  0  0  0  0  0  0  0
   35.6143   18.4210   29.4771 H   0  0  0  0  0  0  0  0  0  0  0  0
   37.2176   17.7165   29.2701 H   0  0  0  0  0  0  0  0  0  0  0  0
   37.5751   18.5729   28.5045 H   0  0  0  0  0  0  0  0  0  0  0  0
   38.9648   19.2558   26.5777 H   0  0  0  0  0  0  0  0  0  0  0  0
   40.3209   21.4113   26.7257 H   0  0  0  0  0  0  0  0  0  0  0  0
   40.0808   22.6300   28.8769 H   0  0  0  0  0  0  0  0  0  0  0  0
   35.1771   20.0270   34.0999 H   0  0  0  0  0  0  0  0  0  0  0  0
   36.1193   20.9643   36.1795 H   0  0  0  0  0  0  0  0  0  0  0  0
   39.0360   23.1300   33.9302 H   0  0  0  0  0  0  0  0  0  0  0  0
   38.1165   22.2074   31.8300 H   0  0  0  0  0  0  0  0  0  0  0  0
   40.9683   22.6523   38.2607 H   0  0  0  0  0  0  0  0  0  0  0  0
   39.5136   24.0305   39.7878 H   0  0  0  0  0  0  0  0  0  0  0  0
   37.1383   24.4835   39.0870 H   0  0  0  0  0  0  0  0  0  0  0  0
  1  2  2  0
  1 15  1  0
  3  1  2  0
  4  5  1  0
  6  5  1  0
  7  8  1  0
  7  6  1  0
  8  1  1  0
  8  4  1  0
  8  9  1  6
 10  9  2  0
 11 12  2  0
 11 10  1  0
 12 13  1  0
 13 14  2  0
 14  9  1  0
 15 16  2  0
 16 17  1  0
 18 17  2  0
 18 25  1  0
 19 18  1  0
 20 15  1  0
 20 19  2  0
 21 22  2  0
 23 22  1  0
 24 23  2  0
 25 26  2  0
 25 24  1  0
 26 21  1  0
  4 27  1  0
  5 28  1  0
  5 29  1  0
  6 30  1  0
  6 31  1  0
  7 32  1  0
  7 33  1  0
 10 34  1  0
 11 35  1  0
 12 36  1  0
 13 37  1  0
 16 38  1  0
 17 39  1  0
 19 40  1  0
 20 41  1  0
 21 42  1  0
 22 43  1  0
 23 44  1  0
M  ISO  8  27   5  28  13  29  13  30  13  31  13  32  13  33  13  34  14
M  ISO  8  35  14  36  14  37  14  38  14  39  14  40  14  41  14  42  14
M  ISO  2  43  14  44  14
M  END
>  <minimizedAffinity>  (1) 
-4.84594584

>  <minimizedRMSD>  (1) 
0.72190088

$$$$
