
     RDKit          3D

 45 48  0  0  1  0  0  0  0  0999 V2000
   35.9480   20.6850   31.4700 S   0  0  0  0  0  0  0  0  0  0  0  0
   34.8480   19.7160   31.6840 O   0  0  0  0  0  0  0  0  0  0  0  0
   35.4150   21.8690   30.6510 O   0  0  0  0  0  0  0  0  0  0  0  0
   38.0450   19.1520   31.5700 N   0  0  0  0  0  0  0  0  0  0  0  0
   37.3440   18.0070   32.0050 C   0  0  0  0  0  0  0  0  0  0  0  0
   36.4220   17.6430   30.8640 C   0  0  0  0  0  0  0  0  0  0  0  0
   36.6790   18.7150   29.8010 C   0  0  0  0  0  0  0  0  0  0  0  0
   37.2180   19.8720   30.5570 C   0  0  1  0  0  0  0  0  0  0  0  0
   38.2060   20.7110   29.9540 N   0  0  0  0  0  0  0  0  0  0  0  0
   38.2710   22.0780   29.9770 C   0  0  0  0  0  0  0  0  0  0  0  0
   39.2390   22.8650   29.3990 C   0  0  0  0  0  0  0  0  0  0  0  0
   40.2510   22.2160   28.7260 C   0  0  0  0  0  0  0  0  0  0  0  0
   41.1290   22.9480   28.2030 O   0  0  0  0  0  0  0  0  0  0  0  0
   40.2200   20.8730   28.6820 N   0  0  0  0  0  0  0  0  0  0  0  0
   39.2430   20.1610   29.2690 C   0  0  0  0  0  0  0  0  0  0  0  0
   39.3990   18.9320   29.1130 O   0  0  0  0  0  0  0  0  0  0  0  0
   36.6250   21.3780   32.8910 C   0  0  0  0  0  0  0  0  0  0  0  0
   36.1620   20.8250   34.1050 C   0  0  0  0  0  0  0  0  0  0  0  0
   36.6940   21.3300   35.2590 C   0  0  0  0  0  0  0  0  0  0  0  0
   37.6520   22.3460   35.2790 C   0  0  0  0  0  0  0  0  0  0  0  0
   38.0480   22.8280   34.0690 C   0  0  0  0  0  0  0  0  0  0  0  0
   37.5580   22.3720   32.8470 C   0  0  0  0  0  0  0  0  0  0  0  0
   39.9080   22.9290   38.1030 C   0  0  0  0  0  0  0  0  0  0  0  0
   39.1270   23.7260   38.9620 C   0  0  0  0  0  0  0  0  0  0  0  0
   37.8360   24.0470   38.5510 C   0  0  0  0  0  0  0  0  0  0  0  0
   37.3830   23.5860   37.3510 N   0  0  0  0  0  0  0  0  0  0  0  0
   38.1670   22.8250   36.5580 C   0  0  0  0  0  0  0  0  0  0  0  0
   39.4250   22.4910   36.9210 N   0  0  0  0  0  0  0  0  0  0  0  0
   38.2255   19.7721   32.3724 H   0  0  0  0  0  0  0  0  0  0  0  0
   38.0431   17.1835   32.2125 H   0  0  0  0  0  0  0  0  0  0  0  0
   36.7884   18.1965   32.9353 H   0  0  0  0  0  0  0  0  0  0  0  0
   36.6636   16.6434   30.4735 H   0  0  0  0  0  0  0  0  0  0  0  0
   35.3674   17.6090   31.1750 H   0  0  0  0  0  0  0  0  0  0  0  0
   35.7436   18.9870   29.2901 H   0  0  0  0  0  0  0  0  0  0  0  0
   37.3714   18.3691   29.0194 H   0  0  0  0  0  0  0  0  0  0  0  0
   37.4655   22.6010   30.5133 H   0  0  0  0  0  0  0  0  0  0  0  0
   39.2069   23.9622   29.4706 H   0  0  0  0  0  0  0  0  0  0  0  0
   40.9693   20.3734   28.1822 H   0  0  0  0  0  0  0  0  0  0  0  0
   35.4078   20.0245   34.1216 H   0  0  0  0  0  0  0  0  0  0  0  0
   36.3506   20.9158   36.2184 H   0  0  0  0  0  0  0  0  0  0  0  0
   38.8027   23.6282   34.0552 H   0  0  0  0  0  0  0  0  0  0  0  0
   37.9068   22.7934   31.8926 H   0  0  0  0  0  0  0  0  0  0  0  0
   40.9316   22.6581   38.4010 H   0  0  0  0  0  0  0  0  0  0  0  0
   39.5231   24.0826   39.9243 H   0  0  0  0  0  0  0  0  0  0  0  0
   37.1881   24.6665   39.1885 H   0  0  0  0  0  0  0  0  0  0  0  0
  1  2  2  0
  1 17  1  0
  3  1  2  0
  4  5  1  0
  6  5  1  0
  7  8  1  0
  7  6  1  0
  8  1  1  0
  8  4  1  0
  9 10  1  0
  8  9  1  6
 11 10  2  0
 12 11  1  0
 13 12  2  0
 14 12  1  0
 14 15  1  0
 15  9  1  0
 16 15  2  0
 17 18  2  0
 18 19  1  0
 19 20  2  0
 20 27  1  0
 21 20  1  0
 22 17  1  0
 22 21  2  0
 23 24  2  0
 25 24  1  0
 26 25  2  0
 27 28  2  0
 27 26  1  0
 28 23  1  0
  4 29  1  0
  5 30  1  0
  5 31  1  0
  6 32  1  0
  6 33  1  0
  7 34  1  0
  7 35  1  0
 10 36  1  0
 11 37  1  0
 14 38  1  0
 18 39  1  0
 19 40  1  0
 21 41  1  0
 22 42  1  0
 23 43  1  0
 24 44  1  0
 25 45  1  0
M  ISO  8  29   5  30  13  31  13  32  13  33  13  34  13  35  13  36  14
M  ISO  8  37  14  38   9  39  14  40  14  41  14  42  14  43  14  44  14
M  ISO  1  45  14
M  END
>  <minimizedAffinity>  (1) 
-4.77017546

>  <minimizedRMSD>  (1) 
0.48206377

$$$$
