
     RDKit          3D

 36 38  0  0  1  0  0  0  0  0999 V2000
   36.5370   21.1720   32.8700 C   0  0  0  0  0  0  0  0  0  0  0  0
   36.0190   20.7230   34.1030 C   0  0  0  0  0  0  0  0  0  0  0  0
   36.5750   21.2400   35.2400 C   0  0  0  0  0  0  0  0  0  0  0  0
   37.6060   22.1680   35.2290 C   0  0  0  0  0  0  0  0  0  0  0  0
   38.0630   22.5630   33.9920 C   0  0  0  0  0  0  0  0  0  0  0  0
   37.5520   22.0830   32.7860 C   0  0  0  0  0  0  0  0  0  0  0  0
   39.9260   22.8640   37.9700 C   0  0  0  0  0  0  0  0  0  0  0  0
   39.1530   23.6470   38.8430 C   0  0  0  0  0  0  0  0  0  0  0  0
   37.8510   23.9180   38.4700 C   0  0  0  0  0  0  0  0  0  0  0  0
   37.3710   23.4270   37.2930 N   0  0  0  0  0  0  0  0  0  0  0  0
   38.1490   22.6790   36.4840 C   0  0  0  0  0  0  0  0  0  0  0  0
   39.4210   22.3910   36.8090 N   0  0  0  0  0  0  0  0  0  0  0  0
   35.8010   20.4540   31.4900 S   0  0  0  0  0  0  0  0  0  0  0  0
   34.7530   19.4570   31.7420 O   0  0  0  0  0  0  0  0  0  0  0  0
   35.2430   21.6290   30.6700 O   0  0  0  0  0  0  0  0  0  0  0  0
   38.0220   19.0680   31.5050 N   0  0  0  0  0  0  0  0  0  0  0  0
   37.4280   17.9100   32.0580 C   0  0  0  0  0  0  0  0  0  0  0  0
   36.4560   17.4220   31.0080 C   0  0  0  0  0  0  0  0  0  0  0  0
   36.5710   18.4400   29.8700 C   0  0  0  0  0  0  0  0  0  0  0  0
   37.0710   19.6660   30.5240 C   0  0  1  0  0  0  0  0  0  0  0  0
   37.8840   20.5520   29.8460 O   0  0  0  0  0  0  0  0  0  0  0  0
   35.2020   19.9878   34.1477 H   0  0  0  0  0  0  0  0  0  0  0  0
   36.1853   20.9033   36.2120 H   0  0  0  0  0  0  0  0  0  0  0  0
   38.8786   23.3000   33.9522 H   0  0  0  0  0  0  0  0  0  0  0  0
   37.9463   22.4208   31.8162 H   0  0  0  0  0  0  0  0  0  0  0  0
   40.9670   22.6302   38.2375 H   0  0  0  0  0  0  0  0  0  0  0  0
   39.5683   24.0295   39.7870 H   0  0  0  0  0  0  0  0  0  0  0  0
   37.2050   24.5269   39.1196 H   0  0  0  0  0  0  0  0  0  0  0  0
   38.2218   19.7470   32.2533 H   0  0  0  0  0  0  0  0  0  0  0  0
   38.1915   17.1449   32.2619 H   0  0  0  0  0  0  0  0  0  0  0  0
   36.9274   18.1219   33.0143 H   0  0  0  0  0  0  0  0  0  0  0  0
   36.7343   16.4167   30.6589 H   0  0  0  0  0  0  0  0  0  0  0  0
   35.4293   17.3441   31.3950 H   0  0  0  0  0  0  0  0  0  0  0  0
   35.5895   18.6185   29.4066 H   0  0  0  0  0  0  0  0  0  0  0  0
   37.2342   18.0944   29.0633 H   0  0  0  0  0  0  0  0  0  0  0  0
   38.3883   21.1016   30.4970 H   0  0  0  0  0  0  0  0  0  0  0  0
  1  2  2  0
  2  3  1  0
  4  3  2  0
  4 11  1  0
  5  4  1  0
  6  1  1  0
  6  5  2  0
  7  8  2  0
  9  8  1  0
 10  9  2  0
 11 12  2  0
 11 10  1  0
 12  7  1  0
 13 14  2  0
 13  1  1  0
 15 13  2  0
 16 17  1  0
 18 17  1  0
 19 20  1  0
 19 18  1  0
 20 21  1  6
 20 13  1  0
 20 16  1  0
  2 22  1  0
  3 23  1  0
  5 24  1  0
  6 25  1  0
  7 26  1  0
  8 27  1  0
  9 28  1  0
 16 29  1  0
 17 30  1  0
 17 31  1  0
 18 32  1  0
 18 33  1  0
 19 34  1  0
 19 35  1  0
 21 36  1  0
M  ISO  8  22  14  23  14  24  14  25  14  26  14  27  14  28  14  29   5
M  ISO  7  30  13  31  13  32  13  33  13  34  13  35  13  36   3
M  END
>  <minimizedAffinity>  (1) 
-4.71989679

>  <minimizedRMSD>  (1) 
0.318096489

$$$$
