
     RDKit          3D

 42 45  0  0  1  0  0  0  0  0999 V2000
   35.8770   20.4680   31.4380 S   0  0  0  0  0  0  0  0  0  0  0  0
   34.7340   19.5750   31.6680 O   0  0  0  0  0  0  0  0  0  0  0  0
   35.4680   21.6510   30.5440 O   0  0  0  0  0  0  0  0  0  0  0  0
   37.9850   18.9300   31.6410 N   0  0  0  0  0  0  0  0  0  0  0  0
   37.2870   17.8540   32.2310 C   0  0  0  0  0  0  0  0  0  0  0  0
   36.3280   17.3730   31.1660 C   0  0  0  0  0  0  0  0  0  0  0  0
   36.5600   18.3110   29.9770 C   0  0  0  0  0  0  0  0  0  0  0  0
   37.1250   19.5340   30.5810 C   0  0  1  0  0  0  0  0  0  0  0  0
   38.0630   20.3490   29.8590 N   0  0  0  0  0  0  0  0  0  0  0  0
   38.3890   19.8440   28.6880 N   0  0  0  0  0  0  0  0  0  0  0  0
   39.2690   20.6250   28.0290 C   0  0  0  0  0  0  0  0  0  0  0  0
   39.5010   21.7010   28.8670 C   0  0  0  0  0  0  0  0  0  0  0  0
   38.7540   21.5190   29.9880 C   0  0  0  0  0  0  0  0  0  0  0  0
   36.5970   21.1790   32.8320 C   0  0  0  0  0  0  0  0  0  0  0  0
   36.0520   20.7350   34.0560 C   0  0  0  0  0  0  0  0  0  0  0  0
   36.5930   21.2500   35.2030 C   0  0  0  0  0  0  0  0  0  0  0  0
   37.6380   22.1760   35.2030 C   0  0  0  0  0  0  0  0  0  0  0  0
   38.1120   22.5580   33.9790 C   0  0  0  0  0  0  0  0  0  0  0  0
   37.6190   22.0830   32.7630 C   0  0  0  0  0  0  0  0  0  0  0  0
   39.9160   22.8630   37.9800 C   0  0  0  0  0  0  0  0  0  0  0  0
   39.1280   23.6310   38.8500 C   0  0  0  0  0  0  0  0  0  0  0  0
   37.8270   23.8960   38.4650 C   0  0  0  0  0  0  0  0  0  0  0  0
   37.3680   23.4140   37.2760 N   0  0  0  0  0  0  0  0  0  0  0  0
   38.1600   22.6800   36.4690 C   0  0  0  0  0  0  0  0  0  0  0  0
   39.4300   22.3980   36.8070 N   0  0  0  0  0  0  0  0  0  0  0  0
   38.2007   19.6378   32.3575 H   0  0  0  0  0  0  0  0  0  0  0  0
   37.9836   17.0511   32.5141 H   0  0  0  0  0  0  0  0  0  0  0  0
   36.7633   18.1576   33.1495 H   0  0  0  0  0  0  0  0  0  0  0  0
   36.5491   16.3321   30.8872 H   0  0  0  0  0  0  0  0  0  0  0  0
   35.2833   17.3898   31.5101 H   0  0  0  0  0  0  0  0  0  0  0  0
   35.6122   18.5318   29.4643 H   0  0  0  0  0  0  0  0  0  0  0  0
   37.2247   17.8714   29.2188 H   0  0  0  0  0  0  0  0  0  0  0  0
   39.7085   20.4449   27.0368 H   0  0  0  0  0  0  0  0  0  0  0  0
   40.1693   22.5505   28.6630 H   0  0  0  0  0  0  0  0  0  0  0  0
   38.7133   22.1988   30.8519 H   0  0  0  0  0  0  0  0  0  0  0  0
   35.2282   20.0067   34.0868 H   0  0  0  0  0  0  0  0  0  0  0  0
   36.1856   20.9190   36.1697 H   0  0  0  0  0  0  0  0  0  0  0  0
   38.9353   23.2870   33.9508 H   0  0  0  0  0  0  0  0  0  0  0  0
   38.0314   22.4186   31.8000 H   0  0  0  0  0  0  0  0  0  0  0  0
   40.9550   22.6334   38.2589 H   0  0  0  0  0  0  0  0  0  0  0  0
   39.5299   24.0079   39.8021 H   0  0  0  0  0  0  0  0  0  0  0  0
   37.1674   24.4914   39.1135 H   0  0  0  0  0  0  0  0  0  0  0  0
  1  2  2  0
  1 14  1  0
  3  1  2  0
  4  5  1  0
  6  5  1  0
  7  8  1  0
  7  6  1  0
  8  1  1  0
  8  4  1  0
  9 13  1  0
  8  9  1  6
 10  9  1  0
 11 10  2  0
 11 12  1  0
 12 13  2  0
 14 15  2  0
 15 16  1  0
 16 17  2  0
 17 24  1  0
 18 17  1  0
 19 14  1  0
 19 18  2  0
 20 21  2  0
 22 21  1  0
 23 22  2  0
 24 25  2  0
 24 23  1  0
 25 20  1  0
  4 26  1  0
  5 27  1  0
  5 28  1  0
  6 29  1  0
  6 30  1  0
  7 31  1  0
  7 32  1  0
 11 33  1  0
 12 34  1  0
 13 35  1  0
 15 36  1  0
 16 37  1  0
 18 38  1  0
 19 39  1  0
 20 40  1  0
 21 41  1  0
 22 42  1  0
M  ISO  8  26   5  27  13  28  13  29  13  30  13  31  13  32  13  33  14
M  ISO  8  34  14  35  14  36  14  37  14  38  14  39  14  40  14  41  14
M  ISO  1  42  14
M  END
>  <minimizedAffinity>  (1) 
-4.70935154

>  <minimizedRMSD>  (1) 
0.562789857

$$$$
