
     RDKit          3D

 37 39  0  0  1  0  0  0  0  0999 V2000
   36.5490   21.1670   32.8690 C   0  0  0  0  0  0  0  0  0  0  0  0
   36.0260   20.7230   34.1040 C   0  0  0  0  0  0  0  0  0  0  0  0
   36.5810   21.2440   35.2370 C   0  0  0  0  0  0  0  0  0  0  0  0
   37.6200   22.1740   35.2220 C   0  0  0  0  0  0  0  0  0  0  0  0
   38.0740   22.5570   33.9940 C   0  0  0  0  0  0  0  0  0  0  0  0
   37.5660   22.0770   32.7860 C   0  0  0  0  0  0  0  0  0  0  0  0
   39.9220   22.8670   37.9800 C   0  0  0  0  0  0  0  0  0  0  0  0
   39.1480   23.6470   38.8490 C   0  0  0  0  0  0  0  0  0  0  0  0
   37.8430   23.9210   38.4690 C   0  0  0  0  0  0  0  0  0  0  0  0
   37.3730   23.4300   37.2880 N   0  0  0  0  0  0  0  0  0  0  0  0
   38.1560   22.6830   36.4820 C   0  0  0  0  0  0  0  0  0  0  0  0
   39.4240   22.3960   36.8140 N   0  0  0  0  0  0  0  0  0  0  0  0
   35.8140   20.4450   31.4900 S   0  0  0  0  0  0  0  0  0  0  0  0
   34.7500   19.4650   31.7440 O   0  0  0  0  0  0  0  0  0  0  0  0
   35.2810   21.6200   30.6540 O   0  0  0  0  0  0  0  0  0  0  0  0
   38.0100   19.0190   31.5420 N   0  0  0  0  0  0  0  0  0  0  0  0
   37.3910   17.8770   32.0990 C   0  0  0  0  0  0  0  0  0  0  0  0
   36.4230   17.3990   31.0390 C   0  0  0  0  0  0  0  0  0  0  0  0
   36.5640   18.4070   29.8960 C   0  0  0  0  0  0  0  0  0  0  0  0
   37.0830   19.6260   30.5470 C   0  0  1  0  0  0  0  0  0  0  0  0
   37.9460   20.5290   29.8530 N   0  0  0  0  0  0  0  0  0  0  0  0
   35.2075   19.9896   34.1505 H   0  0  0  0  0  0  0  0  0  0  0  0
   36.1892   20.9138   36.2104 H   0  0  0  0  0  0  0  0  0  0  0  0
   38.8925   23.2908   33.9533 H   0  0  0  0  0  0  0  0  0  0  0  0
   37.9634   22.4135   31.8170 H   0  0  0  0  0  0  0  0  0  0  0  0
   40.9613   22.6316   38.2529 H   0  0  0  0  0  0  0  0  0  0  0  0
   39.5594   24.0272   39.7957 H   0  0  0  0  0  0  0  0  0  0  0  0
   37.1930   24.5293   39.1151 H   0  0  0  0  0  0  0  0  0  0  0  0
   38.2141   19.7007   32.2867 H   0  0  0  0  0  0  0  0  0  0  0  0
   38.1386   17.1004   32.3182 H   0  0  0  0  0  0  0  0  0  0  0  0
   36.8843   18.1039   33.0486 H   0  0  0  0  0  0  0  0  0  0  0  0
   36.6899   16.3876   30.6986 H   0  0  0  0  0  0  0  0  0  0  0  0
   35.3911   17.3407   31.4156 H   0  0  0  0  0  0  0  0  0  0  0  0
   35.5889   18.6015   29.4254 H   0  0  0  0  0  0  0  0  0  0  0  0
   37.2249   18.0444   29.0949 H   0  0  0  0  0  0  0  0  0  0  0  0
   38.4792   21.0869   30.5351 H   0  0  0  0  0  0  0  0  0  0  0  0
   38.5984   19.9944   29.2618 H   0  0  0  0  0  0  0  0  0  0  0  0
  1  2  2  0
  2  3  1  0
  4  3  2  0
  4 11  1  0
  5  4  1  0
  6  1  1  0
  6  5  2  0
  7  8  2  0
  9  8  1  0
 10  9  2  0
 11 12  2  0
 11 10  1  0
 12  7  1  0
 13 14  2  0
 13  1  1  0
 15 13  2  0
 16 17  1  0
 18 17  1  0
 19 20  1  0
 19 18  1  0
 20 21  1  6
 20 13  1  0
 20 16  1  0
  2 22  1  0
  3 23  1  0
  5 24  1  0
  6 25  1  0
  7 26  1  0
  8 27  1  0
  9 28  1  0
 16 29  1  0
 17 30  1  0
 17 31  1  0
 18 32  1  0
 18 33  1  0
 19 34  1  0
 19 35  1  0
 21 36  1  0
 21 37  1  0
M  ISO  8  22  14  23  14  24  14  25  14  26  14  27  14  28  14  29   5
M  ISO  8  30  13  31  13  32  13  33  13  34  13  35  13  36   5  37   5
M  END
>  <minimizedAffinity>  (1) 
-4.67917871

>  <minimizedRMSD>  (1) 
0.344749212

$$$$
