
     RDKit          3D

 48 51  0  0  1  0  0  0  0  0999 V2000
   35.8060   20.3350   31.4600 S   0  0  0  0  0  0  0  0  0  0  0  0
   34.6440   19.4840   31.7090 O   0  0  0  0  0  0  0  0  0  0  0  0
   35.4190   21.5130   30.5390 O   0  0  0  0  0  0  0  0  0  0  0  0
   37.9410   18.8470   31.6720 N   0  0  0  0  0  0  0  0  0  0  0  0
   37.2890   17.8140   32.3760 C   0  0  0  0  0  0  0  0  0  0  0  0
   36.2800   17.2440   31.4190 C   0  0  0  0  0  0  0  0  0  0  0  0
   36.4370   18.0900   30.1460 C   0  0  0  0  0  0  0  0  0  0  0  0
   37.0180   19.3560   30.6060 C   0  0  1  0  0  0  0  0  0  0  0  0
   37.8530   20.0510   29.7010 N   0  0  0  0  0  0  0  0  0  0  0  0
   37.8660   19.5510   28.3550 C   0  0  0  0  0  0  0  0  0  0  0  0
   39.1080   20.1350   27.6610 C   0  0  0  0  0  0  0  0  0  0  0  0
   40.1770   19.4720   28.2690 O   0  0  0  0  0  0  0  0  0  0  0  0
   40.3170   20.0420   29.5070 C   0  0  0  0  0  0  0  0  0  0  0  0
   39.0960   20.5380   30.1740 C   0  0  0  0  0  0  0  0  0  0  0  0
   36.5380   21.0720   32.8290 C   0  0  0  0  0  0  0  0  0  0  0  0
   35.9710   20.6860   34.0650 C   0  0  0  0  0  0  0  0  0  0  0  0
   36.5220   21.2070   35.2050 C   0  0  0  0  0  0  0  0  0  0  0  0
   37.6000   22.0870   35.1850 C   0  0  0  0  0  0  0  0  0  0  0  0
   38.0920   22.4130   33.9550 C   0  0  0  0  0  0  0  0  0  0  0  0
   37.5900   21.9280   32.7510 C   0  0  0  0  0  0  0  0  0  0  0  0
   39.9280   22.8430   37.9030 C   0  0  0  0  0  0  0  0  0  0  0  0
   39.1430   23.6020   38.7850 C   0  0  0  0  0  0  0  0  0  0  0  0
   37.8290   23.8370   38.4270 C   0  0  0  0  0  0  0  0  0  0  0  0
   37.3520   23.3350   37.2550 N   0  0  0  0  0  0  0  0  0  0  0  0
   38.1430   22.6100   36.4350 C   0  0  0  0  0  0  0  0  0  0  0  0
   39.4250   22.3570   36.7460 N   0  0  0  0  0  0  0  0  0  0  0  0
   38.1785   19.6120   32.3195 H   0  0  0  0  0  0  0  0  0  0  0  0
   38.0107   17.0408   32.6780 H   0  0  0  0  0  0  0  0  0  0  0  0
   36.8122   18.1867   33.2946 H   0  0  0  0  0  0  0  0  0  0  0  0
   36.4955   16.1855   31.2115 H   0  0  0  0  0  0  0  0  0  0  0  0
   35.2565   17.2783   31.8206 H   0  0  0  0  0  0  0  0  0  0  0  0
   35.4593   18.2620   29.6721 H   0  0  0  0  0  0  0  0  0  0  0  0
   37.0668   17.5937   29.3930 H   0  0  0  0  0  0  0  0  0  0  0  0
   37.9207   18.4524   28.3623 H   0  0  0  0  0  0  0  0  0  0  0  0
   36.9491   19.8437   27.8224 H   0  0  0  0  0  0  0  0  0  0  0  0
   39.1751   21.2202   27.8276 H   0  0  0  0  0  0  0  0  0  0  0  0
   39.0885   19.9959   26.5700 H   0  0  0  0  0  0  0  0  0  0  0  0
   40.7692   19.2874   30.1674 H   0  0  0  0  0  0  0  0  0  0  0  0
   40.9251   20.9419   29.3328 H   0  0  0  0  0  0  0  0  0  0  0  0
   39.0835   21.6328   30.0684 H   0  0  0  0  0  0  0  0  0  0  0  0
   39.1691   20.1680   31.2073 H   0  0  0  0  0  0  0  0  0  0  0  0
   35.1183   19.9925   34.1093 H   0  0  0  0  0  0  0  0  0  0  0  0
   36.0950   20.9181   36.1767 H   0  0  0  0  0  0  0  0  0  0  0  0
   38.9443   23.1071   33.9119 H   0  0  0  0  0  0  0  0  0  0  0  0
   38.0236   22.2232   31.7841 H   0  0  0  0  0  0  0  0  0  0  0  0
   40.9780   22.6386   38.1594 H   0  0  0  0  0  0  0  0  0  0  0  0
   39.5578   23.9947   39.7251 H   0  0  0  0  0  0  0  0  0  0  0  0
   37.1729   24.4259   39.0848 H   0  0  0  0  0  0  0  0  0  0  0  0
  1  2  2  0
  1 15  1  0
  3  1  2  0
  4  5  1  0
  6  5  1  0
  7  8  1  0
  7  6  1  0
  8  1  1  0
  8  4  1  0
  9 14  1  0
  8  9  1  6
 10  9  1  0
 11 12  1  0
 11 10  1  0
 12 13  1  0
 13 14  1  0
 15 16  2  0
 16 17  1  0
 18 17  2  0
 18 25  1  0
 19 18  1  0
 20 15  1  0
 20 19  2  0
 21 22  2  0
 23 22  1  0
 24 23  2  0
 25 26  2  0
 25 24  1  0
 26 21  1  0
  4 27  1  0
  5 28  1  0
  5 29  1  0
  6 30  1  0
  6 31  1  0
  7 32  1  0
  7 33  1  0
 10 34  1  0
 10 35  1  0
 11 36  1  0
 11 37  1  0
 13 38  1  0
 13 39  1  0
 14 40  1  0
 14 41  1  0
 16 42  1  0
 17 43  1  0
 19 44  1  0
 20 45  1  0
 21 46  1  0
 22 47  1  0
 23 48  1  0
M  ISO  8  27   5  28  13  29  13  30  13  31  13  32  13  33  13  34  13
M  ISO  8  35  13  36  13  37  13  38  13  39  13  40  13  41  13  42  14
M  ISO  6  43  14  44  14  45  14  46  14  47  14  48  14
M  END
>  <minimizedAffinity>  (1) 
-4.49342966

>  <minimizedRMSD>  (1) 
0.966005981

$$$$
