
     RDKit          3D

 23 24  0  0  0  0  0  0  0  0999 V2000
   39.9520   22.6610   37.2420 C   0  0  0  0  0  0  0  0  0  0  0  0
   39.1380   23.2780   38.2320 C   0  0  0  0  0  0  0  0  0  0  0  0
   37.7630   23.3660   37.9770 C   0  0  0  0  0  0  0  0  0  0  0  0
   37.2860   22.8600   36.8060 N   0  0  0  0  0  0  0  0  0  0  0  0
   38.0950   22.2790   35.8880 C   0  0  0  0  0  0  0  0  0  0  0  0
   39.4120   22.1830   36.1080 N   0  0  0  0  0  0  0  0  0  0  0  0
   41.4270   22.5230   37.4260 C   0  0  0  0  0  0  0  0  0  0  0  0
   42.1170   23.3270   36.3500 C   0  0  0  0  0  0  0  0  0  0  0  0
   42.7070   22.2730   35.4640 C   0  0  0  0  0  0  0  0  0  0  0  0
   43.1060   21.2040   36.4440 C   0  0  0  0  0  0  0  0  0  0  0  0
   41.8620   21.1060   37.3060 C   0  0  0  0  0  0  0  0  0  0  0  0
   39.5718   23.6714   39.1631 H   0  0  0  0  0  0  0  0  0  0  0  0
   37.0844   23.8331   38.7059 H   0  0  0  0  0  0  0  0  0  0  0  0
   37.6668   21.8833   34.9552 H   0  0  0  0  0  0  0  0  0  0  0  0
   41.6889   22.8830   38.4319 H   0  0  0  0  0  0  0  0  0  0  0  0
   41.3965   23.9487   35.7983 H   0  0  0  0  0  0  0  0  0  0  0  0
   42.8666   24.0273   36.7471 H   0  0  0  0  0  0  0  0  0  0  0  0
   41.9634   21.8960   34.7464 H   0  0  0  0  0  0  0  0  0  0  0  0
   43.5438   22.6369   34.8497 H   0  0  0  0  0  0  0  0  0  0  0  0
   43.3190   20.2520   35.9358 H   0  0  0  0  0  0  0  0  0  0  0  0
   44.0245   21.4299   37.0055 H   0  0  0  0  0  0  0  0  0  0  0  0
   41.0890   20.4950   36.8169 H   0  0  0  0  0  0  0  0  0  0  0  0
   42.0444   20.6243   38.2780 H   0  0  0  0  0  0  0  0  0  0  0  0
  1  7  1  0
  1  2  2  0
  3  2  1  0
  4  3  2  0
  5  6  2  0
  5  4  1  0
  6  1  1  0
  8  7  1  0
  9  8  1  0
  9 10  1  0
 10 11  1  0
 11  7  1  0
  2 12  1  0
  3 13  1  0
  5 14  1  0
  7 15  1  0
  8 16  1  0
  8 17  1  0
  9 18  1  0
  9 19  1  0
 10 20  1  0
 10 21  1  0
 11 22  1  0
 11 23  1  0
M  ISO  8  12  14  13  14  14  14  15  13  16  13  17  13  18  13  19  13
M  ISO  4  20  13  21  13  22  13  23  13
M  END
>  <minimizedAffinity>  (1) 
-3.64882231

>  <minimizedRMSD>  (1) 
0.722199857

$$$$
