
     RDKit          3D

 24 25  0  0  1  0  0  0  0  0999 V2000
   41.4350   22.4550   37.4420 C   0  0  2  0  0  0  0  0  0  0  0  0
   42.1480   23.3350   36.4260 C   0  0  0  0  0  0  0  0  0  0  0  0
   42.7390   22.3180   35.5000 C   0  0  0  0  0  0  0  0  0  0  0  0
   43.1160   21.1920   36.4230 C   0  0  0  0  0  0  0  0  0  0  0  0
   41.8530   21.0530   37.2390 C   0  0  1  0  0  0  0  0  0  0  0  0
   39.9740   22.6310   37.2580 C   0  0  0  0  0  0  0  0  0  0  0  0
   39.1570   23.2650   38.2300 C   0  0  0  0  0  0  0  0  0  0  0  0
   37.7940   23.3850   37.9710 C   0  0  0  0  0  0  0  0  0  0  0  0
   37.3150   22.8870   36.7940 N   0  0  0  0  0  0  0  0  0  0  0  0
   38.1170   22.2860   35.8840 C   0  0  0  0  0  0  0  0  0  0  0  0
   39.4250   22.1610   36.1150 N   0  0  0  0  0  0  0  0  0  0  0  0
   42.0580   20.3420   38.4130 O   0  0  0  0  0  0  0  0  0  0  0  0
   41.6943   22.7350   38.4737 H   0  0  0  0  0  0  0  0  0  0  0  0
   41.4406   23.9926   35.8996 H   0  0  0  0  0  0  0  0  0  0  0  0
   42.8886   24.0167   36.8696 H   0  0  0  0  0  0  0  0  0  0  0  0
   43.6244   22.7200   34.9858 H   0  0  0  0  0  0  0  0  0  0  0  0
   42.0488   22.0088   34.7012 H   0  0  0  0  0  0  0  0  0  0  0  0
   43.3402   20.2706   35.8656 H   0  0  0  0  0  0  0  0  0  0  0  0
   44.0222   21.3777   37.0182 H   0  0  0  0  0  0  0  0  0  0  0  0
   41.0690   20.4615   36.7435 H   0  0  0  0  0  0  0  0  0  0  0  0
   39.5895   23.6519   39.1645 H   0  0  0  0  0  0  0  0  0  0  0  0
   37.1217   23.8680   38.6953 H   0  0  0  0  0  0  0  0  0  0  0  0
   37.6876   21.8983   34.9484 H   0  0  0  0  0  0  0  0  0  0  0  0
   41.8880   20.9316   39.1899 H   0  0  0  0  0  0  0  0  0  0  0  0
  2  1  1  0
  3  4  1  0
  3  2  1  0
  4  5  1  0
  5  1  1  0
  5 12  1  0
  6  1  1  0
  6  7  2  0
  8  7  1  0
  9  8  2  0
 10 11  2  0
 10  9  1  0
 11  6  1  0
  1 13  1  1
  2 14  1  0
  2 15  1  0
  3 16  1  0
  3 17  1  0
  4 18  1  0
  4 19  1  0
  5 20  1  6
  7 21  1  0
  8 22  1  0
 10 23  1  0
 12 24  1  0
M  ISO  8  13  13  14  13  15  13  16  13  17  13  18  13  19  13  20  13
M  ISO  4  21  14  22  14  23  14  24   3
M  END
>  <minimizedAffinity>  (1) 
-4.34052753

>  <minimizedRMSD>  (1) 
0.0725602731

$$$$
