
     RDKit          3D

 34 36  0  0  1  0  0  0  0  0999 V2000
   42.1230   23.6140   36.0460 C   0  0  2  0  0  0  0  0  0  0  0  0
   40.8880   23.4120   35.1810 C   0  0  0  0  0  0  0  0  0  0  0  0
   41.2980   24.0460   33.8940 C   0  0  0  0  0  0  0  0  0  0  0  0
   42.1850   25.1760   34.3050 C   0  0  0  0  0  0  0  0  0  0  0  0
   43.0610   24.5250   35.3470 C   0  0  1  0  0  0  0  0  0  0  0  0
   42.7280   22.2760   36.2790 C   0  0  0  0  0  0  0  0  0  0  0  0
   42.1680   21.3260   37.1590 C   0  0  0  0  0  0  0  0  0  0  0  0
   42.8010   20.0970   37.3180 C   0  0  0  0  0  0  0  0  0  0  0  0
   43.9390   19.8690   36.6110 N   0  0  0  0  0  0  0  0  0  0  0  0
   44.4630   20.7900   35.7710 C   0  0  0  0  0  0  0  0  0  0  0  0
   43.8710   21.9800   35.6030 N   0  0  0  0  0  0  0  0  0  0  0  0
   43.6830   25.4310   36.1710 O   0  0  0  0  0  0  0  0  0  0  0  0
   44.7210   25.2550   37.0430 C   0  0  0  0  0  0  0  0  0  0  0  0
   45.7950   24.5550   36.5150 C   0  0  0  0  0  0  0  0  0  0  0  0
   46.9210   24.2930   37.2670 C   0  0  0  0  0  0  0  0  0  0  0  0
   46.9060   24.7730   38.5700 C   0  0  0  0  0  0  0  0  0  0  0  0
   45.8790   25.4780   39.1700 C   0  0  0  0  0  0  0  0  0  0  0  0
   44.7910   25.6960   38.3500 C   0  0  0  0  0  0  0  0  0  0  0  0
   41.8734   24.0725   37.0142 H   0  0  0  0  0  0  0  0  0  0  0  0
   40.6659   22.3431   35.0462 H   0  0  0  0  0  0  0  0  0  0  0  0
   39.9715   23.8409   35.6125 H   0  0  0  0  0  0  0  0  0  0  0  0
   40.4200   24.4192   33.3464 H   0  0  0  0  0  0  0  0  0  0  0  0
   41.8033   23.3390   33.2195 H   0  0  0  0  0  0  0  0  0  0  0  0
   42.7801   25.5456   33.4570 H   0  0  0  0  0  0  0  0  0  0  0  0
   41.6388   26.0571   34.6728 H   0  0  0  0  0  0  0  0  0  0  0  0
   43.9190   23.9872   34.9173 H   0  0  0  0  0  0  0  0  0  0  0  0
   41.2444   21.5535   37.7114 H   0  0  0  0  0  0  0  0  0  0  0  0
   42.3925   19.3329   37.9957 H   0  0  0  0  0  0  0  0  0  0  0  0
   45.3862   20.5594   35.2191 H   0  0  0  0  0  0  0  0  0  0  0  0
   45.7480   24.2012   35.4745 H   0  0  0  0  0  0  0  0  0  0  0  0
   47.7787   23.7377   36.8595 H   0  0  0  0  0  0  0  0  0  0  0  0
   47.7967   24.5731   39.1837 H   0  0  0  0  0  0  0  0  0  0  0  0
   45.9253   25.8338   40.2098 H   0  0  0  0  0  0  0  0  0  0  0  0
   43.9336   26.2506   38.7590 H   0  0  0  0  0  0  0  0  0  0  0  0
  1  6  1  0
  2  1  1  0
  3  4  1  0
  3  2  1  0
  4  5  1  0
  5  1  1  0
  5 12  1  0
  6  7  2  0
  7  8  1  0
  9  8  2  0
 10  9  1  0
 11 10  2  0
 11  6  1  0
 12 13  1  0
 13 18  1  0
 14 13  2  0
 14 15  1  0
 15 16  2  0
 16 17  1  0
 18 17  2  0
  1 19  1  1
  2 20  1  0
  2 21  1  0
  3 22  1  0
  3 23  1  0
  4 24  1  0
  4 25  1  0
  5 26  1  6
  7 27  1  0
  8 28  1  0
 10 29  1  0
 14 30  1  0
 15 31  1  0
 16 32  1  0
 17 33  1  0
 18 34  1  0
M  ISO  8  19  13  20  13  21  13  22  13  23  13  24  13  25  13  26  13
M  ISO  8  27  14  28  14  29  14  30  14  31  14  32  14  33  14  34  14
M  END
>  <minimizedAffinity>  (1) 
-4.39934444

>  <minimizedRMSD>  (1) 
6.3431735

$$$$
