
     RDKit          3D

 48 51  0  0  0  0  0  0  0  0999 V2000
   36.9740   21.9460   35.9720 C   0  0  0  0  0  0  0  0  0  0  0  0
   35.9030   21.1790   35.7300 C   0  0  0  0  0  0  0  0  0  0  0  0
   35.6230   20.5610   34.5580 C   0  0  0  0  0  0  0  0  0  0  0  0
   36.6490   20.8300   33.5710 C   0  0  0  0  0  0  0  0  0  0  0  0
   37.8790   21.9310   34.4440 S   0  0  0  0  0  0  0  0  0  0  0  0
   36.8240   20.4550   32.2110 C   0  0  0  0  0  0  0  0  0  0  0  0
   36.0550   19.5390   31.5570 C   0  0  0  0  0  0  0  0  0  0  0  0
   36.7710   19.5870   29.8030 S   0  0  0  0  0  0  0  0  0  0  0  0
   38.0000   20.8860   30.3700 C   0  0  0  0  0  0  0  0  0  0  0  0
   37.7180   20.9930   31.4330 N   0  0  0  0  0  0  0  0  0  0  0  0
   38.9880   21.4500   29.4150 N   0  0  0  0  0  0  0  0  0  0  0  0
   38.9930   22.7940   29.4680 C   0  0  0  0  0  0  0  0  0  0  0  0
   39.8860   23.4320   28.6100 C   0  0  0  0  0  0  0  0  0  0  0  0
   39.9140   24.9380   28.6480 C   0  0  0  0  0  0  0  0  0  0  0  0
   40.7040   22.6760   27.7650 C   0  0  0  0  0  0  0  0  0  0  0  0
   41.4770   23.3000   27.0270 O   0  0  0  0  0  0  0  0  0  0  0  0
   40.5960   21.3160   27.8140 N   0  0  0  0  0  0  0  0  0  0  0  0
   39.7300   20.6860   28.6450 C   0  0  0  0  0  0  0  0  0  0  0  0
   39.6290   19.4510   28.6900 O   0  0  0  0  0  0  0  0  0  0  0  0
   37.2330   22.6270   37.2340 C   0  0  0  0  0  0  0  0  0  0  0  0
   38.1440   23.8240   37.1220 C   0  0  0  0  0  0  0  0  0  0  0  0
   41.4150   22.0050   37.2660 C   0  0  0  0  0  0  0  0  0  0  0  0
   40.1210   22.3610   37.5970 C   0  0  0  0  0  0  0  0  0  0  0  0
   39.4960   23.3840   36.8510 C   0  0  0  0  0  0  0  0  0  0  0  0
   40.2100   23.9610   35.8470 N   0  0  0  0  0  0  0  0  0  0  0  0
   41.4690   23.5890   35.5530 C   0  0  0  0  0  0  0  0  0  0  0  0
   42.0630   22.6130   36.2650 N   0  0  0  0  0  0  0  0  0  0  0  0
   38.1360   24.5460   38.4730 C   0  0  0  0  0  0  0  0  0  0  0  0
   37.5660   24.7290   36.0620 C   0  0  0  0  0  0  0  0  0  0  0  0
   35.1888   21.0389   36.5548 H   0  0  0  0  0  0  0  0  0  0  0  0
   34.7346   19.9376   34.3791 H   0  0  0  0  0  0  0  0  0  0  0  0
   35.2286   18.9273   31.9481 H   0  0  0  0  0  0  0  0  0  0  0  0
   38.3331   23.3544   30.1465 H   0  0  0  0  0  0  0  0  0  0  0  0
   39.9203   25.2783   29.6940 H   0  0  0  0  0  0  0  0  0  0  0  0
   40.8190   25.3009   28.1389 H   0  0  0  0  0  0  0  0  0  0  0  0
   39.0231   25.3343   28.1389 H   0  0  0  0  0  0  0  0  0  0  0  0
   41.1942   20.7480   27.1972 H   0  0  0  0  0  0  0  0  0  0  0  0
   36.2707   22.9647   37.6462 H   0  0  0  0  0  0  0  0  0  0  0  0
   37.7469   21.9016   37.8818 H   0  0  0  0  0  0  0  0  0  0  0  0
   41.9200   21.2098   37.8340 H   0  0  0  0  0  0  0  0  0  0  0  0
   39.5915   21.8600   38.4208 H   0  0  0  0  0  0  0  0  0  0  0  0
   42.0119   24.0812   34.7326 H   0  0  0  0  0  0  0  0  0  0  0  0
   38.1442   23.8042   39.2852 H   0  0  0  0  0  0  0  0  0  0  0  0
   39.0271   25.1861   38.5520 H   0  0  0  0  0  0  0  0  0  0  0  0
   37.2309   25.1662   38.5520 H   0  0  0  0  0  0  0  0  0  0  0  0
   37.0334   25.5629   36.5425 H   0  0  0  0  0  0  0  0  0  0  0  0
   38.3786   25.1253   35.4354 H   0  0  0  0  0  0  0  0  0  0  0  0
   36.8647   24.1585   35.4354 H   0  0  0  0  0  0  0  0  0  0  0  0
  1 20  1  0
  2  1  2  0
  3  2  1  0
  4  5  1  0
  4  3  2  0
  5  1  1  0
  6  4  1  0
  7  6  2  0
  8  9  1  0
  8  7  1  0
  9 10  2  0
 10  6  1  0
 11 12  1  0
 11  9  1  0
 13 14  1  0
 13 12  2  0
 15 17  1  0
 15 13  1  0
 16 15  2  0
 17 18  1  0
 18 19  2  0
 18 11  1  0
 21 20  1  0
 21 28  1  0
 22 23  2  0
 24 21  1  0
 24 23  1  0
 25 24  2  0
 26 25  1  0
 26 27  2  0
 27 22  1  0
 29 21  1  0
  2 30  1  0
  3 31  1  0
  7 32  1  0
 12 33  1  0
 14 34  1  0
 14 35  1  0
 14 36  1  0
 17 37  1  0
 20 38  1  0
 20 39  1  0
 22 40  1  0
 23 41  1  0
 26 42  1  0
 28 43  1  0
 28 44  1  0
 28 45  1  0
 29 46  1  0
 29 47  1  0
 29 48  1  0
M  ISO  8  30  14  31  14  32  14  33  14  34   8  35   8  36   8  37   9
M  ISO  8  38   8  39   8  40  14  41  14  42  14  43   8  44   8  45   8
M  ISO  3  46   8  47   8  48   8
M  END
>  <minimizedAffinity>  (1) 
-5.10967493

>  <minimizedRMSD>  (1) 
0.201172769

$$$$
