
     RDKit          3D

 50 54  0  0  1  0  0  0  0  0999 V2000
   38.2860   24.4490   36.4220 N   0  0  0  0  0  0  0  0  0  0  0  0
   37.6930   25.4850   35.6090 C   0  0  0  0  0  0  0  0  0  0  0  0
   38.7990   26.0400   34.7480 C   0  0  0  0  0  0  0  0  0  0  0  0
   40.0150   25.1850   34.9700 C   0  0  0  0  0  0  0  0  0  0  0  0
   39.4050   23.9730   35.6250 C   0  0  2  0  0  0  0  0  0  0  0  0
   38.6300   23.2360   34.5980 N   0  0  0  0  0  0  0  0  0  0  0  0
   38.6810   23.2440   33.2170 C   0  0  0  0  0  0  0  0  0  0  0  0
   37.7260   22.4180   32.7620 N   0  0  0  0  0  0  0  0  0  0  0  0
   37.0290   21.8460   33.7540 C   0  0  0  0  0  0  0  0  0  0  0  0
   35.9830   20.9560   33.8780 C   0  0  0  0  0  0  0  0  0  0  0  0
   35.4960   20.5130   32.7990 O   0  0  0  0  0  0  0  0  0  0  0  0
   35.5130   20.5860   35.0940 N   0  0  0  0  0  0  0  0  0  0  0  0
   36.1000   21.1150   36.1830 C   0  0  0  0  0  0  0  0  0  0  0  0
   35.5490   20.6760   37.4170 N   0  0  0  0  0  0  0  0  0  0  0  0
   37.1220   21.9860   36.0910 N   0  0  0  0  0  0  0  0  0  0  0  0
   37.6170   22.3780   34.8790 C   0  0  0  0  0  0  0  0  0  0  0  0
   40.2920   23.3280   36.3880 O   0  0  0  0  0  0  0  0  0  0  0  0
   42.6430   23.0490   36.6180 C   0  0  2  0  0  0  0  0  0  0  0  0
   43.4450   21.7620   36.4440 C   0  0  0  0  0  0  0  0  0  0  0  0
   42.7880   21.1770   35.2720 C   0  0  0  0  0  0  0  0  0  0  0  0
   41.3230   21.5080   35.5240 C   0  0  0  0  0  0  0  0  0  0  0  0
   41.4410   23.0290   35.7960 C   0  0  1  0  0  0  0  0  0  0  0  0
   43.5130   24.1890   36.3190 C   0  0  0  0  0  0  0  0  0  0  0  0
   44.4290   24.7460   37.2750 C   0  0  0  0  0  0  0  0  0  0  0  0
   45.2040   25.8340   36.8620 C   0  0  0  0  0  0  0  0  0  0  0  0
   45.0440   26.2950   35.5900 N   0  0  0  0  0  0  0  0  0  0  0  0
   44.1580   25.7350   34.7110 C   0  0  0  0  0  0  0  0  0  0  0  0
   43.4090   24.6980   35.0780 N   0  0  0  0  0  0  0  0  0  0  0  0
   38.6131   24.8313   37.3207 H   0  0  0  0  0  0  0  0  0  0  0  0
   36.8959   25.0638   34.9787 H   0  0  0  0  0  0  0  0  0  0  0  0
   37.2425   26.2710   36.2329 H   0  0  0  0  0  0  0  0  0  0  0  0
   39.0132   27.0799   35.0356 H   0  0  0  0  0  0  0  0  0  0  0  0
   38.5068   26.0310   33.6876 H   0  0  0  0  0  0  0  0  0  0  0  0
   40.5047   24.9261   34.0196 H   0  0  0  0  0  0  0  0  0  0  0  0
   40.8051   25.6690   35.5629 H   0  0  0  0  0  0  0  0  0  0  0  0
   39.3813   23.8253   32.5992 H   0  0  0  0  0  0  0  0  0  0  0  0
   34.7313   19.9210   35.1818 H   0  0  0  0  0  0  0  0  0  0  0  0
   35.9330   21.0265   38.3062 H   0  0  0  0  0  0  0  0  0  0  0  0
   34.7656   20.0073   37.4223 H   0  0  0  0  0  0  0  0  0  0  0  0
   42.2966   23.1417   37.6579 H   0  0  0  0  0  0  0  0  0  0  0  0
   44.5071   21.9715   36.2487 H   0  0  0  0  0  0  0  0  0  0  0  0
   43.4535   21.1106   37.3304 H   0  0  0  0  0  0  0  0  0  0  0  0
   42.9488   20.0898   35.2261 H   0  0  0  0  0  0  0  0  0  0  0  0
   43.1689   21.5624   34.3147 H   0  0  0  0  0  0  0  0  0  0  0  0
   40.6983   21.2969   34.6435 H   0  0  0  0  0  0  0  0  0  0  0  0
   40.8455   20.9269   36.3266 H   0  0  0  0  0  0  0  0  0  0  0  0
   41.5554   23.7559   34.9783 H   0  0  0  0  0  0  0  0  0  0  0  0
   44.5172   24.3333   38.2908 H   0  0  0  0  0  0  0  0  0  0  0  0
   45.9244   26.3056   37.5465 H   0  0  0  0  0  0  0  0  0  0  0  0
   44.0640   26.1444   33.6944 H   0  0  0  0  0  0  0  0  0  0  0  0
  2  1  1  0
  3  4  1  0
  3  2  1  0
  4  5  1  0
  5 17  1  1
  5  1  1  0
  6 16  1  0
  6  5  1  0
  7  6  1  0
  8  7  2  0
  8  9  1  0
  9 10  1  0
  9 16  2  0
 10 12  1  0
 11 10  2  0
 12 13  1  0
 13 14  1  0
 15 13  2  0
 16 15  1  0
 19 18  1  0
 20 21  1  0
 20 19  1  0
 21 22  1  0
 22 17  1  0
 22 18  1  0
 23 18  1  0
 23 24  2  0
 25 24  1  0
 26 25  2  0
 27 28  2  0
 27 26  1  0
 28 23  1  0
  1 29  1  0
  2 30  1  0
  2 31  1  0
  3 32  1  0
  3 33  1  0
  4 34  1  0
  4 35  1  0
  7 36  1  0
 12 37  1  0
 14 38  1  0
 14 39  1  0
 18 40  1  1
 19 41  1  0
 19 42  1  0
 20 43  1  0
 20 44  1  0
 21 45  1  0
 21 46  1  0
 22 47  1  6
 24 48  1  0
 25 49  1  0
 27 50  1  0
M  ISO  8  29   5  30  13  31  13  32  13  33  13  34  13  35  13  36  14
M  ISO  8  37   9  40  13  41  13  42  13  43  13  44  13  45  13  46  13
M  ISO  4  47  13  48  14  49  14  50  14
M  END
>  <minimizedAffinity>  (1) 
-6.21184063

>  <minimizedRMSD>  (1) 
2.19889235

$$$$
