
     RDKit          3D

 43 46  0  0  1  0  0  0  0  0999 V2000
   42.9790   22.8300   36.5860 C   0  0  2  0  0  0  0  0  0  0  0  0
   43.8340   21.6750   36.0730 C   0  0  0  0  0  0  0  0  0  0  0  0
   43.0070   21.1880   34.9560 C   0  0  0  0  0  0  0  0  0  0  0  0
   41.6010   21.3250   35.5120 C   0  0  0  0  0  0  0  0  0  0  0  0
   41.6450   22.7840   36.0170 C   0  0  1  0  0  0  0  0  0  0  0  0
   43.6750   24.0940   36.2990 C   0  0  0  0  0  0  0  0  0  0  0  0
   44.6020   24.6920   37.2180 C   0  0  0  0  0  0  0  0  0  0  0  0
   45.1970   25.8950   36.8290 C   0  0  0  0  0  0  0  0  0  0  0  0
   44.8650   26.4200   35.6180 N   0  0  0  0  0  0  0  0  0  0  0  0
   43.9750   25.8150   34.7750 C   0  0  0  0  0  0  0  0  0  0  0  0
   43.3960   24.6670   35.1220 N   0  0  0  0  0  0  0  0  0  0  0  0
   40.6150   22.8900   36.8480 O   0  0  0  0  0  0  0  0  0  0  0  0
   38.7760   24.1690   37.3730 N   0  0  0  0  0  0  0  0  0  0  0  0
   37.9710   25.1310   36.6570 C   0  0  0  0  0  0  0  0  0  0  0  0
   38.7190   25.4620   35.3890 C   0  0  0  0  0  0  0  0  0  0  0  0
   39.9050   24.5390   35.3160 C   0  0  0  0  0  0  0  0  0  0  0  0
   39.5340   23.4990   36.3390 C   0  0  1  0  0  0  0  0  0  0  0  0
   38.4020   22.6580   35.7780 C   0  0  0  0  0  0  0  0  0  0  0  0
   38.2020   22.3370   34.4230 C   0  0  0  0  0  0  0  0  0  0  0  0
   37.1300   21.5530   34.2370 N   0  0  0  0  0  0  0  0  0  0  0  0
   36.6360   21.3690   35.4720 C   0  0  0  0  0  0  0  0  0  0  0  0
   37.3630   22.0070   36.4030 N   0  0  0  0  0  0  0  0  0  0  0  0
   42.8445   22.7469   37.6746 H   0  0  0  0  0  0  0  0  0  0  0  0
   44.8176   22.0238   35.7253 H   0  0  0  0  0  0  0  0  0  0  0  0
   44.0676   20.9124   36.8305 H   0  0  0  0  0  0  0  0  0  0  0  0
   43.2399   20.1403   34.7149 H   0  0  0  0  0  0  0  0  0  0  0  0
   43.1655   21.7390   34.0172 H   0  0  0  0  0  0  0  0  0  0  0  0
   40.8391   21.1876   34.7305 H   0  0  0  0  0  0  0  0  0  0  0  0
   41.3337   20.5809   36.2768 H   0  0  0  0  0  0  0  0  0  0  0  0
   41.5287   23.6259   35.3186 H   0  0  0  0  0  0  0  0  0  0  0  0
   44.8337   24.2236   38.1860 H   0  0  0  0  0  0  0  0  0  0  0  0
   45.9166   26.4056   37.4859 H   0  0  0  0  0  0  0  0  0  0  0  0
   43.7362   26.2782   33.8063 H   0  0  0  0  0  0  0  0  0  0  0  0
   39.4045   24.6418   38.0381 H   0  0  0  0  0  0  0  0  0  0  0  0
   36.9885   24.6991   36.4161 H   0  0  0  0  0  0  0  0  0  0  0  0
   37.7992   26.0330   37.2627 H   0  0  0  0  0  0  0  0  0  0  0  0
   38.0675   25.3076   34.5163 H   0  0  0  0  0  0  0  0  0  0  0  0
   39.0428   26.5132   35.3907 H   0  0  0  0  0  0  0  0  0  0  0  0
   40.0108   24.0980   34.3138 H   0  0  0  0  0  0  0  0  0  0  0  0
   40.8706   25.0311   35.5042 H   0  0  0  0  0  0  0  0  0  0  0  0
   38.8515   22.6893   33.6081 H   0  0  0  0  0  0  0  0  0  0  0  0
   35.7424   20.7674   35.6943 H   0  0  0  0  0  0  0  0  0  0  0  0
   37.1747   22.0089   37.4156 H   0  0  0  0  0  0  0  0  0  0  0  0
  2  1  1  0
  3  4  1  0
  3  2  1  0
  4  5  1  0
  5  1  1  0
  5 12  1  0
  6  1  1  0
  6  7  2  0
  8  7  1  0
  9  8  2  0
 10 11  2  0
 10  9  1  0
 11  6  1  0
 14 13  1  0
 15 14  1  0
 16 15  1  0
 16 17  1  0
 17 12  1  1
 17 13  1  0
 18 17  1  0
 18 22  1  0
 19 18  2  0
 20 19  1  0
 20 21  2  0
 21 22  1  0
  1 23  1  1
  2 24  1  0
  2 25  1  0
  3 26  1  0
  3 27  1  0
  4 28  1  0
  4 29  1  0
  5 30  1  6
  7 31  1  0
  8 32  1  0
 10 33  1  0
 13 34  1  0
 14 35  1  0
 14 36  1  0
 15 37  1  0
 15 38  1  0
 16 39  1  0
 16 40  1  0
 19 41  1  0
 21 42  1  0
 22 43  1  0
M  ISO  8  23  13  24  13  25  13  26  13  27  13  28  13  29  13  30  13
M  ISO  8  31  14  32  14  33  14  34   5  35  13  36  13  37  13  38  13
M  ISO  5  39  13  40  13  41  14  42  14  43   9
M  END
>  <minimizedAffinity>  (1) 
-4.50591469

>  <minimizedRMSD>  (1) 
1.54430354

$$$$
