
     RDKit          3D

 39 41  0  0  1  0  0  0  0  0999 V2000
   42.8020   23.5550   36.3500 C   0  0  2  0  0  0  0  0  0  0  0  0
   44.1170   22.7690   36.3040 C   0  0  0  0  0  0  0  0  0  0  0  0
   43.6030   21.4310   35.9860 C   0  0  0  0  0  0  0  0  0  0  0  0
   42.3480   21.3760   36.8580 C   0  0  0  0  0  0  0  0  0  0  0  0
   41.6550   22.6510   36.3290 C   0  0  1  0  0  0  0  0  0  0  0  0
   42.8000   24.4960   35.2260 C   0  0  0  0  0  0  0  0  0  0  0  0
   43.6710   25.6290   35.1610 C   0  0  0  0  0  0  0  0  0  0  0  0
   43.5680   26.4550   34.0360 C   0  0  0  0  0  0  0  0  0  0  0  0
   42.6480   26.1310   33.0800 N   0  0  0  0  0  0  0  0  0  0  0  0
   41.8350   25.0370   33.1850 C   0  0  0  0  0  0  0  0  0  0  0  0
   41.9130   24.2340   34.2440 N   0  0  0  0  0  0  0  0  0  0  0  0
   40.7400   22.8250   37.2620 O   0  0  0  0  0  0  0  0  0  0  0  0
   38.6040   22.6670   38.0000 N   0  0  0  0  0  0  0  0  0  0  0  0
   37.4600   23.5370   37.8540 C   0  0  0  0  0  0  0  0  0  0  0  0
   37.7340   24.4730   36.7230 C   0  0  0  0  0  0  0  0  0  0  0  0
   39.2330   24.4140   36.5080 C   0  0  0  0  0  0  0  0  0  0  0  0
   39.4820   22.9700   36.9050 C   0  0  1  0  0  0  0  0  0  0  0  0
   38.8310   22.2310   35.7800 C   0  0  0  0  0  0  0  0  0  0  0  0
   37.5870   21.7450   35.9500 F   0  0  0  0  0  0  0  0  0  0  0  0
   38.3620   23.2340   34.8320 F   0  0  0  0  0  0  0  0  0  0  0  0
   39.6690   21.6780   34.8460 F   0  0  0  0  0  0  0  0  0  0  0  0
   42.7195   24.1220   37.2890 H   0  0  0  0  0  0  0  0  0  0  0  0
   44.7901   23.1449   35.5194 H   0  0  0  0  0  0  0  0  0  0  0  0
   44.7237   22.8268   37.2198 H   0  0  0  0  0  0  0  0  0  0  0  0
   43.3556   21.3381   34.9182 H   0  0  0  0  0  0  0  0  0  0  0  0
   44.3186   20.6173   36.1752 H   0  0  0  0  0  0  0  0  0  0  0  0
   41.7515   20.4708   36.6714 H   0  0  0  0  0  0  0  0  0  0  0  0
   42.5188   21.3373   37.9440 H   0  0  0  0  0  0  0  0  0  0  0  0
   41.1584   22.7196   35.3499 H   0  0  0  0  0  0  0  0  0  0  0  0
   44.3928   25.8424   35.9632 H   0  0  0  0  0  0  0  0  0  0  0  0
   44.2104   27.3409   33.9248 H   0  0  0  0  0  0  0  0  0  0  0  0
   41.1099   24.8182   32.3873 H   0  0  0  0  0  0  0  0  0  0  0  0
   39.0771   22.8472   38.8970 H   0  0  0  0  0  0  0  0  0  0  0  0
   36.5623   22.9400   37.6355 H   0  0  0  0  0  0  0  0  0  0  0  0
   37.2869   24.1001   38.7829 H   0  0  0  0  0  0  0  0  0  0  0  0
   37.2019   24.1482   35.8167 H   0  0  0  0  0  0  0  0  0  0  0  0
   37.3918   25.4947   36.9446 H   0  0  0  0  0  0  0  0  0  0  0  0
   39.5057   24.6049   35.4596 H   0  0  0  0  0  0  0  0  0  0  0  0
   39.8172   25.1617   37.0645 H   0  0  0  0  0  0  0  0  0  0  0  0
  2  1  1  0
  3  2  1  0
  3  4  1  0
  5  1  1  0
  5  4  1  0
  5 12  1  0
  6  1  1  0
  7  6  2  0
  8  7  1  0
  9 10  1  0
  9  8  2  0
 10 11  2  0
 11  6  1  0
 14 13  1  0
 15 14  1  0
 16 15  1  0
 16 17  1  0
 17 12  1  1
 17 13  1  0
 18 19  1  0
 18 17  1  0
 20 18  1  0
 21 18  1  0
  1 22  1  1
  2 23  1  0
  2 24  1  0
  3 25  1  0
  3 26  1  0
  4 27  1  0
  4 28  1  0
  5 29  1  6
  7 30  1  0
  8 31  1  0
 10 32  1  0
 13 33  1  0
 14 34  1  0
 14 35  1  0
 15 36  1  0
 15 37  1  0
 16 38  1  0
 16 39  1  0
M  ISO  8  22  13  23  13  24  13  25  13  26  13  27  13  28  13  29  13
M  ISO  8  30  14  31  14  32  14  33   5  34  13  35  13  36  13  37  13
M  ISO  2  38  13  39  13
M  END
>  <minimizedAffinity>  (1) 
-4.49696445

>  <minimizedRMSD>  (1) 
1.4964391

$$$$
