
     RDKit          3D

 41 44  0  0  1  0  0  0  0  0999 V2000
   43.0920   22.8530   36.5140 C   0  0  2  0  0  0  0  0  0  0  0  0
   43.9770   21.7030   36.0450 C   0  0  0  0  0  0  0  0  0  0  0  0
   43.2180   21.2210   34.8780 C   0  0  0  0  0  0  0  0  0  0  0  0
   41.7840   21.3530   35.3500 C   0  0  0  0  0  0  0  0  0  0  0  0
   41.7920   22.8100   35.8660 C   0  0  1  0  0  0  0  0  0  0  0  0
   43.7990   24.1200   36.2850 C   0  0  0  0  0  0  0  0  0  0  0  0
   44.6560   24.7220   37.2690 C   0  0  0  0  0  0  0  0  0  0  0  0
   45.2700   25.9290   36.9270 C   0  0  0  0  0  0  0  0  0  0  0  0
   45.0200   26.4560   35.6960 N   0  0  0  0  0  0  0  0  0  0  0  0
   44.1960   25.8460   34.7920 C   0  0  0  0  0  0  0  0  0  0  0  0
   43.5970   24.6950   35.0880 N   0  0  0  0  0  0  0  0  0  0  0  0
   40.7220   22.8990   36.6550 O   0  0  0  0  0  0  0  0  0  0  0  0
   38.7860   24.0710   37.0970 N   0  0  0  0  0  0  0  0  0  0  0  0
   38.0550   25.1090   36.4100 C   0  0  0  0  0  0  0  0  0  0  0  0
   38.8170   25.4580   35.1530 C   0  0  0  0  0  0  0  0  0  0  0  0
   40.0980   24.6450   35.1990 C   0  0  0  0  0  0  0  0  0  0  0  0
   39.6700   23.5160   36.0940 C   0  0  1  0  0  0  0  0  0  0  0  0
   38.6280   22.6900   35.3570 C   0  0  0  0  0  0  0  0  0  0  0  0
   37.5390   22.0570   35.8390 N   0  0  0  0  0  0  0  0  0  0  0  0
   36.9430   21.5150   34.8260 O   0  0  0  0  0  0  0  0  0  0  0  0
   37.5790   21.7580   33.7200 C   0  0  0  0  0  0  0  0  0  0  0  0
   38.6490   22.4940   33.9930 N   0  0  0  0  0  0  0  0  0  0  0  0
   42.8940   22.7595   37.5920 H   0  0  0  0  0  0  0  0  0  0  0  0
   44.9786   22.0554   35.7578 H   0  0  0  0  0  0  0  0  0  0  0  0
   44.1668   20.9360   36.8103 H   0  0  0  0  0  0  0  0  0  0  0  0
   43.4663   20.1750   34.6454 H   0  0  0  0  0  0  0  0  0  0  0  0
   43.4308   21.7773   33.9532 H   0  0  0  0  0  0  0  0  0  0  0  0
   41.0703   21.2184   34.5239 H   0  0  0  0  0  0  0  0  0  0  0  0
   41.4750   20.6042   36.0942 H   0  0  0  0  0  0  0  0  0  0  0  0
   41.7060   23.6529   35.1645 H   0  0  0  0  0  0  0  0  0  0  0  0
   44.8214   24.2522   38.2498 H   0  0  0  0  0  0  0  0  0  0  0  0
   45.9389   26.4413   37.6342 H   0  0  0  0  0  0  0  0  0  0  0  0
   44.0262   26.3112   33.8098 H   0  0  0  0  0  0  0  0  0  0  0  0
   39.3273   24.4654   37.8795 H   0  0  0  0  0  0  0  0  0  0  0  0
   37.0491   24.7481   36.1494 H   0  0  0  0  0  0  0  0  0  0  0  0
   37.9505   25.9949   37.0537 H   0  0  0  0  0  0  0  0  0  0  0  0
   39.0477   26.5333   35.1324 H   0  0  0  0  0  0  0  0  0  0  0  0
   38.2296   25.2324   34.2508 H   0  0  0  0  0  0  0  0  0  0  0  0
   40.3873   24.2852   34.2006 H   0  0  0  0  0  0  0  0  0  0  0  0
   40.9817   25.1990   35.5486 H   0  0  0  0  0  0  0  0  0  0  0  0
   37.2796   21.4105   32.7202 H   0  0  0  0  0  0  0  0  0  0  0  0
  2  1  1  0
  3  4  1  0
  3  2  1  0
  4  5  1  0
  5  1  1  0
  5 12  1  0
  6  1  1  0
  6  7  2  0
  8  7  1  0
  9  8  2  0
 10 11  2  0
 10  9  1  0
 11  6  1  0
 14 13  1  0
 15 16  1  0
 15 14  1  0
 16 17  1  0
 17 12  1  1
 17 13  1  0
 18 19  2  0
 18 17  1  0
 20 19  1  0
 21 22  2  0
 21 20  1  0
 22 18  1  0
  1 23  1  1
  2 24  1  0
  2 25  1  0
  3 26  1  0
  3 27  1  0
  4 28  1  0
  4 29  1  0
  5 30  1  6
  7 31  1  0
  8 32  1  0
 10 33  1  0
 13 34  1  0
 14 35  1  0
 14 36  1  0
 15 37  1  0
 15 38  1  0
 16 39  1  0
 16 40  1  0
 21 41  1  0
M  ISO  8  23  13  24  13  25  13  26  13  27  13  28  13  29  13  30  13
M  ISO  8  31  14  32  14  33  14  34   5  35  13  36  13  37  13  38  13
M  ISO  3  39  13  40  13  41  14
M  END
>  <minimizedAffinity>  (1) 
-4.46362352

>  <minimizedRMSD>  (1) 
1.72794378

$$$$
