
     RDKit          3D

 46 49  0  0  0  0  0  0  0  0999 V2000
   36.9630   21.9170   35.9330 C   0  0  0  0  0  0  0  0  0  0  0  0
   35.8790   21.1590   35.7150 C   0  0  0  0  0  0  0  0  0  0  0  0
   35.5900   20.5560   34.5290 C   0  0  0  0  0  0  0  0  0  0  0  0
   36.5790   20.8250   33.5330 C   0  0  0  0  0  0  0  0  0  0  0  0
   37.8530   21.9220   34.3770 S   0  0  0  0  0  0  0  0  0  0  0  0
   36.7360   20.4360   32.1630 C   0  0  0  0  0  0  0  0  0  0  0  0
   35.9820   19.4900   31.5380 C   0  0  0  0  0  0  0  0  0  0  0  0
   36.7490   19.4350   29.8220 S   0  0  0  0  0  0  0  0  0  0  0  0
   37.9680   20.7520   30.3280 C   0  0  0  0  0  0  0  0  0  0  0  0
   37.6360   20.9090   31.3840 N   0  0  0  0  0  0  0  0  0  0  0  0
   38.9060   21.1630   29.3250 N   0  0  0  0  0  0  0  0  0  0  0  0
   39.1170   20.3600   28.2600 C   0  0  0  0  0  0  0  0  0  0  0  0
   40.0230   20.7360   27.2730 C   0  0  0  0  0  0  0  0  0  0  0  0
   40.6510   21.9360   27.4650 C   0  0  0  0  0  0  0  0  0  0  0  0
   41.6060   22.4650   26.5480 N   0  0  0  0  0  0  0  0  0  0  0  0
   40.4240   22.7280   28.5430 N   0  0  0  0  0  0  0  0  0  0  0  0
   39.5380   22.3390   29.4880 C   0  0  0  0  0  0  0  0  0  0  0  0
   39.3320   23.0750   30.4810 O   0  0  0  0  0  0  0  0  0  0  0  0
   37.2790   22.5690   37.1980 C   0  0  0  0  0  0  0  0  0  0  0  0
   38.1550   23.7820   37.0860 C   0  0  0  0  0  0  0  0  0  0  0  0
   41.4620   22.0060   37.2340 C   0  0  0  0  0  0  0  0  0  0  0  0
   40.1560   22.3380   37.5540 C   0  0  0  0  0  0  0  0  0  0  0  0
   39.5190   23.3720   36.8120 C   0  0  0  0  0  0  0  0  0  0  0  0
   40.2240   23.9800   35.8290 N   0  0  0  0  0  0  0  0  0  0  0  0
   41.4970   23.6270   35.5470 C   0  0  0  0  0  0  0  0  0  0  0  0
   42.1090   22.6400   36.2520 N   0  0  0  0  0  0  0  0  0  0  0  0
   38.1510   24.4930   38.4400 C   0  0  0  0  0  0  0  0  0  0  0  0
   37.5570   24.6680   36.0150 C   0  0  0  0  0  0  0  0  0  0  0  0
   35.1768   21.0147   36.5493 H   0  0  0  0  0  0  0  0  0  0  0  0
   34.6990   19.9342   34.3574 H   0  0  0  0  0  0  0  0  0  0  0  0
   35.1387   18.9064   31.9358 H   0  0  0  0  0  0  0  0  0  0  0  0
   38.5724   19.4082   28.1726 H   0  0  0  0  0  0  0  0  0  0  0  0
   40.2219   20.1071   26.3927 H   0  0  0  0  0  0  0  0  0  0  0  0
   42.0524   23.3739   26.7365 H   0  0  0  0  0  0  0  0  0  0  0  0
   41.8495   21.9383   25.6970 H   0  0  0  0  0  0  0  0  0  0  0  0
   36.3334   22.8737   37.6702 H   0  0  0  0  0  0  0  0  0  0  0  0
   37.8460   21.8344   37.7887 H   0  0  0  0  0  0  0  0  0  0  0  0
   41.9731   21.2101   37.7956 H   0  0  0  0  0  0  0  0  0  0  0  0
   39.6238   21.8150   38.3623 H   0  0  0  0  0  0  0  0  0  0  0  0
   42.0414   24.1418   34.7417 H   0  0  0  0  0  0  0  0  0  0  0  0
   38.1552   23.7453   39.2468 H   0  0  0  0  0  0  0  0  0  0  0  0
   39.0456   25.1276   38.5236 H   0  0  0  0  0  0  0  0  0  0  0  0
   37.2493   25.1175   38.5236 H   0  0  0  0  0  0  0  0  0  0  0  0
   37.0014   25.4911   36.4881 H   0  0  0  0  0  0  0  0  0  0  0  0
   38.3619   25.0809   35.3892 H   0  0  0  0  0  0  0  0  0  0  0  0
   36.8730   24.0760   35.3892 H   0  0  0  0  0  0  0  0  0  0  0  0
  1 19  1  0
  2  1  2  0
  3  2  1  0
  4  5  1  0
  4  3  2  0
  5  1  1  0
  6  4  1  0
  7  6  2  0
  8  9  1  0
  8  7  1  0
  9 10  2  0
 10  6  1  0
 11 17  1  0
 11  9  1  0
 12 11  1  0
 13 14  1  0
 13 12  2  0
 14 16  2  0
 15 14  1  0
 16 17  1  0
 17 18  2  0
 20 19  1  0
 20 27  1  0
 21 22  2  0
 23 20  1  0
 23 22  1  0
 24 23  2  0
 25 24  1  0
 25 26  2  0
 26 21  1  0
 28 20  1  0
  2 29  1  0
  3 30  1  0
  7 31  1  0
 12 32  1  0
 13 33  1  0
 15 34  1  0
 15 35  1  0
 19 36  1  0
 19 37  1  0
 21 38  1  0
 22 39  1  0
 25 40  1  0
 27 41  1  0
 27 42  1  0
 27 43  1  0
 28 44  1  0
 28 45  1  0
 28 46  1  0
M  ISO  8  29  14  30  14  31  14  32  14  33  14  36   8  37   8  38  14
M  ISO  8  39  14  40  14  41   8  42   8  43   8  44   8  45   8  46   8
M  END
>  <minimizedAffinity>  (1) 
-5.06162453

>  <minimizedRMSD>  (1) 
0.117253713

$$$$
