
     RDKit          3D

 42 44  0  0  1  0  0  0  0  0999 V2000
   42.9880   23.5460   36.5080 C   0  0  2  0  0  0  0  0  0  0  0  0
   44.1820   22.6280   36.2120 C   0  0  0  0  0  0  0  0  0  0  0  0
   43.4680   21.4380   35.7200 C   0  0  0  0  0  0  0  0  0  0  0  0
   42.2870   21.3830   36.6940 C   0  0  0  0  0  0  0  0  0  0  0  0
   41.7330   22.8000   36.4310 C   0  0  1  0  0  0  0  0  0  0  0  0
   43.0380   24.6710   35.5710 C   0  0  0  0  0  0  0  0  0  0  0  0
   44.2060   25.4820   35.3870 C   0  0  0  0  0  0  0  0  0  0  0  0
   44.1170   26.5280   34.4620 C   0  0  0  0  0  0  0  0  0  0  0  0
   42.9380   26.7120   33.8000 N   0  0  0  0  0  0  0  0  0  0  0  0
   41.8480   25.9110   34.0100 C   0  0  0  0  0  0  0  0  0  0  0  0
   41.8970   24.9050   34.8830 N   0  0  0  0  0  0  0  0  0  0  0  0
   40.9100   22.9220   37.4620 O   0  0  0  0  0  0  0  0  0  0  0  0
   38.8860   22.6370   38.4400 N   0  0  0  0  0  0  0  0  0  0  0  0
   37.5860   23.2360   38.2260 C   0  0  0  0  0  0  0  0  0  0  0  0
   37.7070   24.2220   37.1000 C   0  0  0  0  0  0  0  0  0  0  0  0
   39.1830   24.3170   36.7730 C   0  0  0  0  0  0  0  0  0  0  0  0
   39.6170   22.9460   37.2240 C   0  0  1  0  0  0  0  0  0  0  0  0
   38.9020   22.0840   36.2320 C   0  0  0  0  0  0  0  0  0  0  0  0
   39.1840   22.3090   34.7990 C   0  0  0  0  0  0  0  0  0  0  0  0
   43.0417   23.9404   37.5335 H   0  0  0  0  0  0  0  0  0  0  0  0
   44.8448   23.0538   35.4443 H   0  0  0  0  0  0  0  0  0  0  0  0
   44.8530   22.4482   37.0649 H   0  0  0  0  0  0  0  0  0  0  0  0
   43.1296   21.5703   34.6817 H   0  0  0  0  0  0  0  0  0  0  0  0
   44.0770   20.5223   35.6932 H   0  0  0  0  0  0  0  0  0  0  0  0
   41.5645   20.5966   36.4303 H   0  0  0  0  0  0  0  0  0  0  0  0
   42.5316   21.1444   37.7396 H   0  0  0  0  0  0  0  0  0  0  0  0
   41.1899   23.0874   35.5186 H   0  0  0  0  0  0  0  0  0  0  0  0
   45.1321   25.2901   35.9488 H   0  0  0  0  0  0  0  0  0  0  0  0
   44.9774   27.1867   34.2728 H   0  0  0  0  0  0  0  0  0  0  0  0
   40.9196   26.1000   33.4510 H   0  0  0  0  0  0  0  0  0  0  0  0
   39.3495   23.0509   39.2615 H   0  0  0  0  0  0  0  0  0  0  0  0
   36.8552   22.4571   37.9628 H   0  0  0  0  0  0  0  0  0  0  0  0
   37.2440   23.7420   39.1409 H   0  0  0  0  0  0  0  0  0  0  0  0
   37.1448   23.8690   36.2229 H   0  0  0  0  0  0  0  0  0  0  0  0
   37.2967   25.2028   37.3823 H   0  0  0  0  0  0  0  0  0  0  0  0
   39.3576   24.4713   35.6980 H   0  0  0  0  0  0  0  0  0  0  0  0
   39.7164   25.1580   37.2401 H   0  0  0  0  0  0  0  0  0  0  0  0
   39.1607   21.0390   36.4578 H   0  0  0  0  0  0  0  0  0  0  0  0
   37.8399   22.3444   36.3511 H   0  0  0  0  0  0  0  0  0  0  0  0
   40.0401   22.9921   34.6966 H   0  0  0  0  0  0  0  0  0  0  0  0
   39.4211   21.3491   34.3168 H   0  0  0  0  0  0  0  0  0  0  0  0
   38.3007   22.7533   34.3168 H   0  0  0  0  0  0  0  0  0  0  0  0
  2  1  1  0
  3  2  1  0
  3  4  1  0
  5  1  1  0
  5  4  1  0
  5 12  1  0
  6  1  1  0
  7  6  2  0
  8  7  1  0
  9 10  1  0
  9  8  2  0
 10 11  2  0
 11  6  1  0
 14 13  1  0
 15 14  1  0
 16 15  1  0
 16 17  1  0
 17 18  1  0
 17 12  1  1
 17 13  1  0
 19 18  1  0
  1 20  1  1
  2 21  1  0
  2 22  1  0
  3 23  1  0
  3 24  1  0
  4 25  1  0
  4 26  1  0
  5 27  1  6
  7 28  1  0
  8 29  1  0
 10 30  1  0
 13 31  1  0
 14 32  1  0
 14 33  1  0
 15 34  1  0
 15 35  1  0
 16 36  1  0
 16 37  1  0
 18 38  1  0
 18 39  1  0
 19 40  1  0
 19 41  1  0
 19 42  1  0
M  ISO  8  20  13  21  13  22  13  23  13  24  13  25  13  26  13  27  13
M  ISO  8  28  14  29  14  30  14  31   5  32  13  33  13  34  13  35  13
M  ISO  7  36  13  37  13  38   8  39   8  40   8  41   8  42   8
M  END
>  <minimizedAffinity>  (1) 
-4.40919209

>  <minimizedRMSD>  (1) 
1.13621783

$$$$
