
     RDKit          3D

 45 47  0  0  1  0  0  0  0  0999 V2000
   42.7390   23.2850   36.4690 C   0  0  2  0  0  0  0  0  0  0  0  0
   43.4170   21.9260   36.3250 C   0  0  0  0  0  0  0  0  0  0  0  0
   42.9220   21.5010   35.0160 C   0  0  0  0  0  0  0  0  0  0  0  0
   41.4940   22.0040   34.9850 C   0  0  0  0  0  0  0  0  0  0  0  0
   41.6540   23.4190   35.5280 C   0  0  1  0  0  0  0  0  0  0  0  0
   43.7530   24.3410   36.3400 C   0  0  0  0  0  0  0  0  0  0  0  0
   44.4630   24.8670   37.4690 C   0  0  0  0  0  0  0  0  0  0  0  0
   45.4100   25.8640   37.2250 C   0  0  0  0  0  0  0  0  0  0  0  0
   45.6010   26.2750   35.9380 N   0  0  0  0  0  0  0  0  0  0  0  0
   44.8980   25.7440   34.8910 C   0  0  0  0  0  0  0  0  0  0  0  0
   43.9900   24.7920   35.1020 N   0  0  0  0  0  0  0  0  0  0  0  0
   40.4820   23.8520   35.9550 O   0  0  0  0  0  0  0  0  0  0  0  0
   38.8930   25.4980   35.8820 N   0  0  0  0  0  0  0  0  0  0  0  0
   38.9500   26.8810   35.5310 C   0  0  0  0  0  0  0  0  0  0  0  0
   40.0730   27.0520   34.5600 C   0  0  0  0  0  0  0  0  0  0  0  0
   40.8590   25.7570   34.6100 C   0  0  0  0  0  0  0  0  0  0  0  0
   39.8690   24.7780   35.1610 C   0  0  1  0  0  0  0  0  0  0  0  0
   38.9110   24.1930   34.1630 C   0  0  0  0  0  0  0  0  0  0  0  0
   38.0650   23.2050   35.0260 C   0  0  0  0  0  0  0  0  0  0  0  0
   37.7210   25.1140   33.8040 C   0  0  0  0  0  0  0  0  0  0  0  0
   42.2827   23.3798   37.4654 H   0  0  0  0  0  0  0  0  0  0  0  0
   44.5130   22.0193   36.3310 H   0  0  0  0  0  0  0  0  0  0  0  0
   43.1977   21.2224   37.1416 H   0  0  0  0  0  0  0  0  0  0  0  0
   43.5142   21.9546   34.2076 H   0  0  0  0  0  0  0  0  0  0  0  0
   42.9915   20.4131   34.8692 H   0  0  0  0  0  0  0  0  0  0  0  0
   41.0931   22.0104   33.9607 H   0  0  0  0  0  0  0  0  0  0  0  0
   40.7889   21.3829   35.5569 H   0  0  0  0  0  0  0  0  0  0  0  0
   41.9294   24.2132   34.8185 H   0  0  0  0  0  0  0  0  0  0  0  0
   44.2694   24.4996   38.4876 H   0  0  0  0  0  0  0  0  0  0  0  0
   45.9875   26.3069   38.0498 H   0  0  0  0  0  0  0  0  0  0  0  0
   45.0836   26.1053   33.8688 H   0  0  0  0  0  0  0  0  0  0  0  0
   39.0690   25.3945   36.8916 H   0  0  0  0  0  0  0  0  0  0  0  0
   38.0018   27.1901   35.0669 H   0  0  0  0  0  0  0  0  0  0  0  0
   39.1128   27.5012   36.4248 H   0  0  0  0  0  0  0  0  0  0  0  0
   40.7098   27.8989   34.8554 H   0  0  0  0  0  0  0  0  0  0  0  0
   39.7040   27.2641   33.5457 H   0  0  0  0  0  0  0  0  0  0  0  0
   41.1918   25.4583   33.6050 H   0  0  0  0  0  0  0  0  0  0  0  0
   41.7751   25.8311   35.2143 H   0  0  0  0  0  0  0  0  0  0  0  0
   39.5063   23.8819   33.2919 H   0  0  0  0  0  0  0  0  0  0  0  0
   38.2392   23.4084   36.0929 H   0  0  0  0  0  0  0  0  0  0  0  0
   36.9976   23.3393   34.7966 H   0  0  0  0  0  0  0  0  0  0  0  0
   38.3620   22.1710   34.7966 H   0  0  0  0  0  0  0  0  0  0  0  0
   37.2486   25.4796   34.7277 H   0  0  0  0  0  0  0  0  0  0  0  0
   38.0838   25.9689   33.2145 H   0  0  0  0  0  0  0  0  0  0  0  0
   36.9844   24.5484   33.2145 H   0  0  0  0  0  0  0  0  0  0  0  0
  2  1  1  0
  3  2  1  0
  4  3  1  0
  4  5  1  0
  5 12  1  0
  5  1  1  0
  6  1  1  0
  6  7  2  0
  8  7  1  0
  9  8  2  0
 10 11  2  0
 10  9  1  0
 11  6  1  0
 14 13  1  0
 15 16  1  0
 15 14  1  0
 16 17  1  0
 17 18  1  0
 17 13  1  0
 17 12  1  1
 18 19  1  0
 20 18  1  0
  1 21  1  1
  2 22  1  0
  2 23  1  0
  3 24  1  0
  3 25  1  0
  4 26  1  0
  4 27  1  0
  5 28  1  6
  7 29  1  0
  8 30  1  0
 10 31  1  0
 13 32  1  0
 14 33  1  0
 14 34  1  0
 15 35  1  0
 15 36  1  0
 16 37  1  0
 16 38  1  0
 18 39  1  0
 19 40  1  0
 19 41  1  0
 19 42  1  0
 20 43  1  0
 20 44  1  0
 20 45  1  0
M  ISO  8  21  13  22  13  23  13  24  13  25  13  26  13  27  13  28  13
M  ISO  8  29  14  30  14  31  14  32   5  33  13  34  13  35  13  36  13
M  ISO  8  37  13  38  13  39   8  40   8  41   8  42   8  43   8  44   8
M  ISO  1  45   8
M  END
>  <minimizedAffinity>  (1) 
-4.18590117

>  <minimizedRMSD>  (1) 
2.63051844

$$$$
