
     RDKit          3D

 43 46  0  0  1  0  0  0  0  0999 V2000
   43.7620   26.8580   34.1260 C   0  0  2  0  0  0  0  0  0  0  0  0
   43.9790   27.4040   32.7160 C   0  0  0  0  0  0  0  0  0  0  0  0
   45.3170   26.8880   32.4180 C   0  0  0  0  0  0  0  0  0  0  0  0
   46.0280   27.0380   33.7560 C   0  0  0  0  0  0  0  0  0  0  0  0
   45.0020   26.3340   34.6770 C   0  0  1  0  0  0  0  0  0  0  0  0
   42.6930   25.8550   34.0730 C   0  0  0  0  0  0  0  0  0  0  0  0
   41.4120   26.0430   34.6900 C   0  0  0  0  0  0  0  0  0  0  0  0
   40.4840   25.0050   34.5690 C   0  0  0  0  0  0  0  0  0  0  0  0
   40.8480   23.8870   33.8790 N   0  0  0  0  0  0  0  0  0  0  0  0
   42.0820   23.7470   33.3060 C   0  0  0  0  0  0  0  0  0  0  0  0
   42.9890   24.7170   33.4030 N   0  0  0  0  0  0  0  0  0  0  0  0
   45.3410   26.7340   35.9000 O   0  0  0  0  0  0  0  0  0  0  0  0
   46.9300   25.3840   36.8800 N   0  0  0  0  0  0  0  0  0  0  0  0
   47.0070   24.6640   38.1320 C   0  0  0  0  0  0  0  0  0  0  0  0
   45.9530   25.2740   39.0250 C   0  0  0  0  0  0  0  0  0  0  0  0
   45.0910   26.1540   38.1690 C   0  0  0  0  0  0  0  0  0  0  0  0
   45.5230   25.7440   36.7860 C   0  0  1  0  0  0  0  0  0  0  0  0
   44.9880   24.3900   36.5150 N   0  0  0  0  0  0  0  0  0  0  0  0
   45.5520   23.3190   35.8490 C   0  0  0  0  0  0  0  0  0  0  0  0
   44.6140   22.3080   35.8370 C   0  0  0  0  0  0  0  0  0  0  0  0
   43.4930   22.7040   36.4660 N   0  0  0  0  0  0  0  0  0  0  0  0
   43.7470   23.9600   36.8620 C   0  0  0  0  0  0  0  0  0  0  0  0
   43.4502   27.6636   34.8070 H   0  0  0  0  0  0  0  0  0  0  0  0
   43.2295   27.0133   32.0120 H   0  0  0  0  0  0  0  0  0  0  0  0
   43.8865   28.4971   32.6343 H   0  0  0  0  0  0  0  0  0  0  0  0
   45.2769   25.8345   32.1041 H   0  0  0  0  0  0  0  0  0  0  0  0
   45.8179   27.4137   31.5917 H   0  0  0  0  0  0  0  0  0  0  0  0
   47.0019   26.5267   33.7618 H   0  0  0  0  0  0  0  0  0  0  0  0
   46.2761   28.0717   34.0388 H   0  0  0  0  0  0  0  0  0  0  0  0
   44.9381   25.2372   34.7307 H   0  0  0  0  0  0  0  0  0  0  0  0
   41.1698   26.9666   35.2362 H   0  0  0  0  0  0  0  0  0  0  0  0
   39.4840   25.0881   35.0197 H   0  0  0  0  0  0  0  0  0  0  0  0
   42.3275   22.8243   32.7598 H   0  0  0  0  0  0  0  0  0  0  0  0
   47.5252   26.2244   36.9006 H   0  0  0  0  0  0  0  0  0  0  0  0
   46.8014   23.5953   37.9722 H   0  0  0  0  0  0  0  0  0  0  0  0
   48.0088   24.7386   38.5801 H   0  0  0  0  0  0  0  0  0  0  0  0
   45.3430   24.4808   39.4820 H   0  0  0  0  0  0  0  0  0  0  0  0
   46.4197   25.8566   39.8329 H   0  0  0  0  0  0  0  0  0  0  0  0
   44.0223   25.9513   38.3327 H   0  0  0  0  0  0  0  0  0  0  0  0
   45.2043   27.2288   38.3740 H   0  0  0  0  0  0  0  0  0  0  0  0
   46.5601   23.2799   35.4105 H   0  0  0  0  0  0  0  0  0  0  0  0
   44.7616   21.3191   35.3785 H   0  0  0  0  0  0  0  0  0  0  0  0
   43.0234   24.5794   37.4122 H   0  0  0  0  0  0  0  0  0  0  0  0
  1  5  1  0
  2  1  1  0
  3  2  1  0
  3  4  1  0
  4  5  1  0
  5 12  1  0
  6  1  1  0
  6  7  2  0
  8  7  1  0
  9  8  2  0
 10 11  2  0
 10  9  1  0
 11  6  1  0
 13 14  1  0
 14 15  1  0
 16 15  1  0
 17 12  1  6
 17 13  1  0
 17 16  1  0
 18 17  1  0
 18 22  1  0
 19 18  1  0
 20 19  2  0
 20 21  1  0
 21 22  2  0
  1 23  1  1
  2 24  1  0
  2 25  1  0
  3 26  1  0
  3 27  1  0
  4 28  1  0
  4 29  1  0
  5 30  1  1
  7 31  1  0
  8 32  1  0
 10 33  1  0
 13 34  1  0
 14 35  1  0
 14 36  1  0
 15 37  1  0
 15 38  1  0
 16 39  1  0
 16 40  1  0
 19 41  1  0
 20 42  1  0
 22 43  1  0
M  ISO  8  23  13  24  13  25  13  26  13  27  13  28  13  29  13  30  13
M  ISO  8  31  14  32  14  33  14  34   5  35  13  36  13  37  13  38  13
M  ISO  5  39  13  40  13  41  14  42  14  43  14
M  END
>  <minimizedAffinity>  (1) 
-3.87085533

>  <minimizedRMSD>  (1) 
6.25966454

$$$$
