
     RDKit          3D

 32 35  0  0  0  0  0  0  0  0999 V2000
   39.8450   22.7650   37.8280 C   0  0  0  0  0  0  0  0  0  0  0  0
   38.8870   23.4510   38.6010 C   0  0  0  0  0  0  0  0  0  0  0  0
   37.7940   24.0300   37.9330 C   0  0  0  0  0  0  0  0  0  0  0  0
   37.7250   23.8970   36.5820 N   0  0  0  0  0  0  0  0  0  0  0  0
   38.6620   23.2330   35.8750 C   0  0  0  0  0  0  0  0  0  0  0  0
   39.7010   22.6810   36.5060 N   0  0  0  0  0  0  0  0  0  0  0  0
   38.6030   23.0830   34.4510 N   0  0  0  0  0  0  0  0  0  0  0  0
   38.9910   22.0610   33.6530 C   0  0  0  0  0  0  0  0  0  0  0  0
   38.7190   22.4180   32.3820 N   0  0  0  0  0  0  0  0  0  0  0  0
   38.1620   23.6520   32.3440 C   0  0  0  0  0  0  0  0  0  0  0  0
   37.7280   24.4090   31.2710 C   0  0  0  0  0  0  0  0  0  0  0  0
   37.2150   25.6180   31.6040 N   0  0  0  0  0  0  0  0  0  0  0  0
   37.1460   26.0200   32.8710 C   0  0  0  0  0  0  0  0  0  0  0  0
   37.5690   25.2830   33.9210 N   0  0  0  0  0  0  0  0  0  0  0  0
   38.1000   24.0490   33.6560 C   0  0  0  0  0  0  0  0  0  0  0  0
   36.5750   27.3220   33.0160 N   0  0  0  0  0  0  0  0  0  0  0  0
   36.5050   27.9500   34.2190 C   0  0  0  0  0  0  0  0  0  0  0  0
   35.9560   29.2070   34.3770 C   0  0  0  0  0  0  0  0  0  0  0  0
   35.4570   29.8590   33.2690 C   0  0  0  0  0  0  0  0  0  0  0  0
   34.8820   31.1560   33.3900 N   0  0  0  0  0  0  0  0  0  0  0  0
   35.5240   29.2380   32.0700 N   0  0  0  0  0  0  0  0  0  0  0  0
   36.0700   28.0090   31.9740 C   0  0  0  0  0  0  0  0  0  0  0  0
   36.0940   27.4990   30.8070 O   0  0  0  0  0  0  0  0  0  0  0  0
   40.7129   22.2982   38.3167 H   0  0  0  0  0  0  0  0  0  0  0  0
   38.9912   23.5309   39.6931 H   0  0  0  0  0  0  0  0  0  0  0  0
   37.0164   24.5754   38.4880 H   0  0  0  0  0  0  0  0  0  0  0  0
   39.4445   21.1140   33.9810 H   0  0  0  0  0  0  0  0  0  0  0  0
   37.7940   24.0577   30.2307 H   0  0  0  0  0  0  0  0  0  0  0  0
   36.9030   27.4345   35.1055 H   0  0  0  0  0  0  0  0  0  0  0  0
   35.9173   29.6801   35.3693 H   0  0  0  0  0  0  0  0  0  0  0  0
   34.5119   31.6351   32.5567 H   0  0  0  0  0  0  0  0  0  0  0  0
   34.8362   31.6152   34.3109 H   0  0  0  0  0  0  0  0  0  0  0  0
  1  2  2  0
  3  2  1  0
  4  3  2  0
  5  6  2  0
  5  4  1  0
  6  1  1  0
  7  5  1  0
  8  7  1  0
  9  8  2  0
 10  9  1  0
 10 15  2  0
 11 12  2  0
 11 10  1  0
 12 13  1  0
 13 16  1  0
 13 14  2  0
 15 14  1  0
 15  7  1  0
 16 17  1  0
 17 18  2  0
 19 20  1  0
 19 18  1  0
 21 19  2  0
 22 21  1  0
 22 16  1  0
 23 22  2  0
  1 24  1  0
  2 25  1  0
  3 26  1  0
  8 27  1  0
 11 28  1  0
 17 29  1  0
 18 30  1  0
 20 31  1  0
 20 32  1  0
M  ISO  7  24  14  25  14  26  14  27  14  28  14  29  14  30  14
M  END
>  <minimizedAffinity>  (1) 
-6.15244102

>  <minimizedRMSD>  (1) 
2.42165232

$$$$
