
     RDKit          3D

 48 51  0  0  0  0  0  0  0  0999 V2000
   37.2560   22.6050   37.2060 C   0  0  0  0  0  0  0  0  0  0  0  0
   36.9570   21.9290   35.9440 C   0  0  0  0  0  0  0  0  0  0  0  0
   35.8710   21.1640   35.7310 C   0  0  0  0  0  0  0  0  0  0  0  0
   35.6020   20.5480   34.5540 C   0  0  0  0  0  0  0  0  0  0  0  0
   36.5940   20.7990   33.5590 C   0  0  0  0  0  0  0  0  0  0  0  0
   37.8570   21.9110   34.3980 S   0  0  0  0  0  0  0  0  0  0  0  0
   36.7520   20.4230   32.1890 C   0  0  0  0  0  0  0  0  0  0  0  0
   36.0090   19.4790   31.5550 C   0  0  0  0  0  0  0  0  0  0  0  0
   36.7260   19.4720   29.8170 S   0  0  0  0  0  0  0  0  0  0  0  0
   37.9370   20.8100   30.3260 C   0  0  0  0  0  0  0  0  0  0  0  0
   37.6280   20.9400   31.4030 N   0  0  0  0  0  0  0  0  0  0  0  0
   38.9530   21.4340   29.4940 N   0  0  0  0  0  0  0  0  0  0  0  0
   39.7340   20.6640   28.5370 C   0  0  0  0  0  0  0  0  0  0  0  0
   39.8240   21.5030   27.2820 C   0  0  0  0  0  0  0  0  0  0  0  0
   40.3540   22.7430   27.5010 O   0  0  0  0  0  0  0  0  0  0  0  0
   40.4330   23.1610   28.8040 C   0  0  0  0  0  0  0  0  0  0  0  0
   39.1920   22.8570   29.6130 C   0  0  0  0  0  0  0  0  0  0  0  0
   38.1610   23.7940   37.0890 C   0  0  0  0  0  0  0  0  0  0  0  0
   41.4500   22.0000   37.2450 C   0  0  0  0  0  0  0  0  0  0  0  0
   40.1460   22.3430   37.5700 C   0  0  0  0  0  0  0  0  0  0  0  0
   39.5170   23.3690   36.8240 C   0  0  0  0  0  0  0  0  0  0  0  0
   40.2310   23.9510   35.8390 N   0  0  0  0  0  0  0  0  0  0  0  0
   41.4970   23.5970   35.5460 C   0  0  0  0  0  0  0  0  0  0  0  0
   42.0970   22.6210   36.2540 N   0  0  0  0  0  0  0  0  0  0  0  0
   38.1480   24.5190   38.4380 C   0  0  0  0  0  0  0  0  0  0  0  0
   37.5680   24.6760   36.0320 C   0  0  0  0  0  0  0  0  0  0  0  0
   36.3058   22.9415   37.6463 H   0  0  0  0  0  0  0  0  0  0  0  0
   37.7905   21.8720   37.8282 H   0  0  0  0  0  0  0  0  0  0  0  0
   35.1603   21.0307   36.5599 H   0  0  0  0  0  0  0  0  0  0  0  0
   34.7140   19.9215   34.3838 H   0  0  0  0  0  0  0  0  0  0  0  0
   35.1885   18.8681   31.9595 H   0  0  0  0  0  0  0  0  0  0  0  0
   40.7401   20.4692   28.9368 H   0  0  0  0  0  0  0  0  0  0  0  0
   39.2643   19.6907   28.3319 H   0  0  0  0  0  0  0  0  0  0  0  0
   38.8118   21.6234   26.8685 H   0  0  0  0  0  0  0  0  0  0  0  0
   40.4950   20.9788   26.5855 H   0  0  0  0  0  0  0  0  0  0  0  0
   41.2893   22.6597   29.2788 H   0  0  0  0  0  0  0  0  0  0  0  0
   40.5466   24.2550   28.7858 H   0  0  0  0  0  0  0  0  0  0  0  0
   38.3341   23.4195   29.2161 H   0  0  0  0  0  0  0  0  0  0  0  0
   39.3259   23.1480   30.6653 H   0  0  0  0  0  0  0  0  0  0  0  0
   41.9589   21.2057   37.8108 H   0  0  0  0  0  0  0  0  0  0  0  0
   39.6144   21.8314   38.3859 H   0  0  0  0  0  0  0  0  0  0  0  0
   42.0382   24.1025   34.7326 H   0  0  0  0  0  0  0  0  0  0  0  0
   38.1613   23.7792   39.2520 H   0  0  0  0  0  0  0  0  0  0  0  0
   39.0347   25.1653   38.5155 H   0  0  0  0  0  0  0  0  0  0  0  0
   37.2387   25.1331   38.5155 H   0  0  0  0  0  0  0  0  0  0  0  0
   37.0149   25.4987   36.5088 H   0  0  0  0  0  0  0  0  0  0  0  0
   38.3723   25.0894   35.4058 H   0  0  0  0  0  0  0  0  0  0  0  0
   36.8816   24.0872   35.4058 H   0  0  0  0  0  0  0  0  0  0  0  0
  2  1  1  0
  3  2  2  0
  4  3  1  0
  5  6  1  0
  5  4  2  0
  6  2  1  0
  7  5  1  0
  8  7  2  0
  9 10  1  0
  9  8  1  0
 10 11  2  0
 11  7  1  0
 12 17  1  0
 12 10  1  0
 13 12  1  0
 14 15  1  0
 14 13  1  0
 15 16  1  0
 16 17  1  0
 18  1  1  0
 18 25  1  0
 19 20  2  0
 21 18  1  0
 21 20  1  0
 22 21  2  0
 23 22  1  0
 23 24  2  0
 24 19  1  0
 26 18  1  0
  1 27  1  0
  1 28  1  0
  3 29  1  0
  4 30  1  0
  8 31  1  0
 13 32  1  0
 13 33  1  0
 14 34  1  0
 14 35  1  0
 16 36  1  0
 16 37  1  0
 17 38  1  0
 17 39  1  0
 19 40  1  0
 20 41  1  0
 23 42  1  0
 25 43  1  0
 25 44  1  0
 25 45  1  0
 26 46  1  0
 26 47  1  0
 26 48  1  0
M  ISO  8  27   8  28   8  29  14  30  14  31  14  32  13  33  13  34  13
M  ISO  8  35  13  36  13  37  13  38  13  39  13  40  14  41  14  42  14
M  ISO  6  43   8  44   8  45   8  46   8  47   8  48   8
M  END
>  <minimizedAffinity>  (1) 
-4.93431139

>  <minimizedRMSD>  (1) 
0.142242059

$$$$
