
     RDKit          3D

 34 37  0  0  0  0  0  0  0  0999 V2000
   39.7740   22.7180   37.7280 C   0  0  0  0  0  0  0  0  0  0  0  0
   38.8220   23.4560   38.4370 C   0  0  0  0  0  0  0  0  0  0  0  0
   37.7580   23.9720   37.6980 C   0  0  0  0  0  0  0  0  0  0  0  0
   37.6910   23.7440   36.3580 N   0  0  0  0  0  0  0  0  0  0  0  0
   38.6340   23.0280   35.7250 C   0  0  0  0  0  0  0  0  0  0  0  0
   39.6830   22.5080   36.4050 N   0  0  0  0  0  0  0  0  0  0  0  0
   38.6140   22.7600   34.3250 N   0  0  0  0  0  0  0  0  0  0  0  0
   39.0070   21.6930   33.6040 C   0  0  0  0  0  0  0  0  0  0  0  0
   38.7720   21.9420   32.3130 N   0  0  0  0  0  0  0  0  0  0  0  0
   38.2240   23.1660   32.1540 C   0  0  0  0  0  0  0  0  0  0  0  0
   37.8120   23.8630   31.0250 C   0  0  0  0  0  0  0  0  0  0  0  0
   37.3000   25.0920   31.2520 N   0  0  0  0  0  0  0  0  0  0  0  0
   37.2110   25.5750   32.4870 C   0  0  0  0  0  0  0  0  0  0  0  0
   37.6070   24.9130   33.5960 N   0  0  0  0  0  0  0  0  0  0  0  0
   38.1320   23.6710   33.4380 C   0  0  0  0  0  0  0  0  0  0  0  0
   36.6680   26.8690   32.6800 N   0  0  0  0  0  0  0  0  0  0  0  0
   37.0630   27.7390   33.7740 C   0  0  0  0  0  0  0  0  0  0  0  0
   35.9200   28.7470   33.9110 C   0  0  0  0  0  0  0  0  0  0  0  0
   35.8590   29.5840   32.8060 O   0  0  0  0  0  0  0  0  0  0  0  0
   36.0390   28.9050   31.6070 C   0  0  0  0  0  0  0  0  0  0  0  0
   35.6660   27.4540   31.8090 C   0  0  0  0  0  0  0  0  0  0  0  0
   40.6294   22.2936   38.2741 H   0  0  0  0  0  0  0  0  0  0  0  0
   38.9076   23.6211   39.5212 H   0  0  0  0  0  0  0  0  0  0  0  0
   36.9749   24.5618   38.1968 H   0  0  0  0  0  0  0  0  0  0  0  0
   39.4478   20.7707   34.0102 H   0  0  0  0  0  0  0  0  0  0  0  0
   37.8972   23.4415   30.0125 H   0  0  0  0  0  0  0  0  0  0  0  0
   37.1830   27.1620   34.7028 H   0  0  0  0  0  0  0  0  0  0  0  0
   38.0276   28.2317   33.5824 H   0  0  0  0  0  0  0  0  0  0  0  0
   34.9689   28.2019   34.0021 H   0  0  0  0  0  0  0  0  0  0  0  0
   36.1001   29.3610   34.8058 H   0  0  0  0  0  0  0  0  0  0  0  0
   37.0917   28.9764   31.2960 H   0  0  0  0  0  0  0  0  0  0  0  0
   35.4039   29.3493   30.8265 H   0  0  0  0  0  0  0  0  0  0  0  0
   34.6727   27.3820   32.2761 H   0  0  0  0  0  0  0  0  0  0  0  0
   35.6289   26.9234   30.8461 H   0  0  0  0  0  0  0  0  0  0  0  0
  1  2  2  0
  3  2  1  0
  4  3  2  0
  5  4  1  0
  5  6  2  0
  6  1  1  0
  7  5  1  0
  8  7  1  0
  9  8  2  0
 10  9  1  0
 10 15  2  0
 11 12  2  0
 11 10  1  0
 12 13  1  0
 13 16  1  0
 13 14  2  0
 15 14  1  0
 15  7  1  0
 16 17  1  0
 17 18  1  0
 19 18  1  0
 20 21  1  0
 20 19  1  0
 21 16  1  0
  1 22  1  0
  2 23  1  0
  3 24  1  0
  8 25  1  0
 11 26  1  0
 17 27  1  0
 17 28  1  0
 18 29  1  0
 18 30  1  0
 20 31  1  0
 20 32  1  0
 21 33  1  0
 21 34  1  0
M  ISO  8  22  14  23  14  24  14  25  14  26  14  27  13  28  13  29  13
M  ISO  5  30  13  31  13  32  13  33  13  34  13
M  END
>  <minimizedAffinity>  (1) 
-5.57950592

>  <minimizedRMSD>  (1) 
2.74038124

$$$$
