
     RDKit          3D

 28 30  0  0  0  0  0  0  0  0999 V2000
   39.7140   22.8370   37.7060 C   0  0  0  0  0  0  0  0  0  0  0  0
   38.9340   23.3790   38.7340 C   0  0  0  0  0  0  0  0  0  0  0  0
   37.8480   24.1630   38.3490 C   0  0  0  0  0  0  0  0  0  0  0  0
   37.6040   24.3620   37.0260 N   0  0  0  0  0  0  0  0  0  0  0  0
   38.3860   23.8190   36.0700 C   0  0  0  0  0  0  0  0  0  0  0  0
   39.4370   23.0590   36.4230 N   0  0  0  0  0  0  0  0  0  0  0  0
   38.1690   23.9990   34.6670 N   0  0  0  0  0  0  0  0  0  0  0  0
   38.3570   23.1750   33.6250 C   0  0  0  0  0  0  0  0  0  0  0  0
   37.9960   23.8330   32.5050 N   0  0  0  0  0  0  0  0  0  0  0  0
   37.5750   25.0810   32.8130 C   0  0  0  0  0  0  0  0  0  0  0  0
   37.1120   26.1120   32.0110 C   0  0  0  0  0  0  0  0  0  0  0  0
   36.7670   27.2510   32.6610 N   0  0  0  0  0  0  0  0  0  0  0  0
   36.8800   27.3320   33.9830 C   0  0  0  0  0  0  0  0  0  0  0  0
   37.3300   26.3300   34.7710 N   0  0  0  0  0  0  0  0  0  0  0  0
   37.6910   25.1660   34.1770 C   0  0  0  0  0  0  0  0  0  0  0  0
   36.5070   28.5460   34.6260 N   0  0  0  0  0  0  0  0  0  0  0  0
   35.4920   29.3900   34.0890 C   0  0  0  0  0  0  0  0  0  0  0  0
   35.2480   29.3450   32.8220 N   0  0  0  0  0  0  0  0  0  0  0  0
   34.7610   30.2680   34.9480 N   0  0  0  0  0  0  0  0  0  0  0  0
   34.5130   29.9480   32.3880 H   0  0  0  0  0  0  0  0  0  0  0  0
   40.5799   22.2102   37.9654 H   0  0  0  0  0  0  0  0  0  0  0  0
   39.1666   23.1953   39.7933 H   0  0  0  0  0  0  0  0  0  0  0  0
   37.1941   24.6167   39.1083 H   0  0  0  0  0  0  0  0  0  0  0  0
   38.7384   22.1445   33.6756 H   0  0  0  0  0  0  0  0  0  0  0  0
   37.0297   26.0129   30.9186 H   0  0  0  0  0  0  0  0  0  0  0  0
   36.9810   28.8204   35.4983 H   0  0  0  0  0  0  0  0  0  0  0  0
   34.0277   30.8773   34.5582 H   0  0  0  0  0  0  0  0  0  0  0  0
   34.9675   30.2914   35.9568 H   0  0  0  0  0  0  0  0  0  0  0  0
  1  2  2  0
  3  2  1  0
  4  3  2  0
  5  6  2  0
  5  4  1  0
  6  1  1  0
  7  5  1  0
  8  7  1  0
  9 10  1  0
  9  8  2  0
 10 15  2  0
 11 12  2  0
 11 10  1  0
 12 13  1  0
 13 16  1  0
 13 14  2  0
 15  7  1  0
 15 14  1  0
 17 16  1  0
 17 19  1  0
 18 17  2  0
 20 18  1  0
  1 21  1  0
  2 22  1  0
  3 23  1  0
  8 24  1  0
 11 25  1  0
 16 26  1  0
 19 27  1  0
 19 28  1  0
M  ISO  5  21  14  22  14  23  14  24  14  25  14
M  END
>  <minimizedAffinity>  (1) 
-5.44934082

>  <minimizedRMSD>  (1) 
0.635439336

$$$$
