
     RDKit          3D

 28 31  0  0  0  0  0  0  0  0999 V2000
   39.8200   22.7230   37.7830 C   0  0  0  0  0  0  0  0  0  0  0  0
   38.9170   23.4590   38.5600 C   0  0  0  0  0  0  0  0  0  0  0  0
   37.8400   24.0410   37.9020 C   0  0  0  0  0  0  0  0  0  0  0  0
   37.7060   23.8750   36.5520 N   0  0  0  0  0  0  0  0  0  0  0  0
   38.6020   23.1540   35.8360 C   0  0  0  0  0  0  0  0  0  0  0  0
   39.6540   22.5840   36.4660 N   0  0  0  0  0  0  0  0  0  0  0  0
   38.5110   22.9520   34.4370 N   0  0  0  0  0  0  0  0  0  0  0  0
   38.8330   21.9010   33.6580 C   0  0  0  0  0  0  0  0  0  0  0  0
   38.5490   22.2170   32.3830 N   0  0  0  0  0  0  0  0  0  0  0  0
   38.0420   23.4700   32.3120 C   0  0  0  0  0  0  0  0  0  0  0  0
   37.6120   24.2200   31.2290 C   0  0  0  0  0  0  0  0  0  0  0  0
   37.1590   25.4490   31.5200 N   0  0  0  0  0  0  0  0  0  0  0  0
   37.1350   25.9040   32.7910 C   0  0  0  0  0  0  0  0  0  0  0  0
   37.5550   25.1760   33.8550 N   0  0  0  0  0  0  0  0  0  0  0  0
   38.0250   23.9170   33.6080 C   0  0  0  0  0  0  0  0  0  0  0  0
   36.6520   27.2330   33.1600 C   0  0  0  0  0  0  0  0  0  0  0  0
   36.7500   27.6340   34.4810 C   0  0  0  0  0  0  0  0  0  0  0  0
   36.2220   28.9270   34.5500 C   0  0  0  0  0  0  0  0  0  0  0  0
   35.8330   29.2280   33.2400 C   0  0  0  0  0  0  0  0  0  0  0  0
   36.1070   28.2060   32.4730 O   0  0  0  0  0  0  0  0  0  0  0  0
   40.6855   22.2488   38.2689 H   0  0  0  0  0  0  0  0  0  0  0  0
   39.0543   23.5718   39.6456 H   0  0  0  0  0  0  0  0  0  0  0  0
   37.1008   24.6310   38.4637 H   0  0  0  0  0  0  0  0  0  0  0  0
   39.2561   20.9472   34.0061 H   0  0  0  0  0  0  0  0  0  0  0  0
   37.6402   23.8336   30.1995 H   0  0  0  0  0  0  0  0  0  0  0  0
   37.1634   27.0486   35.3155 H   0  0  0  0  0  0  0  0  0  0  0  0
   36.1321   29.5676   35.4397 H   0  0  0  0  0  0  0  0  0  0  0  0
   35.3720   30.1706   32.9098 H   0  0  0  0  0  0  0  0  0  0  0  0
  1  2  2  0
  3  2  1  0
  4  3  2  0
  5  6  2  0
  5  4  1  0
  6  1  1  0
  7  5  1  0
  8  7  1  0
  9  8  2  0
 10  9  1  0
 10 15  2  0
 11 12  2  0
 11 10  1  0
 12 13  1  0
 13 16  1  0
 13 14  2  0
 15 14  1  0
 15  7  1  0
 16 17  2  0
 17 18  1  0
 19 18  2  0
 20 16  1  0
 20 19  1  0
  1 21  1  0
  2 22  1  0
  3 23  1  0
  8 24  1  0
 11 25  1  0
 17 26  1  0
 18 27  1  0
 19 28  1  0
M  ISO  8  21  14  22  14  23  14  24  14  25  14  26  14  27  14  28  14
M  END
>  <minimizedAffinity>  (1) 
-5.28800011

>  <minimizedRMSD>  (1) 
2.26558208

$$$$
