
     RDKit          3D

 28 31  0  0  0  0  0  0  0  0999 V2000
   39.7860   22.7910   37.8460 C   0  0  0  0  0  0  0  0  0  0  0  0
   38.8700   23.4970   38.6460 C   0  0  0  0  0  0  0  0  0  0  0  0
   37.8090   24.1150   37.9900 C   0  0  0  0  0  0  0  0  0  0  0  0
   37.7000   24.0150   36.6360 N   0  0  0  0  0  0  0  0  0  0  0  0
   38.6130   23.3190   35.9110 C   0  0  0  0  0  0  0  0  0  0  0  0
   39.6370   22.7210   36.5190 N   0  0  0  0  0  0  0  0  0  0  0  0
   38.5180   23.2030   34.5000 N   0  0  0  0  0  0  0  0  0  0  0  0
   38.8600   22.1730   33.6820 C   0  0  0  0  0  0  0  0  0  0  0  0
   38.5780   22.5360   32.4180 N   0  0  0  0  0  0  0  0  0  0  0  0
   38.0580   23.7860   32.3940 C   0  0  0  0  0  0  0  0  0  0  0  0
   37.6200   24.5860   31.3500 C   0  0  0  0  0  0  0  0  0  0  0  0
   37.1550   25.7960   31.6860 N   0  0  0  0  0  0  0  0  0  0  0  0
   37.1250   26.1870   32.9650 C   0  0  0  0  0  0  0  0  0  0  0  0
   37.5500   25.4160   33.9940 N   0  0  0  0  0  0  0  0  0  0  0  0
   38.0300   24.1860   33.7150 C   0  0  0  0  0  0  0  0  0  0  0  0
   36.6080   27.5180   33.2800 C   0  0  0  0  0  0  0  0  0  0  0  0
   36.2200   28.4970   32.3880 C   0  0  0  0  0  0  0  0  0  0  0  0
   35.8050   29.5720   33.1000 N   0  0  0  0  0  0  0  0  0  0  0  0
   35.9150   29.3110   34.4200 C   0  0  0  0  0  0  0  0  0  0  0  0
   36.4040   28.0600   34.4890 N   0  0  0  0  0  0  0  0  0  0  0  0
   40.6409   22.2870   38.3206 H   0  0  0  0  0  0  0  0  0  0  0  0
   38.9863   23.5580   39.7381 H   0  0  0  0  0  0  0  0  0  0  0  0
   37.0610   24.6823   38.5633 H   0  0  0  0  0  0  0  0  0  0  0  0
   39.2915   21.2118   33.9980 H   0  0  0  0  0  0  0  0  0  0  0  0
   37.6526   24.2460   30.3044 H   0  0  0  0  0  0  0  0  0  0  0  0
   36.2436   28.4181   31.2911 H   0  0  0  0  0  0  0  0  0  0  0  0
   35.6600   29.9771   35.2575 H   0  0  0  0  0  0  0  0  0  0  0  0
   36.6004   27.5716   35.3743 H   0  0  0  0  0  0  0  0  0  0  0  0
  1  2  2  0
  3  2  1  0
  4  3  2  0
  5  6  2  0
  5  4  1  0
  6  1  1  0
  7  5  1  0
  8  7  1  0
  9  8  2  0
 10  9  1  0
 10 15  2  0
 11 12  2  0
 11 10  1  0
 12 13  1  0
 13 16  1  0
 13 14  2  0
 15 14  1  0
 15  7  1  0
 16 20  1  0
 17 18  1  0
 17 16  2  0
 18 19  2  0
 19 20  1  0
  1 21  1  0
  2 22  1  0
  3 23  1  0
  8 24  1  0
 11 25  1  0
 17 26  1  0
 19 27  1  0
 20 28  1  0
M  ISO  8  21  14  22  14  23  14  24  14  25  14  26  14  27  14  28   9
M  END
>  <minimizedAffinity>  (1) 
-5.12471771

>  <minimizedRMSD>  (1) 
1.98226202

$$$$
