
     RDKit          3D

 27 30  0  0  0  0  0  0  0  0999 V2000
   39.9120   22.6700   37.6910 C   0  0  0  0  0  0  0  0  0  0  0  0
   38.9460   23.3770   38.4340 C   0  0  0  0  0  0  0  0  0  0  0  0
   37.8380   23.8950   37.7380 C   0  0  0  0  0  0  0  0  0  0  0  0
   37.7570   23.6870   36.3890 N   0  0  0  0  0  0  0  0  0  0  0  0
   38.6980   23.0080   35.7250 C   0  0  0  0  0  0  0  0  0  0  0  0
   39.7660   22.5030   36.3630 N   0  0  0  0  0  0  0  0  0  0  0  0
   38.6400   22.7770   34.3220 N   0  0  0  0  0  0  0  0  0  0  0  0
   39.0330   21.7120   33.5750 C   0  0  0  0  0  0  0  0  0  0  0  0
   38.7600   21.9840   32.2870 N   0  0  0  0  0  0  0  0  0  0  0  0
   38.1940   23.2080   32.1670 C   0  0  0  0  0  0  0  0  0  0  0  0
   37.7500   23.9050   31.0590 C   0  0  0  0  0  0  0  0  0  0  0  0
   37.2280   25.1280   31.3130 N   0  0  0  0  0  0  0  0  0  0  0  0
   37.1670   25.5850   32.5620 C   0  0  0  0  0  0  0  0  0  0  0  0
   37.5910   24.9300   33.6670 N   0  0  0  0  0  0  0  0  0  0  0  0
   38.1290   23.6850   33.4600 C   0  0  0  0  0  0  0  0  0  0  0  0
   36.5620   26.9390   32.6160 C   0  0  0  0  0  0  0  0  0  0  0  0
   35.9270   27.5770   31.4860 C   0  0  0  0  0  0  0  0  0  0  0  0
   35.4210   29.1550   32.2020 S   0  0  0  0  0  0  0  0  0  0  0  0
   36.1370   28.7130   33.9010 C   0  0  0  0  0  0  0  0  0  0  0  0
   36.6690   27.4940   33.8120 N   0  0  0  0  0  0  0  0  0  0  0  0
   40.7926   22.2511   38.2000 H   0  0  0  0  0  0  0  0  0  0  0  0
   39.0540   23.5190   39.5194 H   0  0  0  0  0  0  0  0  0  0  0  0
   37.0537   24.4554   38.2680 H   0  0  0  0  0  0  0  0  0  0  0  0
   39.4937   20.7891   33.9572 H   0  0  0  0  0  0  0  0  0  0  0  0
   37.8163   23.4941   30.0408 H   0  0  0  0  0  0  0  0  0  0  0  0
   35.7886   27.2011   30.4615 H   0  0  0  0  0  0  0  0  0  0  0  0
   36.1170   29.3483   34.7988 H   0  0  0  0  0  0  0  0  0  0  0  0
  1  2  2  0
  3  2  1  0
  4  3  2  0
  5  6  2  0
  5  4  1  0
  6  1  1  0
  7  5  1  0
  8  7  1  0
  9  8  2  0
 10  9  1  0
 10 15  2  0
 11 12  2  0
 11 10  1  0
 12 13  1  0
 13 16  1  0
 13 14  2  0
 15 14  1  0
 15  7  1  0
 16 20  1  0
 17 18  1  0
 17 16  2  0
 18 19  1  0
 20 19  2  0
  1 21  1  0
  2 22  1  0
  3 23  1  0
  8 24  1  0
 11 25  1  0
 17 26  1  0
 19 27  1  0
M  ISO  7  21  14  22  14  23  14  24  14  25  14  26  14  27  14
M  END
>  <minimizedAffinity>  (1) 
-5.09506083

>  <minimizedRMSD>  (1) 
2.61188388

$$$$
