
     RDKit          3D

 42 45  0  0  0  0  0  0  0  0999 V2000
   37.2650   22.5680   37.2310 C   0  0  0  0  0  0  0  0  0  0  0  0
   36.9640   21.9310   35.9550 C   0  0  0  0  0  0  0  0  0  0  0  0
   35.8740   21.1580   35.7420 C   0  0  0  0  0  0  0  0  0  0  0  0
   35.6010   20.5570   34.5590 C   0  0  0  0  0  0  0  0  0  0  0  0
   36.5810   20.8250   33.5530 C   0  0  0  0  0  0  0  0  0  0  0  0
   37.8410   21.9350   34.4020 S   0  0  0  0  0  0  0  0  0  0  0  0
   36.7350   20.4510   32.1890 C   0  0  0  0  0  0  0  0  0  0  0  0
   35.9660   19.5250   31.5500 C   0  0  0  0  0  0  0  0  0  0  0  0
   36.7280   19.4940   29.8200 S   0  0  0  0  0  0  0  0  0  0  0  0
   37.9650   20.7900   30.3580 C   0  0  0  0  0  0  0  0  0  0  0  0
   37.6360   20.9250   31.4090 N   0  0  0  0  0  0  0  0  0  0  0  0
   38.9370   21.2460   29.3760 N   0  0  0  0  0  0  0  0  0  0  0  0
   39.4640   22.4490   29.2210 C   0  0  0  0  0  0  0  0  0  0  0  0
   40.3220   22.2950   28.1340 C   0  0  0  0  0  0  0  0  0  0  0  0
   40.2540   21.0160   27.7120 N   0  0  0  0  0  0  0  0  0  0  0  0
   39.3840   20.3410   28.4860 C   0  0  0  0  0  0  0  0  0  0  0  0
   38.1690   23.7590   37.1300 C   0  0  0  0  0  0  0  0  0  0  0  0
   41.4670   21.9850   37.2330 C   0  0  0  0  0  0  0  0  0  0  0  0
   40.1660   22.3280   37.5640 C   0  0  0  0  0  0  0  0  0  0  0  0
   39.5270   23.3480   36.8430 C   0  0  0  0  0  0  0  0  0  0  0  0
   40.2260   23.9490   35.8480 N   0  0  0  0  0  0  0  0  0  0  0  0
   41.4920   23.5970   35.5440 C   0  0  0  0  0  0  0  0  0  0  0  0
   42.1010   22.6230   36.2350 N   0  0  0  0  0  0  0  0  0  0  0  0
   38.1710   24.4560   38.4920 C   0  0  0  0  0  0  0  0  0  0  0  0
   37.5610   24.6620   36.0800 C   0  0  0  0  0  0  0  0  0  0  0  0
   36.3174   22.8928   37.6854 H   0  0  0  0  0  0  0  0  0  0  0  0
   37.7971   21.8203   37.8375 H   0  0  0  0  0  0  0  0  0  0  0  0
   35.1711   21.0095   36.5750 H   0  0  0  0  0  0  0  0  0  0  0  0
   34.7154   19.9269   34.3896 H   0  0  0  0  0  0  0  0  0  0  0  0
   35.1180   18.9437   31.9411 H   0  0  0  0  0  0  0  0  0  0  0  0
   39.2706   23.3570   29.8110 H   0  0  0  0  0  0  0  0  0  0  0  0
   40.9494   23.0841   27.6940 H   0  0  0  0  0  0  0  0  0  0  0  0
   39.1003   19.2811   28.4081 H   0  0  0  0  0  0  0  0  0  0  0  0
   41.9823   21.1879   37.7890 H   0  0  0  0  0  0  0  0  0  0  0  0
   39.6420   21.8084   38.3798 H   0  0  0  0  0  0  0  0  0  0  0  0
   42.0247   24.1091   34.7292 H   0  0  0  0  0  0  0  0  0  0  0  0
   38.1688   23.6998   39.2909 H   0  0  0  0  0  0  0  0  0  0  0  0
   39.0709   25.0821   38.5822 H   0  0  0  0  0  0  0  0  0  0  0  0
   37.2747   25.0872   38.5822 H   0  0  0  0  0  0  0  0  0  0  0  0
   37.0115   25.4781   36.5719 H   0  0  0  0  0  0  0  0  0  0  0  0
   38.3597   25.0839   35.4522 H   0  0  0  0  0  0  0  0  0  0  0  0
   36.8697   24.0807   35.4522 H   0  0  0  0  0  0  0  0  0  0  0  0
  2  1  1  0
  3  2  2  0
  4  3  1  0
  5  6  1  0
  5  4  2  0
  6  2  1  0
  7  5  1  0
  8  7  2  0
  9 10  1  0
  9  8  1  0
 10 11  2  0
 11  7  1  0
 12 10  1  0
 13 12  1  0
 14 13  2  0
 15 14  1  0
 15 16  2  0
 16 12  1  0
 17  1  1  0
 17 24  1  0
 18 19  2  0
 20 17  1  0
 20 19  1  0
 21 20  2  0
 22 21  1  0
 22 23  2  0
 23 18  1  0
 25 17  1  0
  1 26  1  0
  1 27  1  0
  3 28  1  0
  4 29  1  0
  8 30  1  0
 13 31  1  0
 14 32  1  0
 16 33  1  0
 18 34  1  0
 19 35  1  0
 22 36  1  0
 24 37  1  0
 24 38  1  0
 24 39  1  0
 25 40  1  0
 25 41  1  0
 25 42  1  0
M  ISO  8  26   8  27   8  28  14  29  14  30  14  31  14  32  14  33  14
M  ISO  8  34  14  35  14  36  14  37   8  38   8  39   8  40   8  41   8
M  ISO  1  42   8
M  END
>  <minimizedAffinity>  (1) 
-4.8871932

>  <minimizedRMSD>  (1) 
0.137186036

$$$$
