
     RDKit          3D

 24 26  0  0  0  0  0  0  0  0999 V2000
   39.7460   22.8420   37.6750 C   0  0  0  0  0  0  0  0  0  0  0  0
   38.9460   23.3730   38.7080 C   0  0  0  0  0  0  0  0  0  0  0  0
   37.8510   24.1690   38.3370 C   0  0  0  0  0  0  0  0  0  0  0  0
   37.6180   24.3870   37.0130 N   0  0  0  0  0  0  0  0  0  0  0  0
   38.4030   23.8640   36.0560 C   0  0  0  0  0  0  0  0  0  0  0  0
   39.4460   23.1050   36.4060 N   0  0  0  0  0  0  0  0  0  0  0  0
   38.1740   24.0810   34.6710 N   0  0  0  0  0  0  0  0  0  0  0  0
   38.3800   23.2630   33.6030 C   0  0  0  0  0  0  0  0  0  0  0  0
   38.0070   23.9230   32.5000 N   0  0  0  0  0  0  0  0  0  0  0  0
   37.5610   25.1510   32.8130 C   0  0  0  0  0  0  0  0  0  0  0  0
   37.0730   26.1970   32.0390 C   0  0  0  0  0  0  0  0  0  0  0  0
   36.7090   27.3080   32.6900 N   0  0  0  0  0  0  0  0  0  0  0  0
   36.8200   27.3850   34.0240 C   0  0  0  0  0  0  0  0  0  0  0  0
   37.2920   26.3810   34.8060 N   0  0  0  0  0  0  0  0  0  0  0  0
   37.6740   25.2320   34.1840 C   0  0  0  0  0  0  0  0  0  0  0  0
   36.3790   28.6780   34.6150 C   0  0  0  0  0  0  0  0  0  0  0  0
   40.6149   22.2126   37.9178 H   0  0  0  0  0  0  0  0  0  0  0  0
   39.1718   23.1708   39.7654 H   0  0  0  0  0  0  0  0  0  0  0  0
   37.1933   24.6085   39.1014 H   0  0  0  0  0  0  0  0  0  0  0  0
   38.7822   22.2398   33.6398 H   0  0  0  0  0  0  0  0  0  0  0  0
   36.9900   26.1157   30.9452 H   0  0  0  0  0  0  0  0  0  0  0  0
   36.4033   28.6068   35.7124 H   0  0  0  0  0  0  0  0  0  0  0  0
   37.0540   29.4813   34.2847 H   0  0  0  0  0  0  0  0  0  0  0  0
   35.3538   28.9014   34.2847 H   0  0  0  0  0  0  0  0  0  0  0  0
  1  2  2  0
  3  2  1  0
  4  3  2  0
  5  6  2  0
  5  4  1  0
  6  1  1  0
  7  5  1  0
  8  7  1  0
  9 10  1  0
  9  8  2  0
 10 15  2  0
 11 12  2  0
 11 10  1  0
 12 13  1  0
 13 16  1  0
 13 14  2  0
 15  7  1  0
 15 14  1  0
  1 17  1  0
  2 18  1  0
  3 19  1  0
  8 20  1  0
 11 21  1  0
 16 22  1  0
 16 23  1  0
 16 24  1  0
M  ISO  8  17  14  18  14  19  14  20  14  21  14  22   8  23   8  24   8
M  END
>  <minimizedAffinity>  (1) 
-4.82428551

>  <minimizedRMSD>  (1) 
0.476247519

$$$$
