
     RDKit          3D

 23 25  0  0  0  0  0  0  0  0999 V2000
   39.7120   22.8180   37.6920 C   0  0  0  0  0  0  0  0  0  0  0  0
   38.9440   23.3700   38.7230 C   0  0  0  0  0  0  0  0  0  0  0  0
   37.8660   24.1680   38.3470 C   0  0  0  0  0  0  0  0  0  0  0  0
   37.6120   24.3740   37.0250 N   0  0  0  0  0  0  0  0  0  0  0  0
   38.3820   23.8190   36.0670 C   0  0  0  0  0  0  0  0  0  0  0  0
   39.4330   23.0410   36.4120 N   0  0  0  0  0  0  0  0  0  0  0  0
   38.1580   24.0030   34.6720 N   0  0  0  0  0  0  0  0  0  0  0  0
   38.3310   23.1770   33.6230 C   0  0  0  0  0  0  0  0  0  0  0  0
   37.9710   23.8400   32.5150 N   0  0  0  0  0  0  0  0  0  0  0  0
   37.5680   25.0790   32.8130 C   0  0  0  0  0  0  0  0  0  0  0  0
   37.1070   26.1280   32.0050 C   0  0  0  0  0  0  0  0  0  0  0  0
   36.7820   27.2620   32.6560 N   0  0  0  0  0  0  0  0  0  0  0  0
   36.9010   27.3540   33.9870 C   0  0  0  0  0  0  0  0  0  0  0  0
   37.3430   26.3530   34.7780 N   0  0  0  0  0  0  0  0  0  0  0  0
   37.6910   25.1720   34.1760 C   0  0  0  0  0  0  0  0  0  0  0  0
   36.5790   28.5160   34.7580 N   0  0  0  0  0  0  0  0  0  0  0  0
   40.5715   22.1811   37.9483 H   0  0  0  0  0  0  0  0  0  0  0  0
   39.1804   23.1826   39.7808 H   0  0  0  0  0  0  0  0  0  0  0  0
   37.2243   24.6286   39.1126 H   0  0  0  0  0  0  0  0  0  0  0  0
   38.7017   22.1423   33.6673 H   0  0  0  0  0  0  0  0  0  0  0  0
   37.0167   26.0317   30.9130 H   0  0  0  0  0  0  0  0  0  0  0  0
   36.6993   28.5049   35.7809 H   0  0  0  0  0  0  0  0  0  0  0  0
   36.2270   29.3633   34.2900 H   0  0  0  0  0  0  0  0  0  0  0  0
  1  2  2  0
  3  2  1  0
  4  3  2  0
  5  6  2  0
  5  4  1  0
  6  1  1  0
  7  5  1  0
  8  7  1  0
  9 10  1  0
  9  8  2  0
 10 15  2  0
 11 12  2  0
 11 10  1  0
 12 13  1  0
 13 16  1  0
 13 14  2  0
 15  7  1  0
 15 14  1  0
  1 17  1  0
  2 18  1  0
  3 19  1  0
  8 20  1  0
 11 21  1  0
 16 22  1  0
 16 23  1  0
M  ISO  5  17  14  18  14  19  14  20  14  21  14
M  END
>  <minimizedAffinity>  (1) 
-4.71026945

>  <minimizedRMSD>  (1) 
0.522586584

$$$$
