
     RDKit          3D

 42 47  0  0  0  0  0  0  0  0999 V2000
   39.6850   22.8120   37.6170 C   0  0  0  0  0  0  0  0  0  0  0  0
   38.8620   23.6710   38.3650 C   0  0  0  0  0  0  0  0  0  0  0  0
   37.8560   24.2810   37.6790 C   0  0  0  0  0  0  0  0  0  0  0  0
   37.7030   24.0380   36.3520 N   0  0  0  0  0  0  0  0  0  0  0  0
   38.5270   23.1930   35.6620 C   0  0  0  0  0  0  0  0  0  0  0  0
   39.4940   22.6020   36.3020 N   0  0  0  0  0  0  0  0  0  0  0  0
   38.3350   22.9010   34.2860 N   0  0  0  0  0  0  0  0  0  0  0  0
   38.4340   21.7360   33.6140 C   0  0  0  0  0  0  0  0  0  0  0  0
   38.0170   21.9540   32.3390 N   0  0  0  0  0  0  0  0  0  0  0  0
   37.6520   23.2520   32.1820 C   0  0  0  0  0  0  0  0  0  0  0  0
   37.1490   23.9470   31.1000 C   0  0  0  0  0  0  0  0  0  0  0  0
   36.8970   25.2100   31.3410 N   0  0  0  0  0  0  0  0  0  0  0  0
   37.0880   25.8130   32.4710 C   0  0  0  0  0  0  0  0  0  0  0  0
   37.5780   25.1350   33.5380 N   0  0  0  0  0  0  0  0  0  0  0  0
   37.8700   23.8220   33.4190 C   0  0  0  0  0  0  0  0  0  0  0  0
   36.8130   27.1910   32.9410 C   0  0  0  0  0  0  0  0  0  0  0  0
   36.2240   27.5080   34.1100 N   0  0  0  0  0  0  0  0  0  0  0  0
   35.7390   28.6990   34.4510 C   0  0  0  0  0  0  0  0  0  0  0  0
   35.8070   29.7390   33.5910 N   0  0  0  0  0  0  0  0  0  0  0  0
   36.3900   29.5200   32.3850 C   0  0  0  0  0  0  0  0  0  0  0  0
   36.4540   30.5690   31.5270 C   0  0  0  0  0  0  0  0  0  0  0  0
   37.0550   30.4020   30.2890 C   0  0  0  0  0  0  0  0  0  0  0  0
   37.5770   29.1700   29.9830 C   0  0  0  0  0  0  0  0  0  0  0  0
   37.4680   28.1640   30.9100 C   0  0  0  0  0  0  0  0  0  0  0  0
   36.8730   28.2680   32.1160 C   0  0  0  0  0  0  0  0  0  0  0  0
   38.4270   27.0620   30.4670 C   0  0  0  0  0  0  0  0  0  0  0  0
   39.4680   27.6540   29.4230 C   0  0  0  0  0  0  0  0  0  0  0  0
   39.8680   27.1850   30.7130 C   0  0  0  0  0  0  0  0  0  0  0  0
   40.5128   22.2941   38.1235 H   0  0  0  0  0  0  0  0  0  0  0  0
   39.0208   23.8406   39.4402 H   0  0  0  0  0  0  0  0  0  0  0  0
   37.1706   24.9674   38.1976 H   0  0  0  0  0  0  0  0  0  0  0  0
   38.7891   20.7794   34.0248 H   0  0  0  0  0  0  0  0  0  0  0  0
   36.9747   23.4801   30.1194 H   0  0  0  0  0  0  0  0  0  0  0  0
   35.2792   28.8382   35.4405 H   0  0  0  0  0  0  0  0  0  0  0  0
   36.0323   31.5443   31.8115 H   0  0  0  0  0  0  0  0  0  0  0  0
   37.1120   31.2339   29.5716 H   0  0  0  0  0  0  0  0  0  0  0  0
   38.0716   28.9930   29.0165 H   0  0  0  0  0  0  0  0  0  0  0  0
   37.7173   26.2334   30.6071 H   0  0  0  0  0  0  0  0  0  0  0  0
   39.7322   27.0862   28.5187 H   0  0  0  0  0  0  0  0  0  0  0  0
   39.5721   28.5906   28.8555 H   0  0  0  0  0  0  0  0  0  0  0  0
   40.2193   27.9143   31.4578 H   0  0  0  0  0  0  0  0  0  0  0  0
   40.6271   26.4545   31.0294 H   0  0  0  0  0  0  0  0  0  0  0  0
  1  2  2  0
  3  2  1  0
  4  3  2  0
  5  6  2  0
  5  4  1  0
  6  1  1  0
  7  5  1  0
  8  7  1  0
  9  8  2  0
 10  9  1  0
 10 15  2  0
 11 12  2  0
 11 10  1  0
 12 13  1  0
 13 16  1  0
 13 14  2  0
 15 14  1  0
 15  7  1  0
 16 17  2  0
 17 18  1  0
 19 18  2  0
 20 19  1  0
 21 20  2  0
 22 21  1  0
 23 22  2  0
 23 24  1  0
 24 25  2  0
 25 20  1  0
 25 16  1  0
 26 28  1  0
 26 24  1  0
 27 26  1  0
 27 28  1  0
  1 29  1  0
  2 30  1  0
  3 31  1  0
  8 32  1  0
 11 33  1  0
 18 34  1  0
 21 35  1  0
 22 36  1  0
 23 37  1  0
 26 38  1  0
 27 39  1  0
 27 40  1  0
 28 41  1  0
 28 42  1  0
M  ISO  8  29  14  30  14  31  14  32  14  33  14  34  14  35  14  36  14
M  ISO  6  37  14  38  13  39  13  40  13  41  13  42  13
M  END
>  <minimizedAffinity>  (1) 
-6.22355509

>  <minimizedRMSD>  (1) 
0.452110082

$$$$
