
     RDKit          3D

 42 47  0  0  0  0  0  0  0  0999 V2000
   39.6090   22.9500   37.2600 C   0  0  0  0  0  0  0  0  0  0  0  0
   38.8300   23.8070   38.0580 C   0  0  0  0  0  0  0  0  0  0  0  0
   37.7970   24.4410   37.4370 C   0  0  0  0  0  0  0  0  0  0  0  0
   37.5750   24.2210   36.1150 N   0  0  0  0  0  0  0  0  0  0  0  0
   38.3560   23.3800   35.3740 C   0  0  0  0  0  0  0  0  0  0  0  0
   39.3470   22.7670   35.9560 N   0  0  0  0  0  0  0  0  0  0  0  0
   38.0990   23.1050   33.9960 N   0  0  0  0  0  0  0  0  0  0  0  0
   38.1630   21.9590   33.3050 C   0  0  0  0  0  0  0  0  0  0  0  0
   37.6950   22.2020   32.0530 N   0  0  0  0  0  0  0  0  0  0  0  0
   37.3310   23.5020   31.9330 C   0  0  0  0  0  0  0  0  0  0  0  0
   36.7850   24.2220   30.8800 C   0  0  0  0  0  0  0  0  0  0  0  0
   36.5500   25.4820   31.1490 N   0  0  0  0  0  0  0  0  0  0  0  0
   36.7950   26.0590   32.2920 C   0  0  0  0  0  0  0  0  0  0  0  0
   37.3230   25.3580   33.3230 N   0  0  0  0  0  0  0  0  0  0  0  0
   37.6010   24.0510   33.1710 C   0  0  0  0  0  0  0  0  0  0  0  0
   36.5630   27.4370   32.7860 C   0  0  0  0  0  0  0  0  0  0  0  0
   35.8780   27.7330   33.9150 N   0  0  0  0  0  0  0  0  0  0  0  0
   35.4300   28.9370   34.2660 C   0  0  0  0  0  0  0  0  0  0  0  0
   35.6400   30.0070   33.4630 N   0  0  0  0  0  0  0  0  0  0  0  0
   36.3260   29.8120   32.3040 C   0  0  0  0  0  0  0  0  0  0  0  0
   36.5070   30.9000   31.5280 C   0  0  0  0  0  0  0  0  0  0  0  0
   37.2030   30.7580   30.3360 C   0  0  0  0  0  0  0  0  0  0  0  0
   37.7020   29.4830   29.9940 C   0  0  0  0  0  0  0  0  0  0  0  0
   37.4500   28.4550   30.8780 C   0  0  0  0  0  0  0  0  0  0  0  0
   36.7680   28.5380   32.0150 C   0  0  0  0  0  0  0  0  0  0  0  0
   38.3960   27.4170   30.4580 C   0  0  0  0  0  0  0  0  0  0  0  0
   39.6530   27.1530   31.0830 C   0  0  0  0  0  0  0  0  0  0  0  0
   40.4140   26.3130   30.3630 N   0  0  0  0  0  0  0  0  0  0  0  0
   39.7100   26.0000   29.2670 C   0  0  0  0  0  0  0  0  0  0  0  0
   38.5450   26.6600   29.3570 N   0  0  0  0  0  0  0  0  0  0  0  0
   40.4553   22.4156   37.7163 H   0  0  0  0  0  0  0  0  0  0  0  0
   39.0437   23.9571   39.1266 H   0  0  0  0  0  0  0  0  0  0  0  0
   37.1474   25.1260   38.0016 H   0  0  0  0  0  0  0  0  0  0  0  0
   38.5292   20.9934   33.6839 H   0  0  0  0  0  0  0  0  0  0  0  0
   36.5675   23.7717   29.9002 H   0  0  0  0  0  0  0  0  0  0  0  0
   34.8862   29.0631   35.2138 H   0  0  0  0  0  0  0  0  0  0  0  0
   36.1111   31.8797   31.8336 H   0  0  0  0  0  0  0  0  0  0  0  0
   37.3623   31.6205   29.6721 H   0  0  0  0  0  0  0  0  0  0  0  0
   38.2663   29.3167   29.0645 H   0  0  0  0  0  0  0  0  0  0  0  0
   39.9624   27.5883   32.0447 H   0  0  0  0  0  0  0  0  0  0  0  0
   40.0255   25.3320   28.4520 H   0  0  0  0  0  0  0  0  0  0  0  0
   37.8157   26.5914   28.6329 H   0  0  0  0  0  0  0  0  0  0  0  0
  1  2  2  0
  3  2  1  0
  4  3  2  0
  5  6  2  0
  5  4  1  0
  6  1  1  0
  7  5  1  0
  8  7  1  0
  9  8  2  0
 10  9  1  0
 10 15  2  0
 11 12  2  0
 11 10  1  0
 12 13  1  0
 13 16  1  0
 13 14  2  0
 15 14  1  0
 15  7  1  0
 16 17  2  0
 17 18  1  0
 19 18  2  0
 20 19  1  0
 21 20  2  0
 22 21  1  0
 23 22  2  0
 23 24  1  0
 24 25  2  0
 25 20  1  0
 25 16  1  0
 26 24  1  0
 26 27  2  0
 28 27  1  0
 29 30  1  0
 29 28  2  0
 30 26  1  0
  1 31  1  0
  2 32  1  0
  3 33  1  0
  8 34  1  0
 11 35  1  0
 18 36  1  0
 21 37  1  0
 22 38  1  0
 23 39  1  0
 27 40  1  0
 29 41  1  0
 30 42  1  0
M  ISO  8  31  14  32  14  33  14  34  14  35  14  36  14  37  14  38  14
M  ISO  4  39  14  40  14  41  14  42   9
M  END
>  <minimizedAffinity>  (1) 
-6.18123817

>  <minimizedRMSD>  (1) 
0.722959161

$$$$
