
     RDKit          3D

 42 47  0  0  0  0  0  0  0  0999 V2000
   39.6120   22.9620   37.6520 C   0  0  0  0  0  0  0  0  0  0  0  0
   38.7780   23.8360   38.3730 C   0  0  0  0  0  0  0  0  0  0  0  0
   37.7700   24.4250   37.6720 C   0  0  0  0  0  0  0  0  0  0  0  0
   37.6270   24.1450   36.3550 N   0  0  0  0  0  0  0  0  0  0  0  0
   38.4570   23.2870   35.6880 C   0  0  0  0  0  0  0  0  0  0  0  0
   39.4300   22.7140   36.3410 N   0  0  0  0  0  0  0  0  0  0  0  0
   38.2900   22.9580   34.3060 N   0  0  0  0  0  0  0  0  0  0  0  0
   38.4080   21.7880   33.6660 C   0  0  0  0  0  0  0  0  0  0  0  0
   38.0150   21.9780   32.3780 N   0  0  0  0  0  0  0  0  0  0  0  0
   37.6460   23.2670   32.1870 C   0  0  0  0  0  0  0  0  0  0  0  0
   37.1570   23.9400   31.0730 C   0  0  0  0  0  0  0  0  0  0  0  0
   36.8930   25.2060   31.2800 N   0  0  0  0  0  0  0  0  0  0  0  0
   37.0640   25.8300   32.4180 C   0  0  0  0  0  0  0  0  0  0  0  0
   37.5370   25.1800   33.5120 N   0  0  0  0  0  0  0  0  0  0  0  0
   37.8360   23.8630   33.4180 C   0  0  0  0  0  0  0  0  0  0  0  0
   36.7700   27.2180   32.8510 C   0  0  0  0  0  0  0  0  0  0  0  0
   36.0130   27.5330   33.9260 N   0  0  0  0  0  0  0  0  0  0  0  0
   35.4890   28.7290   34.2010 C   0  0  0  0  0  0  0  0  0  0  0  0
   35.6930   29.7710   33.3610 N   0  0  0  0  0  0  0  0  0  0  0  0
   36.4460   29.5560   32.2530 C   0  0  0  0  0  0  0  0  0  0  0  0
   36.6180   30.6130   31.4270 C   0  0  0  0  0  0  0  0  0  0  0  0
   37.3800   30.4500   30.2790 C   0  0  0  0  0  0  0  0  0  0  0  0
   37.9560   29.1880   30.0270 C   0  0  0  0  0  0  0  0  0  0  0  0
   37.7130   28.1920   30.9420 C   0  0  0  0  0  0  0  0  0  0  0  0
   36.9700   28.2890   32.0390 C   0  0  0  0  0  0  0  0  0  0  0  0
   38.8140   27.1820   30.7260 C   0  0  0  0  0  0  0  0  0  0  0  0
   39.1220   26.5580   29.5050 C   0  0  0  0  0  0  0  0  0  0  0  0
   40.1750   25.6860   29.6140 C   0  0  0  0  0  0  0  0  0  0  0  0
   40.5070   25.7910   30.9360 C   0  0  0  0  0  0  0  0  0  0  0  0
   39.7350   26.6190   31.5060 O   0  0  0  0  0  0  0  0  0  0  0  0
   40.4408   22.4644   38.1769 H   0  0  0  0  0  0  0  0  0  0  0  0
   38.9317   24.0328   39.4443 H   0  0  0  0  0  0  0  0  0  0  0  0
   37.0792   25.1209   38.1704 H   0  0  0  0  0  0  0  0  0  0  0  0
   38.7599   20.8422   34.1037 H   0  0  0  0  0  0  0  0  0  0  0  0
   37.0047   23.4504   30.0998 H   0  0  0  0  0  0  0  0  0  0  0  0
   34.8896   28.8687   35.1127 H   0  0  0  0  0  0  0  0  0  0  0  0
   36.1613   31.5859   31.6614 H   0  0  0  0  0  0  0  0  0  0  0  0
   37.5313   31.2867   29.5811 H   0  0  0  0  0  0  0  0  0  0  0  0
   38.5742   29.0082   29.1351 H   0  0  0  0  0  0  0  0  0  0  0  0
   38.5794   26.7477   28.5671 H   0  0  0  0  0  0  0  0  0  0  0  0
   40.6357   25.0606   28.8351 H   0  0  0  0  0  0  0  0  0  0  0  0
   41.3209   25.2403   31.4302 H   0  0  0  0  0  0  0  0  0  0  0  0
  1  2  2  0
  3  2  1  0
  4  3  2  0
  5  6  2  0
  5  4  1  0
  6  1  1  0
  7  5  1  0
  8  7  1  0
  9  8  2  0
 10  9  1  0
 10 15  2  0
 11 12  2  0
 11 10  1  0
 12 13  1  0
 13 16  1  0
 13 14  2  0
 15 14  1  0
 15  7  1  0
 16 17  2  0
 17 18  1  0
 19 18  2  0
 20 19  1  0
 21 20  2  0
 22 21  1  0
 23 22  2  0
 23 24  1  0
 24 25  2  0
 25 20  1  0
 25 16  1  0
 26 24  1  0
 26 30  1  0
 27 28  1  0
 27 26  2  0
 28 29  2  0
 29 30  1  0
  1 31  1  0
  2 32  1  0
  3 33  1  0
  8 34  1  0
 11 35  1  0
 18 36  1  0
 21 37  1  0
 22 38  1  0
 23 39  1  0
 27 40  1  0
 28 41  1  0
 29 42  1  0
M  ISO  8  31  14  32  14  33  14  34  14  35  14  36  14  37  14  38  14
M  ISO  4  39  14  40  14  41  14  42  14
M  END
>  <minimizedAffinity>  (1) 
-5.8896265

>  <minimizedRMSD>  (1) 
0.570280433

$$$$
