
     RDKit          3D

 42 47  0  0  0  0  0  0  0  0999 V2000
   39.1440   23.2730   38.5710 C   0  0  0  0  0  0  0  0  0  0  0  0
   37.7420   23.2720   38.5110 C   0  0  0  0  0  0  0  0  0  0  0  0
   37.1910   23.0200   37.2960 C   0  0  0  0  0  0  0  0  0  0  0  0
   38.0030   22.7920   36.2380 N   0  0  0  0  0  0  0  0  0  0  0  0
   39.3640   22.7980   36.3260 C   0  0  0  0  0  0  0  0  0  0  0  0
   39.9040   23.0380   37.4870 N   0  0  0  0  0  0  0  0  0  0  0  0
   40.2110   22.5100   35.2250 N   0  0  0  0  0  0  0  0  0  0  0  0
   41.3510   21.7990   35.1540 C   0  0  0  0  0  0  0  0  0  0  0  0
   41.7030   21.7050   33.8440 N   0  0  0  0  0  0  0  0  0  0  0  0
   40.8030   22.3500   33.0690 C   0  0  0  0  0  0  0  0  0  0  0  0
   40.7100   22.5170   31.6980 C   0  0  0  0  0  0  0  0  0  0  0  0
   39.6650   23.2090   31.3070 N   0  0  0  0  0  0  0  0  0  0  0  0
   38.7670   23.7180   32.0920 C   0  0  0  0  0  0  0  0  0  0  0  0
   38.8550   23.5490   33.4340 N   0  0  0  0  0  0  0  0  0  0  0  0
   39.8780   22.8520   33.9610 C   0  0  0  0  0  0  0  0  0  0  0  0
   37.5290   24.4770   31.8280 C   0  0  0  0  0  0  0  0  0  0  0  0
   36.2990   23.9270   31.7080 N   0  0  0  0  0  0  0  0  0  0  0  0
   35.2040   24.5410   31.2740 C   0  0  0  0  0  0  0  0  0  0  0  0
   35.2500   25.8410   30.8960 N   0  0  0  0  0  0  0  0  0  0  0  0
   36.4450   26.4860   30.9860 C   0  0  0  0  0  0  0  0  0  0  0  0
   36.4430   27.7840   30.6290 C   0  0  0  0  0  0  0  0  0  0  0  0
   37.6160   28.5120   30.7390 C   0  0  0  0  0  0  0  0  0  0  0  0
   38.7580   27.8580   31.2290 C   0  0  0  0  0  0  0  0  0  0  0  0
   38.6370   26.5270   31.5630 C   0  0  0  0  0  0  0  0  0  0  0  0
   37.5270   25.7810   31.4530 C   0  0  0  0  0  0  0  0  0  0  0  0
   39.8360   26.2970   32.3270 N   0  0  0  0  0  0  0  0  0  0  0  0
   39.8440   26.5360   33.7000 C   0  0  0  0  0  0  0  0  0  0  0  0
   41.1680   26.3410   34.0640 C   0  0  0  0  0  0  0  0  0  0  0  0
   41.9260   26.0090   33.0160 N   0  0  0  0  0  0  0  0  0  0  0  0
   41.1200   25.9730   31.9120 C   0  0  0  0  0  0  0  0  0  0  0  0
   39.6363   23.4721   39.5343 H   0  0  0  0  0  0  0  0  0  0  0  0
   37.1232   23.4648   39.3998 H   0  0  0  0  0  0  0  0  0  0  0  0
   36.0980   23.0014   37.1733 H   0  0  0  0  0  0  0  0  0  0  0  0
   41.9007   21.3699   36.0047 H   0  0  0  0  0  0  0  0  0  0  0  0
   41.4492   22.1047   30.9954 H   0  0  0  0  0  0  0  0  0  0  0  0
   34.2534   23.9901   31.2212 H   0  0  0  0  0  0  0  0  0  0  0  0
   35.5238   28.2591   30.2557 H   0  0  0  0  0  0  0  0  0  0  0  0
   37.6521   29.5729   30.4506 H   0  0  0  0  0  0  0  0  0  0  0  0
   39.7145   28.3893   31.3420 H   0  0  0  0  0  0  0  0  0  0  0  0
   38.9974   26.8144   34.3448 H   0  0  0  0  0  0  0  0  0  0  0  0
   41.5475   26.4469   35.0910 H   0  0  0  0  0  0  0  0  0  0  0  0
   41.4317   25.7319   30.8850 H   0  0  0  0  0  0  0  0  0  0  0  0
  2  1  2  0
  3  2  1  0
  4  5  1  0
  4  3  2  0
  5  6  2  0
  6  1  1  0
  7  5  1  0
  8  7  1  0
  9  8  2  0
 10  9  1  0
 10 15  2  0
 11 10  1  0
 12 11  2  0
 12 13  1  0
 13 14  2  0
 14 15  1  0
 15  7  1  0
 16 13  1  0
 17 16  2  0
 18 17  1  0
 19 20  1  0
 19 18  2  0
 20 25  2  0
 21 22  2  0
 21 20  1  0
 22 23  1  0
 23 24  2  0
 24 26  1  0
 25 24  1  0
 25 16  1  0
 26 27  1  0
 27 28  2  0
 29 28  1  0
 30 26  1  0
 30 29  2  0
  1 31  1  0
  2 32  1  0
  3 33  1  0
  8 34  1  0
 11 35  1  0
 18 36  1  0
 21 37  1  0
 22 38  1  0
 23 39  1  0
 27 40  1  0
 28 41  1  0
 30 42  1  0
M  ISO  8  31  14  32  14  33  14  34  14  35  14  36  14  37  14  38  14
M  ISO  4  39  14  40  14  41  14  42  14
M  END
>  <minimizedAffinity>  (1) 
-5.75261116

>  <minimizedRMSD>  (1) 
2.98234797

$$$$
