
     RDKit          3D

 33 35  0  0  0  0  0  0  0  0999 V2000
   39.0900   25.3820   34.7490 N   0  0  0  0  0  0  0  0  0  0  0  0
   40.0980   25.3800   33.8450 C   0  0  0  0  0  0  0  0  0  0  0  0
   40.0310   26.2490   32.7470 C   0  0  0  0  0  0  0  0  0  0  0  0
   38.9150   27.0670   32.6600 C   0  0  0  0  0  0  0  0  0  0  0  0
   38.7930   27.8590   31.7140 O   0  0  0  0  0  0  0  0  0  0  0  0
   37.9320   27.0460   33.5710 N   0  0  0  0  0  0  0  0  0  0  0  0
   38.0320   26.1970   34.6120 C   0  0  0  0  0  0  0  0  0  0  0  0
   37.1360   26.1410   35.4910 O   0  0  0  0  0  0  0  0  0  0  0  0
   38.3570   24.5810   36.8350 C   0  0  0  0  0  0  0  0  0  0  0  0
   39.2860   24.4730   35.7830 C   0  0  0  0  0  0  0  0  0  0  0  0
   40.2580   23.4950   35.9110 C   0  0  0  0  0  0  0  0  0  0  0  0
   40.2760   22.7050   37.0090 N   0  0  0  0  0  0  0  0  0  0  0  0
   39.3660   22.8400   37.9950 C   0  0  0  0  0  0  0  0  0  0  0  0
   38.3990   23.7810   37.9140 N   0  0  0  0  0  0  0  0  0  0  0  0
   34.4530   29.2730   32.9290 C   0  0  0  0  0  0  0  0  0  0  0  0
   35.2110   29.5630   34.0490 C   0  0  0  0  0  0  0  0  0  0  0  0
   36.3800   28.8790   34.3450 C   0  0  0  0  0  0  0  0  0  0  0  0
   36.7810   27.8840   33.4870 C   0  0  0  0  0  0  0  0  0  0  0  0
   36.0340   27.5850   32.3660 C   0  0  0  0  0  0  0  0  0  0  0  0
   34.8640   28.2640   32.0610 C   0  0  0  0  0  0  0  0  0  0  0  0
   32.9830   30.1640   32.5940 S   0  0  0  0  0  0  0  0  0  0  0  0
   31.8320   29.2290   32.9400 O   0  0  0  0  0  0  0  0  0  0  0  0
   32.9120   31.3480   33.5060 O   0  0  0  0  0  0  0  0  0  0  0  0
   40.9579   24.7056   33.9704 H   0  0  0  0  0  0  0  0  0  0  0  0
   40.8276   26.2804   31.9890 H   0  0  0  0  0  0  0  0  0  0  0  0
   37.5696   25.3465   36.7717 H   0  0  0  0  0  0  0  0  0  0  0  0
   41.0130   23.3609   35.1224 H   0  0  0  0  0  0  0  0  0  0  0  0
   39.4110   22.1786   38.8728 H   0  0  0  0  0  0  0  0  0  0  0  0
   34.8756   30.3620   34.7266 H   0  0  0  0  0  0  0  0  0  0  0  0
   36.9691   29.1258   35.2406 H   0  0  0  0  0  0  0  0  0  0  0  0
   36.3768   26.7842   31.6943 H   0  0  0  0  0  0  0  0  0  0  0  0
   34.2797   28.0141   31.1632 H   0  0  0  0  0  0  0  0  0  0  0  0
   32.9373   30.5842   31.2908 H   0  0  0  0  0  0  0  0  0  0  0  0
  1 10  1  0
  2  1  1  0
  3  2  2  0
  4  3  1  0
  4  6  1  0
  5  4  2  0
  6  7  1  0
  7  1  1  0
  7  8  2  0
  9 14  2  0
 10 11  2  0
 10  9  1  0
 11 12  1  0
 12 13  2  0
 14 13  1  0
 15 16  2  0
 16 17  1  0
 18  6  1  0
 18 17  2  0
 19 18  1  0
 20 19  2  0
 20 15  1  0
 21 15  1  0
 21 22  2  0
 21 23  2  0
  2 24  1  0
  3 25  1  0
  9 26  1  0
 11 27  1  0
 13 28  1  0
 16 29  1  0
 17 30  1  0
 19 31  1  0
 20 32  1  0
 21 33  1  0
M  ISO  8  24  14  25  14  26  14  27  14  28  14  29  14  30  14  31  14
M  ISO  2  32  14  33  11
M  END
>  <minimizedAffinity>  (1) 
-4.7456336

>  <minimizedRMSD>  (1) 
3.6755476

$$$$
