
     RDKit          3D

 34 37  0  0  0  0  0  0  0  0999 V2000
   41.7540   24.0910   35.2590 N   0  0  0  0  0  0  0  0  0  0  0  0
   42.8630   24.7910   34.9650 C   0  0  0  0  0  0  0  0  0  0  0  0
   42.7600   26.0780   34.4360 C   0  0  0  0  0  0  0  0  0  0  0  0
   41.4840   26.5660   34.2420 C   0  0  0  0  0  0  0  0  0  0  0  0
   41.2950   27.6960   33.7770 O   0  0  0  0  0  0  0  0  0  0  0  0
   40.3860   25.8580   34.5380 N   0  0  0  0  0  0  0  0  0  0  0  0
   40.5110   24.6040   35.0530 C   0  0  0  0  0  0  0  0  0  0  0  0
   39.5200   23.9070   35.3460 O   0  0  0  0  0  0  0  0  0  0  0  0
   39.0430   26.3000   34.3640 C   0  0  0  0  0  0  0  0  0  0  0  0
   38.1300   26.9980   35.1470 C   0  0  0  0  0  0  0  0  0  0  0  0
   36.9760   27.1240   34.4270 N   0  0  0  0  0  0  0  0  0  0  0  0
   37.1370   26.5320   33.2320 C   0  0  0  0  0  0  0  0  0  0  0  0
   36.2340   26.4120   32.1780 C   0  0  0  0  0  0  0  0  0  0  0  0
   36.6030   25.7550   31.0150 C   0  0  0  0  0  0  0  0  0  0  0  0
   37.8920   25.2180   30.9240 C   0  0  0  0  0  0  0  0  0  0  0  0
   38.7470   25.3550   31.9780 C   0  0  0  0  0  0  0  0  0  0  0  0
   38.4170   26.0060   33.1590 C   0  0  0  0  0  0  0  0  0  0  0  0
   41.5290   22.6190   37.0880 C   0  0  0  0  0  0  0  0  0  0  0  0
   42.0040   22.8140   35.7820 C   0  0  0  0  0  0  0  0  0  0  0  0
   42.6590   21.7520   35.1530 C   0  0  0  0  0  0  0  0  0  0  0  0
   42.8020   20.5850   35.8380 N   0  0  0  0  0  0  0  0  0  0  0  0
   42.3360   20.4320   37.0830 C   0  0  0  0  0  0  0  0  0  0  0  0
   41.7040   21.4370   37.7090 N   0  0  0  0  0  0  0  0  0  0  0  0
   43.8543   24.3482   35.1419 H   0  0  0  0  0  0  0  0  0  0  0  0
   43.6507   26.6733   34.1863 H   0  0  0  0  0  0  0  0  0  0  0  0
   38.3055   27.3800   36.1635 H   0  0  0  0  0  0  0  0  0  0  0  0
   36.1196   27.5972   34.7489 H   0  0  0  0  0  0  0  0  0  0  0  0
   35.2248   26.8401   32.2692 H   0  0  0  0  0  0  0  0  0  0  0  0
   35.8954   25.6574   30.1785 H   0  0  0  0  0  0  0  0  0  0  0  0
   38.2121   24.6914   30.0129 H   0  0  0  0  0  0  0  0  0  0  0  0
   39.7554   24.9252   31.8870 H   0  0  0  0  0  0  0  0  0  0  0  0
   41.0100   23.4376   37.6082 H   0  0  0  0  0  0  0  0  0  0  0  0
   43.0492   21.8567   34.1299 H   0  0  0  0  0  0  0  0  0  0  0  0
   42.4726   19.4706   37.5998 H   0  0  0  0  0  0  0  0  0  0  0  0
  1 19  1  0
  2  1  1  0
  3  2  2  0
  4  3  1  0
  4  6  1  0
  5  4  2  0
  6  7  1  0
  7  1  1  0
  7  8  2  0
  9  6  1  0
  9 10  2  0
 11 10  1  0
 12 11  1  0
 13 12  2  0
 14 13  1  0
 15 14  2  0
 15 16  1  0
 16 17  2  0
 17 12  1  0
 17  9  1  0
 18 23  2  0
 19 18  1  0
 20 19  2  0
 20 21  1  0
 21 22  2  0
 22 23  1  0
  2 24  1  0
  3 25  1  0
 10 26  1  0
 11 27  1  0
 13 28  1  0
 14 29  1  0
 15 30  1  0
 16 31  1  0
 18 32  1  0
 20 33  1  0
 22 34  1  0
M  ISO  8  24  14  25  14  26  14  27   9  28  14  29  14  30  14  31  14
M  ISO  3  32  14  33  14  34  14
M  END
>  <minimizedAffinity>  (1) 
-4.37187243

>  <minimizedRMSD>  (1) 
3.33824468

$$$$
