
     RDKit          3D

 51 54  0  0  0  0  0  0  0  0999 V2000
   37.2490   22.5700   37.1340 C   0  0  0  0  0  0  0  0  0  0  0  0
   36.9600   21.9100   35.8670 C   0  0  0  0  0  0  0  0  0  0  0  0
   35.8610   21.1590   35.6440 C   0  0  0  0  0  0  0  0  0  0  0  0
   35.5950   20.5490   34.4620 C   0  0  0  0  0  0  0  0  0  0  0  0
   36.6010   20.7870   33.4740 C   0  0  0  0  0  0  0  0  0  0  0  0
   37.8760   21.8800   34.3270 S   0  0  0  0  0  0  0  0  0  0  0  0
   36.7760   20.3990   32.1160 C   0  0  0  0  0  0  0  0  0  0  0  0
   35.8680   19.6720   31.4060 C   0  0  0  0  0  0  0  0  0  0  0  0
   36.7100   19.4950   29.7210 S   0  0  0  0  0  0  0  0  0  0  0  0
   38.1610   20.4860   30.3730 C   0  0  0  0  0  0  0  0  0  0  0  0
   37.8080   20.6780   31.4090 N   0  0  0  0  0  0  0  0  0  0  0  0
   39.3240   20.7490   29.4310 C   0  0  0  0  0  0  0  0  0  0  0  0
   39.1770   20.0490   28.1260 C   0  0  0  0  0  0  0  0  0  0  0  0
   39.4720   20.9360   26.9390 C   0  0  0  0  0  0  0  0  0  0  0  0
   40.7620   21.7020   27.1810 C   0  0  0  0  0  0  0  0  0  0  0  0
   40.6420   22.5510   28.4160 C   0  0  0  0  0  0  0  0  0  0  0  0
   39.3830   22.2350   29.2010 C   0  0  0  0  0  0  0  0  0  0  0  0
   38.1470   23.7660   37.0300 C   0  0  0  0  0  0  0  0  0  0  0  0
   41.4360   21.9850   37.2360 C   0  0  0  0  0  0  0  0  0  0  0  0
   40.1290   22.3310   37.5270 C   0  0  0  0  0  0  0  0  0  0  0  0
   39.5130   23.3540   36.7850 C   0  0  0  0  0  0  0  0  0  0  0  0
   40.2510   23.9540   35.8100 N   0  0  0  0  0  0  0  0  0  0  0  0
   41.5220   23.5980   35.5490 C   0  0  0  0  0  0  0  0  0  0  0  0
   42.1070   22.6140   36.2660 N   0  0  0  0  0  0  0  0  0  0  0  0
   38.1120   24.5000   38.3700 C   0  0  0  0  0  0  0  0  0  0  0  0
   37.5670   24.6400   35.9410 C   0  0  0  0  0  0  0  0  0  0  0  0
   36.2955   22.8955   37.5755 H   0  0  0  0  0  0  0  0  0  0  0  0
   37.7845   21.8337   37.7513 H   0  0  0  0  0  0  0  0  0  0  0  0
   35.1411   21.0347   36.4664 H   0  0  0  0  0  0  0  0  0  0  0  0
   34.6996   19.9358   34.2824 H   0  0  0  0  0  0  0  0  0  0  0  0
   34.8909   19.2852   31.7310 H   0  0  0  0  0  0  0  0  0  0  0  0
   40.2469   20.3641   29.8895 H   0  0  0  0  0  0  0  0  0  0  0  0
   39.8714   19.1961   28.1064 H   0  0  0  0  0  0  0  0  0  0  0  0
   38.1278   19.7291   28.0427 H   0  0  0  0  0  0  0  0  0  0  0  0
   38.6448   21.6475   26.7995 H   0  0  0  0  0  0  0  0  0  0  0  0
   39.5804   20.3148   26.0377 H   0  0  0  0  0  0  0  0  0  0  0  0
   41.5888   20.9882   27.3105 H   0  0  0  0  0  0  0  0  0  0  0  0
   40.9581   22.3538   26.3169 H   0  0  0  0  0  0  0  0  0  0  0  0
   41.5163   22.3695   29.0584 H   0  0  0  0  0  0  0  0  0  0  0  0
   40.5918   23.6039   28.1017 H   0  0  0  0  0  0  0  0  0  0  0  0
   39.4070   22.7594   30.1677 H   0  0  0  0  0  0  0  0  0  0  0  0
   38.4963   22.5650   28.6400 H   0  0  0  0  0  0  0  0  0  0  0  0
   41.9280   21.1847   37.8082 H   0  0  0  0  0  0  0  0  0  0  0  0
   39.5795   21.8135   38.3272 H   0  0  0  0  0  0  0  0  0  0  0  0
   42.0841   24.1077   34.7526 H   0  0  0  0  0  0  0  0  0  0  0  0
   38.1469   23.7678   39.1902 H   0  0  0  0  0  0  0  0  0  0  0  0
   38.9791   25.1730   38.4422 H   0  0  0  0  0  0  0  0  0  0  0  0
   37.1848   25.0875   38.4422 H   0  0  0  0  0  0  0  0  0  0  0  0
   37.0133   25.4743   36.3964 H   0  0  0  0  0  0  0  0  0  0  0  0
   38.3812   25.0374   35.3172 H   0  0  0  0  0  0  0  0  0  0  0  0
   36.8845   24.0441   35.3172 H   0  0  0  0  0  0  0  0  0  0  0  0
  2  1  1  0
  3  2  2  0
  4  3  1  0
  5  6  1  0
  5  4  2  0
  6  2  1  0
  7  5  1  0
  8  7  2  0
  9 10  1  0
  9  8  1  0
 10 11  2  0
 11  7  1  0
 12 10  1  0
 13 12  1  0
 14 15  1  0
 14 13  1  0
 15 16  1  0
 16 17  1  0
 17 12  1  0
 18  1  1  0
 18 25  1  0
 19 20  2  0
 21 18  1  0
 21 20  1  0
 22 21  2  0
 23 22  1  0
 23 24  2  0
 24 19  1  0
 26 18  1  0
  1 27  1  0
  1 28  1  0
  3 29  1  0
  4 30  1  0
  8 31  1  0
 12 32  1  0
 13 33  1  0
 13 34  1  0
 14 35  1  0
 14 36  1  0
 15 37  1  0
 15 38  1  0
 16 39  1  0
 16 40  1  0
 17 41  1  0
 17 42  1  0
 19 43  1  0
 20 44  1  0
 23 45  1  0
 25 46  1  0
 25 47  1  0
 25 48  1  0
 26 49  1  0
 26 50  1  0
 26 51  1  0
M  ISO  8  27   8  28   8  29  14  30  14  31  14  32  13  33  13  34  13
M  ISO  8  35  13  36  13  37  13  38  13  39  13  40  13  41  13  42  13
M  ISO  8  43  14  44  14  45  14  46   8  47   8  48   8  49   8  50   8
M  ISO  1  51   8
M  END
>  <minimizedAffinity>  (1) 
-4.77440357

>  <minimizedRMSD>  (1) 
0.361829072

$$$$
