
     RDKit          3D

 26 28  0  0  0  0  0  0  0  0999 V2000
   42.8150   24.7560   35.4450 N   0  0  0  0  0  0  0  0  0  0  0  0
   42.7370   25.9080   34.7700 C   0  0  0  0  0  0  0  0  0  0  0  0
   41.5140   26.3780   34.3010 C   0  0  0  0  0  0  0  0  0  0  0  0
   40.4120   25.5840   34.5790 C   0  0  0  0  0  0  0  0  0  0  0  0
   39.2770   25.9060   34.2090 O   0  0  0  0  0  0  0  0  0  0  0  0
   40.5030   24.4320   35.2570 N   0  0  0  0  0  0  0  0  0  0  0  0
   41.7110   24.0080   35.6970 C   0  0  0  0  0  0  0  0  0  0  0  0
   41.8550   22.9430   36.3330 O   0  0  0  0  0  0  0  0  0  0  0  0
   44.5080   25.0160   37.0730 C   0  0  0  0  0  0  0  0  0  0  0  0
   44.1210   24.4220   35.8500 C   0  0  0  0  0  0  0  0  0  0  0  0
   45.0300   23.6020   35.1970 C   0  0  0  0  0  0  0  0  0  0  0  0
   46.2470   23.4020   35.7520 N   0  0  0  0  0  0  0  0  0  0  0  0
   46.6000   23.9740   36.9150 C   0  0  0  0  0  0  0  0  0  0  0  0
   45.7420   24.7700   37.5680 N   0  0  0  0  0  0  0  0  0  0  0  0
   39.3480   23.6140   35.5400 C   0  0  0  0  0  0  0  0  0  0  0  0
   38.7910   23.9950   36.7550 C   0  0  0  0  0  0  0  0  0  0  0  0
   37.3400   22.8560   36.9550 S   0  0  0  0  0  0  0  0  0  0  0  0
   37.7820   22.0390   35.2770 C   0  0  0  0  0  0  0  0  0  0  0  0
   38.6890   22.6220   34.9730 N   0  0  0  0  0  0  0  0  0  0  0  0
   43.6508   26.4911   34.5833 H   0  0  0  0  0  0  0  0  0  0  0  0
   41.4269   27.3223   33.7435 H   0  0  0  0  0  0  0  0  0  0  0  0
   43.8121   25.6719   37.6166 H   0  0  0  0  0  0  0  0  0  0  0  0
   44.7651   23.1223   34.2432 H   0  0  0  0  0  0  0  0  0  0  0  0
   47.5998   23.7879   37.3342 H   0  0  0  0  0  0  0  0  0  0  0  0
   39.1310   24.7870   37.4385 H   0  0  0  0  0  0  0  0  0  0  0  0
   37.2776   21.2148   34.7514 H   0  0  0  0  0  0  0  0  0  0  0  0
  1  7  1  0
  1 10  1  0
  2  1  1  0
  3  4  1  0
  3  2  2  0
  4  6  1  0
  5  4  2  0
  6 15  1  0
  6  7  1  0
  7  8  2  0
  9 14  2  0
 10  9  1  0
 11 12  1  0
 11 10  2  0
 12 13  2  0
 13 14  1  0
 15 16  2  0
 16 17  1  0
 18 17  1  0
 19 18  2  0
 19 15  1  0
  2 20  1  0
  3 21  1  0
  9 22  1  0
 11 23  1  0
 13 24  1  0
 16 25  1  0
 18 26  1  0
M  ISO  7  20  14  21  14  22  14  23  14  24  14  25  14  26  14
M  END
>  <minimizedAffinity>  (1) 
-3.73799324

>  <minimizedRMSD>  (1) 
4.07519627

$$$$
