
     RDKit          3D

 30 32  0  0  0  0  0  0  0  0999 V2000
   39.9550   26.2880   33.4720 N   0  0  0  0  0  0  0  0  0  0  0  0
   41.2480   26.5810   33.5050 C   0  0  0  0  0  0  0  0  0  0  0  0
   41.8250   27.3410   32.4840 C   0  0  0  0  0  0  0  0  0  0  0  0
   40.9930   27.7620   31.4630 C   0  0  0  0  0  0  0  0  0  0  0  0
   41.4180   28.4380   30.5220 O   0  0  0  0  0  0  0  0  0  0  0  0
   39.6800   27.4610   31.4390 N   0  0  0  0  0  0  0  0  0  0  0  0
   39.1620   26.7230   32.4450 C   0  0  0  0  0  0  0  0  0  0  0  0
   37.9380   26.4130   32.4700 O   0  0  0  0  0  0  0  0  0  0  0  0
   38.7720   27.8610   30.4220 C   0  0  0  0  0  0  0  0  0  0  0  0
   38.8940   28.3440   29.1480 C   0  0  0  0  0  0  0  0  0  0  0  0
   37.6120   28.5390   28.6860 C   0  0  0  0  0  0  0  0  0  0  0  0
   36.7470   28.1830   29.6580 N   0  0  0  0  0  0  0  0  0  0  0  0
   37.4770   27.7780   30.6930 N   0  0  0  0  0  0  0  0  0  0  0  0
   38.8460   26.2520   35.5540 C   0  0  0  0  0  0  0  0  0  0  0  0
   39.4970   25.5220   34.5510 C   0  0  0  0  0  0  0  0  0  0  0  0
   39.6310   24.1340   34.7020 C   0  0  0  0  0  0  0  0  0  0  0  0
   39.1190   23.5610   35.8260 N   0  0  0  0  0  0  0  0  0  0  0  0
   38.5050   24.2850   36.7640 C   0  0  0  0  0  0  0  0  0  0  0  0
   38.3600   25.6290   36.6440 N   0  0  0  0  0  0  0  0  0  0  0  0
   37.9640   23.6260   37.9660 C   0  0  0  0  0  0  0  0  0  0  0  0
   37.4220   24.5430   38.8670 F   0  0  0  0  0  0  0  0  0  0  0  0
   38.9690   22.9530   38.6720 F   0  0  0  0  0  0  0  0  0  0  0  0
   36.9490   22.7450   37.6680 F   0  0  0  0  0  0  0  0  0  0  0  0
   41.8691   26.2242   34.3398 H   0  0  0  0  0  0  0  0  0  0  0  0
   42.8956   27.5936   32.4922 H   0  0  0  0  0  0  0  0  0  0  0  0
   39.8291   28.5377   28.6021 H   0  0  0  0  0  0  0  0  0  0  0  0
   37.3388   28.9210   27.6913 H   0  0  0  0  0  0  0  0  0  0  0  0
   35.7188   28.2181   29.6081 H   0  0  0  0  0  0  0  0  0  0  0  0
   38.7312   27.3411   35.4503 H   0  0  0  0  0  0  0  0  0  0  0  0
   40.1346   23.5267   33.9355 H   0  0  0  0  0  0  0  0  0  0  0  0
  1  2  1  0
  1 15  1  0
  3  2  2  0
  4  3  1  0
  5  4  2  0
  6  4  1  0
  6  7  1  0
  7  8  2  0
  7  1  1  0
  9 13  2  0
  9  6  1  0
 10  9  1  0
 11 10  2  0
 11 12  1  0
 12 13  1  0
 14 19  2  0
 15 16  2  0
 15 14  1  0
 16 17  1  0
 17 18  2  0
 18 20  1  0
 19 18  1  0
 20 22  1  0
 20 21  1  0
 23 20  1  0
  2 24  1  0
  3 25  1  0
 10 26  1  0
 11 27  1  0
 12 28  1  0
 14 29  1  0
 16 30  1  0
M  ISO  7  24  14  25  14  26  14  27  14  28   9  29  14  30  14
M  END
>  <minimizedAffinity>  (1) 
-5.36981344

>  <minimizedRMSD>  (1) 
1.62479103

$$$$
