
     RDKit          3D

 33 35  0  0  0  0  0  0  0  0999 V2000
   38.6880   24.6570   35.4710 N   0  0  0  0  0  0  0  0  0  0  0  0
   37.9330   23.9900   36.3350 C   0  0  0  0  0  0  0  0  0  0  0  0
   38.5270   23.0590   37.1970 C   0  0  0  0  0  0  0  0  0  0  0  0
   39.8940   22.8850   37.0950 C   0  0  0  0  0  0  0  0  0  0  0  0
   40.4940   22.0870   37.8140 O   0  0  0  0  0  0  0  0  0  0  0  0
   40.6470   23.5710   36.2110 N   0  0  0  0  0  0  0  0  0  0  0  0
   40.0360   24.4640   35.3940 C   0  0  0  0  0  0  0  0  0  0  0  0
   40.6920   25.1280   34.5530 O   0  0  0  0  0  0  0  0  0  0  0  0
   42.0480   23.4380   36.0600 C   0  0  0  0  0  0  0  0  0  0  0  0
   42.9910   22.5100   36.4240 C   0  0  0  0  0  0  0  0  0  0  0  0
   44.2040   22.9840   35.9650 C   0  0  0  0  0  0  0  0  0  0  0  0
   43.9970   24.1590   35.3440 N   0  0  0  0  0  0  0  0  0  0  0  0
   42.6890   24.4120   35.4140 N   0  0  0  0  0  0  0  0  0  0  0  0
   37.7020   26.7920   35.2690 C   0  0  0  0  0  0  0  0  0  0  0  0
   37.9870   25.5590   34.6620 C   0  0  0  0  0  0  0  0  0  0  0  0
   37.5570   25.3500   33.3420 C   0  0  0  0  0  0  0  0  0  0  0  0
   36.8860   26.3430   32.7070 N   0  0  0  0  0  0  0  0  0  0  0  0
   36.6310   27.5050   33.3140 C   0  0  0  0  0  0  0  0  0  0  0  0
   37.0280   27.7400   34.5790 N   0  0  0  0  0  0  0  0  0  0  0  0
   35.8840   28.5010   32.4880 C   0  0  0  0  0  0  0  0  0  0  0  0
   35.4360   29.6150   33.4340 C   0  0  0  0  0  0  0  0  0  0  0  0
   36.8480   24.1670   36.3740 H   0  0  0  0  0  0  0  0  0  0  0  0
   37.9299   22.4901   37.9249 H   0  0  0  0  0  0  0  0  0  0  0  0
   42.8153   21.5732   36.9732 H   0  0  0  0  0  0  0  0  0  0  0  0
   45.1764   22.4845   36.0868 H   0  0  0  0  0  0  0  0  0  0  0  0
   44.7126   24.7511   34.8988 H   0  0  0  0  0  0  0  0  0  0  0  0
   38.0256   26.9866   36.3021 H   0  0  0  0  0  0  0  0  0  0  0  0
   37.7608   24.3972   32.8315 H   0  0  0  0  0  0  0  0  0  0  0  0
   36.5391   28.9103   31.7048 H   0  0  0  0  0  0  0  0  0  0  0  0
   35.0201   28.0334   31.9930 H   0  0  0  0  0  0  0  0  0  0  0  0
   35.5680   29.2867   34.4755 H   0  0  0  0  0  0  0  0  0  0  0  0
   36.0421   30.5151   33.2536 H   0  0  0  0  0  0  0  0  0  0  0  0
   34.3755   29.8448   33.2536 H   0  0  0  0  0  0  0  0  0  0  0  0
  1  2  1  0
  2  3  2  0
  4  3  1  0
  4  5  2  0
  6  4  1  0
  7  1  1  0
  7  6  1  0
  8  7  2  0
  9  6  1  0
  9 10  1  0
 11 10  2  0
 12 13  1  0
 12 11  1  0
 13  9  2  0
 15 14  2  0
 15  1  1  0
 16 15  1  0
 17 18  1  0
 17 16  2  0
 18 19  2  0
 19 14  1  0
 20 18  1  0
 20 21  1  0
  2 22  1  0
  3 23  1  0
 10 24  1  0
 11 25  1  0
 12 26  1  0
 14 27  1  0
 16 28  1  0
 20 29  1  0
 20 30  1  0
 21 31  1  0
 21 32  1  0
 21 33  1  0
M  ISO  8  22  14  23  14  24  14  25  14  26   9  27  14  28  14  29   8
M  ISO  4  30   8  31   8  32   8  33   8
M  END
>  <minimizedAffinity>  (1) 
-5.02451944

>  <minimizedRMSD>  (1) 
6.51630259

$$$$
