
     RDKit          3D

 30 32  0  0  0  0  0  0  0  0999 V2000
   39.9920   26.4400   33.3110 N   0  0  0  0  0  0  0  0  0  0  0  0
   41.2820   26.7300   33.4090 C   0  0  0  0  0  0  0  0  0  0  0  0
   41.9010   27.4830   32.4100 C   0  0  0  0  0  0  0  0  0  0  0  0
   41.1220   27.8920   31.3500 C   0  0  0  0  0  0  0  0  0  0  0  0
   41.5880   28.5570   30.4280 O   0  0  0  0  0  0  0  0  0  0  0  0
   39.8200   27.5940   31.2600 N   0  0  0  0  0  0  0  0  0  0  0  0
   39.2380   26.8590   32.2480 C   0  0  0  0  0  0  0  0  0  0  0  0
   38.0230   26.5500   32.2180 O   0  0  0  0  0  0  0  0  0  0  0  0
   38.9620   27.9830   30.1990 C   0  0  0  0  0  0  0  0  0  0  0  0
   39.1350   28.4300   28.9090 C   0  0  0  0  0  0  0  0  0  0  0  0
   37.8670   28.6330   28.4060 C   0  0  0  0  0  0  0  0  0  0  0  0
   36.9610   28.3220   29.3530 N   0  0  0  0  0  0  0  0  0  0  0  0
   37.6480   27.9310   30.4290 N   0  0  0  0  0  0  0  0  0  0  0  0
   38.9160   26.4290   35.4050 C   0  0  0  0  0  0  0  0  0  0  0  0
   39.4800   25.6840   34.3670 C   0  0  0  0  0  0  0  0  0  0  0  0
   39.4710   24.3000   34.4940 C   0  0  0  0  0  0  0  0  0  0  0  0
   38.9300   23.7230   35.5930 N   0  0  0  0  0  0  0  0  0  0  0  0
   38.3960   24.4800   36.5710 C   0  0  0  0  0  0  0  0  0  0  0  0
   38.3830   25.8230   36.4900 N   0  0  0  0  0  0  0  0  0  0  0  0
   37.8090   23.8670   37.7610 C   0  0  0  0  0  0  0  0  0  0  0  0
   37.7660   24.4600   38.8710 O   0  0  0  0  0  0  0  0  0  0  0  0
   37.2620   22.5910   37.7410 O   0  0  0  0  0  0  0  0  0  0  0  0
   41.8625   26.3784   34.2747 H   0  0  0  0  0  0  0  0  0  0  0  0
   42.9691   27.7398   32.4669 H   0  0  0  0  0  0  0  0  0  0  0  0
   40.0891   28.5922   28.3862 H   0  0  0  0  0  0  0  0  0  0  0  0
   37.6328   28.9917   27.3929 H   0  0  0  0  0  0  0  0  0  0  0  0
   35.9362   28.3755   29.2642 H   0  0  0  0  0  0  0  0  0  0  0  0
   38.9052   27.5270   35.3388 H   0  0  0  0  0  0  0  0  0  0  0  0
   39.9039   23.6727   33.7008 H   0  0  0  0  0  0  0  0  0  0  0  0
   36.8725   22.2064   38.5659 H   0  0  0  0  0  0  0  0  0  0  0  0
  1  2  1  0
  1 15  1  0
  3  2  2  0
  4  3  1  0
  5  4  2  0
  6  4  1  0
  6  7  1  0
  7  1  1  0
  8  7  2  0
  9 13  2  0
  9  6  1  0
 10  9  1  0
 11 10  2  0
 11 12  1  0
 12 13  1  0
 14 19  2  0
 15 16  2  0
 15 14  1  0
 16 17  1  0
 17 18  2  0
 18 20  1  0
 19 18  1  0
 20 21  2  0
 22 20  1  0
  2 23  1  0
  3 24  1  0
 10 25  1  0
 11 26  1  0
 12 27  1  0
 14 28  1  0
 16 29  1  0
 22 30  1  0
M  ISO  8  23  14  24  14  25  14  26  14  27   9  28  14  29  14  30   3
M  END
>  <minimizedAffinity>  (1) 
-4.98025179

>  <minimizedRMSD>  (1) 
1.87657094

$$$$
