
     RDKit          3D

 28 30  0  0  0  0  0  0  0  0999 V2000
   39.1180   25.4890   34.4600 N   0  0  0  0  0  0  0  0  0  0  0  0
   40.4290   25.6850   34.5100 C   0  0  0  0  0  0  0  0  0  0  0  0
   41.0460   26.4990   33.5530 C   0  0  0  0  0  0  0  0  0  0  0  0
   40.2300   27.0670   32.5830 C   0  0  0  0  0  0  0  0  0  0  0  0
   40.6970   27.7930   31.7080 O   0  0  0  0  0  0  0  0  0  0  0  0
   38.9120   26.8590   32.5460 N   0  0  0  0  0  0  0  0  0  0  0  0
   38.3350   26.0600   33.4930 C   0  0  0  0  0  0  0  0  0  0  0  0
   37.1100   25.8410   33.4960 O   0  0  0  0  0  0  0  0  0  0  0  0
   38.0110   27.4070   31.5830 C   0  0  0  0  0  0  0  0  0  0  0  0
   38.1650   27.9940   30.3460 C   0  0  0  0  0  0  0  0  0  0  0  0
   36.8860   28.3060   29.9370 C   0  0  0  0  0  0  0  0  0  0  0  0
   36.0050   27.9270   30.8800 N   0  0  0  0  0  0  0  0  0  0  0  0
   36.7150   27.3850   31.8660 N   0  0  0  0  0  0  0  0  0  0  0  0
   38.3730   25.2910   36.6850 C   0  0  0  0  0  0  0  0  0  0  0  0
   38.6110   24.6580   35.4680 C   0  0  0  0  0  0  0  0  0  0  0  0
   38.3300   23.2820   35.3620 C   0  0  0  0  0  0  0  0  0  0  0  0
   37.8420   22.6480   36.4530 N   0  0  0  0  0  0  0  0  0  0  0  0
   37.6220   23.2800   37.6110 C   0  0  0  0  0  0  0  0  0  0  0  0
   37.8860   24.6120   37.7420 N   0  0  0  0  0  0  0  0  0  0  0  0
   37.1210   22.4200   38.5790 O   0  0  0  0  0  0  0  0  0  0  0  0
   41.0287   25.2098   35.3003 H   0  0  0  0  0  0  0  0  0  0  0  0
   42.1307   26.6811   33.5684 H   0  0  0  0  0  0  0  0  0  0  0  0
   39.1044   28.1745   29.8028 H   0  0  0  0  0  0  0  0  0  0  0  0
   36.6257   28.7910   28.9846 H   0  0  0  0  0  0  0  0  0  0  0  0
   34.9813   28.0352   30.8456 H   0  0  0  0  0  0  0  0  0  0  0  0
   38.5865   26.3654   36.7855 H   0  0  0  0  0  0  0  0  0  0  0  0
   38.5021   22.7393   34.4208 H   0  0  0  0  0  0  0  0  0  0  0  0
   36.9139   22.7612   39.4850 H   0  0  0  0  0  0  0  0  0  0  0  0
  1  2  1  0
  1 15  1  0
  3  2  2  0
  4  3  1  0
  5  4  2  0
  6  4  1  0
  6  7  1  0
  7  8  2  0
  7  1  1  0
  9 13  2  0
  9  6  1  0
 10  9  1  0
 11 10  2  0
 11 12  1  0
 12 13  1  0
 14 19  2  0
 15 14  1  0
 16 15  2  0
 16 17  1  0
 17 18  2  0
 18 19  1  0
 18 20  1  0
  2 21  1  0
  3 22  1  0
 10 23  1  0
 11 24  1  0
 12 25  1  0
 14 26  1  0
 16 27  1  0
 20 28  1  0
M  ISO  8  21  14  22  14  23  14  24  14  25   9  26  14  27  14  28   3
M  END
>  <minimizedAffinity>  (1) 
-4.93384695

>  <minimizedRMSD>  (1) 
0.290276647

$$$$
