
     RDKit          3D

 33 36  0  0  0  0  0  0  0  0999 V2000
   36.8700   28.9400   31.1880 N   0  0  0  0  0  0  0  0  0  0  0  0
   36.7690   29.3470   29.9280 C   0  0  0  0  0  0  0  0  0  0  0  0
   37.6460   28.8570   28.9550 C   0  0  0  0  0  0  0  0  0  0  0  0
   38.6050   27.9410   29.3840 C   0  0  0  0  0  0  0  0  0  0  0  0
   39.4220   27.4560   28.5910 O   0  0  0  0  0  0  0  0  0  0  0  0
   38.6970   27.5390   30.6570 N   0  0  0  0  0  0  0  0  0  0  0  0
   37.8270   28.0380   31.5660 C   0  0  0  0  0  0  0  0  0  0  0  0
   37.8700   27.6920   32.7800 O   0  0  0  0  0  0  0  0  0  0  0  0
   39.6430   26.6160   31.1550 C   0  0  0  0  0  0  0  0  0  0  0  0
   40.8460   26.1020   30.6950 C   0  0  0  0  0  0  0  0  0  0  0  0
   41.2800   25.2270   31.6710 C   0  0  0  0  0  0  0  0  0  0  0  0
   40.3740   25.2160   32.6750 N   0  0  0  0  0  0  0  0  0  0  0  0
   39.4010   26.0580   32.3400 N   0  0  0  0  0  0  0  0  0  0  0  0
   34.8360   28.6790   32.3590 C   0  0  0  0  0  0  0  0  0  0  0  0
   35.9350   29.5050   32.0580 C   0  0  0  0  0  0  0  0  0  0  0  0
   35.9930   30.7800   32.6380 C   0  0  0  0  0  0  0  0  0  0  0  0
   34.9950   31.1660   33.4600 N   0  0  0  0  0  0  0  0  0  0  0  0
   33.9640   30.3660   33.7310 C   0  0  0  0  0  0  0  0  0  0  0  0
   33.8710   29.1200   33.1880 N   0  0  0  0  0  0  0  0  0  0  0  0
   32.8490   30.7090   34.6070 C   0  0  0  0  0  0  0  0  0  0  0  0
   32.5330   29.6150   35.3740 C   0  0  0  0  0  0  0  0  0  0  0  0
   31.1030   30.2140   36.4280 S   0  0  0  0  0  0  0  0  0  0  0  0
   31.2330   31.9200   35.5660 C   0  0  0  0  0  0  0  0  0  0  0  0
   32.0850   31.7500   34.8560 N   0  0  0  0  0  0  0  0  0  0  0  0
   35.9916   30.0732   29.6482 H   0  0  0  0  0  0  0  0  0  0  0  0
   37.5822   29.1781   27.9048 H   0  0  0  0  0  0  0  0  0  0  0  0
   41.3507   26.3420   29.7475 H   0  0  0  0  0  0  0  0  0  0  0  0
   42.2079   24.6372   31.6375 H   0  0  0  0  0  0  0  0  0  0  0  0
   40.4278   24.6584   33.5394 H   0  0  0  0  0  0  0  0  0  0  0  0
   34.7654   27.6740   31.9174 H   0  0  0  0  0  0  0  0  0  0  0  0
   36.8367   31.4535   32.4268 H   0  0  0  0  0  0  0  0  0  0  0  0
   33.0067   28.6222   35.3708 H   0  0  0  0  0  0  0  0  0  0  0  0
   30.6312   32.8269   35.7251 H   0  0  0  0  0  0  0  0  0  0  0  0
  1  7  1  0
  1 15  1  0
  2  1  1  0
  3  4  1  0
  3  2  2  0
  4  6  1  0
  5  4  2  0
  6  9  1  0
  6  7  1  0
  7  8  2  0
  9 13  2  0
 10  9  1  0
 10 11  2  0
 11 12  1  0
 13 12  1  0
 14 19  2  0
 15 14  1  0
 15 16  2  0
 16 17  1  0
 17 18  2  0
 18 20  1  0
 19 18  1  0
 20 24  1  0
 20 21  2  0
 21 22  1  0
 23 22  1  0
 24 23  2  0
  2 25  1  0
  3 26  1  0
 10 27  1  0
 11 28  1  0
 12 29  1  0
 14 30  1  0
 16 31  1  0
 21 32  1  0
 23 33  1  0
M  ISO  8  25  14  26  14  27  14  28  14  29   9  30  14  31  14  32  14
M  ISO  1  33  14
M  END
>  <minimizedAffinity>  (1) 
-4.04225445

>  <minimizedRMSD>  (1) 
7.13478899

$$$$
