
     RDKit          3D

 41 44  0  0  0  0  0  0  0  0999 V2000
   37.2560   22.5830   37.2010 C   0  0  0  0  0  0  0  0  0  0  0  0
   36.9680   21.9240   35.9330 C   0  0  0  0  0  0  0  0  0  0  0  0
   35.8940   21.1600   35.7050 C   0  0  0  0  0  0  0  0  0  0  0  0
   35.5950   20.5560   34.5290 C   0  0  0  0  0  0  0  0  0  0  0  0
   36.6040   20.8410   33.5260 C   0  0  0  0  0  0  0  0  0  0  0  0
   37.8480   21.9360   34.3880 S   0  0  0  0  0  0  0  0  0  0  0  0
   36.7740   20.4570   32.1600 C   0  0  0  0  0  0  0  0  0  0  0  0
   35.9920   19.5470   31.5160 C   0  0  0  0  0  0  0  0  0  0  0  0
   36.7600   19.4990   29.7910 S   0  0  0  0  0  0  0  0  0  0  0  0
   38.0170   20.7730   30.3480 C   0  0  0  0  0  0  0  0  0  0  0  0
   37.6900   20.9200   31.4010 N   0  0  0  0  0  0  0  0  0  0  0  0
   39.0620   21.2530   29.3640 C   0  0  0  0  0  0  0  0  0  0  0  0
   39.3450   22.6500   29.4250 C   0  0  0  0  0  0  0  0  0  0  0  0
   40.6200   22.7880   28.1070 S   0  0  0  0  0  0  0  0  0  0  0  0
   40.5400   20.9390   27.7150 C   0  0  0  0  0  0  0  0  0  0  0  0
   39.7070   20.5080   28.4870 N   0  0  0  0  0  0  0  0  0  0  0  0
   38.1510   23.7850   37.0990 C   0  0  0  0  0  0  0  0  0  0  0  0
   41.4390   21.9950   37.2500 C   0  0  0  0  0  0  0  0  0  0  0  0
   40.1380   22.3450   37.5690 C   0  0  0  0  0  0  0  0  0  0  0  0
   39.5090   23.3590   36.8320 C   0  0  0  0  0  0  0  0  0  0  0  0
   40.2230   23.9510   35.8340 N   0  0  0  0  0  0  0  0  0  0  0  0
   41.4880   23.5900   35.5450 C   0  0  0  0  0  0  0  0  0  0  0  0
   42.0940   22.6060   36.2610 N   0  0  0  0  0  0  0  0  0  0  0  0
   38.1400   24.5040   38.4430 C   0  0  0  0  0  0  0  0  0  0  0  0
   37.5710   24.6850   36.0300 C   0  0  0  0  0  0  0  0  0  0  0  0
   36.3017   22.9039   37.6440 H   0  0  0  0  0  0  0  0  0  0  0  0
   37.7954   21.8475   37.8159 H   0  0  0  0  0  0  0  0  0  0  0  0
   35.1955   21.0094   36.5413 H   0  0  0  0  0  0  0  0  0  0  0  0
   34.7052   19.9323   34.3577 H   0  0  0  0  0  0  0  0  0  0  0  0
   35.1307   18.9825   31.9027 H   0  0  0  0  0  0  0  0  0  0  0  0
   38.9198   23.4268   30.0775 H   0  0  0  0  0  0  0  0  0  0  0  0
   41.1156   20.3820   26.9611 H   0  0  0  0  0  0  0  0  0  0  0  0
   41.9409   21.2002   37.8212 H   0  0  0  0  0  0  0  0  0  0  0  0
   39.6066   21.8363   38.3868 H   0  0  0  0  0  0  0  0  0  0  0  0
   42.0306   24.0912   34.7299 H   0  0  0  0  0  0  0  0  0  0  0  0
   38.1513   23.7626   39.2555 H   0  0  0  0  0  0  0  0  0  0  0  0
   39.0284   25.1479   38.5217 H   0  0  0  0  0  0  0  0  0  0  0  0
   37.2323   25.1204   38.5217 H   0  0  0  0  0  0  0  0  0  0  0  0
   37.0335   25.5190   36.5049 H   0  0  0  0  0  0  0  0  0  0  0  0
   38.3839   25.0817   35.4040 H   0  0  0  0  0  0  0  0  0  0  0  0
   36.8740   24.1086   35.4040 H   0  0  0  0  0  0  0  0  0  0  0  0
  2  1  1  0
  3  2  2  0
  4  3  1  0
  5  6  1  0
  5  4  2  0
  6  2  1  0
  7  5  1  0
  8  7  2  0
  9 10  1  0
  9  8  1  0
 10 11  2  0
 11  7  1  0
 12 13  2  0
 12 10  1  0
 14 13  1  0
 15 14  1  0
 15 16  2  0
 16 12  1  0
 17  1  1  0
 17 24  1  0
 18 19  2  0
 20 17  1  0
 20 19  1  0
 21 20  2  0
 22 21  1  0
 22 23  2  0
 23 18  1  0
 25 17  1  0
  1 26  1  0
  1 27  1  0
  3 28  1  0
  4 29  1  0
  8 30  1  0
 13 31  1  0
 15 32  1  0
 18 33  1  0
 19 34  1  0
 22 35  1  0
 24 36  1  0
 24 37  1  0
 24 38  1  0
 25 39  1  0
 25 40  1  0
 25 41  1  0
M  ISO  8  26   8  27   8  28  14  29  14  30  14  31  14  32  14  33  14
M  ISO  8  34  14  35  14  36   8  37   8  38   8  39   8  40   8  41   8
M  END
>  <minimizedAffinity>  (1) 
-4.63945818

>  <minimizedRMSD>  (1) 
0.172042429

$$$$
