
     RDKit          3D

 52 55  0  0  0  0  0  0  0  0999 V2000
   37.7860   26.7890   35.0900 C   0  0  0  0  0  0  0  0  0  0  0  0
   37.4460   26.5050   33.7450 C   0  0  0  0  0  0  0  0  0  0  0  0
   37.4870   25.1880   33.3270 C   0  0  0  0  0  0  0  0  0  0  0  0
   37.8460   24.2250   34.2030 N   0  0  0  0  0  0  0  0  0  0  0  0
   38.1680   24.5210   35.4820 C   0  0  0  0  0  0  0  0  0  0  0  0
   38.1410   25.7940   35.9360 N   0  0  0  0  0  0  0  0  0  0  0  0
   37.1080   27.6310   32.9980 N   0  0  0  0  0  0  0  0  0  0  0  0
   37.6910   27.6940   31.7970 C   0  0  0  0  0  0  0  0  0  0  0  0
   37.4370   28.7750   30.9400 C   0  0  0  0  0  0  0  0  0  0  0  0
   36.5630   29.7450   31.4120 C   0  0  0  0  0  0  0  0  0  0  0  0
   36.2770   30.7340   30.7310 O   0  0  0  0  0  0  0  0  0  0  0  0
   35.9740   29.6750   32.6300 N   0  0  0  0  0  0  0  0  0  0  0  0
   36.2650   28.6000   33.4110 C   0  0  0  0  0  0  0  0  0  0  0  0
   35.7370   28.4970   34.5550 O   0  0  0  0  0  0  0  0  0  0  0  0
   35.0850   30.6250   33.1650 C   0  0  0  0  0  0  0  0  0  0  0  0
   34.3220   31.6480   32.6130 C   0  0  0  0  0  0  0  0  0  0  0  0
   33.6530   32.2220   33.6980 C   0  0  0  0  0  0  0  0  0  0  0  0
   34.0090   31.5660   34.8190 N   0  0  0  0  0  0  0  0  0  0  0  0
   34.8720   30.6070   34.4760 N   0  0  0  0  0  0  0  0  0  0  0  0
   38.5530   23.3650   36.3250 C   0  0  0  0  0  0  0  0  0  0  0  0
   37.7010   23.4530   37.6180 C   0  0  0  0  0  0  0  0  0  0  0  0
   38.1400   22.0890   35.6560 C   0  0  0  0  0  0  0  0  0  0  0  0
   39.9770   23.4120   36.7580 C   0  0  0  0  0  0  0  0  0  0  0  0
   40.8210   22.3410   36.3110 N   0  0  0  0  0  0  0  0  0  0  0  0
   41.3390   21.5470   37.4670 C   0  0  0  0  0  0  0  0  0  0  0  0
   42.5450   20.7680   36.9840 C   0  0  0  0  0  0  0  0  0  0  0  0
   42.4810   20.6600   35.5930 O   0  0  0  0  0  0  0  0  0  0  0  0
   42.7760   21.9300   35.0310 C   0  0  0  0  0  0  0  0  0  0  0  0
   42.0930   22.9800   35.8440 C   0  0  0  0  0  0  0  0  0  0  0  0
   37.7614   27.8279   35.4505 H   0  0  0  0  0  0  0  0  0  0  0  0
   37.2295   24.9267   32.2900 H   0  0  0  0  0  0  0  0  0  0  0  0
   38.3744   26.8930   31.4786 H   0  0  0  0  0  0  0  0  0  0  0  0
   37.9051   28.8502   29.9474 H   0  0  0  0  0  0  0  0  0  0  0  0
   34.2587   31.9413   31.5547 H   0  0  0  0  0  0  0  0  0  0  0  0
   32.9525   33.0685   33.6450 H   0  0  0  0  0  0  0  0  0  0  0  0
   33.6747   31.7683   35.7720 H   0  0  0  0  0  0  0  0  0  0  0  0
   38.3596   23.3850   38.4964 H   0  0  0  0  0  0  0  0  0  0  0  0
   37.1618   24.4116   37.6373 H   0  0  0  0  0  0  0  0  0  0  0  0
   36.9773   22.6248   37.6373 H   0  0  0  0  0  0  0  0  0  0  0  0
   37.8964   21.3364   36.4204 H   0  0  0  0  0  0  0  0  0  0  0  0
   37.2557   22.2736   35.0283 H   0  0  0  0  0  0  0  0  0  0  0  0
   38.9647   21.7205   35.0283 H   0  0  0  0  0  0  0  0  0  0  0  0
   40.4077   24.3535   36.3864 H   0  0  0  0  0  0  0  0  0  0  0  0
   39.9496   23.3211   37.8539 H   0  0  0  0  0  0  0  0  0  0  0  0
   41.6315   22.2221   38.2847 H   0  0  0  0  0  0  0  0  0  0  0  0
   40.5639   20.8640   37.8447 H   0  0  0  0  0  0  0  0  0  0  0  0
   43.4661   21.2957   37.2722 H   0  0  0  0  0  0  0  0  0  0  0  0
   42.5500   19.7660   37.4377 H   0  0  0  0  0  0  0  0  0  0  0  0
   43.8629   22.0985   35.0456 H   0  0  0  0  0  0  0  0  0  0  0  0
   42.4234   21.9717   33.9899 H   0  0  0  0  0  0  0  0  0  0  0  0
   42.7169   23.2718   36.7017 H   0  0  0  0  0  0  0  0  0  0  0  0
   41.9070   23.8961   35.2642 H   0  0  0  0  0  0  0  0  0  0  0  0
  1  6  2  0
  2  1  1  0
  3  2  2  0
  3  4  1  0
  4  5  2  0
  5  6  1  0
  5 20  1  0
  7 13  1  0
  7  2  1  0
  8  7  1  0
  9 10  1  0
  9  8  2  0
 10 12  1  0
 11 10  2  0
 12 15  1  0
 12 13  1  0
 13 14  2  0
 15 19  2  0
 16 15  1  0
 16 17  2  0
 17 18  1  0
 19 18  1  0
 20 23  1  0
 20 21  1  0
 22 20  1  0
 24 23  1  0
 24 25  1  0
 26 25  1  0
 27 26  1  0
 28 27  1  0
 28 29  1  0
 29 24  1  0
  1 30  1  0
  3 31  1  0
  8 32  1  0
  9 33  1  0
 16 34  1  0
 17 35  1  0
 18 36  1  0
 21 37  1  0
 21 38  1  0
 21 39  1  0
 22 40  1  0
 22 41  1  0
 22 42  1  0
 23 43  1  0
 23 44  1  0
 25 45  1  0
 25 46  1  0
 26 47  1  0
 26 48  1  0
 28 49  1  0
 28 50  1  0
 29 51  1  0
 29 52  1  0
M  ISO  8  30  14  31  14  32  14  33  14  34  14  35  14  36   9  37   8
M  ISO  8  38   8  39   8  40   8  41   8  42   8  43   8  44   8  45  13
M  ISO  7  46  13  47  13  48  13  49  13  50  13  51  13  52  13
M  END
>  <minimizedAffinity>  (1) 
-5.60472345

>  <minimizedRMSD>  (1) 
1.72725236

$$$$
