
     RDKit          3D

 44 46  0  0  0  0  0  0  0  0999 V2000
   37.2670   22.5610   37.1270 C   0  0  0  0  0  0  0  0  0  0  0  0
   36.9690   21.9040   35.8610 C   0  0  0  0  0  0  0  0  0  0  0  0
   35.8840   21.1570   35.6330 C   0  0  0  0  0  0  0  0  0  0  0  0
   35.5810   20.5510   34.4590 C   0  0  0  0  0  0  0  0  0  0  0  0
   36.5940   20.8110   33.4630 C   0  0  0  0  0  0  0  0  0  0  0  0
   37.8530   21.8890   34.3230 S   0  0  0  0  0  0  0  0  0  0  0  0
   36.7650   20.4150   32.0950 C   0  0  0  0  0  0  0  0  0  0  0  0
   35.8790   19.6330   31.4140 C   0  0  0  0  0  0  0  0  0  0  0  0
   36.6990   19.4720   29.7300 S   0  0  0  0  0  0  0  0  0  0  0  0
   38.1150   20.5400   30.3340 C   0  0  0  0  0  0  0  0  0  0  0  0
   37.7760   20.7380   31.3790 N   0  0  0  0  0  0  0  0  0  0  0  0
   39.2490   20.8410   29.3720 C   0  0  0  0  0  0  0  0  0  0  0  0
   38.9960   20.1490   28.0710 C   0  0  0  0  0  0  0  0  0  0  0  0
   39.4000   22.3420   29.2320 C   0  0  0  0  0  0  0  0  0  0  0  0
   38.1530   23.7650   37.0170 C   0  0  0  0  0  0  0  0  0  0  0  0
   41.4420   21.9870   37.2460 C   0  0  0  0  0  0  0  0  0  0  0  0
   40.1350   22.3310   37.5300 C   0  0  0  0  0  0  0  0  0  0  0  0
   39.5220   23.3520   36.7820 C   0  0  0  0  0  0  0  0  0  0  0  0
   40.2600   23.9550   35.8070 N   0  0  0  0  0  0  0  0  0  0  0  0
   41.5380   23.5960   35.5570 C   0  0  0  0  0  0  0  0  0  0  0  0
   42.1230   22.6140   36.2770 N   0  0  0  0  0  0  0  0  0  0  0  0
   38.1100   24.5040   38.3560 C   0  0  0  0  0  0  0  0  0  0  0  0
   37.5890   24.6410   35.9180 C   0  0  0  0  0  0  0  0  0  0  0  0
   36.3160   22.8763   37.5811 H   0  0  0  0  0  0  0  0  0  0  0  0
   37.8160   21.8270   37.7351 H   0  0  0  0  0  0  0  0  0  0  0  0
   35.1791   21.0231   36.4668 H   0  0  0  0  0  0  0  0  0  0  0  0
   34.6817   19.9413   34.2874 H   0  0  0  0  0  0  0  0  0  0  0  0
   34.9270   19.2054   31.7616 H   0  0  0  0  0  0  0  0  0  0  0  0
   40.2048   20.4555   29.7564 H   0  0  0  0  0  0  0  0  0  0  0  0
   38.6241   19.1317   28.2630 H   0  0  0  0  0  0  0  0  0  0  0  0
   38.2454   20.7115   27.4964 H   0  0  0  0  0  0  0  0  0  0  0  0
   39.9324   20.0947   27.4964 H   0  0  0  0  0  0  0  0  0  0  0  0
   39.4461   22.8006   30.2308 H   0  0  0  0  0  0  0  0  0  0  0  0
   40.3254   22.5677   28.6818 H   0  0  0  0  0  0  0  0  0  0  0  0
   38.5381   22.7475   28.6818 H   0  0  0  0  0  0  0  0  0  0  0  0
   41.9305   21.1878   37.8228 H   0  0  0  0  0  0  0  0  0  0  0  0
   39.5822   21.8146   38.3286 H   0  0  0  0  0  0  0  0  0  0  0  0
   42.1048   24.1054   34.7638 H   0  0  0  0  0  0  0  0  0  0  0  0
   38.1524   23.7750   39.1787 H   0  0  0  0  0  0  0  0  0  0  0  0
   38.9700   25.1863   38.4260 H   0  0  0  0  0  0  0  0  0  0  0  0
   37.1767   25.0820   38.4260 H   0  0  0  0  0  0  0  0  0  0  0  0
   37.0450   25.4859   36.3654 H   0  0  0  0  0  0  0  0  0  0  0  0
   38.4113   25.0229   35.2951 H   0  0  0  0  0  0  0  0  0  0  0  0
   36.9010   24.0505   35.2951 H   0  0  0  0  0  0  0  0  0  0  0  0
  2  1  1  0
  3  2  2  0
  4  3  1  0
  5  6  1  0
  5  4  2  0
  6  2  1  0
  7  5  1  0
  8  7  2  0
  9 10  1  0
  9  8  1  0
 10 11  2  0
 11  7  1  0
 12 10  1  0
 13 12  1  0
 14 12  1  0
 15  1  1  0
 15 22  1  0
 16 17  2  0
 18 15  1  0
 18 17  1  0
 19 18  2  0
 20 19  1  0
 20 21  2  0
 21 16  1  0
 23 15  1  0
  1 24  1  0
  1 25  1  0
  3 26  1  0
  4 27  1  0
  8 28  1  0
 12 29  1  0
 13 30  1  0
 13 31  1  0
 13 32  1  0
 14 33  1  0
 14 34  1  0
 14 35  1  0
 16 36  1  0
 17 37  1  0
 20 38  1  0
 22 39  1  0
 22 40  1  0
 22 41  1  0
 23 42  1  0
 23 43  1  0
 23 44  1  0
M  ISO  8  24   8  25   8  26  14  27  14  28  14  29   8  30   8  31   8
M  ISO  8  32   8  33   8  34   8  35   8  36  14  37  14  38  14  39   8
M  ISO  5  40   8  41   8  42   8  43   8  44   8
M  END
>  <minimizedAffinity>  (1) 
-4.596385

>  <minimizedRMSD>  (1) 
0.144885898

$$$$
