
     RDKit          3D

 34 37  0  0  1  0  0  0  0  0999 V2000
   38.1670   23.7590   34.7980 N   0  0  0  0  0  0  0  0  0  0  0  0
   38.3510   24.9980   34.3200 C   0  0  0  0  0  0  0  0  0  0  0  0
   38.0490   25.2990   32.9910 C   0  0  0  0  0  0  0  0  0  0  0  0
   37.5560   24.2460   32.2190 C   0  0  0  0  0  0  0  0  0  0  0  0
   37.2670   24.4410   31.0310 O   0  0  0  0  0  0  0  0  0  0  0  0
   37.3790   23.0120   32.7160 N   0  0  0  0  0  0  0  0  0  0  0  0
   37.6830   22.7690   33.9980 C   0  0  0  0  0  0  0  0  0  0  0  0
   37.5310   21.6370   34.4920 O   0  0  0  0  0  0  0  0  0  0  0  0
   37.5830   24.1910   37.0290 C   0  0  0  0  0  0  0  0  0  0  0  0
   38.5080   23.6060   36.1300 C   0  0  0  0  0  0  0  0  0  0  0  0
   39.5970   22.9750   36.6820 C   0  0  0  0  0  0  0  0  0  0  0  0
   39.7590   22.9290   38.0210 N   0  0  0  0  0  0  0  0  0  0  0  0
   38.8480   23.5050   38.8560 C   0  0  0  0  0  0  0  0  0  0  0  0
   37.7750   24.1260   38.3660 N   0  0  0  0  0  0  0  0  0  0  0  0
   36.8720   21.8960   31.9540 C   0  0  2  0  0  0  0  0  0  0  0  0
   35.5090   22.1580   31.3120 C   0  0  0  0  0  0  0  0  0  0  0  0
   35.7070   21.1010   32.3290 C   0  0  1  0  0  0  0  0  0  0  0  0
   35.7590   19.6570   31.9270 C   0  0  0  0  0  0  0  0  0  0  0  0
   35.3970   18.6040   32.7770 C   0  0  0  0  0  0  0  0  0  0  0  0
   35.5850   17.4510   32.0360 C   0  0  0  0  0  0  0  0  0  0  0  0
   36.0350   17.7910   30.8120 N   0  0  0  0  0  0  0  0  0  0  0  0
   36.1340   19.1110   30.7570 N   0  0  0  0  0  0  0  0  0  0  0  0
   38.7436   25.7845   34.9813 H   0  0  0  0  0  0  0  0  0  0  0  0
   38.1913   26.3078   32.5761 H   0  0  0  0  0  0  0  0  0  0  0  0
   36.6950   24.7060   36.6337 H   0  0  0  0  0  0  0  0  0  0  0  0
   40.3435   22.5030   36.0263 H   0  0  0  0  0  0  0  0  0  0  0  0
   38.9999   23.4568   39.9444 H   0  0  0  0  0  0  0  0  0  0  0  0
   37.8917   21.5914   31.6758 H   0  0  0  0  0  0  0  0  0  0  0  0
   34.9440   23.0686   31.5600 H   0  0  0  0  0  0  0  0  0  0  0  0
   35.1151   22.2024   30.2859 H   0  0  0  0  0  0  0  0  0  0  0  0
   35.1693   20.8733   33.2612 H   0  0  0  0  0  0  0  0  0  0  0  0
   35.0389   18.6782   33.8144 H   0  0  0  0  0  0  0  0  0  0  0  0
   35.3980   16.4257   32.3878 H   0  0  0  0  0  0  0  0  0  0  0  0
   36.2629   17.1367   30.0499 H   0  0  0  0  0  0  0  0  0  0  0  0
  1 10  1  0
  2  1  1  0
  3  2  2  0
  4  6  1  0
  4  3  1  0
  5  4  2  0
  6  7  1  0
  7  8  2  0
  7  1  1  0
  9 14  2  0
 10 11  2  0
 10  9  1  0
 11 12  1  0
 12 13  2  0
 14 13  1  0
 15 17  1  0
 15  6  1  0
 16 15  1  0
 16 17  1  0
 18 17  1  0
 18 19  1  0
 20 19  2  0
 21 20  1  0
 22 21  1  0
 22 18  2  0
  2 23  1  0
  3 24  1  0
  9 25  1  0
 11 26  1  0
 13 27  1  0
 15 28  1  6
 16 29  1  0
 16 30  1  0
 17 31  1  1
 19 32  1  0
 20 33  1  0
 21 34  1  0
M  ISO  8  23  14  24  14  25  14  26  14  27  14  28  13  29  13  30  13
M  ISO  4  31  13  32  14  33  14  34   9
M  END
>  <minimizedAffinity>  (1) 
-5.67510366

>  <minimizedRMSD>  (1) 
2.62647605

$$$$
