
     RDKit          3D

 30 32  0  0  1  0  0  0  0  0999 V2000
   38.3720   23.5660   34.6760 N   0  0  0  0  0  0  0  0  0  0  0  0
   38.9120   24.6610   34.0900 C   0  0  0  0  0  0  0  0  0  0  0  0
   38.7330   24.8820   32.7260 C   0  0  0  0  0  0  0  0  0  0  0  0
   37.9790   23.9210   32.0310 C   0  0  0  0  0  0  0  0  0  0  0  0
   37.7900   24.0700   30.8180 O   0  0  0  0  0  0  0  0  0  0  0  0
   37.4530   22.8420   32.6360 N   0  0  0  0  0  0  0  0  0  0  0  0
   37.6610   22.6840   33.9560 C   0  0  0  0  0  0  0  0  0  0  0  0
   37.1850   21.6880   34.5550 O   0  0  0  0  0  0  0  0  0  0  0  0
   37.6950   24.1830   36.8410 C   0  0  0  0  0  0  0  0  0  0  0  0
   38.6320   23.4770   36.0370 C   0  0  0  0  0  0  0  0  0  0  0  0
   39.6430   22.8200   36.6930 C   0  0  0  0  0  0  0  0  0  0  0  0
   39.7210   22.8570   38.0400 N   0  0  0  0  0  0  0  0  0  0  0  0
   38.8140   23.5370   38.7800 C   0  0  0  0  0  0  0  0  0  0  0  0
   37.8030   24.1990   38.1800 N   0  0  0  0  0  0  0  0  0  0  0  0
   36.6800   21.8410   31.9610 C   0  0  2  0  0  0  0  0  0  0  0  0
   35.4570   22.4070   31.2430 C   0  0  0  0  0  0  0  0  0  0  0  0
   35.3370   21.4430   32.3670 C   0  0  1  0  0  0  0  0  0  0  0  0
   34.9650   19.9970   32.0840 C   0  0  0  0  0  0  0  0  0  0  0  0
   33.5970   19.9260   31.8770 F   0  0  0  0  0  0  0  0  0  0  0  0
   35.2500   19.1820   33.1650 F   0  0  0  0  0  0  0  0  0  0  0  0
   35.6380   19.5160   30.9770 F   0  0  0  0  0  0  0  0  0  0  0  0
   39.4923   25.3764   34.6912 H   0  0  0  0  0  0  0  0  0  0  0  0
   39.1589   25.7612   32.2204 H   0  0  0  0  0  0  0  0  0  0  0  0
   36.8682   24.7249   36.3585 H   0  0  0  0  0  0  0  0  0  0  0  0
   40.3944   22.2598   36.1173 H   0  0  0  0  0  0  0  0  0  0  0  0
   38.9017   23.5499   39.8764 H   0  0  0  0  0  0  0  0  0  0  0  0
   37.5755   21.2382   31.7497 H   0  0  0  0  0  0  0  0  0  0  0  0
   35.1695   23.4598   31.3807 H   0  0  0  0  0  0  0  0  0  0  0  0
   35.1038   22.4551   30.2023 H   0  0  0  0  0  0  0  0  0  0  0  0
   34.7576   21.4658   33.3018 H   0  0  0  0  0  0  0  0  0  0  0  0
  1 10  1  0
  2  1  1  0
  3  2  2  0
  4  6  1  0
  4  3  1  0
  5  4  2  0
  6  7  1  0
  7  8  2  0
  7  1  1  0
  9 14  2  0
 10 11  2  0
 10  9  1  0
 11 12  1  0
 12 13  2  0
 14 13  1  0
 15 17  1  0
 15  6  1  0
 16 15  1  0
 16 17  1  0
 18 17  1  0
 18 20  1  0
 19 18  1  0
 21 18  1  0
  2 22  1  0
  3 23  1  0
  9 24  1  0
 11 25  1  0
 13 26  1  0
 15 27  1  6
 16 28  1  0
 16 29  1  0
 17 30  1  1
M  ISO  8  22  14  23  14  24  14  25  14  26  14  27  13  28  13  29  13
M  ISO  1  30  13
M  END
>  <minimizedAffinity>  (1) 
-5.66816568

>  <minimizedRMSD>  (1) 
2.45730925

$$$$
