
     RDKit          3D

 38 42  0  0  1  0  0  0  0  0999 V2000
   38.0630   23.9840   34.7330 N   0  0  0  0  0  0  0  0  0  0  0  0
   37.9440   25.2940   34.4880 C   0  0  0  0  0  0  0  0  0  0  0  0
   37.5390   25.7570   33.2330 C   0  0  0  0  0  0  0  0  0  0  0  0
   37.2730   24.7600   32.2760 C   0  0  0  0  0  0  0  0  0  0  0  0
   36.9100   25.0800   31.1430 O   0  0  0  0  0  0  0  0  0  0  0  0
   37.3960   23.4410   32.5360 N   0  0  0  0  0  0  0  0  0  0  0  0
   37.7930   23.0730   33.7730 C   0  0  0  0  0  0  0  0  0  0  0  0
   37.9200   21.8580   34.0560 O   0  0  0  0  0  0  0  0  0  0  0  0
   37.5410   24.0650   37.0280 C   0  0  0  0  0  0  0  0  0  0  0  0
   38.4760   23.6840   36.0270 C   0  0  0  0  0  0  0  0  0  0  0  0
   39.6350   23.0830   36.4560 C   0  0  0  0  0  0  0  0  0  0  0  0
   39.8580   22.8740   37.7640 N   0  0  0  0  0  0  0  0  0  0  0  0
   38.9420   23.2510   38.7070 C   0  0  0  0  0  0  0  0  0  0  0  0
   37.7870   23.8450   38.3360 N   0  0  0  0  0  0  0  0  0  0  0  0
   37.1330   22.4040   31.5870 C   0  0  2  0  0  0  0  0  0  0  0  0
   35.6270   22.2150   31.3190 C   0  0  0  0  0  0  0  0  0  0  0  0
   36.4740   21.1460   31.9150 C   0  0  1  0  0  0  0  0  0  0  0  0
   36.7770   19.9560   31.1150 N   0  0  0  0  0  0  0  0  0  0  0  0
   37.4840   19.8660   29.9720 C   0  0  0  0  0  0  0  0  0  0  0  0
   37.5220   18.5710   29.5610 N   0  0  0  0  0  0  0  0  0  0  0  0
   36.8380   17.8090   30.4350 C   0  0  0  0  0  0  0  0  0  0  0  0
   36.5370   16.4770   30.5490 C   0  0  0  0  0  0  0  0  0  0  0  0
   35.8040   15.9810   31.5730 N   0  0  0  0  0  0  0  0  0  0  0  0
   35.3760   16.8840   32.4950 C   0  0  0  0  0  0  0  0  0  0  0  0
   35.6570   18.1990   32.4070 N   0  0  0  0  0  0  0  0  0  0  0  0
   36.3960   18.6910   31.3730 C   0  0  0  0  0  0  0  0  0  0  0  0
   38.1682   26.0172   35.2860 H   0  0  0  0  0  0  0  0  0  0  0  0
   37.4351   26.8288   33.0083 H   0  0  0  0  0  0  0  0  0  0  0  0
   36.5989   24.5485   36.7302 H   0  0  0  0  0  0  0  0  0  0  0  0
   40.3892   22.7693   35.7193 H   0  0  0  0  0  0  0  0  0  0  0  0
   39.1468   23.0697   39.7724 H   0  0  0  0  0  0  0  0  0  0  0  0
   38.0717   22.6004   31.0482 H   0  0  0  0  0  0  0  0  0  0  0  0
   34.8817   22.7420   31.9328 H   0  0  0  0  0  0  0  0  0  0  0  0
   34.9597   22.3045   30.4491 H   0  0  0  0  0  0  0  0  0  0  0  0
   36.4036   20.5434   32.8325 H   0  0  0  0  0  0  0  0  0  0  0  0
   37.9579   20.7110   29.4511 H   0  0  0  0  0  0  0  0  0  0  0  0
   36.9054   15.7839   29.7783 H   0  0  0  0  0  0  0  0  0  0  0  0
   34.7770   16.5272   33.3459 H   0  0  0  0  0  0  0  0  0  0  0  0
  1 10  1  0
  2  1  1  0
  3  2  2  0
  4  6  1  0
  4  3  1  0
  5  4  2  0
  6  7  1  0
  7  8  2  0
  7  1  1  0
  9 14  2  0
 10 11  2  0
 10  9  1  0
 11 12  1  0
 12 13  2  0
 14 13  1  0
 15 17  1  0
 15  6  1  0
 16 15  1  0
 16 17  1  0
 18 26  1  0
 18 17  1  0
 19 18  1  0
 20 19  2  0
 20 21  1  0
 21 22  2  0
 21 26  1  0
 22 23  1  0
 23 24  2  0
 25 24  1  0
 26 25  2  0
  2 27  1  0
  3 28  1  0
  9 29  1  0
 11 30  1  0
 13 31  1  0
 15 32  1  6
 16 33  1  0
 16 34  1  0
 17 35  1  1
 19 36  1  0
 22 37  1  0
 24 38  1  0
M  ISO  8  27  14  28  14  29  14  30  14  31  14  32  13  33  13  34  13
M  ISO  4  35  13  36  14  37  14  38  14
M  END
>  <minimizedAffinity>  (1) 
-5.65488625

>  <minimizedRMSD>  (1) 
2.51297927

$$$$
