
     RDKit          3D

 41 44  0  0  1  0  0  0  0  0999 V2000
   38.4910   24.3510   34.7040 N   0  0  0  0  0  0  0  0  0  0  0  0
   38.9670   25.5720   34.4120 C   0  0  0  0  0  0  0  0  0  0  0  0
   38.7920   26.1050   33.1310 C   0  0  0  0  0  0  0  0  0  0  0  0
   38.1140   25.3060   32.2170 C   0  0  0  0  0  0  0  0  0  0  0  0
   37.9220   25.7110   31.0650 O   0  0  0  0  0  0  0  0  0  0  0  0
   37.6380   24.0700   32.5310 N   0  0  0  0  0  0  0  0  0  0  0  0
   37.8330   23.6100   33.7710 C   0  0  0  0  0  0  0  0  0  0  0  0
   37.4180   22.4880   34.1050 O   0  0  0  0  0  0  0  0  0  0  0  0
   37.8070   24.4700   36.9540 C   0  0  0  0  0  0  0  0  0  0  0  0
   38.7340   23.9430   36.0140 C   0  0  0  0  0  0  0  0  0  0  0  0
   39.7230   23.1240   36.5030 C   0  0  0  0  0  0  0  0  0  0  0  0
   39.7890   22.8470   37.8230 N   0  0  0  0  0  0  0  0  0  0  0  0
   38.8840   23.3680   38.6920 C   0  0  0  0  0  0  0  0  0  0  0  0
   37.8990   24.1740   38.2660 N   0  0  0  0  0  0  0  0  0  0  0  0
   36.9300   23.2120   31.6110 C   0  0  2  0  0  0  0  0  0  0  0  0
   35.5670   23.7910   31.2020 C   0  0  0  0  0  0  0  0  0  0  0  0
   35.7020   22.5060   31.9430 C   0  0  1  0  0  0  0  0  0  0  0  0
   35.4310   21.2520   31.3060 N   0  0  0  0  0  0  0  0  0  0  0  0
   36.6240   20.5840   30.8870 C   0  0  0  0  0  0  0  0  0  0  0  0
   37.2480   19.6950   31.9200 C   0  0  0  0  0  0  0  0  0  0  0  0
   36.3300   18.6990   32.3820 N   0  0  0  0  0  0  0  0  0  0  0  0
   34.9800   18.9140   31.9430 C   0  0  0  0  0  0  0  0  0  0  0  0
   34.5810   20.3720   32.0470 C   0  0  0  0  0  0  0  0  0  0  0  0
   39.4954   26.1539   35.1815 H   0  0  0  0  0  0  0  0  0  0  0  0
   39.1701   27.1021   32.8611 H   0  0  0  0  0  0  0  0  0  0  0  0
   37.0002   25.1311   36.6046 H   0  0  0  0  0  0  0  0  0  0  0  0
   40.4649   22.6917   35.8155 H   0  0  0  0  0  0  0  0  0  0  0  0
   38.9598   23.1253   39.7622 H   0  0  0  0  0  0  0  0  0  0  0  0
   37.8641   22.8461   31.1598 H   0  0  0  0  0  0  0  0  0  0  0  0
   35.1680   24.6844   31.7046 H   0  0  0  0  0  0  0  0  0  0  0  0
   35.0946   24.1193   30.2644 H   0  0  0  0  0  0  0  0  0  0  0  0
   35.2531   22.1300   32.8742 H   0  0  0  0  0  0  0  0  0  0  0  0
   36.3798   19.9679   30.0091 H   0  0  0  0  0  0  0  0  0  0  0  0
   37.3603   21.3733   30.6753 H   0  0  0  0  0  0  0  0  0  0  0  0
   38.1240   19.1963   31.4796 H   0  0  0  0  0  0  0  0  0  0  0  0
   37.5406   20.3177   32.7783 H   0  0  0  0  0  0  0  0  0  0  0  0
   36.6432   17.7813   32.0346 H   0  0  0  0  0  0  0  0  0  0  0  0
   34.3023   18.3138   32.5679 H   0  0  0  0  0  0  0  0  0  0  0  0
   34.9118   18.6149   30.8866 H   0  0  0  0  0  0  0  0  0  0  0  0
   34.6137   20.6669   33.1062 H   0  0  0  0  0  0  0  0  0  0  0  0
   33.5717   20.4618   31.6190 H   0  0  0  0  0  0  0  0  0  0  0  0
  1 10  1  0
  2  1  1  0
  3  2  2  0
  4  6  1  0
  4  3  1  0
  5  4  2  0
  6  7  1  0
  7  8  2  0
  7  1  1  0
  9 14  2  0
 10 11  2  0
 10  9  1  0
 11 12  1  0
 12 13  2  0
 14 13  1  0
 15 17  1  0
 15  6  1  0
 16 15  1  0
 16 17  1  0
 18 17  1  0
 18 23  1  0
 19 18  1  0
 19 20  1  0
 20 21  1  0
 22 23  1  0
 22 21  1  0
  2 24  1  0
  3 25  1  0
  9 26  1  0
 11 27  1  0
 13 28  1  0
 15 29  1  6
 16 30  1  0
 16 31  1  0
 17 32  1  1
 19 33  1  0
 19 34  1  0
 20 35  1  0
 20 36  1  0
 21 37  1  0
 22 38  1  0
 22 39  1  0
 23 40  1  0
 23 41  1  0
M  ISO  8  24  14  25  14  26  14  27  14  28  14  29  13  30  13  31  13
M  ISO  8  32  13  33  13  34  13  35  13  36  13  37   5  38  13  39  13
M  ISO  2  40  13  41  13
M  END
>  <minimizedAffinity>  (1) 
-5.48599243

>  <minimizedRMSD>  (1) 
2.17915034

$$$$
