
     RDKit          3D

 30 32  0  0  1  0  0  0  0  0999 V2000
   38.0710   23.6110   34.6860 N   0  0  0  0  0  0  0  0  0  0  0  0
   38.2250   24.8590   34.2150 C   0  0  0  0  0  0  0  0  0  0  0  0
   37.8800   25.1570   32.8910 C   0  0  0  0  0  0  0  0  0  0  0  0
   37.3830   24.1070   32.1280 C   0  0  0  0  0  0  0  0  0  0  0  0
   37.0580   24.3000   30.9500 O   0  0  0  0  0  0  0  0  0  0  0  0
   37.2350   22.8520   32.6230 N   0  0  0  0  0  0  0  0  0  0  0  0
   37.5850   22.6300   33.9030 C   0  0  0  0  0  0  0  0  0  0  0  0
   37.4630   21.4850   34.3980 O   0  0  0  0  0  0  0  0  0  0  0  0
   37.5270   23.9940   36.9400 C   0  0  0  0  0  0  0  0  0  0  0  0
   38.4530   23.4610   36.0130 C   0  0  0  0  0  0  0  0  0  0  0  0
   39.5890   22.8740   36.5330 C   0  0  0  0  0  0  0  0  0  0  0  0
   39.7780   22.8280   37.8680 N   0  0  0  0  0  0  0  0  0  0  0  0
   38.8620   23.3540   38.7290 C   0  0  0  0  0  0  0  0  0  0  0  0
   37.7530   23.9270   38.2650 N   0  0  0  0  0  0  0  0  0  0  0  0
   36.7270   21.7440   31.8700 C   0  0  2  0  0  0  0  0  0  0  0  0
   35.3550   22.0290   31.2360 C   0  0  0  0  0  0  0  0  0  0  0  0
   35.5480   20.9660   32.2560 C   0  0  1  0  0  0  0  0  0  0  0  0
   35.4840   19.5380   31.8280 C   0  0  0  0  0  0  0  0  0  0  0  0
   36.5760   19.0630   31.3660 O   0  0  0  0  0  0  0  0  0  0  0  0
   34.3520   18.7390   31.9020 O   0  0  0  0  0  0  0  0  0  0  0  0
   38.6226   25.6482   34.8700 H   0  0  0  0  0  0  0  0  0  0  0  0
   37.9963   26.1692   32.4765 H   0  0  0  0  0  0  0  0  0  0  0  0
   36.6069   24.4712   36.5717 H   0  0  0  0  0  0  0  0  0  0  0  0
   40.3421   22.4426   35.8571 H   0  0  0  0  0  0  0  0  0  0  0  0
   39.0396   23.3050   39.8135 H   0  0  0  0  0  0  0  0  0  0  0  0
   37.7396   21.4217   31.5857 H   0  0  0  0  0  0  0  0  0  0  0  0
   34.8063   22.9484   31.4884 H   0  0  0  0  0  0  0  0  0  0  0  0
   34.9523   22.0790   30.2136 H   0  0  0  0  0  0  0  0  0  0  0  0
   35.0578   20.7414   33.2148 H   0  0  0  0  0  0  0  0  0  0  0  0
   34.3896   17.7979   31.5971 H   0  0  0  0  0  0  0  0  0  0  0  0
  1 10  1  0
  2  1  1  0
  3  2  2  0
  4  6  1  0
  4  3  1  0
  5  4  2  0
  6  7  1  0
  7  8  2  0
  7  1  1  0
  9 14  2  0
 10 11  2  0
 10  9  1  0
 11 12  1  0
 12 13  2  0
 14 13  1  0
 15 17  1  0
 15  6  1  0
 16 15  1  0
 16 17  1  0
 18 20  1  0
 18 17  1  0
 19 18  2  0
  2 21  1  0
  3 22  1  0
  9 23  1  0
 11 24  1  0
 13 25  1  0
 15 26  1  6
 16 27  1  0
 16 28  1  0
 17 29  1  1
 20 30  1  0
M  ISO  8  21  14  22  14  23  14  24  14  25  14  26  13  27  13  28  13
M  ISO  2  29  13  30   3
M  END
>  <minimizedAffinity>  (1) 
-5.29422426

>  <minimizedRMSD>  (1) 
2.52785659

$$$$
