
     RDKit          3D

 34 37  0  0  1  0  0  0  0  0999 V2000
   38.1530   23.9870   34.7580 N   0  0  0  0  0  0  0  0  0  0  0  0
   38.2330   25.2960   34.4440 C   0  0  0  0  0  0  0  0  0  0  0  0
   37.9100   25.7290   33.1570 C   0  0  0  0  0  0  0  0  0  0  0  0
   37.5140   24.7360   32.2540 C   0  0  0  0  0  0  0  0  0  0  0  0
   37.2130   25.0530   31.0880 O   0  0  0  0  0  0  0  0  0  0  0  0
   37.4420   23.4370   32.5890 N   0  0  0  0  0  0  0  0  0  0  0  0
   37.7640   23.0830   33.8400 C   0  0  0  0  0  0  0  0  0  0  0  0
   37.7110   21.8800   34.2000 O   0  0  0  0  0  0  0  0  0  0  0  0
   37.5840   24.1960   37.0290 C   0  0  0  0  0  0  0  0  0  0  0  0
   38.5040   23.7060   36.0780 C   0  0  0  0  0  0  0  0  0  0  0  0
   39.6010   23.0310   36.5590 C   0  0  0  0  0  0  0  0  0  0  0  0
   39.7700   22.8580   37.8780 N   0  0  0  0  0  0  0  0  0  0  0  0
   38.8670   23.3400   38.7790 C   0  0  0  0  0  0  0  0  0  0  0  0
   37.7760   24.0090   38.3460 N   0  0  0  0  0  0  0  0  0  0  0  0
   37.0380   22.3840   31.6860 C   0  0  2  0  0  0  0  0  0  0  0  0
   35.5690   22.5110   31.2440 C   0  0  0  0  0  0  0  0  0  0  0  0
   36.0640   21.3560   32.0210 C   0  0  1  0  0  0  0  0  0  0  0  0
   36.2910   20.0390   31.3380 C   0  0  0  0  0  0  0  0  0  0  0  0
   36.7240   19.5600   30.0470 C   0  0  0  0  0  0  0  0  0  0  0  0
   36.7620   18.2200   29.9230 C   0  0  0  0  0  0  0  0  0  0  0  0
   36.4200   17.3200   30.9300 C   0  0  0  0  0  0  0  0  0  0  0  0
   35.9660   18.4260   32.2890 S   0  0  0  0  0  0  0  0  0  0  0  0
   38.5535   26.0241   35.2037 H   0  0  0  0  0  0  0  0  0  0  0  0
   37.9636   26.7893   32.8692 H   0  0  0  0  0  0  0  0  0  0  0  0
   36.6925   24.7415   36.6859 H   0  0  0  0  0  0  0  0  0  0  0  0
   40.3460   22.6297   35.8562 H   0  0  0  0  0  0  0  0  0  0  0  0
   39.0265   23.1844   39.8562 H   0  0  0  0  0  0  0  0  0  0  0  0
   38.0486   22.3051   31.2589 H   0  0  0  0  0  0  0  0  0  0  0  0
   34.9091   23.2556   31.7132 H   0  0  0  0  0  0  0  0  0  0  0  0
   35.0389   22.6550   30.2910 H   0  0  0  0  0  0  0  0  0  0  0  0
   35.6933   20.8897   32.9458 H   0  0  0  0  0  0  0  0  0  0  0  0
   37.0018   20.2383   29.2268 H   0  0  0  0  0  0  0  0  0  0  0  0
   37.0865   17.8059   28.9570 H   0  0  0  0  0  0  0  0  0  0  0  0
   36.4247   16.2203   30.9055 H   0  0  0  0  0  0  0  0  0  0  0  0
  1 10  1  0
  2  1  1  0
  3  2  2  0
  4  6  1  0
  4  3  1  0
  5  4  2  0
  6  7  1  0
  7  8  2  0
  7  1  1  0
  9 14  2  0
 10 11  2  0
 10  9  1  0
 11 12  1  0
 12 13  2  0
 14 13  1  0
 15 17  1  0
 15  6  1  0
 16 15  1  0
 16 17  1  0
 18 17  1  0
 18 22  1  0
 19 18  2  0
 20 19  1  0
 20 21  2  0
 21 22  1  0
  2 23  1  0
  3 24  1  0
  9 25  1  0
 11 26  1  0
 13 27  1  0
 15 28  1  6
 16 29  1  0
 16 30  1  0
 17 31  1  1
 19 32  1  0
 20 33  1  0
 21 34  1  0
M  ISO  8  23  14  24  14  25  14  26  14  27  14  28  13  29  13  30  13
M  ISO  4  31  13  32  14  33  14  34  14
M  END
>  <minimizedAffinity>  (1) 
-5.28037119

>  <minimizedRMSD>  (1) 
2.35695791

$$$$
