
     RDKit          3D

 34 37  0  0  1  0  0  0  0  0999 V2000
   38.1170   23.7040   34.7850 N   0  0  0  0  0  0  0  0  0  0  0  0
   38.2610   24.9370   34.2860 C   0  0  0  0  0  0  0  0  0  0  0  0
   37.9250   25.2000   32.9560 C   0  0  0  0  0  0  0  0  0  0  0  0
   37.4460   24.1290   32.2080 C   0  0  0  0  0  0  0  0  0  0  0  0
   37.1260   24.2750   31.0230 O   0  0  0  0  0  0  0  0  0  0  0  0
   37.3060   22.8820   32.7310 N   0  0  0  0  0  0  0  0  0  0  0  0
   37.6440   22.6820   34.0180 C   0  0  0  0  0  0  0  0  0  0  0  0
   37.5340   21.5600   34.5420 O   0  0  0  0  0  0  0  0  0  0  0  0
   37.5870   24.2150   37.0200 C   0  0  0  0  0  0  0  0  0  0  0  0
   38.4880   23.5840   36.1170 C   0  0  0  0  0  0  0  0  0  0  0  0
   39.5870   22.9490   36.6660 C   0  0  0  0  0  0  0  0  0  0  0  0
   39.7700   22.9460   38.0060 N   0  0  0  0  0  0  0  0  0  0  0  0
   38.8910   23.5570   38.8390 C   0  0  0  0  0  0  0  0  0  0  0  0
   37.8070   24.1870   38.3520 N   0  0  0  0  0  0  0  0  0  0  0  0
   36.8170   21.7430   32.0050 C   0  0  2  0  0  0  0  0  0  0  0  0
   35.3540   21.8640   31.5970 C   0  0  0  0  0  0  0  0  0  0  0  0
   35.8010   20.8230   32.5290 C   0  0  1  0  0  0  0  0  0  0  0  0
   35.9260   19.4260   32.1450 N   0  0  0  0  0  0  0  0  0  0  0  0
   36.6410   18.9950   31.1060 N   0  0  0  0  0  0  0  0  0  0  0  0
   36.5860   17.6740   30.9790 C   0  0  0  0  0  0  0  0  0  0  0  0
   35.7680   17.2740   32.0300 C   0  0  0  0  0  0  0  0  0  0  0  0
   35.3590   18.3720   32.7570 C   0  0  0  0  0  0  0  0  0  0  0  0
   38.6451   25.7459   34.9249 H   0  0  0  0  0  0  0  0  0  0  0  0
   38.0337   26.2046   32.5212 H   0  0  0  0  0  0  0  0  0  0  0  0
   36.6993   24.7326   36.6275 H   0  0  0  0  0  0  0  0  0  0  0  0
   40.3137   22.4454   36.0116 H   0  0  0  0  0  0  0  0  0  0  0  0
   39.0666   23.5371   39.9247 H   0  0  0  0  0  0  0  0  0  0  0  0
   37.8047   21.5583   31.5574 H   0  0  0  0  0  0  0  0  0  0  0  0
   34.7465   22.7068   31.9585 H   0  0  0  0  0  0  0  0  0  0  0  0
   34.8032   21.8817   30.6450 H   0  0  0  0  0  0  0  0  0  0  0  0
   35.4274   20.5265   33.5202 H   0  0  0  0  0  0  0  0  0  0  0  0
   37.0733   17.0440   30.2203 H   0  0  0  0  0  0  0  0  0  0  0  0
   35.4880   16.2331   32.2495 H   0  0  0  0  0  0  0  0  0  0  0  0
   34.7098   18.3830   33.6449 H   0  0  0  0  0  0  0  0  0  0  0  0
  1 10  1  0
  2  1  1  0
  3  2  2  0
  4  6  1  0
  4  3  1  0
  5  4  2  0
  6  7  1  0
  7  8  2  0
  7  1  1  0
  9 14  2  0
 10 11  2  0
 10  9  1  0
 11 12  1  0
 12 13  2  0
 14 13  1  0
 15 17  1  0
 15  6  1  0
 16 15  1  0
 16 17  1  0
 18 17  1  0
 18 22  1  0
 19 18  1  0
 20 19  2  0
 20 21  1  0
 21 22  2  0
  2 23  1  0
  3 24  1  0
  9 25  1  0
 11 26  1  0
 13 27  1  0
 15 28  1  6
 16 29  1  0
 16 30  1  0
 17 31  1  1
 20 32  1  0
 21 33  1  0
 22 34  1  0
M  ISO  8  23  14  24  14  25  14  26  14  27  14  28  13  29  13  30  13
M  ISO  4  31  13  32  14  33  14  34  14
M  END
>  <minimizedAffinity>  (1) 
-5.23958492

>  <minimizedRMSD>  (1) 
2.79900813

$$$$
