
     RDKit          3D

 34 37  0  0  1  0  0  0  0  0999 V2000
   38.1300   23.9040   34.8060 N   0  0  0  0  0  0  0  0  0  0  0  0
   38.1840   25.2090   34.4500 C   0  0  0  0  0  0  0  0  0  0  0  0
   37.8440   25.6030   33.1580 C   0  0  0  0  0  0  0  0  0  0  0  0
   37.4560   24.5990   32.2800 C   0  0  0  0  0  0  0  0  0  0  0  0
   37.1410   24.8680   31.1210 O   0  0  0  0  0  0  0  0  0  0  0  0
   37.4070   23.3060   32.6450 N   0  0  0  0  0  0  0  0  0  0  0  0
   37.7440   22.9640   33.9050 C   0  0  0  0  0  0  0  0  0  0  0  0
   37.7110   21.7680   34.2860 O   0  0  0  0  0  0  0  0  0  0  0  0
   37.5720   24.1390   37.0700 C   0  0  0  0  0  0  0  0  0  0  0  0
   38.4960   23.6580   36.1230 C   0  0  0  0  0  0  0  0  0  0  0  0
   39.6250   23.0140   36.5900 C   0  0  0  0  0  0  0  0  0  0  0  0
   39.8010   22.8730   37.9220 N   0  0  0  0  0  0  0  0  0  0  0  0
   38.8910   23.3490   38.8200 C   0  0  0  0  0  0  0  0  0  0  0  0
   37.7800   23.9800   38.3940 N   0  0  0  0  0  0  0  0  0  0  0  0
   37.0130   22.2200   31.7800 C   0  0  2  0  0  0  0  0  0  0  0  0
   35.5480   22.2850   31.3500 C   0  0  0  0  0  0  0  0  0  0  0  0
   36.0970   21.1540   32.1490 C   0  0  1  0  0  0  0  0  0  0  0  0
   36.3200   19.8330   31.4630 C   0  0  0  0  0  0  0  0  0  0  0  0
   36.5190   19.6630   30.1070 C   0  0  0  0  0  0  0  0  0  0  0  0
   36.6870   18.3370   29.8440 N   0  0  0  0  0  0  0  0  0  0  0  0
   36.5880   17.7250   31.0370 C   0  0  0  0  0  0  0  0  0  0  0  0
   36.3640   18.6130   32.0410 N   0  0  0  0  0  0  0  0  0  0  0  0
   38.4986   25.9634   35.1861 H   0  0  0  0  0  0  0  0  0  0  0  0
   37.8810   26.6578   32.8481 H   0  0  0  0  0  0  0  0  0  0  0  0
   36.6635   24.6540   36.7244 H   0  0  0  0  0  0  0  0  0  0  0  0
   40.3724   22.6204   35.8854 H   0  0  0  0  0  0  0  0  0  0  0  0
   39.0656   23.2167   39.8980 H   0  0  0  0  0  0  0  0  0  0  0  0
   38.0209   22.1729   31.3420 H   0  0  0  0  0  0  0  0  0  0  0  0
   34.8641   23.0124   31.8117 H   0  0  0  0  0  0  0  0  0  0  0  0
   35.0059   22.3930   30.3990 H   0  0  0  0  0  0  0  0  0  0  0  0
   35.7857   20.6870   33.0950 H   0  0  0  0  0  0  0  0  0  0  0  0
   36.5387   20.4693   29.3590 H   0  0  0  0  0  0  0  0  0  0  0  0
   36.6774   16.6383   31.1826 H   0  0  0  0  0  0  0  0  0  0  0  0
   36.2505   18.3987   33.0420 H   0  0  0  0  0  0  0  0  0  0  0  0
  1 10  1  0
  2  1  1  0
  3  2  2  0
  4  6  1  0
  4  3  1  0
  5  4  2  0
  6  7  1  0
  7  8  2  0
  7  1  1  0
  9 14  2  0
 10 11  2  0
 10  9  1  0
 11 12  1  0
 12 13  2  0
 14 13  1  0
 15 17  1  0
 15  6  1  0
 16 15  1  0
 16 17  1  0
 18 22  1  0
 18 17  1  0
 19 18  2  0
 20 19  1  0
 20 21  2  0
 21 22  1  0
  2 23  1  0
  3 24  1  0
  9 25  1  0
 11 26  1  0
 13 27  1  0
 15 28  1  6
 16 29  1  0
 16 30  1  0
 17 31  1  1
 19 32  1  0
 21 33  1  0
 22 34  1  0
M  ISO  8  23  14  24  14  25  14  26  14  27  14  28  13  29  13  30  13
M  ISO  4  31  13  32  14  33  14  34   9
M  END
>  <minimizedAffinity>  (1) 
-5.22221518

>  <minimizedRMSD>  (1) 
2.40453124

$$$$
