
     RDKit          3D

 33 35  0  0  1  0  0  0  0  0999 V2000
   38.4480   24.3740   34.6960 N   0  0  0  0  0  0  0  0  0  0  0  0
   38.8890   25.6110   34.4190 C   0  0  0  0  0  0  0  0  0  0  0  0
   38.7120   26.1680   33.1510 C   0  0  0  0  0  0  0  0  0  0  0  0
   38.0620   25.3670   32.2180 C   0  0  0  0  0  0  0  0  0  0  0  0
   37.8620   25.7810   31.0700 O   0  0  0  0  0  0  0  0  0  0  0  0
   37.6190   24.1140   32.5090 N   0  0  0  0  0  0  0  0  0  0  0  0
   37.8190   23.6320   33.7520 C   0  0  0  0  0  0  0  0  0  0  0  0
   37.4290   22.4910   34.0570 O   0  0  0  0  0  0  0  0  0  0  0  0
   37.7690   24.4710   36.9420 C   0  0  0  0  0  0  0  0  0  0  0  0
   38.6940   23.9580   35.9910 C   0  0  0  0  0  0  0  0  0  0  0  0
   39.6850   23.1380   36.4800 C   0  0  0  0  0  0  0  0  0  0  0  0
   39.7580   22.8480   37.7970 N   0  0  0  0  0  0  0  0  0  0  0  0
   38.8560   23.3570   38.6730 C   0  0  0  0  0  0  0  0  0  0  0  0
   37.8670   24.1640   38.2500 N   0  0  0  0  0  0  0  0  0  0  0  0
   36.9420   23.2610   31.5670 C   0  0  2  0  0  0  0  0  0  0  0  0
   35.5640   23.7750   31.1690 C   0  0  0  0  0  0  0  0  0  0  0  0
   35.7550   22.4860   31.8890 C   0  0  1  0  0  0  0  0  0  0  0  0
   35.5400   21.1660   31.1890 C   0  0  0  0  0  0  0  0  0  0  0  0
   34.6720   20.2330   32.0400 C   0  0  0  0  0  0  0  0  0  0  0  0
   39.3968   26.1939   35.2016 H   0  0  0  0  0  0  0  0  0  0  0  0
   39.0656   27.1801   32.9046 H   0  0  0  0  0  0  0  0  0  0  0  0
   36.9575   25.1315   36.6026 H   0  0  0  0  0  0  0  0  0  0  0  0
   40.4278   22.7130   35.7889 H   0  0  0  0  0  0  0  0  0  0  0  0
   38.9344   23.1068   39.7413 H   0  0  0  0  0  0  0  0  0  0  0  0
   37.8916   22.9599   31.1005 H   0  0  0  0  0  0  0  0  0  0  0  0
   35.1227   24.6404   31.6851 H   0  0  0  0  0  0  0  0  0  0  0  0
   35.0784   24.0953   30.2354 H   0  0  0  0  0  0  0  0  0  0  0  0
   35.3239   22.0717   32.8123 H   0  0  0  0  0  0  0  0  0  0  0  0
   35.0392   21.3459   30.2263 H   0  0  0  0  0  0  0  0  0  0  0  0
   36.5181   20.6887   31.0290 H   0  0  0  0  0  0  0  0  0  0  0  0
   34.8566   20.4314   33.1061 H   0  0  0  0  0  0  0  0  0  0  0  0
   33.6106   20.4107   31.8124 H   0  0  0  0  0  0  0  0  0  0  0  0
   34.9257   19.1871   31.8124 H   0  0  0  0  0  0  0  0  0  0  0  0
  1 10  1  0
  2  1  1  0
  3  2  2  0
  4  6  1  0
  4  3  1  0
  5  4  2  0
  6  7  1  0
  7  8  2  0
  7  1  1  0
  9 14  2  0
 10 11  2  0
 10  9  1  0
 11 12  1  0
 12 13  2  0
 14 13  1  0
 15 17  1  0
 15  6  1  0
 16 15  1  0
 16 17  1  0
 18 17  1  0
 18 19  1  0
  2 20  1  0
  3 21  1  0
  9 22  1  0
 11 23  1  0
 13 24  1  0
 15 25  1  6
 16 26  1  0
 16 27  1  0
 17 28  1  1
 18 29  1  0
 18 30  1  0
 19 31  1  0
 19 32  1  0
 19 33  1  0
M  ISO  8  20  14  21  14  22  14  23  14  24  14  25  13  26  13  27  13
M  ISO  6  28  13  29   8  30   8  31   8  32   8  33   8
M  END
>  <minimizedAffinity>  (1) 
-5.02114296

>  <minimizedRMSD>  (1) 
1.43151772

$$$$
