
     RDKit          3D

 29 31  0  0  1  0  0  0  0  0999 V2000
   38.4260   24.5550   34.8230 N   0  0  0  0  0  0  0  0  0  0  0  0
   38.7740   25.8370   34.6530 C   0  0  0  0  0  0  0  0  0  0  0  0
   38.5470   26.4720   33.4360 C   0  0  0  0  0  0  0  0  0  0  0  0
   37.9480   25.6900   32.4420 C   0  0  0  0  0  0  0  0  0  0  0  0
   37.7120   26.1820   31.3300 O   0  0  0  0  0  0  0  0  0  0  0  0
   37.6060   24.4050   32.6320 N   0  0  0  0  0  0  0  0  0  0  0  0
   37.8490   23.8360   33.8370 C   0  0  0  0  0  0  0  0  0  0  0  0
   37.5480   22.6520   34.0490 O   0  0  0  0  0  0  0  0  0  0  0  0
   37.7940   24.4850   37.0920 C   0  0  0  0  0  0  0  0  0  0  0  0
   38.7150   24.0580   36.0950 C   0  0  0  0  0  0  0  0  0  0  0  0
   39.7340   23.2370   36.5090 C   0  0  0  0  0  0  0  0  0  0  0  0
   39.8380   22.8670   37.7990 N   0  0  0  0  0  0  0  0  0  0  0  0
   38.9410   23.2930   38.7290 C   0  0  0  0  0  0  0  0  0  0  0  0
   37.9210   24.1010   38.3740 N   0  0  0  0  0  0  0  0  0  0  0  0
   36.9870   23.5670   31.6340 C   0  0  2  0  0  0  0  0  0  0  0  0
   35.5440   23.9630   31.3300 C   0  0  0  0  0  0  0  0  0  0  0  0
   35.9060   22.6340   31.8860 C   0  0  1  0  0  0  0  0  0  0  0  0
   35.8400   21.4850   30.9700 N   0  0  0  0  0  0  0  0  0  0  0  0
   39.2419   26.3910   35.4801 H   0  0  0  0  0  0  0  0  0  0  0  0
   38.8214   27.5235   33.2657 H   0  0  0  0  0  0  0  0  0  0  0  0
   36.9601   25.1435   36.8076 H   0  0  0  0  0  0  0  0  0  0  0  0
   40.4738   22.8775   35.7786 H   0  0  0  0  0  0  0  0  0  0  0  0
   39.0483   22.9765   39.7770 H   0  0  0  0  0  0  0  0  0  0  0  0
   37.9505   23.4167   31.1250 H   0  0  0  0  0  0  0  0  0  0  0  0
   35.0271   24.7060   31.9551 H   0  0  0  0  0  0  0  0  0  0  0  0
   34.9916   24.3308   30.4527 H   0  0  0  0  0  0  0  0  0  0  0  0
   35.5634   22.0665   32.7638 H   0  0  0  0  0  0  0  0  0  0  0  0
   35.7899   20.6131   31.5160 H   0  0  0  0  0  0  0  0  0  0  0  0
   35.0023   21.5669   30.3763 H   0  0  0  0  0  0  0  0  0  0  0  0
  1 10  1  0
  2  1  1  0
  3  2  2  0
  4  6  1  0
  4  3  1  0
  5  4  2  0
  6  7  1  0
  7  8  2  0
  7  1  1  0
  9 14  2  0
 10 11  2  0
 10  9  1  0
 11 12  1  0
 12 13  2  0
 14 13  1  0
 15 17  1  0
 15  6  1  0
 16 15  1  0
 16 17  1  0
 18 17  1  0
  2 19  1  0
  3 20  1  0
  9 21  1  0
 11 22  1  0
 13 23  1  0
 15 24  1  6
 16 25  1  0
 16 26  1  0
 17 27  1  1
 18 28  1  0
 18 29  1  0
M  ISO  8  19  14  20  14  21  14  22  14  23  14  24  13  25  13  26  13
M  ISO  3  27  13  28   5  29   5
M  END
>  <minimizedAffinity>  (1) 
-4.63602257

>  <minimizedRMSD>  (1) 
0.963995457

$$$$
