
     RDKit          3D

 36 38  0  0  1  0  0  0  0  0999 V2000
   38.8510   22.7940   37.4090 C   0  0  0  0  0  0  0  0  0  0  0  0
   38.4190   23.7850   36.5360 C   0  0  0  0  0  0  0  0  0  0  0  0
   39.3030   24.3760   35.6650 C   0  0  0  0  0  0  0  0  0  0  0  0
   40.5960   23.9410   35.7110 N   0  0  0  0  0  0  0  0  0  0  0  0
   41.0040   22.9830   36.5580 C   0  0  0  0  0  0  0  0  0  0  0  0
   40.1460   22.4080   37.4030 N   0  0  0  0  0  0  0  0  0  0  0  0
   39.0460   25.3810   34.7130 N   0  0  0  0  0  0  0  0  0  0  0  0
   39.1440   26.8180   35.0090 C   0  0  0  0  0  0  0  0  0  0  0  0
   37.8050   27.4680   34.7890 C   0  0  0  0  0  0  0  0  0  0  0  0
   36.9560   26.5870   34.0840 O   0  0  0  0  0  0  0  0  0  0  0  0
   37.6020   26.1630   32.9330 C   0  0  0  0  0  0  0  0  0  0  0  0
   38.6780   25.1510   33.3430 C   0  0  2  0  0  0  0  0  0  0  0  0
   36.6320   21.4920   32.3210 C   0  0  0  0  0  0  0  0  0  0  0  0
   37.8300   21.4390   33.0030 C   0  0  0  0  0  0  0  0  0  0  0  0
   38.5120   22.5850   33.3520 C   0  0  0  0  0  0  0  0  0  0  0  0
   38.0590   23.8410   33.0540 C   0  0  0  0  0  0  0  0  0  0  0  0
   36.8370   23.8430   32.3620 C   0  0  0  0  0  0  0  0  0  0  0  0
   36.1150   22.7260   31.9880 C   0  0  0  0  0  0  0  0  0  0  0  0
   35.7840   20.0390   31.8870 S   0  0  0  0  0  0  0  0  0  0  0  0
   36.1740   19.6370   30.4960 O   0  0  0  0  0  0  0  0  0  0  0  0
   34.2960   20.1910   32.0330 O   0  0  0  0  0  0  0  0  0  0  0  0
   38.1396   22.3242   38.1042 H   0  0  0  0  0  0  0  0  0  0  0  0
   37.3645   24.0981   36.5420 H   0  0  0  0  0  0  0  0  0  0  0  0
   42.0580   22.6682   36.5556 H   0  0  0  0  0  0  0  0  0  0  0  0
   39.4512   26.9565   36.0561 H   0  0  0  0  0  0  0  0  0  0  0  0
   39.8891   27.2793   34.3441 H   0  0  0  0  0  0  0  0  0  0  0  0
   37.3526   27.7108   35.7618 H   0  0  0  0  0  0  0  0  0  0  0  0
   37.9401   28.3890   34.2030 H   0  0  0  0  0  0  0  0  0  0  0  0
   38.0692   27.0217   32.4286 H   0  0  0  0  0  0  0  0  0  0  0  0
   36.8848   25.7002   32.2391 H   0  0  0  0  0  0  0  0  0  0  0  0
   39.6328   25.2244   32.8017 H   0  0  0  0  0  0  0  0  0  0  0  0
   38.2508   20.4596   33.2746 H   0  0  0  0  0  0  0  0  0  0  0  0
   39.4636   22.4850   33.8947 H   0  0  0  0  0  0  0  0  0  0  0  0
   36.4163   24.8232   32.0932 H   0  0  0  0  0  0  0  0  0  0  0  0
   35.1630   22.8178   31.4447 H   0  0  0  0  0  0  0  0  0  0  0  0
   36.1449   19.0407   32.7531 H   0  0  0  0  0  0  0  0  0  0  0  0
  2  1  2  0
  3  4  2  0
  3  2  1  0
  4  5  1  0
  5  6  2  0
  6  1  1  0
  7  8  1  0
  7  3  1  0
  9  8  1  0
 10  9  1  0
 11 12  1  0
 11 10  1  0
 12  7  1  0
 13 14  2  0
 14 15  1  0
 16 12  1  0
 16 15  2  0
 17 16  1  0
 18 13  1  0
 18 17  2  0
 19 21  2  0
 19 13  1  0
 20 19  2  0
  1 22  1  0
  2 23  1  0
  5 24  1  0
  8 25  1  0
  8 26  1  0
  9 27  1  0
  9 28  1  0
 11 29  1  0
 11 30  1  0
 12 31  1  6
 14 32  1  0
 15 33  1  0
 17 34  1  0
 18 35  1  0
 19 36  1  0
M  ISO  8  22  14  23  14  24  14  25  13  26  13  27  13  28  13  29  13
M  ISO  7  30  13  31  13  32  14  33  14  34  14  35  14  36  11
M  END
>  <minimizedAffinity>  (1) 
-4.85314989

>  <minimizedRMSD>  (1) 
1.21452248

$$$$
