
     RDKit          3D

 33 35  0  0  1  0  0  0  0  0999 V2000
   39.2960   22.9040   37.7770 C   0  0  0  0  0  0  0  0  0  0  0  0
   38.7650   23.9840   37.0670 C   0  0  0  0  0  0  0  0  0  0  0  0
   39.2700   24.2640   35.7940 C   0  0  0  0  0  0  0  0  0  0  0  0
   40.2500   23.4680   35.3140 N   0  0  0  0  0  0  0  0  0  0  0  0
   40.7500   22.4340   36.0050 C   0  0  0  0  0  0  0  0  0  0  0  0
   40.2820   22.1480   37.2270 N   0  0  0  0  0  0  0  0  0  0  0  0
   38.8460   25.3170   34.9440 N   0  0  0  0  0  0  0  0  0  0  0  0
   39.4580   26.6510   34.9180 C   0  0  0  0  0  0  0  0  0  0  0  0
   38.3970   27.6790   35.2920 C   0  0  0  0  0  0  0  0  0  0  0  0
   37.1220   27.1050   35.2080 O   0  0  0  0  0  0  0  0  0  0  0  0
   36.9630   26.4820   33.9610 C   0  0  0  0  0  0  0  0  0  0  0  0
   37.7620   25.2020   34.0020 C   0  0  1  0  0  0  0  0  0  0  0  0
   38.1180   24.7380   32.7090 N   0  0  0  0  0  0  0  0  0  0  0  0
   38.5480   23.5140   32.3300 C   0  0  0  0  0  0  0  0  0  0  0  0
   38.8610   23.1940   31.0350 C   0  0  0  0  0  0  0  0  0  0  0  0
   38.7300   24.1860   30.0590 C   0  0  0  0  0  0  0  0  0  0  0  0
   39.0180   23.8930   28.8710 O   0  0  0  0  0  0  0  0  0  0  0  0
   38.3020   25.4010   30.4500 N   0  0  0  0  0  0  0  0  0  0  0  0
   37.9980   25.6850   31.7440 C   0  0  0  0  0  0  0  0  0  0  0  0
   37.6100   26.8800   31.9300 O   0  0  0  0  0  0  0  0  0  0  0  0
   38.9157   22.6658   38.7813 H   0  0  0  0  0  0  0  0  0  0  0  0
   37.9652   24.6018   37.5013 H   0  0  0  0  0  0  0  0  0  0  0  0
   41.5484   21.8174   35.5665 H   0  0  0  0  0  0  0  0  0  0  0  0
   40.2861   26.6931   35.6408 H   0  0  0  0  0  0  0  0  0  0  0  0
   39.8514   26.8649   33.9133 H   0  0  0  0  0  0  0  0  0  0  0  0
   38.5730   28.0261   36.3209 H   0  0  0  0  0  0  0  0  0  0  0  0
   38.4567   28.5286   34.5959 H   0  0  0  0  0  0  0  0  0  0  0  0
   37.3391   27.1366   33.1610 H   0  0  0  0  0  0  0  0  0  0  0  0
   35.9018   26.2759   33.7576 H   0  0  0  0  0  0  0  0  0  0  0  0
   37.1234   24.3925   34.3853 H   0  0  0  0  0  0  0  0  0  0  0  0
   38.6519   22.7354   33.1001 H   0  0  0  0  0  0  0  0  0  0  0  0
   39.2061   22.1836   30.7705 H   0  0  0  0  0  0  0  0  0  0  0  0
   38.2012   26.1427   29.7425 H   0  0  0  0  0  0  0  0  0  0  0  0
  2  1  2  0
  3  2  1  0
  4  3  2  0
  4  5  1  0
  5  6  2  0
  6  1  1  0
  7  3  1  0
  8  7  1  0
  8  9  1  0
 10  9  1  0
 11 12  1  0
 11 10  1  0
 12  7  1  0
 13 12  1  0
 14 13  1  0
 15 14  2  0
 16 18  1  0
 16 15  1  0
 17 16  2  0
 18 19  1  0
 19 20  2  0
 19 13  1  0
  1 21  1  0
  2 22  1  0
  5 23  1  0
  8 24  1  0
  8 25  1  0
  9 26  1  0
  9 27  1  0
 11 28  1  0
 11 29  1  0
 12 30  1  1
 14 31  1  0
 15 32  1  0
 18 33  1  0
M  ISO  8  21  14  22  14  23  14  24  13  25  13  26  13  27  13  28  13
M  ISO  5  29  13  30  13  31  14  32  14  33   9
M  END
>  <minimizedAffinity>  (1) 
-4.51107597

>  <minimizedRMSD>  (1) 
1.65278339

$$$$
