
     RDKit          3D

 36 38  0  0  1  0  0  0  0  0999 V2000
   38.7050   23.2290   36.2850 C   0  0  0  0  0  0  0  0  0  0  0  0
   38.0140   23.6610   35.1410 C   0  0  0  0  0  0  0  0  0  0  0  0
   38.5470   23.2950   33.9100 C   0  0  0  0  0  0  0  0  0  0  0  0
   39.6940   22.5510   33.8490 N   0  0  0  0  0  0  0  0  0  0  0  0
   40.3190   22.1620   34.9870 C   0  0  0  0  0  0  0  0  0  0  0  0
   39.8410   22.4900   36.1870 N   0  0  0  0  0  0  0  0  0  0  0  0
   38.0020   23.6080   32.6330 N   0  0  0  0  0  0  0  0  0  0  0  0
   38.3180   24.8050   31.8810 C   0  0  0  0  0  0  0  0  0  0  0  0
   37.0560   25.6080   31.6720 C   0  0  0  0  0  0  0  0  0  0  0  0
   35.9350   24.8300   31.9460 O   0  0  0  0  0  0  0  0  0  0  0  0
   35.9930   23.6120   31.2610 C   0  0  0  0  0  0  0  0  0  0  0  0
   37.0590   22.7640   31.9200 C   0  0  2  0  0  0  0  0  0  0  0  0
   36.3870   21.7230   32.7290 C   0  0  0  0  0  0  0  0  0  0  0  0
   36.8980   20.3360   32.6310 C   0  0  0  0  0  0  0  0  0  0  0  0
   35.6370   19.5190   32.9570 C   0  0  0  0  0  0  0  0  0  0  0  0
   34.6500   20.1620   32.0420 C   0  0  0  0  0  0  0  0  0  0  0  0
   34.9660   21.6260   32.2130 C   0  0  0  0  0  0  0  0  0  0  0  0
   38.3188   23.4943   37.2802 H   0  0  0  0  0  0  0  0  0  0  0  0
   37.0947   24.2605   35.2154 H   0  0  0  0  0  0  0  0  0  0  0  0
   41.2394   21.5635   34.9187 H   0  0  0  0  0  0  0  0  0  0  0  0
   39.0494   25.4078   32.4393 H   0  0  0  0  0  0  0  0  0  0  0  0
   38.7448   24.5270   30.9060 H   0  0  0  0  0  0  0  0  0  0  0  0
   37.0654   26.4793   32.3434 H   0  0  0  0  0  0  0  0  0  0  0  0
   37.0131   25.9390   30.6239 H   0  0  0  0  0  0  0  0  0  0  0  0
   36.2524   23.7872   30.2065 H   0  0  0  0  0  0  0  0  0  0  0  0
   35.0186   23.1028   31.2972 H   0  0  0  0  0  0  0  0  0  0  0  0
   37.6802   22.2300   31.1859 H   0  0  0  0  0  0  0  0  0  0  0  0
   36.5386   22.0469   33.7693 H   0  0  0  0  0  0  0  0  0  0  0  0
   37.2690   20.1153   31.6192 H   0  0  0  0  0  0  0  0  0  0  0  0
   37.7514   20.1254   33.2924 H   0  0  0  0  0  0  0  0  0  0  0  0
   35.7726   18.4528   32.7230 H   0  0  0  0  0  0  0  0  0  0  0  0
   35.3490   19.5260   34.0186 H   0  0  0  0  0  0  0  0  0  0  0  0
   33.6174   19.9382   32.3481 H   0  0  0  0  0  0  0  0  0  0  0  0
   34.7198   19.8133   31.0011 H   0  0  0  0  0  0  0  0  0  0  0  0
   34.8801   22.1450   31.2469 H   0  0  0  0  0  0  0  0  0  0  0  0
   34.2633   22.0964   32.9165 H   0  0  0  0  0  0  0  0  0  0  0  0
  2  1  2  0
  3  2  1  0
  4  3  2  0
  4  5  1  0
  5  6  2  0
  6  1  1  0
  7  3  1  0
  8  7  1  0
  9  8  1  0
  9 10  1  0
 11 12  1  0
 11 10  1  0
 12  7  1  0
 12 13  1  0
 14 13  1  0
 14 15  1  0
 16 17  1  0
 16 15  1  0
 17 13  1  0
  1 18  1  0
  2 19  1  0
  5 20  1  0
  8 21  1  0
  8 22  1  0
  9 23  1  0
  9 24  1  0
 11 25  1  0
 11 26  1  0
 12 27  1  6
 13 28  1  0
 14 29  1  0
 14 30  1  0
 15 31  1  0
 15 32  1  0
 16 33  1  0
 16 34  1  0
 17 35  1  0
 17 36  1  0
M  ISO  8  18  14  19  14  20  14  21  13  22  13  23  13  24  13  25  13
M  ISO  8  26  13  27  13  28  13  29  13  30  13  31  13  32  13  33  13
M  ISO  3  34  13  35  13  36  13
M  END
>  <minimizedAffinity>  (1) 
-4.36907005

>  <minimizedRMSD>  (1) 
3.31618929

$$$$
