
     RDKit          3D

 30 32  0  0  1  0  0  0  0  0999 V2000
   39.0620   23.0040   38.0010 C   0  0  0  0  0  0  0  0  0  0  0  0
   38.5200   24.0230   37.2080 C   0  0  0  0  0  0  0  0  0  0  0  0
   39.2350   24.4320   36.0990 C   0  0  0  0  0  0  0  0  0  0  0  0
   40.4230   23.8300   35.8290 N   0  0  0  0  0  0  0  0  0  0  0  0
   40.9260   22.8520   36.6020 C   0  0  0  0  0  0  0  0  0  0  0  0
   40.2420   22.4380   37.6930 N   0  0  0  0  0  0  0  0  0  0  0  0
   38.8690   25.4450   35.1710 N   0  0  0  0  0  0  0  0  0  0  0  0
   39.2260   26.8590   35.3110 C   0  0  0  0  0  0  0  0  0  0  0  0
   37.9570   27.6760   35.3800 C   0  0  0  0  0  0  0  0  0  0  0  0
   36.8450   26.8860   35.0190 O   0  0  0  0  0  0  0  0  0  0  0  0
   37.0970   26.3080   33.7670 C   0  0  0  0  0  0  0  0  0  0  0  0
   38.0940   25.1940   33.9640 C   0  0  1  0  0  0  0  0  0  0  0  0
   39.0340   25.1960   32.8430 C   0  0  0  0  0  0  0  0  0  0  0  0
   40.0390   24.4460   32.4280 C   0  0  0  0  0  0  0  0  0  0  0  0
   40.7720   24.6910   31.3000 C   0  0  0  0  0  0  0  0  0  0  0  0
   40.2950   25.8960   30.6140 C   0  0  0  0  0  0  0  0  0  0  0  0
   38.9440   26.5070   31.5850 S   0  0  0  0  0  0  0  0  0  0  0  0
   38.5133   22.6610   38.8905 H   0  0  0  0  0  0  0  0  0  0  0  0
   37.5537   24.4840   37.4606 H   0  0  0  0  0  0  0  0  0  0  0  0
   41.8912   22.3896   36.3480 H   0  0  0  0  0  0  0  0  0  0  0  0
   39.8096   27.0037   36.2321 H   0  0  0  0  0  0  0  0  0  0  0  0
   39.8308   27.1792   34.4498 H   0  0  0  0  0  0  0  0  0  0  0  0
   37.8201   28.0476   36.4063 H   0  0  0  0  0  0  0  0  0  0  0  0
   38.0374   28.5211   34.6805 H   0  0  0  0  0  0  0  0  0  0  0  0
   37.5108   27.0635   33.0829 H   0  0  0  0  0  0  0  0  0  0  0  0
   36.1660   25.9168   33.3308 H   0  0  0  0  0  0  0  0  0  0  0  0
   37.5556   24.2374   34.0353 H   0  0  0  0  0  0  0  0  0  0  0  0
   40.3042   23.5648   33.0306 H   0  0  0  0  0  0  0  0  0  0  0  0
   41.6087   24.0668   30.9531 H   0  0  0  0  0  0  0  0  0  0  0  0
   40.6941   26.3318   29.6862 H   0  0  0  0  0  0  0  0  0  0  0  0
  2  1  2  0
  3  2  1  0
  4  3  2  0
  4  5  1  0
  5  6  2  0
  6  1  1  0
  7  8  1  0
  7  3  1  0
  8  9  1  0
 10  9  1  0
 11 12  1  0
 11 10  1  0
 12  7  1  0
 13 12  1  0
 14 13  2  0
 15 14  1  0
 16 15  2  0
 16 17  1  0
 17 13  1  0
  1 18  1  0
  2 19  1  0
  5 20  1  0
  8 21  1  0
  8 22  1  0
  9 23  1  0
  9 24  1  0
 11 25  1  0
 11 26  1  0
 12 27  1  1
 14 28  1  0
 15 29  1  0
 16 30  1  0
M  ISO  8  18  14  19  14  20  14  21  13  22  13  23  13  24  13  25  13
M  ISO  5  26  13  27  13  28  14  29  14  30  14
M  END
>  <minimizedAffinity>  (1) 
-4.11833096

>  <minimizedRMSD>  (1) 
0.452520221

$$$$
