
     RDKit          3D

 35 36  0  0  1  0  0  0  0  0999 V2000
   39.0800   22.9760   37.9450 C   0  0  0  0  0  0  0  0  0  0  0  0
   38.5590   23.9950   37.1410 C   0  0  0  0  0  0  0  0  0  0  0  0
   39.2870   24.4270   36.0410 C   0  0  0  0  0  0  0  0  0  0  0  0
   40.4780   23.8420   35.7850 N   0  0  0  0  0  0  0  0  0  0  0  0
   40.9680   22.8630   36.5650 C   0  0  0  0  0  0  0  0  0  0  0  0
   40.2900   22.4300   37.6290 N   0  0  0  0  0  0  0  0  0  0  0  0
   38.8820   25.4480   35.1440 N   0  0  0  0  0  0  0  0  0  0  0  0
   39.2130   26.8510   35.3440 C   0  0  0  0  0  0  0  0  0  0  0  0
   37.9540   27.6760   35.3930 C   0  0  0  0  0  0  0  0  0  0  0  0
   36.8460   26.8870   35.0290 O   0  0  0  0  0  0  0  0  0  0  0  0
   37.0980   26.3360   33.7600 C   0  0  0  0  0  0  0  0  0  0  0  0
   38.1150   25.2420   33.9540 C   0  0  1  0  0  0  0  0  0  0  0  0
   38.8760   25.0220   32.6930 C   0  0  0  0  0  0  0  0  0  0  0  0
   37.9990   24.1680   31.7840 C   0  0  0  0  0  0  0  0  0  0  0  0
   40.1390   24.2080   32.9150 C   0  0  0  0  0  0  0  0  0  0  0  0
   39.2590   26.2420   31.9370 C   0  0  0  0  0  0  0  0  0  0  0  0
   38.5206   22.6187   38.8222 H   0  0  0  0  0  0  0  0  0  0  0  0
   37.5850   24.4482   37.3774 H   0  0  0  0  0  0  0  0  0  0  0  0
   41.9418   22.4126   36.3224 H   0  0  0  0  0  0  0  0  0  0  0  0
   39.7599   26.9646   36.2916 H   0  0  0  0  0  0  0  0  0  0  0  0
   39.8387   27.1968   34.5080 H   0  0  0  0  0  0  0  0  0  0  0  0
   37.8089   28.0586   36.4140 H   0  0  0  0  0  0  0  0  0  0  0  0
   38.0456   28.5162   34.6889 H   0  0  0  0  0  0  0  0  0  0  0  0
   37.4961   27.1075   33.0846 H   0  0  0  0  0  0  0  0  0  0  0  0
   36.1747   25.9411   33.3110 H   0  0  0  0  0  0  0  0  0  0  0  0
   37.6193   24.2789   34.1457 H   0  0  0  0  0  0  0  0  0  0  0  0
   37.3451   23.5313   32.3980 H   0  0  0  0  0  0  0  0  0  0  0  0
   37.3830   24.8218   31.1491 H   0  0  0  0  0  0  0  0  0  0  0  0
   38.6362   23.5348   31.1491 H   0  0  0  0  0  0  0  0  0  0  0  0
   40.3165   24.0936   33.9945 H   0  0  0  0  0  0  0  0  0  0  0  0
   40.0210   23.2155   32.4556 H   0  0  0  0  0  0  0  0  0  0  0  0
   40.9942   24.7254   32.4556 H   0  0  0  0  0  0  0  0  0  0  0  0
   39.5116   27.0467   32.6431 H   0  0  0  0  0  0  0  0  0  0  0  0
   40.1314   26.0223   31.3040 H   0  0  0  0  0  0  0  0  0  0  0  0
   38.4176   26.5604   31.3040 H   0  0  0  0  0  0  0  0  0  0  0  0
  2  1  2  0
  3  2  1  0
  4  3  2  0
  4  5  1  0
  5  6  2  0
  6  1  1  0
  7  8  1  0
  7  3  1  0
  8  9  1  0
 10  9  1  0
 11 12  1  0
 11 10  1  0
 12  7  1  0
 13 15  1  0
 13 12  1  0
 14 13  1  0
 16 13  1  0
  1 17  1  0
  2 18  1  0
  5 19  1  0
  8 20  1  0
  8 21  1  0
  9 22  1  0
  9 23  1  0
 11 24  1  0
 11 25  1  0
 12 26  1  1
 14 27  1  0
 14 28  1  0
 14 29  1  0
 15 30  1  0
 15 31  1  0
 15 32  1  0
 16 33  1  0
 16 34  1  0
 16 35  1  0
M  ISO  8  17  14  18  14  19  14  20  13  21  13  22  13  23  13  24  13
M  ISO  8  25  13  26  13  27   8  28   8  29   8  30   8  31   8  32   8
M  ISO  3  33   8  34   8  35   8
M  END
>  <minimizedAffinity>  (1) 
-4.05989885

>  <minimizedRMSD>  (1) 
0.0619739331

$$$$
