
     RDKit          3D

 26 27  0  0  1  0  0  0  0  0999 V2000
   38.6670   23.2280   38.1320 C   0  0  0  0  0  0  0  0  0  0  0  0
   38.2150   24.2440   37.2880 C   0  0  0  0  0  0  0  0  0  0  0  0
   38.9690   24.5540   36.1640 C   0  0  0  0  0  0  0  0  0  0  0  0
   40.1110   23.8470   35.9470 N   0  0  0  0  0  0  0  0  0  0  0  0
   40.5220   22.8770   36.7720 C   0  0  0  0  0  0  0  0  0  0  0  0
   39.8090   22.5620   37.8610 N   0  0  0  0  0  0  0  0  0  0  0  0
   38.6750   25.5470   35.1970 N   0  0  0  0  0  0  0  0  0  0  0  0
   39.1160   26.9250   35.2610 C   0  0  0  0  0  0  0  0  0  0  0  0
   37.9090   27.8380   35.3140 C   0  0  0  0  0  0  0  0  0  0  0  0
   36.7590   27.1290   34.9500 O   0  0  0  0  0  0  0  0  0  0  0  0
   36.9730   26.4720   33.7280 C   0  0  0  0  0  0  0  0  0  0  0  0
   37.8830   25.3010   34.0060 C   0  0  1  0  0  0  0  0  0  0  0  0
   38.6890   24.9210   32.8050 C   0  0  0  0  0  0  0  0  0  0  0  0
   40.0210   25.1050   33.0360 F   0  0  0  0  0  0  0  0  0  0  0  0
   38.4750   23.5590   32.6210 F   0  0  0  0  0  0  0  0  0  0  0  0
   38.2880   25.5340   31.6510 F   0  0  0  0  0  0  0  0  0  0  0  0
   38.0854   22.9672   39.0285 H   0  0  0  0  0  0  0  0  0  0  0  0
   37.2836   24.7861   37.5082 H   0  0  0  0  0  0  0  0  0  0  0  0
   41.4533   22.3338   36.5539 H   0  0  0  0  0  0  0  0  0  0  0  0
   39.7278   27.0729   36.1631 H   0  0  0  0  0  0  0  0  0  0  0  0
   39.7156   27.1604   34.3694 H   0  0  0  0  0  0  0  0  0  0  0  0
   37.7899   28.2261   36.3364 H   0  0  0  0  0  0  0  0  0  0  0  0
   38.0560   28.6735   34.6138 H   0  0  0  0  0  0  0  0  0  0  0  0
   37.4480   27.1566   33.0099 H   0  0  0  0  0  0  0  0  0  0  0  0
   36.0207   26.1329   33.2943 H   0  0  0  0  0  0  0  0  0  0  0  0
   37.2663   24.4155   34.2195 H   0  0  0  0  0  0  0  0  0  0  0  0
  2  1  2  0
  3  2  1  0
  4  3  2  0
  4  5  1  0
  5  6  2  0
  6  1  1  0
  7  8  1  0
  7  3  1  0
  8  9  1  0
 10  9  1  0
 11 12  1  0
 11 10  1  0
 12  7  1  0
 13 14  1  0
 13 12  1  0
 15 13  1  0
 16 13  1  0
  1 17  1  0
  2 18  1  0
  5 19  1  0
  8 20  1  0
  8 21  1  0
  9 22  1  0
  9 23  1  0
 11 24  1  0
 11 25  1  0
 12 26  1  1
M  ISO  8  17  14  18  14  19  14  20  13  21  13  22  13  23  13  24  13
M  ISO  2  25  13  26  13
M  END
>  <minimizedAffinity>  (1) 
-4.00893831

>  <minimizedRMSD>  (1) 
0.731476665

$$$$
