
     RDKit          3D

 37 39  0  0  0  0  0  0  0  0999 V2000
   37.2690   22.5580   37.1320 C   0  0  0  0  0  0  0  0  0  0  0  0
   36.9710   21.9020   35.8650 C   0  0  0  0  0  0  0  0  0  0  0  0
   35.8910   21.1500   35.6350 C   0  0  0  0  0  0  0  0  0  0  0  0
   35.5820   20.5480   34.4610 C   0  0  0  0  0  0  0  0  0  0  0  0
   36.5890   20.8210   33.4580 C   0  0  0  0  0  0  0  0  0  0  0  0
   37.8490   21.9040   34.3180 S   0  0  0  0  0  0  0  0  0  0  0  0
   36.7590   20.4300   32.0940 C   0  0  0  0  0  0  0  0  0  0  0  0
   35.9250   19.5720   31.4340 C   0  0  0  0  0  0  0  0  0  0  0  0
   36.7220   19.4700   29.7320 S   0  0  0  0  0  0  0  0  0  0  0  0
   38.0560   20.6500   30.3020 C   0  0  0  0  0  0  0  0  0  0  0  0
   37.7260   20.8300   31.3560 N   0  0  0  0  0  0  0  0  0  0  0  0
   39.0990   20.9990   29.2940 C   0  0  0  0  0  0  0  0  0  0  0  0
   39.3790   22.1730   29.0130 O   0  0  0  0  0  0  0  0  0  0  0  0
   38.1540   23.7660   37.0250 C   0  0  0  0  0  0  0  0  0  0  0  0
   41.4460   21.9900   37.2420 C   0  0  0  0  0  0  0  0  0  0  0  0
   40.1360   22.3300   37.5330 C   0  0  0  0  0  0  0  0  0  0  0  0
   39.5210   23.3510   36.7860 C   0  0  0  0  0  0  0  0  0  0  0  0
   40.2570   23.9510   35.8150 N   0  0  0  0  0  0  0  0  0  0  0  0
   41.5340   23.5980   35.5540 C   0  0  0  0  0  0  0  0  0  0  0  0
   42.1240   22.6140   36.2740 N   0  0  0  0  0  0  0  0  0  0  0  0
   38.1110   24.5010   38.3640 C   0  0  0  0  0  0  0  0  0  0  0  0
   37.5850   24.6410   35.9300 C   0  0  0  0  0  0  0  0  0  0  0  0
   36.3176   22.8705   37.5871 H   0  0  0  0  0  0  0  0  0  0  0  0
   37.8206   21.8238   37.7375 H   0  0  0  0  0  0  0  0  0  0  0  0
   35.1915   21.0070   36.4718 H   0  0  0  0  0  0  0  0  0  0  0  0
   34.6852   19.9336   34.2927 H   0  0  0  0  0  0  0  0  0  0  0  0
   35.0190   19.0692   31.8032 H   0  0  0  0  0  0  0  0  0  0  0  0
   39.6374   20.1871   28.7832 H   0  0  0  0  0  0  0  0  0  0  0  0
   41.9376   21.1920   37.8178 H   0  0  0  0  0  0  0  0  0  0  0  0
   39.5867   21.8118   38.3328 H   0  0  0  0  0  0  0  0  0  0  0  0
   42.0946   24.1091   34.7574 H   0  0  0  0  0  0  0  0  0  0  0  0
   38.1538   23.7701   39.1850 H   0  0  0  0  0  0  0  0  0  0  0  0
   38.9708   25.1834   38.4355 H   0  0  0  0  0  0  0  0  0  0  0  0
   37.1775   25.0785   38.4355 H   0  0  0  0  0  0  0  0  0  0  0  0
   37.0378   25.4824   36.3801 H   0  0  0  0  0  0  0  0  0  0  0  0
   38.4047   25.0281   35.3068 H   0  0  0  0  0  0  0  0  0  0  0  0
   36.8988   24.0488   35.3068 H   0  0  0  0  0  0  0  0  0  0  0  0
  2  1  1  0
  3  2  2  0
  4  3  1  0
  5  6  1  0
  5  4  2  0
  6  2  1  0
  7  5  1  0
  8  7  2  0
  9 10  1  0
  9  8  1  0
 10 11  2  0
 11  7  1  0
 12 10  1  0
 13 12  2  0
 14  1  1  0
 14 21  1  0
 15 16  2  0
 17 14  1  0
 17 16  1  0
 18 17  2  0
 19 18  1  0
 19 20  2  0
 20 15  1  0
 22 14  1  0
  1 23  1  0
  1 24  1  0
  3 25  1  0
  4 26  1  0
  8 27  1  0
 12 28  1  0
 15 29  1  0
 16 30  1  0
 19 31  1  0
 21 32  1  0
 21 33  1  0
 21 34  1  0
 22 35  1  0
 22 36  1  0
 22 37  1  0
M  ISO  8  23   8  24   8  25  14  26  14  27  14  28   6  29  14  30  14
M  ISO  7  31  14  32   8  33   8  34   8  35   8  36   8  37   8
M  END
>  <minimizedAffinity>  (1) 
-4.46048689

>  <minimizedRMSD>  (1) 
0.267791271

$$$$
