
     RDKit          3D

 30 32  0  0  1  0  0  0  0  0999 V2000
   38.4790   22.5220   36.2880 C   0  0  0  0  0  0  0  0  0  0  0  0
   38.1080   23.7840   35.8020 C   0  0  0  0  0  0  0  0  0  0  0  0
   39.0980   24.6100   35.3060 C   0  0  0  0  0  0  0  0  0  0  0  0
   40.3940   24.1590   35.3130 N   0  0  0  0  0  0  0  0  0  0  0  0
   40.7150   22.9390   35.7890 C   0  0  0  0  0  0  0  0  0  0  0  0
   39.7750   22.1240   36.2720 N   0  0  0  0  0  0  0  0  0  0  0  0
   38.9400   25.9030   34.7770 N   0  0  0  0  0  0  0  0  0  0  0  0
   39.0040   27.1380   35.5630 C   0  0  0  0  0  0  0  0  0  0  0  0
   37.6860   27.8620   35.4710 C   0  0  0  0  0  0  0  0  0  0  0  0
   36.9090   27.3200   34.4350 O   0  0  0  0  0  0  0  0  0  0  0  0
   37.6270   27.2910   33.2480 C   0  0  0  0  0  0  0  0  0  0  0  0
   38.6950   26.2050   33.3870 C   0  0  2  0  0  0  0  0  0  0  0  0
   38.2070   24.9780   32.7120 C   0  0  0  0  0  0  0  0  0  0  0  0
   36.8650   24.7420   32.3920 C   0  0  0  0  0  0  0  0  0  0  0  0
   36.7050   23.5230   31.7690 C   0  0  0  0  0  0  0  0  0  0  0  0
   38.0000   23.0500   31.7360 C   0  0  0  0  0  0  0  0  0  0  0  0
   38.8170   23.9150   32.2850 O   0  0  0  0  0  0  0  0  0  0  0  0
   37.7085   21.8461   36.6874 H   0  0  0  0  0  0  0  0  0  0  0  0
   37.0568   24.1076   35.8154 H   0  0  0  0  0  0  0  0  0  0  0  0
   41.7650   22.6113   35.7791 H   0  0  0  0  0  0  0  0  0  0  0  0
   39.2148   26.8927   36.6144 H   0  0  0  0  0  0  0  0  0  0  0  0
   39.8039   27.7820   35.1687 H   0  0  0  0  0  0  0  0  0  0  0  0
   37.1461   27.7573   36.4237 H   0  0  0  0  0  0  0  0  0  0  0  0
   37.8734   28.9256   35.2618 H   0  0  0  0  0  0  0  0  0  0  0  0
   38.1034   28.2668   33.0726 H   0  0  0  0  0  0  0  0  0  0  0  0
   36.9633   27.0770   32.3973 H   0  0  0  0  0  0  0  0  0  0  0  0
   39.6309   26.5614   32.9319 H   0  0  0  0  0  0  0  0  0  0  0  0
   36.0432   25.4400   32.6098 H   0  0  0  0  0  0  0  0  0  0  0  0
   35.7845   23.0506   31.3955 H   0  0  0  0  0  0  0  0  0  0  0  0
   38.3042   22.0830   31.3090 H   0  0  0  0  0  0  0  0  0  0  0  0
  2  1  2  0
  3  4  2  0
  3  2  1  0
  4  5  1  0
  5  6  2  0
  6  1  1  0
  7  3  1  0
  7  8  1  0
  9  8  1  0
 10  9  1  0
 11 12  1  0
 11 10  1  0
 12  7  1  0
 13 12  1  0
 14 13  2  0
 15 14  1  0
 16 15  2  0
 16 17  1  0
 17 13  1  0
  1 18  1  0
  2 19  1  0
  5 20  1  0
  8 21  1  0
  8 22  1  0
  9 23  1  0
  9 24  1  0
 11 25  1  0
 11 26  1  0
 12 27  1  6
 14 28  1  0
 15 29  1  0
 16 30  1  0
M  ISO  8  18  14  19  14  20  14  21  13  22  13  23  13  24  13  25  13
M  ISO  5  26  13  27  13  28  14  29  14  30  14
M  END
>  <minimizedAffinity>  (1) 
-3.97401905

>  <minimizedRMSD>  (1) 
1.58820498

$$$$
