
     RDKit          3D

 29 31  0  0  1  0  0  0  0  0999 V2000
   39.6520   22.6990   37.6890 C   0  0  0  0  0  0  0  0  0  0  0  0
   39.0260   23.6390   36.8660 C   0  0  0  0  0  0  0  0  0  0  0  0
   39.7680   24.2350   35.8560 C   0  0  0  0  0  0  0  0  0  0  0  0
   41.0640   23.8680   35.7240 N   0  0  0  0  0  0  0  0  0  0  0  0
   41.6610   22.9700   36.5100 C   0  0  0  0  0  0  0  0  0  0  0  0
   40.9560   22.3790   37.5000 N   0  0  0  0  0  0  0  0  0  0  0  0
   39.3200   25.2040   34.9230 N   0  0  0  0  0  0  0  0  0  0  0  0
   39.3640   26.6490   35.1490 C   0  0  0  0  0  0  0  0  0  0  0  0
   37.9520   27.2020   35.1070 C   0  0  0  0  0  0  0  0  0  0  0  0
   37.0800   26.2570   34.5710 O   0  0  0  0  0  0  0  0  0  0  0  0
   37.5540   25.7720   33.3550 C   0  0  0  0  0  0  0  0  0  0  0  0
   38.7630   24.8950   33.6270 C   0  0  2  0  0  0  0  0  0  0  0  0
   38.4590   23.4920   33.4450 N   0  0  0  0  0  0  0  0  0  0  0  0
   39.2660   22.6090   32.8340 C   0  0  0  0  0  0  0  0  0  0  0  0
   38.6810   21.3790   32.8340 N   0  0  0  0  0  0  0  0  0  0  0  0
   37.5070   21.5570   33.4610 C   0  0  0  0  0  0  0  0  0  0  0  0
   37.3730   22.8230   33.8270 N   0  0  0  0  0  0  0  0  0  0  0  0
   39.0826   22.2150   38.4962 H   0  0  0  0  0  0  0  0  0  0  0  0
   37.9681   23.9008   37.0155 H   0  0  0  0  0  0  0  0  0  0  0  0
   42.7190   22.7127   36.3533 H   0  0  0  0  0  0  0  0  0  0  0  0
   39.8107   26.8543   36.1330 H   0  0  0  0  0  0  0  0  0  0  0  0
   39.9725   27.1276   34.3675 H   0  0  0  0  0  0  0  0  0  0  0  0
   37.6305   27.4549   36.1281 H   0  0  0  0  0  0  0  0  0  0  0  0
   37.9381   28.1020   34.4747 H   0  0  0  0  0  0  0  0  0  0  0  0
   37.8431   26.6126   32.7071 H   0  0  0  0  0  0  0  0  0  0  0  0
   36.7702   25.1887   32.8495 H   0  0  0  0  0  0  0  0  0  0  0  0
   39.5421   25.1183   32.8833 H   0  0  0  0  0  0  0  0  0  0  0  0
   40.2492   22.8435   32.3999 H   0  0  0  0  0  0  0  0  0  0  0  0
   36.7644   20.7664   33.6441 H   0  0  0  0  0  0  0  0  0  0  0  0
  2  1  2  0
  3  2  1  0
  4  3  2  0
  4  5  1  0
  5  6  2  0
  6  1  1  0
  7  8  1  0
  7  3  1  0
  9  8  1  0
 10  9  1  0
 11 12  1  0
 11 10  1  0
 12  7  1  0
 13 12  1  0
 13 17  1  0
 14 15  2  0
 14 13  1  0
 15 16  1  0
 16 17  2  0
  1 18  1  0
  2 19  1  0
  5 20  1  0
  8 21  1  0
  8 22  1  0
  9 23  1  0
  9 24  1  0
 11 25  1  0
 11 26  1  0
 12 27  1  6
 14 28  1  0
 16 29  1  0
M  ISO  8  18  14  19  14  20  14  21  13  22  13  23  13  24  13  25  13
M  ISO  4  26  13  27  13  28  14  29  14
M  END
>  <minimizedAffinity>  (1) 
-3.90306115

>  <minimizedRMSD>  (1) 
0.985880673

$$$$
