
     RDKit          3D

 24 25  0  0  1  0  0  0  0  0999 V2000
   39.2360   22.8480   37.8450 C   0  0  0  0  0  0  0  0  0  0  0  0
   38.6670   23.8720   37.0720 C   0  0  0  0  0  0  0  0  0  0  0  0
   39.4280   24.3800   36.0260 C   0  0  0  0  0  0  0  0  0  0  0  0
   40.6760   23.8740   35.7940 N   0  0  0  0  0  0  0  0  0  0  0  0
   41.1800   22.8900   36.5650 C   0  0  0  0  0  0  0  0  0  0  0  0
   40.4790   22.3780   37.5770 N   0  0  0  0  0  0  0  0  0  0  0  0
   39.0360   25.4080   35.1250 N   0  0  0  0  0  0  0  0  0  0  0  0
   39.2760   26.8190   35.3170 C   0  0  0  0  0  0  0  0  0  0  0  0
   37.9450   27.5430   35.3640 C   0  0  0  0  0  0  0  0  0  0  0  0
   36.9210   26.7110   34.8980 O   0  0  0  0  0  0  0  0  0  0  0  0
   37.2650   26.1900   33.6390 C   0  0  0  0  0  0  0  0  0  0  0  0
   38.3300   25.1460   33.8700 C   0  0  2  0  0  0  0  0  0  0  0  0
   37.7080   23.9110   33.9550 O   0  0  0  0  0  0  0  0  0  0  0  0
   38.6643   22.4200   38.6816 H   0  0  0  0  0  0  0  0  0  0  0  0
   37.6590   24.2571   37.2856 H   0  0  0  0  0  0  0  0  0  0  0  0
   42.1879   22.5023   36.3555 H   0  0  0  0  0  0  0  0  0  0  0  0
   39.8152   26.9762   36.2628 H   0  0  0  0  0  0  0  0  0  0  0  0
   39.8829   27.2095   34.4868 H   0  0  0  0  0  0  0  0  0  0  0  0
   37.7289   27.8375   36.4016 H   0  0  0  0  0  0  0  0  0  0  0  0
   38.0006   28.4345   34.7221 H   0  0  0  0  0  0  0  0  0  0  0  0
   37.6543   26.9903   32.9925 H   0  0  0  0  0  0  0  0  0  0  0  0
   36.3869   25.7520   33.1420 H   0  0  0  0  0  0  0  0  0  0  0  0
   39.0556   25.1683   33.0435 H   0  0  0  0  0  0  0  0  0  0  0  0
   37.5856   23.6680   34.9069 H   0  0  0  0  0  0  0  0  0  0  0  0
  2  1  2  0
  3  2  1  0
  4  3  2  0
  4  5  1  0
  5  6  2  0
  6  1  1  0
  7  8  1  0
  7  3  1  0
  8  9  1  0
 10  9  1  0
 11 12  1  0
 11 10  1  0
 12 13  1  0
 12  7  1  0
  1 14  1  0
  2 15  1  0
  5 16  1  0
  8 17  1  0
  8 18  1  0
  9 19  1  0
  9 20  1  0
 11 21  1  0
 11 22  1  0
 12 23  1  6
 13 24  1  0
M  ISO  8  14  14  15  14  16  14  17  13  18  13  19  13  20  13  21  13
M  ISO  3  22  13  23  13  24   3
M  END
>  <minimizedAffinity>  (1) 
-3.78884792

>  <minimizedRMSD>  (1) 
0.164429262

$$$$
