
     RDKit          3D

 41 43  0  0  0  0  0  0  0  0999 V2000
   37.2560   22.5780   37.1160 C   0  0  0  0  0  0  0  0  0  0  0  0
   36.9590   21.9070   35.8540 C   0  0  0  0  0  0  0  0  0  0  0  0
   35.8630   21.1590   35.6270 C   0  0  0  0  0  0  0  0  0  0  0  0
   35.6020   20.5390   34.4480 C   0  0  0  0  0  0  0  0  0  0  0  0
   36.6300   20.7740   33.4660 C   0  0  0  0  0  0  0  0  0  0  0  0
   37.8750   21.8590   34.3270 S   0  0  0  0  0  0  0  0  0  0  0  0
   36.7900   20.3710   32.1030 C   0  0  0  0  0  0  0  0  0  0  0  0
   35.9720   19.5430   31.4410 C   0  0  0  0  0  0  0  0  0  0  0  0
   36.7060   19.4590   29.7200 S   0  0  0  0  0  0  0  0  0  0  0  0
   38.0680   20.6450   30.3000 C   0  0  0  0  0  0  0  0  0  0  0  0
   37.7660   20.8050   31.3540 N   0  0  0  0  0  0  0  0  0  0  0  0
   39.1100   21.0200   29.2480 C   0  0  0  0  0  0  0  0  0  0  0  0
   39.4530   22.4680   29.3440 C   0  0  0  0  0  0  0  0  0  0  0  0
   38.1490   23.7710   37.0070 C   0  0  0  0  0  0  0  0  0  0  0  0
   41.4420   21.9950   37.2480 C   0  0  0  0  0  0  0  0  0  0  0  0
   40.1290   22.3310   37.5340 C   0  0  0  0  0  0  0  0  0  0  0  0
   39.5180   23.3510   36.7830 C   0  0  0  0  0  0  0  0  0  0  0  0
   40.2500   23.9650   35.8030 N   0  0  0  0  0  0  0  0  0  0  0  0
   41.5310   23.6040   35.5590 C   0  0  0  0  0  0  0  0  0  0  0  0
   42.1170   22.6250   36.2780 N   0  0  0  0  0  0  0  0  0  0  0  0
   38.1040   24.5040   38.3500 C   0  0  0  0  0  0  0  0  0  0  0  0
   37.5680   24.6380   35.9140 C   0  0  0  0  0  0  0  0  0  0  0  0
   36.3041   22.9048   37.5600 H   0  0  0  0  0  0  0  0  0  0  0  0
   37.7989   21.8453   37.7311 H   0  0  0  0  0  0  0  0  0  0  0  0
   35.1364   21.0435   36.4448 H   0  0  0  0  0  0  0  0  0  0  0  0
   34.7071   19.9266   34.2632 H   0  0  0  0  0  0  0  0  0  0  0  0
   35.0757   19.0304   31.8204 H   0  0  0  0  0  0  0  0  0  0  0  0
   38.7054   20.8096   28.2470 H   0  0  0  0  0  0  0  0  0  0  0  0
   40.0200   20.4270   29.4221 H   0  0  0  0  0  0  0  0  0  0  0  0
   39.5220   22.7591   30.4025 H   0  0  0  0  0  0  0  0  0  0  0  0
   40.4190   22.6495   28.8501 H   0  0  0  0  0  0  0  0  0  0  0  0
   38.6711   23.0636   28.8501 H   0  0  0  0  0  0  0  0  0  0  0  0
   41.9368   21.2001   37.8253 H   0  0  0  0  0  0  0  0  0  0  0  0
   39.5765   21.8116   38.3308 H   0  0  0  0  0  0  0  0  0  0  0  0
   42.0995   24.1136   34.7671 H   0  0  0  0  0  0  0  0  0  0  0  0
   38.1490   23.7714   39.1693 H   0  0  0  0  0  0  0  0  0  0  0  0
   38.9618   25.1887   38.4229 H   0  0  0  0  0  0  0  0  0  0  0  0
   37.1689   25.0787   38.4229 H   0  0  0  0  0  0  0  0  0  0  0  0
   37.0095   25.4714   36.3650 H   0  0  0  0  0  0  0  0  0  0  0  0
   38.3819   25.0368   35.2907 H   0  0  0  0  0  0  0  0  0  0  0  0
   36.8897   24.0368   35.2907 H   0  0  0  0  0  0  0  0  0  0  0  0
  2  1  1  0
  3  2  2  0
  4  3  1  0
  5  6  1  0
  5  4  2  0
  6  2  1  0
  7  5  1  0
  8  7  2  0
  9 10  1  0
  9  8  1  0
 10 11  2  0
 11  7  1  0
 12 13  1  0
 12 10  1  0
 14  1  1  0
 14 21  1  0
 15 16  2  0
 17 14  1  0
 17 16  1  0
 18 17  2  0
 19 18  1  0
 19 20  2  0
 20 15  1  0
 22 14  1  0
  1 23  1  0
  1 24  1  0
  3 25  1  0
  4 26  1  0
  8 27  1  0
 12 28  1  0
 12 29  1  0
 13 30  1  0
 13 31  1  0
 13 32  1  0
 15 33  1  0
 16 34  1  0
 19 35  1  0
 21 36  1  0
 21 37  1  0
 21 38  1  0
 22 39  1  0
 22 40  1  0
 22 41  1  0
M  ISO  8  23   8  24   8  25  14  26  14  27  14  28   8  29   8  30   8
M  ISO  8  31   8  32   8  33  14  34  14  35  14  36   8  37   8  38   8
M  ISO  3  39   8  40   8  41   8
M  END
>  <minimizedAffinity>  (1) 
-4.45203686

>  <minimizedRMSD>  (1) 
0.219208375

$$$$
