
     RDKit          3D

 47 50  0  0  1  0  0  0  0  0999 V2000
   38.4970   22.4980   35.9120 C   0  0  0  0  0  0  0  0  0  0  0  0
   38.1020   23.7530   35.4260 C   0  0  0  0  0  0  0  0  0  0  0  0
   39.0500   24.7060   35.2190 C   0  0  0  0  0  0  0  0  0  0  0  0
   40.3650   24.3910   35.4980 N   0  0  0  0  0  0  0  0  0  0  0  0
   40.7250   23.1880   35.9620 C   0  0  0  0  0  0  0  0  0  0  0  0
   39.7980   22.2380   36.1710 N   0  0  0  0  0  0  0  0  0  0  0  0
   38.8710   26.0090   34.7520 N   0  0  0  0  0  0  0  0  0  0  0  0
   38.5850   27.1710   35.6130 C   0  0  0  0  0  0  0  0  0  0  0  0
   37.2770   27.7800   35.2270 C   0  0  0  0  0  0  0  0  0  0  0  0
   36.8670   27.2720   33.9890 O   0  0  0  0  0  0  0  0  0  0  0  0
   37.8830   27.4290   33.0500 C   0  0  0  0  0  0  0  0  0  0  0  0
   38.9790   26.4410   33.3350 C   0  0  2  0  0  0  0  0  0  0  0  0
   39.0890   25.3720   32.3650 C   0  0  0  0  0  0  0  0  0  0  0  0
   37.9190   24.8340   31.7760 C   0  0  0  0  0  0  0  0  0  0  0  0
   37.9080   23.8350   30.8240 C   0  0  0  0  0  0  0  0  0  0  0  0
   39.1060   23.3200   30.4140 C   0  0  0  0  0  0  0  0  0  0  0  0
   40.2760   23.7950   30.9440 C   0  0  0  0  0  0  0  0  0  0  0  0
   40.2350   24.7950   31.8880 C   0  0  0  0  0  0  0  0  0  0  0  0
   41.5160   25.2370   32.3190 N   0  0  0  0  0  0  0  0  0  0  0  0
   41.8960   26.6100   31.9250 C   0  0  0  0  0  0  0  0  0  0  0  0
   41.9200   27.5200   33.1040 C   0  0  0  0  0  0  0  0  0  0  0  0
   42.4400   26.8830   34.2980 N   0  0  0  0  0  0  0  0  0  0  0  0
   43.3710   25.8810   33.8170 C   0  0  0  0  0  0  0  0  0  0  0  0
   42.6150   24.7310   33.1100 C   0  0  0  0  0  0  0  0  0  0  0  0
   37.7409   21.7178   36.0840 H   0  0  0  0  0  0  0  0  0  0  0  0
   37.0429   23.9630   35.2157 H   0  0  0  0  0  0  0  0  0  0  0  0
   41.7836   22.9764   36.1730 H   0  0  0  0  0  0  0  0  0  0  0  0
   38.5399   26.8449   36.6626 H   0  0  0  0  0  0  0  0  0  0  0  0
   39.3828   27.9182   35.4897 H   0  0  0  0  0  0  0  0  0  0  0  0
   36.5220   27.5383   35.9896 H   0  0  0  0  0  0  0  0  0  0  0  0
   37.3912   28.8716   35.1530 H   0  0  0  0  0  0  0  0  0  0  0  0
   38.2847   28.4512   33.1106 H   0  0  0  0  0  0  0  0  0  0  0  0
   37.4824   27.2543   32.0406 H   0  0  0  0  0  0  0  0  0  0  0  0
   39.9516   26.9391   33.2086 H   0  0  0  0  0  0  0  0  0  0  0  0
   36.9500   25.2413   32.1004 H   0  0  0  0  0  0  0  0  0  0  0  0
   36.9607   23.4632   30.4064 H   0  0  0  0  0  0  0  0  0  0  0  0
   39.1303   22.5224   29.6568 H   0  0  0  0  0  0  0  0  0  0  0  0
   41.2411   23.3802   30.6175 H   0  0  0  0  0  0  0  0  0  0  0  0
   42.8962   26.5885   31.4676 H   0  0  0  0  0  0  0  0  0  0  0  0
   41.1508   26.9864   31.2088 H   0  0  0  0  0  0  0  0  0  0  0  0
   42.5528   28.3874   32.8650 H   0  0  0  0  0  0  0  0  0  0  0  0
   40.8815   27.8161   33.3135 H   0  0  0  0  0  0  0  0  0  0  0  0
   42.9242   27.5705   34.8929 H   0  0  0  0  0  0  0  0  0  0  0  0
   44.0680   26.3471   33.1050 H   0  0  0  0  0  0  0  0  0  0  0  0
   43.9229   25.4685   34.6745 H   0  0  0  0  0  0  0  0  0  0  0  0
   42.2218   24.0395   33.8698 H   0  0  0  0  0  0  0  0  0  0  0  0
   43.3168   24.2126   32.4401 H   0  0  0  0  0  0  0  0  0  0  0  0
  1  6  2  0
  2  1  1  0
  3  2  2  0
  3  4  1  0
  4  5  2  0
  5  6  1  0
  7  3  1  0
  7  8  1  0
  9  8  1  0
 10  9  1  0
 11 12  1  0
 11 10  1  0
 12  7  1  0
 13 12  1  0
 14 13  2  0
 15 14  1  0
 16 15  2  0
 16 17  1  0
 17 18  2  0
 18 19  1  0
 18 13  1  0
 19 24  1  0
 20 19  1  0
 20 21  1  0
 21 22  1  0
 23 22  1  0
 24 23  1  0
  1 25  1  0
  2 26  1  0
  5 27  1  0
  8 28  1  0
  8 29  1  0
  9 30  1  0
  9 31  1  0
 11 32  1  0
 11 33  1  0
 12 34  1  1
 14 35  1  0
 15 36  1  0
 16 37  1  0
 17 38  1  0
 20 39  1  0
 20 40  1  0
 21 41  1  0
 21 42  1  0
 22 43  1  0
 23 44  1  0
 23 45  1  0
 24 46  1  0
 24 47  1  0
M  ISO  8  25  14  26  14  27  14  28  13  29  13  30  13  31  13  32  13
M  ISO  8  33  13  34  13  35  14  36  14  37  14  38  14  39  13  40  13
M  ISO  7  41  13  42  13  43   5  44  13  45  13  46  13  47  13
M  END
>  <minimizedAffinity>  (1) 
-4.63378191

>  <minimizedRMSD>  (1) 
1.33559763

$$$$
