
     RDKit          3D

 46 49  0  0  1  0  0  0  0  0999 V2000
   38.5040   22.5810   36.1850 C   0  0  0  0  0  0  0  0  0  0  0  0
   38.1010   23.8540   35.7660 C   0  0  0  0  0  0  0  0  0  0  0  0
   39.0150   24.7010   35.2220 C   0  0  0  0  0  0  0  0  0  0  0  0
   40.2910   24.2370   35.1200 N   0  0  0  0  0  0  0  0  0  0  0  0
   40.6810   23.0290   35.5160 C   0  0  0  0  0  0  0  0  0  0  0  0
   39.7860   22.1920   36.0520 N   0  0  0  0  0  0  0  0  0  0  0  0
   38.8170   25.9990   34.7540 N   0  0  0  0  0  0  0  0  0  0  0  0
   38.9170   27.2090   35.5890 C   0  0  0  0  0  0  0  0  0  0  0  0
   37.6130   27.9380   35.5930 C   0  0  0  0  0  0  0  0  0  0  0  0
   36.7870   27.4230   34.5840 O   0  0  0  0  0  0  0  0  0  0  0  0
   37.4620   27.4470   33.3620 C   0  0  0  0  0  0  0  0  0  0  0  0
   38.5120   26.3780   33.3520 C   0  0  2  0  0  0  0  0  0  0  0  0
   38.2220   25.2670   32.4600 C   0  0  0  0  0  0  0  0  0  0  0  0
   36.9300   24.6830   32.4840 C   0  0  0  0  0  0  0  0  0  0  0  0
   36.5150   23.6410   31.6800 C   0  0  0  0  0  0  0  0  0  0  0  0
   37.4430   23.1240   30.7760 C   0  0  0  0  0  0  0  0  0  0  0  0
   38.7250   23.6630   30.7140 C   0  0  0  0  0  0  0  0  0  0  0  0
   39.0450   24.6880   31.5350 C   0  0  0  0  0  0  0  0  0  0  0  0
   40.3650   25.1760   31.3440 N   0  0  0  0  0  0  0  0  0  0  0  0
   41.6290   24.9220   32.0500 C   0  0  0  0  0  0  0  0  0  0  0  0
   42.3950   26.2180   32.2640 C   0  0  0  0  0  0  0  0  0  0  0  0
   41.6250   27.3420   32.1270 O   0  0  0  0  0  0  0  0  0  0  0  0
   41.0090   27.4780   30.9120 C   0  0  0  0  0  0  0  0  0  0  0  0
   40.6770   26.1690   30.2910 C   0  0  0  0  0  0  0  0  0  0  0  0
   37.7678   21.8931   36.6263 H   0  0  0  0  0  0  0  0  0  0  0  0
   37.0523   24.1671   35.8760 H   0  0  0  0  0  0  0  0  0  0  0  0
   41.7309   22.7207   35.4037 H   0  0  0  0  0  0  0  0  0  0  0  0
   39.1759   26.9205   36.6184 H   0  0  0  0  0  0  0  0  0  0  0  0
   39.6967   27.8672   35.1780 H   0  0  0  0  0  0  0  0  0  0  0  0
   37.1234   27.8085   36.5695 H   0  0  0  0  0  0  0  0  0  0  0  0
   37.7905   29.0082   35.4111 H   0  0  0  0  0  0  0  0  0  0  0  0
   36.7479   27.2676   32.5448 H   0  0  0  0  0  0  0  0  0  0  0  0
   37.9369   28.4296   33.2239 H   0  0  0  0  0  0  0  0  0  0  0  0
   39.4316   26.7832   32.9046 H   0  0  0  0  0  0  0  0  0  0  0  0
   36.2017   25.0926   33.1994 H   0  0  0  0  0  0  0  0  0  0  0  0
   35.4950   23.2351   31.7491 H   0  0  0  0  0  0  0  0  0  0  0  0
   37.1624   22.2920   30.1134 H   0  0  0  0  0  0  0  0  0  0  0  0
   39.4663   23.2609   30.0077 H   0  0  0  0  0  0  0  0  0  0  0  0
   41.4115   24.4656   33.0269 H   0  0  0  0  0  0  0  0  0  0  0  0
   42.2444   24.2440   31.4405 H   0  0  0  0  0  0  0  0  0  0  0  0
   42.8172   26.2081   33.2797 H   0  0  0  0  0  0  0  0  0  0  0  0
   43.1719   26.2641   31.4867 H   0  0  0  0  0  0  0  0  0  0  0  0
   40.0788   28.0486   31.0503 H   0  0  0  0  0  0  0  0  0  0  0  0
   41.7074   27.9984   30.2402 H   0  0  0  0  0  0  0  0  0  0  0  0
   39.8041   26.2887   29.6325 H   0  0  0  0  0  0  0  0  0  0  0  0
   41.5392   25.8170   29.7055 H   0  0  0  0  0  0  0  0  0  0  0  0
  2  1  2  0
  3  2  1  0
  4  3  2  0
  4  5  1  0
  5  6  2  0
  6  1  1  0
  7  3  1  0
  7  8  1  0
  8  9  1  0
 10  9  1  0
 11 10  1  0
 12 11  1  0
 12  7  1  0
 13 14  2  0
 13 12  1  0
 15 14  1  0
 16 15  2  0
 17 16  1  0
 17 18  2  0
 18 13  1  0
 19 18  1  0
 19 20  1  0
 20 21  1  0
 22 21  1  0
 23 22  1  0
 24 23  1  0
 24 19  1  0
  1 25  1  0
  2 26  1  0
  5 27  1  0
  8 28  1  0
  8 29  1  0
  9 30  1  0
  9 31  1  0
 11 32  1  0
 11 33  1  0
 12 34  1  6
 14 35  1  0
 15 36  1  0
 16 37  1  0
 17 38  1  0
 20 39  1  0
 20 40  1  0
 21 41  1  0
 21 42  1  0
 23 43  1  0
 23 44  1  0
 24 45  1  0
 24 46  1  0
M  ISO  8  25  14  26  14  27  14  28  13  29  13  30  13  31  13  32  13
M  ISO  8  33  13  34  13  35  14  36  14  37  14  38  14  39  13  40  13
M  ISO  6  41  13  42  13  43  13  44  13  45  13  46  13
M  END
>  <minimizedAffinity>  (1) 
-4.52312374

>  <minimizedRMSD>  (1) 
1.23796034

$$$$
