
     RDKit          3D

 41 44  0  0  1  0  0  0  0  0999 V2000
   38.4870   22.5520   36.2180 C   0  0  0  0  0  0  0  0  0  0  0  0
   38.1010   23.8250   35.7830 C   0  0  0  0  0  0  0  0  0  0  0  0
   39.0280   24.6600   35.2450 C   0  0  0  0  0  0  0  0  0  0  0  0
   40.3030   24.1800   35.1680 N   0  0  0  0  0  0  0  0  0  0  0  0
   40.6770   22.9750   35.5770 C   0  0  0  0  0  0  0  0  0  0  0  0
   39.7670   22.1500   36.1080 N   0  0  0  0  0  0  0  0  0  0  0  0
   38.8490   25.9520   34.7520 N   0  0  0  0  0  0  0  0  0  0  0  0
   38.9520   27.1670   35.5810 C   0  0  0  0  0  0  0  0  0  0  0  0
   37.6530   27.9060   35.5600 C   0  0  0  0  0  0  0  0  0  0  0  0
   36.8250   27.3680   34.5620 O   0  0  0  0  0  0  0  0  0  0  0  0
   37.5070   27.3880   33.3470 C   0  0  0  0  0  0  0  0  0  0  0  0
   38.5670   26.3240   33.3420 C   0  0  2  0  0  0  0  0  0  0  0  0
   38.2940   25.1990   32.4590 C   0  0  0  0  0  0  0  0  0  0  0  0
   36.9700   24.6830   32.4150 C   0  0  0  0  0  0  0  0  0  0  0  0
   36.5460   23.6460   31.6140 C   0  0  0  0  0  0  0  0  0  0  0  0
   37.4970   23.0650   30.7860 C   0  0  0  0  0  0  0  0  0  0  0  0
   38.7950   23.5250   30.7870 C   0  0  0  0  0  0  0  0  0  0  0  0
   39.1500   24.5620   31.6040 C   0  0  0  0  0  0  0  0  0  0  0  0
   40.5080   25.0130   31.5290 C   0  0  0  0  0  0  0  0  0  0  0  0
   40.8960   25.9730   30.6110 C   0  0  0  0  0  0  0  0  0  0  0  0
   42.1600   26.4930   30.4260 C   0  0  0  0  0  0  0  0  0  0  0  0
   43.1410   26.0220   31.2230 N   0  0  0  0  0  0  0  0  0  0  0  0
   42.8260   25.0870   32.1330 C   0  0  0  0  0  0  0  0  0  0  0  0
   41.5870   24.7020   32.1810 N   0  0  0  0  0  0  0  0  0  0  0  0
   37.7381   21.8742   36.6535 H   0  0  0  0  0  0  0  0  0  0  0  0
   37.0535   24.1475   35.8761 H   0  0  0  0  0  0  0  0  0  0  0  0
   41.7255   22.6567   35.4806 H   0  0  0  0  0  0  0  0  0  0  0  0
   39.1941   26.8835   36.6159 H   0  0  0  0  0  0  0  0  0  0  0  0
   39.7449   27.8148   35.1789 H   0  0  0  0  0  0  0  0  0  0  0  0
   37.1595   27.8080   36.5382 H   0  0  0  0  0  0  0  0  0  0  0  0
   37.8392   28.9693   35.3483 H   0  0  0  0  0  0  0  0  0  0  0  0
   36.7980   27.2012   32.5270 H   0  0  0  0  0  0  0  0  0  0  0  0
   37.9791   28.3722   33.2113 H   0  0  0  0  0  0  0  0  0  0  0  0
   39.4829   26.7338   32.8912 H   0  0  0  0  0  0  0  0  0  0  0  0
   36.2235   25.1500   33.0743 H   0  0  0  0  0  0  0  0  0  0  0  0
   35.5037   23.2948   31.6295 H   0  0  0  0  0  0  0  0  0  0  0  0
   37.2121   22.2327   30.1256 H   0  0  0  0  0  0  0  0  0  0  0  0
   39.5451   23.0587   30.1313 H   0  0  0  0  0  0  0  0  0  0  0  0
   40.1063   26.3662   29.9539 H   0  0  0  0  0  0  0  0  0  0  0  0
   42.3594   27.2586   29.6617 H   0  0  0  0  0  0  0  0  0  0  0  0
   43.5846   24.6652   32.8087 H   0  0  0  0  0  0  0  0  0  0  0  0
  2  1  2  0
  3  2  1  0
  4  3  2  0
  4  5  1  0
  5  6  2  0
  6  1  1  0
  7  3  1  0
  7  8  1  0
  9  8  1  0
 10  9  1  0
 11 10  1  0
 12 11  1  0
 12  7  1  0
 13 12  1  0
 14 13  2  0
 15 14  1  0
 16 17  1  0
 16 15  2  0
 17 18  2  0
 18 13  1  0
 19 18  1  0
 19 24  1  0
 20 19  2  0
 21 20  1  0
 21 22  2  0
 22 23  1  0
 23 24  2  0
  1 25  1  0
  2 26  1  0
  5 27  1  0
  8 28  1  0
  8 29  1  0
  9 30  1  0
  9 31  1  0
 11 32  1  0
 11 33  1  0
 12 34  1  6
 14 35  1  0
 15 36  1  0
 16 37  1  0
 17 38  1  0
 20 39  1  0
 21 40  1  0
 23 41  1  0
M  ISO  8  25  14  26  14  27  14  28  13  29  13  30  13  31  13  32  13
M  ISO  8  33  13  34  13  35  14  36  14  37  14  38  14  39  14  40  14
M  ISO  1  41  14
M  END
>  <minimizedAffinity>  (1) 
-4.45903873

>  <minimizedRMSD>  (1) 
0.620469093

$$$$
