
     RDKit          3D

 40 43  0  0  1  0  0  0  0  0999 V2000
   38.5060   22.5670   36.2350 C   0  0  0  0  0  0  0  0  0  0  0  0
   38.1030   23.8380   35.8110 C   0  0  0  0  0  0  0  0  0  0  0  0
   39.0080   24.6620   35.2190 C   0  0  0  0  0  0  0  0  0  0  0  0
   40.2780   24.1790   35.0750 N   0  0  0  0  0  0  0  0  0  0  0  0
   40.6680   22.9720   35.4760 C   0  0  0  0  0  0  0  0  0  0  0  0
   39.7830   22.1560   36.0580 N   0  0  0  0  0  0  0  0  0  0  0  0
   38.8110   25.9530   34.7280 N   0  0  0  0  0  0  0  0  0  0  0  0
   38.9620   27.1770   35.5350 C   0  0  0  0  0  0  0  0  0  0  0  0
   37.6700   27.9250   35.5790 C   0  0  0  0  0  0  0  0  0  0  0  0
   36.8000   27.4070   34.6080 O   0  0  0  0  0  0  0  0  0  0  0  0
   37.4150   27.3880   33.3660 C   0  0  0  0  0  0  0  0  0  0  0  0
   38.4590   26.3130   33.3310 C   0  0  2  0  0  0  0  0  0  0  0  0
   38.1230   25.1870   32.4770 C   0  0  0  0  0  0  0  0  0  0  0  0
   36.8040   24.6710   32.5010 C   0  0  0  0  0  0  0  0  0  0  0  0
   36.3440   23.6340   31.7140 C   0  0  0  0  0  0  0  0  0  0  0  0
   37.2430   23.0550   30.8350 C   0  0  0  0  0  0  0  0  0  0  0  0
   38.5300   23.5130   30.7690 C   0  0  0  0  0  0  0  0  0  0  0  0
   38.9450   24.5550   31.5730 C   0  0  0  0  0  0  0  0  0  0  0  0
   40.3230   25.0220   31.4310 C   0  0  0  0  0  0  0  0  0  0  0  0
   40.7340   25.8810   30.4150 C   0  0  0  0  0  0  0  0  0  0  0  0
   42.0760   26.1870   30.4760 C   0  0  0  0  0  0  0  0  0  0  0  0
   42.4410   25.4600   31.5880 C   0  0  0  0  0  0  0  0  0  0  0  0
   41.4130   24.8340   32.0690 O   0  0  0  0  0  0  0  0  0  0  0  0
   37.7788   21.8964   36.7161 H   0  0  0  0  0  0  0  0  0  0  0  0
   37.0635   24.1675   35.9553 H   0  0  0  0  0  0  0  0  0  0  0  0
   41.7091   22.6482   35.3301 H   0  0  0  0  0  0  0  0  0  0  0  0
   39.2594   26.9039   36.5582 H   0  0  0  0  0  0  0  0  0  0  0  0
   39.7328   27.8160   35.0794 H   0  0  0  0  0  0  0  0  0  0  0  0
   37.2159   27.8154   36.5749 H   0  0  0  0  0  0  0  0  0  0  0  0
   37.8545   28.9905   35.3771 H   0  0  0  0  0  0  0  0  0  0  0  0
   36.6619   27.1907   32.5889 H   0  0  0  0  0  0  0  0  0  0  0  0
   37.8916   28.3623   33.1825 H   0  0  0  0  0  0  0  0  0  0  0  0
   39.3614   26.7055   32.8395 H   0  0  0  0  0  0  0  0  0  0  0  0
   36.0913   25.1320   33.2006 H   0  0  0  0  0  0  0  0  0  0  0  0
   35.3042   23.2818   31.7828 H   0  0  0  0  0  0  0  0  0  0  0  0
   36.9217   22.2251   30.1885 H   0  0  0  0  0  0  0  0  0  0  0  0
   39.2398   23.0472   30.0696 H   0  0  0  0  0  0  0  0  0  0  0  0
   40.0567   26.2749   29.6429 H   0  0  0  0  0  0  0  0  0  0  0  0
   42.6838   26.8297   29.8221 H   0  0  0  0  0  0  0  0  0  0  0  0
   43.4573   25.4171   32.0068 H   0  0  0  0  0  0  0  0  0  0  0  0
  2  1  2  0
  3  2  1  0
  4  3  2  0
  4  5  1  0
  5  6  2  0
  6  1  1  0
  7  3  1  0
  7  8  1  0
  8  9  1  0
 10  9  1  0
 11 10  1  0
 12 11  1  0
 12  7  1  0
 13 14  2  0
 13 12  1  0
 15 14  1  0
 16 15  2  0
 17 16  1  0
 17 18  2  0
 18 13  1  0
 19 18  1  0
 19 23  1  0
 20 21  1  0
 20 19  2  0
 21 22  2  0
 22 23  1  0
  1 24  1  0
  2 25  1  0
  5 26  1  0
  8 27  1  0
  8 28  1  0
  9 29  1  0
  9 30  1  0
 11 31  1  0
 11 32  1  0
 12 33  1  6
 14 34  1  0
 15 35  1  0
 16 36  1  0
 17 37  1  0
 20 38  1  0
 21 39  1  0
 22 40  1  0
M  ISO  8  24  14  25  14  26  14  27  13  28  13  29  13  30  13  31  13
M  ISO  8  32  13  33  13  34  14  35  14  36  14  37  14  38  14  39  14
M  ISO  1  40  14
M  END
>  <minimizedAffinity>  (1) 
-4.36209726

>  <minimizedRMSD>  (1) 
0.598342836

$$$$
