
     RDKit          3D

 40 43  0  0  1  0  0  0  0  0999 V2000
   38.5240   22.5540   36.2560 C   0  0  0  0  0  0  0  0  0  0  0  0
   38.1120   23.8260   35.8250 C   0  0  0  0  0  0  0  0  0  0  0  0
   39.0170   24.6330   35.2070 C   0  0  0  0  0  0  0  0  0  0  0  0
   40.3000   24.1590   35.0340 N   0  0  0  0  0  0  0  0  0  0  0  0
   40.6740   22.9420   35.4530 C   0  0  0  0  0  0  0  0  0  0  0  0
   39.7960   22.1380   36.0630 N   0  0  0  0  0  0  0  0  0  0  0  0
   38.8170   25.9210   34.7070 N   0  0  0  0  0  0  0  0  0  0  0  0
   38.9940   27.1580   35.4880 C   0  0  0  0  0  0  0  0  0  0  0  0
   37.6950   27.8930   35.5560 C   0  0  0  0  0  0  0  0  0  0  0  0
   36.8140   27.3940   34.5910 O   0  0  0  0  0  0  0  0  0  0  0  0
   37.4170   27.3600   33.3420 C   0  0  0  0  0  0  0  0  0  0  0  0
   38.4370   26.2570   33.3100 C   0  0  2  0  0  0  0  0  0  0  0  0
   38.0920   25.1350   32.4690 C   0  0  0  0  0  0  0  0  0  0  0  0
   36.7870   24.5880   32.5400 C   0  0  0  0  0  0  0  0  0  0  0  0
   36.3220   23.5370   31.7730 C   0  0  0  0  0  0  0  0  0  0  0  0
   37.1880   22.9780   30.8760 C   0  0  0  0  0  0  0  0  0  0  0  0
   38.4590   23.4560   30.7550 C   0  0  0  0  0  0  0  0  0  0  0  0
   38.8850   24.5180   31.5430 C   0  0  0  0  0  0  0  0  0  0  0  0
   40.2760   24.8490   31.2810 C   0  0  0  0  0  0  0  0  0  0  0  0
   41.4900   24.4560   31.7560 C   0  0  0  0  0  0  0  0  0  0  0  0
   42.5250   25.1510   31.2160 C   0  0  0  0  0  0  0  0  0  0  0  0
   41.9430   26.0120   30.3740 N   0  0  0  0  0  0  0  0  0  0  0  0
   40.6500   25.8090   30.4390 N   0  0  0  0  0  0  0  0  0  0  0  0
   37.8041   21.8893   36.7559 H   0  0  0  0  0  0  0  0  0  0  0  0
   37.0772   24.1635   35.9841 H   0  0  0  0  0  0  0  0  0  0  0  0
   41.7083   22.6026   35.2944 H   0  0  0  0  0  0  0  0  0  0  0  0
   39.3260   26.9050   36.5057 H   0  0  0  0  0  0  0  0  0  0  0  0
   39.7502   27.7931   35.0034 H   0  0  0  0  0  0  0  0  0  0  0  0
   37.2538   27.7620   36.5551 H   0  0  0  0  0  0  0  0  0  0  0  0
   37.8734   28.9615   35.3652 H   0  0  0  0  0  0  0  0  0  0  0  0
   36.6541   27.1768   32.5710 H   0  0  0  0  0  0  0  0  0  0  0  0
   37.9111   28.3231   33.1462 H   0  0  0  0  0  0  0  0  0  0  0  0
   39.3374   26.6229   32.7948 H   0  0  0  0  0  0  0  0  0  0  0  0
   36.0889   25.0353   33.2628 H   0  0  0  0  0  0  0  0  0  0  0  0
   35.2927   23.1641   31.8805 H   0  0  0  0  0  0  0  0  0  0  0  0
   36.8577   22.1375   30.2479 H   0  0  0  0  0  0  0  0  0  0  0  0
   39.1497   22.9992   30.0309 H   0  0  0  0  0  0  0  0  0  0  0  0
   41.6196   23.6572   32.5010 H   0  0  0  0  0  0  0  0  0  0  0  0
   43.5986   25.0324   31.4241 H   0  0  0  0  0  0  0  0  0  0  0  0
   42.4226   26.7064   29.7835 H   0  0  0  0  0  0  0  0  0  0  0  0
  2  1  2  0
  3  2  1  0
  4  3  2  0
  4  5  1  0
  5  6  2  0
  6  1  1  0
  7  3  1  0
  7  8  1  0
  8  9  1  0
 10  9  1  0
 11 10  1  0
 12 11  1  0
 12  7  1  0
 13 14  2  0
 13 12  1  0
 15 14  1  0
 16 15  2  0
 17 16  1  0
 17 18  2  0
 18 13  1  0
 19 18  1  0
 19 20  1  0
 21 20  2  0
 22 23  1  0
 22 21  1  0
 23 19  2  0
  1 24  1  0
  2 25  1  0
  5 26  1  0
  8 27  1  0
  8 28  1  0
  9 29  1  0
  9 30  1  0
 11 31  1  0
 11 32  1  0
 12 33  1  6
 14 34  1  0
 15 35  1  0
 16 36  1  0
 17 37  1  0
 20 38  1  0
 21 39  1  0
 22 40  1  0
M  ISO  8  24  14  25  14  26  14  27  13  28  13  29  13  30  13  31  13
M  ISO  8  32  13  33  13  34  14  35  14  36  14  37  14  38  14  39  14
M  ISO  1  40   9
M  END
>  <minimizedAffinity>  (1) 
-4.34502983

>  <minimizedRMSD>  (1) 
0.591506958

$$$$
