
     RDKit          3D

 35 37  0  0  1  0  0  0  0  0999 V2000
   38.4960   22.5540   36.4080 C   0  0  0  0  0  0  0  0  0  0  0  0
   38.1100   23.8100   35.9320 C   0  0  0  0  0  0  0  0  0  0  0  0
   39.0240   24.5920   35.2920 C   0  0  0  0  0  0  0  0  0  0  0  0
   40.3030   24.1000   35.1440 N   0  0  0  0  0  0  0  0  0  0  0  0
   40.6650   22.8980   35.6030 C   0  0  0  0  0  0  0  0  0  0  0  0
   39.7620   22.1180   36.2380 N   0  0  0  0  0  0  0  0  0  0  0  0
   38.8360   25.8670   34.7520 N   0  0  0  0  0  0  0  0  0  0  0  0
   39.0090   27.1200   35.5070 C   0  0  0  0  0  0  0  0  0  0  0  0
   37.7350   27.8950   35.5160 C   0  0  0  0  0  0  0  0  0  0  0  0
   36.8360   27.3470   34.5860 O   0  0  0  0  0  0  0  0  0  0  0  0
   37.4680   27.2760   33.3380 C   0  0  0  0  0  0  0  0  0  0  0  0
   38.4680   26.1680   33.3540 C   0  0  2  0  0  0  0  0  0  0  0  0
   38.1030   25.0130   32.5430 C   0  0  0  0  0  0  0  0  0  0  0  0
   36.7410   24.6600   32.4000 C   0  0  0  0  0  0  0  0  0  0  0  0
   36.2760   23.6180   31.6320 C   0  0  0  0  0  0  0  0  0  0  0  0
   37.2180   22.8590   30.9480 C   0  0  0  0  0  0  0  0  0  0  0  0
   38.5660   23.1520   31.0440 C   0  0  0  0  0  0  0  0  0  0  0  0
   38.9530   24.2040   31.8270 C   0  0  0  0  0  0  0  0  0  0  0  0
   40.3410   24.5000   31.9190 N   0  0  0  0  0  0  0  0  0  0  0  0
   37.7633   21.9166   36.9246 H   0  0  0  0  0  0  0  0  0  0  0  0
   37.0780   24.1639   36.0727 H   0  0  0  0  0  0  0  0  0  0  0  0
   41.6971   22.5438   35.4641 H   0  0  0  0  0  0  0  0  0  0  0  0
   39.2982   26.8839   36.5417 H   0  0  0  0  0  0  0  0  0  0  0  0
   39.7933   27.7235   35.0267 H   0  0  0  0  0  0  0  0  0  0  0  0
   37.2902   27.8541   36.5212 H   0  0  0  0  0  0  0  0  0  0  0  0
   37.9447   28.9402   35.2448 H   0  0  0  0  0  0  0  0  0  0  0  0
   37.9778   28.2282   33.1296 H   0  0  0  0  0  0  0  0  0  0  0  0
   36.7186   27.0849   32.5557 H   0  0  0  0  0  0  0  0  0  0  0  0
   39.3774   26.5120   32.8395 H   0  0  0  0  0  0  0  0  0  0  0  0
   35.9987   25.2633   32.9431 H   0  0  0  0  0  0  0  0  0  0  0  0
   35.2013   23.3943   31.5620 H   0  0  0  0  0  0  0  0  0  0  0  0
   36.8877   22.0159   30.3234 H   0  0  0  0  0  0  0  0  0  0  0  0
   39.3113   22.5514   30.5019 H   0  0  0  0  0  0  0  0  0  0  0  0
   40.6624   25.2865   32.5012 H   0  0  0  0  0  0  0  0  0  0  0  0
   41.0249   23.9278   31.4034 H   0  0  0  0  0  0  0  0  0  0  0  0
  2  1  2  0
  3  2  1  0
  4  3  2  0
  4  5  1  0
  5  6  2  0
  6  1  1  0
  7  3  1  0
  7  8  1  0
  8  9  1  0
 10  9  1  0
 11 12  1  0
 11 10  1  0
 12  7  1  0
 13 12  1  0
 14 13  2  0
 15 14  1  0
 16 17  1  0
 16 15  2  0
 17 18  2  0
 18 19  1  0
 18 13  1  0
  1 20  1  0
  2 21  1  0
  5 22  1  0
  8 23  1  0
  8 24  1  0
  9 25  1  0
  9 26  1  0
 11 27  1  0
 11 28  1  0
 12 29  1  6
 14 30  1  0
 15 31  1  0
 16 32  1  0
 17 33  1  0
 19 34  1  0
 19 35  1  0
M  ISO  8  20  14  21  14  22  14  23  13  24  13  25  13  26  13  27  13
M  ISO  6  28  13  29  13  30  14  31  14  32  14  33  14
M  END
>  <minimizedAffinity>  (1) 
-4.30343294

>  <minimizedRMSD>  (1) 
0.0992833748

$$$$
