
     RDKit          3D

 36 38  0  0  1  0  0  0  0  0999 V2000
   38.4940   22.5530   36.3700 C   0  0  0  0  0  0  0  0  0  0  0  0
   38.1030   23.8100   35.9000 C   0  0  0  0  0  0  0  0  0  0  0  0
   39.0190   24.6080   35.2870 C   0  0  0  0  0  0  0  0  0  0  0  0
   40.2980   24.1180   35.1660 N   0  0  0  0  0  0  0  0  0  0  0  0
   40.6650   22.9180   35.6170 C   0  0  0  0  0  0  0  0  0  0  0  0
   39.7690   22.1300   36.2210 N   0  0  0  0  0  0  0  0  0  0  0  0
   38.8390   25.8840   34.7540 N   0  0  0  0  0  0  0  0  0  0  0  0
   38.9950   27.1330   35.5190 C   0  0  0  0  0  0  0  0  0  0  0  0
   37.7130   27.8980   35.5150 C   0  0  0  0  0  0  0  0  0  0  0  0
   36.8350   27.3430   34.5690 O   0  0  0  0  0  0  0  0  0  0  0  0
   37.4720   27.2850   33.3310 C   0  0  0  0  0  0  0  0  0  0  0  0
   38.5000   26.1980   33.3440 C   0  0  2  0  0  0  0  0  0  0  0  0
   38.1590   25.0460   32.5220 C   0  0  0  0  0  0  0  0  0  0  0  0
   36.8160   24.6010   32.4690 C   0  0  0  0  0  0  0  0  0  0  0  0
   36.3580   23.5510   31.7010 C   0  0  0  0  0  0  0  0  0  0  0  0
   37.2930   22.8800   30.9230 C   0  0  0  0  0  0  0  0  0  0  0  0
   38.6190   23.2660   30.9310 C   0  0  0  0  0  0  0  0  0  0  0  0
   39.0010   24.3210   31.7170 C   0  0  0  0  0  0  0  0  0  0  0  0
   40.4170   24.6670   31.6540 C   0  0  0  0  0  0  0  0  0  0  0  0
   37.7579   21.9027   36.8652 H   0  0  0  0  0  0  0  0  0  0  0  0
   37.0646   24.1509   36.0245 H   0  0  0  0  0  0  0  0  0  0  0  0
   41.7033   22.5767   35.4924 H   0  0  0  0  0  0  0  0  0  0  0  0
   39.2726   26.8928   36.5559 H   0  0  0  0  0  0  0  0  0  0  0  0
   39.7820   27.7450   35.0543 H   0  0  0  0  0  0  0  0  0  0  0  0
   37.2541   27.8483   36.5135 H   0  0  0  0  0  0  0  0  0  0  0  0
   37.9150   28.9473   35.2539 H   0  0  0  0  0  0  0  0  0  0  0  0
   37.9612   28.2486   33.1259 H   0  0  0  0  0  0  0  0  0  0  0  0
   36.7286   27.0744   32.5480 H   0  0  0  0  0  0  0  0  0  0  0  0
   39.4119   26.5619   32.8480 H   0  0  0  0  0  0  0  0  0  0  0  0
   36.0803   25.1344   33.0888 H   0  0  0  0  0  0  0  0  0  0  0  0
   35.2979   23.2575   31.7044 H   0  0  0  0  0  0  0  0  0  0  0  0
   36.9747   22.0344   30.2955 H   0  0  0  0  0  0  0  0  0  0  0  0
   39.3583   22.7336   30.3146 H   0  0  0  0  0  0  0  0  0  0  0  0
   40.8164   24.7646   32.6743 H   0  0  0  0  0  0  0  0  0  0  0  0
   40.9643   23.8762   31.1201 H   0  0  0  0  0  0  0  0  0  0  0  0
   40.5379   25.6211   31.1201 H   0  0  0  0  0  0  0  0  0  0  0  0
  2  1  2  0
  3  2  1  0
  4  3  2  0
  4  5  1  0
  5  6  2  0
  6  1  1  0
  7  3  1  0
  7  8  1  0
  9  8  1  0
 10  9  1  0
 11 12  1  0
 11 10  1  0
 12  7  1  0
 13 12  1  0
 14 13  2  0
 15 14  1  0
 16 17  1  0
 16 15  2  0
 17 18  2  0
 18 13  1  0
 19 18  1  0
  1 20  1  0
  2 21  1  0
  5 22  1  0
  8 23  1  0
  8 24  1  0
  9 25  1  0
  9 26  1  0
 11 27  1  0
 11 28  1  0
 12 29  1  6
 14 30  1  0
 15 31  1  0
 16 32  1  0
 17 33  1  0
 19 34  1  0
 19 35  1  0
 19 36  1  0
M  ISO  8  20  14  21  14  22  14  23  13  24  13  25  13  26  13  27  13
M  ISO  8  28  13  29  13  30  14  31  14  32  14  33  14  34   8  35   8
M  ISO  1  36   8
M  END
>  <minimizedAffinity>  (1) 
-4.27951813

>  <minimizedRMSD>  (1) 
0.169250712

$$$$
