
     RDKit          3D

 37 40  0  0  0  0  0  0  0  0999 V2000
   38.3330   24.9300   33.5900 C   0  0  0  0  0  0  0  0  0  0  0  0
   37.7410   26.0680   33.1730 C   0  0  0  0  0  0  0  0  0  0  0  0
   36.6580   26.0890   32.3260 C   0  0  0  0  0  0  0  0  0  0  0  0
   36.1800   24.9230   31.9060 N   0  0  0  0  0  0  0  0  0  0  0  0
   36.7160   23.7560   32.2780 C   0  0  0  0  0  0  0  0  0  0  0  0
   37.7560   23.8220   33.0950 N   0  0  0  0  0  0  0  0  0  0  0  0
   36.3590   22.3680   31.9520 C   0  0  0  0  0  0  0  0  0  0  0  0
   35.2470   21.7130   32.4850 C   0  0  0  0  0  0  0  0  0  0  0  0
   34.9110   20.4230   32.1830 C   0  0  0  0  0  0  0  0  0  0  0  0
   35.6690   19.6880   31.3190 C   0  0  0  0  0  0  0  0  0  0  0  0
   36.7800   20.2780   30.7600 C   0  0  0  0  0  0  0  0  0  0  0  0
   37.5200   19.5070   29.8920 C   0  0  0  0  0  0  0  0  0  0  0  0
   38.6460   20.0280   29.2900 C   0  0  0  0  0  0  0  0  0  0  0  0
   38.9710   21.3380   29.6070 C   0  0  0  0  0  0  0  0  0  0  0  0
   38.1950   22.0550   30.4790 C   0  0  0  0  0  0  0  0  0  0  0  0
   37.0820   21.5780   31.0900 C   0  0  0  0  0  0  0  0  0  0  0  0
   39.5030   24.8540   34.4890 C   0  0  0  0  0  0  0  0  0  0  0  0
   37.8990   24.2570   37.8610 C   0  0  0  0  0  0  0  0  0  0  0  0
   38.1500   24.8170   36.5780 C   0  0  0  0  0  0  0  0  0  0  0  0
   39.2110   24.2950   35.8280 C   0  0  0  0  0  0  0  0  0  0  0  0
   39.9660   23.2650   36.3660 N   0  0  0  0  0  0  0  0  0  0  0  0
   39.6780   22.7760   37.5910 C   0  0  0  0  0  0  0  0  0  0  0  0
   38.6680   23.2630   38.3190 N   0  0  0  0  0  0  0  0  0  0  0  0
   38.1449   27.0275   33.5284 H   0  0  0  0  0  0  0  0  0  0  0  0
   36.2032   27.0385   32.0073 H   0  0  0  0  0  0  0  0  0  0  0  0
   34.6056   22.2660   33.1871 H   0  0  0  0  0  0  0  0  0  0  0  0
   34.0188   19.9721   32.6420 H   0  0  0  0  0  0  0  0  0  0  0  0
   35.3991   18.6499   31.0752 H   0  0  0  0  0  0  0  0  0  0  0  0
   37.2123   18.4728   29.6781 H   0  0  0  0  0  0  0  0  0  0  0  0
   39.2557   19.4340   28.5933 H   0  0  0  0  0  0  0  0  0  0  0  0
   39.8585   21.8050   29.1550 H   0  0  0  0  0  0  0  0  0  0  0  0
   38.4956   23.0900   30.6991 H   0  0  0  0  0  0  0  0  0  0  0  0
   40.2639   24.2202   34.0102 H   0  0  0  0  0  0  0  0  0  0  0  0
   39.8437   25.8877   34.6483 H   0  0  0  0  0  0  0  0  0  0  0  0
   37.0724   24.6413   38.4767 H   0  0  0  0  0  0  0  0  0  0  0  0
   37.5289   25.6361   36.1864 H   0  0  0  0  0  0  0  0  0  0  0  0
   40.2888   21.9576   37.9997 H   0  0  0  0  0  0  0  0  0  0  0  0
  1 17  1  0
  2  1  2  0
  3  2  1  0
  4  5  1  0
  4  3  2  0
  5  6  2  0
  6  1  1  0
  7  5  1  0
  7  8  2  0
  9  8  1  0
 10  9  2  0
 11 16  2  0
 11 10  1  0
 12 11  1  0
 13 14  1  0
 13 12  2  0
 14 15  2  0
 15 16  1  0
 16  7  1  0
 17 20  1  0
 18 23  2  0
 19 18  1  0
 20 21  1  0
 20 19  2  0
 21 22  2  0
 22 23  1  0
  2 24  1  0
  3 25  1  0
  8 26  1  0
  9 27  1  0
 10 28  1  0
 12 29  1  0
 13 30  1  0
 14 31  1  0
 15 32  1  0
 17 33  1  0
 17 34  1  0
 18 35  1  0
 19 36  1  0
 22 37  1  0
M  ISO  8  24  14  25  14  26  14  27  14  28  14  29  14  30  14  31  14
M  ISO  6  32  14  33   8  34   8  35  14  36  14  37  14
M  END
>  <minimizedAffinity>  (1) 
-5.78927708

>  <minimizedRMSD>  (1) 
6.91401911

$$$$
