
     RDKit          3D

 34 36  0  0  0  0  0  0  0  0999 V2000
   38.1750   25.3670   33.6510 C   0  0  0  0  0  0  0  0  0  0  0  0
   37.3930   26.3720   33.1860 C   0  0  0  0  0  0  0  0  0  0  0  0
   36.3920   26.2060   32.2450 C   0  0  0  0  0  0  0  0  0  0  0  0
   36.1950   24.9560   31.7690 N   0  0  0  0  0  0  0  0  0  0  0  0
   36.9580   23.9420   32.2150 C   0  0  0  0  0  0  0  0  0  0  0  0
   37.9120   24.1440   33.1220 N   0  0  0  0  0  0  0  0  0  0  0  0
   36.7540   22.6170   31.7140 N   0  0  0  0  0  0  0  0  0  0  0  0
   35.6090   22.0160   32.0820 C   0  0  0  0  0  0  0  0  0  0  0  0
   35.4160   20.7390   31.5980 C   0  0  0  0  0  0  0  0  0  0  0  0
   34.2090   19.9600   31.9190 C   0  0  0  0  0  0  0  0  0  0  0  0
   36.3750   20.1680   30.7880 C   0  0  0  0  0  0  0  0  0  0  0  0
   36.2260   18.9990   30.3290 O   0  0  0  0  0  0  0  0  0  0  0  0
   37.4960   20.8560   30.4740 N   0  0  0  0  0  0  0  0  0  0  0  0
   37.7240   22.1140   30.9300 C   0  0  0  0  0  0  0  0  0  0  0  0
   38.7450   22.7890   30.6680 O   0  0  0  0  0  0  0  0  0  0  0  0
   39.2430   25.5350   34.6520 C   0  0  0  0  0  0  0  0  0  0  0  0
   37.9370   24.2240   37.9480 C   0  0  0  0  0  0  0  0  0  0  0  0
   38.0670   25.0430   36.7980 C   0  0  0  0  0  0  0  0  0  0  0  0
   39.0650   24.7070   35.8760 C   0  0  0  0  0  0  0  0  0  0  0  0
   39.8550   23.6140   36.1370 N   0  0  0  0  0  0  0  0  0  0  0  0
   39.6820   22.8770   37.2460 C   0  0  0  0  0  0  0  0  0  0  0  0
   38.7390   23.1720   38.1410 N   0  0  0  0  0  0  0  0  0  0  0  0
   37.5651   27.3838   33.5818 H   0  0  0  0  0  0  0  0  0  0  0  0
   35.7830   27.0543   31.8993 H   0  0  0  0  0  0  0  0  0  0  0  0
   34.8712   22.5124   32.7295 H   0  0  0  0  0  0  0  0  0  0  0  0
   34.0984   19.8886   33.0111 H   0  0  0  0  0  0  0  0  0  0  0  0
   33.3263   20.4593   31.4929 H   0  0  0  0  0  0  0  0  0  0  0  0
   34.3004   18.9500   31.4929 H   0  0  0  0  0  0  0  0  0  0  0  0
   38.2003   20.4106   29.8686 H   0  0  0  0  0  0  0  0  0  0  0  0
   40.2003   25.2599   34.1852 H   0  0  0  0  0  0  0  0  0  0  0  0
   39.2135   26.5865   34.9736 H   0  0  0  0  0  0  0  0  0  0  0  0
   37.1632   24.4581   38.6940 H   0  0  0  0  0  0  0  0  0  0  0  0
   37.4087   25.9094   36.6366 H   0  0  0  0  0  0  0  0  0  0  0  0
   40.3343   22.0086   37.4203 H   0  0  0  0  0  0  0  0  0  0  0  0
  1 16  1  0
  2  1  2  0
  3  2  1  0
  4  5  1  0
  4  3  2  0
  5  6  2  0
  6  1  1  0
  7  8  1  0
  7  5  1  0
  9 10  1  0
  9  8  2  0
 11  9  1  0
 12 11  2  0
 13 11  1  0
 13 14  1  0
 14  7  1  0
 15 14  2  0
 16 19  1  0
 17 22  2  0
 18 17  1  0
 19 20  1  0
 19 18  2  0
 20 21  2  0
 21 22  1  0
  2 23  1  0
  3 24  1  0
  8 25  1  0
 10 26  1  0
 10 27  1  0
 10 28  1  0
 13 29  1  0
 16 30  1  0
 16 31  1  0
 17 32  1  0
 18 33  1  0
 21 34  1  0
M  ISO  8  23  14  24  14  25  14  26   8  27   8  28   8  29   9  30   8
M  ISO  4  31   8  32  14  33  14  34  14
M  END
>  <minimizedAffinity>  (1) 
-5.62298393

>  <minimizedRMSD>  (1) 
7.19933891

$$$$
