
     RDKit          3D

 34 36  0  0  0  0  0  0  0  0999 V2000
   37.7300   26.1590   33.7250 C   0  0  0  0  0  0  0  0  0  0  0  0
   37.0160   27.1130   33.0660 C   0  0  0  0  0  0  0  0  0  0  0  0
   36.1930   26.8550   31.9780 C   0  0  0  0  0  0  0  0  0  0  0  0
   36.1220   25.5690   31.5740 N   0  0  0  0  0  0  0  0  0  0  0  0
   36.8080   24.5990   32.1920 C   0  0  0  0  0  0  0  0  0  0  0  0
   37.5860   24.9050   33.2380 N   0  0  0  0  0  0  0  0  0  0  0  0
   36.6090   20.6580   30.8350 C   0  0  0  0  0  0  0  0  0  0  0  0
   35.4650   21.2440   31.3350 C   0  0  0  0  0  0  0  0  0  0  0  0
   35.4940   22.5530   31.7960 C   0  0  0  0  0  0  0  0  0  0  0  0
   36.7040   23.2180   31.7260 C   0  0  0  0  0  0  0  0  0  0  0  0
   37.8450   22.6270   31.2250 C   0  0  0  0  0  0  0  0  0  0  0  0
   37.8190   21.3260   30.7660 C   0  0  0  0  0  0  0  0  0  0  0  0
   36.5160   19.0010   30.2670 S   0  0  0  0  0  0  0  0  0  0  0  0
   36.5400   18.9520   28.7860 O   0  0  0  0  0  0  0  0  0  0  0  0
   37.6730   18.1860   30.8170 O   0  0  0  0  0  0  0  0  0  0  0  0
   38.6090   26.4110   34.8830 C   0  0  0  0  0  0  0  0  0  0  0  0
   38.3390   23.6650   37.4850 C   0  0  0  0  0  0  0  0  0  0  0  0
   38.0180   24.8200   36.7540 C   0  0  0  0  0  0  0  0  0  0  0  0
   38.8850   25.1950   35.7030 C   0  0  0  0  0  0  0  0  0  0  0  0
   39.9880   24.4100   35.4620 N   0  0  0  0  0  0  0  0  0  0  0  0
   40.2390   23.3130   36.2010 C   0  0  0  0  0  0  0  0  0  0  0  0
   39.4170   22.9550   37.1970 N   0  0  0  0  0  0  0  0  0  0  0  0
   37.0962   28.1523   33.4174 H   0  0  0  0  0  0  0  0  0  0  0  0
   35.6302   27.6541   31.4733 H   0  0  0  0  0  0  0  0  0  0  0  0
   34.5261   20.6719   31.3686 H   0  0  0  0  0  0  0  0  0  0  0  0
   34.5938   23.0398   32.1993 H   0  0  0  0  0  0  0  0  0  0  0  0
   38.7845   23.1981   31.1910 H   0  0  0  0  0  0  0  0  0  0  0  0
   38.7204   20.8412   30.3630 H   0  0  0  0  0  0  0  0  0  0  0  0
   35.3349   18.4684   30.7122 H   0  0  0  0  0  0  0  0  0  0  0  0
   39.5670   26.8047   34.5125 H   0  0  0  0  0  0  0  0  0  0  0  0
   38.0850   27.1258   35.5346 H   0  0  0  0  0  0  0  0  0  0  0  0
   37.6843   23.3460   38.3093 H   0  0  0  0  0  0  0  0  0  0  0  0
   37.1222   25.4127   36.9913 H   0  0  0  0  0  0  0  0  0  0  0  0
   41.1289   22.7036   35.9848 H   0  0  0  0  0  0  0  0  0  0  0  0
  1 16  1  0
  2  1  2  0
  3  2  1  0
  4  3  2  0
  4  5  1  0
  5  6  2  0
  6  1  1  0
  7  8  2  0
  8  9  1  0
 10  9  2  0
 10  5  1  0
 11 10  1  0
 12  7  1  0
 12 11  2  0
 13 15  2  0
 13  7  1  0
 14 13  2  0
 16 19  1  0
 18 17  2  0
 19 18  1  0
 20 19  2  0
 20 21  1  0
 21 22  2  0
 22 17  1  0
  2 23  1  0
  3 24  1  0
  8 25  1  0
  9 26  1  0
 11 27  1  0
 12 28  1  0
 13 29  1  0
 16 30  1  0
 16 31  1  0
 17 32  1  0
 18 33  1  0
 21 34  1  0
M  ISO  8  23  14  24  14  25  14  26  14  27  14  28  14  29  11  30   8
M  ISO  4  31   8  32  14  33  14  34  14
M  END
>  <minimizedAffinity>  (1) 
-5.17049742

>  <minimizedRMSD>  (1) 
7.78235626

$$$$
