
     RDKit          3D

 33 35  0  0  0  0  0  0  0  0999 V2000
   38.3740   24.2800   33.5110 C   0  0  0  0  0  0  0  0  0  0  0  0
   37.8210   25.3840   32.9090 C   0  0  0  0  0  0  0  0  0  0  0  0
   36.7120   25.3330   32.0810 C   0  0  0  0  0  0  0  0  0  0  0  0
   36.1580   24.1160   31.8690 N   0  0  0  0  0  0  0  0  0  0  0  0
   36.6800   23.0280   32.4460 C   0  0  0  0  0  0  0  0  0  0  0  0
   37.7460   23.0910   33.2370 N   0  0  0  0  0  0  0  0  0  0  0  0
   36.0750   21.7640   32.2020 N   0  0  0  0  0  0  0  0  0  0  0  0
   35.2340   20.9720   33.0810 C   0  0  0  0  0  0  0  0  0  0  0  0
   35.7440   19.5590   32.9300 C   0  0  0  0  0  0  0  0  0  0  0  0
   36.4610   19.5630   31.6020 C   0  0  0  0  0  0  0  0  0  0  0  0
   36.1330   20.9350   31.0170 C   0  0  0  0  0  0  0  0  0  0  0  0
   39.5510   24.3200   34.3900 C   0  0  0  0  0  0  0  0  0  0  0  0
   37.9230   24.2330   37.8200 C   0  0  0  0  0  0  0  0  0  0  0  0
   38.1700   24.5830   36.4800 C   0  0  0  0  0  0  0  0  0  0  0  0
   39.2430   23.9890   35.8070 C   0  0  0  0  0  0  0  0  0  0  0  0
   40.0110   23.0770   36.5090 N   0  0  0  0  0  0  0  0  0  0  0  0
   39.7340   22.7760   37.7890 C   0  0  0  0  0  0  0  0  0  0  0  0
   38.7130   23.3420   38.4290 N   0  0  0  0  0  0  0  0  0  0  0  0
   38.2852   26.3638   33.0951 H   0  0  0  0  0  0  0  0  0  0  0  0
   36.2997   26.2408   31.6163 H   0  0  0  0  0  0  0  0  0  0  0  0
   35.3340   21.3111   34.1226 H   0  0  0  0  0  0  0  0  0  0  0  0
   34.1676   21.0587   32.8256 H   0  0  0  0  0  0  0  0  0  0  0  0
   36.4363   19.3050   33.7462 H   0  0  0  0  0  0  0  0  0  0  0  0
   34.9362   18.8134   32.9700 H   0  0  0  0  0  0  0  0  0  0  0  0
   37.5457   19.4454   31.7416 H   0  0  0  0  0  0  0  0  0  0  0  0
   36.1502   18.7354   30.9475 H   0  0  0  0  0  0  0  0  0  0  0  0
   36.9219   21.2751   30.3300 H   0  0  0  0  0  0  0  0  0  0  0  0
   35.2097   20.9520   30.4194 H   0  0  0  0  0  0  0  0  0  0  0  0
   40.2901   23.5963   34.0158 H   0  0  0  0  0  0  0  0  0  0  0  0
   39.9329   25.3514   34.3737 H   0  0  0  0  0  0  0  0  0  0  0  0
   37.0837   24.6902   38.3646 H   0  0  0  0  0  0  0  0  0  0  0  0
   37.5276   25.3145   35.9679 H   0  0  0  0  0  0  0  0  0  0  0  0
   40.3641   22.0466   38.3191 H   0  0  0  0  0  0  0  0  0  0  0  0
  1 12  1  0
  2  1  2  0
  3  2  1  0
  4  3  2  0
  4  5  1  0
  5  6  2  0
  6  1  1  0
  7  5  1  0
  7  8  1  0
  9  8  1  0
 10  9  1  0
 11 10  1  0
 11  7  1  0
 12 15  1  0
 13 18  2  0
 14 13  1  0
 15 14  2  0
 15 16  1  0
 16 17  2  0
 17 18  1  0
  2 19  1  0
  3 20  1  0
  8 21  1  0
  8 22  1  0
  9 23  1  0
  9 24  1  0
 10 25  1  0
 10 26  1  0
 11 27  1  0
 11 28  1  0
 12 29  1  0
 12 30  1  0
 13 31  1  0
 14 32  1  0
 17 33  1  0
M  ISO  8  19  14  20  14  21  13  22  13  23  13  24  13  25  13  26  13
M  ISO  7  27  13  28  13  29   8  30   8  31  14  32  14  33  14
M  END
>  <minimizedAffinity>  (1) 
-4.77449512

>  <minimizedRMSD>  (1) 
6.31021023

$$$$
