
     RDKit          3D

 27 29  0  0  0  0  0  0  0  0999 V2000
   38.2060   25.0480   33.6320 C   0  0  0  0  0  0  0  0  0  0  0  0
   37.3840   25.9870   33.0980 C   0  0  0  0  0  0  0  0  0  0  0  0
   36.4050   25.7270   32.1520 C   0  0  0  0  0  0  0  0  0  0  0  0
   36.2840   24.4490   31.7570 N   0  0  0  0  0  0  0  0  0  0  0  0
   37.0800   23.4910   32.2630 C   0  0  0  0  0  0  0  0  0  0  0  0
   38.0080   23.7930   33.1710 N   0  0  0  0  0  0  0  0  0  0  0  0
   36.9240   22.1030   31.8110 C   0  0  0  0  0  0  0  0  0  0  0  0
   37.9700   21.4200   32.3290 C   0  0  0  0  0  0  0  0  0  0  0  0
   37.7040   19.6650   31.7120 S   0  0  0  0  0  0  0  0  0  0  0  0
   36.1180   20.2670   30.8190 C   0  0  0  0  0  0  0  0  0  0  0  0
   36.1210   21.3510   31.0930 N   0  0  0  0  0  0  0  0  0  0  0  0
   39.2530   25.3110   34.6400 C   0  0  0  0  0  0  0  0  0  0  0  0
   37.9210   24.2240   38.0160 C   0  0  0  0  0  0  0  0  0  0  0  0
   38.0610   24.9550   36.8260 C   0  0  0  0  0  0  0  0  0  0  0  0
   39.0640   24.5710   35.9120 C   0  0  0  0  0  0  0  0  0  0  0  0
   39.8450   23.4920   36.2510 N   0  0  0  0  0  0  0  0  0  0  0  0
   39.6710   22.8230   37.4080 C   0  0  0  0  0  0  0  0  0  0  0  0
   38.7210   23.1830   38.2800 N   0  0  0  0  0  0  0  0  0  0  0  0
   37.5031   27.0258   33.4396 H   0  0  0  0  0  0  0  0  0  0  0  0
   35.7628   26.5231   31.7472 H   0  0  0  0  0  0  0  0  0  0  0  0
   38.7845   21.8017   32.9622 H   0  0  0  0  0  0  0  0  0  0  0  0
   35.4016   19.7012   30.2054 H   0  0  0  0  0  0  0  0  0  0  0  0
   40.2248   25.0226   34.2129 H   0  0  0  0  0  0  0  0  0  0  0  0
   39.1991   26.3824   34.8835 H   0  0  0  0  0  0  0  0  0  0  0  0
   37.1445   24.5098   38.7408 H   0  0  0  0  0  0  0  0  0  0  0  0
   37.4023   25.8093   36.6109 H   0  0  0  0  0  0  0  0  0  0  0  0
   40.3208   21.9663   37.6399 H   0  0  0  0  0  0  0  0  0  0  0  0
  1 12  1  0
  2  1  2  0
  3  2  1  0
  4  3  2  0
  4  5  1  0
  5  6  2  0
  6  1  1  0
  7  5  1  0
  7  8  2  0
  9  8  1  0
 10 11  2  0
 10  9  1  0
 11  7  1  0
 12 15  1  0
 13 18  2  0
 14 13  1  0
 15 16  1  0
 15 14  2  0
 16 17  2  0
 17 18  1  0
  2 19  1  0
  3 20  1  0
  8 21  1  0
 10 22  1  0
 12 23  1  0
 12 24  1  0
 13 25  1  0
 14 26  1  0
 17 27  1  0
M  ISO  8  19  14  20  14  21  14  22  14  23   8  24   8  25  14  26  14
M  ISO  1  27  14
M  END
>  <minimizedAffinity>  (1) 
-4.33123779

>  <minimizedRMSD>  (1) 
5.85766029

$$$$
