
     RDKit          3D

 27 28  0  0  0  0  0  0  0  0999 V2000
   38.3160   26.8540   36.0070 C   0  0  0  0  0  0  0  0  0  0  0  0
   37.9240   23.0900   36.2070 C   0  0  0  0  0  0  0  0  0  0  0  0
   38.0730   24.3870   35.6650 C   0  0  0  0  0  0  0  0  0  0  0  0
   38.1590   25.4770   36.5300 C   0  0  0  0  0  0  0  0  0  0  0  0
   38.0910   25.2340   37.8830 N   0  0  0  0  0  0  0  0  0  0  0  0
   37.9480   23.9790   38.3580 C   0  0  0  0  0  0  0  0  0  0  0  0
   37.8650   22.9270   37.5270 N   0  0  0  0  0  0  0  0  0  0  0  0
   39.1470   26.9440   34.7870 C   0  0  0  0  0  0  0  0  0  0  0  0
   40.5150   26.8360   34.7860 C   0  0  0  0  0  0  0  0  0  0  0  0
   41.2750   26.9240   33.6340 C   0  0  0  0  0  0  0  0  0  0  0  0
   40.6200   27.1220   32.4880 N   0  0  0  0  0  0  0  0  0  0  0  0
   39.2700   27.2340   32.4470 C   0  0  0  0  0  0  0  0  0  0  0  0
   38.5460   27.1480   33.5700 N   0  0  0  0  0  0  0  0  0  0  0  0
   38.6410   27.4520   31.1330 C   0  0  0  0  0  0  0  0  0  0  0  0
   37.4160   28.3030   31.1870 C   0  0  0  0  0  0  0  0  0  0  0  0
   37.3170   27.2517   35.7749 H   0  0  0  0  0  0  0  0  0  0  0  0
   38.8324   27.4331   36.7867 H   0  0  0  0  0  0  0  0  0  0  0  0
   37.8570   22.2179   35.5400 H   0  0  0  0  0  0  0  0  0  0  0  0
   38.1204   24.5342   34.5759 H   0  0  0  0  0  0  0  0  0  0  0  0
   37.8986   23.8147   39.4445 H   0  0  0  0  0  0  0  0  0  0  0  0
   41.0300   26.6721   35.7441 H   0  0  0  0  0  0  0  0  0  0  0  0
   42.3710   26.8348   33.6609 H   0  0  0  0  0  0  0  0  0  0  0  0
   38.3655   26.4732   30.7134 H   0  0  0  0  0  0  0  0  0  0  0  0
   39.3748   27.9847   30.5102 H   0  0  0  0  0  0  0  0  0  0  0  0
   37.1459   28.4906   32.2367 H   0  0  0  0  0  0  0  0  0  0  0  0
   37.6121   29.2604   30.6821 H   0  0  0  0  0  0  0  0  0  0  0  0
   36.5872   27.7851   30.6821 H   0  0  0  0  0  0  0  0  0  0  0  0
  1  4  1  0
  2  7  2  0
  3  2  1  0
  3  4  2  0
  4  5  1  0
  5  6  2  0
  7  6  1  0
  8  1  1  0
  9  8  2  0
 10  9  1  0
 11 10  2  0
 12 11  1  0
 12 13  2  0
 13  8  1  0
 14 15  1  0
 14 12  1  0
  1 16  1  0
  1 17  1  0
  2 18  1  0
  3 19  1  0
  6 20  1  0
  9 21  1  0
 10 22  1  0
 14 23  1  0
 14 24  1  0
 15 25  1  0
 15 26  1  0
 15 27  1  0
M  ISO  8  16   8  17   8  18  14  19  14  20  14  21  14  22  14  23   8
M  ISO  4  24   8  25   8  26   8  27   8
M  END
>  <minimizedAffinity>  (1) 
-3.83164907

>  <minimizedRMSD>  (1) 
2.66503859

$$$$
