
     RDKit          3D

 22 23  0  0  0  0  0  0  0  0999 V2000
   38.3730   26.9280   36.0680 C   0  0  0  0  0  0  0  0  0  0  0  0
   37.9820   23.1630   36.2120 C   0  0  0  0  0  0  0  0  0  0  0  0
   38.1500   24.4620   35.6870 C   0  0  0  0  0  0  0  0  0  0  0  0
   38.1980   25.5370   36.5790 C   0  0  0  0  0  0  0  0  0  0  0  0
   38.0790   25.2670   37.9190 N   0  0  0  0  0  0  0  0  0  0  0  0
   37.9200   24.0100   38.3800 C   0  0  0  0  0  0  0  0  0  0  0  0
   37.8740   22.9870   37.5380 N   0  0  0  0  0  0  0  0  0  0  0  0
   39.0600   27.0040   34.7730 C   0  0  0  0  0  0  0  0  0  0  0  0
   38.4340   27.1370   33.5750 C   0  0  0  0  0  0  0  0  0  0  0  0
   39.0830   27.2070   32.3630 C   0  0  0  0  0  0  0  0  0  0  0  0
   40.4260   27.1410   32.3730 N   0  0  0  0  0  0  0  0  0  0  0  0
   41.0870   27.0090   33.5470 C   0  0  0  0  0  0  0  0  0  0  0  0
   40.4260   26.9440   34.6970 N   0  0  0  0  0  0  0  0  0  0  0  0
   42.8780   26.9070   33.7090 S   0  0  0  0  0  0  0  0  0  0  0  0
   37.3782   27.3849   35.9597 H   0  0  0  0  0  0  0  0  0  0  0  0
   39.0044   27.4585   36.7960 H   0  0  0  0  0  0  0  0  0  0  0  0
   37.9397   22.2965   35.5358 H   0  0  0  0  0  0  0  0  0  0  0  0
   38.2409   24.6245   34.6029 H   0  0  0  0  0  0  0  0  0  0  0  0
   37.8279   23.8321   39.4616 H   0  0  0  0  0  0  0  0  0  0  0  0
   37.3354   27.1925   33.5731 H   0  0  0  0  0  0  0  0  0  0  0  0
   38.5239   27.3130   31.4216 H   0  0  0  0  0  0  0  0  0  0  0  0
   43.2161   26.8877   35.0365 H   0  0  0  0  0  0  0  0  0  0  0  0
  1  4  1  0
  2  7  2  0
  3  2  1  0
  3  4  2  0
  4  5  1  0
  5  6  2  0
  7  6  1  0
  8  1  1  0
  9  8  2  0
 10 11  2  0
 10  9  1  0
 11 12  1  0
 12 14  1  0
 12 13  2  0
 13  8  1  0
  1 15  1  0
  1 16  1  0
  2 17  1  0
  3 18  1  0
  6 19  1  0
  9 20  1  0
 10 21  1  0
 14 22  1  0
M  ISO  8  15   8  16   8  17  14  18  14  19  14  20  14  21  14  22  11
M  END
>  <minimizedAffinity>  (1) 
-3.72619605

>  <minimizedRMSD>  (1) 
0.406517297

$$$$
