
     RDKit          3D

 27 28  0  0  0  0  0  0  0  0999 V2000
   37.5740   25.8930   34.7520 C   0  0  0  0  0  0  0  0  0  0  0  0
   37.3720   26.2810   33.3690 N   0  0  0  0  0  0  0  0  0  0  0  0
   37.6770   25.5660   32.2810 C   0  0  0  0  0  0  0  0  0  0  0  0
   37.4050   26.1120   31.0380 C   0  0  0  0  0  0  0  0  0  0  0  0
   36.8290   27.3740   30.9440 C   0  0  0  0  0  0  0  0  0  0  0  0
   36.5450   27.9440   29.6620 N   0  0  0  0  0  0  0  0  0  0  0  0
   36.5300   28.0770   32.0700 N   0  0  0  0  0  0  0  0  0  0  0  0
   36.8130   27.5030   33.2480 C   0  0  0  0  0  0  0  0  0  0  0  0
   36.4920   28.2500   34.2290 O   0  0  0  0  0  0  0  0  0  0  0  0
   38.4820   24.6780   34.7460 C   0  0  0  0  0  0  0  0  0  0  0  0
   39.7340   22.8360   37.7270 C   0  0  0  0  0  0  0  0  0  0  0  0
   38.9060   23.3260   38.7520 C   0  0  0  0  0  0  0  0  0  0  0  0
   37.9300   24.2820   38.4020 C   0  0  0  0  0  0  0  0  0  0  0  0
   37.8470   24.6770   37.0820 N   0  0  0  0  0  0  0  0  0  0  0  0
   38.6670   24.1730   36.1470 C   0  0  0  0  0  0  0  0  0  0  0  0
   39.5900   23.2720   36.4670 N   0  0  0  0  0  0  0  0  0  0  0  0
   38.0471   26.7149   35.3093 H   0  0  0  0  0  0  0  0  0  0  0  0
   36.6146   25.6625   35.2382 H   0  0  0  0  0  0  0  0  0  0  0  0
   38.1326   24.5689   32.3712 H   0  0  0  0  0  0  0  0  0  0  0  0
   37.6446   25.5474   30.1249 H   0  0  0  0  0  0  0  0  0  0  0  0
   36.1183   28.8792   29.5973 H   0  0  0  0  0  0  0  0  0  0  0  0
   36.7674   27.4189   28.8042 H   0  0  0  0  0  0  0  0  0  0  0  0
   38.0293   23.8872   34.1298 H   0  0  0  0  0  0  0  0  0  0  0  0
   39.4607   24.9588   34.3296 H   0  0  0  0  0  0  0  0  0  0  0  0
   40.5066   22.0886   37.9605 H   0  0  0  0  0  0  0  0  0  0  0  0
   39.0154   22.9765   39.7892 H   0  0  0  0  0  0  0  0  0  0  0  0
   37.2530   24.7016   39.1607 H   0  0  0  0  0  0  0  0  0  0  0  0
  2  1  1  0
  3  2  1  0
  4  3  2  0
  5  4  1  0
  5  7  2  0
  6  5  1  0
  7  8  1  0
  8  2  1  0
  8  9  2  0
 10  1  1  0
 10 15  1  0
 11 12  2  0
 13 12  1  0
 14 13  2  0
 15 16  2  0
 15 14  1  0
 16 11  1  0
  1 17  1  0
  1 18  1  0
  3 19  1  0
  4 20  1  0
  6 21  1  0
  6 22  1  0
 10 23  1  0
 10 24  1  0
 11 25  1  0
 12 26  1  0
 13 27  1  0
M  ISO  8  17   8  18   8  19  14  20  14  23   8  24   8  25  14  26  14
M  ISO  1  27  14
M  END
>  <minimizedAffinity>  (1) 
-4.52979279

>  <minimizedRMSD>  (1) 
2.85573816

$$$$
