
     RDKit          3D

 46 49  0  0  0  0  0  0  0  0999 V2000
   37.4110   25.1620   32.3410 C   0  0  0  0  0  0  0  0  0  0  0  0
   36.4520   25.9780   31.8210 C   0  0  0  0  0  0  0  0  0  0  0  0
   35.3510   25.5340   31.1380 C   0  0  0  0  0  0  0  0  0  0  0  0
   35.2100   24.1990   30.9710 N   0  0  0  0  0  0  0  0  0  0  0  0
   36.1360   23.3530   31.4710 C   0  0  0  0  0  0  0  0  0  0  0  0
   37.1970   23.8200   32.1320 N   0  0  0  0  0  0  0  0  0  0  0  0
   36.1060   21.9220   31.3640 N   0  0  0  0  0  0  0  0  0  0  0  0
   37.0610   21.4340   30.5110 C   0  0  0  0  0  0  0  0  0  0  0  0
   37.1590   20.0660   30.3010 C   0  0  0  0  0  0  0  0  0  0  0  0
   36.2950   19.2560   30.9580 C   0  0  0  0  0  0  0  0  0  0  0  0
   36.4100   17.8580   30.7300 N   0  0  0  0  0  0  0  0  0  0  0  0
   35.3810   19.7540   31.7780 N   0  0  0  0  0  0  0  0  0  0  0  0
   35.2780   21.0690   31.9860 C   0  0  0  0  0  0  0  0  0  0  0  0
   34.4610   21.6490   32.7320 O   0  0  0  0  0  0  0  0  0  0  0  0
   38.6050   25.6140   33.0810 C   0  0  0  0  0  0  0  0  0  0  0  0
   37.9190   24.4930   36.6590 C   0  0  0  0  0  0  0  0  0  0  0  0
   37.7580   25.1140   35.3940 C   0  0  0  0  0  0  0  0  0  0  0  0
   38.7380   24.9750   34.4310 C   0  0  0  0  0  0  0  0  0  0  0  0
   39.8520   24.2150   34.7670 N   0  0  0  0  0  0  0  0  0  0  0  0
   39.9710   23.6500   35.9560 C   0  0  0  0  0  0  0  0  0  0  0  0
   39.0120   23.7840   36.9030 N   0  0  0  0  0  0  0  0  0  0  0  0
   41.1390   22.8690   36.2740 N   0  0  0  0  0  0  0  0  0  0  0  0
   40.8930   21.8000   37.2220 C   0  0  0  0  0  0  0  0  0  0  0  0
   42.0880   20.9700   37.5420 C   0  0  0  0  0  0  0  0  0  0  0  0
   43.0220   20.9860   36.4360 N   0  0  0  0  0  0  0  0  0  0  0  0
   43.4900   22.3640   36.3300 C   0  0  0  0  0  0  0  0  0  0  0  0
   42.4200   23.1780   35.6630 C   0  0  0  0  0  0  0  0  0  0  0  0
   36.5695   27.0630   31.9585 H   0  0  0  0  0  0  0  0  0  0  0  0
   34.6068   26.2389   30.7389 H   0  0  0  0  0  0  0  0  0  0  0  0
   37.7462   22.1231   29.9956 H   0  0  0  0  0  0  0  0  0  0  0  0
   37.9169   19.6511   29.6202 H   0  0  0  0  0  0  0  0  0  0  0  0
   35.7739   17.2041   31.2083 H   0  0  0  0  0  0  0  0  0  0  0  0
   37.1294   17.4986   30.0864 H   0  0  0  0  0  0  0  0  0  0  0  0
   39.4982   25.3681   32.4879 H   0  0  0  0  0  0  0  0  0  0  0  0
   38.5013   26.6975   33.2401 H   0  0  0  0  0  0  0  0  0  0  0  0
   37.1430   24.5989   37.4314 H   0  0  0  0  0  0  0  0  0  0  0  0
   36.8550   25.7047   35.1806 H   0  0  0  0  0  0  0  0  0  0  0  0
   40.5256   22.2480   38.1571 H   0  0  0  0  0  0  0  0  0  0  0  0
   40.1618   21.1266   36.7509 H   0  0  0  0  0  0  0  0  0  0  0  0
   42.5806   21.3738   38.4388 H   0  0  0  0  0  0  0  0  0  0  0  0
   41.7658   19.9340   37.7231 H   0  0  0  0  0  0  0  0  0  0  0  0
   43.8120   20.3525   36.6246 H   0  0  0  0  0  0  0  0  0  0  0  0
   43.6912   22.7662   37.3339 H   0  0  0  0  0  0  0  0  0  0  0  0
   44.4177   22.4036   35.7403 H   0  0  0  0  0  0  0  0  0  0  0  0
   42.3855   22.9338   34.5910 H   0  0  0  0  0  0  0  0  0  0  0  0
   42.6396   24.2492   35.7830 H   0  0  0  0  0  0  0  0  0  0  0  0
  1 15  1  0
  2  1  2  0
  3  2  1  0
  4  3  2  0
  4  5  1  0
  5  6  2  0
  6  1  1  0
  7  5  1  0
  7 13  1  0
  8  7  1  0
  9  8  2  0
  9 10  1  0
 10 12  2  0
 11 10  1  0
 12 13  1  0
 13 14  2  0
 15 18  1  0
 16 21  2  0
 17 16  1  0
 18 19  1  0
 18 17  2  0
 19 20  2  0
 20 22  1  0
 20 21  1  0
 22 23  1  0
 23 24  1  0
 25 24  1  0
 26 25  1  0
 27 22  1  0
 27 26  1  0
  2 28  1  0
  3 29  1  0
  8 30  1  0
  9 31  1  0
 11 32  1  0
 11 33  1  0
 15 34  1  0
 15 35  1  0
 16 36  1  0
 17 37  1  0
 23 38  1  0
 23 39  1  0
 24 40  1  0
 24 41  1  0
 25 42  1  0
 26 43  1  0
 26 44  1  0
 27 45  1  0
 27 46  1  0
M  ISO  8  28  14  29  14  30  14  31  14  34   8  35   8  36  14  37  14
M  ISO  8  38  13  39  13  40  13  41  13  42   5  43  13  44  13  45  13
M  ISO  1  46  13
M  END
>  <minimizedAffinity>  (1) 
-5.97506046

>  <minimizedRMSD>  (1) 
1.85066903

$$$$
