
     RDKit          3D

 40 43  0  0  0  0  0  0  0  0999 V2000
   37.4310   25.3580   32.7370 C   0  0  0  0  0  0  0  0  0  0  0  0
   36.4930   26.1500   32.1420 C   0  0  0  0  0  0  0  0  0  0  0  0
   35.5320   25.6780   31.2810 C   0  0  0  0  0  0  0  0  0  0  0  0
   35.5180   24.3550   31.0120 N   0  0  0  0  0  0  0  0  0  0  0  0
   36.4310   23.5350   31.5820 C   0  0  0  0  0  0  0  0  0  0  0  0
   37.3480   24.0340   32.4120 N   0  0  0  0  0  0  0  0  0  0  0  0
   36.5250   22.1280   31.3830 N   0  0  0  0  0  0  0  0  0  0  0  0
   37.6250   21.7740   30.6410 C   0  0  0  0  0  0  0  0  0  0  0  0
   37.8590   20.4410   30.3590 C   0  0  0  0  0  0  0  0  0  0  0  0
   36.9810   19.5110   30.8330 C   0  0  0  0  0  0  0  0  0  0  0  0
   37.2270   18.1460   30.5410 N   0  0  0  0  0  0  0  0  0  0  0  0
   35.9290   19.8810   31.5460 N   0  0  0  0  0  0  0  0  0  0  0  0
   35.6950   21.1770   31.8240 C   0  0  0  0  0  0  0  0  0  0  0  0
   34.7400   21.6360   32.4830 O   0  0  0  0  0  0  0  0  0  0  0  0
   38.4710   25.8440   33.6620 C   0  0  0  0  0  0  0  0  0  0  0  0
   37.8850   24.3880   37.1320 C   0  0  0  0  0  0  0  0  0  0  0  0
   37.7310   25.1870   35.9630 C   0  0  0  0  0  0  0  0  0  0  0  0
   38.6130   25.0190   34.8940 C   0  0  0  0  0  0  0  0  0  0  0  0
   39.5980   24.0680   35.0390 N   0  0  0  0  0  0  0  0  0  0  0  0
   39.7150   23.3400   36.1360 C   0  0  0  0  0  0  0  0  0  0  0  0
   38.8720   23.4930   37.1730 N   0  0  0  0  0  0  0  0  0  0  0  0
   40.7990   22.3460   36.2040 C   0  0  0  0  0  0  0  0  0  0  0  0
   41.1390   21.8070   37.4470 C   0  0  0  0  0  0  0  0  0  0  0  0
   42.1610   20.8910   37.3980 C   0  0  0  0  0  0  0  0  0  0  0  0
   42.7790   20.5430   36.2550 N   0  0  0  0  0  0  0  0  0  0  0  0
   42.4020   21.1050   35.0690 C   0  0  0  0  0  0  0  0  0  0  0  0
   41.4200   21.9960   35.0620 N   0  0  0  0  0  0  0  0  0  0  0  0
   36.5069   27.2273   32.3641 H   0  0  0  0  0  0  0  0  0  0  0  0
   34.7966   26.3571   30.8249 H   0  0  0  0  0  0  0  0  0  0  0  0
   38.3160   22.5467   30.2731 H   0  0  0  0  0  0  0  0  0  0  0  0
   38.7339   20.1371   29.7655 H   0  0  0  0  0  0  0  0  0  0  0  0
   36.5814   17.4212   30.8855 H   0  0  0  0  0  0  0  0  0  0  0  0
   38.0514   17.8789   29.9843 H   0  0  0  0  0  0  0  0  0  0  0  0
   39.4346   25.8437   33.1315 H   0  0  0  0  0  0  0  0  0  0  0  0
   38.1680   26.8512   33.9841 H   0  0  0  0  0  0  0  0  0  0  0  0
   37.2017   24.5074   37.9857 H   0  0  0  0  0  0  0  0  0  0  0  0
   36.9230   25.9310   35.9029 H   0  0  0  0  0  0  0  0  0  0  0  0
   40.6333   22.0909   38.3817 H   0  0  0  0  0  0  0  0  0  0  0  0
   42.4893   20.4203   38.3364 H   0  0  0  0  0  0  0  0  0  0  0  0
   42.9057   20.8226   34.1328 H   0  0  0  0  0  0  0  0  0  0  0  0
  1 15  1  0
  2  1  2  0
  3  2  1  0
  4  3  2  0
  4  5  1  0
  5  6  2  0
  6  1  1  0
  7  5  1  0
  7 13  1  0
  8  7  1  0
  9  8  2  0
  9 10  1  0
 10 12  2  0
 11 10  1  0
 12 13  1  0
 13 14  2  0
 15 18  1  0
 16 21  2  0
 17 16  1  0
 18 19  1  0
 18 17  2  0
 19 20  2  0
 20 22  1  0
 20 21  1  0
 22 23  2  0
 24 23  1  0
 25 24  2  0
 26 25  1  0
 27 26  2  0
 27 22  1  0
  2 28  1  0
  3 29  1  0
  8 30  1  0
  9 31  1  0
 11 32  1  0
 11 33  1  0
 15 34  1  0
 15 35  1  0
 16 36  1  0
 17 37  1  0
 23 38  1  0
 24 39  1  0
 26 40  1  0
M  ISO  8  28  14  29  14  30  14  31  14  34   8  35   8  36  14  37  14
M  ISO  3  38  14  39  14  40  14
M  END
>  <minimizedAffinity>  (1) 
-5.94055843

>  <minimizedRMSD>  (1) 
1.80053878

$$$$
