
     RDKit          3D

 39 42  0  0  0  0  0  0  0  0999 V2000
   37.4740   25.3080   32.7320 C   0  0  0  0  0  0  0  0  0  0  0  0
   36.5530   26.0890   32.1050 C   0  0  0  0  0  0  0  0  0  0  0  0
   35.6010   25.6070   31.2560 C   0  0  0  0  0  0  0  0  0  0  0  0
   35.5620   24.2770   31.0170 N   0  0  0  0  0  0  0  0  0  0  0  0
   36.4530   23.4640   31.6150 C   0  0  0  0  0  0  0  0  0  0  0  0
   37.3800   23.9680   32.4460 N   0  0  0  0  0  0  0  0  0  0  0  0
   36.5310   22.0450   31.4560 N   0  0  0  0  0  0  0  0  0  0  0  0
   37.6300   21.6570   30.7290 C   0  0  0  0  0  0  0  0  0  0  0  0
   37.8510   20.3090   30.4860 C   0  0  0  0  0  0  0  0  0  0  0  0
   36.9560   19.4140   30.9850 C   0  0  0  0  0  0  0  0  0  0  0  0
   37.1830   18.0350   30.7350 N   0  0  0  0  0  0  0  0  0  0  0  0
   35.8910   19.8150   31.6900 N   0  0  0  0  0  0  0  0  0  0  0  0
   35.6880   21.1170   31.9200 C   0  0  0  0  0  0  0  0  0  0  0  0
   34.7340   21.6160   32.5630 O   0  0  0  0  0  0  0  0  0  0  0  0
   38.5170   25.7780   33.6530 C   0  0  0  0  0  0  0  0  0  0  0  0
   37.8120   24.4290   37.1370 C   0  0  0  0  0  0  0  0  0  0  0  0
   37.6970   25.1890   35.9430 C   0  0  0  0  0  0  0  0  0  0  0  0
   38.6160   24.9890   34.9210 C   0  0  0  0  0  0  0  0  0  0  0  0
   39.6080   24.0480   35.1180 N   0  0  0  0  0  0  0  0  0  0  0  0
   39.6750   23.3600   36.2510 C   0  0  0  0  0  0  0  0  0  0  0  0
   38.8040   23.5350   37.2450 N   0  0  0  0  0  0  0  0  0  0  0  0
   40.7520   22.3750   36.3980 C   0  0  0  0  0  0  0  0  0  0  0  0
   41.2000   21.7390   37.4820 C   0  0  0  0  0  0  0  0  0  0  0  0
   42.2410   20.8500   37.3380 C   0  0  0  0  0  0  0  0  0  0  0  0
   42.7570   20.6690   36.0770 C   0  0  0  0  0  0  0  0  0  0  0  0
   41.7290   21.8030   35.0560 S   0  0  0  0  0  0  0  0  0  0  0  0
   36.5778   27.1724   32.2940 H   0  0  0  0  0  0  0  0  0  0  0  0
   34.8805   26.2856   30.7761 H   0  0  0  0  0  0  0  0  0  0  0  0
   38.3311   22.4109   30.3416 H   0  0  0  0  0  0  0  0  0  0  0  0
   38.7241   19.9738   29.9070 H   0  0  0  0  0  0  0  0  0  0  0  0
   36.5251   17.3306   31.0982 H   0  0  0  0  0  0  0  0  0  0  0  0
   38.0056   17.7389   30.1904 H   0  0  0  0  0  0  0  0  0  0  0  0
   39.4857   25.7216   33.1350 H   0  0  0  0  0  0  0  0  0  0  0  0
   38.2465   26.8049   33.9397 H   0  0  0  0  0  0  0  0  0  0  0  0
   37.0973   24.5721   37.9609 H   0  0  0  0  0  0  0  0  0  0  0  0
   36.8897   25.9274   35.8289 H   0  0  0  0  0  0  0  0  0  0  0  0
   40.7478   21.9209   38.4681 H   0  0  0  0  0  0  0  0  0  0  0  0
   42.6460   20.3033   38.2023 H   0  0  0  0  0  0  0  0  0  0  0  0
   43.5788   20.0110   35.7581 H   0  0  0  0  0  0  0  0  0  0  0  0
  1 15  1  0
  2  1  2  0
  3  2  1  0
  4  3  2  0
  4  5  1  0
  5  6  2  0
  6  1  1  0
  7  5  1  0
  7 13  1  0
  8  7  1  0
  9  8  2  0
  9 10  1  0
 10 12  2  0
 11 10  1  0
 12 13  1  0
 13 14  2  0
 15 18  1  0
 16 21  2  0
 17 16  1  0
 18 19  1  0
 18 17  2  0
 19 20  2  0
 20 22  1  0
 20 21  1  0
 22 23  2  0
 24 23  1  0
 25 24  2  0
 26 25  1  0
 26 22  1  0
  2 27  1  0
  3 28  1  0
  8 29  1  0
  9 30  1  0
 11 31  1  0
 11 32  1  0
 15 33  1  0
 15 34  1  0
 16 35  1  0
 17 36  1  0
 23 37  1  0
 24 38  1  0
 25 39  1  0
M  ISO  8  27  14  28  14  29  14  30  14  33   8  34   8  35  14  36  14
M  ISO  3  37  14  38  14  39  14
M  END
>  <minimizedAffinity>  (1) 
-5.89760494

>  <minimizedRMSD>  (1) 
1.56973577

$$$$
