
     RDKit          3D

 35 37  0  0  0  0  0  0  0  0999 V2000
   38.5600   24.4370   33.2400 C   0  0  0  0  0  0  0  0  0  0  0  0
   37.7340   25.4880   32.9930 C   0  0  0  0  0  0  0  0  0  0  0  0
   36.5420   25.3770   32.3120 C   0  0  0  0  0  0  0  0  0  0  0  0
   36.1800   24.1530   31.8680 N   0  0  0  0  0  0  0  0  0  0  0  0
   36.9720   23.0920   32.0940 C   0  0  0  0  0  0  0  0  0  0  0  0
   38.1270   23.2220   32.7580 N   0  0  0  0  0  0  0  0  0  0  0  0
   36.7100   21.7490   31.6820 N   0  0  0  0  0  0  0  0  0  0  0  0
   37.5350   21.3260   30.6650 C   0  0  0  0  0  0  0  0  0  0  0  0
   37.4110   20.0530   30.1520 C   0  0  0  0  0  0  0  0  0  0  0  0
   36.4620   19.2400   30.6760 C   0  0  0  0  0  0  0  0  0  0  0  0
   36.3360   17.9310   30.1480 N   0  0  0  0  0  0  0  0  0  0  0  0
   35.6680   19.6630   31.6630 N   0  0  0  0  0  0  0  0  0  0  0  0
   35.7900   20.9080   32.1620 C   0  0  0  0  0  0  0  0  0  0  0  0
   35.1050   21.4010   33.0770 O   0  0  0  0  0  0  0  0  0  0  0  0
   39.8530   24.5080   33.9680 C   0  0  0  0  0  0  0  0  0  0  0  0
   38.8230   23.3300   37.4420 C   0  0  0  0  0  0  0  0  0  0  0  0
   38.8110   24.0180   36.1980 C   0  0  0  0  0  0  0  0  0  0  0  0
   39.8260   23.8070   35.2850 C   0  0  0  0  0  0  0  0  0  0  0  0
   40.8100   22.9190   35.6520 N   0  0  0  0  0  0  0  0  0  0  0  0
   40.7990   22.2920   36.8150 C   0  0  0  0  0  0  0  0  0  0  0  0
   39.8170   22.4920   37.7060 N   0  0  0  0  0  0  0  0  0  0  0  0
   41.8480   21.3510   37.1950 C   0  0  0  0  0  0  0  0  0  0  0  0
   42.8860   21.1620   36.5200 O   0  0  0  0  0  0  0  0  0  0  0  0
   41.8320   20.5620   38.3290 O   0  0  0  0  0  0  0  0  0  0  0  0
   38.0341   26.4817   33.3570 H   0  0  0  0  0  0  0  0  0  0  0  0
   35.9052   26.2563   32.1352 H   0  0  0  0  0  0  0  0  0  0  0  0
   38.2973   22.0075   30.2595 H   0  0  0  0  0  0  0  0  0  0  0  0
   38.0652   19.7060   29.3386 H   0  0  0  0  0  0  0  0  0  0  0  0
   35.6239   17.2897   30.5256 H   0  0  0  0  0  0  0  0  0  0  0  0
   36.9565   17.6209   29.3866 H   0  0  0  0  0  0  0  0  0  0  0  0
   40.6319   24.0472   33.3427 H   0  0  0  0  0  0  0  0  0  0  0  0
   40.0576   25.5702   34.1675 H   0  0  0  0  0  0  0  0  0  0  0  0
   38.0191   23.4903   38.1756 H   0  0  0  0  0  0  0  0  0  0  0  0
   37.9949   24.7171   35.9629 H   0  0  0  0  0  0  0  0  0  0  0  0
   42.5855   19.9474   38.5150 H   0  0  0  0  0  0  0  0  0  0  0  0
  1 15  1  0
  2  1  2  0
  3  2  1  0
  4  5  1  0
  4  3  2  0
  5  6  2  0
  6  1  1  0
  7  5  1  0
  7 13  1  0
  8  7  1  0
  9  8  2  0
  9 10  1  0
 10 12  2  0
 11 10  1  0
 12 13  1  0
 13 14  2  0
 15 18  1  0
 16 21  2  0
 17 16  1  0
 18 19  1  0
 18 17  2  0
 19 20  2  0
 20 22  1  0
 20 21  1  0
 22 24  1  0
 23 22  2  0
  2 25  1  0
  3 26  1  0
  8 27  1  0
  9 28  1  0
 11 29  1  0
 11 30  1  0
 15 31  1  0
 15 32  1  0
 16 33  1  0
 17 34  1  0
 24 35  1  0
M  ISO  8  25  14  26  14  27  14  28  14  31   8  32   8  33  14  34  14
M  ISO  1  35   3
M  END
>  <minimizedAffinity>  (1) 
-5.68516779

>  <minimizedRMSD>  (1) 
0.991238058

$$$$
