
     RDKit          3D

 33 35  0  0  0  0  0  0  0  0999 V2000
   37.8800   24.6740   32.9610 C   0  0  0  0  0  0  0  0  0  0  0  0
   37.0280   25.6370   32.5090 C   0  0  0  0  0  0  0  0  0  0  0  0
   35.9460   25.3780   31.7180 C   0  0  0  0  0  0  0  0  0  0  0  0
   35.7070   24.1000   31.3640 N   0  0  0  0  0  0  0  0  0  0  0  0
   36.5260   23.1180   31.7910 C   0  0  0  0  0  0  0  0  0  0  0  0
   37.5810   23.3940   32.5670 N   0  0  0  0  0  0  0  0  0  0  0  0
   36.3900   21.7290   31.4940 N   0  0  0  0  0  0  0  0  0  0  0  0
   37.3510   21.2800   30.6270 C   0  0  0  0  0  0  0  0  0  0  0  0
   37.3550   19.9380   30.2340 C   0  0  0  0  0  0  0  0  0  0  0  0
   36.3980   19.1200   30.7310 C   0  0  0  0  0  0  0  0  0  0  0  0
   36.3970   17.7650   30.3390 N   0  0  0  0  0  0  0  0  0  0  0  0
   35.4750   19.5820   31.5730 N   0  0  0  0  0  0  0  0  0  0  0  0
   35.4560   20.8660   31.9610 C   0  0  0  0  0  0  0  0  0  0  0  0
   34.6530   21.4130   32.7350 O   0  0  0  0  0  0  0  0  0  0  0  0
   39.0640   24.9140   33.8210 C   0  0  0  0  0  0  0  0  0  0  0  0
   37.7860   24.1760   37.3170 C   0  0  0  0  0  0  0  0  0  0  0  0
   37.8810   24.7250   36.0190 C   0  0  0  0  0  0  0  0  0  0  0  0
   38.9290   24.3550   35.2000 C   0  0  0  0  0  0  0  0  0  0  0  0
   39.8560   23.4460   35.6970 N   0  0  0  0  0  0  0  0  0  0  0  0
   39.7230   22.9570   36.9290 C   0  0  0  0  0  0  0  0  0  0  0  0
   38.7160   23.3040   37.7310 N   0  0  0  0  0  0  0  0  0  0  0  0
   41.0410   21.7970   37.3560 S   0  0  0  0  0  0  0  0  0  0  0  0
   37.2230   26.6804   32.7975 H   0  0  0  0  0  0  0  0  0  0  0  0
   35.2869   26.1907   31.3787 H   0  0  0  0  0  0  0  0  0  0  0  0
   38.1152   21.9713   30.2421 H   0  0  0  0  0  0  0  0  0  0  0  0
   38.1169   19.5566   29.5383 H   0  0  0  0  0  0  0  0  0  0  0  0
   35.6785   17.1237   30.7043 H   0  0  0  0  0  0  0  0  0  0  0  0
   37.1148   17.4168   29.6875 H   0  0  0  0  0  0  0  0  0  0  0  0
   39.9398   24.4510   33.3430 H   0  0  0  0  0  0  0  0  0  0  0  0
   39.1694   26.0040   33.9253 H   0  0  0  0  0  0  0  0  0  0  0  0
   36.9571   24.4612   37.9815 H   0  0  0  0  0  0  0  0  0  0  0  0
   37.1260   25.4416   35.6636 H   0  0  0  0  0  0  0  0  0  0  0  0
   41.1450   21.7055   38.7190 H   0  0  0  0  0  0  0  0  0  0  0  0
  1 15  1  0
  2  1  2  0
  3  2  1  0
  4  3  2  0
  4  5  1  0
  5  6  2  0
  6  1  1  0
  7  5  1  0
  7 13  1  0
  8  7  1  0
  9  8  2  0
  9 10  1  0
 10 12  2  0
 11 10  1  0
 12 13  1  0
 13 14  2  0
 15 18  1  0
 16 21  2  0
 17 16  1  0
 18 19  1  0
 18 17  2  0
 19 20  2  0
 20 22  1  0
 20 21  1  0
  2 23  1  0
  3 24  1  0
  8 25  1  0
  9 26  1  0
 11 27  1  0
 11 28  1  0
 15 29  1  0
 15 30  1  0
 16 31  1  0
 17 32  1  0
 22 33  1  0
M  ISO  8  23  14  24  14  25  14  26  14  29   8  30   8  31  14  32  14
M  ISO  1  33  11
M  END
>  <minimizedAffinity>  (1) 
-5.52084303

>  <minimizedRMSD>  (1) 
0.7221663

$$$$
