
     RDKit          3D

 43 47  0  0  0  0  0  0  0  0999 V2000
   40.2950   24.2310   29.1320 C   0  0  0  0  0  0  0  0  0  0  0  0
   40.1150   24.9640   30.4000 C   0  0  0  0  0  0  0  0  0  0  0  0
   40.8520   24.8000   31.5330 C   0  0  0  0  0  0  0  0  0  0  0  0
   40.6400   25.5110   32.6870 C   0  0  0  0  0  0  0  0  0  0  0  0
   39.6420   26.4260   32.7000 N   0  0  0  0  0  0  0  0  0  0  0  0
   38.8940   26.6160   31.6020 C   0  0  0  0  0  0  0  0  0  0  0  0
   39.1190   25.9080   30.4820 N   0  0  0  0  0  0  0  0  0  0  0  0
   37.8090   27.5490   31.4780 N   0  0  0  0  0  0  0  0  0  0  0  0
   38.1170   28.6060   30.6740 C   0  0  0  0  0  0  0  0  0  0  0  0
   37.1610   29.5960   30.4580 C   0  0  0  0  0  0  0  0  0  0  0  0
   35.9540   29.4770   31.0550 C   0  0  0  0  0  0  0  0  0  0  0  0
   34.9900   30.4830   30.8340 N   0  0  0  0  0  0  0  0  0  0  0  0
   35.6810   28.4310   31.8380 N   0  0  0  0  0  0  0  0  0  0  0  0
   36.5940   27.4720   32.0530 C   0  0  0  0  0  0  0  0  0  0  0  0
   36.4570   26.4540   32.7590 O   0  0  0  0  0  0  0  0  0  0  0  0
   39.8880   20.5070   28.4830 C   0  0  0  0  0  0  0  0  0  0  0  0
   40.3960   21.8330   28.4210 C   0  0  0  0  0  0  0  0  0  0  0  0
   39.7910   22.8230   29.1700 C   0  0  0  0  0  0  0  0  0  0  0  0
   38.7060   22.4770   29.9560 N   0  0  0  0  0  0  0  0  0  0  0  0
   38.2600   21.2200   29.9850 C   0  0  0  0  0  0  0  0  0  0  0  0
   38.8370   20.2480   29.2640 N   0  0  0  0  0  0  0  0  0  0  0  0
   37.1410   20.8530   30.7920 N   0  0  0  0  0  0  0  0  0  0  0  0
   36.2410   21.8360   31.0910 C   0  0  0  0  0  0  0  0  0  0  0  0
   35.2330   21.3390   31.8650 N   0  0  0  0  0  0  0  0  0  0  0  0
   35.5070   20.0310   32.0500 C   0  0  0  0  0  0  0  0  0  0  0  0
   34.9500   18.9460   32.6990 C   0  0  0  0  0  0  0  0  0  0  0  0
   35.5290   17.7310   32.6660 N   0  0  0  0  0  0  0  0  0  0  0  0
   36.6920   17.5150   31.9900 C   0  0  0  0  0  0  0  0  0  0  0  0
   37.3010   18.5410   31.3250 N   0  0  0  0  0  0  0  0  0  0  0  0
   36.6840   19.7490   31.3840 C   0  0  0  0  0  0  0  0  0  0  0  0
   41.3688   24.2084   28.8942 H   0  0  0  0  0  0  0  0  0  0  0  0
   39.7052   24.7612   28.3697 H   0  0  0  0  0  0  0  0  0  0  0  0
   41.6623   24.0562   31.5225 H   0  0  0  0  0  0  0  0  0  0  0  0
   41.2637   25.3424   33.5773 H   0  0  0  0  0  0  0  0  0  0  0  0
   39.1080   28.6763   30.2017 H   0  0  0  0  0  0  0  0  0  0  0  0
   37.3842   30.4589   29.8133 H   0  0  0  0  0  0  0  0  0  0  0  0
   34.0631   30.4145   31.2779 H   0  0  0  0  0  0  0  0  0  0  0  0
   35.2131   31.2860   30.2287 H   0  0  0  0  0  0  0  0  0  0  0  0
   40.3554   19.7038   27.8944 H   0  0  0  0  0  0  0  0  0  0  0  0
   41.2612   22.0680   27.7837 H   0  0  0  0  0  0  0  0  0  0  0  0
   36.3179   22.8807   30.7553 H   0  0  0  0  0  0  0  0  0  0  0  0
   34.0108   19.0780   33.2562 H   0  0  0  0  0  0  0  0  0  0  0  0
   37.1419   16.5113   31.9797 H   0  0  0  0  0  0  0  0  0  0  0  0
  1 18  1  0
  1  2  1  0
  2  7  1  0
  2  3  2  0
  3  4  1  0
  4  5  2  0
  6  5  1  0
  7  6  2  0
  8  6  1  0
  8 14  1  0
  9  8  1  0
 10  9  2  0
 10 11  1  0
 11 13  2  0
 12 11  1  0
 13 14  1  0
 14 15  2  0
 16 21  2  0
 17 16  1  0
 17 18  2  0
 18 19  1  0
 19 20  2  0
 20 22  1  0
 21 20  1  0
 22 23  1  0
 22 30  1  0
 23 24  2  0
 24 25  1  0
 25 26  2  0
 27 26  1  0
 28 27  2  0
 29 30  2  0
 29 28  1  0
 30 25  1  0
  1 31  1  0
  1 32  1  0
  3 33  1  0
  4 34  1  0
  9 35  1  0
 10 36  1  0
 12 37  1  0
 12 38  1  0
 16 39  1  0
 17 40  1  0
 23 41  1  0
 26 42  1  0
 28 43  1  0
M  ISO  8  31   8  32   8  33  14  34  14  35  14  36  14  39  14  40  14
M  ISO  3  41  14  42  14  43  14
M  END
>  <minimizedAffinity>  (1) 
-5.14639473

>  <minimizedRMSD>  (1) 
8.03479195

$$$$
