
     RDKit          3D

 54 57  0  0  1  0  0  0  0  0999 V2000
   39.0710   24.8470   33.2860 C   0  0  0  0  0  0  0  0  0  0  0  0
   37.8320   24.5190   32.5750 C   0  0  0  0  0  0  0  0  0  0  0  0
   36.9080   25.4170   32.1460 C   0  0  0  0  0  0  0  0  0  0  0  0
   35.7470   25.0750   31.4770 C   0  0  0  0  0  0  0  0  0  0  0  0
   35.5340   23.7660   31.2430 N   0  0  0  0  0  0  0  0  0  0  0  0
   36.4170   22.8450   31.6470 C   0  0  0  0  0  0  0  0  0  0  0  0
   37.5390   23.2070   32.2970 N   0  0  0  0  0  0  0  0  0  0  0  0
   36.3060   21.4260   31.4600 N   0  0  0  0  0  0  0  0  0  0  0  0
   37.2170   20.9410   30.5340 C   0  0  0  0  0  0  0  0  0  0  0  0
   37.2320   19.5890   30.2460 C   0  0  0  0  0  0  0  0  0  0  0  0
   36.3480   18.7730   30.8840 C   0  0  0  0  0  0  0  0  0  0  0  0
   36.3660   17.3940   30.5870 N   0  0  0  0  0  0  0  0  0  0  0  0
   35.4830   19.2730   31.7740 N   0  0  0  0  0  0  0  0  0  0  0  0
   35.4580   20.5760   32.0590 C   0  0  0  0  0  0  0  0  0  0  0  0
   34.7100   21.1550   32.8580 O   0  0  0  0  0  0  0  0  0  0  0  0
   38.1160   23.5910   36.7510 C   0  0  0  0  0  0  0  0  0  0  0  0
   38.0160   24.1490   35.4490 C   0  0  0  0  0  0  0  0  0  0  0  0
   39.1520   24.2530   34.6640 C   0  0  0  0  0  0  0  0  0  0  0  0
   40.3400   23.7990   35.2050 N   0  0  0  0  0  0  0  0  0  0  0  0
   40.3860   23.2840   36.4330 C   0  0  0  0  0  0  0  0  0  0  0  0
   39.3110   23.1760   37.1980 N   0  0  0  0  0  0  0  0  0  0  0  0
   41.7410   22.8400   36.8770 C   0  0  1  0  0  0  0  0  0  0  0  0
   41.6710   21.3270   37.0620 C   0  0  0  0  0  0  0  0  0  0  0  0
   42.8140   23.1770   35.9340 C   0  0  0  0  0  0  0  0  0  0  0  0
   44.1780   23.3300   36.5360 C   0  0  0  0  0  0  0  0  0  0  0  0
   44.1870   24.7370   37.1460 C   0  0  0  0  0  0  0  0  0  0  0  0
   45.6440   25.0550   37.3320 C   0  0  0  0  0  0  0  0  0  0  0  0
   46.2900   24.4230   36.1110 C   0  0  0  0  0  0  0  0  0  0  0  0
   45.2630   23.4850   35.5070 C   0  0  0  0  0  0  0  0  0  0  0  0
   39.1412   25.9412   33.3748 H   0  0  0  0  0  0  0  0  0  0  0  0
   39.8995   24.4193   32.7023 H   0  0  0  0  0  0  0  0  0  0  0  0
   37.0947   26.4830   32.3429 H   0  0  0  0  0  0  0  0  0  0  0  0
   35.0276   25.8401   31.1497 H   0  0  0  0  0  0  0  0  0  0  0  0
   37.9196   21.6241   30.0343 H   0  0  0  0  0  0  0  0  0  0  0  0
   37.9449   19.1799   29.5149 H   0  0  0  0  0  0  0  0  0  0  0  0
   35.7068   16.7573   31.0570 H   0  0  0  0  0  0  0  0  0  0  0  0
   37.0384   17.0239   29.9001 H   0  0  0  0  0  0  0  0  0  0  0  0
   37.2228   23.4999   37.3866 H   0  0  0  0  0  0  0  0  0  0  0  0
   37.0444   24.4957   35.0673 H   0  0  0  0  0  0  0  0  0  0  0  0
   41.9936   23.3685   37.8081 H   0  0  0  0  0  0  0  0  0  0  0  0
   41.6600   21.0890   38.1359 H   0  0  0  0  0  0  0  0  0  0  0  0
   40.7541   20.9421   36.5917 H   0  0  0  0  0  0  0  0  0  0  0  0
   42.5485   20.8591   36.5917 H   0  0  0  0  0  0  0  0  0  0  0  0
   42.5504   24.1270   35.4462 H   0  0  0  0  0  0  0  0  0  0  0  0
   42.8840   22.3265   35.2399 H   0  0  0  0  0  0  0  0  0  0  0  0
   44.3507   22.4607   37.1875 H   0  0  0  0  0  0  0  0  0  0  0  0
   43.7149   25.4597   36.4643 H   0  0  0  0  0  0  0  0  0  0  0  0
   43.6231   24.7885   38.0891 H   0  0  0  0  0  0  0  0  0  0  0  0
   45.8123   26.1419   37.3504 H   0  0  0  0  0  0  0  0  0  0  0  0
   46.0520   24.6791   38.2819 H   0  0  0  0  0  0  0  0  0  0  0  0
   46.5664   25.2007   35.3838 H   0  0  0  0  0  0  0  0  0  0  0  0
   47.2063   23.8801   36.3862 H   0  0  0  0  0  0  0  0  0  0  0  0
   44.8520   23.9148   34.5816 H   0  0  0  0  0  0  0  0  0  0  0  0
   45.7109   22.5142   35.2483 H   0  0  0  0  0  0  0  0  0  0  0  0
  1 18  1  0
  2  1  1  0
  3  2  2  0
  4  3  1  0
  5  4  2  0
  5  6  1  0
  6  7  2  0
  7  2  1  0
  8  6  1  0
  8 14  1  0
  9  8  1  0
 10  9  2  0
 10 11  1  0
 11 13  2  0
 12 11  1  0
 13 14  1  0
 14 15  2  0
 16 21  2  0
 17 16  1  0
 18 19  1  0
 18 17  2  0
 19 20  2  0
 20 22  1  0
 20 21  1  0
 22 23  1  0
 24 25  1  0
 24 22  1  0
 25 26  1  0
 26 27  1  0
 28 27  1  0
 29 28  1  0
 29 25  1  0
  1 30  1  0
  1 31  1  0
  3 32  1  0
  4 33  1  0
  9 34  1  0
 10 35  1  0
 12 36  1  0
 12 37  1  0
 16 38  1  0
 17 39  1  0
 22 40  1  1
 23 41  1  0
 23 42  1  0
 23 43  1  0
 24 44  1  0
 24 45  1  0
 25 46  1  0
 26 47  1  0
 26 48  1  0
 27 49  1  0
 27 50  1  0
 28 51  1  0
 28 52  1  0
 29 53  1  0
 29 54  1  0
M  ISO  8  30   8  31   8  32  14  33  14  34  14  35  14  38  14  39  14
M  ISO  8  40   8  41   8  42   8  43   8  44   8  45   8  46  13  47  13
M  ISO  7  48  13  49  13  50  13  51  13  52  13  53  13  54  13
M  END
>  <minimizedAffinity>  (1) 
-6.18390512

>  <minimizedRMSD>  (1) 
1.43484902

$$$$
