
     RDKit          3D

 46 49  0  0  1  0  0  0  0  0999 V2000
   39.0860   24.8480   33.2920 C   0  0  0  0  0  0  0  0  0  0  0  0
   37.8410   24.5180   32.5800 C   0  0  0  0  0  0  0  0  0  0  0  0
   36.9160   25.4160   32.1530 C   0  0  0  0  0  0  0  0  0  0  0  0
   35.7530   25.0750   31.4850 C   0  0  0  0  0  0  0  0  0  0  0  0
   35.5370   23.7750   31.2520 N   0  0  0  0  0  0  0  0  0  0  0  0
   36.4230   22.8520   31.6550 C   0  0  0  0  0  0  0  0  0  0  0  0
   37.5440   23.2100   32.3010 N   0  0  0  0  0  0  0  0  0  0  0  0
   36.3100   21.4270   31.4660 N   0  0  0  0  0  0  0  0  0  0  0  0
   37.2190   20.9480   30.5390 C   0  0  0  0  0  0  0  0  0  0  0  0
   37.2350   19.5930   30.2440 C   0  0  0  0  0  0  0  0  0  0  0  0
   36.3510   18.7800   30.8820 C   0  0  0  0  0  0  0  0  0  0  0  0
   36.3660   17.4050   30.5840 N   0  0  0  0  0  0  0  0  0  0  0  0
   35.4840   19.2760   31.7740 N   0  0  0  0  0  0  0  0  0  0  0  0
   35.4640   20.5840   32.0610 C   0  0  0  0  0  0  0  0  0  0  0  0
   34.7160   21.1590   32.8610 O   0  0  0  0  0  0  0  0  0  0  0  0
   38.1260   23.5940   36.7600 C   0  0  0  0  0  0  0  0  0  0  0  0
   38.0230   24.1550   35.4540 C   0  0  0  0  0  0  0  0  0  0  0  0
   39.1600   24.2520   34.6730 C   0  0  0  0  0  0  0  0  0  0  0  0
   40.3450   23.7930   35.2110 N   0  0  0  0  0  0  0  0  0  0  0  0
   40.3890   23.2780   36.4380 C   0  0  0  0  0  0  0  0  0  0  0  0
   39.3180   23.1720   37.2080 N   0  0  0  0  0  0  0  0  0  0  0  0
   41.7540   22.8200   36.8870 C   0  0  1  0  0  0  0  0  0  0  0  0
   41.6240   21.3470   37.2410 C   0  0  0  0  0  0  0  0  0  0  0  0
   42.7900   23.0120   35.8550 C   0  0  0  0  0  0  0  0  0  0  0  0
   43.9670   23.7040   36.4530 C   0  0  0  0  0  0  0  0  0  0  0  0
   45.1970   23.2080   36.1810 N   0  0  0  0  0  0  0  0  0  0  0  0
   46.0800   23.9490   36.7920 O   0  0  0  0  0  0  0  0  0  0  0  0
   45.5000   24.9120   37.4550 C   0  0  0  0  0  0  0  0  0  0  0  0
   44.1920   24.7640   37.2490 N   0  0  0  0  0  0  0  0  0  0  0  0
   39.1581   25.9421   33.3799 H   0  0  0  0  0  0  0  0  0  0  0  0
   39.9164   24.4226   32.7093 H   0  0  0  0  0  0  0  0  0  0  0  0
   37.1030   26.4818   32.3506 H   0  0  0  0  0  0  0  0  0  0  0  0
   35.0349   25.8417   31.1586 H   0  0  0  0  0  0  0  0  0  0  0  0
   37.9207   21.6340   30.0419 H   0  0  0  0  0  0  0  0  0  0  0  0
   37.9464   19.1852   29.5108 H   0  0  0  0  0  0  0  0  0  0  0  0
   35.7062   16.7689   31.0541 H   0  0  0  0  0  0  0  0  0  0  0  0
   37.0368   17.0345   29.8957 H   0  0  0  0  0  0  0  0  0  0  0  0
   37.2334   23.5075   37.3970 H   0  0  0  0  0  0  0  0  0  0  0  0
   37.0527   24.5059   35.0726 H   0  0  0  0  0  0  0  0  0  0  0  0
   42.0785   23.4225   37.7482 H   0  0  0  0  0  0  0  0  0  0  0  0
   41.6139   21.2323   38.3350 H   0  0  0  0  0  0  0  0  0  0  0  0
   40.6874   20.9505   36.8221 H   0  0  0  0  0  0  0  0  0  0  0  0
   42.4767   20.7926   36.8221 H   0  0  0  0  0  0  0  0  0  0  0  0
   42.3827   23.6232   35.0362 H   0  0  0  0  0  0  0  0  0  0  0  0
   43.1016   22.0328   35.4626 H   0  0  0  0  0  0  0  0  0  0  0  0
   45.9911   25.6879   38.0606 H   0  0  0  0  0  0  0  0  0  0  0  0
  1 18  1  0
  2  1  1  0
  3  2  2  0
  4  3  1  0
  5  4  2  0
  5  6  1  0
  6  7  2  0
  7  2  1  0
  8  6  1  0
  8 14  1  0
  9  8  1  0
 10  9  2  0
 10 11  1  0
 11 13  2  0
 12 11  1  0
 13 14  1  0
 14 15  2  0
 16 21  2  0
 17 16  1  0
 18 19  1  0
 18 17  2  0
 19 20  2  0
 20 22  1  0
 20 21  1  0
 22 23  1  0
 24 25  1  0
 24 22  1  0
 25 29  1  0
 26 25  2  0
 26 27  1  0
 27 28  1  0
 29 28  2  0
  1 30  1  0
  1 31  1  0
  3 32  1  0
  4 33  1  0
  9 34  1  0
 10 35  1  0
 12 36  1  0
 12 37  1  0
 16 38  1  0
 17 39  1  0
 22 40  1  1
 23 41  1  0
 23 42  1  0
 23 43  1  0
 24 44  1  0
 24 45  1  0
 28 46  1  0
M  ISO  8  30   8  31   8  32  14  33  14  34  14  35  14  38  14  39  14
M  ISO  7  40   8  41   8  42   8  43   8  44   8  45   8  46  14
M  END
>  <minimizedAffinity>  (1) 
-5.9822669

>  <minimizedRMSD>  (1) 
0.911154032

$$$$
