
     RDKit          3D

 48 51  0  0  1  0  0  0  0  0999 V2000
   38.1700   23.6130   36.7410 C   0  0  0  0  0  0  0  0  0  0  0  0
   38.0450   24.1810   35.4360 C   0  0  0  0  0  0  0  0  0  0  0  0
   39.1690   24.2770   34.6320 C   0  0  0  0  0  0  0  0  0  0  0  0
   40.3620   23.8090   35.1490 N   0  0  0  0  0  0  0  0  0  0  0  0
   40.4250   23.2880   36.3740 C   0  0  0  0  0  0  0  0  0  0  0  0
   39.3690   23.1850   37.1620 N   0  0  0  0  0  0  0  0  0  0  0  0
   39.0650   24.8790   33.2610 C   0  0  0  0  0  0  0  0  0  0  0  0
   37.8180   24.5390   32.5590 C   0  0  0  0  0  0  0  0  0  0  0  0
   36.8890   25.4340   32.1360 C   0  0  0  0  0  0  0  0  0  0  0  0
   35.7240   25.0830   31.4770 C   0  0  0  0  0  0  0  0  0  0  0  0
   35.5140   23.7740   31.2510 N   0  0  0  0  0  0  0  0  0  0  0  0
   36.4070   22.8580   31.6540 C   0  0  0  0  0  0  0  0  0  0  0  0
   37.5290   23.2290   32.2900 N   0  0  0  0  0  0  0  0  0  0  0  0
   36.2970   21.4300   31.4700 N   0  0  0  0  0  0  0  0  0  0  0  0
   37.2030   20.9590   30.5330 C   0  0  0  0  0  0  0  0  0  0  0  0
   37.2270   19.6020   30.2390 C   0  0  0  0  0  0  0  0  0  0  0  0
   36.3550   18.7860   30.8860 C   0  0  0  0  0  0  0  0  0  0  0  0
   36.3820   17.4100   30.5850 N   0  0  0  0  0  0  0  0  0  0  0  0
   35.4960   19.2830   31.7860 N   0  0  0  0  0  0  0  0  0  0  0  0
   35.4670   20.5800   32.0720 C   0  0  0  0  0  0  0  0  0  0  0  0
   34.7270   21.1590   32.8770 O   0  0  0  0  0  0  0  0  0  0  0  0
   41.7860   22.8270   36.7890 C   0  0  1  0  0  0  0  0  0  0  0  0
   41.6470   21.3780   37.2480 C   0  0  0  0  0  0  0  0  0  0  0  0
   42.7910   22.9140   35.7160 C   0  0  0  0  0  0  0  0  0  0  0  0
   43.9920   23.5450   36.2590 N   0  0  0  0  0  0  0  0  0  0  0  0
   43.9210   24.5770   37.0800 N   0  0  0  0  0  0  0  0  0  0  0  0
   45.1350   25.0030   37.4600 C   0  0  0  0  0  0  0  0  0  0  0  0
   46.0010   24.1440   36.8020 C   0  0  0  0  0  0  0  0  0  0  0  0
   45.2760   23.2270   36.0460 C   0  0  0  0  0  0  0  0  0  0  0  0
   37.2897   23.5275   37.3951 H   0  0  0  0  0  0  0  0  0  0  0  0
   37.0691   24.5374   35.0745 H   0  0  0  0  0  0  0  0  0  0  0  0
   39.1222   25.9733   33.3570 H   0  0  0  0  0  0  0  0  0  0  0  0
   39.8923   24.4661   32.6650 H   0  0  0  0  0  0  0  0  0  0  0  0
   37.0733   26.5012   32.3285 H   0  0  0  0  0  0  0  0  0  0  0  0
   34.9992   25.8436   31.1513 H   0  0  0  0  0  0  0  0  0  0  0  0
   37.8939   21.6508   30.0289 H   0  0  0  0  0  0  0  0  0  0  0  0
   37.9348   19.1979   29.5003 H   0  0  0  0  0  0  0  0  0  0  0  0
   35.7328   16.7662   31.0594 H   0  0  0  0  0  0  0  0  0  0  0  0
   37.0509   17.0478   29.8906 H   0  0  0  0  0  0  0  0  0  0  0  0
   42.1479   23.4882   37.5902 H   0  0  0  0  0  0  0  0  0  0  0  0
   41.6434   21.3404   38.3474 H   0  0  0  0  0  0  0  0  0  0  0  0
   40.7047   20.9604   36.8637 H   0  0  0  0  0  0  0  0  0  0  0  0
   42.4928   20.7889   36.8637 H   0  0  0  0  0  0  0  0  0  0  0  0
   42.3967   23.5185   34.8858 H   0  0  0  0  0  0  0  0  0  0  0  0
   43.0297   21.9085   35.3393 H   0  0  0  0  0  0  0  0  0  0  0  0
   45.3839   25.8361   38.1337 H   0  0  0  0  0  0  0  0  0  0  0  0
   47.0984   24.1813   36.8674 H   0  0  0  0  0  0  0  0  0  0  0  0
   45.6707   22.4188   35.4128 H   0  0  0  0  0  0  0  0  0  0  0  0
  1  6  2  0
  2  1  1  0
  3  4  1  0
  3  2  2  0
  4  5  2  0
  5 22  1  0
  5  6  1  0
  7  3  1  0
  8  7  1  0
  9  8  2  0
 10  9  1  0
 11 10  2  0
 11 12  1  0
 12 13  2  0
 13  8  1  0
 14 12  1  0
 14 20  1  0
 15 14  1  0
 16 15  2  0
 16 17  1  0
 17 19  2  0
 18 17  1  0
 19 20  1  0
 20 21  2  0
 22 23  1  0
 24 25  1  0
 24 22  1  0
 25 26  1  0
 26 27  2  0
 28 27  1  0
 29 25  1  0
 29 28  2  0
  1 30  1  0
  2 31  1  0
  7 32  1  0
  7 33  1  0
  9 34  1  0
 10 35  1  0
 15 36  1  0
 16 37  1  0
 18 38  1  0
 18 39  1  0
 22 40  1  1
 23 41  1  0
 23 42  1  0
 23 43  1  0
 24 44  1  0
 24 45  1  0
 27 46  1  0
 28 47  1  0
 29 48  1  0
M  ISO  8  30  14  31  14  32   8  33   8  34  14  35  14  36  14  37  14
M  ISO  8  40   8  41   8  42   8  43   8  44   8  45   8  46  14  47  14
M  ISO  1  48  14
M  END
>  <minimizedAffinity>  (1) 
-5.94034958

>  <minimizedRMSD>  (1) 
0.932875395

$$$$
