
     RDKit          3D

 54 57  0  0  1  0  0  0  0  0999 V2000
   39.0690   24.8710   33.2720 C   0  0  0  0  0  0  0  0  0  0  0  0
   37.8250   24.5260   32.5640 C   0  0  0  0  0  0  0  0  0  0  0  0
   36.9040   25.4300   32.1430 C   0  0  0  0  0  0  0  0  0  0  0  0
   35.7360   25.0820   31.4760 C   0  0  0  0  0  0  0  0  0  0  0  0
   35.5230   23.7770   31.2440 N   0  0  0  0  0  0  0  0  0  0  0  0
   36.4140   22.8500   31.6460 C   0  0  0  0  0  0  0  0  0  0  0  0
   37.5340   23.2210   32.2890 N   0  0  0  0  0  0  0  0  0  0  0  0
   36.3060   21.4340   31.4610 N   0  0  0  0  0  0  0  0  0  0  0  0
   37.2070   20.9560   30.5310 C   0  0  0  0  0  0  0  0  0  0  0  0
   37.2260   19.6020   30.2370 C   0  0  0  0  0  0  0  0  0  0  0  0
   36.3550   18.7850   30.8740 C   0  0  0  0  0  0  0  0  0  0  0  0
   36.3770   17.4160   30.5810 N   0  0  0  0  0  0  0  0  0  0  0  0
   35.4930   19.2810   31.7710 N   0  0  0  0  0  0  0  0  0  0  0  0
   35.4650   20.5870   32.0610 C   0  0  0  0  0  0  0  0  0  0  0  0
   34.7200   21.1610   32.8660 O   0  0  0  0  0  0  0  0  0  0  0  0
   38.1620   23.5880   36.7420 C   0  0  0  0  0  0  0  0  0  0  0  0
   38.0420   24.1570   35.4430 C   0  0  0  0  0  0  0  0  0  0  0  0
   39.1650   24.2690   34.6400 C   0  0  0  0  0  0  0  0  0  0  0  0
   40.3540   23.8050   35.1790 N   0  0  0  0  0  0  0  0  0  0  0  0
   40.4250   23.2850   36.3860 C   0  0  0  0  0  0  0  0  0  0  0  0
   39.3610   23.1710   37.1630 N   0  0  0  0  0  0  0  0  0  0  0  0
   41.7930   22.8290   36.8200 C   0  0  1  0  0  0  0  0  0  0  0  0
   41.6530   21.3640   37.2210 C   0  0  0  0  0  0  0  0  0  0  0  0
   42.8030   22.9510   35.7500 C   0  0  0  0  0  0  0  0  0  0  0  0
   44.0160   23.4340   36.2950 N   0  0  0  0  0  0  0  0  0  0  0  0
   44.0060   24.6110   37.0550 C   0  0  0  0  0  0  0  0  0  0  0  0
   45.1000   25.5940   36.7130 C   0  0  0  0  0  0  0  0  0  0  0  0
   45.8100   25.2140   35.5800 O   0  0  0  0  0  0  0  0  0  0  0  0
   46.3030   23.9240   35.6760 C   0  0  0  0  0  0  0  0  0  0  0  0
   45.2340   22.8980   35.8400 C   0  0  0  0  0  0  0  0  0  0  0  0
   39.1224   25.9654   33.3688 H   0  0  0  0  0  0  0  0  0  0  0  0
   39.9017   24.4632   32.6801 H   0  0  0  0  0  0  0  0  0  0  0  0
   37.0926   26.4955   32.3406 H   0  0  0  0  0  0  0  0  0  0  0  0
   35.0142   25.8457   31.1508 H   0  0  0  0  0  0  0  0  0  0  0  0
   37.9032   21.6433   30.0281 H   0  0  0  0  0  0  0  0  0  0  0  0
   37.9357   19.1987   29.4997 H   0  0  0  0  0  0  0  0  0  0  0  0
   35.7224   16.7773   31.0548 H   0  0  0  0  0  0  0  0  0  0  0  0
   37.0478   17.0476   29.8916 H   0  0  0  0  0  0  0  0  0  0  0  0
   37.2795   23.4924   37.3917 H   0  0  0  0  0  0  0  0  0  0  0  0
   37.0641   24.5054   35.0792 H   0  0  0  0  0  0  0  0  0  0  0  0
   42.1420   23.4637   37.6479 H   0  0  0  0  0  0  0  0  0  0  0  0
   41.6453   21.2832   38.3180 H   0  0  0  0  0  0  0  0  0  0  0  0
   40.7123   20.9616   36.8171 H   0  0  0  0  0  0  0  0  0  0  0  0
   42.5004   20.7907   36.8171 H   0  0  0  0  0  0  0  0  0  0  0  0
   42.4413   23.6521   34.9834 H   0  0  0  0  0  0  0  0  0  0  0  0
   42.9743   21.9642   35.2952 H   0  0  0  0  0  0  0  0  0  0  0  0
   43.0375   25.1095   36.9014 H   0  0  0  0  0  0  0  0  0  0  0  0
   44.1769   24.3077   38.0985 H   0  0  0  0  0  0  0  0  0  0  0  0
   44.6471   26.5802   36.5334 H   0  0  0  0  0  0  0  0  0  0  0  0
   45.8032   25.6253   37.5583 H   0  0  0  0  0  0  0  0  0  0  0  0
   46.8684   23.6966   34.7602 H   0  0  0  0  0  0  0  0  0  0  0  0
   46.9371   23.8821   36.5739 H   0  0  0  0  0  0  0  0  0  0  0  0
   45.0614   22.4146   34.8671 H   0  0  0  0  0  0  0  0  0  0  0  0
   45.5810   22.1835   36.6010 H   0  0  0  0  0  0  0  0  0  0  0  0
  1 18  1  0
  2  1  1  0
  3  2  2  0
  4  3  1  0
  5  4  2  0
  5  6  1  0
  6  7  2  0
  7  2  1  0
  8  6  1  0
  8 14  1  0
  9  8  1  0
 10  9  2  0
 10 11  1  0
 11 13  2  0
 12 11  1  0
 13 14  1  0
 14 15  2  0
 16 21  2  0
 17 16  1  0
 18 19  1  0
 18 17  2  0
 19 20  2  0
 20 22  1  0
 20 21  1  0
 22 23  1  0
 24 25  1  0
 24 22  1  0
 25 26  1  0
 27 26  1  0
 28 29  1  0
 28 27  1  0
 29 30  1  0
 30 25  1  0
  1 31  1  0
  1 32  1  0
  3 33  1  0
  4 34  1  0
  9 35  1  0
 10 36  1  0
 12 37  1  0
 12 38  1  0
 16 39  1  0
 17 40  1  0
 22 41  1  1
 23 42  1  0
 23 43  1  0
 23 44  1  0
 24 45  1  0
 24 46  1  0
 26 47  1  0
 26 48  1  0
 27 49  1  0
 27 50  1  0
 29 51  1  0
 29 52  1  0
 30 53  1  0
 30 54  1  0
M  ISO  8  31   8  32   8  33  14  34  14  35  14  36  14  39  14  40  14
M  ISO  8  41   8  42   8  43   8  44   8  45   8  46   8  47  13  48  13
M  ISO  6  49  13  50  13  51  13  52  13  53  13  54  13
M  END
>  <minimizedAffinity>  (1) 
-5.85442734

>  <minimizedRMSD>  (1) 
1.1508919

$$$$
