
     RDKit          3D

 43 45  0  0  1  0  0  0  0  0999 V2000
   39.0260   24.8980   33.2660 C   0  0  0  0  0  0  0  0  0  0  0  0
   37.7900   24.5540   32.5520 C   0  0  0  0  0  0  0  0  0  0  0  0
   36.8660   25.4410   32.1180 C   0  0  0  0  0  0  0  0  0  0  0  0
   35.7090   25.0880   31.4480 C   0  0  0  0  0  0  0  0  0  0  0  0
   35.5020   23.7780   31.2200 N   0  0  0  0  0  0  0  0  0  0  0  0
   36.3930   22.8650   31.6330 C   0  0  0  0  0  0  0  0  0  0  0  0
   37.5080   23.2350   32.2810 N   0  0  0  0  0  0  0  0  0  0  0  0
   36.2900   21.4380   31.4510 N   0  0  0  0  0  0  0  0  0  0  0  0
   37.2020   20.9640   30.5270 C   0  0  0  0  0  0  0  0  0  0  0  0
   37.2260   19.6120   30.2420 C   0  0  0  0  0  0  0  0  0  0  0  0
   36.3490   18.7930   30.8830 C   0  0  0  0  0  0  0  0  0  0  0  0
   36.3710   17.4120   30.5910 N   0  0  0  0  0  0  0  0  0  0  0  0
   35.4830   19.2980   31.7720 N   0  0  0  0  0  0  0  0  0  0  0  0
   35.4520   20.5980   32.0530 C   0  0  0  0  0  0  0  0  0  0  0  0
   34.6990   21.1710   32.8510 O   0  0  0  0  0  0  0  0  0  0  0  0
   38.1040   23.6860   36.7440 C   0  0  0  0  0  0  0  0  0  0  0  0
   37.9940   24.2390   35.4460 C   0  0  0  0  0  0  0  0  0  0  0  0
   39.1220   24.3080   34.6400 C   0  0  0  0  0  0  0  0  0  0  0  0
   40.3010   23.8220   35.1670 N   0  0  0  0  0  0  0  0  0  0  0  0
   40.3550   23.3110   36.3940 C   0  0  0  0  0  0  0  0  0  0  0  0
   39.2910   23.2360   37.1790 N   0  0  0  0  0  0  0  0  0  0  0  0
   41.7080   22.8290   36.8140 C   0  0  1  0  0  0  0  0  0  0  0  0
   41.5430   21.3780   37.2500 C   0  0  0  0  0  0  0  0  0  0  0  0
   42.7270   22.9330   35.7610 C   0  0  0  0  0  0  0  0  0  0  0  0
   43.8560   22.0770   36.1580 N   0  0  0  0  0  0  0  0  0  0  0  0
   39.0801   25.9930   33.3555 H   0  0  0  0  0  0  0  0  0  0  0  0
   39.8579   24.4784   32.6813 H   0  0  0  0  0  0  0  0  0  0  0  0
   37.0459   26.5091   32.3098 H   0  0  0  0  0  0  0  0  0  0  0  0
   34.9867   25.8477   31.1147 H   0  0  0  0  0  0  0  0  0  0  0  0
   37.8983   21.6526   30.0260 H   0  0  0  0  0  0  0  0  0  0  0  0
   37.9405   19.2058   29.5109 H   0  0  0  0  0  0  0  0  0  0  0  0
   35.7153   16.7748   31.0653 H   0  0  0  0  0  0  0  0  0  0  0  0
   37.0427   17.0416   29.9036 H   0  0  0  0  0  0  0  0  0  0  0  0
   37.2190   23.6252   37.3945 H   0  0  0  0  0  0  0  0  0  0  0  0
   37.0254   24.6100   35.0799 H   0  0  0  0  0  0  0  0  0  0  0  0
   42.0735   23.4702   37.6297 H   0  0  0  0  0  0  0  0  0  0  0  0
   41.5368   21.3237   38.3486 H   0  0  0  0  0  0  0  0  0  0  0  0
   40.5941   20.9830   36.8580 H   0  0  0  0  0  0  0  0  0  0  0  0
   42.3789   20.7800   36.8580 H   0  0  0  0  0  0  0  0  0  0  0  0
   43.0619   23.9762   35.6631 H   0  0  0  0  0  0  0  0  0  0  0  0
   42.3184   22.6133   34.7910 H   0  0  0  0  0  0  0  0  0  0  0  0
   43.9107   22.0356   37.1857 H   0  0  0  0  0  0  0  0  0  0  0  0
   43.7157   21.1280   35.7831 H   0  0  0  0  0  0  0  0  0  0  0  0
  1 18  1  0
  2  1  1  0
  3  2  2  0
  4  3  1  0
  5  4  2  0
  5  6  1  0
  6  7  2  0
  7  2  1  0
  8  6  1  0
  8 14  1  0
  9  8  1  0
 10  9  2  0
 10 11  1  0
 11 13  2  0
 12 11  1  0
 13 14  1  0
 14 15  2  0
 16 21  2  0
 17 16  1  0
 18 19  1  0
 18 17  2  0
 19 20  2  0
 20 22  1  0
 20 21  1  0
 22 23  1  0
 24 25  1  0
 24 22  1  0
  1 26  1  0
  1 27  1  0
  3 28  1  0
  4 29  1  0
  9 30  1  0
 10 31  1  0
 12 32  1  0
 12 33  1  0
 16 34  1  0
 17 35  1  0
 22 36  1  1
 23 37  1  0
 23 38  1  0
 23 39  1  0
 24 40  1  0
 24 41  1  0
 25 42  1  0
 25 43  1  0
M  ISO  8  26   8  27   8  28  14  29  14  30  14  31  14  34  14  35  14
M  ISO  8  36   8  37   8  38   8  39   8  40   8  41   8  42   5  43   5
M  END
>  <minimizedAffinity>  (1) 
-5.29697037

>  <minimizedRMSD>  (1) 
0.404401481

$$$$
