
     RDKit          3D

 42 44  0  0  1  0  0  0  0  0999 V2000
   39.0460   24.8820   33.2800 C   0  0  0  0  0  0  0  0  0  0  0  0
   37.8090   24.5430   32.5680 C   0  0  0  0  0  0  0  0  0  0  0  0
   36.8790   25.4370   32.1340 C   0  0  0  0  0  0  0  0  0  0  0  0
   35.7250   25.0860   31.4670 C   0  0  0  0  0  0  0  0  0  0  0  0
   35.5130   23.7780   31.2340 N   0  0  0  0  0  0  0  0  0  0  0  0
   36.4000   22.8620   31.6410 C   0  0  0  0  0  0  0  0  0  0  0  0
   37.5190   23.2290   32.2920 N   0  0  0  0  0  0  0  0  0  0  0  0
   36.2960   21.4430   31.4580 N   0  0  0  0  0  0  0  0  0  0  0  0
   37.2030   20.9580   30.5370 C   0  0  0  0  0  0  0  0  0  0  0  0
   37.2290   19.6060   30.2490 C   0  0  0  0  0  0  0  0  0  0  0  0
   36.3510   18.7890   30.8890 C   0  0  0  0  0  0  0  0  0  0  0  0
   36.3730   17.4060   30.5940 N   0  0  0  0  0  0  0  0  0  0  0  0
   35.4860   19.2790   31.7740 N   0  0  0  0  0  0  0  0  0  0  0  0
   35.4520   20.5870   32.0590 C   0  0  0  0  0  0  0  0  0  0  0  0
   34.7030   21.1700   32.8560 O   0  0  0  0  0  0  0  0  0  0  0  0
   38.1130   23.6540   36.7540 C   0  0  0  0  0  0  0  0  0  0  0  0
   38.0070   24.2130   35.4510 C   0  0  0  0  0  0  0  0  0  0  0  0
   39.1350   24.2860   34.6540 C   0  0  0  0  0  0  0  0  0  0  0  0
   40.3240   23.8030   35.1830 N   0  0  0  0  0  0  0  0  0  0  0  0
   40.3640   23.2910   36.4120 C   0  0  0  0  0  0  0  0  0  0  0  0
   39.3030   23.2070   37.1960 N   0  0  0  0  0  0  0  0  0  0  0  0
   41.7210   22.8120   36.8380 C   0  0  1  0  0  0  0  0  0  0  0  0
   41.5630   21.3580   37.2660 C   0  0  0  0  0  0  0  0  0  0  0  0
   42.7390   22.9300   35.7820 C   0  0  0  0  0  0  0  0  0  0  0  0
   43.8520   21.5140   35.8500 S   0  0  0  0  0  0  0  0  0  0  0  0
   39.1047   25.9766   33.3720 H   0  0  0  0  0  0  0  0  0  0  0  0
   39.8782   24.4643   32.6944 H   0  0  0  0  0  0  0  0  0  0  0  0
   37.0593   26.5048   32.3273 H   0  0  0  0  0  0  0  0  0  0  0  0
   35.0034   25.8478   31.1371 H   0  0  0  0  0  0  0  0  0  0  0  0
   37.9014   21.6437   30.0349 H   0  0  0  0  0  0  0  0  0  0  0  0
   37.9442   19.2005   29.5183 H   0  0  0  0  0  0  0  0  0  0  0  0
   35.7169   16.7681   31.0668 H   0  0  0  0  0  0  0  0  0  0  0  0
   37.0451   17.0367   29.9064 H   0  0  0  0  0  0  0  0  0  0  0  0
   37.2246   23.5870   37.3992 H   0  0  0  0  0  0  0  0  0  0  0  0
   37.0394   24.5830   35.0812 H   0  0  0  0  0  0  0  0  0  0  0  0
   42.0821   23.4458   37.6613 H   0  0  0  0  0  0  0  0  0  0  0  0
   41.5565   21.2977   38.3643 H   0  0  0  0  0  0  0  0  0  0  0  0
   40.6164   20.9604   36.8713 H   0  0  0  0  0  0  0  0  0  0  0  0
   42.4021   20.7663   36.8713 H   0  0  0  0  0  0  0  0  0  0  0  0
   43.3149   23.8552   35.9311 H   0  0  0  0  0  0  0  0  0  0  0  0
   42.2438   22.9572   34.8001 H   0  0  0  0  0  0  0  0  0  0  0  0
   44.1039   21.1935   37.1580 H   0  0  0  0  0  0  0  0  0  0  0  0
  1 18  1  0
  2  1  1  0
  3  2  2  0
  4  3  1  0
  5  4  2  0
  5  6  1  0
  6  7  2  0
  7  2  1  0
  8  6  1  0
  8 14  1  0
  9  8  1  0
 10  9  2  0
 10 11  1  0
 11 13  2  0
 12 11  1  0
 13 14  1  0
 14 15  2  0
 16 21  2  0
 17 16  1  0
 18 19  1  0
 18 17  2  0
 19 20  2  0
 20 22  1  0
 20 21  1  0
 22 23  1  0
 24 25  1  0
 24 22  1  0
  1 26  1  0
  1 27  1  0
  3 28  1  0
  4 29  1  0
  9 30  1  0
 10 31  1  0
 12 32  1  0
 12 33  1  0
 16 34  1  0
 17 35  1  0
 22 36  1  1
 23 37  1  0
 23 38  1  0
 23 39  1  0
 24 40  1  0
 24 41  1  0
 25 42  1  0
M  ISO  8  26   8  27   8  28  14  29  14  30  14  31  14  34  14  35  14
M  ISO  7  36   8  37   8  38   8  39   8  40   8  41   8  42  11
M  END
>  <minimizedAffinity>  (1) 
-5.28525209

>  <minimizedRMSD>  (1) 
0.4873254

$$$$
