
     RDKit          3D

 47 50  0  0  1  0  0  0  0  0999 V2000
   38.2460   22.9790   36.5350 C   0  0  0  0  0  0  0  0  0  0  0  0
   39.6000   23.1520   36.0030 C   0  0  0  0  0  0  0  0  0  0  0  0
   40.1090   24.3140   35.5180 C   0  0  0  0  0  0  0  0  0  0  0  0
   41.3970   24.4440   35.0220 C   0  0  0  0  0  0  0  0  0  0  0  0
   42.1730   23.3520   35.0260 N   0  0  0  0  0  0  0  0  0  0  0  0
   41.7140   22.1890   35.4930 C   0  0  0  0  0  0  0  0  0  0  0  0
   40.4620   22.0850   35.9700 N   0  0  0  0  0  0  0  0  0  0  0  0
   42.4440   20.9520   35.5520 N   0  0  0  0  0  0  0  0  0  0  0  0
   42.7760   20.5920   36.8460 C   0  0  0  0  0  0  0  0  0  0  0  0
   43.4800   19.4240   37.0670 C   0  0  0  0  0  0  0  0  0  0  0  0
   43.8300   18.6530   35.9980 C   0  0  0  0  0  0  0  0  0  0  0  0
   44.5430   17.4690   36.2250 N   0  0  0  0  0  0  0  0  0  0  0  0
   43.4890   19.0340   34.7580 N   0  0  0  0  0  0  0  0  0  0  0  0
   42.8100   20.1610   34.5360 C   0  0  0  0  0  0  0  0  0  0  0  0
   42.4440   20.6100   33.4420 O   0  0  0  0  0  0  0  0  0  0  0  0
   35.5320   20.5960   35.3430 C   0  0  0  0  0  0  0  0  0  0  0  0
   36.3600   21.3760   36.2070 C   0  0  0  0  0  0  0  0  0  0  0  0
   37.3490   22.1540   35.6500 C   0  0  0  0  0  0  0  0  0  0  0  0
   37.4890   22.1390   34.2720 N   0  0  0  0  0  0  0  0  0  0  0  0
   36.6890   21.3920   33.5120 C   0  0  0  0  0  0  0  0  0  0  0  0
   35.7300   20.6360   34.0180 N   0  0  0  0  0  0  0  0  0  0  0  0
   36.9620   21.4800   32.0420 C   0  0  1  0  0  0  0  0  0  0  0  0
   37.1980   20.0600   31.5470 C   0  0  0  0  0  0  0  0  0  0  0  0
   35.8700   22.1030   31.2760 C   0  0  0  0  0  0  0  0  0  0  0  0
   36.0340   23.5890   31.1840 C   0  0  0  0  0  0  0  0  0  0  0  0
   37.3480   24.0420   31.1060 C   0  0  0  0  0  0  0  0  0  0  0  0
   37.1630   25.8360   31.0110 S   0  0  0  0  0  0  0  0  0  0  0  0
   35.2690   25.6830   31.0960 C   0  0  0  0  0  0  0  0  0  0  0  0
   35.1430   24.5670   31.1640 N   0  0  0  0  0  0  0  0  0  0  0  0
   38.3183   22.4837   37.5145 H   0  0  0  0  0  0  0  0  0  0  0  0
   37.7970   23.9808   36.6036 H   0  0  0  0  0  0  0  0  0  0  0  0
   39.4618   25.2035   35.5188 H   0  0  0  0  0  0  0  0  0  0  0  0
   41.7675   25.4067   34.6399 H   0  0  0  0  0  0  0  0  0  0  0  0
   42.4818   21.2306   37.6920 H   0  0  0  0  0  0  0  0  0  0  0  0
   43.7537   19.1209   38.0884 H   0  0  0  0  0  0  0  0  0  0  0  0
   44.8169   16.8725   35.4312 H   0  0  0  0  0  0  0  0  0  0  0  0
   44.7934   17.1948   37.1857 H   0  0  0  0  0  0  0  0  0  0  0  0
   34.7351   19.9650   35.7634 H   0  0  0  0  0  0  0  0  0  0  0  0
   36.2099   21.3552   37.2965 H   0  0  0  0  0  0  0  0  0  0  0  0
   37.8378   22.1274   31.8871 H   0  0  0  0  0  0  0  0  0  0  0  0
   37.3101   19.3853   32.4085 H   0  0  0  0  0  0  0  0  0  0  0  0
   36.3412   19.7370   30.9374 H   0  0  0  0  0  0  0  0  0  0  0  0
   38.1132   20.0315   30.9374 H   0  0  0  0  0  0  0  0  0  0  0  0
   35.8622   21.6818   30.2599 H   0  0  0  0  0  0  0  0  0  0  0  0
   34.9239   21.8945   31.7970 H   0  0  0  0  0  0  0  0  0  0  0  0
   38.2752   23.4501   31.1030 H   0  0  0  0  0  0  0  0  0  0  0  0
   34.5033   26.4726   31.0824 H   0  0  0  0  0  0  0  0  0  0  0  0
  2  1  1  0
  3  2  2  0
  4  5  2  0
  4  3  1  0
  5  6  1  0
  6  8  1  0
  6  7  2  0
  7  2  1  0
  8  9  1  0
  9 10  2  0
 11 12  1  0
 11 10  1  0
 13 11  2  0
 14 13  1  0
 14  8  1  0
 15 14  2  0
 16 17  2  0
 18 17  1  0
 18  1  1  0
 19 18  2  0
 20 21  2  0
 20 19  1  0
 21 16  1  0
 22 20  1  0
 23 22  1  0
 24 22  1  0
 25 24  1  0
 26 25  2  0
 27 28  1  0
 27 26  1  0
 28 29  2  0
 29 25  1  0
  1 30  1  0
  1 31  1  0
  3 32  1  0
  4 33  1  0
  9 34  1  0
 10 35  1  0
 12 36  1  0
 12 37  1  0
 16 38  1  0
 17 39  1  0
 22 40  1  1
 23 41  1  0
 23 42  1  0
 23 43  1  0
 24 44  1  0
 24 45  1  0
 26 46  1  0
 28 47  1  0
M  ISO  8  30   8  31   8  32  14  33  14  34  14  35  14  38  14  39  14
M  ISO  8  40   8  41   8  42   8  43   8  44   8  45   8  46  14  47  14
M  END
>  <minimizedAffinity>  (1) 
-5.28190374

>  <minimizedRMSD>  (1) 
7.1416049

$$$$
