
     RDKit          3D

 32 33  0  0  0  0  0  0  0  0999 V2000
   37.5690   25.5270   35.7440 C   0  0  0  0  0  0  0  0  0  0  0  0
   40.1890   23.0430   36.6880 C   0  0  0  0  0  0  0  0  0  0  0  0
   39.8490   22.7470   38.0120 C   0  0  0  0  0  0  0  0  0  0  0  0
   38.7290   23.3970   38.5710 C   0  0  0  0  0  0  0  0  0  0  0  0
   38.0410   24.2870   37.7690 N   0  0  0  0  0  0  0  0  0  0  0  0
   38.4160   24.5300   36.5060 C   0  0  0  0  0  0  0  0  0  0  0  0
   39.4800   23.9170   35.9620 N   0  0  0  0  0  0  0  0  0  0  0  0
   38.2040   26.8940   35.8490 C   0  0  0  0  0  0  0  0  0  0  0  0
   38.2430   27.5340   34.4790 C   0  0  0  0  0  0  0  0  0  0  0  0
   36.8800   27.8240   33.9440 C   0  0  0  0  0  0  0  0  0  0  0  0
   36.6080   27.0730   32.6470 C   0  0  0  0  0  0  0  0  0  0  0  0
   37.6330   27.4550   31.6300 C   0  0  0  0  0  0  0  0  0  0  0  0
   39.0370   27.3450   32.1620 C   0  0  0  0  0  0  0  0  0  0  0  0
   39.0570   26.6790   33.5270 C   0  0  0  0  0  0  0  0  0  0  0  0
   36.5572   25.5564   36.1745 H   0  0  0  0  0  0  0  0  0  0  0  0
   37.5034   25.2280   34.6875 H   0  0  0  0  0  0  0  0  0  0  0  0
   41.0586   22.5466   36.2326 H   0  0  0  0  0  0  0  0  0  0  0  0
   40.4380   22.0281   38.6003 H   0  0  0  0  0  0  0  0  0  0  0  0
   38.4150   23.2025   39.6071 H   0  0  0  0  0  0  0  0  0  0  0  0
   37.6127   27.5223   36.5313 H   0  0  0  0  0  0  0  0  0  0  0  0
   39.2279   26.7956   36.2389 H   0  0  0  0  0  0  0  0  0  0  0  0
   38.7387   28.5110   34.5782 H   0  0  0  0  0  0  0  0  0  0  0  0
   36.1325   27.5231   34.6928 H   0  0  0  0  0  0  0  0  0  0  0  0
   36.8183   28.9019   33.7335 H   0  0  0  0  0  0  0  0  0  0  0  0
   36.6600   25.9899   32.8319 H   0  0  0  0  0  0  0  0  0  0  0  0
   35.6058   27.3321   32.2748 H   0  0  0  0  0  0  0  0  0  0  0  0
   37.4530   28.4950   31.3202 H   0  0  0  0  0  0  0  0  0  0  0  0
   37.5399   26.7604   30.7822 H   0  0  0  0  0  0  0  0  0  0  0  0
   39.6399   26.7474   31.4624 H   0  0  0  0  0  0  0  0  0  0  0  0
   39.4514   28.3589   32.2632 H   0  0  0  0  0  0  0  0  0  0  0  0
   38.6157   25.6738   33.4581 H   0  0  0  0  0  0  0  0  0  0  0  0
   40.0911   26.5829   33.8896 H   0  0  0  0  0  0  0  0  0  0  0  0
  1  8  1  0
  1  6  1  0
  2  3  2  0
  3  4  1  0
  5  4  2  0
  6  5  1  0
  7  6  2  0
  7  2  1  0
  9  8  1  0
 10  9  1  0
 11 10  1  0
 12 13  1  0
 12 11  1  0
 13 14  1  0
 14  9  1  0
  1 15  1  0
  1 16  1  0
  2 17  1  0
  3 18  1  0
  4 19  1  0
  8 20  1  0
  8 21  1  0
  9 22  1  0
 10 23  1  0
 10 24  1  0
 11 25  1  0
 11 26  1  0
 12 27  1  0
 12 28  1  0
 13 29  1  0
 13 30  1  0
 14 31  1  0
 14 32  1  0
M  ISO  8  15   8  16   8  17  14  18  14  19  14  20   8  21   8  22  13
M  ISO  8  23  13  24  13  25  13  26  13  27  13  28  13  29  13  30  13
M  ISO  2  31  13  32  13
M  END
>  <minimizedAffinity>  (1) 
-4.12068653

>  <minimizedRMSD>  (1) 
1.91565788

$$$$
