
     RDKit          3D

 25 26  0  0  0  0  0  0  0  0999 V2000
   38.1650   25.3900   34.9470 C   0  0  0  0  0  0  0  0  0  0  0  0
   39.6520   22.8920   37.2670 C   0  0  0  0  0  0  0  0  0  0  0  0
   38.9880   23.1640   38.4740 C   0  0  0  0  0  0  0  0  0  0  0  0
   38.0340   24.2060   38.4700 C   0  0  0  0  0  0  0  0  0  0  0  0
   37.8080   24.8960   37.2950 N   0  0  0  0  0  0  0  0  0  0  0  0
   38.4820   24.5820   36.1710 C   0  0  0  0  0  0  0  0  0  0  0  0
   39.3940   23.5910   36.1570 N   0  0  0  0  0  0  0  0  0  0  0  0
   37.7800   26.7960   35.3640 C   0  0  0  0  0  0  0  0  0  0  0  0
   36.9500   27.3960   34.2630 C   0  0  0  0  0  0  0  0  0  0  0  0
   36.2170   28.5610   34.3590 C   0  0  0  0  0  0  0  0  0  0  0  0
   35.4980   28.9980   33.2700 C   0  0  0  0  0  0  0  0  0  0  0  0
   35.5580   28.2290   32.1270 C   0  0  0  0  0  0  0  0  0  0  0  0
   36.2830   27.0700   32.0200 C   0  0  0  0  0  0  0  0  0  0  0  0
   36.9560   26.7070   33.1210 N   0  0  0  0  0  0  0  0  0  0  0  0
   37.3282   24.9247   34.4055 H   0  0  0  0  0  0  0  0  0  0  0  0
   39.0466   25.4275   34.2903 H   0  0  0  0  0  0  0  0  0  0  0  0
   40.4004   22.0866   37.2341 H   0  0  0  0  0  0  0  0  0  0  0  0
   39.2022   22.5885   39.3866 H   0  0  0  0  0  0  0  0  0  0  0  0
   37.4814   24.4631   39.3857 H   0  0  0  0  0  0  0  0  0  0  0  0
   37.1962   26.7624   36.2957 H   0  0  0  0  0  0  0  0  0  0  0  0
   38.6806   27.4032   35.5381 H   0  0  0  0  0  0  0  0  0  0  0  0
   36.2074   29.1351   35.2972 H   0  0  0  0  0  0  0  0  0  0  0  0
   34.9011   29.9211   33.3096 H   0  0  0  0  0  0  0  0  0  0  0  0
   34.9897   28.5658   31.2475 H   0  0  0  0  0  0  0  0  0  0  0  0
   36.3105   26.4781   31.0932 H   0  0  0  0  0  0  0  0  0  0  0  0
  1  8  1  0
  1  6  1  0
  2  3  2  0
  4  3  1  0
  5  4  2  0
  6  5  1  0
  7  6  2  0
  7  2  1  0
  9 10  2  0
  9  8  1  0
 11 10  1  0
 12 11  2  0
 13 12  1  0
 13 14  2  0
 14  9  1  0
  1 15  1  0
  1 16  1  0
  2 17  1  0
  3 18  1  0
  4 19  1  0
  8 20  1  0
  8 21  1  0
 10 22  1  0
 11 23  1  0
 12 24  1  0
 13 25  1  0
M  ISO  8  15   8  16   8  17  14  18  14  19  14  20   8  21   8  22  14
M  ISO  3  23  14  24  14  25  14
M  END
>  <minimizedAffinity>  (1) 
-4.09464741

>  <minimizedRMSD>  (1) 
1.68978059

$$$$
