
     RDKit          3D

 18 19  0  0  0  0  0  0  0  0999 V2000
   37.6780   24.4520   37.0260 C   0  0  0  0  0  0  0  0  0  0  0  0
   38.5660   23.9760   36.0670 C   0  0  0  0  0  0  0  0  0  0  0  0
   39.6210   23.1570   36.4860 C   0  0  0  0  0  0  0  0  0  0  0  0
   39.7200   22.8710   37.8160 N   0  0  0  0  0  0  0  0  0  0  0  0
   38.8500   23.3450   38.7220 C   0  0  0  0  0  0  0  0  0  0  0  0
   37.8210   24.1400   38.3260 N   0  0  0  0  0  0  0  0  0  0  0  0
   38.4180   24.2970   34.7240 N   0  0  0  0  0  0  0  0  0  0  0  0
   37.8380   23.5630   33.8030 N   0  0  0  0  0  0  0  0  0  0  0  0
   37.8470   24.1320   32.6050 C   0  0  0  0  0  0  0  0  0  0  0  0
   38.4980   25.3440   32.7920 C   0  0  0  0  0  0  0  0  0  0  0  0
   38.8400   25.4160   34.1220 C   0  0  0  0  0  0  0  0  0  0  0  0
   39.7030   26.8160   34.8200 S   0  0  0  0  0  0  0  0  0  0  0  0
   36.8425   25.0962   36.7148 H   0  0  0  0  0  0  0  0  0  0  0  0
   40.3482   22.7562   35.7645 H   0  0  0  0  0  0  0  0  0  0  0  0
   38.9699   23.0899   39.7853 H   0  0  0  0  0  0  0  0  0  0  0  0
   37.4303   23.7317   31.6690 H   0  0  0  0  0  0  0  0  0  0  0  0
   38.7016   26.1029   32.0221 H   0  0  0  0  0  0  0  0  0  0  0  0
   39.6588   26.7443   36.1874 H   0  0  0  0  0  0  0  0  0  0  0  0
  1  6  2  0
  2  3  2  0
  2  1  1  0
  3  4  1  0
  4  5  2  0
  6  5  1  0
  7  2  1  0
  8  7  1  0
  9 10  1  0
  9  8  2  0
 10 11  2  0
 11  7  1  0
 11 12  1  0
  1 13  1  0
  3 14  1  0
  5 15  1  0
  9 16  1  0
 10 17  1  0
 12 18  1  0
M  ISO  6  13  14  14  14  15  14  16  14  17  14  18  11
M  END
>  <minimizedAffinity>  (1) 
-3.42359042

>  <minimizedRMSD>  (1) 
1.72687864

$$$$
