
     RDKit          3D

 27 28  0  0  0  0  0  0  0  0999 V2000
   37.8120   25.7740   33.1630 N   0  0  0  0  0  0  0  0  0  0  0  0
   36.8240   25.5070   32.3230 N   0  0  0  0  0  0  0  0  0  0  0  0
   36.9750   26.1590   31.1690 C   0  0  0  0  0  0  0  0  0  0  0  0
   38.1510   26.8900   31.3030 C   0  0  0  0  0  0  0  0  0  0  0  0
   38.6740   26.6400   32.5670 C   0  0  0  0  0  0  0  0  0  0  0  0
   37.8320   26.0850   35.5740 C   0  0  0  0  0  0  0  0  0  0  0  0
   37.9510   25.2500   34.4600 C   0  0  0  0  0  0  0  0  0  0  0  0
   38.2110   23.8800   34.6310 C   0  0  0  0  0  0  0  0  0  0  0  0
   38.3340   23.4440   35.9250 N   0  0  0  0  0  0  0  0  0  0  0  0
   38.2170   24.2570   36.9780 C   0  0  0  0  0  0  0  0  0  0  0  0
   37.9670   25.5710   36.8100 N   0  0  0  0  0  0  0  0  0  0  0  0
   38.3560   23.7510   38.3770 C   0  0  0  0  0  0  0  0  0  0  0  0
   39.6050   23.1960   38.6070 F   0  0  0  0  0  0  0  0  0  0  0  0
   37.3660   22.8620   38.6910 F   0  0  0  0  0  0  0  0  0  0  0  0
   38.2610   24.8070   39.2890 F   0  0  0  0  0  0  0  0  0  0  0  0
   39.8810   27.2090   33.0850 N   0  0  0  0  0  0  0  0  0  0  0  0
   41.0270   26.4360   33.3990 C   0  0  0  0  0  0  0  0  0  0  0  0
   41.2650   25.4200   32.5900 N   0  0  0  0  0  0  0  0  0  0  0  0
   41.7970   26.8390   34.5520 N   0  0  0  0  0  0  0  0  0  0  0  0
   42.1160   24.8690   32.8460 H   0  0  0  0  0  0  0  0  0  0  0  0
   36.3088   26.1256   30.2943 H   0  0  0  0  0  0  0  0  0  0  0  0
   38.5907   27.5509   30.5415 H   0  0  0  0  0  0  0  0  0  0  0  0
   37.6288   27.1579   35.4410 H   0  0  0  0  0  0  0  0  0  0  0  0
   38.3103   23.1960   33.7753 H   0  0  0  0  0  0  0  0  0  0  0  0
   39.9186   28.2271   33.2366 H   0  0  0  0  0  0  0  0  0  0  0  0
   42.6382   26.3087   34.8205 H   0  0  0  0  0  0  0  0  0  0  0  0
   41.5051   27.6567   35.1061 H   0  0  0  0  0  0  0  0  0  0  0  0
  1  7  1  0
  2  1  1  0
  3  4  1  0
  3  2  2  0
  4  5  2  0
  5 16  1  0
  5  1  1  0
  6 11  2  0
  7  8  2  0
  7  6  1  0
  8  9  1  0
  9 10  2  0
 10 12  1  0
 11 10  1  0
 12 13  1  0
 12 14  1  0
 12 15  1  0
 16 17  1  0
 17 19  1  0
 18 20  1  0
 18 17  2  0
  3 21  1  0
  4 22  1  0
  6 23  1  0
  8 24  1  0
 16 25  1  0
 19 26  1  0
 19 27  1  0
M  ISO  4  21  14  22  14  23  14  24  14
M  END
>  <minimizedAffinity>  (1) 
-4.98731661

>  <minimizedRMSD>  (1) 
2.68856621

$$$$
