
     RDKit          3D

 29 31  0  0  0  0  0  0  0  0999 V2000
   37.1770   25.8870   32.0460 N   0  0  0  0  0  0  0  0  0  0  0  0
   37.4270   26.5830   30.9460 N   0  0  0  0  0  0  0  0  0  0  0  0
   37.6800   27.8640   31.2190 C   0  0  0  0  0  0  0  0  0  0  0  0
   37.5800   27.9770   32.5900 C   0  0  0  0  0  0  0  0  0  0  0  0
   37.2630   26.7200   33.1070 C   0  0  0  0  0  0  0  0  0  0  0  0
   35.6920   24.0370   31.5680 C   0  0  0  0  0  0  0  0  0  0  0  0
   36.8770   24.5160   32.0930 C   0  0  0  0  0  0  0  0  0  0  0  0
   37.7890   23.6180   32.6790 C   0  0  0  0  0  0  0  0  0  0  0  0
   37.4220   22.3030   32.6840 N   0  0  0  0  0  0  0  0  0  0  0  0
   36.2780   21.8600   32.1730 C   0  0  0  0  0  0  0  0  0  0  0  0
   35.3980   22.7350   31.6070 N   0  0  0  0  0  0  0  0  0  0  0  0
   35.8830   20.4560   32.1780 C   0  0  0  0  0  0  0  0  0  0  0  0
   34.6650   19.8750   32.1630 N   0  0  0  0  0  0  0  0  0  0  0  0
   34.8330   18.5940   32.1770 O   0  0  0  0  0  0  0  0  0  0  0  0
   36.1020   18.2610   32.2010 C   0  0  0  0  0  0  0  0  0  0  0  0
   36.7620   19.4350   32.2030 N   0  0  0  0  0  0  0  0  0  0  0  0
   37.0750   26.4290   34.4910 N   0  0  0  0  0  0  0  0  0  0  0  0
   38.1480   26.0720   35.3690 C   0  0  0  0  0  0  0  0  0  0  0  0
   39.2840   26.6920   35.1380 N   0  0  0  0  0  0  0  0  0  0  0  0
   37.8650   25.0960   36.3800 N   0  0  0  0  0  0  0  0  0  0  0  0
   40.0550   26.4180   35.7930 H   0  0  0  0  0  0  0  0  0  0  0  0
   37.9184   28.6627   30.5012 H   0  0  0  0  0  0  0  0  0  0  0  0
   37.7249   28.8977   33.1743 H   0  0  0  0  0  0  0  0  0  0  0  0
   34.9795   24.7393   31.1107 H   0  0  0  0  0  0  0  0  0  0  0  0
   38.7434   23.9566   33.1086 H   0  0  0  0  0  0  0  0  0  0  0  0
   36.5312   17.2483   32.2161 H   0  0  0  0  0  0  0  0  0  0  0  0
   36.1214   26.4781   34.8771 H   0  0  0  0  0  0  0  0  0  0  0  0
   38.6036   24.8054   37.0364 H   0  0  0  0  0  0  0  0  0  0  0  0
   36.9230   24.6853   36.4500 H   0  0  0  0  0  0  0  0  0  0  0  0
  1  7  1  0
  1  5  1  0
  2  3  2  0
  2  1  1  0
  3  4  1  0
  4  5  2  0
  5 17  1  0
  6 11  2  0
  6  7  1  0
  7  8  2  0
  8  9  1  0
 10 12  1  0
 10  9  2  0
 11 10  1  0
 12 16  1  0
 13 14  1  0
 13 12  2  0
 14 15  1  0
 15 16  2  0
 17 18  1  0
 18 20  1  0
 19 18  2  0
 19 21  1  0
  3 22  1  0
  4 23  1  0
  6 24  1  0
  8 25  1  0
 15 26  1  0
 17 27  1  0
 20 28  1  0
 20 29  1  0
M  ISO  5  22  14  23  14  24  14  25  14  26  14
M  END
>  <minimizedAffinity>  (1) 
-4.45155001

>  <minimizedRMSD>  (1) 
6.57320309

$$$$
