
     RDKit          3D

 47 50  0  0  0  0  0  0  0  0999 V2000
   37.9480   25.0310   34.3560 C   0  0  0  0  0  0  0  0  0  0  0  0
   38.6260   25.2480   35.5470 C   0  0  0  0  0  0  0  0  0  0  0  0
   38.5920   26.5250   36.1400 C   0  0  0  0  0  0  0  0  0  0  0  0
   37.8770   27.4830   35.4830 N   0  0  0  0  0  0  0  0  0  0  0  0
   37.2310   27.2640   34.3420 C   0  0  0  0  0  0  0  0  0  0  0  0
   37.2610   26.0240   33.7620 N   0  0  0  0  0  0  0  0  0  0  0  0
   39.3420   24.2090   36.1630 N   0  0  0  0  0  0  0  0  0  0  0  0
   39.0140   23.6310   37.3000 N   0  0  0  0  0  0  0  0  0  0  0  0
   39.8790   22.6730   37.6420 C   0  0  0  0  0  0  0  0  0  0  0  0
   40.8250   22.6660   36.6160 C   0  0  0  0  0  0  0  0  0  0  0  0
   40.4740   23.6420   35.6860 C   0  0  0  0  0  0  0  0  0  0  0  0
   41.2030   23.9350   34.4940 N   0  0  0  0  0  0  0  0  0  0  0  0
   41.8680   25.1890   34.2870 C   0  0  0  0  0  0  0  0  0  0  0  0
   42.4240   25.7240   35.3530 N   0  0  0  0  0  0  0  0  0  0  0  0
   41.8520   25.7120   32.9550 N   0  0  0  0  0  0  0  0  0  0  0  0
   42.9090   26.6270   35.1750 H   0  0  0  0  0  0  0  0  0  0  0  0
   36.4720   28.2810   33.6440 C   0  0  0  0  0  0  0  0  0  0  0  0
   35.3720   29.0410   34.0040 C   0  0  0  0  0  0  0  0  0  0  0  0
   35.1150   29.8370   32.9000 C   0  0  0  0  0  0  0  0  0  0  0  0
   36.0590   29.5330   31.9220 C   0  0  0  0  0  0  0  0  0  0  0  0
   36.8620   28.5830   32.4200 O   0  0  0  0  0  0  0  0  0  0  0  0
   36.0810   30.1960   30.6110 C   0  0  0  0  0  0  0  0  0  0  0  0
   37.2450   29.6390   29.8240 C   0  0  0  0  0  0  0  0  0  0  0  0
   37.4780   30.4380   28.5590 C   0  0  0  0  0  0  0  0  0  0  0  0
   37.8260   31.8530   28.9120 C   0  0  0  0  0  0  0  0  0  0  0  0
   37.4930   32.2190   30.3390 C   0  0  0  0  0  0  0  0  0  0  0  0
   36.1160   31.6780   30.6870 C   0  0  0  0  0  0  0  0  0  0  0  0
   37.9724   24.0343   33.8913 H   0  0  0  0  0  0  0  0  0  0  0  0
   39.1149   26.7387   37.0839 H   0  0  0  0  0  0  0  0  0  0  0  0
   39.8519   22.0312   38.5350 H   0  0  0  0  0  0  0  0  0  0  0  0
   41.6998   22.0021   36.5524 H   0  0  0  0  0  0  0  0  0  0  0  0
   41.2533   23.2192   33.7551 H   0  0  0  0  0  0  0  0  0  0  0  0
   42.3140   26.6091   32.7484 H   0  0  0  0  0  0  0  0  0  0  0  0
   41.3785   25.1913   32.2029 H   0  0  0  0  0  0  0  0  0  0  0  0
   34.8231   29.0177   34.9570 H   0  0  0  0  0  0  0  0  0  0  0  0
   34.3075   30.5787   32.8112 H   0  0  0  0  0  0  0  0  0  0  0  0
   35.1334   29.9786   30.0965 H   0  0  0  0  0  0  0  0  0  0  0  0
   38.1513   29.6783   30.4461 H   0  0  0  0  0  0  0  0  0  0  0  0
   37.0136   28.6006   29.5445 H   0  0  0  0  0  0  0  0  0  0  0  0
   36.5642   30.4280   27.9467 H   0  0  0  0  0  0  0  0  0  0  0  0
   38.3072   29.9894   27.9923 H   0  0  0  0  0  0  0  0  0  0  0  0
   38.9063   31.9939   28.7598 H   0  0  0  0  0  0  0  0  0  0  0  0
   37.2237   32.5052   28.2625 H   0  0  0  0  0  0  0  0  0  0  0  0
   38.2418   31.7808   31.0152 H   0  0  0  0  0  0  0  0  0  0  0  0
   37.4983   33.3134   30.4500 H   0  0  0  0  0  0  0  0  0  0  0  0
   35.3806   32.0900   29.9803 H   0  0  0  0  0  0  0  0  0  0  0  0
   35.8770   31.9774   31.7181 H   0  0  0  0  0  0  0  0  0  0  0  0
  1  2  2  0
  2  3  1  0
  2  7  1  0
  4  3  2  0
  5  4  1  0
  6  5  2  0
  6  1  1  0
  7  8  1  0
  8  9  2  0
 10  9  1  0
 11  7  1  0
 11 10  2  0
 12 11  1  0
 13 12  1  0
 13 14  2  0
 15 13  1  0
 16 14  1  0
 17 18  2  0
 17  5  1  0
 19 18  1  0
 20 21  1  0
 20 19  2  0
 21 17  1  0
 22 27  1  0
 22 20  1  0
 23 22  1  0
 24 25  1  0
 24 23  1  0
 25 26  1  0
 26 27  1  0
  1 28  1  0
  3 29  1  0
  9 30  1  0
 10 31  1  0
 12 32  1  0
 15 33  1  0
 15 34  1  0
 18 35  1  0
 19 36  1  0
 22 37  1  0
 23 38  1  0
 23 39  1  0
 24 40  1  0
 24 41  1  0
 25 42  1  0
 25 43  1  0
 26 44  1  0
 26 45  1  0
 27 46  1  0
 27 47  1  0
M  ISO  8  28  14  29  14  30  14  31  14  35  14  36  14  37  13  38  13
M  ISO  8  39  13  40  13  41  13  42  13  43  13  44  13  45  13  46  13
M  ISO  1  47  13
M  END
>  <minimizedAffinity>  (1) 
-5.46021843

>  <minimizedRMSD>  (1) 
1.19059384

$$$$
