
     RDKit          3D

 44 47  0  0  0  0  0  0  0  0999 V2000
   37.9710   25.0070   34.3430 C   0  0  0  0  0  0  0  0  0  0  0  0
   38.6500   25.2150   35.5590 C   0  0  0  0  0  0  0  0  0  0  0  0
   38.5960   26.4960   36.1680 C   0  0  0  0  0  0  0  0  0  0  0  0
   37.8720   27.4500   35.5120 N   0  0  0  0  0  0  0  0  0  0  0  0
   37.2360   27.2350   34.3640 C   0  0  0  0  0  0  0  0  0  0  0  0
   37.2800   26.0040   33.7660 N   0  0  0  0  0  0  0  0  0  0  0  0
   39.3650   24.1880   36.1600 N   0  0  0  0  0  0  0  0  0  0  0  0
   39.0340   23.6010   37.3000 N   0  0  0  0  0  0  0  0  0  0  0  0
   39.9070   22.6420   37.6400 C   0  0  0  0  0  0  0  0  0  0  0  0
   40.8500   22.6440   36.6210 C   0  0  0  0  0  0  0  0  0  0  0  0
   40.4970   23.6260   35.6910 C   0  0  0  0  0  0  0  0  0  0  0  0
   41.2260   23.9320   34.4970 N   0  0  0  0  0  0  0  0  0  0  0  0
   41.8870   25.1860   34.2920 C   0  0  0  0  0  0  0  0  0  0  0  0
   42.4350   25.7090   35.3650 N   0  0  0  0  0  0  0  0  0  0  0  0
   41.8650   25.7000   32.9580 N   0  0  0  0  0  0  0  0  0  0  0  0
   42.9240   26.6110   35.1860 H   0  0  0  0  0  0  0  0  0  0  0  0
   36.4660   28.2660   33.6750 C   0  0  0  0  0  0  0  0  0  0  0  0
   35.3910   29.0340   34.0460 C   0  0  0  0  0  0  0  0  0  0  0  0
   35.1240   29.8300   32.9380 C   0  0  0  0  0  0  0  0  0  0  0  0
   36.0510   29.5040   31.9500 C   0  0  0  0  0  0  0  0  0  0  0  0
   36.8340   28.5570   32.4490 O   0  0  0  0  0  0  0  0  0  0  0  0
   36.1510   30.0920   30.6070 C   0  0  0  0  0  0  0  0  0  0  0  0
   36.8500   31.4130   30.6460 C   0  0  0  0  0  0  0  0  0  0  0  0
   37.3990   31.6450   29.2720 C   0  0  0  0  0  0  0  0  0  0  0  0
   37.5270   30.2910   28.6400 C   0  0  0  0  0  0  0  0  0  0  0  0
   37.0840   29.2890   29.7010 C   0  0  0  0  0  0  0  0  0  0  0  0
   38.0068   24.0188   33.8611 H   0  0  0  0  0  0  0  0  0  0  0  0
   39.1096   26.7087   37.1172 H   0  0  0  0  0  0  0  0  0  0  0  0
   39.8817   21.9960   38.5300 H   0  0  0  0  0  0  0  0  0  0  0  0
   41.7274   21.9838   36.5564 H   0  0  0  0  0  0  0  0  0  0  0  0
   41.2772   23.2202   33.7542 H   0  0  0  0  0  0  0  0  0  0  0  0
   42.3225   26.5977   32.7444 H   0  0  0  0  0  0  0  0  0  0  0  0
   41.3916   25.1725   32.2106 H   0  0  0  0  0  0  0  0  0  0  0  0
   34.8580   29.0223   35.0082 H   0  0  0  0  0  0  0  0  0  0  0  0
   34.3251   30.5816   32.8560 H   0  0  0  0  0  0  0  0  0  0  0  0
   35.1116   30.1352   30.2496 H   0  0  0  0  0  0  0  0  0  0  0  0
   36.1404   32.2106   30.9113 H   0  0  0  0  0  0  0  0  0  0  0  0
   37.6509   31.4169   31.4000 H   0  0  0  0  0  0  0  0  0  0  0  0
   36.7121   32.2753   28.6881 H   0  0  0  0  0  0  0  0  0  0  0  0
   38.3682   32.1638   29.3093 H   0  0  0  0  0  0  0  0  0  0  0  0
   36.8798   30.2202   27.7534 H   0  0  0  0  0  0  0  0  0  0  0  0
   38.5575   30.0970   28.3075 H   0  0  0  0  0  0  0  0  0  0  0  0
   36.5500   28.4442   29.2413 H   0  0  0  0  0  0  0  0  0  0  0  0
   37.9319   28.8527   30.2493 H   0  0  0  0  0  0  0  0  0  0  0  0
  1  2  2  0
  2  7  1  0
  2  3  1  0
  4  3  2  0
  5  4  1  0
  6  1  1  0
  6  5  2  0
  7  8  1  0
  8  9  2  0
 10  9  1  0
 11  7  1  0
 11 10  2  0
 12 11  1  0
 13 12  1  0
 13 14  2  0
 15 13  1  0
 16 14  1  0
 17 18  2  0
 17  5  1  0
 19 18  1  0
 20 21  1  0
 20 19  2  0
 21 17  1  0
 22 23  1  0
 22 20  1  0
 24 23  1  0
 25 24  1  0
 25 26  1  0
 26 22  1  0
  1 27  1  0
  3 28  1  0
  9 29  1  0
 10 30  1  0
 12 31  1  0
 15 32  1  0
 15 33  1  0
 18 34  1  0
 19 35  1  0
 22 36  1  0
 23 37  1  0
 23 38  1  0
 24 39  1  0
 24 40  1  0
 25 41  1  0
 25 42  1  0
 26 43  1  0
 26 44  1  0
M  ISO  8  27  14  28  14  29  14  30  14  34  14  35  14  36  13  37  13
M  ISO  7  38  13  39  13  40  13  41  13  42  13  43  13  44  13
M  END
>  <minimizedAffinity>  (1) 
-5.39150524

>  <minimizedRMSD>  (1) 
1.11351728

$$$$
