
     RDKit          3D

 34 36  0  0  0  0  0  0  0  0999 V2000
   37.6440   24.9780   34.4040 C   0  0  0  0  0  0  0  0  0  0  0  0
   38.1340   25.3940   35.6550 C   0  0  0  0  0  0  0  0  0  0  0  0
   38.1650   26.7690   35.9590 C   0  0  0  0  0  0  0  0  0  0  0  0
   37.7040   27.6190   34.9940 N   0  0  0  0  0  0  0  0  0  0  0  0
   37.2450   27.2120   33.8180 C   0  0  0  0  0  0  0  0  0  0  0  0
   37.2130   25.8860   33.5140 N   0  0  0  0  0  0  0  0  0  0  0  0
   38.5810   24.4560   36.5740 N   0  0  0  0  0  0  0  0  0  0  0  0
   38.1760   24.3650   37.8410 N   0  0  0  0  0  0  0  0  0  0  0  0
   38.7790   23.3690   38.4810 C   0  0  0  0  0  0  0  0  0  0  0  0
   39.6280   22.7910   37.5460 C   0  0  0  0  0  0  0  0  0  0  0  0
   39.4920   23.4860   36.3510 C   0  0  0  0  0  0  0  0  0  0  0  0
   40.2050   23.1910   35.1360 N   0  0  0  0  0  0  0  0  0  0  0  0
   41.3670   23.9400   34.7230 C   0  0  0  0  0  0  0  0  0  0  0  0
   42.1530   24.3350   35.6810 N   0  0  0  0  0  0  0  0  0  0  0  0
   41.5100   24.1530   33.3150 N   0  0  0  0  0  0  0  0  0  0  0  0
   42.9910   24.8680   35.3490 H   0  0  0  0  0  0  0  0  0  0  0  0
   36.7530   28.1280   32.7870 C   0  0  0  0  0  0  0  0  0  0  0  0
   35.6330   28.9180   32.7070 C   0  0  0  0  0  0  0  0  0  0  0  0
   35.7380   29.5490   31.4780 C   0  0  0  0  0  0  0  0  0  0  0  0
   36.9120   29.1170   30.8710 C   0  0  0  0  0  0  0  0  0  0  0  0
   37.4880   28.2570   31.7050 O   0  0  0  0  0  0  0  0  0  0  0  0
   37.4000   29.5600   29.5260 C   0  0  0  0  0  0  0  0  0  0  0  0
   37.2520   28.5940   28.5610 F   0  0  0  0  0  0  0  0  0  0  0  0
   36.7390   30.7080   29.1470 F   0  0  0  0  0  0  0  0  0  0  0  0
   38.7680   29.7480   29.6740 F   0  0  0  0  0  0  0  0  0  0  0  0
   37.6139   23.9071   34.1545 H   0  0  0  0  0  0  0  0  0  0  0  0
   38.5412   27.1394   36.9240 H   0  0  0  0  0  0  0  0  0  0  0  0
   38.6362   23.0664   39.5289 H   0  0  0  0  0  0  0  0  0  0  0  0
   40.2926   21.9322   37.7213 H   0  0  0  0  0  0  0  0  0  0  0  0
   39.8742   22.4183   34.5406 H   0  0  0  0  0  0  0  0  0  0  0  0
   42.3176   24.6802   32.9533 H   0  0  0  0  0  0  0  0  0  0  0  0
   40.8054   23.7791   32.6634 H   0  0  0  0  0  0  0  0  0  0  0  0
   34.8312   29.0259   33.4523 H   0  0  0  0  0  0  0  0  0  0  0  0
   35.0185   30.2662   31.0563 H   0  0  0  0  0  0  0  0  0  0  0  0
  1  2  2  0
  2  3  1  0
  2  7  1  0
  4  3  2  0
  5  4  1  0
  6  5  2  0
  6  1  1  0
  7  8  1  0
  8  9  2  0
 10  9  1  0
 11  7  1  0
 11 10  2  0
 12 11  1  0
 13 12  1  0
 13 14  2  0
 15 13  1  0
 16 14  1  0
 17  5  1  0
 18 17  2  0
 19 18  1  0
 20 19  2  0
 20 21  1  0
 21 17  1  0
 22 25  1  0
 22 20  1  0
 23 22  1  0
 24 22  1  0
  1 26  1  0
  3 27  1  0
  9 28  1  0
 10 29  1  0
 12 30  1  0
 15 31  1  0
 15 32  1  0
 18 33  1  0
 19 34  1  0
M  ISO  6  26  14  27  14  28  14  29  14  33  14  34  14
M  END
>  <minimizedAffinity>  (1) 
-5.2165451

>  <minimizedRMSD>  (1) 
1.27111351

$$$$
