
     RDKit          3D

 40 42  0  0  0  0  0  0  0  0999 V2000
   37.7130   24.8730   34.4210 C   0  0  0  0  0  0  0  0  0  0  0  0
   38.1740   25.3120   35.6650 C   0  0  0  0  0  0  0  0  0  0  0  0
   38.2040   26.6970   35.9550 C   0  0  0  0  0  0  0  0  0  0  0  0
   37.7660   27.5210   34.9580 N   0  0  0  0  0  0  0  0  0  0  0  0
   37.3290   27.1050   33.7790 C   0  0  0  0  0  0  0  0  0  0  0  0
   37.3010   25.7610   33.5010 N   0  0  0  0  0  0  0  0  0  0  0  0
   38.6050   24.3880   36.6250 N   0  0  0  0  0  0  0  0  0  0  0  0
   38.1860   24.3430   37.8790 N   0  0  0  0  0  0  0  0  0  0  0  0
   38.7690   23.3560   38.5660 C   0  0  0  0  0  0  0  0  0  0  0  0
   39.6250   22.7370   37.6510 C   0  0  0  0  0  0  0  0  0  0  0  0
   39.5090   23.4020   36.4260 C   0  0  0  0  0  0  0  0  0  0  0  0
   40.2280   23.0620   35.2420 N   0  0  0  0  0  0  0  0  0  0  0  0
   41.3670   23.8200   34.7800 C   0  0  0  0  0  0  0  0  0  0  0  0
   42.1510   24.2940   35.7190 N   0  0  0  0  0  0  0  0  0  0  0  0
   41.5090   23.9670   33.3590 N   0  0  0  0  0  0  0  0  0  0  0  0
   42.9690   24.8270   35.3530 H   0  0  0  0  0  0  0  0  0  0  0  0
   36.8630   27.9870   32.7220 C   0  0  0  0  0  0  0  0  0  0  0  0
   35.6320   28.5480   32.4680 C   0  0  0  0  0  0  0  0  0  0  0  0
   35.8270   29.2990   31.3040 C   0  0  0  0  0  0  0  0  0  0  0  0
   37.1680   29.1480   30.9230 C   0  0  0  0  0  0  0  0  0  0  0  0
   37.7370   28.3510   31.8130 O   0  0  0  0  0  0  0  0  0  0  0  0
   37.7800   29.7990   29.7180 C   0  0  0  0  0  0  0  0  0  0  0  0
   37.0120   31.0100   29.3020 C   0  0  0  0  0  0  0  0  0  0  0  0
   37.8070   28.8280   28.5340 C   0  0  0  0  0  0  0  0  0  0  0  0
   37.6874   23.7969   34.1944 H   0  0  0  0  0  0  0  0  0  0  0  0
   38.5575   27.0849   36.9217 H   0  0  0  0  0  0  0  0  0  0  0  0
   38.6099   23.0891   39.6212 H   0  0  0  0  0  0  0  0  0  0  0  0
   40.2772   21.8758   37.8583 H   0  0  0  0  0  0  0  0  0  0  0  0
   39.9230   22.2441   34.6953 H   0  0  0  0  0  0  0  0  0  0  0  0
   42.3028   24.4978   32.9729 H   0  0  0  0  0  0  0  0  0  0  0  0
   40.8171   23.5417   32.7256 H   0  0  0  0  0  0  0  0  0  0  0  0
   34.7050   28.4321   33.0487 H   0  0  0  0  0  0  0  0  0  0  0  0
   35.0667   29.8989   30.7824 H   0  0  0  0  0  0  0  0  0  0  0  0
   38.8031   30.0896   29.9990 H   0  0  0  0  0  0  0  0  0  0  0  0
   36.6687   31.5514   30.1959 H   0  0  0  0  0  0  0  0  0  0  0  0
   37.6593   31.6664   28.7018 H   0  0  0  0  0  0  0  0  0  0  0  0
   36.1423   30.7044   28.7018 H   0  0  0  0  0  0  0  0  0  0  0  0
   37.8358   27.7941   28.9083 H   0  0  0  0  0  0  0  0  0  0  0  0
   36.9045   28.9713   27.9216 H   0  0  0  0  0  0  0  0  0  0  0  0
   38.7001   29.0212   27.9216 H   0  0  0  0  0  0  0  0  0  0  0  0
  1  2  2  0
  2  3  1  0
  2  7  1  0
  4  3  2  0
  5  4  1  0
  6  5  2  0
  6  1  1  0
  7  8  1  0
  8  9  2  0
 10  9  1  0
 11  7  1  0
 11 10  2  0
 12 11  1  0
 13 12  1  0
 13 14  2  0
 15 13  1  0
 16 14  1  0
 17  5  1  0
 18 17  2  0
 19 18  1  0
 20 19  2  0
 20 21  1  0
 21 17  1  0
 22 20  1  0
 23 22  1  0
 24 22  1  0
  1 25  1  0
  3 26  1  0
  9 27  1  0
 10 28  1  0
 12 29  1  0
 15 30  1  0
 15 31  1  0
 18 32  1  0
 19 33  1  0
 22 34  1  0
 23 35  1  0
 23 36  1  0
 23 37  1  0
 24 38  1  0
 24 39  1  0
 24 40  1  0
M  ISO  8  25  14  26  14  27  14  28  14  32  14  33  14  34   8  35   8
M  ISO  5  36   8  37   8  38   8  39   8  40   8
M  END
>  <minimizedAffinity>  (1) 
-5.01188898

>  <minimizedRMSD>  (1) 
1.3269614

$$$$
