
     RDKit          3D

 31 33  0  0  1  0  0  0  0  0999 V2000
   42.7270   24.5580   35.4920 C   0  0  1  0  0  0  0  0  0  0  0  0
   44.0020   24.4140   34.7780 C   0  0  0  0  0  0  0  0  0  0  0  0
   44.0030   25.2200   36.0190 C   0  0  2  0  0  0  0  0  0  0  0  0
   44.6560   24.7300   37.2660 C   0  0  0  0  0  0  0  0  0  0  0  0
   44.7150   25.8590   38.2600 C   0  0  0  0  0  0  0  0  0  0  0  0
   45.9070   25.5450   39.1570 C   0  0  0  0  0  0  0  0  0  0  0  0
   46.8380   24.6850   38.3040 C   0  0  0  0  0  0  0  0  0  0  0  0
   46.1240   24.4960   36.9860 C   0  0  0  0  0  0  0  0  0  0  0  0
   41.8270   25.4710   34.8330 O   0  0  0  0  0  0  0  0  0  0  0  0
   38.6610   27.0800   35.3440 C   0  0  0  0  0  0  0  0  0  0  0  0
   40.0200   26.8560   35.0390 C   0  0  0  0  0  0  0  0  0  0  0  0
   40.4850   25.5230   35.1500 C   0  0  0  0  0  0  0  0  0  0  0  0
   39.6350   24.5330   35.5300 N   0  0  0  0  0  0  0  0  0  0  0  0
   38.3540   24.8040   35.8070 C   0  0  0  0  0  0  0  0  0  0  0  0
   37.8660   26.0450   35.7210 N   0  0  0  0  0  0  0  0  0  0  0  0
   41.9708   23.8788   35.9126 H   0  0  0  0  0  0  0  0  0  0  0  0
   44.5092   23.4380   34.7643 H   0  0  0  0  0  0  0  0  0  0  0  0
   44.3225   24.6067   33.7435 H   0  0  0  0  0  0  0  0  0  0  0  0
   44.3124   26.2403   36.2895 H   0  0  0  0  0  0  0  0  0  0  0  0
   44.1069   23.8423   37.6132 H   0  0  0  0  0  0  0  0  0  0  0  0
   44.8637   26.8190   37.7440 H   0  0  0  0  0  0  0  0  0  0  0  0
   43.7816   25.9475   38.8352 H   0  0  0  0  0  0  0  0  0  0  0  0
   46.4128   26.4722   39.4643 H   0  0  0  0  0  0  0  0  0  0  0  0
   45.6016   25.0285   40.0789 H   0  0  0  0  0  0  0  0  0  0  0  0
   47.7994   25.1969   38.1498 H   0  0  0  0  0  0  0  0  0  0  0  0
   47.0597   23.7224   38.7881 H   0  0  0  0  0  0  0  0  0  0  0  0
   46.2826   23.4748   36.6091 H   0  0  0  0  0  0  0  0  0  0  0  0
   46.5025   25.1900   36.2211 H   0  0  0  0  0  0  0  0  0  0  0  0
   38.2439   28.0956   35.2764 H   0  0  0  0  0  0  0  0  0  0  0  0
   40.6853   27.6758   34.7304 H   0  0  0  0  0  0  0  0  0  0  0  0
   37.6864   23.9850   36.1130 H   0  0  0  0  0  0  0  0  0  0  0  0
  1  3  1  0
  2  1  1  0
  2  3  1  0
  3  4  1  0
  4  5  1  0
  5  6  1  0
  7  6  1  0
  8  4  1  0
  8  7  1  0
  9 12  1  0
  9  1  1  0
 10 15  2  0
 11 12  2  0
 11 10  1  0
 12 13  1  0
 13 14  2  0
 15 14  1  0
  1 16  1  1
  2 17  1  0
  2 18  1  0
  3 19  1  6
  4 20  1  0
  5 21  1  0
  5 22  1  0
  6 23  1  0
  6 24  1  0
  7 25  1  0
  7 26  1  0
  8 27  1  0
  8 28  1  0
 10 29  1  0
 11 30  1  0
 14 31  1  0
M  ISO  8  16  13  17  13  18  13  19  13  20  13  21  13  22  13  23  13
M  ISO  8  24  13  25  13  26  13  27  13  28  13  29  14  30  14  31  14
M  END
>  <minimizedAffinity>  (1) 
-4.47479296

>  <minimizedRMSD>  (1) 
4.27635574

$$$$
