
     RDKit          3D

 32 35  0  0  1  0  0  0  0  0999 V2000
   45.0690   24.9010   36.9180 C   0  0  1  0  0  0  0  0  0  0  0  0
   44.8610   25.8750   37.9850 C   0  0  0  0  0  0  0  0  0  0  0  0
   45.9820   24.9230   38.1480 C   0  0  2  0  0  0  0  0  0  0  0  0
   47.3830   25.2610   37.8350 C   0  0  0  0  0  0  0  0  0  0  0  0
   47.5790   26.3400   36.9620 C   0  0  0  0  0  0  0  0  0  0  0  0
   48.9190   26.5360   36.7990 N   0  0  0  0  0  0  0  0  0  0  0  0
   49.6020   25.6240   37.5330 C   0  0  0  0  0  0  0  0  0  0  0  0
   50.9090   25.2710   37.8070 C   0  0  0  0  0  0  0  0  0  0  0  0
   51.2290   24.2250   38.6430 C   0  0  0  0  0  0  0  0  0  0  0  0
   50.2440   23.4700   39.2550 C   0  0  0  0  0  0  0  0  0  0  0  0
   48.9360   23.8120   38.9910 C   0  0  0  0  0  0  0  0  0  0  0  0
   48.6530   24.8470   38.1640 C   0  0  0  0  0  0  0  0  0  0  0  0
   44.1060   23.8380   36.9100 O   0  0  0  0  0  0  0  0  0  0  0  0
   40.7060   22.9450   36.1860 C   0  0  0  0  0  0  0  0  0  0  0  0
   42.0170   22.9720   36.7600 C   0  0  0  0  0  0  0  0  0  0  0  0
   42.8940   23.9630   36.2630 C   0  0  0  0  0  0  0  0  0  0  0  0
   42.4810   24.8230   35.2990 N   0  0  0  0  0  0  0  0  0  0  0  0
   41.2470   24.7560   34.7970 C   0  0  0  0  0  0  0  0  0  0  0  0
   40.3710   23.8420   35.2220 N   0  0  0  0  0  0  0  0  0  0  0  0
   45.2242   24.9433   35.8298 H   0  0  0  0  0  0  0  0  0  0  0  0
   45.0752   26.9377   37.7982 H   0  0  0  0  0  0  0  0  0  0  0  0
   43.9970   26.1470   38.6091 H   0  0  0  0  0  0  0  0  0  0  0  0
   46.2837   24.2815   38.9891 H   0  0  0  0  0  0  0  0  0  0  0  0
   46.7829   26.9316   36.4864 H   0  0  0  0  0  0  0  0  0  0  0  0
   49.3459   27.2646   36.2092 H   0  0  0  0  0  0  0  0  0  0  0  0
   51.7228   25.8458   37.3409 H   0  0  0  0  0  0  0  0  0  0  0  0
   52.2865   23.9852   38.8277 H   0  0  0  0  0  0  0  0  0  0  0  0
   50.4946   22.6330   39.9233 H   0  0  0  0  0  0  0  0  0  0  0  0
   48.1172   23.2418   39.4540 H   0  0  0  0  0  0  0  0  0  0  0  0
   39.9713   22.1996   36.5246 H   0  0  0  0  0  0  0  0  0  0  0  0
   42.3242   22.2626   37.5426 H   0  0  0  0  0  0  0  0  0  0  0  0
   40.9444   25.4691   34.0160 H   0  0  0  0  0  0  0  0  0  0  0  0
  1  2  1  0
  1  3  1  0
  2  3  1  0
  4  3  1  0
  4 12  1  0
  5  4  2  0
  6  5  1  0
  6  7  1  0
  7  8  2  0
  7 12  1  0
  8  9  1  0
  9 10  2  0
 11 10  1  0
 12 11  2  0
 13  1  1  0
 14 15  2  0
 16 15  1  0
 16 13  1  0
 17 16  2  0
 18 19  2  0
 18 17  1  0
 19 14  1  0
  1 20  1  6
  2 21  1  0
  2 22  1  0
  3 23  1  1
  5 24  1  0
  6 25  1  0
  8 26  1  0
  9 27  1  0
 10 28  1  0
 11 29  1  0
 14 30  1  0
 15 31  1  0
 18 32  1  0
M  ISO  8  20  13  21  13  22  13  23  13  24  14  25   9  26  14  27  14
M  ISO  5  28  14  29  14  30  14  31  14  32  14
M  END
>  <minimizedAffinity>  (1) 
-4.25344038

>  <minimizedRMSD>  (1) 
2.07273078

$$$$
