
     RDKit          3D

 25 27  0  0  1  0  0  0  0  0999 V2000
   42.8580   23.2450   36.6510 C   0  0  1  0  0  0  0  0  0  0  0  0
   43.9900   22.8680   35.8060 C   0  0  0  0  0  0  0  0  0  0  0  0
   43.8520   24.3010   36.1530 C   0  0  2  0  0  0  0  0  0  0  0  0
   44.6640   24.8960   37.2390 C   0  0  0  0  0  0  0  0  0  0  0  0
   45.9720   24.5280   37.5610 C   0  0  0  0  0  0  0  0  0  0  0  0
   46.3950   25.2780   38.6020 N   0  0  0  0  0  0  0  0  0  0  0  0
   45.3560   26.0950   38.9080 C   0  0  0  0  0  0  0  0  0  0  0  0
   44.3040   25.8720   38.0910 N   0  0  0  0  0  0  0  0  0  0  0  0
   41.6030   23.2310   35.9560 O   0  0  0  0  0  0  0  0  0  0  0  0
   38.1960   24.2950   36.3420 C   0  0  0  0  0  0  0  0  0  0  0  0
   39.4990   24.0650   35.7950 C   0  0  0  0  0  0  0  0  0  0  0  0
   40.3980   23.3550   36.6200 C   0  0  0  0  0  0  0  0  0  0  0  0
   40.0120   22.9300   37.8520 N   0  0  0  0  0  0  0  0  0  0  0  0
   38.7890   23.1720   38.3120 C   0  0  0  0  0  0  0  0  0  0  0  0
   37.8990   23.8390   37.5780 N   0  0  0  0  0  0  0  0  0  0  0  0
   42.4692   22.9461   37.6356 H   0  0  0  0  0  0  0  0  0  0  0  0
   43.8090   22.5409   34.7715 H   0  0  0  0  0  0  0  0  0  0  0  0
   44.8044   22.1355   35.9072 H   0  0  0  0  0  0  0  0  0  0  0  0
   43.8569   25.2205   35.5492 H   0  0  0  0  0  0  0  0  0  0  0  0
   46.5622   23.7531   37.0499 H   0  0  0  0  0  0  0  0  0  0  0  0
   45.3688   26.8414   39.7159 H   0  0  0  0  0  0  0  0  0  0  0  0
   43.3963   26.3582   38.1159 H   0  0  0  0  0  0  0  0  0  0  0  0
   37.4402   24.8407   35.7581 H   0  0  0  0  0  0  0  0  0  0  0  0
   39.7823   24.4199   34.7931 H   0  0  0  0  0  0  0  0  0  0  0  0
   38.5070   22.8163   39.3140 H   0  0  0  0  0  0  0  0  0  0  0  0
  2  3  1  0
  2  1  1  0
  3  1  1  0
  3  4  1  0
  4  5  2  0
  4  8  1  0
  5  6  1  0
  6  7  2  0
  8  7  1  0
  9 12  1  0
  9  1  1  0
 10 15  2  0
 11 10  1  0
 11 12  2  0
 12 13  1  0
 13 14  2  0
 15 14  1  0
  1 16  1  1
  2 17  1  0
  2 18  1  0
  3 19  1  6
  5 20  1  0
  7 21  1  0
  8 22  1  0
 10 23  1  0
 11 24  1  0
 14 25  1  0
M  ISO  8  16  13  17  13  18  13  19  13  20  14  21  14  22   9  23  14
M  ISO  2  24  14  25  14
M  END
>  <minimizedAffinity>  (1) 
-4.11841059

>  <minimizedRMSD>  (1) 
3.77793002

$$$$
