
     RDKit          3D

 29 31  0  0  1  0  0  0  0  0999 V2000
   43.7350   24.4270   35.6580 C   0  0  1  0  0  0  0  0  0  0  0  0
   44.6140   25.2390   34.8170 C   0  0  0  0  0  0  0  0  0  0  0  0
   44.5430   25.5810   36.2580 C   0  0  2  0  0  0  0  0  0  0  0  0
   45.6510   25.1400   37.0800 N   0  0  0  0  0  0  0  0  0  0  0  0
   46.6830   24.4840   36.5450 C   0  0  0  0  0  0  0  0  0  0  0  0
   47.7190   24.0870   37.3880 C   0  0  0  0  0  0  0  0  0  0  0  0
   47.6850   24.3580   38.7420 C   0  0  0  0  0  0  0  0  0  0  0  0
   48.6740   24.0040   39.6820 N   0  0  0  0  0  0  0  0  0  0  0  0
   46.6070   25.0250   39.2050 N   0  0  0  0  0  0  0  0  0  0  0  0
   45.6020   25.4170   38.4150 C   0  0  0  0  0  0  0  0  0  0  0  0
   44.6190   26.0420   38.9320 O   0  0  0  0  0  0  0  0  0  0  0  0
   42.3430   24.7060   35.4530 O   0  0  0  0  0  0  0  0  0  0  0  0
   39.0130   23.3620   35.4300 C   0  0  0  0  0  0  0  0  0  0  0  0
   40.1600   24.1850   35.1690 C   0  0  0  0  0  0  0  0  0  0  0  0
   41.3620   23.8050   35.8010 C   0  0  0  0  0  0  0  0  0  0  0  0
   41.3950   22.7090   36.6060 N   0  0  0  0  0  0  0  0  0  0  0  0
   40.3100   21.9800   36.8170 C   0  0  0  0  0  0  0  0  0  0  0  0
   39.1260   22.2920   36.2420 N   0  0  0  0  0  0  0  0  0  0  0  0
   43.6224   23.3576   35.8899 H   0  0  0  0  0  0  0  0  0  0  0  0
   45.5349   24.7968   34.4091 H   0  0  0  0  0  0  0  0  0  0  0  0
   44.4655   25.8118   33.8897 H   0  0  0  0  0  0  0  0  0  0  0  0
   44.3395   26.5007   36.8261 H   0  0  0  0  0  0  0  0  0  0  0  0
   46.7148   24.2628   35.4679 H   0  0  0  0  0  0  0  0  0  0  0  0
   48.5803   23.5475   36.9672 H   0  0  0  0  0  0  0  0  0  0  0  0
   48.5543   24.2533   40.6742 H   0  0  0  0  0  0  0  0  0  0  0  0
   49.5164   23.4960   39.3767 H   0  0  0  0  0  0  0  0  0  0  0  0
   38.0443   23.6040   34.9685 H   0  0  0  0  0  0  0  0  0  0  0  0
   40.1042   25.0649   34.5112 H   0  0  0  0  0  0  0  0  0  0  0  0
   40.3729   21.1006   37.4749 H   0  0  0  0  0  0  0  0  0  0  0  0
  1  3  1  0
  2  1  1  0
  2  3  1  0
  3  4  1  0
  4 10  1  0
  5  4  1  0
  5  6  2  0
  6  7  1  0
  7  9  2  0
  7  8  1  0
 10 11  2  0
 10  9  1  0
 12  1  1  0
 12 15  1  0
 13 18  2  0
 14 13  1  0
 14 15  2  0
 15 16  1  0
 16 17  2  0
 18 17  1  0
  1 19  1  1
  2 20  1  0
  2 21  1  0
  3 22  1  6
  5 23  1  0
  6 24  1  0
  8 25  1  0
  8 26  1  0
 13 27  1  0
 14 28  1  0
 17 29  1  0
M  ISO  8  19  13  20  13  21  13  22  13  23  14  24  14  27  14  28  14
M  ISO  1  29  14
M  END
>  <minimizedAffinity>  (1) 
-4.00246525

>  <minimizedRMSD>  (1) 
2.63393331

$$$$
