
     RDKit          3D

 31 33  0  0  1  0  0  0  0  0999 V2000
   45.2900   25.3860   37.4750 C   0  0  1  0  0  0  0  0  0  0  0  0
   45.5110   26.0040   38.7810 C   0  0  0  0  0  0  0  0  0  0  0  0
   46.4640   24.9510   38.3570 C   0  0  2  0  0  0  0  0  0  0  0  0
   47.8050   25.2900   37.9860 N   0  0  0  0  0  0  0  0  0  0  0  0
   47.8680   26.4800   37.3220 C   0  0  0  0  0  0  0  0  0  0  0  0
   49.0860   26.9870   36.8750 C   0  0  0  0  0  0  0  0  0  0  0  0
   49.1710   28.2870   36.1490 C   0  0  0  0  0  0  0  0  0  0  0  0
   50.2680   26.2750   37.1050 C   0  0  0  0  0  0  0  0  0  0  0  0
   51.4010   26.6800   36.7260 O   0  0  0  0  0  0  0  0  0  0  0  0
   50.1200   25.0980   37.7720 N   0  0  0  0  0  0  0  0  0  0  0  0
   48.9390   24.6200   38.1980 C   0  0  0  0  0  0  0  0  0  0  0  0
   48.8020   23.5480   38.8060 O   0  0  0  0  0  0  0  0  0  0  0  0
   44.1870   24.4710   37.4620 O   0  0  0  0  0  0  0  0  0  0  0  0
   42.2240   22.4740   35.2100 C   0  0  0  0  0  0  0  0  0  0  0  0
   42.9940   22.8930   36.3400 C   0  0  0  0  0  0  0  0  0  0  0  0
   43.4530   24.2290   36.3170 C   0  0  0  0  0  0  0  0  0  0  0  0
   43.1550   25.0350   35.2650 N   0  0  0  0  0  0  0  0  0  0  0  0
   42.4340   24.5950   34.2390 C   0  0  0  0  0  0  0  0  0  0  0  0
   41.9770   23.3440   34.2070 N   0  0  0  0  0  0  0  0  0  0  0  0
   45.1849   25.7405   36.4390 H   0  0  0  0  0  0  0  0  0  0  0  0
   45.8475   27.0498   38.8362 H   0  0  0  0  0  0  0  0  0  0  0  0
   44.8818   26.1480   39.6717 H   0  0  0  0  0  0  0  0  0  0  0  0
   46.8283   24.0030   38.7796 H   0  0  0  0  0  0  0  0  0  0  0  0
   46.9439   27.0472   37.1369 H   0  0  0  0  0  0  0  0  0  0  0  0
   49.2248   29.1104   36.8764 H   0  0  0  0  0  0  0  0  0  0  0  0
   50.0717   28.2961   35.5176 H   0  0  0  0  0  0  0  0  0  0  0  0
   48.2792   28.4133   35.5176 H   0  0  0  0  0  0  0  0  0  0  0  0
   50.9646   24.5399   37.9617 H   0  0  0  0  0  0  0  0  0  0  0  0
   41.8343   21.4467   35.1580 H   0  0  0  0  0  0  0  0  0  0  0  0
   43.2158   22.2152   37.1775 H   0  0  0  0  0  0  0  0  0  0  0  0
   42.2111   25.2744   33.4031 H   0  0  0  0  0  0  0  0  0  0  0  0
  1  3  1  0
  1  2  1  0
  3  2  1  0
  4 11  1  0
  4  3  1  0
  5  4  1  0
  6  8  1  0
  6  5  2  0
  7  6  1  0
  8 10  1  0
  9  8  2  0
 10 11  1  0
 11 12  2  0
 13  1  1  0
 14 15  2  0
 16 15  1  0
 16 13  1  0
 17 16  2  0
 18 17  1  0
 19 18  2  0
 19 14  1  0
  1 20  1  6
  2 21  1  0
  2 22  1  0
  3 23  1  1
  5 24  1  0
  7 25  1  0
  7 26  1  0
  7 27  1  0
 10 28  1  0
 14 29  1  0
 15 30  1  0
 18 31  1  0
M  ISO  8  20  13  21  13  22  13  23  13  24  14  25   8  26   8  27   8
M  ISO  4  28   9  29  14  30  14  31  14
M  END
>  <minimizedAffinity>  (1) 
-3.80712199

>  <minimizedRMSD>  (1) 
2.14718246

$$$$
