
     RDKit          3D

 27 28  0  0  1  0  0  0  0  0999 V2000
   43.8070   25.5810   36.2260 O   0  0  0  0  0  0  0  0  0  0  0  0
   45.8740   25.4770   39.1460 C   0  0  0  0  0  0  0  0  0  0  0  0
   44.7910   25.7410   38.2620 C   0  0  0  0  0  0  0  0  0  0  0  0
   44.9230   25.2290   36.9530 C   0  0  0  0  0  0  0  0  0  0  0  0
   46.0340   24.5280   36.6010 N   0  0  0  0  0  0  0  0  0  0  0  0
   47.0160   24.3110   37.4670 C   0  0  0  0  0  0  0  0  0  0  0  0
   46.9440   24.7800   38.7330 N   0  0  0  0  0  0  0  0  0  0  0  0
   43.3110   24.7500   35.1630 C   0  0  1  0  0  0  0  0  0  0  0  0
   41.9460   24.2790   35.3950 C   0  0  0  0  0  0  0  0  0  0  0  0
   42.1760   25.3060   34.3460 C   0  0  1  0  0  0  0  0  0  0  0  0
   41.5110   26.6000   34.5710 C   0  0  0  0  0  0  0  0  0  0  0  0
   40.0530   26.4170   34.9010 C   0  0  0  0  0  0  0  0  0  0  0  0
   41.5230   27.4010   33.2610 C   0  0  0  0  0  0  0  0  0  0  0  0
   45.8339   25.8486   40.1805 H   0  0  0  0  0  0  0  0  0  0  0  0
   43.9044   26.3096   38.5792 H   0  0  0  0  0  0  0  0  0  0  0  0
   47.9018   23.7410   37.1500 H   0  0  0  0  0  0  0  0  0  0  0  0
   44.2806   24.2983   34.9065 H   0  0  0  0  0  0  0  0  0  0  0  0
   41.6646   23.2558   35.1052 H   0  0  0  0  0  0  0  0  0  0  0  0
   41.2940   24.2140   36.2786 H   0  0  0  0  0  0  0  0  0  0  0  0
   42.0617   25.4466   33.2610 H   0  0  0  0  0  0  0  0  0  0  0  0
   42.0427   27.1006   35.3936 H   0  0  0  0  0  0  0  0  0  0  0  0
   39.9235   26.4007   35.9932 H   0  0  0  0  0  0  0  0  0  0  0  0
   39.4734   27.2494   34.4754 H   0  0  0  0  0  0  0  0  0  0  0  0
   39.6971   25.4671   34.4754 H   0  0  0  0  0  0  0  0  0  0  0  0
   41.5391   28.4769   33.4892 H   0  0  0  0  0  0  0  0  0  0  0  0
   42.4173   27.1365   32.6777 H   0  0  0  0  0  0  0  0  0  0  0  0
   40.6212   27.1634   32.6777 H   0  0  0  0  0  0  0  0  0  0  0  0
  1  4  1  0
  3  2  2  0
  4  3  1  0
  5  4  2  0
  5  6  1  0
  6  7  2  0
  7  2  1  0
  8  9  1  0
  8  1  1  0
 10 11  1  0
 10  8  1  0
 10  9  1  0
 11 12  1  0
 13 11  1  0
  2 14  1  0
  3 15  1  0
  6 16  1  0
  8 17  1  6
  9 18  1  0
  9 19  1  0
 10 20  1  6
 11 21  1  0
 12 22  1  0
 12 23  1  0
 12 24  1  0
 13 25  1  0
 13 26  1  0
 13 27  1  0
M  ISO  8  14  14  15  14  16  14  17  13  18  13  19  13  20  13  21   8
M  ISO  6  22   8  23   8  24   8  25   8  26   8  27   8
M  END
>  <minimizedAffinity>  (1) 
-3.47161937

>  <minimizedRMSD>  (1) 
5.25660372

$$$$
