
     RDKit          3D

 44 48  0  0  1  0  0  0  0  0999 V2000
   40.9060   22.6330   37.2900 C   0  0  1  0  0  0  0  0  0  0  0  0
   41.6740   21.4040   37.2630 C   0  0  0  0  0  0  0  0  0  0  0  0
   41.8520   22.3300   36.1080 C   0  0  2  0  0  0  0  0  0  0  0  0
   43.1150   23.0540   36.0590 N   0  0  0  0  0  0  0  0  0  0  0  0
   44.3890   22.7340   36.4130 C   0  0  0  0  0  0  0  0  0  0  0  0
   45.1970   23.7850   36.1540 N   0  0  0  0  0  0  0  0  0  0  0  0
   44.4220   24.7780   35.6310 C   0  0  0  0  0  0  0  0  0  0  0  0
   44.7870   26.0470   35.2060 C   0  0  0  0  0  0  0  0  0  0  0  0
   45.9690   26.4760   35.2550 O   0  0  0  0  0  0  0  0  0  0  0  0
   43.7840   26.8170   34.7250 N   0  0  0  0  0  0  0  0  0  0  0  0
   42.5270   26.3920   34.6610 C   0  0  0  0  0  0  0  0  0  0  0  0
   41.4040   27.1180   34.1720 N   0  0  0  0  0  0  0  0  0  0  0  0
   42.1930   25.1770   35.0720 N   0  0  0  0  0  0  0  0  0  0  0  0
   43.1260   24.3050   35.5790 C   0  0  0  0  0  0  0  0  0  0  0  0
   39.5170   22.4760   36.9000 O   0  0  0  0  0  0  0  0  0  0  0  0
   37.8730   23.0390   33.7780 C   0  0  0  0  0  0  0  0  0  0  0  0
   38.4640   22.4060   34.8750 C   0  0  0  0  0  0  0  0  0  0  0  0
   38.9620   23.2440   35.8870 C   0  0  0  0  0  0  0  0  0  0  0  0
   38.8690   24.6110   35.8010 N   0  0  0  0  0  0  0  0  0  0  0  0
   38.2920   25.1640   34.7300 C   0  0  0  0  0  0  0  0  0  0  0  0
   37.7970   24.3760   33.7210 N   0  0  0  0  0  0  0  0  0  0  0  0
   38.0210   26.5060   34.4400 N   0  0  0  0  0  0  0  0  0  0  0  0
   37.5760   27.7000   35.1330 C   0  0  0  0  0  0  0  0  0  0  0  0
   36.3480   28.1770   34.3830 C   0  0  0  0  0  0  0  0  0  0  0  0
   36.6390   27.6190   32.9820 C   0  0  0  0  0  0  0  0  0  0  0  0
   38.1160   27.2530   33.2020 C   0  0  0  0  0  0  0  0  0  0  0  0
   40.7762   23.4394   38.0268 H   0  0  0  0  0  0  0  0  0  0  0  0
   42.4989   21.2663   37.9775 H   0  0  0  0  0  0  0  0  0  0  0  0
   41.4054   20.3406   37.3472 H   0  0  0  0  0  0  0  0  0  0  0  0
   41.7539   22.2775   35.0136 H   0  0  0  0  0  0  0  0  0  0  0  0
   44.7098   21.7731   36.8416 H   0  0  0  0  0  0  0  0  0  0  0  0
   44.0031   27.7682   34.3962 H   0  0  0  0  0  0  0  0  0  0  0  0
   40.4703   26.6831   34.1710 H   0  0  0  0  0  0  0  0  0  0  0  0
   41.5253   28.0781   33.8192 H   0  0  0  0  0  0  0  0  0  0  0  0
   37.4665   22.4344   32.9538 H   0  0  0  0  0  0  0  0  0  0  0  0
   38.5355   21.3104   34.9425 H   0  0  0  0  0  0  0  0  0  0  0  0
   37.3204   27.4647   36.1767 H   0  0  0  0  0  0  0  0  0  0  0  0
   38.3606   28.4705   35.1583 H   0  0  0  0  0  0  0  0  0  0  0  0
   35.4248   27.7532   34.8049 H   0  0  0  0  0  0  0  0  0  0  0  0
   36.1842   29.2642   34.4177 H   0  0  0  0  0  0  0  0  0  0  0  0
   36.5100   28.3776   32.1960 H   0  0  0  0  0  0  0  0  0  0  0  0
   35.9845   26.8033   32.6410 H   0  0  0  0  0  0  0  0  0  0  0  0
   38.5071   26.6325   32.3822 H   0  0  0  0  0  0  0  0  0  0  0  0
   38.8012   28.1128   33.2367 H   0  0  0  0  0  0  0  0  0  0  0  0
  2  1  1  0
  3  2  1  0
  3  1  1  0
  4  3  1  0
  4  5  1  0
  6  5  2  0
  7  6  1  0
  8  9  2  0
  8  7  1  0
 10  8  1  0
 11 10  1  0
 11 13  2  0
 12 11  1  0
 13 14  1  0
 14  7  2  0
 14  4  1  0
 15  1  1  0
 16 17  2  0
 17 18  1  0
 18 15  1  0
 19 18  2  0
 20 19  1  0
 21 16  1  0
 21 20  2  0
 22 20  1  0
 22 23  1  0
 24 23  1  0
 25 26  1  0
 25 24  1  0
 26 22  1  0
  1 27  1  1
  2 28  1  0
  2 29  1  0
  3 30  1  6
  5 31  1  0
 10 32  1  0
 12 33  1  0
 12 34  1  0
 16 35  1  0
 17 36  1  0
 23 37  1  0
 23 38  1  0
 24 39  1  0
 24 40  1  0
 25 41  1  0
 25 42  1  0
 26 43  1  0
 26 44  1  0
M  ISO  8  27  13  28  13  29  13  30  13  31  14  32   9  35  14  36  14
M  ISO  8  37  13  38  13  39  13  40  13  41  13  42  13  43  13  44  13
M  END
>  <minimizedAffinity>  (1) 
-5.49927425

>  <minimizedRMSD>  (1) 
4.99334478

$$$$
