
     RDKit          3D

 46 51  0  0  1  0  0  0  0  0999 V2000
   46.0270   25.1480   37.1190 C   0  0  1  0  0  0  0  0  0  0  0  0
   47.3360   25.2730   37.7340 C   0  0  0  0  0  0  0  0  0  0  0  0
   47.2790   25.3640   36.2450 C   0  0  2  0  0  0  0  0  0  0  0  0
   47.4920   26.6780   35.6710 N   0  0  0  0  0  0  0  0  0  0  0  0
   48.4860   27.5900   35.7940 C   0  0  0  0  0  0  0  0  0  0  0  0
   48.1920   28.6710   35.0210 N   0  0  0  0  0  0  0  0  0  0  0  0
   47.0020   28.4140   34.4170 C   0  0  0  0  0  0  0  0  0  0  0  0
   46.2800   29.1990   33.5320 C   0  0  0  0  0  0  0  0  0  0  0  0
   46.6620   30.3330   33.1530 O   0  0  0  0  0  0  0  0  0  0  0  0
   45.1190   28.6760   33.0850 N   0  0  0  0  0  0  0  0  0  0  0  0
   44.6780   27.4820   33.4600 C   0  0  0  0  0  0  0  0  0  0  0  0
   43.4820   26.8250   33.0440 N   0  0  0  0  0  0  0  0  0  0  0  0
   45.3750   26.7420   34.3070 N   0  0  0  0  0  0  0  0  0  0  0  0
   46.5730   27.1700   34.8280 C   0  0  0  0  0  0  0  0  0  0  0  0
   45.5500   23.7790   37.0230 O   0  0  0  0  0  0  0  0  0  0  0  0
   43.6770   22.4410   34.2960 C   0  0  0  0  0  0  0  0  0  0  0  0
   44.7670   22.7940   35.1300 C   0  0  0  0  0  0  0  0  0  0  0  0
   44.3880   23.4950   36.3110 C   0  0  0  0  0  0  0  0  0  0  0  0
   43.0790   23.8000   36.6220 N   0  0  0  0  0  0  0  0  0  0  0  0
   42.1110   23.4280   35.7830 C   0  0  0  0  0  0  0  0  0  0  0  0
   42.3990   22.7570   34.6270 N   0  0  0  0  0  0  0  0  0  0  0  0
   40.6790   23.5820   35.8940 C   0  0  0  0  0  0  0  0  0  0  0  0
   39.7110   22.7630   36.4140 C   0  0  0  0  0  0  0  0  0  0  0  0
   38.5490   23.4480   36.3630 N   0  0  0  0  0  0  0  0  0  0  0  0
   38.6960   24.6590   35.8470 C   0  0  0  0  0  0  0  0  0  0  0  0
   37.7190   25.6170   35.6720 C   0  0  0  0  0  0  0  0  0  0  0  0
   38.1120   26.8260   35.1320 C   0  0  0  0  0  0  0  0  0  0  0  0
   39.4370   27.0180   34.8020 C   0  0  0  0  0  0  0  0  0  0  0  0
   40.3710   26.0260   34.9980 C   0  0  0  0  0  0  0  0  0  0  0  0
   40.0400   24.7770   35.5380 C   0  0  0  0  0  0  0  0  0  0  0  0
   45.0585   25.6486   37.2652 H   0  0  0  0  0  0  0  0  0  0  0  0
   47.5739   26.1715   38.3223 H   0  0  0  0  0  0  0  0  0  0  0  0
   47.9081   24.6471   38.4347 H   0  0  0  0  0  0  0  0  0  0  0  0
   47.7381   24.8473   35.3893 H   0  0  0  0  0  0  0  0  0  0  0  0
   49.3850   27.4755   36.4175 H   0  0  0  0  0  0  0  0  0  0  0  0
   44.5514   29.2267   32.4251 H   0  0  0  0  0  0  0  0  0  0  0  0
   43.2525   25.8910   33.4127 H   0  0  0  0  0  0  0  0  0  0  0  0
   42.8480   27.2846   32.3749 H   0  0  0  0  0  0  0  0  0  0  0  0
   43.8710   21.8985   33.3589 H   0  0  0  0  0  0  0  0  0  0  0  0
   45.8115   22.5489   34.8874 H   0  0  0  0  0  0  0  0  0  0  0  0
   39.8537   21.7426   36.7992 H   0  0  0  0  0  0  0  0  0  0  0  0
   37.6478   23.0707   36.6892 H   0  0  0  0  0  0  0  0  0  0  0  0
   36.6721   25.4263   35.9505 H   0  0  0  0  0  0  0  0  0  0  0  0
   37.3761   27.6268   34.9670 H   0  0  0  0  0  0  0  0  0  0  0  0
   39.7532   27.9810   34.3745 H   0  0  0  0  0  0  0  0  0  0  0  0
   41.4171   26.2218   34.7199 H   0  0  0  0  0  0  0  0  0  0  0  0
  1  2  1  0
  3  1  1  0
  3  2  1  0
  4  5  1  0
  4  3  1  0
  6  5  2  0
  7 14  2  0
  7  6  1  0
  8  7  1  0
  9  8  2  0
 10 11  1  0
 10  8  1  0
 11 13  2  0
 12 11  1  0
 13 14  1  0
 14  4  1  0
 15  1  1  0
 16 21  2  0
 16 17  1  0
 17 18  2  0
 18 19  1  0
 18 15  1  0
 20 22  1  0
 20 19  2  0
 21 20  1  0
 22 23  2  0
 24 23  1  0
 25 24  1  0
 26 25  2  0
 27 26  1  0
 28 29  1  0
 28 27  2  0
 29 30  2  0
 30 25  1  0
 30 22  1  0
  1 31  1  1
  2 32  1  0
  2 33  1  0
  3 34  1  6
  5 35  1  0
 10 36  1  0
 12 37  1  0
 12 38  1  0
 16 39  1  0
 17 40  1  0
 23 41  1  0
 24 42  1  0
 26 43  1  0
 27 44  1  0
 28 45  1  0
 29 46  1  0
M  ISO  8  31  13  32  13  33  13  34  13  35  14  36   9  39  14  40  14
M  ISO  6  41  14  42   9  43  14  44  14  45  14  46  14
M  END
>  <minimizedAffinity>  (1) 
-5.49727726

>  <minimizedRMSD>  (1) 
3.26491833

$$$$
