
     RDKit          3D

 43 48  0  0  1  0  0  0  0  0999 V2000
   44.8200   23.9170   36.6780 C   0  0  1  0  0  0  0  0  0  0  0  0
   46.2060   23.5010   36.7660 C   0  0  0  0  0  0  0  0  0  0  0  0
   45.7780   24.1190   35.4770 C   0  0  2  0  0  0  0  0  0  0  0  0
   46.2480   25.4710   35.2140 N   0  0  0  0  0  0  0  0  0  0  0  0
   47.3690   26.1390   35.6010 C   0  0  0  0  0  0  0  0  0  0  0  0
   47.3300   27.3940   35.0790 N   0  0  0  0  0  0  0  0  0  0  0  0
   46.1770   27.5010   34.3670 C   0  0  0  0  0  0  0  0  0  0  0  0
   45.6810   28.5760   33.6500 C   0  0  0  0  0  0  0  0  0  0  0  0
   46.2890   29.6800   33.5660 O   0  0  0  0  0  0  0  0  0  0  0  0
   44.4960   28.3880   33.0360 N   0  0  0  0  0  0  0  0  0  0  0  0
   43.8310   27.2350   33.1080 C   0  0  0  0  0  0  0  0  0  0  0  0
   42.5870   26.9510   32.4960 N   0  0  0  0  0  0  0  0  0  0  0  0
   44.3220   26.2230   33.7960 N   0  0  0  0  0  0  0  0  0  0  0  0
   45.5150   26.2950   34.4610 C   0  0  0  0  0  0  0  0  0  0  0  0
   43.8970   22.8220   36.4050 O   0  0  0  0  0  0  0  0  0  0  0  0
   40.4020   22.1930   36.8830 C   0  0  0  0  0  0  0  0  0  0  0  0
   41.8070   22.0790   36.9580 C   0  0  0  0  0  0  0  0  0  0  0  0
   42.5460   23.0420   36.2580 C   0  0  0  0  0  0  0  0  0  0  0  0
   41.9070   24.0260   35.5500 N   0  0  0  0  0  0  0  0  0  0  0  0
   40.5680   24.0860   35.5120 C   0  0  0  0  0  0  0  0  0  0  0  0
   39.8210   23.1830   36.1690 N   0  0  0  0  0  0  0  0  0  0  0  0
   39.9270   25.1180   34.7710 N   0  0  0  0  0  0  0  0  0  0  0  0
   40.2840   26.4300   34.8350 C   0  0  0  0  0  0  0  0  0  0  0  0
   39.5110   27.2100   34.0250 N   0  0  0  0  0  0  0  0  0  0  0  0
   38.6380   26.3490   33.4340 C   0  0  0  0  0  0  0  0  0  0  0  0
   37.6020   26.5240   32.5090 C   0  0  0  0  0  0  0  0  0  0  0  0
   36.9180   25.4260   32.1260 N   0  0  0  0  0  0  0  0  0  0  0  0
   37.1950   24.1940   32.5920 C   0  0  0  0  0  0  0  0  0  0  0  0
   38.1950   23.9910   33.4900 N   0  0  0  0  0  0  0  0  0  0  0  0
   38.9020   25.0590   33.9010 C   0  0  0  0  0  0  0  0  0  0  0  0
   44.1682   24.5456   37.3025 H   0  0  0  0  0  0  0  0  0  0  0  0
   46.8937   24.0501   37.4260 H   0  0  0  0  0  0  0  0  0  0  0  0
   46.6954   22.5500   37.0231 H   0  0  0  0  0  0  0  0  0  0  0  0
   45.7842   23.8386   34.4134 H   0  0  0  0  0  0  0  0  0  0  0  0
   48.1730   25.7313   36.2314 H   0  0  0  0  0  0  0  0  0  0  0  0
   44.0899   29.1626   32.4919 H   0  0  0  0  0  0  0  0  0  0  0  0
   42.1549   26.0235   32.6139 H   0  0  0  0  0  0  0  0  0  0  0  0
   42.1137   27.6718   31.9327 H   0  0  0  0  0  0  0  0  0  0  0  0
   39.7704   21.4653   37.4136 H   0  0  0  0  0  0  0  0  0  0  0  0
   42.2946   21.2787   37.5339 H   0  0  0  0  0  0  0  0  0  0  0  0
   41.0990   26.8157   35.4650 H   0  0  0  0  0  0  0  0  0  0  0  0
   37.3550   27.5188   32.1097 H   0  0  0  0  0  0  0  0  0  0  0  0
   36.6021   23.3369   32.2401 H   0  0  0  0  0  0  0  0  0  0  0  0
  1  2  1  0
  3  1  1  0
  3  2  1  0
  4  3  1  0
  4  5  1  0
  6  5  2  0
  7 14  2  0
  7  6  1  0
  8  7  1  0
  9  8  2  0
 10 11  1  0
 10  8  1  0
 11 13  2  0
 12 11  1  0
 13 14  1  0
 14  4  1  0
 15  1  1  0
 16 17  2  0
 18 15  1  0
 18 17  1  0
 19 18  2  0
 20 19  1  0
 20 21  2  0
 21 16  1  0
 22 23  1  0
 22 20  1  0
 24 23  2  0
 25 30  2  0
 25 24  1  0
 26 25  1  0
 27 26  2  0
 27 28  1  0
 28 29  2  0
 29 30  1  0
 30 22  1  0
  1 31  1  1
  2 32  1  0
  2 33  1  0
  3 34  1  6
  5 35  1  0
 10 36  1  0
 12 37  1  0
 12 38  1  0
 16 39  1  0
 17 40  1  0
 23 41  1  0
 26 42  1  0
 28 43  1  0
M  ISO  8  31  13  32  13  33  13  34  13  35  14  36   9  39  14  40  14
M  ISO  3  41  14  42  14  43  14
M  END
>  <minimizedAffinity>  (1) 
-5.2803731

>  <minimizedRMSD>  (1) 
2.96805048

$$$$
