
     RDKit          3D

 47 51  0  0  1  0  0  0  0  0999 V2000
   46.0100   25.0500   37.1990 C   0  0  1  0  0  0  0  0  0  0  0  0
   47.0640   24.6320   38.1040 C   0  0  0  0  0  0  0  0  0  0  0  0
   47.4690   24.9640   36.7060 C   0  0  2  0  0  0  0  0  0  0  0  0
   48.1980   26.2070   36.5190 N   0  0  0  0  0  0  0  0  0  0  0  0
   49.3650   26.6690   37.0240 C   0  0  0  0  0  0  0  0  0  0  0  0
   49.6030   27.9010   36.5140 N   0  0  0  0  0  0  0  0  0  0  0  0
   48.5640   28.1990   35.6840 C   0  0  0  0  0  0  0  0  0  0  0  0
   48.3480   29.3420   34.9240 C   0  0  0  0  0  0  0  0  0  0  0  0
   49.1510   30.3330   34.9070 O   0  0  0  0  0  0  0  0  0  0  0  0
   47.2200   29.3600   34.1820 N   0  0  0  0  0  0  0  0  0  0  0  0
   46.3650   28.3420   34.1790 C   0  0  0  0  0  0  0  0  0  0  0  0
   45.1600   28.2590   33.4290 N   0  0  0  0  0  0  0  0  0  0  0  0
   46.5860   27.2650   34.9070 N   0  0  0  0  0  0  0  0  0  0  0  0
   47.7020   27.1360   35.7000 C   0  0  0  0  0  0  0  0  0  0  0  0
   45.2200   23.9510   36.6600 O   0  0  0  0  0  0  0  0  0  0  0  0
   41.7960   23.1090   36.0740 C   0  0  0  0  0  0  0  0  0  0  0  0
   43.1320   23.0400   36.4870 C   0  0  0  0  0  0  0  0  0  0  0  0
   43.9330   24.1610   36.2000 C   0  0  0  0  0  0  0  0  0  0  0  0
   43.4190   25.2560   35.5510 N   0  0  0  0  0  0  0  0  0  0  0  0
   42.1320   25.2700   35.1780 C   0  0  0  0  0  0  0  0  0  0  0  0
   41.3300   24.1960   35.4410 N   0  0  0  0  0  0  0  0  0  0  0  0
   41.3760   26.2950   34.5590 N   0  0  0  0  0  0  0  0  0  0  0  0
   41.8220   26.8980   33.3050 C   0  0  0  0  0  0  0  0  0  0  0  0
   40.6980   27.3540   32.4540 C   0  0  0  0  0  0  0  0  0  0  0  0
   39.4500   26.5080   32.5540 C   0  0  0  0  0  0  0  0  0  0  0  0
   38.9930   26.5630   33.9870 C   0  0  0  0  0  0  0  0  0  0  0  0
   40.1320   26.9030   34.9280 C   0  0  0  0  0  0  0  0  0  0  0  0
   45.2218   25.8159   37.2449 H   0  0  0  0  0  0  0  0  0  0  0  0
   47.3656   25.2967   38.9269 H   0  0  0  0  0  0  0  0  0  0  0  0
   47.2071   23.7505   38.7462 H   0  0  0  0  0  0  0  0  0  0  0  0
   47.9928   24.4597   35.8806 H   0  0  0  0  0  0  0  0  0  0  0  0
   50.0137   26.1325   37.7321 H   0  0  0  0  0  0  0  0  0  0  0  0
   47.0161   30.1862   33.6017 H   0  0  0  0  0  0  0  0  0  0  0  0
   44.5662   27.4203   33.4996 H   0  0  0  0  0  0  0  0  0  0  0  0
   44.8808   29.0375   32.8151 H   0  0  0  0  0  0  0  0  0  0  0  0
   41.1213   22.2628   36.2707 H   0  0  0  0  0  0  0  0  0  0  0  0
   43.5336   22.1579   37.0073 H   0  0  0  0  0  0  0  0  0  0  0  0
   42.4593   27.7636   33.5387 H   0  0  0  0  0  0  0  0  0  0  0  0
   42.3699   26.1268   32.7438 H   0  0  0  0  0  0  0  0  0  0  0  0
   41.0351   27.3458   31.4070 H   0  0  0  0  0  0  0  0  0  0  0  0
   40.4238   28.3576   32.8111 H   0  0  0  0  0  0  0  0  0  0  0  0
   38.6679   26.9093   31.8927 H   0  0  0  0  0  0  0  0  0  0  0  0
   39.6535   25.4715   32.2470 H   0  0  0  0  0  0  0  0  0  0  0  0
   38.2111   27.3308   34.0822 H   0  0  0  0  0  0  0  0  0  0  0  0
   38.6073   25.5701   34.2614 H   0  0  0  0  0  0  0  0  0  0  0  0
   39.8632   26.5615   35.9385 H   0  0  0  0  0  0  0  0  0  0  0  0
   40.2769   27.9925   34.8821 H   0  0  0  0  0  0  0  0  0  0  0  0
  1  2  1  0
  3  1  1  0
  3  2  1  0
  4  3  1  0
  4  5  1  0
  6  5  2  0
  7 14  2  0
  7  6  1  0
  8  7  1  0
  9  8  2  0
 10  8  1  0
 11 10  1  0
 11 13  2  0
 12 11  1  0
 13 14  1  0
 14  4  1  0
 15  1  1  0
 16 17  2  0
 18 17  1  0
 18 15  1  0
 19 18  2  0
 20 21  2  0
 20 19  1  0
 21 16  1  0
 22 27  1  0
 22 20  1  0
 23 22  1  0
 24 25  1  0
 24 23  1  0
 25 26  1  0
 26 27  1  0
  1 28  1  1
  2 29  1  0
  2 30  1  0
  3 31  1  6
  5 32  1  0
 10 33  1  0
 12 34  1  0
 12 35  1  0
 16 36  1  0
 17 37  1  0
 23 38  1  0
 23 39  1  0
 24 40  1  0
 24 41  1  0
 25 42  1  0
 25 43  1  0
 26 44  1  0
 26 45  1  0
 27 46  1  0
 27 47  1  0
M  ISO  8  28  13  29  13  30  13  31  13  32  14  33   9  36  14  37  14
M  ISO  8  38  13  39  13  40  13  41  13  42  13  43  13  44  13  45  13
M  ISO  2  46  13  47  13
M  END
>  <minimizedAffinity>  (1) 
-5.27325916

>  <minimizedRMSD>  (1) 
0.56406635

$$$$
