
     RDKit          3D

 35 38  0  0  1  0  0  0  0  0999 V2000
   45.7930   25.1060   37.0660 C   0  0  1  0  0  0  0  0  0  0  0  0
   46.8070   24.6290   37.9850 C   0  0  0  0  0  0  0  0  0  0  0  0
   47.2650   24.9720   36.6040 C   0  0  2  0  0  0  0  0  0  0  0  0
   48.0410   26.1980   36.4740 N   0  0  0  0  0  0  0  0  0  0  0  0
   49.1980   26.6180   37.0490 C   0  0  0  0  0  0  0  0  0  0  0  0
   49.4920   27.8630   36.5720 N   0  0  0  0  0  0  0  0  0  0  0  0
   48.5050   28.2010   35.6990 C   0  0  0  0  0  0  0  0  0  0  0  0
   48.3610   29.3700   34.9560 C   0  0  0  0  0  0  0  0  0  0  0  0
   49.1830   30.3280   35.0020 O   0  0  0  0  0  0  0  0  0  0  0  0
   47.2720   29.4300   34.1630 N   0  0  0  0  0  0  0  0  0  0  0  0
   46.3930   28.4470   34.0910 C   0  0  0  0  0  0  0  0  0  0  0  0
   45.2180   28.4140   33.2890 N   0  0  0  0  0  0  0  0  0  0  0  0
   46.5500   27.3410   34.8080 N   0  0  0  0  0  0  0  0  0  0  0  0
   47.6090   27.1650   35.6430 C   0  0  0  0  0  0  0  0  0  0  0  0
   44.9770   24.0520   36.4800 O   0  0  0  0  0  0  0  0  0  0  0  0
   41.5110   23.3440   35.9400 C   0  0  0  0  0  0  0  0  0  0  0  0
   42.8590   23.2100   36.3440 C   0  0  0  0  0  0  0  0  0  0  0  0
   43.6890   24.3050   36.0400 C   0  0  0  0  0  0  0  0  0  0  0  0
   43.2060   25.4170   35.3970 N   0  0  0  0  0  0  0  0  0  0  0  0
   41.9130   25.4740   35.0440 C   0  0  0  0  0  0  0  0  0  0  0  0
   41.0670   24.4450   35.3110 N   0  0  0  0  0  0  0  0  0  0  0  0
   41.2650   26.6110   34.3630 C   0  0  0  0  0  0  0  0  0  0  0  0
   40.5780   26.1970   33.2100 F   0  0  0  0  0  0  0  0  0  0  0  0
   42.1820   27.5460   33.9880 F   0  0  0  0  0  0  0  0  0  0  0  0
   40.2500   27.1160   35.1800 F   0  0  0  0  0  0  0  0  0  0  0  0
   45.0334   25.9003   37.1125 H   0  0  0  0  0  0  0  0  0  0  0  0
   47.1130   25.2645   38.8291 H   0  0  0  0  0  0  0  0  0  0  0  0
   46.8981   23.7292   38.6111 H   0  0  0  0  0  0  0  0  0  0  0  0
   47.7907   24.4648   35.7816 H   0  0  0  0  0  0  0  0  0  0  0  0
   49.7971   26.0505   37.7764 H   0  0  0  0  0  0  0  0  0  0  0  0
   47.1201   30.2738   33.5922 H   0  0  0  0  0  0  0  0  0  0  0  0
   44.6012   27.5894   33.3128 H   0  0  0  0  0  0  0  0  0  0  0  0
   44.9843   29.2147   32.6847 H   0  0  0  0  0  0  0  0  0  0  0  0
   40.8066   22.5247   36.1462 H   0  0  0  0  0  0  0  0  0  0  0  0
   43.2328   22.3131   36.8596 H   0  0  0  0  0  0  0  0  0  0  0  0
  1  2  1  0
  3  1  1  0
  3  2  1  0
  4  3  1  0
  4  5  1  0
  6  5  2  0
  7  6  1  0
  8  9  2  0
  8  7  1  0
 10  8  1  0
 11 10  1  0
 11 13  2  0
 12 11  1  0
 13 14  1  0
 14  7  2  0
 14  4  1  0
 15  1  1  0
 16 17  2  0
 18 17  1  0
 18 15  1  0
 19 18  2  0
 20 21  2  0
 20 19  1  0
 21 16  1  0
 22 20  1  0
 22 25  1  0
 23 22  1  0
 24 22  1  0
  1 26  1  1
  2 27  1  0
  2 28  1  0
  3 29  1  6
  5 30  1  0
 10 31  1  0
 12 32  1  0
 12 33  1  0
 16 34  1  0
 17 35  1  0
M  ISO  8  26  13  27  13  28  13  29  13  30  14  31   9  34  14  35  14
M  END
>  <minimizedAffinity>  (1) 
-4.81103659

>  <minimizedRMSD>  (1) 
0.513639688

$$$$
