
     RDKit          3D

 39 43  0  0  1  0  0  0  0  0999 V2000
   44.9190   24.5220   36.8700 C   0  0  1  0  0  0  0  0  0  0  0  0
   46.0440   24.6560   37.7680 C   0  0  0  0  0  0  0  0  0  0  0  0
   46.3540   24.6590   36.3050 C   0  0  2  0  0  0  0  0  0  0  0  0
   46.7270   25.9510   35.7360 N   0  0  0  0  0  0  0  0  0  0  0  0
   47.8260   26.7340   35.8710 C   0  0  0  0  0  0  0  0  0  0  0  0
   47.6670   27.8500   35.1160 N   0  0  0  0  0  0  0  0  0  0  0  0
   46.4560   27.7590   34.5060 C   0  0  0  0  0  0  0  0  0  0  0  0
   45.8380   28.6400   33.6420 C   0  0  0  0  0  0  0  0  0  0  0  0
   46.3690   29.7320   33.2810 O   0  0  0  0  0  0  0  0  0  0  0  0
   44.6220   28.2850   33.1900 N   0  0  0  0  0  0  0  0  0  0  0  0
   44.0380   27.1520   33.5470 C   0  0  0  0  0  0  0  0  0  0  0  0
   42.7620   26.6820   33.1350 N   0  0  0  0  0  0  0  0  0  0  0  0
   44.6450   26.3170   34.3770 N   0  0  0  0  0  0  0  0  0  0  0  0
   45.8810   26.5730   34.9010 C   0  0  0  0  0  0  0  0  0  0  0  0
   44.4490   23.1520   36.7110 O   0  0  0  0  0  0  0  0  0  0  0  0
   42.0780   21.4940   34.5910 C   0  0  0  0  0  0  0  0  0  0  0  0
   43.2860   21.8620   35.2170 C   0  0  0  0  0  0  0  0  0  0  0  0
   43.2040   22.8830   36.1760 C   0  0  0  0  0  0  0  0  0  0  0  0
   42.0000   23.4680   36.4620 N   0  0  0  0  0  0  0  0  0  0  0  0
   40.8820   23.0760   35.8340 C   0  0  0  0  0  0  0  0  0  0  0  0
   40.9140   22.0950   34.9000 N   0  0  0  0  0  0  0  0  0  0  0  0
   39.6550   23.6980   36.1500 N   0  0  0  0  0  0  0  0  0  0  0  0
   38.9500   24.7910   35.8050 C   0  0  0  0  0  0  0  0  0  0  0  0
   37.7720   24.7750   36.5510 C   0  0  0  0  0  0  0  0  0  0  0  0
   37.7800   23.6940   37.3200 N   0  0  0  0  0  0  0  0  0  0  0  0
   38.9310   23.0270   37.0820 C   0  0  0  0  0  0  0  0  0  0  0  0
   43.9590   25.0491   36.7678 H   0  0  0  0  0  0  0  0  0  0  0  0
   46.1649   25.5831   38.3476 H   0  0  0  0  0  0  0  0  0  0  0  0
   46.4091   24.0603   38.6176 H   0  0  0  0  0  0  0  0  0  0  0  0
   46.9896   24.0844   35.6152 H   0  0  0  0  0  0  0  0  0  0  0  0
   48.7039   26.5020   36.4919 H   0  0  0  0  0  0  0  0  0  0  0  0
   44.1280   28.9167   32.5436 H   0  0  0  0  0  0  0  0  0  0  0  0
   42.4096   25.7782   33.4813 H   0  0  0  0  0  0  0  0  0  0  0  0
   42.1894   27.2451   32.4901 H   0  0  0  0  0  0  0  0  0  0  0  0
   42.0867   20.6974   33.8325 H   0  0  0  0  0  0  0  0  0  0  0  0
   44.2405   21.3756   34.9675 H   0  0  0  0  0  0  0  0  0  0  0  0
   39.2475   25.5547   35.0713 H   0  0  0  0  0  0  0  0  0  0  0  0
   36.9728   25.5296   36.5090 H   0  0  0  0  0  0  0  0  0  0  0  0
   39.2338   22.0875   37.5674 H   0  0  0  0  0  0  0  0  0  0  0  0
  1  2  1  0
  3  1  1  0
  3  2  1  0
  4  5  1  0
  4  3  1  0
  6  5  2  0
  7 14  2  0
  7  6  1  0
  8  7  1  0
  9  8  2  0
 10 11  1  0
 10  8  1  0
 11 13  2  0
 12 11  1  0
 13 14  1  0
 14  4  1  0
 15  1  1  0
 16 21  2  0
 16 17  1  0
 17 18  2  0
 18 19  1  0
 18 15  1  0
 20 22  1  0
 20 19  2  0
 21 20  1  0
 22 26  1  0
 23 22  1  0
 23 24  2  0
 24 25  1  0
 26 25  2  0
  1 27  1  6
  2 28  1  0
  2 29  1  0
  3 30  1  1
  5 31  1  0
 10 32  1  0
 12 33  1  0
 12 34  1  0
 16 35  1  0
 17 36  1  0
 23 37  1  0
 24 38  1  0
 26 39  1  0
M  ISO  8  27  13  28  13  29  13  30  13  31  14  32   9  35  14  36  14
M  ISO  3  37  14  38  14  39  14
M  END
>  <minimizedAffinity>  (1) 
-4.77327156

>  <minimizedRMSD>  (1) 
3.35507464

$$$$
