
     RDKit          3D

 35 38  0  0  1  0  0  0  0  0999 V2000
   46.1030   25.0360   37.4200 C   0  0  1  0  0  0  0  0  0  0  0  0
   47.2630   24.4940   38.0980 C   0  0  0  0  0  0  0  0  0  0  0  0
   47.4690   24.9590   36.6930 C   0  0  2  0  0  0  0  0  0  0  0  0
   48.2100   26.1920   36.5180 N   0  0  0  0  0  0  0  0  0  0  0  0
   49.3820   26.6450   37.0340 C   0  0  0  0  0  0  0  0  0  0  0  0
   49.6250   27.8770   36.5310 N   0  0  0  0  0  0  0  0  0  0  0  0
   48.6040   28.1940   35.7010 C   0  0  0  0  0  0  0  0  0  0  0  0
   48.3990   29.3510   34.9480 C   0  0  0  0  0  0  0  0  0  0  0  0
   49.2050   30.3290   34.9440 O   0  0  0  0  0  0  0  0  0  0  0  0
   47.2870   29.3870   34.2100 N   0  0  0  0  0  0  0  0  0  0  0  0
   46.4170   28.3860   34.1840 C   0  0  0  0  0  0  0  0  0  0  0  0
   45.2030   28.3170   33.4470 N   0  0  0  0  0  0  0  0  0  0  0  0
   46.6230   27.2910   34.9030 N   0  0  0  0  0  0  0  0  0  0  0  0
   47.7250   27.1420   35.6960 C   0  0  0  0  0  0  0  0  0  0  0  0
   45.1960   24.0180   36.9070 O   0  0  0  0  0  0  0  0  0  0  0  0
   41.7950   23.6010   35.8330 C   0  0  0  0  0  0  0  0  0  0  0  0
   43.0370   23.3970   36.4290 C   0  0  0  0  0  0  0  0  0  0  0  0
   44.0290   24.3710   36.2600 C   0  0  0  0  0  0  0  0  0  0  0  0
   43.7570   25.4910   35.5210 N   0  0  0  0  0  0  0  0  0  0  0  0
   42.5500   25.6340   34.9740 C   0  0  0  0  0  0  0  0  0  0  0  0
   41.5740   24.7180   35.1140 N   0  0  0  0  0  0  0  0  0  0  0  0
   42.0610   26.7310   34.1970 C   0  0  0  0  0  0  0  0  0  0  0  0
   40.9050   27.1450   34.0240 O   0  0  0  0  0  0  0  0  0  0  0  0
   42.1920   27.7920   33.3740 O   0  0  0  0  0  0  0  0  0  0  0  0
   45.3670   25.8157   37.6655 H   0  0  0  0  0  0  0  0  0  0  0  0
   47.7174   25.0583   38.9257 H   0  0  0  0  0  0  0  0  0  0  0  0
   47.4608   23.5448   38.6175 H   0  0  0  0  0  0  0  0  0  0  0  0
   47.8403   24.5284   35.7514 H   0  0  0  0  0  0  0  0  0  0  0  0
   50.0252   26.1015   37.7417 H   0  0  0  0  0  0  0  0  0  0  0  0
   47.0976   30.2234   33.6395 H   0  0  0  0  0  0  0  0  0  0  0  0
   44.6086   27.4782   33.5110 H   0  0  0  0  0  0  0  0  0  0  0  0
   44.9179   29.1058   32.8491 H   0  0  0  0  0  0  0  0  0  0  0  0
   40.9974   22.8524   35.9491 H   0  0  0  0  0  0  0  0  0  0  0  0
   43.2346   22.4904   37.0198 H   0  0  0  0  0  0  0  0  0  0  0  0
   41.3905   28.2963   33.0851 H   0  0  0  0  0  0  0  0  0  0  0  0
  1  2  1  0
  3  1  1  0
  3  2  1  0
  4  3  1  0
  4  5  1  0
  6  5  2  0
  7  6  1  0
  8  7  1  0
  9  8  2  0
 10  8  1  0
 11 10  1  0
 11 13  2  0
 12 11  1  0
 13 14  1  0
 14  7  2  0
 14  4  1  0
 15  1  1  0
 16 17  2  0
 18 17  1  0
 18 15  1  0
 19 18  2  0
 20 21  2  0
 20 19  1  0
 21 16  1  0
 22 20  1  0
 23 22  2  0
 24 22  1  0
  1 25  1  1
  2 26  1  0
  2 27  1  0
  3 28  1  6
  5 29  1  0
 10 30  1  0
 12 31  1  0
 12 32  1  0
 16 33  1  0
 17 34  1  0
 24 35  1  0
M  ISO  8  25  13  26  13  27  13  28  13  29  14  30   9  33  14  34  14
M  ISO  1  35   3
M  END
>  <minimizedAffinity>  (1) 
-4.6275301

>  <minimizedRMSD>  (1) 
0.0852905959

$$$$
