
     RDKit          3D

 33 36  0  0  1  0  0  0  0  0999 V2000
   46.2140   25.0360   37.5970 C   0  0  1  0  0  0  0  0  0  0  0  0
   47.4300   24.4810   38.1550 C   0  0  0  0  0  0  0  0  0  0  0  0
   47.5050   24.9670   36.7440 C   0  0  2  0  0  0  0  0  0  0  0  0
   48.2280   26.2090   36.5220 N   0  0  0  0  0  0  0  0  0  0  0  0
   49.4140   26.6760   37.0030 C   0  0  0  0  0  0  0  0  0  0  0  0
   49.6360   27.8990   36.4790 N   0  0  0  0  0  0  0  0  0  0  0  0
   48.5890   28.1960   35.6710 C   0  0  0  0  0  0  0  0  0  0  0  0
   48.3580   29.3340   34.9110 C   0  0  0  0  0  0  0  0  0  0  0  0
   49.1610   30.3230   34.8730 O   0  0  0  0  0  0  0  0  0  0  0  0
   47.2100   29.3440   34.1950 N   0  0  0  0  0  0  0  0  0  0  0  0
   46.3540   28.3420   34.2080 C   0  0  0  0  0  0  0  0  0  0  0  0
   45.1350   28.2690   33.4920 N   0  0  0  0  0  0  0  0  0  0  0  0
   46.5980   27.2680   34.9400 N   0  0  0  0  0  0  0  0  0  0  0  0
   47.7140   27.1420   35.7000 C   0  0  0  0  0  0  0  0  0  0  0  0
   45.2620   24.0280   37.1500 O   0  0  0  0  0  0  0  0  0  0  0  0
   41.9820   23.5770   35.7730 C   0  0  0  0  0  0  0  0  0  0  0  0
   43.1780   23.3550   36.4710 C   0  0  0  0  0  0  0  0  0  0  0  0
   44.1410   24.3750   36.4310 C   0  0  0  0  0  0  0  0  0  0  0  0
   43.8830   25.5190   35.7300 N   0  0  0  0  0  0  0  0  0  0  0  0
   42.7240   25.6830   35.0790 C   0  0  0  0  0  0  0  0  0  0  0  0
   41.7760   24.7290   35.0930 N   0  0  0  0  0  0  0  0  0  0  0  0
   42.5420   26.8740   34.3930 O   0  0  0  0  0  0  0  0  0  0  0  0
   45.5070   25.8124   37.9245 H   0  0  0  0  0  0  0  0  0  0  0  0
   47.9621   25.0315   38.9448 H   0  0  0  0  0  0  0  0  0  0  0  0
   47.6720   23.5235   38.6394 H   0  0  0  0  0  0  0  0  0  0  0  0
   47.7866   24.5493   35.7661 H   0  0  0  0  0  0  0  0  0  0  0  0
   50.0784   26.1453   37.7008 H   0  0  0  0  0  0  0  0  0  0  0  0
   46.9963   30.1686   33.6160 H   0  0  0  0  0  0  0  0  0  0  0  0
   44.5381   27.4337   33.5752 H   0  0  0  0  0  0  0  0  0  0  0  0
   44.8449   29.0512   32.8879 H   0  0  0  0  0  0  0  0  0  0  0  0
   41.1999   22.8035   35.7783 H   0  0  0  0  0  0  0  0  0  0  0  0
   43.3537   22.4216   37.0259 H   0  0  0  0  0  0  0  0  0  0  0  0
   43.2543   27.5615   34.3972 H   0  0  0  0  0  0  0  0  0  0  0  0
  1  2  1  0
  3  1  1  0
  3  2  1  0
  4  3  1  0
  4  5  1  0
  6  5  2  0
  7 14  2  0
  7  6  1  0
  8  7  1  0
  9  8  2  0
 10 11  1  0
 10  8  1  0
 11 13  2  0
 12 11  1  0
 13 14  1  0
 14  4  1  0
 15  1  1  0
 16 17  2  0
 18 17  1  0
 18 15  1  0
 19 18  2  0
 20 21  2  0
 20 19  1  0
 21 16  1  0
 22 20  1  0
  1 23  1  1
  2 24  1  0
  2 25  1  0
  3 26  1  6
  5 27  1  0
 10 28  1  0
 12 29  1  0
 12 30  1  0
 16 31  1  0
 17 32  1  0
 22 33  1  0
M  ISO  8  23  13  24  13  25  13  26  13  27  14  28   9  31  14  32  14
M  ISO  1  33   3
M  END
>  <minimizedAffinity>  (1) 
-4.4071126

>  <minimizedRMSD>  (1) 
0.140913531

$$$$
