
     RDKit          3D

 33 36  0  0  1  0  0  0  0  0999 V2000
   45.9160   25.1570   37.3540 C   0  0  1  0  0  0  0  0  0  0  0  0
   46.9960   24.7080   38.2100 C   0  0  0  0  0  0  0  0  0  0  0  0
   47.3520   25.0170   36.7950 C   0  0  2  0  0  0  0  0  0  0  0  0
   48.1070   26.2360   36.5650 N   0  0  0  0  0  0  0  0  0  0  0  0
   49.2870   26.6980   37.0590 C   0  0  0  0  0  0  0  0  0  0  0  0
   49.5460   27.9110   36.5080 N   0  0  0  0  0  0  0  0  0  0  0  0
   48.5210   28.2020   35.6680 C   0  0  0  0  0  0  0  0  0  0  0  0
   48.3260   29.3280   34.8740 C   0  0  0  0  0  0  0  0  0  0  0  0
   49.1450   30.2930   34.8320 O   0  0  0  0  0  0  0  0  0  0  0  0
   47.2110   29.3480   34.1380 N   0  0  0  0  0  0  0  0  0  0  0  0
   46.3290   28.3480   34.1580 C   0  0  0  0  0  0  0  0  0  0  0  0
   45.1150   28.2790   33.4110 N   0  0  0  0  0  0  0  0  0  0  0  0
   46.5330   27.2890   34.9180 N   0  0  0  0  0  0  0  0  0  0  0  0
   47.6360   27.1540   35.7160 C   0  0  0  0  0  0  0  0  0  0  0  0
   45.0750   24.0750   36.8530 O   0  0  0  0  0  0  0  0  0  0  0  0
   41.6500   23.4940   35.9470 C   0  0  0  0  0  0  0  0  0  0  0  0
   42.9290   23.3390   36.5160 C   0  0  0  0  0  0  0  0  0  0  0  0
   43.8650   24.3450   36.2410 C   0  0  0  0  0  0  0  0  0  0  0  0
   43.5240   25.4160   35.4560 N   0  0  0  0  0  0  0  0  0  0  0  0
   42.2880   25.5070   34.9430 C   0  0  0  0  0  0  0  0  0  0  0  0
   41.3550   24.5530   35.1840 N   0  0  0  0  0  0  0  0  0  0  0  0
   41.7530   26.8570   33.9190 S   0  0  0  0  0  0  0  0  0  0  0  0
   45.1559   25.9482   37.4330 H   0  0  0  0  0  0  0  0  0  0  0  0
   47.3573   25.3661   39.0139 H   0  0  0  0  0  0  0  0  0  0  0  0
   47.1370   23.8247   38.8503 H   0  0  0  0  0  0  0  0  0  0  0  0
   47.8246   24.4890   35.9536 H   0  0  0  0  0  0  0  0  0  0  0  0
   49.9261   26.1747   37.7854 H   0  0  0  0  0  0  0  0  0  0  0  0
   47.0266   30.1627   33.5353 H   0  0  0  0  0  0  0  0  0  0  0  0
   44.5015   27.4565   33.5001 H   0  0  0  0  0  0  0  0  0  0  0  0
   44.8523   29.0517   32.7827 H   0  0  0  0  0  0  0  0  0  0  0  0
   40.8799   22.7310   36.1331 H   0  0  0  0  0  0  0  0  0  0  0  0
   43.1805   22.4720   37.1446 H   0  0  0  0  0  0  0  0  0  0  0  0
   41.3413   27.8960   34.7114 H   0  0  0  0  0  0  0  0  0  0  0  0
  1  2  1  0
  3  1  1  0
  3  2  1  0
  4  3  1  0
  4  5  1  0
  6  5  2  0
  7 14  2  0
  7  6  1  0
  8  7  1  0
  9  8  2  0
 10 11  1  0
 10  8  1  0
 11 13  2  0
 12 11  1  0
 13 14  1  0
 14  4  1  0
 15  1  1  0
 16 17  2  0
 18 17  1  0
 18 15  1  0
 19 18  2  0
 20 21  2  0
 20 19  1  0
 21 16  1  0
 22 20  1  0
  1 23  1  1
  2 24  1  0
  2 25  1  0
  3 26  1  6
  5 27  1  0
 10 28  1  0
 12 29  1  0
 12 30  1  0
 16 31  1  0
 17 32  1  0
 22 33  1  0
M  ISO  8  23  13  24  13  25  13  26  13  27  14  28   9  31  14  32  14
M  ISO  1  33  11
M  END
>  <minimizedAffinity>  (1) 
-4.36104679

>  <minimizedRMSD>  (1) 
0.183201447

$$$$
