
     RDKit          3D

 34 37  0  0  1  0  0  0  0  0999 V2000
   45.9100   25.1560   37.4300 C   0  0  1  0  0  0  0  0  0  0  0  0
   47.0250   24.6780   38.2230 C   0  0  0  0  0  0  0  0  0  0  0  0
   47.3180   25.0110   36.7960 C   0  0  2  0  0  0  0  0  0  0  0  0
   48.0770   26.2260   36.5610 N   0  0  0  0  0  0  0  0  0  0  0  0
   49.2560   26.6800   37.0430 C   0  0  0  0  0  0  0  0  0  0  0  0
   49.5190   27.8960   36.4860 N   0  0  0  0  0  0  0  0  0  0  0  0
   48.4900   28.1930   35.6500 C   0  0  0  0  0  0  0  0  0  0  0  0
   48.2870   29.3080   34.8540 C   0  0  0  0  0  0  0  0  0  0  0  0
   49.1100   30.2700   34.8060 O   0  0  0  0  0  0  0  0  0  0  0  0
   47.1670   29.3310   34.1230 N   0  0  0  0  0  0  0  0  0  0  0  0
   46.2840   28.3430   34.1490 C   0  0  0  0  0  0  0  0  0  0  0  0
   45.0700   28.2600   33.4260 N   0  0  0  0  0  0  0  0  0  0  0  0
   46.4880   27.2770   34.9150 N   0  0  0  0  0  0  0  0  0  0  0  0
   47.5960   27.1450   35.7030 C   0  0  0  0  0  0  0  0  0  0  0  0
   45.0310   24.0950   36.9590 O   0  0  0  0  0  0  0  0  0  0  0  0
   41.6500   23.5400   35.8900 C   0  0  0  0  0  0  0  0  0  0  0  0
   42.8960   23.3820   36.5100 C   0  0  0  0  0  0  0  0  0  0  0  0
   43.8570   24.3800   36.2950 C   0  0  0  0  0  0  0  0  0  0  0  0
   43.5620   25.4580   35.5040 N   0  0  0  0  0  0  0  0  0  0  0  0
   42.3530   25.5600   34.9350 C   0  0  0  0  0  0  0  0  0  0  0  0
   41.4010   24.6190   35.1170 N   0  0  0  0  0  0  0  0  0  0  0  0
   41.9060   26.6350   34.0970 C   0  0  0  0  0  0  0  0  0  0  0  0
   40.7880   27.2020   34.1050 O   0  0  0  0  0  0  0  0  0  0  0  0
   45.1652   25.9552   37.5584 H   0  0  0  0  0  0  0  0  0  0  0  0
   47.4327   25.3160   39.0209 H   0  0  0  0  0  0  0  0  0  0  0  0
   47.1855   23.7805   38.8384 H   0  0  0  0  0  0  0  0  0  0  0  0
   47.7411   24.4958   35.9210 H   0  0  0  0  0  0  0  0  0  0  0  0
   49.8974   26.1544   37.7658 H   0  0  0  0  0  0  0  0  0  0  0  0
   46.9844   30.1450   33.5188 H   0  0  0  0  0  0  0  0  0  0  0  0
   44.4633   27.4343   33.5312 H   0  0  0  0  0  0  0  0  0  0  0  0
   44.7932   29.0253   32.7946 H   0  0  0  0  0  0  0  0  0  0  0  0
   40.8684   22.7795   36.0338 H   0  0  0  0  0  0  0  0  0  0  0  0
   43.1124   22.5079   37.1418 H   0  0  0  0  0  0  0  0  0  0  0  0
   42.6316   27.0065   33.3585 H   0  0  0  0  0  0  0  0  0  0  0  0
  1  2  1  0
  3  1  1  0
  3  2  1  0
  4  3  1  0
  4  5  1  0
  6  5  2  0
  7 14  2  0
  7  6  1  0
  8  7  1  0
  9  8  2  0
 10 11  1  0
 10  8  1  0
 11 13  2  0
 12 11  1  0
 13 14  1  0
 14  4  1  0
 15  1  1  0
 16 17  2  0
 18 17  1  0
 18 15  1  0
 19 18  2  0
 20 21  2  0
 20 19  1  0
 21 16  1  0
 22 23  2  0
 22 20  1  0
  1 24  1  1
  2 25  1  0
  2 26  1  0
  3 27  1  6
  5 28  1  0
 10 29  1  0
 12 30  1  0
 12 31  1  0
 16 32  1  0
 17 33  1  0
 22 34  1  0
M  ISO  8  24  13  25  13  26  13  27  13  28  14  29   9  32  14  33  14
M  ISO  1  34   6
M  END
>  <minimizedAffinity>  (1) 
-4.34067106

>  <minimizedRMSD>  (1) 
0.27203235

$$$$
