
     RDKit          3D

 39 43  0  0  1  0  0  0  0  0999 V2000
   45.7440   25.0960   37.1040 C   0  0  1  0  0  0  0  0  0  0  0  0
   46.8060   24.5140   37.9030 C   0  0  0  0  0  0  0  0  0  0  0  0
   47.1700   24.9510   36.5220 C   0  0  2  0  0  0  0  0  0  0  0  0
   47.9800   26.1540   36.4250 N   0  0  0  0  0  0  0  0  0  0  0  0
   49.1470   26.5310   37.0130 C   0  0  0  0  0  0  0  0  0  0  0  0
   49.4800   27.7730   36.5720 N   0  0  0  0  0  0  0  0  0  0  0  0
   48.5040   28.1660   35.7010 C   0  0  0  0  0  0  0  0  0  0  0  0
   48.3910   29.3430   34.9930 C   0  0  0  0  0  0  0  0  0  0  0  0
   49.2390   30.2770   35.0650 O   0  0  0  0  0  0  0  0  0  0  0  0
   47.3080   29.4630   34.1960 N   0  0  0  0  0  0  0  0  0  0  0  0
   46.3930   28.4880   34.0990 C   0  0  0  0  0  0  0  0  0  0  0  0
   45.2290   28.5130   33.2900 N   0  0  0  0  0  0  0  0  0  0  0  0
   46.5180   27.3740   34.7810 N   0  0  0  0  0  0  0  0  0  0  0  0
   47.5760   27.1510   35.6180 C   0  0  0  0  0  0  0  0  0  0  0  0
   44.8470   24.1140   36.5180 O   0  0  0  0  0  0  0  0  0  0  0  0
   41.4010   23.6790   35.6750 C   0  0  0  0  0  0  0  0  0  0  0  0
   42.6890   23.4510   36.1780 C   0  0  0  0  0  0  0  0  0  0  0  0
   43.6400   24.4720   35.9850 C   0  0  0  0  0  0  0  0  0  0  0  0
   43.2860   25.6220   35.3310 N   0  0  0  0  0  0  0  0  0  0  0  0
   42.0430   25.7760   34.8770 C   0  0  0  0  0  0  0  0  0  0  0  0
   41.1000   24.8270   35.0370 N   0  0  0  0  0  0  0  0  0  0  0  0
   41.4510   26.9460   34.1840 C   0  0  0  0  0  0  0  0  0  0  0  0
   41.8730   27.1400   32.6960 C   0  0  0  0  0  0  0  0  0  0  0  0
   40.4970   26.7760   33.0380 C   0  0  0  0  0  0  0  0  0  0  0  0
   45.0224   25.9108   37.2632 H   0  0  0  0  0  0  0  0  0  0  0  0
   47.1990   25.0700   38.7670 H   0  0  0  0  0  0  0  0  0  0  0  0
   46.9097   23.5648   38.4491 H   0  0  0  0  0  0  0  0  0  0  0  0
   47.6123   24.4938   35.6246 H   0  0  0  0  0  0  0  0  0  0  0  0
   49.7267   25.9293   37.7285 H   0  0  0  0  0  0  0  0  0  0  0  0
   47.1814   30.3260   33.6482 H   0  0  0  0  0  0  0  0  0  0  0  0
   44.5865   27.7080   33.2871 H   0  0  0  0  0  0  0  0  0  0  0  0
   45.0259   29.3362   32.7052 H   0  0  0  0  0  0  0  0  0  0  0  0
   40.6249   22.9100   35.8028 H   0  0  0  0  0  0  0  0  0  0  0  0
   42.9456   22.5172   36.6998 H   0  0  0  0  0  0  0  0  0  0  0  0
   41.4255   27.5266   35.1179 H   0  0  0  0  0  0  0  0  0  0  0  0
   42.5329   26.4065   32.2097 H   0  0  0  0  0  0  0  0  0  0  0  0
   42.3467   27.9466   32.1173 H   0  0  0  0  0  0  0  0  0  0  0  0
   39.6916   27.5108   32.8920 H   0  0  0  0  0  0  0  0  0  0  0  0
   39.8292   25.9605   32.7235 H   0  0  0  0  0  0  0  0  0  0  0  0
  1  2  1  0
  3  1  1  0
  3  2  1  0
  4  3  1  0
  4  5  1  0
  6  5  2  0
  7  6  1  0
  8  9  2  0
  8  7  1  0
 10  8  1  0
 11 10  1  0
 11 13  2  0
 12 11  1  0
 13 14  1  0
 14  7  2  0
 14  4  1  0
 15  1  1  0
 16 17  2  0
 18 17  1  0
 18 15  1  0
 19 18  2  0
 20 21  2  0
 20 19  1  0
 21 16  1  0
 22 20  1  0
 23 24  1  0
 23 22  1  0
 24 22  1  0
  1 25  1  1
  2 26  1  0
  2 27  1  0
  3 28  1  6
  5 29  1  0
 10 30  1  0
 12 31  1  0
 12 32  1  0
 16 33  1  0
 17 34  1  0
 22 35  1  0
 23 36  1  0
 23 37  1  0
 24 38  1  0
 24 39  1  0
M  ISO  8  25  13  26  13  27  13  28  13  29  14  30   9  33  14  34  14
M  ISO  5  35  13  36  13  37  13  38  13  39  13
M  END
>  <minimizedAffinity>  (1) 
-4.46979904

>  <minimizedRMSD>  (1) 
0.655380309

$$$$
