
     RDKit          3D

 47 52  0  0  1  0  0  0  0  0999 V2000
   44.9670   24.0930   36.3730 O   0  0  0  0  0  0  0  0  0  0  0  0
   41.5740   23.0810   35.8970 C   0  0  0  0  0  0  0  0  0  0  0  0
   42.9270   23.0750   36.2210 C   0  0  0  0  0  0  0  0  0  0  0  0
   43.6570   24.2460   36.0150 C   0  0  0  0  0  0  0  0  0  0  0  0
   43.0400   25.3490   35.5130 N   0  0  0  0  0  0  0  0  0  0  0  0
   41.7440   25.3210   35.2150 C   0  0  0  0  0  0  0  0  0  0  0  0
   40.9990   24.2070   35.3970 N   0  0  0  0  0  0  0  0  0  0  0  0
   40.8820   26.4110   34.6870 C   0  0  1  0  0  0  0  0  0  0  0  0
   41.4420   27.1240   33.3980 C   0  0  0  0  0  0  0  0  0  0  0  0
   40.2050   26.3220   33.3720 C   0  0  2  0  0  0  0  0  0  0  0  0
   38.9510   27.0190   33.0990 C   0  0  0  0  0  0  0  0  0  0  0  0
   38.0300   27.1500   34.1330 C   0  0  0  0  0  0  0  0  0  0  0  0
   36.8070   27.8010   33.9620 C   0  0  0  0  0  0  0  0  0  0  0  0
   36.5820   28.2910   32.7350 N   0  0  0  0  0  0  0  0  0  0  0  0
   37.4920   28.1560   31.7300 C   0  0  0  0  0  0  0  0  0  0  0  0
   38.6820   27.5280   31.8830 N   0  0  0  0  0  0  0  0  0  0  0  0
   45.7430   25.1560   36.9720 C   0  0  1  0  0  0  0  0  0  0  0  0
   46.7030   24.7310   37.9620 C   0  0  0  0  0  0  0  0  0  0  0  0
   47.2410   25.0120   36.5880 C   0  0  2  0  0  0  0  0  0  0  0  0
   48.0230   26.2290   36.4550 N   0  0  0  0  0  0  0  0  0  0  0  0
   49.1850   26.6440   37.0260 C   0  0  0  0  0  0  0  0  0  0  0  0
   49.4890   27.8730   36.5560 N   0  0  0  0  0  0  0  0  0  0  0  0
   48.5050   28.2310   35.6810 C   0  0  0  0  0  0  0  0  0  0  0  0
   48.3670   29.3890   34.9450 C   0  0  0  0  0  0  0  0  0  0  0  0
   49.1970   30.3390   34.9920 O   0  0  0  0  0  0  0  0  0  0  0  0
   47.2740   29.4650   34.1520 N   0  0  0  0  0  0  0  0  0  0  0  0
   46.3790   28.4760   34.0820 C   0  0  0  0  0  0  0  0  0  0  0  0
   45.2090   28.4640   33.2840 N   0  0  0  0  0  0  0  0  0  0  0  0
   46.5320   27.3820   34.7920 N   0  0  0  0  0  0  0  0  0  0  0  0
   47.5980   27.1980   35.6270 C   0  0  0  0  0  0  0  0  0  0  0  0
   40.9692   22.1743   36.0454 H   0  0  0  0  0  0  0  0  0  0  0  0
   43.4074   22.1730   36.6279 H   0  0  0  0  0  0  0  0  0  0  0  0
   40.5247   26.6656   35.6957 H   0  0  0  0  0  0  0  0  0  0  0  0
   41.3960   28.2191   33.3047 H   0  0  0  0  0  0  0  0  0  0  0  0
   42.3940   27.1246   32.8469 H   0  0  0  0  0  0  0  0  0  0  0  0
   39.8539   25.4536   32.7952 H   0  0  0  0  0  0  0  0  0  0  0  0
   38.2735   26.7264   35.1185 H   0  0  0  0  0  0  0  0  0  0  0  0
   36.0776   27.9048   34.7788 H   0  0  0  0  0  0  0  0  0  0  0  0
   37.2477   28.5786   30.7442 H   0  0  0  0  0  0  0  0  0  0  0  0
   44.9756   25.9439   36.9548 H   0  0  0  0  0  0  0  0  0  0  0  0
   46.9592   25.4075   38.7907 H   0  0  0  0  0  0  0  0  0  0  0  0
   46.7618   23.8619   38.6337 H   0  0  0  0  0  0  0  0  0  0  0  0
   47.8082   24.4744   35.8139 H   0  0  0  0  0  0  0  0  0  0  0  0
   49.7806   26.0718   37.7526 H   0  0  0  0  0  0  0  0  0  0  0  0
   47.1272   30.3119   33.5844 H   0  0  0  0  0  0  0  0  0  0  0  0
   44.5813   27.6476   33.3026 H   0  0  0  0  0  0  0  0  0  0  0  0
   44.9858   29.2717   32.6850 H   0  0  0  0  0  0  0  0  0  0  0  0
  1 17  1  0
  2  3  2  0
  4  3  1  0
  4  1  1  0
  5  4  2  0
  6  7  2  0
  6  5  1  0
  7  2  1  0
  8  6  1  0
  9  8  1  0
 10  9  1  0
 10  8  1  0
 11 10  1  0
 11 12  2  0
 13 12  1  0
 14 13  2  0
 15 16  2  0
 15 14  1  0
 16 11  1  0
 17 18  1  0
 19 17  1  0
 19 18  1  0
 20 19  1  0
 20 21  1  0
 22 21  2  0
 23 22  1  0
 24 25  2  0
 24 23  1  0
 26 24  1  0
 27 26  1  0
 27 29  2  0
 28 27  1  0
 29 30  1  0
 30 23  2  0
 30 20  1  0
  2 31  1  0
  3 32  1  0
  8 33  1  1
  9 34  1  0
  9 35  1  0
 10 36  1  6
 12 37  1  0
 13 38  1  0
 15 39  1  0
 17 40  1  1
 18 41  1  0
 18 42  1  0
 19 43  1  6
 21 44  1  0
 26 45  1  0
 28 46  1  0
 28 47  1  0
M  ISO  8  31  14  32  14  33  13  34  13  35  13  36  13  37  14  38  14
M  ISO  7  39  14  40  13  41  13  42  13  43  13  44  14  45   9
M  END
>  <minimizedAffinity>  (1) 
-5.49338627

>  <minimizedRMSD>  (1) 
0.742466986

$$$$
