
     RDKit          3D

 51 55  0  0  1  0  0  0  0  0999 V2000
   42.5490   22.0630   36.8060 C   0  0  1  0  0  0  0  0  0  0  0  0
   43.6400   21.2680   36.3030 C   0  0  0  0  0  0  0  0  0  0  0  0
   43.1350   22.3570   35.3980 C   0  0  2  0  0  0  0  0  0  0  0  0
   44.0140   23.5150   35.2670 N   0  0  0  0  0  0  0  0  0  0  0  0
   45.3550   23.6700   35.3980 C   0  0  0  0  0  0  0  0  0  0  0  0
   45.6750   24.9720   35.1670 N   0  0  0  0  0  0  0  0  0  0  0  0
   44.5070   25.6260   34.8900 C   0  0  0  0  0  0  0  0  0  0  0  0
   44.3040   26.9480   34.5910 C   0  0  0  0  0  0  0  0  0  0  0  0
   45.2430   27.7930   34.5300 O   0  0  0  0  0  0  0  0  0  0  0  0
   43.0340   27.3300   34.3570 N   0  0  0  0  0  0  0  0  0  0  0  0
   42.0180   26.4560   34.4140 C   0  0  0  0  0  0  0  0  0  0  0  0
   40.6510   26.7530   34.1850 N   0  0  0  0  0  0  0  0  0  0  0  0
   42.2290   25.1890   34.7020 N   0  0  0  0  0  0  0  0  0  0  0  0
   43.4820   24.7070   34.9550 C   0  0  0  0  0  0  0  0  0  0  0  0
   41.2450   21.4580   36.6950 O   0  0  0  0  0  0  0  0  0  0  0  0
   38.5210   23.7400   37.0860 C   0  0  0  0  0  0  0  0  0  0  0  0
   39.6690   22.9740   37.3460 C   0  0  0  0  0  0  0  0  0  0  0  0
   40.1290   22.1490   36.3160 C   0  0  0  0  0  0  0  0  0  0  0  0
   39.4690   22.1100   35.1170 N   0  0  0  0  0  0  0  0  0  0  0  0
   38.3910   22.8500   34.9190 C   0  0  0  0  0  0  0  0  0  0  0  0
   37.9100   23.6660   35.8910 N   0  0  0  0  0  0  0  0  0  0  0  0
   37.5520   22.9740   33.6980 C   0  0  1  0  0  0  0  0  0  0  0  0
   38.3430   23.2160   32.3650 C   0  0  0  0  0  0  0  0  0  0  0  0
   37.6090   21.9700   32.6080 C   0  0  2  0  0  0  0  0  0  0  0  0
   36.3430   21.5990   31.9310 C   0  0  0  0  0  0  0  0  0  0  0  0
   36.4890   20.6620   30.7730 C   0  0  0  0  0  0  0  0  0  0  0  0
   35.7420   22.8970   31.3750 C   0  0  0  0  0  0  0  0  0  0  0  0
   35.3410   21.0630   32.9380 C   0  0  0  0  0  0  0  0  0  0  0  0
   42.3869   22.6137   37.7443 H   0  0  0  0  0  0  0  0  0  0  0  0
   44.6351   21.3656   36.7616 H   0  0  0  0  0  0  0  0  0  0  0  0
   43.7895   20.1860   36.1730 H   0  0  0  0  0  0  0  0  0  0  0  0
   42.7319   22.4435   34.3782 H   0  0  0  0  0  0  0  0  0  0  0  0
   46.0687   22.8719   35.6503 H   0  0  0  0  0  0  0  0  0  0  0  0
   42.8384   28.3153   34.1292 H   0  0  0  0  0  0  0  0  0  0  0  0
   39.9436   26.0075   34.2531 H   0  0  0  0  0  0  0  0  0  0  0  0
   40.3651   27.7143   33.9505 H   0  0  0  0  0  0  0  0  0  0  0  0
   38.1193   24.4046   37.8651 H   0  0  0  0  0  0  0  0  0  0  0  0
   40.1833   23.0213   38.3172 H   0  0  0  0  0  0  0  0  0  0  0  0
   36.7264   23.4260   34.2673 H   0  0  0  0  0  0  0  0  0  0  0  0
   39.4430   23.2207   32.3661 H   0  0  0  0  0  0  0  0  0  0  0  0
   38.3467   23.9873   31.5808 H   0  0  0  0  0  0  0  0  0  0  0  0
   37.9305   20.9221   32.5155 H   0  0  0  0  0  0  0  0  0  0  0  0
   36.6483   19.6397   31.1464 H   0  0  0  0  0  0  0  0  0  0  0  0
   35.5756   20.6906   30.1608 H   0  0  0  0  0  0  0  0  0  0  0  0
   37.3504   20.9671   30.1608 H   0  0  0  0  0  0  0  0  0  0  0  0
   35.4405   23.5481   32.2088 H   0  0  0  0  0  0  0  0  0  0  0  0
   36.4924   23.4140   30.7588 H   0  0  0  0  0  0  0  0  0  0  0  0
   34.8623   22.6593   30.7588 H   0  0  0  0  0  0  0  0  0  0  0  0
   35.7055   21.2580   33.9574 H   0  0  0  0  0  0  0  0  0  0  0  0
   34.3721   21.5633   32.7931 H   0  0  0  0  0  0  0  0  0  0  0  0
   35.2194   19.9794   32.7931 H   0  0  0  0  0  0  0  0  0  0  0  0
  2  1  1  0
  3  2  1  0
  3  1  1  0
  4  3  1  0
  4  5  1  0
  6  5  2  0
  7 14  2  0
  7  6  1  0
  8  7  1  0
  9  8  2  0
 10 11  1  0
 10  8  1  0
 11 13  2  0
 12 11  1  0
 13 14  1  0
 14  4  1  0
 15  1  1  0
 16 17  2  0
 18 15  1  0
 18 17  1  0
 19 18  2  0
 20 19  1  0
 20 21  2  0
 21 16  1  0
 22 20  1  0
 23 24  1  0
 23 22  1  0
 24 22  1  0
 25 24  1  0
 25 28  1  0
 26 25  1  0
 27 25  1  0
  1 29  1  1
  2 30  1  0
  2 31  1  0
  3 32  1  6
  5 33  1  0
 10 34  1  0
 12 35  1  0
 12 36  1  0
 16 37  1  0
 17 38  1  0
 22 39  1  1
 23 40  1  0
 23 41  1  0
 24 42  1  1
 26 43  1  0
 26 44  1  0
 26 45  1  0
 27 46  1  0
 27 47  1  0
 27 48  1  0
 28 49  1  0
 28 50  1  0
 28 51  1  0
M  ISO  8  29  13  30  13  31  13  32  13  33  14  34   9  37  14  38  14
M  ISO  8  39  13  40  13  41  13  42  13  43   8  44   8  45   8  46   8
M  ISO  5  47   8  48   8  49   8  50   8  51   8
M  END
>  <minimizedAffinity>  (1) 
-5.41683435

>  <minimizedRMSD>  (1) 
5.19665194

$$$$
