
     RDKit          3D

 53 58  0  0  1  0  0  0  0  0999 V2000
   44.5770   24.1480   36.0090 O   0  0  0  0  0  0  0  0  0  0  0  0
   41.0380   23.7150   35.7400 C   0  0  0  0  0  0  0  0  0  0  0  0
   42.3870   23.4910   36.0290 C   0  0  0  0  0  0  0  0  0  0  0  0
   43.2980   24.4880   35.6760 C   0  0  0  0  0  0  0  0  0  0  0  0
   42.8550   25.6260   35.0750 N   0  0  0  0  0  0  0  0  0  0  0  0
   41.5600   25.7970   34.8180 C   0  0  0  0  0  0  0  0  0  0  0  0
   40.6500   24.8490   35.1470 N   0  0  0  0  0  0  0  0  0  0  0  0
   40.8670   26.9560   34.1890 C   0  0  1  0  0  0  0  0  0  0  0  0
   41.5910   27.6020   32.9700 C   0  0  0  0  0  0  0  0  0  0  0  0
   40.3260   26.8770   32.8090 C   0  0  1  0  0  0  0  0  0  0  0  0
   40.4060   25.6450   32.0620 N   0  0  0  0  0  0  0  0  0  0  0  0
   39.0100   25.1720   31.9320 C   0  0  0  0  0  0  0  0  0  0  0  0
   38.8160   24.3840   30.6520 C   0  0  0  0  0  0  0  0  0  0  0  0
   38.8810   25.2510   29.4870 N   0  0  0  0  0  0  0  0  0  0  0  0
   39.7380   26.3890   29.8640 C   0  0  0  0  0  0  0  0  0  0  0  0
   40.8560   25.7980   30.6990 C   0  0  0  0  0  0  0  0  0  0  0  0
   45.4610   25.0460   36.7260 C   0  0  1  0  0  0  0  0  0  0  0  0
   46.4650   24.4100   37.5400 C   0  0  0  0  0  0  0  0  0  0  0  0
   46.9100   24.9010   36.1900 C   0  0  2  0  0  0  0  0  0  0  0  0
   47.7580   26.0860   36.2130 N   0  0  0  0  0  0  0  0  0  0  0  0
   48.8960   26.3930   36.8910 C   0  0  0  0  0  0  0  0  0  0  0  0
   49.2890   27.6460   36.5470 N   0  0  0  0  0  0  0  0  0  0  0  0
   48.3830   28.1210   35.6430 C   0  0  0  0  0  0  0  0  0  0  0  0
   48.3470   29.3420   35.0000 C   0  0  0  0  0  0  0  0  0  0  0  0
   49.2120   30.2390   35.1800 O   0  0  0  0  0  0  0  0  0  0  0  0
   47.3220   29.5420   34.1480 N   0  0  0  0  0  0  0  0  0  0  0  0
   46.3860   28.6030   33.9370 C   0  0  0  0  0  0  0  0  0  0  0  0
   45.2770   28.7190   33.0670 N   0  0  0  0  0  0  0  0  0  0  0  0
   46.4390   27.4500   34.5590 N   0  0  0  0  0  0  0  0  0  0  0  0
   47.4350   27.1420   35.4440 C   0  0  0  0  0  0  0  0  0  0  0  0
   40.2897   22.9526   36.0024 H   0  0  0  0  0  0  0  0  0  0  0  0
   42.7188   22.5627   36.5170 H   0  0  0  0  0  0  0  0  0  0  0  0
   40.4435   27.2680   35.1551 H   0  0  0  0  0  0  0  0  0  0  0  0
   41.6200   28.6960   32.8594 H   0  0  0  0  0  0  0  0  0  0  0  0
   42.5961   27.5358   32.5279 H   0  0  0  0  0  0  0  0  0  0  0  0
   39.3312   27.1146   32.4042 H   0  0  0  0  0  0  0  0  0  0  0  0
   38.7679   24.5279   32.7902 H   0  0  0  0  0  0  0  0  0  0  0  0
   38.3459   26.0485   31.9058 H   0  0  0  0  0  0  0  0  0  0  0  0
   39.6054   23.6217   30.5766 H   0  0  0  0  0  0  0  0  0  0  0  0
   37.8229   23.9118   30.6803 H   0  0  0  0  0  0  0  0  0  0  0  0
   37.9385   25.5823   29.2362 H   0  0  0  0  0  0  0  0  0  0  0  0
   40.1458   26.8766   28.9662 H   0  0  0  0  0  0  0  0  0  0  0  0
   39.1766   27.1550   30.4190 H   0  0  0  0  0  0  0  0  0  0  0  0
   41.1375   24.8153   30.2928 H   0  0  0  0  0  0  0  0  0  0  0  0
   41.7282   26.4678   30.6727 H   0  0  0  0  0  0  0  0  0  0  0  0
   44.7435   25.8571   36.9192 H   0  0  0  0  0  0  0  0  0  0  0  0
   46.8273   24.9184   38.4457 H   0  0  0  0  0  0  0  0  0  0  0  0
   46.5218   23.4353   38.0466 H   0  0  0  0  0  0  0  0  0  0  0  0
   47.3757   24.4840   35.2849 H   0  0  0  0  0  0  0  0  0  0  0  0
   49.4140   25.7332   37.6026 H   0  0  0  0  0  0  0  0  0  0  0  0
   47.2550   30.4387   33.6456 H   0  0  0  0  0  0  0  0  0  0  0  0
   44.6115   27.9384   32.9740 H   0  0  0  0  0  0  0  0  0  0  0  0
   45.1348   29.5841   32.5264 H   0  0  0  0  0  0  0  0  0  0  0  0
  1 17  1  0
  2  3  2  0
  4  1  1  0
  4  3  1  0
  5  4  2  0
  6  5  1  0
  6  7  2  0
  7  2  1  0
  8  6  1  0
  9  8  1  0
 10  9  1  0
 10  8  1  0
 11 10  1  0
 12 11  1  0
 13 12  1  0
 14 15  1  0
 14 13  1  0
 15 16  1  0
 16 11  1  0
 17 18  1  0
 19 20  1  0
 19 17  1  0
 19 18  1  0
 20 21  1  0
 22 21  2  0
 23 22  1  0
 24 25  2  0
 24 23  1  0
 26 24  1  0
 27 26  1  0
 27 29  2  0
 28 27  1  0
 29 30  1  0
 30 23  2  0
 30 20  1  0
  2 31  1  0
  3 32  1  0
  8 33  1  1
  9 34  1  0
  9 35  1  0
 10 36  1  1
 12 37  1  0
 12 38  1  0
 13 39  1  0
 13 40  1  0
 14 41  1  0
 15 42  1  0
 15 43  1  0
 16 44  1  0
 16 45  1  0
 17 46  1  1
 18 47  1  0
 18 48  1  0
 19 49  1  6
 21 50  1  0
 26 51  1  0
 28 52  1  0
 28 53  1  0
M  ISO  8  31  14  32  14  33  13  34  13  35  13  36  13  37  13  38  13
M  ISO  8  39  13  40  13  41   5  42  13  43  13  44  13  45  13  46  13
M  ISO  5  47  13  48  13  49  13  50  14  51   9
M  END
>  <minimizedAffinity>  (1) 
-5.06986475

>  <minimizedRMSD>  (1) 
0.562877119

$$$$
