
     RDKit          3D

 40 44  0  0  1  0  0  0  0  0999 V2000
   45.6930   25.0540   36.9060 C   0  0  1  0  0  0  0  0  0  0  0  0
   46.6930   24.4460   37.7480 C   0  0  0  0  0  0  0  0  0  0  0  0
   47.1500   24.9030   36.3920 C   0  0  2  0  0  0  0  0  0  0  0  0
   47.9870   26.0900   36.3820 N   0  0  0  0  0  0  0  0  0  0  0  0
   49.1380   26.4080   37.0300 C   0  0  0  0  0  0  0  0  0  0  0  0
   49.5160   27.6630   36.6660 N   0  0  0  0  0  0  0  0  0  0  0  0
   48.5830   28.1250   35.7780 C   0  0  0  0  0  0  0  0  0  0  0  0
   48.5240   29.3340   35.1300 C   0  0  0  0  0  0  0  0  0  0  0  0
   49.3840   30.2340   35.2820 O   0  0  0  0  0  0  0  0  0  0  0  0
   47.4750   29.5180   34.3000 N   0  0  0  0  0  0  0  0  0  0  0  0
   46.5450   28.5750   34.1200 C   0  0  0  0  0  0  0  0  0  0  0  0
   45.4100   28.6730   33.2740 N   0  0  0  0  0  0  0  0  0  0  0  0
   46.6160   27.4230   34.7490 N   0  0  0  0  0  0  0  0  0  0  0  0
   47.6370   27.1360   35.6110 C   0  0  0  0  0  0  0  0  0  0  0  0
   44.8150   24.1310   36.2320 O   0  0  0  0  0  0  0  0  0  0  0  0
   41.3260   23.6380   35.6510 C   0  0  0  0  0  0  0  0  0  0  0  0
   42.6570   23.4250   36.0450 C   0  0  0  0  0  0  0  0  0  0  0  0
   43.5620   24.4660   35.8090 C   0  0  0  0  0  0  0  0  0  0  0  0
   43.1470   25.6220   35.2250 N   0  0  0  0  0  0  0  0  0  0  0  0
   41.8740   25.7810   34.8680 C   0  0  0  0  0  0  0  0  0  0  0  0
   40.9540   24.8100   35.0700 N   0  0  0  0  0  0  0  0  0  0  0  0
   41.2120   26.9580   34.2480 C   0  0  1  0  0  0  0  0  0  0  0  0
   41.9180   27.4960   32.9430 C   0  0  0  0  0  0  0  0  0  0  0  0
   40.5670   26.9020   32.9160 C   0  0  1  0  0  0  0  0  0  0  0  0
   40.4680   25.6110   32.3740 O   0  0  0  0  0  0  0  0  0  0  0  0
   44.9722   25.8710   37.0573 H   0  0  0  0  0  0  0  0  0  0  0  0
   47.0420   24.9807   38.6437 H   0  0  0  0  0  0  0  0  0  0  0  0
   46.7501   23.4854   38.2809 H   0  0  0  0  0  0  0  0  0  0  0  0
   47.6311   24.4625   35.5063 H   0  0  0  0  0  0  0  0  0  0  0  0
   49.6765   25.7568   37.7342 H   0  0  0  0  0  0  0  0  0  0  0  0
   47.3891   30.4096   33.7915 H   0  0  0  0  0  0  0  0  0  0  0  0
   44.7495   27.8857   33.2051 H   0  0  0  0  0  0  0  0  0  0  0  0
   45.2467   29.5315   32.7288 H   0  0  0  0  0  0  0  0  0  0  0  0
   40.5769   22.8491   35.8139 H   0  0  0  0  0  0  0  0  0  0  0  0
   42.9736   22.4834   36.5173 H   0  0  0  0  0  0  0  0  0  0  0  0
   40.8699   27.3239   35.2273 H   0  0  0  0  0  0  0  0  0  0  0  0
   42.0530   28.5768   32.7895 H   0  0  0  0  0  0  0  0  0  0  0  0
   42.8724   27.3118   32.4280 H   0  0  0  0  0  0  0  0  0  0  0  0
   39.6069   27.2616   32.5174 H   0  0  0  0  0  0  0  0  0  0  0  0
   40.4172   24.9481   33.1076 H   0  0  0  0  0  0  0  0  0  0  0  0
  1  2  1  0
  3  1  1  0
  3  2  1  0
  4  3  1  0
  4  5  1  0
  6  5  2  0
  7  6  1  0
  8  9  2  0
  8  7  1  0
 10  8  1  0
 11 10  1  0
 11 13  2  0
 12 11  1  0
 13 14  1  0
 14  7  2  0
 14  4  1  0
 15  1  1  0
 16 17  2  0
 18 17  1  0
 18 15  1  0
 19 18  2  0
 20 21  2  0
 20 19  1  0
 21 16  1  0
 22 20  1  0
 23 22  1  0
 24 23  1  0
 24 22  1  0
 25 24  1  0
  1 26  1  1
  2 27  1  0
  2 28  1  0
  3 29  1  6
  5 30  1  0
 10 31  1  0
 12 32  1  0
 12 33  1  0
 16 34  1  0
 17 35  1  0
 22 36  1  1
 23 37  1  0
 23 38  1  0
 24 39  1  1
 25 40  1  0
M  ISO  8  26  13  27  13  28  13  29  13  30  14  31   9  34  14  35  14
M  ISO  5  36  13  37  13  38  13  39  13  40   3
M  END
>  <minimizedAffinity>  (1) 
-4.5706315

>  <minimizedRMSD>  (1) 
0.239777058

$$$$
