
     RDKit          3D

 18 18  0  0  0  0  0  0  0  0999 V2000
   40.1070   23.1090   36.5480 C   0  0  0  0  0  0  0  0  0  0  0  0
   39.7470   22.7670   37.8570 C   0  0  0  0  0  0  0  0  0  0  0  0
   38.6670   23.4510   38.4350 C   0  0  0  0  0  0  0  0  0  0  0  0
   38.0150   24.4190   37.6970 N   0  0  0  0  0  0  0  0  0  0  0  0
   38.4110   24.7050   36.4330 C   0  0  0  0  0  0  0  0  0  0  0  0
   39.4450   24.0540   35.8730 N   0  0  0  0  0  0  0  0  0  0  0  0
   37.6470   25.7720   35.7020 C   0  0  0  0  0  0  0  0  0  0  0  0
   38.3130   27.1160   35.9370 C   0  0  0  0  0  0  0  0  0  0  0  0
   39.6490   27.1490   35.3840 N   0  0  0  0  0  0  0  0  0  0  0  0
   40.9495   22.5909   36.0665 H   0  0  0  0  0  0  0  0  0  0  0  0
   40.2917   21.9895   38.4127 H   0  0  0  0  0  0  0  0  0  0  0  0
   38.3444   23.2196   39.4609 H   0  0  0  0  0  0  0  0  0  0  0  0
   36.6126   25.8042   36.0749 H   0  0  0  0  0  0  0  0  0  0  0  0
   37.6394   25.5477   34.6251 H   0  0  0  0  0  0  0  0  0  0  0  0
   37.7093   27.9024   35.4604 H   0  0  0  0  0  0  0  0  0  0  0  0
   38.3843   27.2810   37.0222 H   0  0  0  0  0  0  0  0  0  0  0  0
   40.3373   27.1660   36.1500 H   0  0  0  0  0  0  0  0  0  0  0  0
   39.8013   26.3115   34.8041 H   0  0  0  0  0  0  0  0  0  0  0  0
  1  2  2  0
  2  3  1  0
  4  3  2  0
  5  4  1  0
  6  5  2  0
  6  1  1  0
  7  8  1  0
  7  5  1  0
  9  8  1  0
  1 10  1  0
  2 11  1  0
  3 12  1  0
  7 13  1  0
  7 14  1  0
  8 15  1  0
  8 16  1  0
  9 17  1  0
  9 18  1  0
M  ISO  8  10  14  11  14  12  14  13   8  14   8  15   8  16   8  17   5
M  ISO  1  18   5
M  END
>  <minimizedAffinity>  (1) 
-3.13267684

>  <minimizedRMSD>  (1) 
0.0939276591

$$$$
