
     RDKit          3D

 31 34  0  0  0  0  0  0  0  0999 V2000
   41.9950   24.1610   35.4330 C   0  0  0  0  0  0  0  0  0  0  0  0
   42.5700   25.0390   34.5470 C   0  0  0  0  0  0  0  0  0  0  0  0
   43.7070   25.4820   35.2080 C   0  0  0  0  0  0  0  0  0  0  0  0
   43.8250   24.9110   36.4290 N   0  0  0  0  0  0  0  0  0  0  0  0
   42.7690   24.1330   36.4980 N   0  0  0  0  0  0  0  0  0  0  0  0
   44.8360   25.1010   37.3990 C   0  0  0  0  0  0  0  0  0  0  0  0
   44.7940   25.9260   38.4900 C   0  0  0  0  0  0  0  0  0  0  0  0
   45.9760   25.7840   39.1290 N   0  0  0  0  0  0  0  0  0  0  0  0
   46.7660   24.9090   38.4970 C   0  0  0  0  0  0  0  0  0  0  0  0
   48.0320   24.3800   38.6700 C   0  0  0  0  0  0  0  0  0  0  0  0
   48.6030   23.4580   37.8170 C   0  0  0  0  0  0  0  0  0  0  0  0
   47.8520   23.0510   36.7360 C   0  0  0  0  0  0  0  0  0  0  0  0
   46.5940   23.5370   36.5110 C   0  0  0  0  0  0  0  0  0  0  0  0
   46.0510   24.4690   37.3950 C   0  0  0  0  0  0  0  0  0  0  0  0
   40.4270   22.9430   33.9490 C   0  0  0  0  0  0  0  0  0  0  0  0
   40.7720   23.4120   35.2300 C   0  0  0  0  0  0  0  0  0  0  0  0
   39.9220   23.1450   36.2960 C   0  0  0  0  0  0  0  0  0  0  0  0
   38.7860   22.4340   36.0330 N   0  0  0  0  0  0  0  0  0  0  0  0
   38.4840   21.9940   34.7760 C   0  0  0  0  0  0  0  0  0  0  0  0
   39.3000   22.2520   33.7560 N   0  0  0  0  0  0  0  0  0  0  0  0
   42.2126   25.3245   33.5466 H   0  0  0  0  0  0  0  0  0  0  0  0
   44.4225   26.2064   34.7916 H   0  0  0  0  0  0  0  0  0  0  0  0
   43.9600   26.5781   38.7887 H   0  0  0  0  0  0  0  0  0  0  0  0
   46.2351   26.2846   39.9910 H   0  0  0  0  0  0  0  0  0  0  0  0
   48.6183   24.7139   39.5388 H   0  0  0  0  0  0  0  0  0  0  0  0
   49.6151   23.0645   37.9926 H   0  0  0  0  0  0  0  0  0  0  0  0
   48.2755   22.3159   36.0358 H   0  0  0  0  0  0  0  0  0  0  0  0
   46.0151   23.1958   35.6401 H   0  0  0  0  0  0  0  0  0  0  0  0
   41.0924   23.1475   33.0973 H   0  0  0  0  0  0  0  0  0  0  0  0
   40.1551   23.4930   37.3131 H   0  0  0  0  0  0  0  0  0  0  0  0
   37.5599   21.4223   34.6049 H   0  0  0  0  0  0  0  0  0  0  0  0
  1  5  2  0
  2  3  2  0
  2  1  1  0
  3  4  1  0
  4  5  1  0
  4  6  1  0
  6  7  2  0
  7  8  1  0
  9 10  2  0
  9  8  1  0
 11 10  1  0
 12 11  2  0
 13 12  1  0
 13 14  2  0
 14  6  1  0
 14  9  1  0
 15 16  2  0
 16  1  1  0
 16 17  1  0
 18 17  2  0
 19 18  1  0
 20 15  1  0
 20 19  2  0
  2 21  1  0
  3 22  1  0
  7 23  1  0
  8 24  1  0
 10 25  1  0
 11 26  1  0
 12 27  1  0
 13 28  1  0
 15 29  1  0
 17 30  1  0
 19 31  1  0
M  ISO  8  21  14  22  14  23  14  24   9  25  14  26  14  27  14  28  14
M  ISO  3  29  14  30  14  31  14
M  END
>  <minimizedAffinity>  (1) 
-4.72392988

>  <minimizedRMSD>  (1) 
5.94068527

$$$$
