
     RDKit          3D

 27 29  0  0  0  0  0  0  0  0999 V2000
   39.6970   23.0710   35.4360 C   0  0  0  0  0  0  0  0  0  0  0  0
   38.8160   22.7640   36.4450 C   0  0  0  0  0  0  0  0  0  0  0  0
   37.7130   22.2630   35.7840 C   0  0  0  0  0  0  0  0  0  0  0  0
   37.9060   22.2620   34.4440 N   0  0  0  0  0  0  0  0  0  0  0  0
   39.1120   22.7560   34.2790 N   0  0  0  0  0  0  0  0  0  0  0  0
   41.9610   23.0160   36.4510 C   0  0  0  0  0  0  0  0  0  0  0  0
   41.0180   23.6350   35.6240 C   0  0  0  0  0  0  0  0  0  0  0  0
   41.3600   24.8160   34.9710 C   0  0  0  0  0  0  0  0  0  0  0  0
   42.6150   25.3030   35.1830 N   0  0  0  0  0  0  0  0  0  0  0  0
   43.5020   24.6820   35.9880 C   0  0  0  0  0  0  0  0  0  0  0  0
   43.1740   23.5400   36.6200 N   0  0  0  0  0  0  0  0  0  0  0  0
   36.9270   21.7980   33.5500 C   0  0  0  0  0  0  0  0  0  0  0  0
   36.1210   20.7160   33.9180 C   0  0  0  0  0  0  0  0  0  0  0  0
   35.1660   20.2550   33.0610 C   0  0  0  0  0  0  0  0  0  0  0  0
   34.9800   20.8370   31.8350 C   0  0  0  0  0  0  0  0  0  0  0  0
   35.7550   21.9120   31.4290 C   0  0  0  0  0  0  0  0  0  0  0  0
   36.7230   22.3660   32.3200 C   0  0  0  0  0  0  0  0  0  0  0  0
   38.9573   22.8887   37.5287 H   0  0  0  0  0  0  0  0  0  0  0  0
   36.7970   21.9106   36.2808 H   0  0  0  0  0  0  0  0  0  0  0  0
   41.6970   22.0825   36.9696 H   0  0  0  0  0  0  0  0  0  0  0  0
   40.6476   25.3340   34.3120 H   0  0  0  0  0  0  0  0  0  0  0  0
   44.5038   25.1137   36.1292 H   0  0  0  0  0  0  0  0  0  0  0  0
   36.2575   20.2369   34.8987 H   0  0  0  0  0  0  0  0  0  0  0  0
   34.5360   19.4037   33.3583 H   0  0  0  0  0  0  0  0  0  0  0  0
   34.2032   20.4450   31.1620 H   0  0  0  0  0  0  0  0  0  0  0  0
   35.6114   22.3852   30.4464 H   0  0  0  0  0  0  0  0  0  0  0  0
   37.3520   23.2184   32.0236 H   0  0  0  0  0  0  0  0  0  0  0  0
  1  7  1  0
  1  2  1  0
  3  2  2  0
  4  3  1  0
  5  4  1  0
  5  1  2  0
  6 11  2  0
  7  6  1  0
  8  9  1  0
  8  7  2  0
  9 10  2  0
 10 11  1  0
 12 13  2  0
 12  4  1  0
 14 13  1  0
 15 14  2  0
 16 15  1  0
 16 17  2  0
 17 12  1  0
  2 18  1  0
  3 19  1  0
  6 20  1  0
  8 21  1  0
 10 22  1  0
 13 23  1  0
 14 24  1  0
 15 25  1  0
 16 26  1  0
 17 27  1  0
M  ISO  8  18  14  19  14  20  14  21  14  22  14  23  14  24  14  25  14
M  ISO  2  26  14  27  14
M  END
>  <minimizedAffinity>  (1) 
-4.42061377

>  <minimizedRMSD>  (1) 
7.27949476

$$$$
