
     RDKit          3D

 27 29  0  0  0  0  0  0  0  0999 V2000
   40.0060   22.2340   35.3350 C   0  0  0  0  0  0  0  0  0  0  0  0
   39.0430   22.5060   36.2770 C   0  0  0  0  0  0  0  0  0  0  0  0
   37.8300   22.3560   35.6400 C   0  0  0  0  0  0  0  0  0  0  0  0
   38.0500   21.9980   34.3340 N   0  0  0  0  0  0  0  0  0  0  0  0
   39.3640   21.9420   34.2100 N   0  0  0  0  0  0  0  0  0  0  0  0
   42.0060   23.2480   36.3990 C   0  0  0  0  0  0  0  0  0  0  0  0
   41.4270   22.2690   35.5590 C   0  0  0  0  0  0  0  0  0  0  0  0
   42.2400   21.3140   34.9310 C   0  0  0  0  0  0  0  0  0  0  0  0
   43.5830   21.4030   35.1850 N   0  0  0  0  0  0  0  0  0  0  0  0
   44.1100   22.3470   35.9900 C   0  0  0  0  0  0  0  0  0  0  0  0
   43.3270   23.2610   36.5900 N   0  0  0  0  0  0  0  0  0  0  0  0
   37.0070   21.7650   33.4000 C   0  0  0  0  0  0  0  0  0  0  0  0
   36.2530   20.6580   33.7920 C   0  0  0  0  0  0  0  0  0  0  0  0
   35.1630   20.2050   33.0550 C   0  0  0  0  0  0  0  0  0  0  0  0
   34.8450   20.9030   31.8940 C   0  0  0  0  0  0  0  0  0  0  0  0
   35.5890   21.9980   31.5060 C   0  0  0  0  0  0  0  0  0  0  0  0
   36.6640   22.4330   32.2480 C   0  0  0  0  0  0  0  0  0  0  0  0
   39.2072   22.7869   37.3278 H   0  0  0  0  0  0  0  0  0  0  0  0
   36.8433   22.5002   36.1044 H   0  0  0  0  0  0  0  0  0  0  0  0
   41.3697   23.9967   36.8936 H   0  0  0  0  0  0  0  0  0  0  0  0
   41.8229   20.5380   34.2723 H   0  0  0  0  0  0  0  0  0  0  0  0
   45.1967   22.3701   36.1587 H   0  0  0  0  0  0  0  0  0  0  0  0
   36.5295   20.1259   34.7142 H   0  0  0  0  0  0  0  0  0  0  0  0
   34.5771   19.3314   33.3768 H   0  0  0  0  0  0  0  0  0  0  0  0
   33.9922   20.5785   31.2797 H   0  0  0  0  0  0  0  0  0  0  0  0
   35.3178   22.5346   30.5849 H   0  0  0  0  0  0  0  0  0  0  0  0
   37.2444   23.3086   31.9217 H   0  0  0  0  0  0  0  0  0  0  0  0
  1  7  1  0
  1  2  1  0
  3  2  2  0
  4  3  1  0
  5  4  1  0
  5  1  2  0
  6 11  2  0
  7  6  1  0
  8  9  1  0
  8  7  2  0
  9 10  2  0
 10 11  1  0
 12 13  2  0
 12  4  1  0
 14 13  1  0
 15 14  2  0
 16 15  1  0
 16 17  2  0
 17 12  1  0
  2 18  1  0
  3 19  1  0
  6 20  1  0
  8 21  1  0
 10 22  1  0
 13 23  1  0
 14 24  1  0
 15 25  1  0
 16 26  1  0
 17 27  1  0
M  ISO  8  18  14  19  14  20  14  21  14  22  14  23  14  24  14  25  14
M  ISO  2  26  14  27  14
M  END
>  <minimizedAffinity>  (1) 
-4.04016924

>  <minimizedRMSD>  (1) 
7.31642675

$$$$
