
     RDKit          3D

 33 35  0  0  0  0  0  0  0  0999 V2000
   43.1220   20.9330   36.5810 C   0  0  0  0  0  0  0  0  0  0  0  0
   43.7550   22.0440   36.0780 C   0  0  0  0  0  0  0  0  0  0  0  0
   42.7930   23.0320   36.0620 C   0  0  0  0  0  0  0  0  0  0  0  0
   41.6230   22.5410   36.5350 N   0  0  0  0  0  0  0  0  0  0  0  0
   41.8780   21.2830   36.8290 N   0  0  0  0  0  0  0  0  0  0  0  0
   42.9050   18.5240   37.0700 C   0  0  0  0  0  0  0  0  0  0  0  0
   43.7100   19.6400   36.7920 C   0  0  0  0  0  0  0  0  0  0  0  0
   45.0890   19.4610   36.7240 C   0  0  0  0  0  0  0  0  0  0  0  0
   45.5860   18.2020   36.9350 N   0  0  0  0  0  0  0  0  0  0  0  0
   44.7760   17.1550   37.2010 C   0  0  0  0  0  0  0  0  0  0  0  0
   43.4440   17.3190   37.2660 N   0  0  0  0  0  0  0  0  0  0  0  0
   40.3360   23.1860   36.7100 C   0  0  0  0  0  0  0  0  0  0  0  0
   39.4270   22.7180   35.6020 C   0  0  0  0  0  0  0  0  0  0  0  0
   38.0410   22.3980   36.1130 C   0  0  0  0  0  0  0  0  0  0  0  0
   37.5320   23.5100   37.0130 C   0  0  0  0  0  0  0  0  0  0  0  0
   38.4560   23.6450   38.1800 C   0  0  0  0  0  0  0  0  0  0  0  0
   39.7170   22.8190   38.0440 C   0  0  0  0  0  0  0  0  0  0  0  0
   44.8038   22.1274   35.7570 H   0  0  0  0  0  0  0  0  0  0  0  0
   42.9522   24.0642   35.7168 H   0  0  0  0  0  0  0  0  0  0  0  0
   41.8131   18.6446   37.1272 H   0  0  0  0  0  0  0  0  0  0  0  0
   45.7596   20.3056   36.5073 H   0  0  0  0  0  0  0  0  0  0  0  0
   45.2108   16.1581   37.3661 H   0  0  0  0  0  0  0  0  0  0  0  0
   40.4715   24.2773   36.6832 H   0  0  0  0  0  0  0  0  0  0  0  0
   39.8566   21.8135   35.1466 H   0  0  0  0  0  0  0  0  0  0  0  0
   39.3413   23.5288   34.8635 H   0  0  0  0  0  0  0  0  0  0  0  0
   37.3582   22.2840   35.2582 H   0  0  0  0  0  0  0  0  0  0  0  0
   38.0843   21.4646   36.6933 H   0  0  0  0  0  0  0  0  0  0  0  0
   37.5037   24.4559   36.4523 H   0  0  0  0  0  0  0  0  0  0  0  0
   36.5174   23.2717   37.3648 H   0  0  0  0  0  0  0  0  0  0  0  0
   38.7406   24.7029   38.2794 H   0  0  0  0  0  0  0  0  0  0  0  0
   37.9184   23.2754   39.0656 H   0  0  0  0  0  0  0  0  0  0  0  0
   39.4722   21.7468   38.0662 H   0  0  0  0  0  0  0  0  0  0  0  0
   40.4129   23.0199   38.8719 H   0  0  0  0  0  0  0  0  0  0  0  0
  1  7  1  0
  1  5  2  0
  2  1  1  0
  3  2  2  0
  3  4  1  0
  4 12  1  0
  4  5  1  0
  6 11  2  0
  7  6  1  0
  8  7  2  0
  8  9  1  0
  9 10  2  0
 10 11  1  0
 12 17  1  0
 13 14  1  0
 13 12  1  0
 14 15  1  0
 15 16  1  0
 17 16  1  0
  2 18  1  0
  3 19  1  0
  6 20  1  0
  8 21  1  0
 10 22  1  0
 12 23  1  0
 13 24  1  0
 13 25  1  0
 14 26  1  0
 14 27  1  0
 15 28  1  0
 15 29  1  0
 16 30  1  0
 16 31  1  0
 17 32  1  0
 17 33  1  0
M  ISO  8  18  14  19  14  20  14  21  14  22  14  23  13  24  13  25  13
M  ISO  8  26  13  27  13  28  13  29  13  30  13  31  13  32  13  33  13
M  END
>  <minimizedAffinity>  (1) 
-3.8637526

>  <minimizedRMSD>  (1) 
6.5866046

$$$$
