
     RDKit          3D

 32 34  0  0  0  0  0  0  0  0999 V2000
   41.0120   22.0210   36.4430 C   0  0  0  0  0  0  0  0  0  0  0  0
   41.4780   21.9500   35.1490 C   0  0  0  0  0  0  0  0  0  0  0  0
   42.4930   21.0180   35.1990 C   0  0  0  0  0  0  0  0  0  0  0  0
   42.6420   20.5440   36.4560 N   0  0  0  0  0  0  0  0  0  0  0  0
   41.7290   21.1800   37.1550 N   0  0  0  0  0  0  0  0  0  0  0  0
   39.2170   23.6860   36.0030 C   0  0  0  0  0  0  0  0  0  0  0  0
   39.9420   22.8650   36.8980 C   0  0  0  0  0  0  0  0  0  0  0  0
   39.5950   22.8910   38.2490 C   0  0  0  0  0  0  0  0  0  0  0  0
   38.5690   23.7140   38.6140 N   0  0  0  0  0  0  0  0  0  0  0  0
   37.8980   24.4840   37.7360 C   0  0  0  0  0  0  0  0  0  0  0  0
   38.2250   24.4630   36.4450 N   0  0  0  0  0  0  0  0  0  0  0  0
   45.1700   17.4350   35.9760 N   0  0  0  0  0  0  0  0  0  0  0  0
   45.3460   18.7470   35.4370 C   0  0  0  0  0  0  0  0  0  0  0  0
   44.9230   19.7870   36.4350 C   0  0  0  0  0  0  0  0  0  0  0  0
   43.5600   19.5650   37.0120 C   0  0  0  0  0  0  0  0  0  0  0  0
   43.0300   18.1960   36.9640 C   0  0  0  0  0  0  0  0  0  0  0  0
   43.7630   17.2220   36.0940 C   0  0  0  0  0  0  0  0  0  0  0  0
   41.1208   22.5107   34.2726 H   0  0  0  0  0  0  0  0  0  0  0  0
   43.0977   20.7038   34.3355 H   0  0  0  0  0  0  0  0  0  0  0  0
   39.4727   23.6844   34.9331 H   0  0  0  0  0  0  0  0  0  0  0  0
   40.1259   22.2742   38.9890 H   0  0  0  0  0  0  0  0  0  0  0  0
   37.0795   25.1306   38.0853 H   0  0  0  0  0  0  0  0  0  0  0  0
   45.6173   17.3690   36.9014 H   0  0  0  0  0  0  0  0  0  0  0  0
   46.4066   18.8961   35.1864 H   0  0  0  0  0  0  0  0  0  0  0  0
   44.7253   18.8469   34.5344 H   0  0  0  0  0  0  0  0  0  0  0  0
   45.6506   19.7896   37.2600 H   0  0  0  0  0  0  0  0  0  0  0  0
   44.8860   20.7454   35.8964 H   0  0  0  0  0  0  0  0  0  0  0  0
   43.6711   19.7136   38.0962 H   0  0  0  0  0  0  0  0  0  0  0  0
   43.0386   17.7989   37.9898 H   0  0  0  0  0  0  0  0  0  0  0  0
   42.0296   18.2884   36.5160 H   0  0  0  0  0  0  0  0  0  0  0  0
   43.3273   17.2752   35.0854 H   0  0  0  0  0  0  0  0  0  0  0  0
   43.6476   16.2411   36.5783 H   0  0  0  0  0  0  0  0  0  0  0  0
  1  7  1  0
  1  5  2  0
  2  3  2  0
  2  1  1  0
  3  4  1  0
  4 15  1  0
  4  5  1  0
  6 11  2  0
  6  7  1  0
  7  8  2  0
  8  9  1  0
 10  9  2  0
 11 10  1  0
 12 17  1  0
 13 12  1  0
 13 14  1  0
 14 15  1  0
 16 15  1  0
 17 16  1  0
  2 18  1  0
  3 19  1  0
  6 20  1  0
  8 21  1  0
 10 22  1  0
 12 23  1  0
 13 24  1  0
 13 25  1  0
 14 26  1  0
 14 27  1  0
 15 28  1  0
 16 29  1  0
 16 30  1  0
 17 31  1  0
 17 32  1  0
M  ISO  8  18  14  19  14  20  14  21  14  22  14  23   5  24  13  25  13
M  ISO  7  26  13  27  13  28  13  29  13  30  13  31  13  32  13
M  END
>  <minimizedAffinity>  (1) 
-3.57658577

>  <minimizedRMSD>  (1) 
1.1185776

$$$$
