
     RDKit          3D

 26 28  0  0  0  0  0  0  0  0999 V2000
   41.6750   24.0820   35.4390 C   0  0  0  0  0  0  0  0  0  0  0  0
   42.1370   25.0270   34.5580 C   0  0  0  0  0  0  0  0  0  0  0  0
   43.3600   25.4030   35.0750 C   0  0  0  0  0  0  0  0  0  0  0  0
   43.6400   24.7280   36.2140 N   0  0  0  0  0  0  0  0  0  0  0  0
   42.5940   23.9520   36.3820 N   0  0  0  0  0  0  0  0  0  0  0  0
   40.1290   22.5580   34.2400 C   0  0  0  0  0  0  0  0  0  0  0  0
   40.4200   23.3840   35.3280 C   0  0  0  0  0  0  0  0  0  0  0  0
   39.4650   23.5240   36.3200 C   0  0  0  0  0  0  0  0  0  0  0  0
   38.2900   22.8440   36.1740 N   0  0  0  0  0  0  0  0  0  0  0  0
   38.0430   22.0550   35.1080 C   0  0  0  0  0  0  0  0  0  0  0  0
   38.9640   21.9200   34.1510 N   0  0  0  0  0  0  0  0  0  0  0  0
   44.7800   24.8080   37.0600 C   0  0  0  0  0  0  0  0  0  0  0  0
   44.8330   25.5130   38.2550 C   0  0  0  0  0  0  0  0  0  0  0  0
   46.0320   25.4970   38.9780 C   0  0  0  0  0  0  0  0  0  0  0  0
   47.1100   24.7850   38.4790 C   0  0  0  0  0  0  0  0  0  0  0  0
   47.0330   24.0900   37.2850 C   0  0  0  0  0  0  0  0  0  0  0  0
   45.8580   24.1170   36.5950 N   0  0  0  0  0  0  0  0  0  0  0  0
   41.6449   25.3998   33.6476 H   0  0  0  0  0  0  0  0  0  0  0  0
   44.0219   26.1545   34.6199 H   0  0  0  0  0  0  0  0  0  0  0  0
   40.8759   22.4324   33.4423 H   0  0  0  0  0  0  0  0  0  0  0  0
   39.6467   24.1622   37.1973 H   0  0  0  0  0  0  0  0  0  0  0  0
   37.0834   21.5233   35.0274 H   0  0  0  0  0  0  0  0  0  0  0  0
   43.9578   26.0684   38.6233 H   0  0  0  0  0  0  0  0  0  0  0  0
   46.1166   26.0426   39.9294 H   0  0  0  0  0  0  0  0  0  0  0  0
   48.0521   24.7716   39.0467 H   0  0  0  0  0  0  0  0  0  0  0  0
   47.8987   23.5296   36.9022 H   0  0  0  0  0  0  0  0  0  0  0  0
  1  5  2  0
  2  3  2  0
  2  1  1  0
  3  4  1  0
  4  5  1  0
  4 12  1  0
  6  7  2  0
  7  1  1  0
  7  8  1  0
  9  8  2  0
 10  9  1  0
 11  6  1  0
 11 10  2  0
 12 13  2  0
 13 14  1  0
 15 14  2  0
 16 15  1  0
 17 12  1  0
 17 16  2  0
  2 18  1  0
  3 19  1  0
  6 20  1  0
  8 21  1  0
 10 22  1  0
 13 23  1  0
 14 24  1  0
 15 25  1  0
 16 26  1  0
M  ISO  8  18  14  19  14  20  14  21  14  22  14  23  14  24  14  25  14
M  ISO  1  26  14
M  END
>  <minimizedAffinity>  (1) 
-4.44403648

>  <minimizedRMSD>  (1) 
4.90139103

$$$$
