
     RDKit          3D

 40 44  0  0  0  0  0  0  0  0999 V2000
   44.6680   24.7680   37.1690 C   0  0  0  0  0  0  0  0  0  0  0  0
   44.5560   25.7200   38.1710 C   0  0  0  0  0  0  0  0  0  0  0  0
   45.6660   25.9550   38.9760 C   0  0  0  0  0  0  0  0  0  0  0  0
   46.8300   25.2520   38.7640 C   0  0  0  0  0  0  0  0  0  0  0  0
   46.9260   24.3060   37.7590 C   0  0  0  0  0  0  0  0  0  0  0  0
   45.8320   24.0760   36.9690 N   0  0  0  0  0  0  0  0  0  0  0  0
   48.1250   23.5540   37.5090 N   0  0  0  0  0  0  0  0  0  0  0  0
   48.3600   22.9120   36.3530 C   0  0  0  0  0  0  0  0  0  0  0  0
   49.5790   22.3280   36.5000 N   0  0  0  0  0  0  0  0  0  0  0  0
   50.0620   22.6150   37.7210 C   0  0  0  0  0  0  0  0  0  0  0  0
   51.2690   22.2390   38.3230 C   0  0  0  0  0  0  0  0  0  0  0  0
   52.1390   21.5230   37.7620 O   0  0  0  0  0  0  0  0  0  0  0  0
   51.4210   22.7160   39.5730 N   0  0  0  0  0  0  0  0  0  0  0  0
   50.5280   23.4820   40.2210 C   0  0  0  0  0  0  0  0  0  0  0  0
   50.7810   23.9400   41.5530 N   0  0  0  0  0  0  0  0  0  0  0  0
   49.3620   23.8390   39.6280 N   0  0  0  0  0  0  0  0  0  0  0  0
   49.1370   23.4010   38.3760 C   0  0  0  0  0  0  0  0  0  0  0  0
   41.7010   23.6690   35.5010 C   0  0  0  0  0  0  0  0  0  0  0  0
   42.4180   24.0200   34.3970 C   0  0  0  0  0  0  0  0  0  0  0  0
   43.6170   24.4740   34.9040 C   0  0  0  0  0  0  0  0  0  0  0  0
   43.6350   24.4040   36.2580 N   0  0  0  0  0  0  0  0  0  0  0  0
   42.4600   23.9130   36.5620 N   0  0  0  0  0  0  0  0  0  0  0  0
   39.8630   22.3960   34.4070 C   0  0  0  0  0  0  0  0  0  0  0  0
   40.3620   23.1310   35.4910 C   0  0  0  0  0  0  0  0  0  0  0  0
   39.5330   23.3350   36.5750 C   0  0  0  0  0  0  0  0  0  0  0  0
   38.2700   22.8110   36.5360 N   0  0  0  0  0  0  0  0  0  0  0  0
   37.8290   22.1050   35.4620 C   0  0  0  0  0  0  0  0  0  0  0  0
   38.6310   21.9090   34.4150 N   0  0  0  0  0  0  0  0  0  0  0  0
   43.6175   26.2728   38.3247 H   0  0  0  0  0  0  0  0  0  0  0  0
   45.6134   26.7023   39.7815 H   0  0  0  0  0  0  0  0  0  0  0  0
   47.7015   25.4461   39.4065 H   0  0  0  0  0  0  0  0  0  0  0  0
   47.7035   22.8679   35.4715 H   0  0  0  0  0  0  0  0  0  0  0  0
   52.2897   22.4747   40.0710 H   0  0  0  0  0  0  0  0  0  0  0  0
   50.0862   24.5268   42.0365 H   0  0  0  0  0  0  0  0  0  0  0  0
   51.6579   23.6828   42.0282 H   0  0  0  0  0  0  0  0  0  0  0  0
   42.1107   23.9559   33.3427 H   0  0  0  0  0  0  0  0  0  0  0  0
   44.4508   24.8449   34.2898 H   0  0  0  0  0  0  0  0  0  0  0  0
   40.5068   22.2201   33.5326 H   0  0  0  0  0  0  0  0  0  0  0  0
   39.8794   23.9053   37.4495 H   0  0  0  0  0  0  0  0  0  0  0  0
   36.8085   21.6944   35.4563 H   0  0  0  0  0  0  0  0  0  0  0  0
  1  2  2  0
  2  3  1  0
  4  3  2  0
  5  4  1  0
  6  1  1  0
  6  5  2  0
  7  5  1  0
  7 17  1  0
  8  9  2  0
  8  7  1  0
  9 10  1  0
 10 11  1  0
 10 17  2  0
 11 13  1  0
 12 11  2  0
 13 14  1  0
 14 15  1  0
 16 14  2  0
 17 16  1  0
 18 22  2  0
 19 20  2  0
 19 18  1  0
 20 21  1  0
 21 22  1  0
 21  1  1  0
 23 28  2  0
 23 24  1  0
 24 18  1  0
 24 25  2  0
 26 25  1  0
 27 26  2  0
 28 27  1  0
  2 29  1  0
  3 30  1  0
  4 31  1  0
  8 32  1  0
 13 33  1  0
 15 34  1  0
 15 35  1  0
 19 36  1  0
 20 37  1  0
 23 38  1  0
 25 39  1  0
 27 40  1  0
M  ISO  8  29  14  30  14  31  14  32  14  33   9  36  14  37  14  38  14
M  ISO  2  39  14  40  14
M  END
>  <minimizedAffinity>  (1) 
-5.33680487

>  <minimizedRMSD>  (1) 
0.950133562

$$$$
