
     RDKit          3D

 39 43  0  0  0  0  0  0  0  0999 V2000
   44.6610   24.8060   37.1160 C   0  0  0  0  0  0  0  0  0  0  0  0
   44.5670   25.7100   38.1610 C   0  0  0  0  0  0  0  0  0  0  0  0
   45.6670   25.8990   39.0030 C   0  0  0  0  0  0  0  0  0  0  0  0
   46.8210   25.1650   38.7550 C   0  0  0  0  0  0  0  0  0  0  0  0
   46.8990   24.2680   37.7090 C   0  0  0  0  0  0  0  0  0  0  0  0
   45.8090   24.0990   36.8970 N   0  0  0  0  0  0  0  0  0  0  0  0
   48.1070   23.5390   37.4970 N   0  0  0  0  0  0  0  0  0  0  0  0
   48.5370   22.8940   36.3950 C   0  0  0  0  0  0  0  0  0  0  0  0
   49.7540   22.3410   36.6650 N   0  0  0  0  0  0  0  0  0  0  0  0
   50.0700   22.6420   37.9160 C   0  0  0  0  0  0  0  0  0  0  0  0
   51.1430   22.3760   38.7410 C   0  0  0  0  0  0  0  0  0  0  0  0
   51.1910   22.8270   40.0090 N   0  0  0  0  0  0  0  0  0  0  0  0
   50.1730   23.5710   40.5300 C   0  0  0  0  0  0  0  0  0  0  0  0
   49.1240   23.8430   39.7550 N   0  0  0  0  0  0  0  0  0  0  0  0
   49.0440   23.4060   38.4810 C   0  0  0  0  0  0  0  0  0  0  0  0
   41.6960   23.7820   35.3970 C   0  0  0  0  0  0  0  0  0  0  0  0
   42.3750   24.3130   34.3290 C   0  0  0  0  0  0  0  0  0  0  0  0
   43.5700   24.7580   34.8600 C   0  0  0  0  0  0  0  0  0  0  0  0
   43.6300   24.5160   36.1910 N   0  0  0  0  0  0  0  0  0  0  0  0
   42.4810   23.9320   36.4490 N   0  0  0  0  0  0  0  0  0  0  0  0
   39.9560   22.4660   34.2320 C   0  0  0  0  0  0  0  0  0  0  0  0
   40.3930   23.1890   35.3440 C   0  0  0  0  0  0  0  0  0  0  0  0
   39.5310   23.3240   36.4060 C   0  0  0  0  0  0  0  0  0  0  0  0
   38.3010   22.7480   36.3230 N   0  0  0  0  0  0  0  0  0  0  0  0
   37.9120   22.0530   35.2260 C   0  0  0  0  0  0  0  0  0  0  0  0
   38.7440   21.9180   34.1890 N   0  0  0  0  0  0  0  0  0  0  0  0
   52.2470   21.6080   38.2750 N   0  0  0  0  0  0  0  0  0  0  0  0
   43.6368   26.2733   38.3268 H   0  0  0  0  0  0  0  0  0  0  0  0
   45.6204   26.6106   39.8405 H   0  0  0  0  0  0  0  0  0  0  0  0
   47.6945   25.3026   39.4092 H   0  0  0  0  0  0  0  0  0  0  0  0
   47.9975   22.8251   35.4389 H   0  0  0  0  0  0  0  0  0  0  0  0
   50.2173   23.9378   41.5661 H   0  0  0  0  0  0  0  0  0  0  0  0
   42.0416   24.3713   33.2824 H   0  0  0  0  0  0  0  0  0  0  0  0
   44.3672   25.2445   34.2787 H   0  0  0  0  0  0  0  0  0  0  0  0
   40.6299   22.3466   33.3708 H   0  0  0  0  0  0  0  0  0  0  0  0
   39.8290   23.8856   37.3037 H   0  0  0  0  0  0  0  0  0  0  0  0
   36.9104   21.5997   35.1894 H   0  0  0  0  0  0  0  0  0  0  0  0
   53.0421   21.4165   38.9012 H   0  0  0  0  0  0  0  0  0  0  0  0
   52.2509   21.2437   37.3116 H   0  0  0  0  0  0  0  0  0  0  0  0
  1  2  2  0
  2  3  1  0
  4  3  2  0
  5  4  1  0
  6  1  1  0
  6  5  2  0
  7  5  1  0
  7 15  1  0
  8  9  2  0
  8  7  1  0
  9 10  1  0
 10 15  2  0
 10 11  1  0
 11 12  2  0
 12 13  1  0
 14 13  2  0
 15 14  1  0
 16 20  2  0
 17 18  2  0
 17 16  1  0
 18 19  1  0
 19 20  1  0
 19  1  1  0
 21 22  2  0
 22 16  1  0
 22 23  1  0
 24 23  2  0
 25 24  1  0
 26 21  1  0
 26 25  2  0
 27 11  1  0
  2 28  1  0
  3 29  1  0
  4 30  1  0
  8 31  1  0
 13 32  1  0
 17 33  1  0
 18 34  1  0
 21 35  1  0
 23 36  1  0
 25 37  1  0
 27 38  1  0
 27 39  1  0
M  ISO  8  28  14  29  14  30  14  31  14  32  14  33  14  34  14  35  14
M  ISO  2  36  14  37  14
M  END
>  <minimizedAffinity>  (1) 
-5.25710344

>  <minimizedRMSD>  (1) 
0.776158035

$$$$
