
     RDKit          3D

 39 42  0  0  0  0  0  0  0  0999 V2000
   41.6670   24.1090   35.3990 C   0  0  0  0  0  0  0  0  0  0  0  0
   42.1610   25.0250   34.5150 C   0  0  0  0  0  0  0  0  0  0  0  0
   43.3600   25.4170   35.0690 C   0  0  0  0  0  0  0  0  0  0  0  0
   43.5880   24.7730   36.2350 N   0  0  0  0  0  0  0  0  0  0  0  0
   42.5430   23.9990   36.3910 N   0  0  0  0  0  0  0  0  0  0  0  0
   44.7020   24.8820   37.1270 C   0  0  0  0  0  0  0  0  0  0  0  0
   44.7490   25.7060   38.2400 C   0  0  0  0  0  0  0  0  0  0  0  0
   45.9030   25.7040   39.0150 C   0  0  0  0  0  0  0  0  0  0  0  0
   46.9480   24.8890   38.6500 C   0  0  0  0  0  0  0  0  0  0  0  0
   46.8880   24.0770   37.5440 C   0  0  0  0  0  0  0  0  0  0  0  0
   45.7620   24.0800   36.7890 N   0  0  0  0  0  0  0  0  0  0  0  0
   47.9250   23.2090   37.1030 N   0  0  0  0  0  0  0  0  0  0  0  0
   49.2110   23.0670   37.7840 C   0  0  0  0  0  0  0  0  0  0  0  0
   49.8420   21.7410   37.5190 C   0  0  0  0  0  0  0  0  0  0  0  0
   48.9830   20.7020   37.2920 O   0  0  0  0  0  0  0  0  0  0  0  0
   47.9240   20.9360   36.4640 C   0  0  0  0  0  0  0  0  0  0  0  0
   47.8420   22.3600   35.9320 C   0  0  0  0  0  0  0  0  0  0  0  0
   40.1750   22.5440   34.1810 C   0  0  0  0  0  0  0  0  0  0  0  0
   40.4150   23.4010   35.2630 C   0  0  0  0  0  0  0  0  0  0  0  0
   39.4210   23.5510   36.2010 C   0  0  0  0  0  0  0  0  0  0  0  0
   38.2700   22.8590   36.0190 N   0  0  0  0  0  0  0  0  0  0  0  0
   38.0610   22.0370   34.9640 C   0  0  0  0  0  0  0  0  0  0  0  0
   39.0250   21.8890   34.0520 N   0  0  0  0  0  0  0  0  0  0  0  0
   41.7057   25.3709   33.5753 H   0  0  0  0  0  0  0  0  0  0  0  0
   44.0411   26.1559   34.6217 H   0  0  0  0  0  0  0  0  0  0  0  0
   43.8941   26.3460   38.5038 H   0  0  0  0  0  0  0  0  0  0  0  0
   45.9787   26.3444   39.9062 H   0  0  0  0  0  0  0  0  0  0  0  0
   47.8612   24.8871   39.2632 H   0  0  0  0  0  0  0  0  0  0  0  0
   49.8883   23.8590   37.4320 H   0  0  0  0  0  0  0  0  0  0  0  0
   49.0323   23.1473   38.8664 H   0  0  0  0  0  0  0  0  0  0  0  0
   50.4849   21.8456   36.6326 H   0  0  0  0  0  0  0  0  0  0  0  0
   50.3835   21.4814   38.4406 H   0  0  0  0  0  0  0  0  0  0  0  0
   48.0012   20.2524   35.6057 H   0  0  0  0  0  0  0  0  0  0  0  0
   47.0160   20.7728   37.0632 H   0  0  0  0  0  0  0  0  0  0  0  0
   48.6782   22.5646   35.2473 H   0  0  0  0  0  0  0  0  0  0  0  0
   46.9165   22.5335   35.3635 H   0  0  0  0  0  0  0  0  0  0  0  0
   40.9572   22.4096   33.4194 H   0  0  0  0  0  0  0  0  0  0  0  0
   39.5555   24.2110   37.0706 H   0  0  0  0  0  0  0  0  0  0  0  0
   37.1082   21.4973   34.8592 H   0  0  0  0  0  0  0  0  0  0  0  0
  1  5  2  0
  2  3  2  0
  2  1  1  0
  3  4  1  0
  4  5  1  0
  4  6  1  0
  6  7  2  0
  7  8  1  0
  9  8  2  0
 10  9  1  0
 11  6  1  0
 11 10  2  0
 12 10  1  0
 12 13  1  0
 14 13  1  0
 15 14  1  0
 16 15  1  0
 17 16  1  0
 17 12  1  0
 18 19  2  0
 19  1  1  0
 19 20  1  0
 21 20  2  0
 22 21  1  0
 23 18  1  0
 23 22  2  0
  2 24  1  0
  3 25  1  0
  7 26  1  0
  8 27  1  0
  9 28  1  0
 13 29  1  0
 13 30  1  0
 14 31  1  0
 14 32  1  0
 16 33  1  0
 16 34  1  0
 17 35  1  0
 17 36  1  0
 18 37  1  0
 20 38  1  0
 22 39  1  0
M  ISO  8  24  14  25  14  26  14  27  14  28  14  29  13  30  13  31  13
M  ISO  8  32  13  33  13  34  13  35  13  36  13  37  14  38  14  39  14
M  END
>  <minimizedAffinity>  (1) 
-4.96580267

>  <minimizedRMSD>  (1) 
0.351651162

$$$$
