
     RDKit          3D

 41 44  0  0  0  0  0  0  0  0999 V2000
   41.6910   24.0830   35.4050 C   0  0  0  0  0  0  0  0  0  0  0  0
   42.1830   25.0010   34.5010 C   0  0  0  0  0  0  0  0  0  0  0  0
   43.3850   25.4000   35.0550 C   0  0  0  0  0  0  0  0  0  0  0  0
   43.6200   24.7720   36.2230 N   0  0  0  0  0  0  0  0  0  0  0  0
   42.5740   24.0000   36.3780 N   0  0  0  0  0  0  0  0  0  0  0  0
   44.7210   24.8820   37.1160 C   0  0  0  0  0  0  0  0  0  0  0  0
   44.7260   25.6260   38.2950 C   0  0  0  0  0  0  0  0  0  0  0  0
   45.8950   25.6320   39.0680 C   0  0  0  0  0  0  0  0  0  0  0  0
   46.9950   24.9010   38.6330 C   0  0  0  0  0  0  0  0  0  0  0  0
   46.9620   24.1710   37.4590 C   0  0  0  0  0  0  0  0  0  0  0  0
   45.8250   24.1730   36.7190 N   0  0  0  0  0  0  0  0  0  0  0  0
   48.0680   23.4110   36.9820 N   0  0  0  0  0  0  0  0  0  0  0  0
   47.9140   22.0600   36.4710 C   0  0  0  0  0  0  0  0  0  0  0  0
   49.0070   21.2130   37.0970 C   0  0  0  0  0  0  0  0  0  0  0  0
   50.3310   21.6800   36.5400 C   0  0  0  0  0  0  0  0  0  0  0  0
   50.2590   23.1050   36.0950 C   0  0  0  0  0  0  0  0  0  0  0  0
   49.4030   23.9780   36.9950 C   0  0  0  0  0  0  0  0  0  0  0  0
   40.1800   22.5370   34.1810 C   0  0  0  0  0  0  0  0  0  0  0  0
   40.4400   23.3790   35.2600 C   0  0  0  0  0  0  0  0  0  0  0  0
   39.4550   23.5440   36.2310 C   0  0  0  0  0  0  0  0  0  0  0  0
   38.2870   22.8540   36.0470 N   0  0  0  0  0  0  0  0  0  0  0  0
   38.0720   22.0520   34.9950 C   0  0  0  0  0  0  0  0  0  0  0  0
   39.0240   21.8950   34.0600 N   0  0  0  0  0  0  0  0  0  0  0  0
   41.7256   25.3373   33.5588 H   0  0  0  0  0  0  0  0  0  0  0  0
   44.0633   26.1367   34.5998 H   0  0  0  0  0  0  0  0  0  0  0  0
   43.8372   26.1925   38.6098 H   0  0  0  0  0  0  0  0  0  0  0  0
   45.9417   26.2065   40.0049 H   0  0  0  0  0  0  0  0  0  0  0  0
   47.9140   24.9035   39.2376 H   0  0  0  0  0  0  0  0  0  0  0  0
   46.9258   21.6635   36.7472 H   0  0  0  0  0  0  0  0  0  0  0  0
   47.9920   22.0475   35.3738 H   0  0  0  0  0  0  0  0  0  0  0  0
   48.9965   21.3370   38.1899 H   0  0  0  0  0  0  0  0  0  0  0  0
   48.8475   20.1493   36.8665 H   0  0  0  0  0  0  0  0  0  0  0  0
   51.1012   21.5863   37.3198 H   0  0  0  0  0  0  0  0  0  0  0  0
   50.5817   21.0560   35.6695 H   0  0  0  0  0  0  0  0  0  0  0  0
   51.2790   23.5166   36.0786 H   0  0  0  0  0  0  0  0  0  0  0  0
   49.7911   23.1098   35.0995 H   0  0  0  0  0  0  0  0  0  0  0  0
   49.3803   25.0090   36.6122 H   0  0  0  0  0  0  0  0  0  0  0  0
   49.8088   24.0089   38.0169 H   0  0  0  0  0  0  0  0  0  0  0  0
   40.9521   22.4005   33.4095 H   0  0  0  0  0  0  0  0  0  0  0  0
   39.6082   24.1968   37.1030 H   0  0  0  0  0  0  0  0  0  0  0  0
   37.1137   21.5209   34.8968 H   0  0  0  0  0  0  0  0  0  0  0  0
  1  5  2  0
  2  3  2  0
  2  1  1  0
  3  4  1  0
  4  5  1  0
  4  6  1  0
  6  7  2  0
  7  8  1  0
  9  8  2  0
 10  9  1  0
 11  6  1  0
 11 10  2  0
 12 17  1  0
 12 10  1  0
 13 12  1  0
 13 14  1  0
 15 14  1  0
 16 15  1  0
 16 17  1  0
 18 19  2  0
 19  1  1  0
 19 20  1  0
 21 20  2  0
 22 21  1  0
 23 18  1  0
 23 22  2  0
  2 24  1  0
  3 25  1  0
  7 26  1  0
  8 27  1  0
  9 28  1  0
 13 29  1  0
 13 30  1  0
 14 31  1  0
 14 32  1  0
 15 33  1  0
 15 34  1  0
 16 35  1  0
 16 36  1  0
 17 37  1  0
 17 38  1  0
 18 39  1  0
 20 40  1  0
 22 41  1  0
M  ISO  8  24  14  25  14  26  14  27  14  28  14  29  13  30  13  31  13
M  ISO  8  32  13  33  13  34  13  35  13  36  13  37  13  38  13  39  14
M  ISO  2  40  14  41  14
M  END
>  <minimizedAffinity>  (1) 
-4.93803024

>  <minimizedRMSD>  (1) 
0.209870353

$$$$
