
     RDKit          3D

 33 36  0  0  0  0  0  0  0  0999 V2000
   41.6920   24.1030   35.3820 C   0  0  0  0  0  0  0  0  0  0  0  0
   42.2020   24.9960   34.4880 C   0  0  0  0  0  0  0  0  0  0  0  0
   43.4020   25.3850   35.0500 C   0  0  0  0  0  0  0  0  0  0  0  0
   43.6190   24.7620   36.2310 N   0  0  0  0  0  0  0  0  0  0  0  0
   42.5640   24.0080   36.3810 N   0  0  0  0  0  0  0  0  0  0  0  0
   44.7210   24.8780   37.1230 C   0  0  0  0  0  0  0  0  0  0  0  0
   44.7350   25.6860   38.2590 C   0  0  0  0  0  0  0  0  0  0  0  0
   45.8900   25.7020   39.0460 C   0  0  0  0  0  0  0  0  0  0  0  0
   46.9740   24.9150   38.6650 C   0  0  0  0  0  0  0  0  0  0  0  0
   46.9260   24.1220   37.5260 C   0  0  0  0  0  0  0  0  0  0  0  0
   45.7950   24.1250   36.7810 N   0  0  0  0  0  0  0  0  0  0  0  0
   48.0670   23.3330   37.1810 N   0  0  0  0  0  0  0  0  0  0  0  0
   49.2090   23.9830   37.3610 N   0  0  0  0  0  0  0  0  0  0  0  0
   50.2500   23.1980   37.0230 C   0  0  0  0  0  0  0  0  0  0  0  0
   49.7240   21.9830   36.6050 C   0  0  0  0  0  0  0  0  0  0  0  0
   48.3390   22.1050   36.7180 C   0  0  0  0  0  0  0  0  0  0  0  0
   40.1850   22.5520   34.1720 C   0  0  0  0  0  0  0  0  0  0  0  0
   40.4420   23.3980   35.2630 C   0  0  0  0  0  0  0  0  0  0  0  0
   39.4640   23.5340   36.2190 C   0  0  0  0  0  0  0  0  0  0  0  0
   38.2990   22.8410   36.0550 N   0  0  0  0  0  0  0  0  0  0  0  0
   38.0870   22.0420   35.0010 C   0  0  0  0  0  0  0  0  0  0  0  0
   39.0330   21.8960   34.0550 N   0  0  0  0  0  0  0  0  0  0  0  0
   41.7598   25.3300   33.5378 H   0  0  0  0  0  0  0  0  0  0  0  0
   44.0936   26.1094   34.5951 H   0  0  0  0  0  0  0  0  0  0  0  0
   43.8598   26.2952   38.5290 H   0  0  0  0  0  0  0  0  0  0  0  0
   45.9419   26.3255   39.9507 H   0  0  0  0  0  0  0  0  0  0  0  0
   47.8868   24.9217   39.2788 H   0  0  0  0  0  0  0  0  0  0  0  0
   51.3153   23.4683   37.0694 H   0  0  0  0  0  0  0  0  0  0  0  0
   50.2850   21.1035   36.2559 H   0  0  0  0  0  0  0  0  0  0  0  0
   47.5995   21.3292   36.4704 H   0  0  0  0  0  0  0  0  0  0  0  0
   40.9543   22.4286   33.3955 H   0  0  0  0  0  0  0  0  0  0  0  0
   39.6158   24.1841   37.0933 H   0  0  0  0  0  0  0  0  0  0  0  0
   37.1334   21.5016   34.9081 H   0  0  0  0  0  0  0  0  0  0  0  0
  1  5  2  0
  2  3  2  0
  2  1  1  0
  3  4  1  0
  4  5  1  0
  4  6  1  0
  6  7  2  0
  7  8  1  0
  9  8  2  0
 10  9  1  0
 11  6  1  0
 11 10  2  0
 12 13  1  0
 12 10  1  0
 14 13  2  0
 15 16  2  0
 15 14  1  0
 16 12  1  0
 17 18  2  0
 18  1  1  0
 18 19  1  0
 20 19  2  0
 21 20  1  0
 22 17  1  0
 22 21  2  0
  2 23  1  0
  3 24  1  0
  7 25  1  0
  8 26  1  0
  9 27  1  0
 14 28  1  0
 15 29  1  0
 16 30  1  0
 17 31  1  0
 19 32  1  0
 21 33  1  0
M  ISO  8  23  14  24  14  25  14  26  14  27  14  28  14  29  14  30  14
M  ISO  3  31  14  32  14  33  14
M  END
>  <minimizedAffinity>  (1) 
-4.85496426

>  <minimizedRMSD>  (1) 
0.252791345

$$$$
