
     RDKit          3D

 33 36  0  0  0  0  0  0  0  0999 V2000
   41.6770   24.0800   35.4040 C   0  0  0  0  0  0  0  0  0  0  0  0
   42.1840   24.9900   34.4990 C   0  0  0  0  0  0  0  0  0  0  0  0
   43.3870   25.3900   35.0540 C   0  0  0  0  0  0  0  0  0  0  0  0
   43.6030   24.7540   36.2390 N   0  0  0  0  0  0  0  0  0  0  0  0
   42.5530   23.9840   36.4040 N   0  0  0  0  0  0  0  0  0  0  0  0
   44.7090   24.8740   37.1310 C   0  0  0  0  0  0  0  0  0  0  0  0
   44.7360   25.6480   38.2720 C   0  0  0  0  0  0  0  0  0  0  0  0
   45.8950   25.6590   39.0420 C   0  0  0  0  0  0  0  0  0  0  0  0
   46.9740   24.9010   38.6440 C   0  0  0  0  0  0  0  0  0  0  0  0
   46.9340   24.1330   37.5030 C   0  0  0  0  0  0  0  0  0  0  0  0
   45.7910   24.1250   36.7480 N   0  0  0  0  0  0  0  0  0  0  0  0
   48.0220   23.3190   37.0280 N   0  0  0  0  0  0  0  0  0  0  0  0
   48.2100   22.0360   36.6670 C   0  0  0  0  0  0  0  0  0  0  0  0
   49.5520   21.9450   36.3040 C   0  0  0  0  0  0  0  0  0  0  0  0
   50.1340   23.1530   36.4500 N   0  0  0  0  0  0  0  0  0  0  0  0
   49.1940   23.9920   36.8940 C   0  0  0  0  0  0  0  0  0  0  0  0
   40.1740   22.5400   34.1840 C   0  0  0  0  0  0  0  0  0  0  0  0
   40.4310   23.3820   35.2650 C   0  0  0  0  0  0  0  0  0  0  0  0
   39.4480   23.5430   36.2250 C   0  0  0  0  0  0  0  0  0  0  0  0
   38.2760   22.8580   36.0530 N   0  0  0  0  0  0  0  0  0  0  0  0
   38.0600   22.0480   34.9900 C   0  0  0  0  0  0  0  0  0  0  0  0
   39.0140   21.8940   34.0600 N   0  0  0  0  0  0  0  0  0  0  0  0
   41.7342   25.3220   33.5517 H   0  0  0  0  0  0  0  0  0  0  0  0
   44.0736   26.1203   34.6010 H   0  0  0  0  0  0  0  0  0  0  0  0
   43.8599   26.2441   38.5672 H   0  0  0  0  0  0  0  0  0  0  0  0
   45.9489   26.2659   39.9578 H   0  0  0  0  0  0  0  0  0  0  0  0
   47.8899   24.9098   39.2531 H   0  0  0  0  0  0  0  0  0  0  0  0
   47.4619   21.2295   36.6601 H   0  0  0  0  0  0  0  0  0  0  0  0
   50.0569   21.0326   35.9538 H   0  0  0  0  0  0  0  0  0  0  0  0
   49.3453   25.0587   37.1159 H   0  0  0  0  0  0  0  0  0  0  0  0
   40.9477   22.4051   33.4138 H   0  0  0  0  0  0  0  0  0  0  0  0
   39.6029   24.1980   37.0951 H   0  0  0  0  0  0  0  0  0  0  0  0
   37.1023   21.5163   34.8891 H   0  0  0  0  0  0  0  0  0  0  0  0
  1  5  2  0
  2  3  2  0
  2  1  1  0
  3  4  1  0
  4  5  1  0
  4  6  1  0
  6  7  2  0
  7  8  1  0
  9  8  2  0
 10  9  1  0
 11  6  1  0
 11 10  2  0
 12 10  1  0
 13 12  1  0
 14 15  1  0
 14 13  2  0
 15 16  2  0
 16 12  1  0
 17 18  2  0
 18  1  1  0
 18 19  1  0
 20 19  2  0
 21 20  1  0
 22 17  1  0
 22 21  2  0
  2 23  1  0
  3 24  1  0
  7 25  1  0
  8 26  1  0
  9 27  1  0
 13 28  1  0
 14 29  1  0
 16 30  1  0
 17 31  1  0
 19 32  1  0
 21 33  1  0
M  ISO  8  23  14  24  14  25  14  26  14  27  14  28  14  29  14  30  14
M  ISO  3  31  14  32  14  33  14
M  END
>  <minimizedAffinity>  (1) 
-4.83672237

>  <minimizedRMSD>  (1) 
0.234517485

$$$$
