
     RDKit          3D

 42 45  0  0  0  0  0  0  0  0999 V2000
   41.6760   24.0860   35.4050 C   0  0  0  0  0  0  0  0  0  0  0  0
   42.1670   25.0150   34.5090 C   0  0  0  0  0  0  0  0  0  0  0  0
   43.3670   25.4090   35.0540 C   0  0  0  0  0  0  0  0  0  0  0  0
   43.6140   24.7620   36.2250 N   0  0  0  0  0  0  0  0  0  0  0  0
   42.5660   23.9890   36.3740 N   0  0  0  0  0  0  0  0  0  0  0  0
   40.1740   22.5420   34.1770 C   0  0  0  0  0  0  0  0  0  0  0  0
   40.4340   23.3860   35.2680 C   0  0  0  0  0  0  0  0  0  0  0  0
   39.4540   23.5350   36.2250 C   0  0  0  0  0  0  0  0  0  0  0  0
   38.2850   22.8560   36.0650 N   0  0  0  0  0  0  0  0  0  0  0  0
   38.0670   22.0460   34.9980 C   0  0  0  0  0  0  0  0  0  0  0  0
   39.0150   21.9030   34.0720 N   0  0  0  0  0  0  0  0  0  0  0  0
   44.7230   24.8730   37.0960 C   0  0  0  0  0  0  0  0  0  0  0  0
   44.7310   25.6070   38.2850 C   0  0  0  0  0  0  0  0  0  0  0  0
   45.9050   25.6260   39.0480 C   0  0  0  0  0  0  0  0  0  0  0  0
   47.0020   24.9260   38.6040 C   0  0  0  0  0  0  0  0  0  0  0  0
   46.9710   24.2060   37.4220 C   0  0  0  0  0  0  0  0  0  0  0  0
   45.8270   24.2010   36.7000 N   0  0  0  0  0  0  0  0  0  0  0  0
   48.1450   23.4410   36.9200 C   0  0  0  0  0  0  0  0  0  0  0  0
   49.0620   23.2360   38.1050 C   0  0  0  0  0  0  0  0  0  0  0  0
   50.3190   22.5000   37.7280 C   0  0  0  0  0  0  0  0  0  0  0  0
   50.0840   21.2910   36.8850 C   0  0  0  0  0  0  0  0  0  0  0  0
   48.9120   21.3300   35.9770 C   0  0  0  0  0  0  0  0  0  0  0  0
   47.7040   22.0490   36.5030 C   0  0  0  0  0  0  0  0  0  0  0  0
   41.7041   25.3610   33.5730 H   0  0  0  0  0  0  0  0  0  0  0  0
   44.0403   26.1517   34.6012 H   0  0  0  0  0  0  0  0  0  0  0  0
   40.9402   22.4083   33.3992 H   0  0  0  0  0  0  0  0  0  0  0  0
   39.6123   24.1866   37.0969 H   0  0  0  0  0  0  0  0  0  0  0  0
   37.1118   21.5097   34.8978 H   0  0  0  0  0  0  0  0  0  0  0  0
   43.8366   26.1566   38.6137 H   0  0  0  0  0  0  0  0  0  0  0  0
   45.9490   26.1931   39.9895 H   0  0  0  0  0  0  0  0  0  0  0  0
   47.9254   24.9384   39.2017 H   0  0  0  0  0  0  0  0  0  0  0  0
   48.6141   23.9750   36.0805 H   0  0  0  0  0  0  0  0  0  0  0  0
   49.3362   24.2190   38.5154 H   0  0  0  0  0  0  0  0  0  0  0  0
   48.5242   22.6289   38.8481 H   0  0  0  0  0  0  0  0  0  0  0  0
   50.9697   23.1896   37.1703 H   0  0  0  0  0  0  0  0  0  0  0  0
   50.7770   22.1508   38.6652 H   0  0  0  0  0  0  0  0  0  0  0  0
   50.9802   21.1368   36.2661 H   0  0  0  0  0  0  0  0  0  0  0  0
   49.8718   20.4792   37.5963 H   0  0  0  0  0  0  0  0  0  0  0  0
   48.6191   20.2924   35.7586 H   0  0  0  0  0  0  0  0  0  0  0  0
   49.2370   21.8977   35.0926 H   0  0  0  0  0  0  0  0  0  0  0  0
   46.9368   22.1179   35.7177 H   0  0  0  0  0  0  0  0  0  0  0  0
   47.2733   21.5073   37.3581 H   0  0  0  0  0  0  0  0  0  0  0  0
  1  5  2  0
  2  3  2  0
  2  1  1  0
  3  4  1  0
  4  5  1  0
  4 12  1  0
  6  7  2  0
  7  1  1  0
  7  8  1  0
  9  8  2  0
 10  9  1  0
 11  6  1  0
 11 10  2  0
 12 13  2  0
 13 14  1  0
 15 14  2  0
 16 15  1  0
 17 12  1  0
 17 16  2  0
 18 16  1  0
 18 19  1  0
 20 19  1  0
 21 20  1  0
 22 23  1  0
 22 21  1  0
 23 18  1  0
  2 24  1  0
  3 25  1  0
  6 26  1  0
  8 27  1  0
 10 28  1  0
 13 29  1  0
 14 30  1  0
 15 31  1  0
 18 32  1  0
 19 33  1  0
 19 34  1  0
 20 35  1  0
 20 36  1  0
 21 37  1  0
 21 38  1  0
 22 39  1  0
 22 40  1  0
 23 41  1  0
 23 42  1  0
M  ISO  8  24  14  25  14  26  14  27  14  28  14  29  14  30  14  31  14
M  ISO  8  32  13  33  13  34  13  35  13  36  13  37  13  38  13  39  13
M  ISO  3  40  13  41  13  42  13
M  END
>  <minimizedAffinity>  (1) 
-4.79935503

>  <minimizedRMSD>  (1) 
0.333966792

$$$$
