
     RDKit          3D

 36 39  0  0  0  0  0  0  0  0999 V2000
   44.6980   24.8680   37.1410 C   0  0  0  0  0  0  0  0  0  0  0  0
   44.7020   25.6760   38.2570 C   0  0  0  0  0  0  0  0  0  0  0  0
   45.8610   25.7090   39.0360 C   0  0  0  0  0  0  0  0  0  0  0  0
   46.9450   24.9470   38.6700 C   0  0  0  0  0  0  0  0  0  0  0  0
   46.9310   24.1440   37.5550 C   0  0  0  0  0  0  0  0  0  0  0  0
   45.7890   24.1150   36.7930 N   0  0  0  0  0  0  0  0  0  0  0  0
   48.0410   23.3100   37.1060 C   0  0  0  0  0  0  0  0  0  0  0  0
   49.3200   23.7590   37.3520 C   0  0  0  0  0  0  0  0  0  0  0  0
   50.4090   22.9850   36.9370 C   0  0  0  0  0  0  0  0  0  0  0  0
   50.2300   21.7660   36.2760 C   0  0  0  0  0  0  0  0  0  0  0  0
   48.9290   21.3600   36.0530 C   0  0  0  0  0  0  0  0  0  0  0  0
   47.8440   22.1110   36.4560 C   0  0  0  0  0  0  0  0  0  0  0  0
   41.6750   24.0470   35.4020 C   0  0  0  0  0  0  0  0  0  0  0  0
   42.2200   24.8600   34.4560 C   0  0  0  0  0  0  0  0  0  0  0  0
   43.4210   25.2610   35.0050 C   0  0  0  0  0  0  0  0  0  0  0  0
   43.6080   24.7160   36.2410 N   0  0  0  0  0  0  0  0  0  0  0  0
   42.5330   24.0020   36.4220 N   0  0  0  0  0  0  0  0  0  0  0  0
   40.1050   22.5440   34.2180 C   0  0  0  0  0  0  0  0  0  0  0  0
   40.4100   23.3660   35.3130 C   0  0  0  0  0  0  0  0  0  0  0  0
   39.4670   23.5030   36.3010 C   0  0  0  0  0  0  0  0  0  0  0  0
   38.2840   22.8330   36.1670 N   0  0  0  0  0  0  0  0  0  0  0  0
   38.0260   22.0550   35.1050 C   0  0  0  0  0  0  0  0  0  0  0  0
   38.9360   21.9070   34.1250 N   0  0  0  0  0  0  0  0  0  0  0  0
   43.8203   26.2762   38.5261 H   0  0  0  0  0  0  0  0  0  0  0  0
   45.9059   26.3402   39.9358 H   0  0  0  0  0  0  0  0  0  0  0  0
   47.8531   24.9812   39.2898 H   0  0  0  0  0  0  0  0  0  0  0  0
   49.4832   24.7160   37.8693 H   0  0  0  0  0  0  0  0  0  0  0  0
   51.4298   23.3438   37.1353 H   0  0  0  0  0  0  0  0  0  0  0  0
   51.0863   21.1581   35.9486 H   0  0  0  0  0  0  0  0  0  0  0  0
   48.7517   20.4052   35.5364 H   0  0  0  0  0  0  0  0  0  0  0  0
   46.8228   21.7530   36.2586 H   0  0  0  0  0  0  0  0  0  0  0  0
   41.7992   25.1346   33.4775 H   0  0  0  0  0  0  0  0  0  0  0  0
   44.1359   25.9341   34.5091 H   0  0  0  0  0  0  0  0  0  0  0  0
   40.8479   22.4214   33.4160 H   0  0  0  0  0  0  0  0  0  0  0  0
   39.6592   24.1368   37.1793 H   0  0  0  0  0  0  0  0  0  0  0  0
   37.0605   21.5327   35.0347 H   0  0  0  0  0  0  0  0  0  0  0  0
  1  2  2  0
  2  3  1  0
  4  3  2  0
  5  4  1  0
  6  1  1  0
  6  5  2  0
  7  8  2  0
  7  5  1  0
  9  8  1  0
 10  9  2  0
 11 10  1  0
 11 12  2  0
 12  7  1  0
 13 17  2  0
 14 15  2  0
 14 13  1  0
 15 16  1  0
 16 17  1  0
 16  1  1  0
 18 19  2  0
 19 13  1  0
 19 20  1  0
 21 20  2  0
 22 21  1  0
 23 18  1  0
 23 22  2  0
  2 24  1  0
  3 25  1  0
  4 26  1  0
  8 27  1  0
  9 28  1  0
 10 29  1  0
 11 30  1  0
 12 31  1  0
 14 32  1  0
 15 33  1  0
 18 34  1  0
 20 35  1  0
 22 36  1  0
M  ISO  8  24  14  25  14  26  14  27  14  28  14  29  14  30  14  31  14
M  ISO  5  32  14  33  14  34  14  35  14  36  14
M  END
>  <minimizedAffinity>  (1) 
-4.71470881

>  <minimizedRMSD>  (1) 
0.788547695

$$$$
