
     RDKit          3D

 35 37  0  0  0  0  0  0  0  0999 V2000
   41.6720   24.0320   35.4330 C   0  0  0  0  0  0  0  0  0  0  0  0
   42.1980   24.8870   34.4850 C   0  0  0  0  0  0  0  0  0  0  0  0
   43.4050   25.2860   35.0240 C   0  0  0  0  0  0  0  0  0  0  0  0
   43.6150   24.7070   36.2400 N   0  0  0  0  0  0  0  0  0  0  0  0
   42.5440   23.9720   36.4270 N   0  0  0  0  0  0  0  0  0  0  0  0
   40.1080   22.5340   34.2270 C   0  0  0  0  0  0  0  0  0  0  0  0
   40.4050   23.3500   35.3250 C   0  0  0  0  0  0  0  0  0  0  0  0
   39.4570   23.4920   36.3090 C   0  0  0  0  0  0  0  0  0  0  0  0
   38.2780   22.8270   36.1590 N   0  0  0  0  0  0  0  0  0  0  0  0
   38.0220   22.0520   35.0950 C   0  0  0  0  0  0  0  0  0  0  0  0
   38.9320   21.9110   34.1410 N   0  0  0  0  0  0  0  0  0  0  0  0
   44.7130   24.8430   37.1220 C   0  0  0  0  0  0  0  0  0  0  0  0
   44.7110   25.6210   38.2730 C   0  0  0  0  0  0  0  0  0  0  0  0
   45.8840   25.6480   39.0410 C   0  0  0  0  0  0  0  0  0  0  0  0
   46.9850   24.9070   38.6290 C   0  0  0  0  0  0  0  0  0  0  0  0
   46.9570   24.1450   37.4840 C   0  0  0  0  0  0  0  0  0  0  0  0
   45.8120   24.1200   36.7350 N   0  0  0  0  0  0  0  0  0  0  0  0
   48.1290   23.3700   37.0650 C   0  0  0  0  0  0  0  0  0  0  0  0
   47.8310   22.0220   36.4930 C   0  0  0  0  0  0  0  0  0  0  0  0
   49.1630   23.2270   38.1640 C   0  0  0  0  0  0  0  0  0  0  0  0
   41.7568   25.1824   33.5216 H   0  0  0  0  0  0  0  0  0  0  0  0
   44.1052   25.9800   34.5361 H   0  0  0  0  0  0  0  0  0  0  0  0
   40.8521   22.4054   33.4271 H   0  0  0  0  0  0  0  0  0  0  0  0
   39.6443   24.1230   37.1904 H   0  0  0  0  0  0  0  0  0  0  0  0
   37.0558   21.5326   35.0135 H   0  0  0  0  0  0  0  0  0  0  0  0
   43.8214   26.1951   38.5712 H   0  0  0  0  0  0  0  0  0  0  0  0
   45.9321   26.2498   39.9605 H   0  0  0  0  0  0  0  0  0  0  0  0
   47.9031   24.9304   39.2344 H   0  0  0  0  0  0  0  0  0  0  0  0
   48.5412   23.9792   36.2471 H   0  0  0  0  0  0  0  0  0  0  0  0
   47.6722   21.3036   37.3108 H   0  0  0  0  0  0  0  0  0  0  0  0
   46.9238   22.0789   35.8736 H   0  0  0  0  0  0  0  0  0  0  0  0
   48.6777   21.6912   35.8736 H   0  0  0  0  0  0  0  0  0  0  0  0
   48.6683   23.2954   39.1441 H   0  0  0  0  0  0  0  0  0  0  0  0
   49.6625   22.2512   38.0727 H   0  0  0  0  0  0  0  0  0  0  0  0
   49.9086   24.0306   38.0727 H   0  0  0  0  0  0  0  0  0  0  0  0
  1  5  2  0
  2  3  2  0
  2  1  1  0
  3  4  1  0
  4  5  1  0
  4 12  1  0
  6  7  2  0
  7  1  1  0
  7  8  1  0
  9  8  2  0
 10  9  1  0
 11  6  1  0
 11 10  2  0
 12 13  2  0
 13 14  1  0
 15 14  2  0
 16 15  1  0
 17 12  1  0
 17 16  2  0
 18 16  1  0
 18 20  1  0
 19 18  1  0
  2 21  1  0
  3 22  1  0
  6 23  1  0
  8 24  1  0
 10 25  1  0
 13 26  1  0
 14 27  1  0
 15 28  1  0
 18 29  1  0
 19 30  1  0
 19 31  1  0
 19 32  1  0
 20 33  1  0
 20 34  1  0
 20 35  1  0
M  ISO  8  21  14  22  14  23  14  24  14  25  14  26  14  27  14  28  14
M  ISO  7  29   8  30   8  31   8  32   8  33   8  34   8  35   8
M  END
>  <minimizedAffinity>  (1) 
-4.68179464

>  <minimizedRMSD>  (1) 
0.290045261

$$$$
