
     RDKit          3D

 35 38  0  0  0  0  0  0  0  0999 V2000
   41.6740   24.0370   35.4260 C   0  0  0  0  0  0  0  0  0  0  0  0
   42.1970   24.8790   34.4820 C   0  0  0  0  0  0  0  0  0  0  0  0
   43.4000   25.2810   35.0210 C   0  0  0  0  0  0  0  0  0  0  0  0
   43.6070   24.7110   36.2410 N   0  0  0  0  0  0  0  0  0  0  0  0
   42.5450   23.9800   36.4290 N   0  0  0  0  0  0  0  0  0  0  0  0
   40.1050   22.5370   34.2220 C   0  0  0  0  0  0  0  0  0  0  0  0
   40.4140   23.3560   35.3180 C   0  0  0  0  0  0  0  0  0  0  0  0
   39.4620   23.4980   36.3130 C   0  0  0  0  0  0  0  0  0  0  0  0
   38.2830   22.8370   36.1710 N   0  0  0  0  0  0  0  0  0  0  0  0
   38.0180   22.0520   35.0990 C   0  0  0  0  0  0  0  0  0  0  0  0
   38.9320   21.9090   34.1310 N   0  0  0  0  0  0  0  0  0  0  0  0
   44.7080   24.8530   37.1320 C   0  0  0  0  0  0  0  0  0  0  0  0
   44.7200   25.6380   38.2650 C   0  0  0  0  0  0  0  0  0  0  0  0
   45.8880   25.6620   39.0280 C   0  0  0  0  0  0  0  0  0  0  0  0
   46.9730   24.9120   38.6300 C   0  0  0  0  0  0  0  0  0  0  0  0
   46.9490   24.1330   37.4980 C   0  0  0  0  0  0  0  0  0  0  0  0
   45.8090   24.1230   36.7700 N   0  0  0  0  0  0  0  0  0  0  0  0
   48.0590   23.3160   37.0160 C   0  0  0  0  0  0  0  0  0  0  0  0
   47.8890   22.0410   36.5280 C   0  0  0  0  0  0  0  0  0  0  0  0
   48.8960   21.2370   36.0660 C   0  0  0  0  0  0  0  0  0  0  0  0
   50.1910   21.7130   36.0790 C   0  0  0  0  0  0  0  0  0  0  0  0
   50.3470   22.9940   36.5720 C   0  0  0  0  0  0  0  0  0  0  0  0
   49.3290   23.7510   37.0160 N   0  0  0  0  0  0  0  0  0  0  0  0
   41.7582   25.1682   33.5157 H   0  0  0  0  0  0  0  0  0  0  0  0
   44.1014   25.9718   34.5303 H   0  0  0  0  0  0  0  0  0  0  0  0
   40.8467   22.4099   33.4197 H   0  0  0  0  0  0  0  0  0  0  0  0
   39.6544   24.1282   37.1938 H   0  0  0  0  0  0  0  0  0  0  0  0
   37.0516   21.5319   35.0239 H   0  0  0  0  0  0  0  0  0  0  0  0
   43.8378   26.2262   38.5580 H   0  0  0  0  0  0  0  0  0  0  0  0
   45.9421   26.2748   39.9399 H   0  0  0  0  0  0  0  0  0  0  0  0
   47.8890   24.9375   39.2385 H   0  0  0  0  0  0  0  0  0  0  0  0
   46.8661   21.6369   36.5075 H   0  0  0  0  0  0  0  0  0  0  0  0
   48.6761   20.2269   35.6901 H   0  0  0  0  0  0  0  0  0  0  0  0
   51.0411   21.1135   35.7213 H   0  0  0  0  0  0  0  0  0  0  0  0
   51.3614   23.4183   36.6029 H   0  0  0  0  0  0  0  0  0  0  0  0
  1  5  2  0
  2  3  2  0
  2  1  1  0
  3  4  1  0
  4  5  1  0
  4 12  1  0
  6  7  2  0
  7  1  1  0
  7  8  1  0
  9  8  2  0
 10  9  1  0
 11  6  1  0
 11 10  2  0
 12 13  2  0
 13 14  1  0
 15 14  2  0
 16 15  1  0
 17 12  1  0
 17 16  2  0
 18 16  1  0
 19 18  2  0
 20 21  2  0
 20 19  1  0
 21 22  1  0
 22 23  2  0
 23 18  1  0
  2 24  1  0
  3 25  1  0
  6 26  1  0
  8 27  1  0
 10 28  1  0
 13 29  1  0
 14 30  1  0
 15 31  1  0
 19 32  1  0
 20 33  1  0
 21 34  1  0
 22 35  1  0
M  ISO  8  24  14  25  14  26  14  27  14  28  14  29  14  30  14  31  14
M  ISO  4  32  14  33  14  34  14  35  14
M  END
>  <minimizedAffinity>  (1) 
-4.66425896

>  <minimizedRMSD>  (1) 
0.448914826

$$$$
