
     RDKit          3D

 33 36  0  0  0  0  0  0  0  0999 V2000
   41.6920   24.0360   35.4180 C   0  0  0  0  0  0  0  0  0  0  0  0
   42.2210   24.8710   34.4760 C   0  0  0  0  0  0  0  0  0  0  0  0
   43.4260   25.2750   35.0200 C   0  0  0  0  0  0  0  0  0  0  0  0
   43.6180   24.7070   36.2420 N   0  0  0  0  0  0  0  0  0  0  0  0
   42.5530   23.9770   36.4320 N   0  0  0  0  0  0  0  0  0  0  0  0
   40.1190   22.5330   34.2060 C   0  0  0  0  0  0  0  0  0  0  0  0
   40.4220   23.3500   35.3090 C   0  0  0  0  0  0  0  0  0  0  0  0
   39.4800   23.5010   36.3140 C   0  0  0  0  0  0  0  0  0  0  0  0
   38.2910   22.8360   36.1740 N   0  0  0  0  0  0  0  0  0  0  0  0
   38.0280   22.0620   35.1090 C   0  0  0  0  0  0  0  0  0  0  0  0
   38.9320   21.9160   34.1420 N   0  0  0  0  0  0  0  0  0  0  0  0
   44.7150   24.8520   37.1390 C   0  0  0  0  0  0  0  0  0  0  0  0
   44.7190   25.6380   38.2780 C   0  0  0  0  0  0  0  0  0  0  0  0
   45.8890   25.6570   39.0390 C   0  0  0  0  0  0  0  0  0  0  0  0
   46.9820   24.9160   38.6540 C   0  0  0  0  0  0  0  0  0  0  0  0
   46.9520   24.1430   37.5190 C   0  0  0  0  0  0  0  0  0  0  0  0
   45.8150   24.1270   36.7830 N   0  0  0  0  0  0  0  0  0  0  0  0
   48.0870   23.3420   37.0750 C   0  0  0  0  0  0  0  0  0  0  0  0
   48.0000   22.0700   36.5330 C   0  0  0  0  0  0  0  0  0  0  0  0
   49.2790   21.6230   36.2300 C   0  0  0  0  0  0  0  0  0  0  0  0
   50.1110   22.6150   36.5870 N   0  0  0  0  0  0  0  0  0  0  0  0
   49.3990   23.5990   37.0730 N   0  0  0  0  0  0  0  0  0  0  0  0
   41.7876   25.1568   33.5062 H   0  0  0  0  0  0  0  0  0  0  0  0
   44.1332   25.9618   34.5319 H   0  0  0  0  0  0  0  0  0  0  0  0
   40.8541   22.4009   33.3984 H   0  0  0  0  0  0  0  0  0  0  0  0
   39.6800   24.1322   37.1924 H   0  0  0  0  0  0  0  0  0  0  0  0
   37.0598   21.5452   35.0347 H   0  0  0  0  0  0  0  0  0  0  0  0
   43.8358   26.2242   38.5718 H   0  0  0  0  0  0  0  0  0  0  0  0
   45.9372   26.2683   39.9522 H   0  0  0  0  0  0  0  0  0  0  0  0
   47.8959   24.9429   39.2656 H   0  0  0  0  0  0  0  0  0  0  0  0
   47.0696   21.5064   36.3695 H   0  0  0  0  0  0  0  0  0  0  0  0
   49.5546   20.6542   35.7878 H   0  0  0  0  0  0  0  0  0  0  0  0
   51.1367   22.6031   36.4939 H   0  0  0  0  0  0  0  0  0  0  0  0
  1  5  2  0
  2  3  2  0
  2  1  1  0
  3  4  1  0
  4  5  1  0
  4 12  1  0
  6  7  2  0
  7  1  1  0
  7  8  1  0
  9  8  2  0
 10  9  1  0
 11  6  1  0
 11 10  2  0
 12 13  2  0
 13 14  1  0
 15 14  2  0
 16 15  1  0
 17 12  1  0
 17 16  2  0
 18 16  1  0
 19 18  1  0
 20 19  2  0
 20 21  1  0
 21 22  1  0
 22 18  2  0
  2 23  1  0
  3 24  1  0
  6 25  1  0
  8 26  1  0
 10 27  1  0
 13 28  1  0
 14 29  1  0
 15 30  1  0
 19 31  1  0
 20 32  1  0
 21 33  1  0
M  ISO  8  23  14  24  14  25  14  26  14  27  14  28  14  29  14  30  14
M  ISO  3  31  14  32  14  33   9
M  END
>  <minimizedAffinity>  (1) 
-4.62479448

>  <minimizedRMSD>  (1) 
0.307622164

$$$$
