
     RDKit          3D

 27 29  0  0  0  0  0  0  0  0999 V2000
   41.6530   24.0460   35.4150 C   0  0  0  0  0  0  0  0  0  0  0  0
   42.1630   24.9130   34.4950 C   0  0  0  0  0  0  0  0  0  0  0  0
   43.3740   25.3040   35.0200 C   0  0  0  0  0  0  0  0  0  0  0  0
   43.6010   24.7000   36.2210 N   0  0  0  0  0  0  0  0  0  0  0  0
   42.5410   23.9640   36.4000 N   0  0  0  0  0  0  0  0  0  0  0  0
   40.0830   22.5380   34.2260 C   0  0  0  0  0  0  0  0  0  0  0  0
   40.3960   23.3650   35.3170 C   0  0  0  0  0  0  0  0  0  0  0  0
   39.4440   23.5120   36.3200 C   0  0  0  0  0  0  0  0  0  0  0  0
   38.2630   22.8420   36.1760 N   0  0  0  0  0  0  0  0  0  0  0  0
   37.9970   22.0510   35.1070 C   0  0  0  0  0  0  0  0  0  0  0  0
   38.9180   21.9090   34.1380 N   0  0  0  0  0  0  0  0  0  0  0  0
   44.7130   24.8190   37.0920 C   0  0  0  0  0  0  0  0  0  0  0  0
   44.7450   25.5970   38.2410 C   0  0  0  0  0  0  0  0  0  0  0  0
   45.9040   25.6250   39.0090 C   0  0  0  0  0  0  0  0  0  0  0  0
   46.9870   24.8760   38.6000 C   0  0  0  0  0  0  0  0  0  0  0  0
   46.9500   24.0980   37.4440 C   0  0  0  0  0  0  0  0  0  0  0  0
   45.7930   24.0980   36.7180 N   0  0  0  0  0  0  0  0  0  0  0  0
   48.0270   23.3360   37.0120 O   0  0  0  0  0  0  0  0  0  0  0  0
   41.7082   25.2296   33.5448 H   0  0  0  0  0  0  0  0  0  0  0  0
   44.0656   26.0090   34.5356 H   0  0  0  0  0  0  0  0  0  0  0  0
   40.8234   22.4082   33.4229 H   0  0  0  0  0  0  0  0  0  0  0  0
   39.6356   24.1457   37.1984 H   0  0  0  0  0  0  0  0  0  0  0  0
   37.0321   21.5280   35.0331 H   0  0  0  0  0  0  0  0  0  0  0  0
   43.8644   26.1842   38.5404 H   0  0  0  0  0  0  0  0  0  0  0  0
   45.9557   26.2326   39.9245 H   0  0  0  0  0  0  0  0  0  0  0  0
   47.9066   24.8929   39.2033 H   0  0  0  0  0  0  0  0  0  0  0  0
   47.9528   22.7990   36.1836 H   0  0  0  0  0  0  0  0  0  0  0  0
  1  5  2  0
  2  3  2  0
  2  1  1  0
  3  4  1  0
  4  5  1  0
  4 12  1  0
  6  7  2  0
  7  1  1  0
  7  8  1  0
  9  8  2  0
 10  9  1  0
 11  6  1  0
 11 10  2  0
 12 13  2  0
 13 14  1  0
 15 14  2  0
 16 15  1  0
 17 12  1  0
 17 16  2  0
 18 16  1  0
  2 19  1  0
  3 20  1  0
  6 21  1  0
  8 22  1  0
 10 23  1  0
 13 24  1  0
 14 25  1  0
 15 26  1  0
 18 27  1  0
M  ISO  8  19  14  20  14  21  14  22  14  23  14  24  14  25  14  26  14
M  ISO  1  27   3
M  END
>  <minimizedAffinity>  (1) 
-4.56089449

>  <minimizedRMSD>  (1) 
0.120855175

$$$$
