
     RDKit          3D

 29 31  0  0  0  0  0  0  0  0999 V2000
   41.6540   24.0750   35.4160 C   0  0  0  0  0  0  0  0  0  0  0  0
   42.1500   24.9890   34.5180 C   0  0  0  0  0  0  0  0  0  0  0  0
   43.3530   25.3850   35.0530 C   0  0  0  0  0  0  0  0  0  0  0  0
   43.5980   24.7550   36.2170 N   0  0  0  0  0  0  0  0  0  0  0  0
   42.5430   23.9790   36.3870 N   0  0  0  0  0  0  0  0  0  0  0  0
   40.1280   22.5530   34.2040 C   0  0  0  0  0  0  0  0  0  0  0  0
   40.4050   23.3770   35.2890 C   0  0  0  0  0  0  0  0  0  0  0  0
   39.4420   23.5210   36.2690 C   0  0  0  0  0  0  0  0  0  0  0  0
   38.2660   22.8390   36.1110 N   0  0  0  0  0  0  0  0  0  0  0  0
   38.0280   22.0450   35.0420 C   0  0  0  0  0  0  0  0  0  0  0  0
   38.9600   21.9150   34.1070 N   0  0  0  0  0  0  0  0  0  0  0  0
   44.7140   24.8590   37.1020 C   0  0  0  0  0  0  0  0  0  0  0  0
   44.7440   25.6310   38.2560 C   0  0  0  0  0  0  0  0  0  0  0  0
   45.9080   25.6360   39.0260 C   0  0  0  0  0  0  0  0  0  0  0  0
   46.9890   24.8640   38.6000 C   0  0  0  0  0  0  0  0  0  0  0  0
   46.9290   24.1120   37.4510 C   0  0  0  0  0  0  0  0  0  0  0  0
   45.7950   24.1140   36.7120 N   0  0  0  0  0  0  0  0  0  0  0  0
   48.1020   23.3320   37.0700 C   0  0  0  0  0  0  0  0  0  0  0  0
   47.9030   22.1390   36.7240 O   0  0  0  0  0  0  0  0  0  0  0  0
   49.3830   23.8630   37.0840 O   0  0  0  0  0  0  0  0  0  0  0  0
   41.6874   25.3285   33.5795 H   0  0  0  0  0  0  0  0  0  0  0  0
   44.0273   26.1207   34.5902 H   0  0  0  0  0  0  0  0  0  0  0  0
   40.8827   22.4251   33.4140 H   0  0  0  0  0  0  0  0  0  0  0  0
   39.6145   24.1618   37.1462 H   0  0  0  0  0  0  0  0  0  0  0  0
   37.0703   21.5120   34.9489 H   0  0  0  0  0  0  0  0  0  0  0  0
   43.8690   26.2259   38.5568 H   0  0  0  0  0  0  0  0  0  0  0  0
   45.9715   26.2344   39.9468 H   0  0  0  0  0  0  0  0  0  0  0  0
   47.9120   24.8569   39.1983 H   0  0  0  0  0  0  0  0  0  0  0  0
   50.1543   23.3020   36.8185 H   0  0  0  0  0  0  0  0  0  0  0  0
  1  5  2  0
  2  3  2  0
  2  1  1  0
  3  4  1  0
  4  5  1  0
  4 12  1  0
  6  7  2  0
  7  1  1  0
  7  8  1  0
  9  8  2  0
 10  9  1  0
 11  6  1  0
 11 10  2  0
 12 13  2  0
 13 14  1  0
 15 14  2  0
 16 15  1  0
 17 12  1  0
 17 16  2  0
 18 20  1  0
 18 16  1  0
 19 18  2  0
  2 21  1  0
  3 22  1  0
  6 23  1  0
  8 24  1  0
 10 25  1  0
 13 26  1  0
 14 27  1  0
 15 28  1  0
 20 29  1  0
M  ISO  8  21  14  22  14  23  14  24  14  25  14  26  14  27  14  28  14
M  ISO  1  29   3
M  END
>  <minimizedAffinity>  (1) 
-4.5423193

>  <minimizedRMSD>  (1) 
0.233791053

$$$$
