
     RDKit          3D

 28 30  0  0  0  0  0  0  0  0999 V2000
   42.3920   21.2440   36.9960 C   0  0  0  0  0  0  0  0  0  0  0  0
   41.3140   22.1130   37.2230 C   0  0  0  0  0  0  0  0  0  0  0  0
   40.5210   22.4830   36.1450 C   0  0  0  0  0  0  0  0  0  0  0  0
   40.8320   21.9840   34.9270 N   0  0  0  0  0  0  0  0  0  0  0  0
   41.8750   21.1470   34.7190 C   0  0  0  0  0  0  0  0  0  0  0  0
   42.6570   20.7790   35.7740 N   0  0  0  0  0  0  0  0  0  0  0  0
   39.4080   23.3620   36.2990 N   0  0  0  0  0  0  0  0  0  0  0  0
   38.2950   22.9550   36.9480 C   0  0  0  0  0  0  0  0  0  0  0  0
   37.4380   24.0150   36.9190 C   0  0  0  0  0  0  0  0  0  0  0  0
   38.0270   25.0340   36.2660 N   0  0  0  0  0  0  0  0  0  0  0  0
   39.2610   24.6210   35.8790 C   0  0  0  0  0  0  0  0  0  0  0  0
   40.2350   25.3810   35.1570 N   0  0  0  0  0  0  0  0  0  0  0  0
   41.3600   24.8050   34.6870 C   0  0  0  0  0  0  0  0  0  0  0  0
   42.2630   25.5930   33.9950 C   0  0  0  0  0  0  0  0  0  0  0  0
   41.9760   26.9320   33.8150 C   0  0  0  0  0  0  0  0  0  0  0  0
   42.8670   27.7930   33.1120 N   0  0  0  0  0  0  0  0  0  0  0  0
   40.8310   27.4260   34.3160 N   0  0  0  0  0  0  0  0  0  0  0  0
   39.9260   26.6990   34.9930 C   0  0  0  0  0  0  0  0  0  0  0  0
   38.8620   27.1860   35.4520 O   0  0  0  0  0  0  0  0  0  0  0  0
   43.0293   20.9411   37.8398 H   0  0  0  0  0  0  0  0  0  0  0  0
   41.1017   22.4929   38.2332 H   0  0  0  0  0  0  0  0  0  0  0  0
   42.0898   20.7674   33.7092 H   0  0  0  0  0  0  0  0  0  0  0  0
   38.1169   21.9707   37.4057 H   0  0  0  0  0  0  0  0  0  0  0  0
   36.4295   24.0343   37.3578 H   0  0  0  0  0  0  0  0  0  0  0  0
   41.5552   23.7348   34.8497 H   0  0  0  0  0  0  0  0  0  0  0  0
   43.1924   25.1608   33.5956 H   0  0  0  0  0  0  0  0  0  0  0  0
   42.6322   28.7884   32.9899 H   0  0  0  0  0  0  0  0  0  0  0  0
   43.7460   27.4201   32.7258 H   0  0  0  0  0  0  0  0  0  0  0  0
  1  2  2  0
  3  7  1  0
  3  2  1  0
  4  3  2  0
  5  4  1  0
  5  6  2  0
  6  1  1  0
  7  8  1  0
  9  8  2  0
 10  9  1  0
 11 10  2  0
 11  7  1  0
 12 11  1  0
 13 12  1  0
 14 13  2  0
 15 14  1  0
 15 17  2  0
 16 15  1  0
 17 18  1  0
 18 12  1  0
 18 19  2  0
  1 20  1  0
  2 21  1  0
  5 22  1  0
  8 23  1  0
  9 24  1  0
 13 25  1  0
 14 26  1  0
 16 27  1  0
 16 28  1  0
M  ISO  7  20  14  21  14  22  14  23  14  24  14  25  14  26  14
M  END
>  <minimizedAffinity>  (1) 
-4.87543249

>  <minimizedRMSD>  (1) 
1.15038407

$$$$
