
     RDKit          3D

 27 29  0  0  0  0  0  0  0  0999 V2000
   42.3710   21.2420   37.0270 C   0  0  0  0  0  0  0  0  0  0  0  0
   41.2840   22.1180   37.2570 C   0  0  0  0  0  0  0  0  0  0  0  0
   40.5230   22.4600   36.1530 C   0  0  0  0  0  0  0  0  0  0  0  0
   40.8400   21.9550   34.9230 N   0  0  0  0  0  0  0  0  0  0  0  0
   41.8920   21.1210   34.7610 C   0  0  0  0  0  0  0  0  0  0  0  0
   42.6520   20.7690   35.8160 N   0  0  0  0  0  0  0  0  0  0  0  0
   39.3960   23.3420   36.2740 N   0  0  0  0  0  0  0  0  0  0  0  0
   38.2680   22.9280   36.9090 C   0  0  0  0  0  0  0  0  0  0  0  0
   37.4190   24.0050   36.8370 C   0  0  0  0  0  0  0  0  0  0  0  0
   38.0140   25.0170   36.1890 N   0  0  0  0  0  0  0  0  0  0  0  0
   39.2610   24.6080   35.8300 C   0  0  0  0  0  0  0  0  0  0  0  0
   40.3320   25.2480   35.1300 N   0  0  0  0  0  0  0  0  0  0  0  0
   41.3420   24.5470   34.6080 C   0  0  0  0  0  0  0  0  0  0  0  0
   42.3250   25.2540   33.9540 C   0  0  0  0  0  0  0  0  0  0  0  0
   42.2840   26.6370   33.8300 C   0  0  0  0  0  0  0  0  0  0  0  0
   43.1430   27.3450   33.2480 O   0  0  0  0  0  0  0  0  0  0  0  0
   41.2140   27.2370   34.3970 N   0  0  0  0  0  0  0  0  0  0  0  0
   40.2270   26.6000   35.0480 C   0  0  0  0  0  0  0  0  0  0  0  0
   39.2640   27.2490   35.5460 O   0  0  0  0  0  0  0  0  0  0  0  0
   43.0033   20.9429   37.8760 H   0  0  0  0  0  0  0  0  0  0  0  0
   41.0559   22.5067   38.2604 H   0  0  0  0  0  0  0  0  0  0  0  0
   42.1286   20.7275   33.7614 H   0  0  0  0  0  0  0  0  0  0  0  0
   38.0778   21.9502   37.3757 H   0  0  0  0  0  0  0  0  0  0  0  0
   36.4000   24.0334   37.2504 H   0  0  0  0  0  0  0  0  0  0  0  0
   41.3862   23.4515   34.6970 H   0  0  0  0  0  0  0  0  0  0  0  0
   43.1714   24.7057   33.5148 H   0  0  0  0  0  0  0  0  0  0  0  0
   41.1505   28.2625   34.3242 H   0  0  0  0  0  0  0  0  0  0  0  0
  1  2  2  0
  3  7  1  0
  3  2  1  0
  4  3  2  0
  5  4  1  0
  5  6  2  0
  6  1  1  0
  7  8  1  0
  9  8  2  0
 10  9  1  0
 11 10  2  0
 11  7  1  0
 12 11  1  0
 13 12  1  0
 14 13  2  0
 15 14  1  0
 15 17  1  0
 16 15  2  0
 17 18  1  0
 18 12  1  0
 18 19  2  0
  1 20  1  0
  2 21  1  0
  5 22  1  0
  8 23  1  0
  9 24  1  0
 13 25  1  0
 14 26  1  0
 17 27  1  0
M  ISO  8  20  14  21  14  22  14  23  14  24  14  25  14  26  14  27   9
M  END
>  <minimizedAffinity>  (1) 
-4.77892113

>  <minimizedRMSD>  (1) 
1.1005367

$$$$
