
     RDKit          3D

 33 35  0  0  0  0  0  0  0  0999 V2000
   43.1710   22.5360   35.9520 C   0  0  0  0  0  0  0  0  0  0  0  0
   42.0950   23.1100   36.6490 C   0  0  0  0  0  0  0  0  0  0  0  0
   40.8150   22.8710   36.1500 C   0  0  0  0  0  0  0  0  0  0  0  0
   40.7000   22.1120   35.0440 N   0  0  0  0  0  0  0  0  0  0  0  0
   41.7330   21.5680   34.3840 C   0  0  0  0  0  0  0  0  0  0  0  0
   42.9780   21.7870   34.8490 N   0  0  0  0  0  0  0  0  0  0  0  0
   39.6560   23.4140   36.7830 N   0  0  0  0  0  0  0  0  0  0  0  0
   39.2520   22.9720   37.9750 C   0  0  0  0  0  0  0  0  0  0  0  0
   38.1320   23.7020   38.2770 C   0  0  0  0  0  0  0  0  0  0  0  0
   37.8780   24.5700   37.2660 N   0  0  0  0  0  0  0  0  0  0  0  0
   38.8340   24.3910   36.3280 C   0  0  0  0  0  0  0  0  0  0  0  0
   38.9520   25.1250   35.0520 C   0  0  0  0  0  0  0  0  0  0  0  0
   39.3550   26.5610   35.3310 C   0  0  0  0  0  0  0  0  0  0  0  0
   38.1750   27.4090   35.7300 C   0  0  0  0  0  0  0  0  0  0  0  0
   37.3710   27.6770   34.4710 C   0  0  0  0  0  0  0  0  0  0  0  0
   37.5640   26.5020   33.5510 C   0  0  0  0  0  0  0  0  0  0  0  0
   37.6520   25.1840   34.2880 C   0  0  0  0  0  0  0  0  0  0  0  0
   44.1958   22.7021   36.3155 H   0  0  0  0  0  0  0  0  0  0  0  0
   42.2551   23.7214   37.5493 H   0  0  0  0  0  0  0  0  0  0  0  0
   41.5674   20.9574   33.4842 H   0  0  0  0  0  0  0  0  0  0  0  0
   39.7195   22.1866   38.5870 H   0  0  0  0  0  0  0  0  0  0  0  0
   37.5336   23.6001   39.1943 H   0  0  0  0  0  0  0  0  0  0  0  0
   39.6996   24.5846   34.4528 H   0  0  0  0  0  0  0  0  0  0  0  0
   40.0923   26.5711   36.1473 H   0  0  0  0  0  0  0  0  0  0  0  0
   39.7797   26.9812   34.4074 H   0  0  0  0  0  0  0  0  0  0  0  0
   37.5569   26.8731   36.4653 H   0  0  0  0  0  0  0  0  0  0  0  0
   38.5080   28.3513   36.1895 H   0  0  0  0  0  0  0  0  0  0  0  0
   36.3056   27.7861   34.7221 H   0  0  0  0  0  0  0  0  0  0  0  0
   37.7072   28.6062   33.9877 H   0  0  0  0  0  0  0  0  0  0  0  0
   38.4950   26.6497   32.9840 H   0  0  0  0  0  0  0  0  0  0  0  0
   36.6854   26.4525   32.8909 H   0  0  0  0  0  0  0  0  0  0  0  0
   36.8093   25.0986   34.9898 H   0  0  0  0  0  0  0  0  0  0  0  0
   37.6111   24.3550   33.5661 H   0  0  0  0  0  0  0  0  0  0  0  0
  1  2  2  0
  3  2  1  0
  3  7  1  0
  4  3  2  0
  5  6  2  0
  5  4  1  0
  6  1  1  0
  7  8  1  0
  8  9  2  0
 10  9  1  0
 11  7  1  0
 11 10  2  0
 12 13  1  0
 12 11  1  0
 13 14  1  0
 15 14  1  0
 16 17  1  0
 16 15  1  0
 17 12  1  0
  1 18  1  0
  2 19  1  0
  5 20  1  0
  8 21  1  0
  9 22  1  0
 12 23  1  0
 13 24  1  0
 13 25  1  0
 14 26  1  0
 14 27  1  0
 15 28  1  0
 15 29  1  0
 16 30  1  0
 16 31  1  0
 17 32  1  0
 17 33  1  0
M  ISO  8  18  14  19  14  20  14  21  14  22  14  23  13  24  13  25  13
M  ISO  8  26  13  27  13  28  13  29  13  30  13  31  13  32  13  33  13
M  END
>  <minimizedAffinity>  (1) 
-4.75160265

>  <minimizedRMSD>  (1) 
2.92815924

$$$$
