
     RDKit          3D

 30 32  0  0  0  0  0  0  0  0999 V2000
   37.8820   23.4020   38.3810 C   0  0  0  0  0  0  0  0  0  0  0  0
   37.3940   23.2600   37.0590 C   0  0  0  0  0  0  0  0  0  0  0  0
   38.3310   22.8850   36.0810 C   0  0  0  0  0  0  0  0  0  0  0  0
   39.6030   22.6920   36.4720 N   0  0  0  0  0  0  0  0  0  0  0  0
   40.0390   22.8340   37.7400 C   0  0  0  0  0  0  0  0  0  0  0  0
   39.1590   23.1930   38.6950 N   0  0  0  0  0  0  0  0  0  0  0  0
   37.9410   22.7180   34.7200 N   0  0  0  0  0  0  0  0  0  0  0  0
   37.1500   21.6880   34.3560 C   0  0  0  0  0  0  0  0  0  0  0  0
   36.9860   21.8370   33.0030 C   0  0  0  0  0  0  0  0  0  0  0  0
   37.6590   22.9190   32.5840 N   0  0  0  0  0  0  0  0  0  0  0  0
   38.2610   23.4750   33.6630 C   0  0  0  0  0  0  0  0  0  0  0  0
   39.0650   24.6340   33.6430 N   0  0  0  0  0  0  0  0  0  0  0  0
   39.3320   25.6920   32.6860 C   0  0  0  0  0  0  0  0  0  0  0  0
   38.7230   26.9270   33.3570 C   0  0  0  0  0  0  0  0  0  0  0  0
   39.5690   27.2840   34.3580 O   0  0  0  0  0  0  0  0  0  0  0  0
   40.3000   26.3170   34.9730 C   0  0  0  0  0  0  0  0  0  0  0  0
   39.8500   24.9080   34.8560 C   0  0  0  0  0  0  0  0  0  0  0  0
   37.1812   23.6953   39.1765 H   0  0  0  0  0  0  0  0  0  0  0  0
   36.3366   23.4342   36.8107 H   0  0  0  0  0  0  0  0  0  0  0  0
   41.0958   22.6596   37.9906 H   0  0  0  0  0  0  0  0  0  0  0  0
   36.7297   20.9027   35.0014 H   0  0  0  0  0  0  0  0  0  0  0  0
   36.3929   21.1708   32.3592 H   0  0  0  0  0  0  0  0  0  0  0  0
   38.8443   25.4852   31.7220 H   0  0  0  0  0  0  0  0  0  0  0  0
   40.4013   25.8075   32.4554 H   0  0  0  0  0  0  0  0  0  0  0  0
   38.6294   27.7465   32.6293 H   0  0  0  0  0  0  0  0  0  0  0  0
   37.7175   26.7103   33.7469 H   0  0  0  0  0  0  0  0  0  0  0  0
   41.3185   26.3680   34.5606 H   0  0  0  0  0  0  0  0  0  0  0  0
   40.1997   26.5439   36.0447 H   0  0  0  0  0  0  0  0  0  0  0  0
   39.2295   24.6683   35.7321 H   0  0  0  0  0  0  0  0  0  0  0  0
   40.7557   24.2864   34.7985 H   0  0  0  0  0  0  0  0  0  0  0  0
  1  6  2  0
  2  1  1  0
  3  4  1  0
  3  2  2  0
  4  5  2  0
  5  6  1  0
  7  3  1  0
  8  7  1  0
  9  8  2  0
 10  9  1  0
 10 11  2  0
 11  7  1  0
 12 11  1  0
 12 17  1  0
 13 14  1  0
 13 12  1  0
 14 15  1  0
 15 16  1  0
 17 16  1  0
  1 18  1  0
  2 19  1  0
  5 20  1  0
  8 21  1  0
  9 22  1  0
 13 23  1  0
 13 24  1  0
 14 25  1  0
 14 26  1  0
 16 27  1  0
 16 28  1  0
 17 29  1  0
 17 30  1  0
M  ISO  8  18  14  19  14  20  14  21  14  22  14  23  13  24  13  25  13
M  ISO  5  26  13  27  13  28  13  29  13  30  13
M  END
>  <minimizedAffinity>  (1) 
-4.61411715

>  <minimizedRMSD>  (1) 
3.57922697

$$$$
