
     RDKit          3D

 25 27  0  0  0  0  0  0  0  0999 V2000
   41.2970   21.8230   37.4070 C   0  0  0  0  0  0  0  0  0  0  0  0
   41.5430   23.0520   36.7670 C   0  0  0  0  0  0  0  0  0  0  0  0
   42.7360   23.1690   36.0620 C   0  0  0  0  0  0  0  0  0  0  0  0
   43.5910   22.1160   36.0250 N   0  0  0  0  0  0  0  0  0  0  0  0
   43.3280   20.9430   36.6520 C   0  0  0  0  0  0  0  0  0  0  0  0
   42.1580   20.8180   37.3470 N   0  0  0  0  0  0  0  0  0  0  0  0
   43.0780   24.3820   35.3740 N   0  0  0  0  0  0  0  0  0  0  0  0
   42.3860   24.7520   34.2680 C   0  0  0  0  0  0  0  0  0  0  0  0
   42.9520   25.9310   33.8630 C   0  0  0  0  0  0  0  0  0  0  0  0
   43.9470   26.2530   34.6980 N   0  0  0  0  0  0  0  0  0  0  0  0
   44.0300   25.2780   35.6550 C   0  0  0  0  0  0  0  0  0  0  0  0
   44.9570   25.1700   36.7940 C   0  0  0  0  0  0  0  0  0  0  0  0
   46.1600   24.5000   36.5400 C   0  0  0  0  0  0  0  0  0  0  0  0
   47.0160   24.4090   37.6190 C   0  0  0  0  0  0  0  0  0  0  0  0
   46.7000   24.9310   38.8170 N   0  0  0  0  0  0  0  0  0  0  0  0
   45.5250   25.5710   39.0260 C   0  0  0  0  0  0  0  0  0  0  0  0
   44.6760   25.6790   38.0080 N   0  0  0  0  0  0  0  0  0  0  0  0
   40.3630   21.6932   37.9733 H   0  0  0  0  0  0  0  0  0  0  0  0
   40.8240   23.8827   36.8219 H   0  0  0  0  0  0  0  0  0  0  0  0
   44.0425   20.1081   36.6022 H   0  0  0  0  0  0  0  0  0  0  0  0
   41.5478   24.2182   33.7964 H   0  0  0  0  0  0  0  0  0  0  0  0
   42.6383   26.5207   32.9890 H   0  0  0  0  0  0  0  0  0  0  0  0
   46.4046   24.0777   35.5542 H   0  0  0  0  0  0  0  0  0  0  0  0
   47.9814   23.8963   37.4955 H   0  0  0  0  0  0  0  0  0  0  0  0
   45.2791   25.9908   40.0125 H   0  0  0  0  0  0  0  0  0  0  0  0
  2  1  2  0
  3  2  1  0
  4  3  2  0
  4  5  1  0
  5  6  2  0
  6  1  1  0
  7 11  1  0
  7  3  1  0
  8  7  1  0
  9  8  2  0
  9 10  1  0
 10 11  2  0
 11 12  1  0
 12 17  1  0
 13 12  2  0
 13 14  1  0
 14 15  2  0
 15 16  1  0
 17 16  2  0
  1 18  1  0
  2 19  1  0
  5 20  1  0
  8 21  1  0
  9 22  1  0
 13 23  1  0
 14 24  1  0
 16 25  1  0
M  ISO  8  18  14  19  14  20  14  21  14  22  14  23  14  24  14  25  14
M  END
>  <minimizedAffinity>  (1) 
-4.10572433

>  <minimizedRMSD>  (1) 
3.97742176

$$$$
