
     RDKit          3D

 24 26  0  0  0  0  0  0  0  0999 V2000
   37.8060   23.7290   38.3200 C   0  0  0  0  0  0  0  0  0  0  0  0
   37.6570   23.9860   36.9490 C   0  0  0  0  0  0  0  0  0  0  0  0
   38.7240   23.6690   36.1020 C   0  0  0  0  0  0  0  0  0  0  0  0
   39.8260   23.1370   36.6600 N   0  0  0  0  0  0  0  0  0  0  0  0
   39.9630   22.8930   37.9750 C   0  0  0  0  0  0  0  0  0  0  0  0
   38.9350   23.1950   38.8130 N   0  0  0  0  0  0  0  0  0  0  0  0
   38.6470   23.9010   34.6960 N   0  0  0  0  0  0  0  0  0  0  0  0
   37.8350   23.1810   33.9180 C   0  0  0  0  0  0  0  0  0  0  0  0
   38.0100   23.6620   32.6470 C   0  0  0  0  0  0  0  0  0  0  0  0
   38.9250   24.6620   32.6860 N   0  0  0  0  0  0  0  0  0  0  0  0
   39.3300   24.8170   33.9770 C   0  0  0  0  0  0  0  0  0  0  0  0
   40.3180   25.7920   34.4930 C   0  0  0  0  0  0  0  0  0  0  0  0
   39.6740   27.0590   35.0790 C   0  0  0  0  0  0  0  0  0  0  0  0
   40.5090   27.0870   33.8380 C   0  0  0  0  0  0  0  0  0  0  0  0
   36.9804   23.9701   39.0057 H   0  0  0  0  0  0  0  0  0  0  0  0
   36.7291   24.4236   36.5521 H   0  0  0  0  0  0  0  0  0  0  0  0
   40.8928   22.4555   38.3675 H   0  0  0  0  0  0  0  0  0  0  0  0
   37.1635   22.3686   34.2328 H   0  0  0  0  0  0  0  0  0  0  0  0
   37.4946   23.2979   31.7460 H   0  0  0  0  0  0  0  0  0  0  0  0
   41.0285   25.0109   34.8014 H   0  0  0  0  0  0  0  0  0  0  0  0
   38.5857   27.2078   35.0207 H   0  0  0  0  0  0  0  0  0  0  0  0
   39.6835   27.5744   36.0508 H   0  0  0  0  0  0  0  0  0  0  0  0
   41.4990   27.5659   33.8607 H   0  0  0  0  0  0  0  0  0  0  0  0
   40.3424   27.4559   32.8152 H   0  0  0  0  0  0  0  0  0  0  0  0
  1  6  2  0
  2  1  1  0
  3  4  1  0
  3  2  2  0
  4  5  2  0
  5  6  1  0
  7  3  1  0
  8  7  1  0
  9 10  1  0
  9  8  2  0
 10 11  2  0
 11 12  1  0
 11  7  1  0
 12 13  1  0
 14 12  1  0
 14 13  1  0
  1 15  1  0
  2 16  1  0
  5 17  1  0
  8 18  1  0
  9 19  1  0
 12 20  1  0
 13 21  1  0
 13 22  1  0
 14 23  1  0
 14 24  1  0
M  ISO  8  15  14  16  14  17  14  18  14  19  14  20  13  21  13  22  13
M  ISO  2  23  13  24  13
M  END
>  <minimizedAffinity>  (1) 
-4.06883812

>  <minimizedRMSD>  (1) 
3.15307069

$$$$
