
     RDKit          3D

 24 26  0  0  0  0  0  0  0  0999 V2000
   37.8180   23.6170   38.3590 C   0  0  0  0  0  0  0  0  0  0  0  0
   37.4690   23.5180   36.9940 C   0  0  0  0  0  0  0  0  0  0  0  0
   38.4650   23.0580   36.1380 C   0  0  0  0  0  0  0  0  0  0  0  0
   39.6910   22.7330   36.6370 N   0  0  0  0  0  0  0  0  0  0  0  0
   39.9740   22.8470   37.9610 C   0  0  0  0  0  0  0  0  0  0  0  0
   39.0310   23.2900   38.8140 N   0  0  0  0  0  0  0  0  0  0  0  0
   38.2120   22.9200   34.7270 N   0  0  0  0  0  0  0  0  0  0  0  0
   37.3940   21.9680   34.2640 C   0  0  0  0  0  0  0  0  0  0  0  0
   37.3790   22.1140   32.9040 C   0  0  0  0  0  0  0  0  0  0  0  0
   38.1840   23.1470   32.5710 N   0  0  0  0  0  0  0  0  0  0  0  0
   38.7170   23.6630   33.7170 C   0  0  0  0  0  0  0  0  0  0  0  0
   39.6060   24.7480   33.8090 C   0  0  0  0  0  0  0  0  0  0  0  0
   40.9280   24.8970   34.1060 C   0  0  0  0  0  0  0  0  0  0  0  0
   41.5230   26.1150   34.1130 C   0  0  0  0  0  0  0  0  0  0  0  0
   40.7140   27.2150   33.8020 C   0  0  0  0  0  0  0  0  0  0  0  0
   39.0360   26.4690   33.4870 S   0  0  0  0  0  0  0  0  0  0  0  0
   37.0633   23.9766   39.0739 H   0  0  0  0  0  0  0  0  0  0  0  0
   36.4675   23.7889   36.6286 H   0  0  0  0  0  0  0  0  0  0  0  0
   40.9725   22.5777   38.3357 H   0  0  0  0  0  0  0  0  0  0  0  0
   36.8455   21.2205   34.8560 H   0  0  0  0  0  0  0  0  0  0  0  0
   36.8067   21.4936   32.1986 H   0  0  0  0  0  0  0  0  0  0  0  0
   41.5272   24.0063   34.3461 H   0  0  0  0  0  0  0  0  0  0  0  0
   42.5902   26.2337   34.3516 H   0  0  0  0  0  0  0  0  0  0  0  0
   41.0028   28.2754   33.7546 H   0  0  0  0  0  0  0  0  0  0  0  0
  1  6  2  0
  2  1  1  0
  3  4  1  0
  3  2  2  0
  4  5  2  0
  5  6  1  0
  7  3  1  0
  8  7  1  0
  9  8  2  0
 10  9  1  0
 10 11  2  0
 11 12  1  0
 11  7  1  0
 12 13  2  0
 13 14  1  0
 15 14  2  0
 16 15  1  0
 16 12  1  0
  1 17  1  0
  2 18  1  0
  5 19  1  0
  8 20  1  0
  9 21  1  0
 13 22  1  0
 14 23  1  0
 15 24  1  0
M  ISO  8  17  14  18  14  19  14  20  14  21  14  22  14  23  14  24  14
M  END
>  <minimizedAffinity>  (1) 
-4.06321907

>  <minimizedRMSD>  (1) 
3.26183772

$$$$
