
     RDKit          3D

 24 26  0  0  0  0  0  0  0  0999 V2000
   42.3700   21.2970   36.9700 C   0  0  0  0  0  0  0  0  0  0  0  0
   41.2780   22.1570   37.2460 C   0  0  0  0  0  0  0  0  0  0  0  0
   40.4880   22.5280   36.1420 C   0  0  0  0  0  0  0  0  0  0  0  0
   40.8070   22.0560   34.9140 N   0  0  0  0  0  0  0  0  0  0  0  0
   41.8650   21.2370   34.7030 C   0  0  0  0  0  0  0  0  0  0  0  0
   42.6400   20.8620   35.7380 N   0  0  0  0  0  0  0  0  0  0  0  0
   39.3630   23.3900   36.3100 N   0  0  0  0  0  0  0  0  0  0  0  0
   38.2670   22.9790   36.9560 C   0  0  0  0  0  0  0  0  0  0  0  0
   37.3960   24.0230   36.9410 C   0  0  0  0  0  0  0  0  0  0  0  0
   37.9740   25.0580   36.2840 N   0  0  0  0  0  0  0  0  0  0  0  0
   39.2070   24.6600   35.8870 C   0  0  0  0  0  0  0  0  0  0  0  0
   40.1540   25.4260   35.1700 N   0  0  0  0  0  0  0  0  0  0  0  0
   41.3030   24.9360   34.6290 C   0  0  0  0  0  0  0  0  0  0  0  0
   41.9660   25.9780   34.0090 C   0  0  0  0  0  0  0  0  0  0  0  0
   41.2190   27.0730   34.1810 N   0  0  0  0  0  0  0  0  0  0  0  0
   40.1220   26.7320   34.8840 C   0  0  0  0  0  0  0  0  0  0  0  0
   43.0172   20.9772   37.8000 H   0  0  0  0  0  0  0  0  0  0  0  0
   41.0606   22.5137   38.2636 H   0  0  0  0  0  0  0  0  0  0  0  0
   42.0906   20.8789   33.6877 H   0  0  0  0  0  0  0  0  0  0  0  0
   38.1023   21.9908   37.4102 H   0  0  0  0  0  0  0  0  0  0  0  0
   36.3906   24.0269   37.3873 H   0  0  0  0  0  0  0  0  0  0  0  0
   41.6446   23.8915   34.6770 H   0  0  0  0  0  0  0  0  0  0  0  0
   42.9260   25.9177   33.4754 H   0  0  0  0  0  0  0  0  0  0  0  0
   39.3196   27.4243   35.1789 H   0  0  0  0  0  0  0  0  0  0  0  0
  1  2  2  0
  3  7  1  0
  3  2  1  0
  4  3  2  0
  5  4  1  0
  5  6  2  0
  6  1  1  0
  7  8  1  0
  9  8  2  0
 10  9  1  0
 11 10  2  0
 11  7  1  0
 12 11  1  0
 13 12  1  0
 14 15  1  0
 14 13  2  0
 15 16  2  0
 16 12  1  0
  1 17  1  0
  2 18  1  0
  5 19  1  0
  8 20  1  0
  9 21  1  0
 13 22  1  0
 14 23  1  0
 16 24  1  0
M  ISO  8  17  14  18  14  19  14  20  14  21  14  22  14  23  14  24  14
M  END
>  <minimizedAffinity>  (1) 
-4.04825592

>  <minimizedRMSD>  (1) 
1.03041399

$$$$
