./init_pose/1_0.pdbqt
     RDKit          3D

 10 10  0  0  0  0  0  0  0  0999 V2000
   40.0780   22.6540   37.5820 C   0  0  0  0  0  0  0  0  0  0  0  0
   39.0590   23.2970   38.3170 C   0  0  0  0  0  0  0  0  0  0  0  0
   37.7860   23.3800   37.7340 C   0  0  0  0  0  0  0  0  0  0  0  0
   37.6080   22.8390   36.4930 N   0  0  0  0  0  0  0  0  0  0  0  0
   38.6090   22.2280   35.8200 C   0  0  0  0  0  0  0  0  0  0  0  0
   39.8360   22.1360   36.3660 N   0  0  0  0  0  0  0  0  0  0  0  0
   41.0875   22.5756   38.0119 H   0  0  0  0  0  0  0  0  0  0  0  0
   39.2565   23.7188   39.3135 H   0  0  0  0  0  0  0  0  0  0  0  0
   36.9535   23.8678   38.2623 H   0  0  0  0  0  0  0  0  0  0  0  0
   38.4200   21.8045   34.8225 H   0  0  0  0  0  0  0  0  0  0  0  0
  1  2  2  0
  3  2  1  0
  4  3  2  0
  5  6  2  0
  5  4  1  0
  6  1  1  0
  1  7  1  0
  2  8  1  0
  3  9  1  0
  5 10  1  0
M  ISO  4   7  14   8  14   9  14  10  14
M  END
>  <MODEL>  (1) 
1

>  <REMARK>  (1) 
 minimizedAffinity -2.44204974REMARK  Name = 7
  0 active torsions:
  status: ('A' for Active; 'I' for Inactive)
                            x       y       z     vdW  Elec       q    Type
                         _______ _______ _______ _____ _____    ______ ____

>  <TORSDO>  (1) 
F 0

$$$$
