
     RDKit          3D

 20 21  0  0  0  0  0  0  0  0999 V2000
   41.1170   22.0580   37.2080 C   0  0  0  0  0  0  0  0  0  0  0  0
   40.3360   23.2270   37.0650 C   0  0  0  0  0  0  0  0  0  0  0  0
   40.1080   23.6730   35.7510 C   0  0  0  0  0  0  0  0  0  0  0  0
   40.6320   22.9810   34.7180 N   0  0  0  0  0  0  0  0  0  0  0  0
   41.3730   21.8690   34.8930 C   0  0  0  0  0  0  0  0  0  0  0  0
   41.6120   21.4130   36.1480 N   0  0  0  0  0  0  0  0  0  0  0  0
   39.3260   24.8500   35.5140 N   0  0  0  0  0  0  0  0  0  0  0  0
   37.9940   24.8580   35.7400 C   0  0  0  0  0  0  0  0  0  0  0  0
   37.5690   26.1100   35.4190 C   0  0  0  0  0  0  0  0  0  0  0  0
   38.6340   26.8420   35.0080 N   0  0  0  0  0  0  0  0  0  0  0  0
   39.7270   26.0450   35.0710 C   0  0  0  0  0  0  0  0  0  0  0  0
   41.1040   26.3640   34.7350 C   0  0  0  0  0  0  0  0  0  0  0  0
   41.2940   27.2240   33.8360 O   0  0  0  0  0  0  0  0  0  0  0  0
   42.1960   25.7720   35.3490 O   0  0  0  0  0  0  0  0  0  0  0  0
   41.3223   21.6698   38.2165 H   0  0  0  0  0  0  0  0  0  0  0  0
   39.9277   23.7603   37.9361 H   0  0  0  0  0  0  0  0  0  0  0  0
   41.7817   21.3341   34.0230 H   0  0  0  0  0  0  0  0  0  0  0  0
   37.3792   24.0234   36.1081 H   0  0  0  0  0  0  0  0  0  0  0  0
   36.5314   26.4696   35.4825 H   0  0  0  0  0  0  0  0  0  0  0  0
   43.1139   26.0277   35.0802 H   0  0  0  0  0  0  0  0  0  0  0  0
  2  1  2  0
  3  2  1  0
  4  5  1  0
  4  3  2  0
  5  6  2  0
  6  1  1  0
  7  8  1  0
  7  3  1  0
  9  8  2  0
 10 11  2  0
 10  9  1  0
 11  7  1  0
 12 11  1  0
 12 14  1  0
 13 12  2  0
  1 15  1  0
  2 16  1  0
  5 17  1  0
  8 18  1  0
  9 19  1  0
 14 20  1  0
M  ISO  6  15  14  16  14  17  14  18  14  19  14  20   3
M  END
>  <minimizedAffinity>  (1) 
-3.34367394

>  <minimizedRMSD>  (1) 
1.09238112

$$$$
