
     RDKit          3D

 19 20  0  0  0  0  0  0  0  0999 V2000
   42.6730   21.8260   36.6180 C   0  0  0  0  0  0  0  0  0  0  0  0
   41.5590   22.6120   36.9800 C   0  0  0  0  0  0  0  0  0  0  0  0
   40.5800   22.8020   36.0090 C   0  0  0  0  0  0  0  0  0  0  0  0
   40.7340   22.2380   34.7810 N   0  0  0  0  0  0  0  0  0  0  0  0
   41.8210   21.4910   34.4800 C   0  0  0  0  0  0  0  0  0  0  0  0
   42.7870   21.2870   35.3970 N   0  0  0  0  0  0  0  0  0  0  0  0
   39.4100   23.5890   36.2880 N   0  0  0  0  0  0  0  0  0  0  0  0
   38.4590   23.1290   37.1310 C   0  0  0  0  0  0  0  0  0  0  0  0
   37.5100   24.1290   37.1530 C   0  0  0  0  0  0  0  0  0  0  0  0
   37.8950   25.1480   36.3430 N   0  0  0  0  0  0  0  0  0  0  0  0
   39.0850   24.8060   35.8030 C   0  0  0  0  0  0  0  0  0  0  0  0
   39.8660   25.5970   34.8770 C   0  0  0  0  0  0  0  0  0  0  0  0
   40.1230   26.8000   35.1370 O   0  0  0  0  0  0  0  0  0  0  0  0
   43.4685   21.6512   37.3573 H   0  0  0  0  0  0  0  0  0  0  0  0
   41.4682   23.0542   37.9831 H   0  0  0  0  0  0  0  0  0  0  0  0
   41.9170   21.0465   33.4784 H   0  0  0  0  0  0  0  0  0  0  0  0
   38.4452   22.1736   37.6759 H   0  0  0  0  0  0  0  0  0  0  0  0
   36.5797   24.1047   37.7394 H   0  0  0  0  0  0  0  0  0  0  0  0
   40.2354   25.1454   33.9444 H   0  0  0  0  0  0  0  0  0  0  0  0
  1  2  2  0
  3  7  1  0
  3  2  1  0
  4  3  2  0
  5  4  1  0
  5  6  2  0
  6  1  1  0
  7  8  1  0
  8  9  2  0
 10  9  1  0
 11  7  1  0
 11 10  2  0
 12 13  2  0
 12 11  1  0
  1 14  1  0
  2 15  1  0
  5 16  1  0
  8 17  1  0
  9 18  1  0
 12 19  1  0
M  ISO  6  14  14  15  14  16  14  17  14  18  14  19   6
M  END
>  <minimizedAffinity>  (1) 
-3.24080777

>  <minimizedRMSD>  (1) 
1.2360692

$$$$
