
     RDKit          3D

 35 38  0  0  0  0  0  0  0  0999 V2000
   39.5420   26.5160   34.9150 C   0  0  0  0  0  0  0  0  0  0  0  0
   38.5710   24.2590   34.7620 N   0  0  0  0  0  0  0  0  0  0  0  0
   38.0480   23.4030   33.8860 C   0  0  0  0  0  0  0  0  0  0  0  0
   38.0840   24.0420   32.6730 C   0  0  0  0  0  0  0  0  0  0  0  0
   38.6340   25.2780   32.8530 N   0  0  0  0  0  0  0  0  0  0  0  0
   38.9360   25.4050   34.1620 C   0  0  0  0  0  0  0  0  0  0  0  0
   37.8750   23.8720   38.3970 C   0  0  0  0  0  0  0  0  0  0  0  0
   37.6860   24.2470   37.0630 C   0  0  0  0  0  0  0  0  0  0  0  0
   38.6880   23.9100   36.1460 C   0  0  0  0  0  0  0  0  0  0  0  0
   39.7510   23.2570   36.6070 N   0  0  0  0  0  0  0  0  0  0  0  0
   39.9240   22.9000   37.8930 C   0  0  0  0  0  0  0  0  0  0  0  0
   38.9880   23.2020   38.8070 N   0  0  0  0  0  0  0  0  0  0  0  0
   38.4440   27.4430   35.4210 C   0  0  0  0  0  0  0  0  0  0  0  0
   36.8940   27.1190   34.5780 S   0  0  0  0  0  0  0  0  0  0  0  0
   35.9550   29.5460   30.4490 N   0  0  0  0  0  0  0  0  0  0  0  0
   36.5690   28.3600   30.2850 C   0  0  0  0  0  0  0  0  0  0  0  0
   36.7840   27.7700   31.4750 N   0  0  0  0  0  0  0  0  0  0  0  0
   36.3060   28.5810   32.4310 C   0  0  0  0  0  0  0  0  0  0  0  0
   36.2080   28.5810   33.8250 C   0  0  0  0  0  0  0  0  0  0  0  0
   35.6390   29.6180   34.4680 N   0  0  0  0  0  0  0  0  0  0  0  0
   35.1460   30.6860   33.7720 C   0  0  0  0  0  0  0  0  0  0  0  0
   35.2280   30.7090   32.4200 N   0  0  0  0  0  0  0  0  0  0  0  0
   35.7850   29.6970   31.7740 C   0  0  0  0  0  0  0  0  0  0  0  0
   40.2219   27.0773   34.2573 H   0  0  0  0  0  0  0  0  0  0  0  0
   40.1072   26.1155   35.7694 H   0  0  0  0  0  0  0  0  0  0  0  0
   37.6661   22.3923   34.0926 H   0  0  0  0  0  0  0  0  0  0  0  0
   37.7297   23.6285   31.7172 H   0  0  0  0  0  0  0  0  0  0  0  0
   37.1019   24.1256   39.1372 H   0  0  0  0  0  0  0  0  0  0  0  0
   36.7820   24.7876   36.7459 H   0  0  0  0  0  0  0  0  0  0  0  0
   40.8334   22.3601   38.1957 H   0  0  0  0  0  0  0  0  0  0  0  0
   38.3070   27.2833   36.5007 H   0  0  0  0  0  0  0  0  0  0  0  0
   38.7421   28.4828   35.2212 H   0  0  0  0  0  0  0  0  0  0  0  0
   35.6725   30.2047   29.7093 H   0  0  0  0  0  0  0  0  0  0  0  0
   36.8554   27.9321   29.3129 H   0  0  0  0  0  0  0  0  0  0  0  0
   34.6828   31.5266   34.3095 H   0  0  0  0  0  0  0  0  0  0  0  0
  1 13  1  0
  2  9  1  0
  3  2  1  0
  4  5  1  0
  4  3  2  0
  5  6  2  0
  6  2  1  0
  6  1  1  0
  7 12  2  0
  8  7  1  0
  9 10  1  0
  9  8  2  0
 10 11  2  0
 11 12  1  0
 14 13  1  0
 15 23  1  0
 16 15  1  0
 16 17  2  0
 17 18  1  0
 18 19  2  0
 19 20  1  0
 19 14  1  0
 21 20  2  0
 22 21  1  0
 23 22  2  0
 23 18  1  0
  1 24  1  0
  1 25  1  0
  3 26  1  0
  4 27  1  0
  7 28  1  0
  8 29  1  0
 11 30  1  0
 13 31  1  0
 13 32  1  0
 15 33  1  0
 16 34  1  0
 21 35  1  0
M  ISO  8  24   8  25   8  26  14  27  14  28  14  29  14  30  14  31   8
M  ISO  4  32   8  33   9  34  14  35  14
M  END
>  <minimizedAffinity>  (1) 
-5.17329359

>  <minimizedRMSD>  (1) 
1.42095268

$$$$
