
     RDKit          3D

 35 37  0  0  0  0  0  0  0  0999 V2000
   38.1260   27.1230   33.9660 C   0  0  0  0  0  0  0  0  0  0  0  0
   36.9800   27.6580   34.4960 C   0  0  0  0  0  0  0  0  0  0  0  0
   36.0850   28.4240   33.7500 C   0  0  0  0  0  0  0  0  0  0  0  0
   36.3750   28.6400   32.4460 N   0  0  0  0  0  0  0  0  0  0  0  0
   37.5020   28.1180   31.9080 C   0  0  0  0  0  0  0  0  0  0  0  0
   38.3360   27.3850   32.6700 N   0  0  0  0  0  0  0  0  0  0  0  0
   37.9590   28.2400   30.5780 N   0  0  0  0  0  0  0  0  0  0  0  0
   37.2930   28.9440   29.6630 C   0  0  0  0  0  0  0  0  0  0  0  0
   37.8080   29.0070   28.4000 C   0  0  0  0  0  0  0  0  0  0  0  0
   38.9840   28.3410   28.1560 C   0  0  0  0  0  0  0  0  0  0  0  0
   39.6000   28.3480   26.8750 N   0  0  0  0  0  0  0  0  0  0  0  0
   39.6550   27.6290   29.0930 N   0  0  0  0  0  0  0  0  0  0  0  0
   39.1200   27.5780   30.3480 C   0  0  0  0  0  0  0  0  0  0  0  0
   39.7390   26.9190   31.2210 O   0  0  0  0  0  0  0  0  0  0  0  0
   39.0400   26.3130   34.8240 C   0  0  0  0  0  0  0  0  0  0  0  0
   38.7360   24.8450   34.7710 C   0  0  0  0  0  0  0  0  0  0  0  0
   39.7630   22.8230   37.7420 C   0  0  0  0  0  0  0  0  0  0  0  0
   38.8660   23.2810   38.7110 C   0  0  0  0  0  0  0  0  0  0  0  0
   37.9220   24.2720   38.3480 C   0  0  0  0  0  0  0  0  0  0  0  0
   37.9330   24.7300   37.0730 N   0  0  0  0  0  0  0  0  0  0  0  0
   38.8250   24.2540   36.1620 C   0  0  0  0  0  0  0  0  0  0  0  0
   39.7180   23.3260   36.4810 N   0  0  0  0  0  0  0  0  0  0  0  0
   36.7567   27.4746   35.5574 H   0  0  0  0  0  0  0  0  0  0  0  0
   35.1740   28.8387   34.2061 H   0  0  0  0  0  0  0  0  0  0  0  0
   36.3553   29.4595   29.9180 H   0  0  0  0  0  0  0  0  0  0  0  0
   37.2985   29.5717   27.6053 H   0  0  0  0  0  0  0  0  0  0  0  0
   40.4823   27.8381   26.7250 H   0  0  0  0  0  0  0  0  0  0  0  0
   39.1641   28.8629   26.0967 H   0  0  0  0  0  0  0  0  0  0  0  0
   40.0739   26.4706   34.4831 H   0  0  0  0  0  0  0  0  0  0  0  0
   38.8989   26.6437   35.8636 H   0  0  0  0  0  0  0  0  0  0  0  0
   37.7206   24.6961   34.3749 H   0  0  0  0  0  0  0  0  0  0  0  0
   39.4653   24.3458   34.1162 H   0  0  0  0  0  0  0  0  0  0  0  0
   40.5062   22.0544   38.0008 H   0  0  0  0  0  0  0  0  0  0  0  0
   38.8928   22.8798   39.7349 H   0  0  0  0  0  0  0  0  0  0  0  0
   37.1994   24.6595   39.0813 H   0  0  0  0  0  0  0  0  0  0  0  0
  1  2  2  0
  1 15  1  0
  3  2  1  0
  4  3  2  0
  5  4  1  0
  5  6  2  0
  6  1  1  0
  7  5  1  0
  8  7  1  0
  9  8  2  0
 10  9  1  0
 10 12  2  0
 11 10  1  0
 12 13  1  0
 13  7  1  0
 13 14  2  0
 16 15  1  0
 16 21  1  0
 17 18  2  0
 19 18  1  0
 20 19  2  0
 21 22  2  0
 21 20  1  0
 22 17  1  0
  2 23  1  0
  3 24  1  0
  8 25  1  0
  9 26  1  0
 11 27  1  0
 11 28  1  0
 15 29  1  0
 15 30  1  0
 16 31  1  0
 16 32  1  0
 17 33  1  0
 18 34  1  0
 19 35  1  0
M  ISO  8  23  14  24  14  25  14  26  14  29   8  30   8  31   8  32   8
M  ISO  3  33  14  34  14  35  14
M  END
>  <minimizedAffinity>  (1) 
-5.48845291

>  <minimizedRMSD>  (1) 
0.660299182

$$$$
