
     RDKit          3D

 30 31  0  0  0  0  0  0  0  0999 V2000
   38.5490   24.2870   34.7580 N   0  0  0  0  0  0  0  0  0  0  0  0
   38.0030   23.4540   33.8720 C   0  0  0  0  0  0  0  0  0  0  0  0
   38.0440   24.1050   32.6720 C   0  0  0  0  0  0  0  0  0  0  0  0
   38.5960   25.3350   32.8620 N   0  0  0  0  0  0  0  0  0  0  0  0
   38.9120   25.4440   34.1660 C   0  0  0  0  0  0  0  0  0  0  0  0
   37.9130   23.8180   38.3920 C   0  0  0  0  0  0  0  0  0  0  0  0
   37.6980   24.2150   37.0660 C   0  0  0  0  0  0  0  0  0  0  0  0
   38.6860   23.9150   36.1310 C   0  0  0  0  0  0  0  0  0  0  0  0
   39.7720   23.2710   36.5690 N   0  0  0  0  0  0  0  0  0  0  0  0
   39.9710   22.8870   37.8410 C   0  0  0  0  0  0  0  0  0  0  0  0
   39.0330   23.1530   38.7640 N   0  0  0  0  0  0  0  0  0  0  0  0
   39.5280   26.5320   34.9350 C   0  0  0  0  0  0  0  0  0  0  0  0
   38.4490   27.4650   35.4580 C   0  0  0  0  0  0  0  0  0  0  0  0
   36.8510   27.0890   34.7120 S   0  0  0  0  0  0  0  0  0  0  0  0
   36.4460   28.4710   33.5910 C   0  0  0  0  0  0  0  0  0  0  0  0
   35.6920   29.4940   34.3920 C   0  0  0  0  0  0  0  0  0  0  0  0
   37.6017   22.4486   34.0673 H   0  0  0  0  0  0  0  0  0  0  0  0
   37.6899   23.7024   31.7115 H   0  0  0  0  0  0  0  0  0  0  0  0
   37.1523   24.0524   39.1512 H   0  0  0  0  0  0  0  0  0  0  0  0
   36.7801   24.7457   36.7730 H   0  0  0  0  0  0  0  0  0  0  0  0
   40.8940   22.3595   38.1236 H   0  0  0  0  0  0  0  0  0  0  0  0
   40.0879   26.1093   35.7823 H   0  0  0  0  0  0  0  0  0  0  0  0
   40.2124   27.0957   34.2840 H   0  0  0  0  0  0  0  0  0  0  0  0
   38.3723   27.3501   36.5493 H   0  0  0  0  0  0  0  0  0  0  0  0
   38.7228   28.4980   35.1971 H   0  0  0  0  0  0  0  0  0  0  0  0
   35.8224   28.1103   32.7598 H   0  0  0  0  0  0  0  0  0  0  0  0
   37.3621   28.9082   33.1672 H   0  0  0  0  0  0  0  0  0  0  0  0
   35.8361   29.2986   35.4649 H   0  0  0  0  0  0  0  0  0  0  0  0
   36.0669   30.4991   34.1488 H   0  0  0  0  0  0  0  0  0  0  0  0
   34.6209   29.4334   34.1488 H   0  0  0  0  0  0  0  0  0  0  0  0
  1  8  1  0
  2  1  1  0
  3  4  1  0
  3  2  2  0
  4  5  2  0
  5  1  1  0
  5 12  1  0
  6 11  2  0
  7  6  1  0
  8  9  1  0
  8  7  2  0
  9 10  2  0
 10 11  1  0
 12 13  1  0
 14 13  1  0
 15 16  1  0
 15 14  1  0
  2 17  1  0
  3 18  1  0
  6 19  1  0
  7 20  1  0
 10 21  1  0
 12 22  1  0
 12 23  1  0
 13 24  1  0
 13 25  1  0
 15 26  1  0
 15 27  1  0
 16 28  1  0
 16 29  1  0
 16 30  1  0
M  ISO  8  17  14  18  14  19  14  20  14  21  14  22   8  23   8  24   8
M  ISO  6  25   8  26   8  27   8  28   8  29   8  30   8
M  END
>  <minimizedAffinity>  (1) 
-3.85058784

>  <minimizedRMSD>  (1) 
1.1017673

$$$$
