
     RDKit          3D

 27 28  0  0  0  0  0  0  0  0999 V2000
   38.4550   24.3790   34.7170 N   0  0  0  0  0  0  0  0  0  0  0  0
   38.0400   23.5230   33.7890 C   0  0  0  0  0  0  0  0  0  0  0  0
   37.9960   24.2210   32.6150 C   0  0  0  0  0  0  0  0  0  0  0  0
   38.3890   25.5010   32.8570 N   0  0  0  0  0  0  0  0  0  0  0  0
   38.6780   25.6010   34.1770 C   0  0  0  0  0  0  0  0  0  0  0  0
   37.8660   23.8200   38.3500 C   0  0  0  0  0  0  0  0  0  0  0  0
   37.6300   24.2420   37.0250 C   0  0  0  0  0  0  0  0  0  0  0  0
   38.6180   23.9840   36.0770 C   0  0  0  0  0  0  0  0  0  0  0  0
   39.7300   23.3500   36.4900 N   0  0  0  0  0  0  0  0  0  0  0  0
   39.9440   22.9530   37.7500 C   0  0  0  0  0  0  0  0  0  0  0  0
   39.0100   23.1850   38.6990 N   0  0  0  0  0  0  0  0  0  0  0  0
   39.1450   26.7360   34.9880 C   0  0  0  0  0  0  0  0  0  0  0  0
   37.9550   27.5180   35.4920 C   0  0  0  0  0  0  0  0  0  0  0  0
   36.7510   27.7990   34.1670 S   0  0  0  0  0  0  0  0  0  0  0  0
   35.8220   29.3030   34.4520 C   0  0  0  0  0  0  0  0  0  0  0  0
   37.7831   22.4636   33.9365 H   0  0  0  0  0  0  0  0  0  0  0  0
   37.6935   23.8159   31.6380 H   0  0  0  0  0  0  0  0  0  0  0  0
   37.1024   24.0113   39.1183 H   0  0  0  0  0  0  0  0  0  0  0  0
   36.6979   24.7571   36.7495 H   0  0  0  0  0  0  0  0  0  0  0  0
   40.8797   22.4381   38.0132 H   0  0  0  0  0  0  0  0  0  0  0  0
   39.7262   26.3610   35.8433 H   0  0  0  0  0  0  0  0  0  0  0  0
   39.7796   27.3902   34.3721 H   0  0  0  0  0  0  0  0  0  0  0  0
   37.4716   26.9537   36.3031 H   0  0  0  0  0  0  0  0  0  0  0  0
   38.3073   28.4941   35.8570 H   0  0  0  0  0  0  0  0  0  0  0  0
   35.7185   29.4705   35.5342 H   0  0  0  0  0  0  0  0  0  0  0  0
   36.3525   30.1532   33.9984 H   0  0  0  0  0  0  0  0  0  0  0  0
   34.8243   29.2092   33.9984 H   0  0  0  0  0  0  0  0  0  0  0  0
  1  8  1  0
  2  1  1  0
  3  4  1  0
  3  2  2  0
  4  5  2  0
  5  1  1  0
  5 12  1  0
  6 11  2  0
  7  6  1  0
  8  9  1  0
  8  7  2  0
  9 10  2  0
 10 11  1  0
 12 13  1  0
 14 15  1  0
 14 13  1  0
  2 16  1  0
  3 17  1  0
  6 18  1  0
  7 19  1  0
 10 20  1  0
 12 21  1  0
 12 22  1  0
 13 23  1  0
 13 24  1  0
 15 25  1  0
 15 26  1  0
 15 27  1  0
M  ISO  8  16  14  17  14  18  14  19  14  20  14  21   8  22   8  23   8
M  ISO  4  24   8  25   8  26   8  27   8
M  END
>  <minimizedAffinity>  (1) 
-3.7903769

>  <minimizedRMSD>  (1) 
0.997672796

$$$$
