
     RDKit          3D

 40 43  0  0  0  0  0  0  0  0999 V2000
   38.2750   27.1310   34.0180 C   0  0  0  0  0  0  0  0  0  0  0  0
   37.1010   27.5840   34.5500 C   0  0  0  0  0  0  0  0  0  0  0  0
   36.1600   28.2690   33.7970 C   0  0  0  0  0  0  0  0  0  0  0  0
   36.4310   28.4850   32.4980 N   0  0  0  0  0  0  0  0  0  0  0  0
   37.5720   28.0560   31.9380 C   0  0  0  0  0  0  0  0  0  0  0  0
   38.4240   27.4050   32.7350 N   0  0  0  0  0  0  0  0  0  0  0  0
   38.0680   28.1740   30.5750 C   0  0  0  0  0  0  0  0  0  0  0  0
   38.8300   27.1970   29.9820 C   0  0  0  0  0  0  0  0  0  0  0  0
   39.3200   27.2650   28.7000 C   0  0  0  0  0  0  0  0  0  0  0  0
   39.0620   28.3590   27.9160 C   0  0  0  0  0  0  0  0  0  0  0  0
   38.3040   29.3740   28.4540 C   0  0  0  0  0  0  0  0  0  0  0  0
   38.0510   30.4690   27.6540 C   0  0  0  0  0  0  0  0  0  0  0  0
   37.2980   31.5200   28.1320 C   0  0  0  0  0  0  0  0  0  0  0  0
   36.8170   31.4130   29.4420 C   0  0  0  0  0  0  0  0  0  0  0  0
   37.0990   30.3070   30.1840 C   0  0  0  0  0  0  0  0  0  0  0  0
   37.8450   29.2420   29.7420 C   0  0  0  0  0  0  0  0  0  0  0  0
   39.2720   26.3990   34.8570 C   0  0  0  0  0  0  0  0  0  0  0  0
   39.1680   24.9140   34.7470 C   0  0  0  0  0  0  0  0  0  0  0  0
   39.7510   22.8030   37.7750 C   0  0  0  0  0  0  0  0  0  0  0  0
   38.7750   23.2950   38.6530 C   0  0  0  0  0  0  0  0  0  0  0  0
   37.9370   24.3320   38.1990 C   0  0  0  0  0  0  0  0  0  0  0  0
   38.1070   24.8120   36.9430 N   0  0  0  0  0  0  0  0  0  0  0  0
   39.0740   24.3020   36.1190 C   0  0  0  0  0  0  0  0  0  0  0  0
   39.8760   23.3220   36.5260 N   0  0  0  0  0  0  0  0  0  0  0  0
   36.8950   27.3985   35.6145 H   0  0  0  0  0  0  0  0  0  0  0  0
   35.2217   28.6244   34.2479 H   0  0  0  0  0  0  0  0  0  0  0  0
   39.0638   26.2994   30.5734 H   0  0  0  0  0  0  0  0  0  0  0  0
   39.9230   26.4362   28.3006 H   0  0  0  0  0  0  0  0  0  0  0  0
   39.4488   28.4239   26.8883 H   0  0  0  0  0  0  0  0  0  0  0  0
   38.4519   30.5036   26.6302 H   0  0  0  0  0  0  0  0  0  0  0  0
   37.0847   32.4031   27.5118 H   0  0  0  0  0  0  0  0  0  0  0  0
   36.2105   32.2234   29.8725 H   0  0  0  0  0  0  0  0  0  0  0  0
   36.7017   30.2633   31.2088 H   0  0  0  0  0  0  0  0  0  0  0  0
   40.2814   26.7015   34.5414 H   0  0  0  0  0  0  0  0  0  0  0  0
   39.0663   26.6606   35.9054 H   0  0  0  0  0  0  0  0  0  0  0  0
   38.2688   24.6535   34.1694 H   0  0  0  0  0  0  0  0  0  0  0  0
   40.0630   24.5258   34.2388 H   0  0  0  0  0  0  0  0  0  0  0  0
   40.4195   21.9919   38.0995 H   0  0  0  0  0  0  0  0  0  0  0  0
   38.6668   22.8830   39.6672 H   0  0  0  0  0  0  0  0  0  0  0  0
   37.1563   24.7461   38.8540 H   0  0  0  0  0  0  0  0  0  0  0  0
  1  2  2  0
  1 17  1  0
  3  2  1  0
  4  3  2  0
  5  4  1  0
  5  6  2  0
  6  1  1  0
  7  5  1  0
  8  7  2  0
  9  8  1  0
 10 11  1  0
 10  9  2  0
 11 16  2  0
 12 13  2  0
 12 11  1  0
 13 14  1  0
 14 15  2  0
 16 15  1  0
 16  7  1  0
 18 17  1  0
 18 23  1  0
 19 20  2  0
 21 20  1  0
 22 21  2  0
 23 24  2  0
 23 22  1  0
 24 19  1  0
  2 25  1  0
  3 26  1  0
  8 27  1  0
  9 28  1  0
 10 29  1  0
 12 30  1  0
 13 31  1  0
 14 32  1  0
 15 33  1  0
 17 34  1  0
 17 35  1  0
 18 36  1  0
 18 37  1  0
 19 38  1  0
 20 39  1  0
 21 40  1  0
M  ISO  8  25  14  26  14  27  14  28  14  29  14  30  14  31  14  32  14
M  ISO  8  33  14  34   8  35   8  36   8  37   8  38  14  39  14  40  14
M  END
>  <minimizedAffinity>  (1) 
-5.48309898

>  <minimizedRMSD>  (1) 
0.888196886

$$$$
