
     RDKit          3D

 34 36  0  0  0  0  0  0  0  0999 V2000
   37.0750   27.4590   34.0900 C   0  0  0  0  0  0  0  0  0  0  0  0
   36.1500   28.4640   34.2190 C   0  0  0  0  0  0  0  0  0  0  0  0
   35.7860   29.3270   33.1830 C   0  0  0  0  0  0  0  0  0  0  0  0
   36.3950   29.1410   31.9910 N   0  0  0  0  0  0  0  0  0  0  0  0
   37.3220   28.1400   31.8470 C   0  0  0  0  0  0  0  0  0  0  0  0
   37.6430   27.3220   32.8930 N   0  0  0  0  0  0  0  0  0  0  0  0
   37.9250   28.0020   30.5610 N   0  0  0  0  0  0  0  0  0  0  0  0
   37.7130   28.9730   29.6610 C   0  0  0  0  0  0  0  0  0  0  0  0
   38.2680   28.8990   28.4000 C   0  0  0  0  0  0  0  0  0  0  0  0
   39.0540   27.8210   28.0440 C   0  0  0  0  0  0  0  0  0  0  0  0
   39.6290   27.6020   26.9470 O   0  0  0  0  0  0  0  0  0  0  0  0
   39.2180   26.8810   29.0160 N   0  0  0  0  0  0  0  0  0  0  0  0
   38.6950   26.9200   30.2480 C   0  0  0  0  0  0  0  0  0  0  0  0
   38.8930   26.0190   31.0820 O   0  0  0  0  0  0  0  0  0  0  0  0
   37.3980   26.5880   35.2530 C   0  0  0  0  0  0  0  0  0  0  0  0
   38.1920   25.3710   34.8750 C   0  0  0  0  0  0  0  0  0  0  0  0
   39.6710   22.8820   37.2340 C   0  0  0  0  0  0  0  0  0  0  0  0
   38.9830   23.1760   38.4160 C   0  0  0  0  0  0  0  0  0  0  0  0
   38.0220   24.2210   38.3990 C   0  0  0  0  0  0  0  0  0  0  0  0
   37.8290   24.8770   37.2150 N   0  0  0  0  0  0  0  0  0  0  0  0
   38.5150   24.5610   36.0950 C   0  0  0  0  0  0  0  0  0  0  0  0
   39.4060   23.5880   36.1230 N   0  0  0  0  0  0  0  0  0  0  0  0
   35.6658   28.5982   35.1975 H   0  0  0  0  0  0  0  0  0  0  0  0
   35.0388   30.1207   33.3303 H   0  0  0  0  0  0  0  0  0  0  0  0
   37.0897   29.8382   29.9310 H   0  0  0  0  0  0  0  0  0  0  0  0
   38.0831   29.7040   27.6735 H   0  0  0  0  0  0  0  0  0  0  0  0
   39.7989   26.0634   28.7813 H   0  0  0  0  0  0  0  0  0  0  0  0
   37.9806   27.1746   35.9786 H   0  0  0  0  0  0  0  0  0  0  0  0
   36.4445   26.2391   35.6762 H   0  0  0  0  0  0  0  0  0  0  0  0
   37.6045   24.7568   34.1767 H   0  0  0  0  0  0  0  0  0  0  0  0
   39.1306   25.6899   34.3983 H   0  0  0  0  0  0  0  0  0  0  0  0
   40.4228   22.0792   37.2149 H   0  0  0  0  0  0  0  0  0  0  0  0
   39.1821   22.6102   39.3381 H   0  0  0  0  0  0  0  0  0  0  0  0
   37.4555   24.4920   39.3021 H   0  0  0  0  0  0  0  0  0  0  0  0
  1  2  2  0
  1 15  1  0
  3  2  1  0
  4  3  2  0
  5  4  1  0
  5  6  2  0
  6  1  1  0
  7  5  1  0
  8  7  1  0
  9  8  2  0
 10  9  1  0
 10 12  1  0
 11 10  2  0
 12 13  1  0
 13  7  1  0
 13 14  2  0
 16 15  1  0
 16 21  1  0
 17 18  2  0
 19 18  1  0
 20 19  2  0
 21 22  2  0
 21 20  1  0
 22 17  1  0
  2 23  1  0
  3 24  1  0
  8 25  1  0
  9 26  1  0
 12 27  1  0
 15 28  1  0
 15 29  1  0
 16 30  1  0
 16 31  1  0
 17 32  1  0
 18 33  1  0
 19 34  1  0
M  ISO  8  23  14  24  14  25  14  26  14  27   9  28   8  29   8  30   8
M  ISO  4  31   8  32  14  33  14  34  14
M  END
>  <minimizedAffinity>  (1) 
-5.42551422

>  <minimizedRMSD>  (1) 
1.3823508

$$$$
