
     RDKit          3D

 15 15  0  0  0  0  0  0  0  0999 V2000
   41.4080   21.9250   36.4380 C   0  0  0  0  0  0  0  0  0  0  0  0
   40.7140   22.3860   37.5620 C   0  0  0  0  0  0  0  0  0  0  0  0
   39.4260   22.9170   37.3540 C   0  0  0  0  0  0  0  0  0  0  0  0
   38.9280   22.9550   36.0800 N   0  0  0  0  0  0  0  0  0  0  0  0
   39.6520   22.4940   35.0390 C   0  0  0  0  0  0  0  0  0  0  0  0
   40.8750   21.9860   35.2170 N   0  0  0  0  0  0  0  0  0  0  0  0
   38.6160   23.4320   38.5150 C   0  0  0  0  0  0  0  0  0  0  0  0
   37.4300   22.6080   38.7290 N   0  0  0  0  0  0  0  0  0  0  0  0
   42.4159   21.5028   36.5642 H   0  0  0  0  0  0  0  0  0  0  0  0
   41.1565   22.3358   38.5678 H   0  0  0  0  0  0  0  0  0  0  0  0
   39.2277   22.5371   34.0251 H   0  0  0  0  0  0  0  0  0  0  0  0
   39.2362   23.4133   39.4233 H   0  0  0  0  0  0  0  0  0  0  0  0
   38.2942   24.4597   38.2906 H   0  0  0  0  0  0  0  0  0  0  0  0
   37.2680   22.4954   39.7399 H   0  0  0  0  0  0  0  0  0  0  0  0
   36.6128   23.0643   38.2990 H   0  0  0  0  0  0  0  0  0  0  0  0
  1  2  2  0
  3  2  1  0
  3  7  1  0
  4  3  2  0
  5  6  2  0
  5  4  1  0
  6  1  1  0
  7  8  1  0
  1  9  1  0
  2 10  1  0
  5 11  1  0
  7 12  1  0
  7 13  1  0
  8 14  1  0
  8 15  1  0
M  ISO  7   9  14  10  14  11  14  12   8  13   8  14   5  15   5
M  END
>  <minimizedAffinity>  (1) 
-2.76854229

>  <minimizedRMSD>  (1) 
1.13764358

$$$$
