
     RDKit          3D

 34 37  0  0  0  0  0  0  0  0999 V2000
   37.8230   25.5400   36.1120 C   0  0  0  0  0  0  0  0  0  0  0  0
   38.5040   26.6030   36.5810 N   0  0  0  0  0  0  0  0  0  0  0  0
   38.4710   27.5140   35.6640 O   0  0  0  0  0  0  0  0  0  0  0  0
   37.8080   27.1000   34.6300 C   0  0  0  0  0  0  0  0  0  0  0  0
   37.3800   25.8450   34.8830 N   0  0  0  0  0  0  0  0  0  0  0  0
   37.4330   27.6550   33.3130 C   0  0  0  0  0  0  0  0  0  0  0  0
   38.0710   27.3710   32.1140 C   0  0  0  0  0  0  0  0  0  0  0  0
   37.7140   27.8890   30.9160 C   0  0  0  0  0  0  0  0  0  0  0  0
   36.6560   28.7600   30.8180 C   0  0  0  0  0  0  0  0  0  0  0  0
   35.9800   29.0820   31.9720 C   0  0  0  0  0  0  0  0  0  0  0  0
   34.9250   29.9570   31.8370 C   0  0  0  0  0  0  0  0  0  0  0  0
   34.1980   30.3320   32.9350 C   0  0  0  0  0  0  0  0  0  0  0  0
   34.5550   29.8100   34.1600 C   0  0  0  0  0  0  0  0  0  0  0  0
   35.6200   28.9370   34.2350 C   0  0  0  0  0  0  0  0  0  0  0  0
   36.3820   28.5290   33.1670 C   0  0  0  0  0  0  0  0  0  0  0  0
   37.5770   24.2470   36.7940 C   0  0  0  0  0  0  0  0  0  0  0  0
   40.6890   22.2250   37.5800 C   0  0  0  0  0  0  0  0  0  0  0  0
   39.5540   22.9990   37.7570 C   0  0  0  0  0  0  0  0  0  0  0  0
   38.8120   23.4020   36.6540 C   0  0  0  0  0  0  0  0  0  0  0  0
   39.2430   23.0060   35.4030 N   0  0  0  0  0  0  0  0  0  0  0  0
   40.3430   22.2590   35.2660 C   0  0  0  0  0  0  0  0  0  0  0  0
   41.0690   21.8650   36.3460 N   0  0  0  0  0  0  0  0  0  0  0  0
   38.9248   26.6779   32.1391 H   0  0  0  0  0  0  0  0  0  0  0  0
   38.2759   27.6102   30.0124 H   0  0  0  0  0  0  0  0  0  0  0  0
   36.3591   29.1860   29.8483 H   0  0  0  0  0  0  0  0  0  0  0  0
   34.6659   30.3554   30.8450 H   0  0  0  0  0  0  0  0  0  0  0  0
   33.3529   31.0301   32.8423 H   0  0  0  0  0  0  0  0  0  0  0  0
   33.9971   30.0865   35.0668 H   0  0  0  0  0  0  0  0  0  0  0  0
   35.8793   28.5365   35.2261 H   0  0  0  0  0  0  0  0  0  0  0  0
   37.3638   24.4219   37.8589 H   0  0  0  0  0  0  0  0  0  0  0  0
   36.7133   23.7367   36.3427 H   0  0  0  0  0  0  0  0  0  0  0  0
   41.2785   21.9058   38.4521 H   0  0  0  0  0  0  0  0  0  0  0  0
   39.2407   23.2940   38.7693 H   0  0  0  0  0  0  0  0  0  0  0  0
   40.6674   21.9570   34.2593 H   0  0  0  0  0  0  0  0  0  0  0  0
  1  2  2  0
  1 16  1  0
  3  2  1  0
  4  5  2  0
  4  3  1  0
  5  1  1  0
  6  4  1  0
  7  6  2  0
  8  7  1  0
  9  8  2  0
  9 10  1  0
 10 15  2  0
 11 10  1  0
 11 12  2  0
 12 13  1  0
 13 14  2  0
 15  6  1  0
 15 14  1  0
 17 18  2  0
 19 16  1  0
 19 18  1  0
 20 19  2  0
 21 20  1  0
 21 22  2  0
 22 17  1  0
  7 23  1  0
  8 24  1  0
  9 25  1  0
 11 26  1  0
 12 27  1  0
 13 28  1  0
 14 29  1  0
 16 30  1  0
 16 31  1  0
 17 32  1  0
 18 33  1  0
 21 34  1  0
M  ISO  8  23  14  24  14  25  14  26  14  27  14  28  14  29  14  30   8
M  ISO  4  31   8  32  14  33  14  34  14
M  END
>  <minimizedAffinity>  (1) 
-5.75077438

>  <minimizedRMSD>  (1) 
6.07623482

$$$$
