
     RDKit          3D

 31 33  0  0  0  0  0  0  0  0999 V2000
   38.8820   24.4230   34.6120 C   0  0  0  0  0  0  0  0  0  0  0  0
   39.9650   25.4310   34.4160 C   0  0  0  0  0  0  0  0  0  0  0  0
   39.8510   26.7100   33.9500 N   0  0  0  0  0  0  0  0  0  0  0  0
   41.0450   27.2150   33.9330 O   0  0  0  0  0  0  0  0  0  0  0  0
   41.9040   26.3290   34.3600 C   0  0  0  0  0  0  0  0  0  0  0  0
   41.2750   25.1760   34.6790 N   0  0  0  0  0  0  0  0  0  0  0  0
   43.3150   26.3190   34.5490 N   0  0  0  0  0  0  0  0  0  0  0  0
   43.6490   25.2180   35.4660 C   0  0  0  0  0  0  0  0  0  0  0  0
   44.9880   25.5370   36.1300 C   0  0  0  0  0  0  0  0  0  0  0  0
   45.9850   25.5850   35.0150 C   0  0  0  0  0  0  0  0  0  0  0  0
   45.7060   26.7550   34.1380 C   0  0  0  0  0  0  0  0  0  0  0  0
   44.3030   27.1860   33.9890 C   0  0  0  0  0  0  0  0  0  0  0  0
   37.9590   24.3400   38.2920 C   0  0  0  0  0  0  0  0  0  0  0  0
   37.9450   24.7160   36.9370 C   0  0  0  0  0  0  0  0  0  0  0  0
   38.8420   24.0740   36.0660 C   0  0  0  0  0  0  0  0  0  0  0  0
   39.6810   23.1210   36.5700 N   0  0  0  0  0  0  0  0  0  0  0  0
   39.6620   22.7910   37.8760 C   0  0  0  0  0  0  0  0  0  0  0  0
   38.8100   23.3960   38.7170 N   0  0  0  0  0  0  0  0  0  0  0  0
   39.0958   23.5231   34.0166 H   0  0  0  0  0  0  0  0  0  0  0  0
   37.9133   24.8307   34.2873 H   0  0  0  0  0  0  0  0  0  0  0  0
   42.8666   25.1225   36.2333 H   0  0  0  0  0  0  0  0  0  0  0  0
   43.7167   24.2702   34.9119 H   0  0  0  0  0  0  0  0  0  0  0  0
   44.9402   26.5077   36.6452 H   0  0  0  0  0  0  0  0  0  0  0  0
   45.2577   24.7858   36.8869 H   0  0  0  0  0  0  0  0  0  0  0  0
   46.9977   25.6766   35.4346 H   0  0  0  0  0  0  0  0  0  0  0  0
   45.9111   24.6614   34.4222 H   0  0  0  0  0  0  0  0  0  0  0  0
   46.5198   27.2813   33.6177 H   0  0  0  0  0  0  0  0  0  0  0  0
   44.0331   28.1210   33.4763 H   0  0  0  0  0  0  0  0  0  0  0  0
   37.2713   24.8208   39.0032 H   0  0  0  0  0  0  0  0  0  0  0  0
   37.2534   25.4887   36.5701 H   0  0  0  0  0  0  0  0  0  0  0  0
   40.3495   22.0205   38.2551 H   0  0  0  0  0  0  0  0  0  0  0  0
  1 15  1  0
  2  1  1  0
  2  6  1  0
  3  2  2  0
  4  3  1  0
  4  5  1  0
  5  7  1  0
  5  6  2  0
  7  8  1  0
  8  9  1  0
 10  9  1  0
 11 10  1  0
 12 11  2  0
 12  7  1  0
 13 18  2  0
 14 13  1  0
 15 16  1  0
 15 14  2  0
 16 17  2  0
 17 18  1  0
  1 19  1  0
  1 20  1  0
  8 21  1  0
  8 22  1  0
  9 23  1  0
  9 24  1  0
 10 25  1  0
 10 26  1  0
 11 27  1  0
 12 28  1  0
 13 29  1  0
 14 30  1  0
 17 31  1  0
M  ISO  8  19   8  20   8  21  13  22  13  23  13  24  13  25  13  26  13
M  ISO  5  27  13  28  13  29  14  30  14  31  14
M  END
>  <minimizedAffinity>  (1) 
-4.24183846

>  <minimizedRMSD>  (1) 
2.27372742

$$$$
