
     RDKit          3D

 30 32  0  0  0  0  0  0  0  0999 V2000
   38.9820   24.5840   34.7060 C   0  0  0  0  0  0  0  0  0  0  0  0
   40.1760   25.4560   34.5380 C   0  0  0  0  0  0  0  0  0  0  0  0
   40.2230   26.8010   34.4390 N   0  0  0  0  0  0  0  0  0  0  0  0
   41.4680   27.1350   34.2990 O   0  0  0  0  0  0  0  0  0  0  0  0
   42.2090   26.0560   34.3040 C   0  0  0  0  0  0  0  0  0  0  0  0
   41.4250   24.9580   34.4550 N   0  0  0  0  0  0  0  0  0  0  0  0
   43.6330   26.0330   34.1710 N   0  0  0  0  0  0  0  0  0  0  0  0
   44.5600   27.1410   34.4630 C   0  0  0  0  0  0  0  0  0  0  0  0
   45.6820   26.5120   35.2640 C   0  0  0  0  0  0  0  0  0  0  0  0
   45.6630   25.0440   34.8780 C   0  0  0  0  0  0  0  0  0  0  0  0
   44.6450   25.0680   33.7530 C   0  0  0  0  0  0  0  0  0  0  0  0
   37.9650   24.3170   38.3530 C   0  0  0  0  0  0  0  0  0  0  0  0
   37.9770   24.7550   37.0300 C   0  0  0  0  0  0  0  0  0  0  0  0
   38.8940   24.1780   36.1580 C   0  0  0  0  0  0  0  0  0  0  0  0
   39.7540   23.2010   36.6200 N   0  0  0  0  0  0  0  0  0  0  0  0
   39.7000   22.8130   37.9130 C   0  0  0  0  0  0  0  0  0  0  0  0
   38.8100   23.3690   38.7720 N   0  0  0  0  0  0  0  0  0  0  0  0
   39.0829   23.6889   34.0746 H   0  0  0  0  0  0  0  0  0  0  0  0
   38.0719   25.1246   34.4071 H   0  0  0  0  0  0  0  0  0  0  0  0
   44.9478   27.5768   33.5304 H   0  0  0  0  0  0  0  0  0  0  0  0
   44.0682   27.9579   35.0114 H   0  0  0  0  0  0  0  0  0  0  0  0
   46.6478   26.9686   35.0016 H   0  0  0  0  0  0  0  0  0  0  0  0
   45.5495   26.6571   36.3463 H   0  0  0  0  0  0  0  0  0  0  0  0
   46.6483   24.7034   34.5271 H   0  0  0  0  0  0  0  0  0  0  0  0
   45.4205   24.3562   35.7015 H   0  0  0  0  0  0  0  0  0  0  0  0
   44.1962   24.0728   33.6180 H   0  0  0  0  0  0  0  0  0  0  0  0
   45.1025   25.3435   32.7913 H   0  0  0  0  0  0  0  0  0  0  0  0
   37.2498   24.7577   39.0631 H   0  0  0  0  0  0  0  0  0  0  0  0
   37.2814   25.5344   36.6855 H   0  0  0  0  0  0  0  0  0  0  0  0
   40.3881   22.0346   38.2743 H   0  0  0  0  0  0  0  0  0  0  0  0
  1 14  1  0
  2  1  1  0
  3  2  2  0
  4  5  1  0
  4  3  1  0
  5  6  2  0
  6  2  1  0
  7  5  1  0
  7  8  1  0
  8  9  1  0
 10  9  1  0
 11  7  1  0
 11 10  1  0
 12 17  2  0
 13 12  1  0
 14 15  1  0
 14 13  2  0
 15 16  2  0
 16 17  1  0
  1 18  1  0
  1 19  1  0
  8 20  1  0
  8 21  1  0
  9 22  1  0
  9 23  1  0
 10 24  1  0
 10 25  1  0
 11 26  1  0
 11 27  1  0
 12 28  1  0
 13 29  1  0
 16 30  1  0
M  ISO  8  18   8  19   8  20  13  21  13  22  13  23  13  24  13  25  13
M  ISO  5  26  13  27  13  28  14  29  14  30  14
M  END
>  <minimizedAffinity>  (1) 
-4.01444626

>  <minimizedRMSD>  (1) 
1.61208725

$$$$
