
     RDKit          3D

 26 28  0  0  0  0  0  0  0  0999 V2000
   38.9230   24.4510   34.6360 C   0  0  0  0  0  0  0  0  0  0  0  0
   37.9600   24.3220   38.2870 C   0  0  0  0  0  0  0  0  0  0  0  0
   37.9610   24.7050   36.9490 C   0  0  0  0  0  0  0  0  0  0  0  0
   38.8630   24.0900   36.0940 C   0  0  0  0  0  0  0  0  0  0  0  0
   39.7070   23.1420   36.5950 N   0  0  0  0  0  0  0  0  0  0  0  0
   39.6790   22.7940   37.9040 C   0  0  0  0  0  0  0  0  0  0  0  0
   38.8040   23.3890   38.7360 N   0  0  0  0  0  0  0  0  0  0  0  0
   40.0260   25.4110   34.4320 C   0  0  0  0  0  0  0  0  0  0  0  0
   39.9100   26.6840   33.9890 N   0  0  0  0  0  0  0  0  0  0  0  0
   41.1160   27.1990   33.9480 O   0  0  0  0  0  0  0  0  0  0  0  0
   41.9760   26.3050   34.3450 C   0  0  0  0  0  0  0  0  0  0  0  0
   41.3330   25.1560   34.6630 N   0  0  0  0  0  0  0  0  0  0  0  0
   43.4380   26.4200   34.4670 C   0  0  0  0  0  0  0  0  0  0  0  0
   44.1980   25.6480   35.3440 C   0  0  0  0  0  0  0  0  0  0  0  0
   45.5720   25.8340   35.3820 C   0  0  0  0  0  0  0  0  0  0  0  0
   46.1420   26.7510   34.5780 N   0  0  0  0  0  0  0  0  0  0  0  0
   45.4210   27.5040   33.7260 C   0  0  0  0  0  0  0  0  0  0  0  0
   44.0690   27.3350   33.6760 N   0  0  0  0  0  0  0  0  0  0  0  0
   39.1043   23.5460   34.0376 H   0  0  0  0  0  0  0  0  0  0  0  0
   37.9702   24.9019   34.3216 H   0  0  0  0  0  0  0  0  0  0  0  0
   37.2536   24.7947   38.9853 H   0  0  0  0  0  0  0  0  0  0  0  0
   37.2660   25.4737   36.5802 H   0  0  0  0  0  0  0  0  0  0  0  0
   40.3693   22.0274   38.2858 H   0  0  0  0  0  0  0  0  0  0  0  0
   43.7162   24.9037   35.9951 H   0  0  0  0  0  0  0  0  0  0  0  0
   46.1924   25.2355   36.0653 H   0  0  0  0  0  0  0  0  0  0  0  0
   45.9153   28.2445   33.0799 H   0  0  0  0  0  0  0  0  0  0  0  0
  1  4  1  0
  2  7  2  0
  3  2  1  0
  4  5  1  0
  4  3  2  0
  5  6  2  0
  6  7  1  0
  8  1  1  0
  8 12  1  0
  9  8  2  0
 10  9  1  0
 10 11  1  0
 11 13  1  0
 11 12  2  0
 13 14  2  0
 14 15  1  0
 16 15  2  0
 17 16  1  0
 18 17  2  0
 18 13  1  0
  1 19  1  0
  1 20  1  0
  2 21  1  0
  3 22  1  0
  6 23  1  0
 14 24  1  0
 15 25  1  0
 17 26  1  0
M  ISO  8  19   8  20   8  21  14  22  14  23  14  24  14  25  14  26  14
M  END
>  <minimizedAffinity>  (1) 
-3.94612551

>  <minimizedRMSD>  (1) 
1.97807205

$$$$
