
     RDKit          3D

 27 28  0  0  0  0  0  0  0  0999 V2000
   38.5040   24.6180   34.7440 C   0  0  0  0  0  0  0  0  0  0  0  0
   37.9850   24.2070   38.4790 C   0  0  0  0  0  0  0  0  0  0  0  0
   37.8140   24.6560   37.1750 C   0  0  0  0  0  0  0  0  0  0  0  0
   38.6480   24.1630   36.1770 C   0  0  0  0  0  0  0  0  0  0  0  0
   39.6070   23.2480   36.5340 N   0  0  0  0  0  0  0  0  0  0  0  0
   39.7450   22.8360   37.8000 C   0  0  0  0  0  0  0  0  0  0  0  0
   38.9280   23.3230   38.7650 N   0  0  0  0  0  0  0  0  0  0  0  0
   39.6140   25.5500   34.4440 C   0  0  0  0  0  0  0  0  0  0  0  0
   39.8280   26.7590   35.0080 N   0  0  0  0  0  0  0  0  0  0  0  0
   40.9050   27.2590   34.4720 O   0  0  0  0  0  0  0  0  0  0  0  0
   41.3820   26.4210   33.5950 C   0  0  0  0  0  0  0  0  0  0  0  0
   40.5980   25.3110   33.5340 N   0  0  0  0  0  0  0  0  0  0  0  0
   42.6300   26.8000   32.8540 C   0  0  0  0  0  0  0  0  0  0  0  0
   43.7650   27.0130   33.8420 C   0  0  0  0  0  0  0  0  0  0  0  0
   42.4370   28.0360   32.0290 C   0  0  0  0  0  0  0  0  0  0  0  0
   38.5536   23.7498   34.0703 H   0  0  0  0  0  0  0  0  0  0  0  0
   37.5356   25.1191   34.5986 H   0  0  0  0  0  0  0  0  0  0  0  0
   37.3328   24.5885   39.2784 H   0  0  0  0  0  0  0  0  0  0  0  0
   37.0308   25.3903   36.9357 H   0  0  0  0  0  0  0  0  0  0  0  0
   40.5223   22.1014   38.0572 H   0  0  0  0  0  0  0  0  0  0  0  0
   42.8773   25.9766   32.1679 H   0  0  0  0  0  0  0  0  0  0  0  0
   43.3762   26.9400   34.8684 H   0  0  0  0  0  0  0  0  0  0  0  0
   44.5358   26.2438   33.6863 H   0  0  0  0  0  0  0  0  0  0  0  0
   44.2045   28.0093   33.6863 H   0  0  0  0  0  0  0  0  0  0  0  0
   42.3017   28.9026   32.6929 H   0  0  0  0  0  0  0  0  0  0  0  0
   43.3212   28.1949   31.3942 H   0  0  0  0  0  0  0  0  0  0  0  0
   41.5464   27.9178   31.3942 H   0  0  0  0  0  0  0  0  0  0  0  0
  1  4  1  0
  2  7  2  0
  3  2  1  0
  4  5  1  0
  4  3  2  0
  5  6  2  0
  6  7  1  0
  8  1  1  0
  8  9  2  0
 10  9  1  0
 11 10  1  0
 12 11  2  0
 12  8  1  0
 13 11  1  0
 13 14  1  0
 15 13  1  0
  1 16  1  0
  1 17  1  0
  2 18  1  0
  3 19  1  0
  6 20  1  0
 13 21  1  0
 14 22  1  0
 14 23  1  0
 14 24  1  0
 15 25  1  0
 15 26  1  0
 15 27  1  0
M  ISO  8  16   8  17   8  18  14  19  14  20  14  21   8  22   8  23   8
M  ISO  4  24   8  25   8  26   8  27   8
M  END
>  <minimizedAffinity>  (1) 
-3.58317471

>  <minimizedRMSD>  (1) 
0.655596316

$$$$
