
     RDKit          3D

 24 25  0  0  0  0  0  0  0  0999 V2000
   38.4070   24.3250   34.7210 C   0  0  0  0  0  0  0  0  0  0  0  0
   37.8810   23.8640   38.4390 C   0  0  0  0  0  0  0  0  0  0  0  0
   37.6520   24.2600   37.1250 C   0  0  0  0  0  0  0  0  0  0  0  0
   38.5960   23.9270   36.1560 C   0  0  0  0  0  0  0  0  0  0  0  0
   39.7120   23.2240   36.5360 N   0  0  0  0  0  0  0  0  0  0  0  0
   39.8960   22.8610   37.8150 C   0  0  0  0  0  0  0  0  0  0  0  0
   38.9820   23.1810   38.7600 N   0  0  0  0  0  0  0  0  0  0  0  0
   39.2820   25.4850   34.4340 C   0  0  0  0  0  0  0  0  0  0  0  0
   39.5080   26.5440   35.2410 N   0  0  0  0  0  0  0  0  0  0  0  0
   40.3330   27.3500   34.6350 O   0  0  0  0  0  0  0  0  0  0  0  0
   40.6400   26.8330   33.4620 C   0  0  0  0  0  0  0  0  0  0  0  0
   39.9950   25.6540   33.2950 N   0  0  0  0  0  0  0  0  0  0  0  0
   41.5420   27.3900   32.4180 C   0  0  0  0  0  0  0  0  0  0  0  0
   40.8890   27.5120   31.0670 C   0  0  0  0  0  0  0  0  0  0  0  0
   38.6779   23.4849   34.0645 H   0  0  0  0  0  0  0  0  0  0  0  0
   37.3556   24.5932   34.5404 H   0  0  0  0  0  0  0  0  0  0  0  0
   37.1485   24.1159   39.2200 H   0  0  0  0  0  0  0  0  0  0  0  0
   36.7459   24.8234   36.8572 H   0  0  0  0  0  0  0  0  0  0  0  0
   40.7980   22.2983   38.0975 H   0  0  0  0  0  0  0  0  0  0  0  0
   41.8703   28.3898   32.7382 H   0  0  0  0  0  0  0  0  0  0  0  0
   42.3842   26.6907   32.3097 H   0  0  0  0  0  0  0  0  0  0  0  0
   39.8151   27.7126   31.1956 H   0  0  0  0  0  0  0  0  0  0  0  0
   41.3523   28.3391   30.5091 H   0  0  0  0  0  0  0  0  0  0  0  0
   41.0224   26.5734   30.5091 H   0  0  0  0  0  0  0  0  0  0  0  0
  1  4  1  0
  2  7  2  0
  3  2  1  0
  4  5  1  0
  4  3  2  0
  5  6  2  0
  6  7  1  0
  8  1  1  0
  8  9  2  0
 10  9  1  0
 11 10  1  0
 12 11  2  0
 12  8  1  0
 13 11  1  0
 14 13  1  0
  1 15  1  0
  1 16  1  0
  2 17  1  0
  3 18  1  0
  6 19  1  0
 13 20  1  0
 13 21  1  0
 14 22  1  0
 14 23  1  0
 14 24  1  0
M  ISO  8  15   8  16   8  17  14  18  14  19  14  20   8  21   8  22   8
M  ISO  2  23   8  24   8
M  END
>  <minimizedAffinity>  (1) 
-3.44402933

>  <minimizedRMSD>  (1) 
0.808356464

$$$$
