
     RDKit          3D

 21 22  0  0  0  0  0  0  0  0999 V2000
   38.5270   24.6160   34.7370 C   0  0  0  0  0  0  0  0  0  0  0  0
   37.9820   24.2230   38.4540 C   0  0  0  0  0  0  0  0  0  0  0  0
   37.8110   24.6770   37.1500 C   0  0  0  0  0  0  0  0  0  0  0  0
   38.6580   24.1670   36.1650 C   0  0  0  0  0  0  0  0  0  0  0  0
   39.6070   23.2550   36.5170 N   0  0  0  0  0  0  0  0  0  0  0  0
   39.7370   22.8420   37.7920 C   0  0  0  0  0  0  0  0  0  0  0  0
   38.9200   23.3310   38.7530 N   0  0  0  0  0  0  0  0  0  0  0  0
   39.7080   25.4330   34.3870 C   0  0  0  0  0  0  0  0  0  0  0  0
   40.1010   26.5740   34.9950 N   0  0  0  0  0  0  0  0  0  0  0  0
   41.1800   26.9960   34.4060 O   0  0  0  0  0  0  0  0  0  0  0  0
   41.4890   26.1580   33.4370 C   0  0  0  0  0  0  0  0  0  0  0  0
   40.5850   25.1510   33.3880 N   0  0  0  0  0  0  0  0  0  0  0  0
   42.6420   26.2010   32.4690 C   0  0  0  0  0  0  0  0  0  0  0  0
   38.4752   23.7381   34.0762 H   0  0  0  0  0  0  0  0  0  0  0  0
   37.6099   25.2107   34.6137 H   0  0  0  0  0  0  0  0  0  0  0  0
   37.3295   24.6092   39.2509 H   0  0  0  0  0  0  0  0  0  0  0  0
   37.0330   25.4144   36.9033 H   0  0  0  0  0  0  0  0  0  0  0  0
   40.5102   22.1044   38.0531 H   0  0  0  0  0  0  0  0  0  0  0  0
   43.5888   26.2363   33.0278 H   0  0  0  0  0  0  0  0  0  0  0  0
   42.6231   25.3015   31.8361 H   0  0  0  0  0  0  0  0  0  0  0  0
   42.5562   27.0966   31.8361 H   0  0  0  0  0  0  0  0  0  0  0  0
  1  4  1  0
  2  7  2  0
  3  2  1  0
  4  5  1  0
  4  3  2  0
  5  6  2  0
  6  7  1  0
  8  1  1  0
  8  9  2  0
 10  9  1  0
 11 10  1  0
 12 11  2  0
 12  8  1  0
 13 11  1  0
  1 14  1  0
  1 15  1  0
  2 16  1  0
  3 17  1  0
  6 18  1  0
 13 19  1  0
 13 20  1  0
 13 21  1  0
M  ISO  8  14   8  15   8  16  14  17  14  18  14  19   8  20   8  21   8
M  END
>  <minimizedAffinity>  (1) 
-3.36995173

>  <minimizedRMSD>  (1) 
0.019695919

$$$$
