
     RDKit          3D

 47 51  0  0  0  0  0  0  0  0999 V2000
   38.1070   25.0650   35.0580 C   0  0  0  0  0  0  0  0  0  0  0  0
   39.2630   25.7760   34.4790 C   0  0  0  0  0  0  0  0  0  0  0  0
   39.8580   26.9170   34.9320 N   0  0  0  0  0  0  0  0  0  0  0  0
   40.8400   27.1820   34.1160 O   0  0  0  0  0  0  0  0  0  0  0  0
   40.8810   26.2530   33.1740 C   0  0  0  0  0  0  0  0  0  0  0  0
   39.8960   25.3250   33.3530 N   0  0  0  0  0  0  0  0  0  0  0  0
   41.9370   26.4360   32.1970 N   0  0  0  0  0  0  0  0  0  0  0  0
   42.1830   27.8250   31.8690 C   0  0  0  0  0  0  0  0  0  0  0  0
   43.7080   28.0230   32.0240 C   0  0  0  0  0  0  0  0  0  0  0  0
   44.3120   27.1410   31.1070 O   0  0  0  0  0  0  0  0  0  0  0  0
   44.1930   25.8510   31.6090 C   0  0  0  0  0  0  0  0  0  0  0  0
   42.7340   25.4250   31.5460 C   0  0  0  0  0  0  0  0  0  0  0  0
   38.3370   23.6330   38.5360 C   0  0  0  0  0  0  0  0  0  0  0  0
   37.8220   24.3580   37.4580 C   0  0  0  0  0  0  0  0  0  0  0  0
   38.5620   24.3440   36.2950 C   0  0  0  0  0  0  0  0  0  0  0  0
   39.7230   23.6350   36.2850 N   0  0  0  0  0  0  0  0  0  0  0  0
   40.2040   22.9430   37.3300 C   0  0  0  0  0  0  0  0  0  0  0  0
   39.4800   22.9640   38.4480 N   0  0  0  0  0  0  0  0  0  0  0  0
   41.4650   22.2910   37.0080 C   0  0  0  0  0  0  0  0  0  0  0  0
   41.7000   20.9690   37.3080 C   0  0  0  0  0  0  0  0  0  0  0  0
   42.8740   20.3110   37.0250 C   0  0  0  0  0  0  0  0  0  0  0  0
   43.9140   20.9640   36.4030 C   0  0  0  0  0  0  0  0  0  0  0  0
   43.7320   22.2900   36.0810 C   0  0  0  0  0  0  0  0  0  0  0  0
   44.7740   22.9450   35.4580 C   0  0  0  0  0  0  0  0  0  0  0  0
   44.6590   24.2730   35.1080 C   0  0  0  0  0  0  0  0  0  0  0  0
   43.4490   24.9070   35.4140 C   0  0  0  0  0  0  0  0  0  0  0  0
   42.4530   24.2090   36.0300 C   0  0  0  0  0  0  0  0  0  0  0  0
   42.5370   22.8880   36.3910 C   0  0  0  0  0  0  0  0  0  0  0  0
   37.7141   24.3405   34.3295 H   0  0  0  0  0  0  0  0  0  0  0  0
   37.3115   25.7815   35.3104 H   0  0  0  0  0  0  0  0  0  0  0  0
   41.6376   28.4853   32.5594 H   0  0  0  0  0  0  0  0  0  0  0  0
   41.8412   28.0707   30.8527 H   0  0  0  0  0  0  0  0  0  0  0  0
   43.9835   29.0624   31.7920 H   0  0  0  0  0  0  0  0  0  0  0  0
   44.0369   27.8191   33.0537 H   0  0  0  0  0  0  0  0  0  0  0  0
   44.8039   25.1632   31.0059 H   0  0  0  0  0  0  0  0  0  0  0  0
   44.5418   25.8255   32.6519 H   0  0  0  0  0  0  0  0  0  0  0  0
   42.4213   25.3240   30.4962 H   0  0  0  0  0  0  0  0  0  0  0  0
   42.6007   24.4560   32.0492 H   0  0  0  0  0  0  0  0  0  0  0  0
   37.7795   23.6163   39.4841 H   0  0  0  0  0  0  0  0  0  0  0  0
   36.8745   24.9116   37.5336 H   0  0  0  0  0  0  0  0  0  0  0  0
   40.8987   20.4029   37.8054 H   0  0  0  0  0  0  0  0  0  0  0  0
   42.9832   19.2512   37.2987 H   0  0  0  0  0  0  0  0  0  0  0  0
   44.8560   20.4452   36.1717 H   0  0  0  0  0  0  0  0  0  0  0  0
   45.7053   22.4023   35.2385 H   0  0  0  0  0  0  0  0  0  0  0  0
   45.4803   24.8101   34.6110 H   0  0  0  0  0  0  0  0  0  0  0  0
   43.3021   25.9666   35.1579 H   0  0  0  0  0  0  0  0  0  0  0  0
   41.5170   24.7420   36.2531 H   0  0  0  0  0  0  0  0  0  0  0  0
  1 15  1  0
  2  3  2  0
  2  1  1  0
  4  3  1  0
  5  6  2  0
  5  4  1  0
  6  2  1  0
  7  5  1  0
  8  9  1  0
  8  7  1  0
 10 11  1  0
 10  9  1  0
 12 11  1  0
 12  7  1  0
 14 13  2  0
 15 14  1  0
 16 15  2  0
 16 17  1  0
 17 18  2  0
 18 13  1  0
 19 20  2  0
 19 17  1  0
 21 20  1  0
 22 21  2  0
 23 28  2  0
 23 22  1  0
 24 23  1  0
 25 26  1  0
 25 24  2  0
 26 27  2  0
 27 28  1  0
 28 19  1  0
  1 29  1  0
  1 30  1  0
  8 31  1  0
  8 32  1  0
  9 33  1  0
  9 34  1  0
 11 35  1  0
 11 36  1  0
 12 37  1  0
 12 38  1  0
 13 39  1  0
 14 40  1  0
 20 41  1  0
 21 42  1  0
 22 43  1  0
 24 44  1  0
 25 45  1  0
 26 46  1  0
 27 47  1  0
M  ISO  8  29   8  30   8  31  13  32  13  33  13  34  13  35  13  36  13
M  ISO  8  37  13  38  13  39  14  40  14  41  14  42  14  43  14  44  14
M  ISO  3  45  14  46  14  47  14
M  END
>  <minimizedAffinity>  (1) 
-5.66852856

>  <minimizedRMSD>  (1) 
2.51623869

$$$$
