
     RDKit          3D

 45 49  0  0  0  0  0  0  0  0999 V2000
   37.5600   25.8260   35.8650 C   0  0  0  0  0  0  0  0  0  0  0  0
   38.3580   26.2080   34.6770 C   0  0  0  0  0  0  0  0  0  0  0  0
   39.4600   27.0150   34.6830 N   0  0  0  0  0  0  0  0  0  0  0  0
   39.8680   27.0970   33.4390 O   0  0  0  0  0  0  0  0  0  0  0  0
   39.0640   26.3750   32.6740 C   0  0  0  0  0  0  0  0  0  0  0  0
   38.0910   25.7900   33.4030 N   0  0  0  0  0  0  0  0  0  0  0  0
   39.4250   26.3960   31.2710 N   0  0  0  0  0  0  0  0  0  0  0  0
   39.9210   27.6700   30.8070 C   0  0  0  0  0  0  0  0  0  0  0  0
   41.2340   27.3740   30.0720 C   0  0  0  0  0  0  0  0  0  0  0  0
   40.8990   26.5040   29.0000 O   0  0  0  0  0  0  0  0  0  0  0  0
   40.6440   25.2620   29.5420 C   0  0  0  0  0  0  0  0  0  0  0  0
   39.3410   25.3080   30.3220 C   0  0  0  0  0  0  0  0  0  0  0  0
   38.8110   23.4390   38.4930 C   0  0  0  0  0  0  0  0  0  0  0  0
   38.1280   24.4970   37.9080 C   0  0  0  0  0  0  0  0  0  0  0  0
   38.2720   24.7040   36.5490 C   0  0  0  0  0  0  0  0  0  0  0  0
   39.0940   23.8310   35.8640 N   0  0  0  0  0  0  0  0  0  0  0  0
   39.7390   22.8120   36.4790 C   0  0  0  0  0  0  0  0  0  0  0  0
   39.5820   22.6400   37.7750 N   0  0  0  0  0  0  0  0  0  0  0  0
   40.3160   22.2230   35.3080 C   0  0  0  0  0  0  0  0  0  0  0  0
   40.8060   21.7210   34.3130 N   0  0  0  0  0  0  0  0  0  0  0  0
   41.3390   21.2270   33.3150 C   0  0  0  0  0  0  0  0  0  0  0  0
   42.5960   21.6110   33.5510 N   0  0  0  0  0  0  0  0  0  0  0  0
   42.8030   22.3370   34.6990 C   0  0  0  0  0  0  0  0  0  0  0  0
   44.1680   22.6900   34.8070 C   0  0  0  0  0  0  0  0  0  0  0  0
   44.4860   23.4380   35.9040 C   0  0  0  0  0  0  0  0  0  0  0  0
   43.5940   23.8470   36.8590 C   0  0  0  0  0  0  0  0  0  0  0  0
   42.3200   23.4050   36.5760 C   0  0  0  0  0  0  0  0  0  0  0  0
   41.6880   22.6270   35.5400 C   0  0  0  0  0  0  0  0  0  0  0  0
   36.5572   25.4986   35.5532 H   0  0  0  0  0  0  0  0  0  0  0  0
   37.4478   26.6829   36.5456 H   0  0  0  0  0  0  0  0  0  0  0  0
   39.1967   28.1350   30.1221 H   0  0  0  0  0  0  0  0  0  0  0  0
   40.0771   28.3685   31.6423 H   0  0  0  0  0  0  0  0  0  0  0  0
   41.6729   28.3054   29.6847 H   0  0  0  0  0  0  0  0  0  0  0  0
   41.9757   26.9167   30.7434 H   0  0  0  0  0  0  0  0  0  0  0  0
   40.5621   24.5194   28.7347 H   0  0  0  0  0  0  0  0  0  0  0  0
   41.4658   24.9806   30.2169 H   0  0  0  0  0  0  0  0  0  0  0  0
   38.4999   25.4775   29.6336 H   0  0  0  0  0  0  0  0  0  0  0  0
   39.1767   24.3555   30.8471 H   0  0  0  0  0  0  0  0  0  0  0  0
   38.7088   23.2623   39.5739 H   0  0  0  0  0  0  0  0  0  0  0  0
   37.4869   25.1555   38.5124 H   0  0  0  0  0  0  0  0  0  0  0  0
   40.9095   20.6473   32.4846 H   0  0  0  0  0  0  0  0  0  0  0  0
   44.9180   22.3846   34.0625 H   0  0  0  0  0  0  0  0  0  0  0  0
   45.5378   23.7344   36.0301 H   0  0  0  0  0  0  0  0  0  0  0  0
   43.8603   24.4508   37.7390 H   0  0  0  0  0  0  0  0  0  0  0  0
   41.5974   23.7304   37.3389 H   0  0  0  0  0  0  0  0  0  0  0  0
  1 15  1  0
  2  3  2  0
  2  1  1  0
  4  3  1  0
  5  6  2  0
  5  4  1  0
  6  2  1  0
  7  5  1  0
  8  7  1  0
  9  8  1  0
 10 11  1  0
 10  9  1  0
 11 12  1  0
 12  7  1  0
 14 13  2  0
 15 14  1  0
 16 17  1  0
 16 15  2  0
 17 18  2  0
 18 13  1  0
 19 28  1  0
 19 17  1  0
 20 19  2  0
 21 22  2  0
 21 20  1  0
 22 23  1  0
 23 24  1  0
 23 28  2  0
 24 25  2  0
 25 26  1  0
 27 26  2  0
 28 27  1  0
  1 29  1  0
  1 30  1  0
  8 31  1  0
  8 32  1  0
  9 33  1  0
  9 34  1  0
 11 35  1  0
 11 36  1  0
 12 37  1  0
 12 38  1  0
 13 39  1  0
 14 40  1  0
 21 41  1  0
 24 42  1  0
 25 43  1  0
 26 44  1  0
 27 45  1  0
M  ISO  8  29   8  30   8  31  13  32  13  33  13  34  13  35  13  36  13
M  ISO  8  37  13  38  13  39  14  40  14  41  14  42  14  43  14  44  14
M  ISO  1  45  14
M  END
>  <minimizedAffinity>  (1) 
-5.23548222

>  <minimizedRMSD>  (1) 
3.93883348

$$$$
