
     RDKit          3D

 34 36  0  0  0  0  0  0  0  0999 V2000
   42.5670   24.5730   35.1950 C   0  0  0  0  0  0  0  0  0  0  0  0
   42.8910   23.5890   36.0880 N   0  0  0  0  0  0  0  0  0  0  0  0
   44.0120   23.9340   36.6600 O   0  0  0  0  0  0  0  0  0  0  0  0
   44.4070   25.0940   36.1650 C   0  0  0  0  0  0  0  0  0  0  0  0
   43.5280   25.5420   35.2330 N   0  0  0  0  0  0  0  0  0  0  0  0
   45.6460   25.5760   36.7300 N   0  0  0  0  0  0  0  0  0  0  0  0
   45.8000   25.2840   38.1400 C   0  0  0  0  0  0  0  0  0  0  0  0
   47.1880   24.6800   38.2970 C   0  0  0  0  0  0  0  0  0  0  0  0
   48.1160   25.6250   37.8370 O   0  0  0  0  0  0  0  0  0  0  0  0
   48.0240   25.6950   36.4600 C   0  0  0  0  0  0  0  0  0  0  0  0
   46.7050   26.2910   36.0580 C   0  0  0  0  0  0  0  0  0  0  0  0
   41.3950   24.6570   34.2980 C   0  0  0  0  0  0  0  0  0  0  0  0
   38.6690   26.8470   35.7170 C   0  0  0  0  0  0  0  0  0  0  0  0
   39.7600   26.4570   34.9350 C   0  0  0  0  0  0  0  0  0  0  0  0
   40.2390   25.1580   35.0890 C   0  0  0  0  0  0  0  0  0  0  0  0
   39.6250   24.3300   35.9940 N   0  0  0  0  0  0  0  0  0  0  0  0
   38.5720   24.7580   36.7290 C   0  0  0  0  0  0  0  0  0  0  0  0
   38.0930   26.0000   36.5980 N   0  0  0  0  0  0  0  0  0  0  0  0
   37.9120   23.8430   37.7120 C   0  0  0  0  0  0  0  0  0  0  0  0
   36.8920   23.1830   37.0190 F   0  0  0  0  0  0  0  0  0  0  0  0
   38.8220   22.8720   38.0840 F   0  0  0  0  0  0  0  0  0  0  0  0
   37.4150   24.5310   38.7880 F   0  0  0  0  0  0  0  0  0  0  0  0
   45.7162   26.2071   38.7324 H   0  0  0  0  0  0  0  0  0  0  0  0
   45.0195   24.5951   38.4952 H   0  0  0  0  0  0  0  0  0  0  0  0
   47.3797   24.4505   39.3556 H   0  0  0  0  0  0  0  0  0  0  0  0
   47.2702   23.7460   37.7217 H   0  0  0  0  0  0  0  0  0  0  0  0
   48.8397   26.3232   36.0728 H   0  0  0  0  0  0  0  0  0  0  0  0
   48.1014   24.6801   36.0430 H   0  0  0  0  0  0  0  0  0  0  0  0
   46.6756   27.3520   36.3468 H   0  0  0  0  0  0  0  0  0  0  0  0
   46.5761   26.2116   34.9685 H   0  0  0  0  0  0  0  0  0  0  0  0
   41.1647   23.6609   33.8920 H   0  0  0  0  0  0  0  0  0  0  0  0
   41.6058   25.3380   33.4603 H   0  0  0  0  0  0  0  0  0  0  0  0
   38.2703   27.8669   35.6127 H   0  0  0  0  0  0  0  0  0  0  0  0
   40.2251   27.1530   34.2214 H   0  0  0  0  0  0  0  0  0  0  0  0
  1  5  1  0
  1  2  2  0
  2  3  1  0
  4  3  1  0
  4  6  1  0
  5  4  2  0
  6  7  1  0
  7  8  1  0
  9  8  1  0
 10  9  1  0
 11 10  1  0
 11  6  1  0
 12 15  1  0
 12  1  1  0
 13 18  2  0
 14 15  2  0
 14 13  1  0
 15 16  1  0
 16 17  2  0
 17 19  1  0
 18 17  1  0
 19 21  1  0
 19 22  1  0
 20 19  1  0
  7 23  1  0
  7 24  1  0
  8 25  1  0
  8 26  1  0
 10 27  1  0
 10 28  1  0
 11 29  1  0
 11 30  1  0
 12 31  1  0
 12 32  1  0
 13 33  1  0
 14 34  1  0
M  ISO  8  23  13  24  13  25  13  26  13  27  13  28  13  29  13  30  13
M  ISO  4  31   8  32   8  33  14  34  14
M  END
>  <minimizedAffinity>  (1) 
-5.20548201

>  <minimizedRMSD>  (1) 
3.34377885

$$$$
