
     RDKit          3D

 32 34  0  0  0  0  0  0  0  0999 V2000
   40.3220   25.6270   34.5480 C   0  0  0  0  0  0  0  0  0  0  0  0
   40.5490   26.9390   34.3100 N   0  0  0  0  0  0  0  0  0  0  0  0
   41.8420   27.1210   34.2950 O   0  0  0  0  0  0  0  0  0  0  0  0
   42.4440   25.9660   34.5170 C   0  0  0  0  0  0  0  0  0  0  0  0
   41.5150   25.0010   34.6810 N   0  0  0  0  0  0  0  0  0  0  0  0
   43.8940   26.0420   34.5240 N   0  0  0  0  0  0  0  0  0  0  0  0
   44.4260   26.9750   33.5630 C   0  0  0  0  0  0  0  0  0  0  0  0
   45.4250   27.8520   34.3470 C   0  0  0  0  0  0  0  0  0  0  0  0
   46.3930   26.9820   34.8670 O   0  0  0  0  0  0  0  0  0  0  0  0
   45.8400   26.2640   35.9040 C   0  0  0  0  0  0  0  0  0  0  0  0
   44.8030   25.3070   35.3630 C   0  0  0  0  0  0  0  0  0  0  0  0
   39.0340   24.9150   34.6600 C   0  0  0  0  0  0  0  0  0  0  0  0
   37.9850   24.2620   38.2210 C   0  0  0  0  0  0  0  0  0  0  0  0
   38.0120   24.8600   36.9610 C   0  0  0  0  0  0  0  0  0  0  0  0
   38.9240   24.3450   36.0430 C   0  0  0  0  0  0  0  0  0  0  0  0
   39.7360   23.3040   36.3990 N   0  0  0  0  0  0  0  0  0  0  0  0
   39.6640   22.7630   37.6420 C   0  0  0  0  0  0  0  0  0  0  0  0
   38.7890   23.2460   38.5450 N   0  0  0  0  0  0  0  0  0  0  0  0
   40.4460   21.7170   38.0740 O   0  0  0  0  0  0  0  0  0  0  0  0
   43.6201   27.5938   33.1414 H   0  0  0  0  0  0  0  0  0  0  0  0
   44.9100   26.4602   32.7200 H   0  0  0  0  0  0  0  0  0  0  0  0
   45.8947   28.5862   33.6759 H   0  0  0  0  0  0  0  0  0  0  0  0
   44.9204   28.4115   35.1484 H   0  0  0  0  0  0  0  0  0  0  0  0
   46.6296   25.6959   36.4176 H   0  0  0  0  0  0  0  0  0  0  0  0
   45.3629   26.9562   36.6134 H   0  0  0  0  0  0  0  0  0  0  0  0
   44.2502   24.8494   36.1967 H   0  0  0  0  0  0  0  0  0  0  0  0
   45.2923   24.5120   34.7812 H   0  0  0  0  0  0  0  0  0  0  0  0
   38.2056   25.6162   34.4807 H   0  0  0  0  0  0  0  0  0  0  0  0
   38.9835   24.1077   33.9145 H   0  0  0  0  0  0  0  0  0  0  0  0
   37.2773   24.6402   38.9734 H   0  0  0  0  0  0  0  0  0  0  0  0
   37.3458   25.6971   36.7051 H   0  0  0  0  0  0  0  0  0  0  0  0
   40.3427   21.3692   38.9951 H   0  0  0  0  0  0  0  0  0  0  0  0
  1 12  1  0
  1  5  1  0
  2  1  2  0
  3  2  1  0
  3  4  1  0
  4  6  1  0
  4  5  2  0
  6 11  1  0
  7  8  1  0
  7  6  1  0
  8  9  1  0
  9 10  1  0
 11 10  1  0
 12 15  1  0
 13 18  2  0
 14 13  1  0
 15 16  1  0
 15 14  2  0
 16 17  2  0
 17 19  1  0
 17 18  1  0
  7 20  1  0
  7 21  1  0
  8 22  1  0
  8 23  1  0
 10 24  1  0
 10 25  1  0
 11 26  1  0
 11 27  1  0
 12 28  1  0
 12 29  1  0
 13 30  1  0
 14 31  1  0
 19 32  1  0
M  ISO  8  20  13  21  13  22  13  23  13  24  13  25  13  26  13  27  13
M  ISO  5  28   8  29   8  30  14  31  14  32   3
M  END
>  <minimizedAffinity>  (1) 
-5.11391163

>  <minimizedRMSD>  (1) 
0.203796327

$$$$
