
     RDKit          3D

 36 39  0  0  0  0  0  0  0  0999 V2000
   39.8590   26.0880   34.6030 C   0  0  0  0  0  0  0  0  0  0  0  0
   40.1180   27.2480   33.9370 N   0  0  0  0  0  0  0  0  0  0  0  0
   41.4140   27.3230   33.7750 O   0  0  0  0  0  0  0  0  0  0  0  0
   41.9750   26.2640   34.3090 C   0  0  0  0  0  0  0  0  0  0  0  0
   41.0360   25.4520   34.8460 N   0  0  0  0  0  0  0  0  0  0  0  0
   43.4210   26.2330   34.1920 N   0  0  0  0  0  0  0  0  0  0  0  0
   43.9250   26.8030   32.9620 C   0  0  0  0  0  0  0  0  0  0  0  0
   45.0100   27.8040   33.3640 C   0  0  0  0  0  0  0  0  0  0  0  0
   45.9970   27.0540   34.0430 O   0  0  0  0  0  0  0  0  0  0  0  0
   45.5000   26.7230   35.2940 C   0  0  0  0  0  0  0  0  0  0  0  0
   44.3820   25.7150   35.1310 C   0  0  0  0  0  0  0  0  0  0  0  0
   38.5550   25.5520   35.0200 C   0  0  0  0  0  0  0  0  0  0  0  0
   38.2430   23.7670   38.3400 C   0  0  0  0  0  0  0  0  0  0  0  0
   37.9810   24.6710   37.3140 C   0  0  0  0  0  0  0  0  0  0  0  0
   38.7740   24.6180   36.1630 C   0  0  0  0  0  0  0  0  0  0  0  0
   39.7730   23.6870   36.0840 N   0  0  0  0  0  0  0  0  0  0  0  0
   39.9920   22.8260   37.1080 C   0  0  0  0  0  0  0  0  0  0  0  0
   39.2360   22.8610   38.2330 N   0  0  0  0  0  0  0  0  0  0  0  0
   41.0740   21.8580   36.9620 C   0  0  0  0  0  0  0  0  0  0  0  0
   41.6160   21.5970   35.7400 N   0  0  0  0  0  0  0  0  0  0  0  0
   42.5540   20.7060   35.8750 O   0  0  0  0  0  0  0  0  0  0  0  0
   42.6760   20.3490   37.1250 C   0  0  0  0  0  0  0  0  0  0  0  0
   41.7540   21.0610   37.8380 N   0  0  0  0  0  0  0  0  0  0  0  0
   43.1162   27.3154   32.4204 H   0  0  0  0  0  0  0  0  0  0  0  0
   44.3266   26.0247   32.2964 H   0  0  0  0  0  0  0  0  0  0  0  0
   45.4395   28.2818   32.4711 H   0  0  0  0  0  0  0  0  0  0  0  0
   44.6045   28.6058   33.9986 H   0  0  0  0  0  0  0  0  0  0  0  0
   46.3032   26.2868   35.9060 H   0  0  0  0  0  0  0  0  0  0  0  0
   45.1159   27.6258   35.7914 H   0  0  0  0  0  0  0  0  0  0  0  0
   43.8944   25.5439   36.1021 H   0  0  0  0  0  0  0  0  0  0  0  0
   44.7895   24.7627   34.7606 H   0  0  0  0  0  0  0  0  0  0  0  0
   37.8977   26.3762   35.3343 H   0  0  0  0  0  0  0  0  0  0  0  0
   38.0795   25.0201   34.1827 H   0  0  0  0  0  0  0  0  0  0  0  0
   37.6299   23.7923   39.2529 H   0  0  0  0  0  0  0  0  0  0  0  0
   37.1703   25.4087   37.4063 H   0  0  0  0  0  0  0  0  0  0  0  0
   43.3875   19.6132   37.5280 H   0  0  0  0  0  0  0  0  0  0  0  0
  1  5  1  0
  1 12  1  0
  2  1  2  0
  3  2  1  0
  3  4  1  0
  4  5  2  0
  6  4  1  0
  6 11  1  0
  7  8  1  0
  7  6  1  0
  8  9  1  0
  9 10  1  0
 11 10  1  0
 12 15  1  0
 14 13  2  0
 15 14  1  0
 16 15  2  0
 16 17  1  0
 17 18  2  0
 18 13  1  0
 19 17  1  0
 19 23  1  0
 20 21  1  0
 20 19  2  0
 21 22  1  0
 22 23  2  0
  7 24  1  0
  7 25  1  0
  8 26  1  0
  8 27  1  0
 10 28  1  0
 10 29  1  0
 11 30  1  0
 11 31  1  0
 12 32  1  0
 12 33  1  0
 13 34  1  0
 14 35  1  0
 22 36  1  0
M  ISO  8  24  13  25  13  26  13  27  13  28  13  29  13  30  13  31  13
M  ISO  5  32   8  33   8  34  14  35  14  36  14
M  END
>  <minimizedAffinity>  (1) 
-4.88050365

>  <minimizedRMSD>  (1) 
1.28494608

$$$$
