
     RDKit          3D

 43 45  0  0  0  0  0  0  0  0999 V2000
   38.6270   26.0800   34.6790 C   0  0  0  0  0  0  0  0  0  0  0  0
   39.5660   27.0580   34.7930 N   0  0  0  0  0  0  0  0  0  0  0  0
   40.1700   27.1600   33.6340 O   0  0  0  0  0  0  0  0  0  0  0  0
   39.6430   26.2820   32.8000 C   0  0  0  0  0  0  0  0  0  0  0  0
   38.6690   25.5840   33.4230 N   0  0  0  0  0  0  0  0  0  0  0  0
   40.2330   26.3010   31.4820 N   0  0  0  0  0  0  0  0  0  0  0  0
   40.6200   27.6150   31.0240 C   0  0  0  0  0  0  0  0  0  0  0  0
   42.0600   27.4940   30.5280 C   0  0  0  0  0  0  0  0  0  0  0  0
   42.0460   26.5550   29.4790 O   0  0  0  0  0  0  0  0  0  0  0  0
   41.8520   25.2930   30.0190 C   0  0  0  0  0  0  0  0  0  0  0  0
   40.4660   25.1840   30.6080 C   0  0  0  0  0  0  0  0  0  0  0  0
   37.6840   25.5860   35.7060 C   0  0  0  0  0  0  0  0  0  0  0  0
   38.6990   23.3840   38.5940 C   0  0  0  0  0  0  0  0  0  0  0  0
   37.9540   24.3130   37.8720 C   0  0  0  0  0  0  0  0  0  0  0  0
   38.4100   24.6000   36.5750 C   0  0  0  0  0  0  0  0  0  0  0  0
   39.5300   23.9780   36.0870 N   0  0  0  0  0  0  0  0  0  0  0  0
   40.2080   23.0850   36.8420 C   0  0  0  0  0  0  0  0  0  0  0  0
   39.7840   22.7940   38.0960 N   0  0  0  0  0  0  0  0  0  0  0  0
   41.4240   22.3850   36.3640 C   0  0  0  0  0  0  0  0  0  0  0  0
   41.7230   21.2400   37.2940 C   0  0  0  0  0  0  0  0  0  0  0  0
   41.2840   21.9240   34.9300 C   0  0  0  0  0  0  0  0  0  0  0  0
   42.5950   23.3440   36.4050 C   0  0  0  0  0  0  0  0  0  0  0  0
   39.9620   27.9412   30.2051 H   0  0  0  0  0  0  0  0  0  0  0  0
   40.5380   28.3580   31.8310 H   0  0  0  0  0  0  0  0  0  0  0  0
   42.4184   28.4673   30.1615 H   0  0  0  0  0  0  0  0  0  0  0  0
   42.7331   27.1749   31.3374 H   0  0  0  0  0  0  0  0  0  0  0  0
   41.9710   24.5375   29.2284 H   0  0  0  0  0  0  0  0  0  0  0  0
   42.5935   25.1255   30.8141 H   0  0  0  0  0  0  0  0  0  0  0  0
   39.7212   25.1890   29.7986 H   0  0  0  0  0  0  0  0  0  0  0  0
   40.3796   24.2464   31.1767 H   0  0  0  0  0  0  0  0  0  0  0  0
   37.3250   26.4272   36.3172 H   0  0  0  0  0  0  0  0  0  0  0  0
   36.8187   25.1047   35.2268 H   0  0  0  0  0  0  0  0  0  0  0  0
   38.3790   23.1277   39.6147 H   0  0  0  0  0  0  0  0  0  0  0  0
   37.0594   24.7946   38.2935 H   0  0  0  0  0  0  0  0  0  0  0  0
   41.6339   21.5811   38.3360 H   0  0  0  0  0  0  0  0  0  0  0  0
   41.0078   20.4241   37.1129 H   0  0  0  0  0  0  0  0  0  0  0  0
   42.7458   20.8780   37.1129 H   0  0  0  0  0  0  0  0  0  0  0  0
   40.9644   20.8716   34.9127 H   0  0  0  0  0  0  0  0  0  0  0  0
   40.5335   22.5436   34.4173 H   0  0  0  0  0  0  0  0  0  0  0  0
   42.2523   22.0216   34.4173 H   0  0  0  0  0  0  0  0  0  0  0  0
   42.8568   23.5584   37.4516 H   0  0  0  0  0  0  0  0  0  0  0  0
   43.4585   22.8903   35.8966 H   0  0  0  0  0  0  0  0  0  0  0  0
   42.3204   24.2800   35.8966 H   0  0  0  0  0  0  0  0  0  0  0  0
  1  2  2  0
  1 12  1  0
  3  2  1  0
  4  5  2  0
  4  3  1  0
  5  1  1  0
  6  4  1  0
  7  6  1  0
  8  7  1  0
  9 10  1  0
  9  8  1  0
 10 11  1  0
 11  6  1  0
 12 15  1  0
 14 13  2  0
 15 14  1  0
 16 15  2  0
 16 17  1  0
 17 18  2  0
 18 13  1  0
 19 22  1  0
 19 17  1  0
 19 20  1  0
 21 19  1  0
  7 23  1  0
  7 24  1  0
  8 25  1  0
  8 26  1  0
 10 27  1  0
 10 28  1  0
 11 29  1  0
 11 30  1  0
 12 31  1  0
 12 32  1  0
 13 33  1  0
 14 34  1  0
 20 35  1  0
 20 36  1  0
 20 37  1  0
 21 38  1  0
 21 39  1  0
 21 40  1  0
 22 41  1  0
 22 42  1  0
 22 43  1  0
M  ISO  8  23  13  24  13  25  13  26  13  27  13  28  13  29  13  30  13
M  ISO  8  31   8  32   8  33  14  34  14  35   8  36   8  37   8  38   8
M  ISO  5  39   8  40   8  41   8  42   8  43   8
M  END
>  <minimizedAffinity>  (1) 
-4.7869668

>  <minimizedRMSD>  (1) 
3.6501174

$$$$
