
     RDKit          3D

 38 41  0  0  0  0  0  0  0  0999 V2000
   40.4360   26.1410   34.4330 C   0  0  0  0  0  0  0  0  0  0  0  0
   40.8680   27.3440   33.9450 N   0  0  0  0  0  0  0  0  0  0  0  0
   42.1680   27.3380   33.9710 O   0  0  0  0  0  0  0  0  0  0  0  0
   42.5830   26.1790   34.4570 C   0  0  0  0  0  0  0  0  0  0  0  0
   41.5230   25.3800   34.7670 N   0  0  0  0  0  0  0  0  0  0  0  0
   44.0160   26.0510   34.5370 N   0  0  0  0  0  0  0  0  0  0  0  0
   44.7270   26.6600   33.4290 C   0  0  0  0  0  0  0  0  0  0  0  0
   45.8100   27.5440   34.0640 C   0  0  0  0  0  0  0  0  0  0  0  0
   46.6410   26.6770   34.8060 O   0  0  0  0  0  0  0  0  0  0  0  0
   45.9510   26.2870   35.9460 C   0  0  0  0  0  0  0  0  0  0  0  0
   44.8030   25.4020   35.5630 C   0  0  0  0  0  0  0  0  0  0  0  0
   39.0460   25.6630   34.6060 C   0  0  0  0  0  0  0  0  0  0  0  0
   38.1050   23.8590   37.7890 C   0  0  0  0  0  0  0  0  0  0  0  0
   38.0550   24.7850   36.7460 C   0  0  0  0  0  0  0  0  0  0  0  0
   39.0250   24.7150   35.7540 C   0  0  0  0  0  0  0  0  0  0  0  0
   39.9770   23.7370   35.8600 N   0  0  0  0  0  0  0  0  0  0  0  0
   39.9960   22.8570   36.8830 C   0  0  0  0  0  0  0  0  0  0  0  0
   39.0620   22.9240   37.8390 N   0  0  0  0  0  0  0  0  0  0  0  0
   41.0780   21.9330   36.7810 N   0  0  0  0  0  0  0  0  0  0  0  0
   41.4500   21.4880   35.5670 C   0  0  0  0  0  0  0  0  0  0  0  0
   42.5030   20.6240   35.7850 C   0  0  0  0  0  0  0  0  0  0  0  0
   42.7470   20.5590   37.1080 N   0  0  0  0  0  0  0  0  0  0  0  0
   41.8540   21.3810   37.7340 C   0  0  0  0  0  0  0  0  0  0  0  0
   44.0413   27.2699   32.8225 H   0  0  0  0  0  0  0  0  0  0  0  0
   45.1624   25.9021   32.7611 H   0  0  0  0  0  0  0  0  0  0  0  0
   46.3923   28.0542   33.2826 H   0  0  0  0  0  0  0  0  0  0  0  0
   45.3681   28.3214   34.7046 H   0  0  0  0  0  0  0  0  0  0  0  0
   46.6299   25.7369   36.6142 H   0  0  0  0  0  0  0  0  0  0  0  0
   45.5671   27.1789   36.4628 H   0  0  0  0  0  0  0  0  0  0  0  0
   44.1732   25.2157   36.4454 H   0  0  0  0  0  0  0  0  0  0  0  0
   45.1888   24.4458   35.1797 H   0  0  0  0  0  0  0  0  0  0  0  0
   38.3814   26.5147   34.8130 H   0  0  0  0  0  0  0  0  0  0  0  0
   38.6973   25.1625   33.6906 H   0  0  0  0  0  0  0  0  0  0  0  0
   37.3452   23.8980   38.5835 H   0  0  0  0  0  0  0  0  0  0  0  0
   37.2668   25.5515   36.7103 H   0  0  0  0  0  0  0  0  0  0  0  0
   41.0051   21.7581   34.5980 H   0  0  0  0  0  0  0  0  0  0  0  0
   43.0537   20.0772   35.0054 H   0  0  0  0  0  0  0  0  0  0  0  0
   41.7816   21.5595   38.8170 H   0  0  0  0  0  0  0  0  0  0  0  0
  1 12  1  0
  1  5  1  0
  2  3  1  0
  2  1  2  0
  3  4  1  0
  4  6  1  0
  4  5  2  0
  6 11  1  0
  7  8  1  0
  7  6  1  0
  8  9  1  0
  9 10  1  0
 11 10  1  0
 12 15  1  0
 13 18  2  0
 14 13  1  0
 15 16  1  0
 15 14  2  0
 16 17  2  0
 17 18  1  0
 19 17  1  0
 19 23  1  0
 20 21  2  0
 20 19  1  0
 21 22  1  0
 22 23  2  0
  7 24  1  0
  7 25  1  0
  8 26  1  0
  8 27  1  0
 10 28  1  0
 10 29  1  0
 11 30  1  0
 11 31  1  0
 12 32  1  0
 12 33  1  0
 13 34  1  0
 14 35  1  0
 20 36  1  0
 21 37  1  0
 23 38  1  0
M  ISO  8  24  13  25  13  26  13  27  13  28  13  29  13  30  13  31  13
M  ISO  7  32   8  33   8  34  14  35  14  36  14  37  14  38  14
M  END
>  <minimizedAffinity>  (1) 
-4.74742317

>  <minimizedRMSD>  (1) 
1.0967592

$$$$
