
     RDKit          3D

 38 41  0  0  0  0  0  0  0  0999 V2000
   40.1790   25.8380   34.4620 C   0  0  0  0  0  0  0  0  0  0  0  0
   40.4530   27.1410   34.1590 N   0  0  0  0  0  0  0  0  0  0  0  0
   41.7610   27.2510   34.1560 O   0  0  0  0  0  0  0  0  0  0  0  0
   42.2990   26.0870   34.4400 C   0  0  0  0  0  0  0  0  0  0  0  0
   41.3450   25.1440   34.6460 N   0  0  0  0  0  0  0  0  0  0  0  0
   43.7500   26.0970   34.4620 N   0  0  0  0  0  0  0  0  0  0  0  0
   44.3360   26.9470   33.4540 C   0  0  0  0  0  0  0  0  0  0  0  0
   45.3650   27.8220   34.1970 C   0  0  0  0  0  0  0  0  0  0  0  0
   46.2960   26.9480   34.7750 O   0  0  0  0  0  0  0  0  0  0  0  0
   45.6930   26.3180   35.8520 C   0  0  0  0  0  0  0  0  0  0  0  0
   44.6280   25.3760   35.3530 C   0  0  0  0  0  0  0  0  0  0  0  0
   38.8550   25.1830   34.5940 C   0  0  0  0  0  0  0  0  0  0  0  0
   37.8160   23.8170   37.9590 C   0  0  0  0  0  0  0  0  0  0  0  0
   37.7580   24.5540   36.7750 C   0  0  0  0  0  0  0  0  0  0  0  0
   38.8250   24.4390   35.8800 C   0  0  0  0  0  0  0  0  0  0  0  0
   39.8640   23.6120   36.2140 N   0  0  0  0  0  0  0  0  0  0  0  0
   39.8760   22.9190   37.3720 C   0  0  0  0  0  0  0  0  0  0  0  0
   38.8660   23.0130   38.2430 N   0  0  0  0  0  0  0  0  0  0  0  0
   41.0380   22.0520   37.6450 C   0  0  0  0  0  0  0  0  0  0  0  0
   41.5030   21.1370   36.4870 C   0  0  0  0  0  0  0  0  0  0  0  0
   42.3400   22.3070   36.9180 C   0  0  0  0  0  0  0  0  0  0  0  0
   43.5643   27.5756   32.9857 H   0  0  0  0  0  0  0  0  0  0  0  0
   44.8050   26.3611   32.6498 H   0  0  0  0  0  0  0  0  0  0  0  0
   45.8682   28.4981   33.4901 H   0  0  0  0  0  0  0  0  0  0  0  0
   44.8766   28.4421   34.9631 H   0  0  0  0  0  0  0  0  0  0  0  0
   46.4490   25.7511   36.4151 H   0  0  0  0  0  0  0  0  0  0  0  0
   45.2356   27.0729   36.5084 H   0  0  0  0  0  0  0  0  0  0  0  0
   44.0513   24.9854   36.2044 H   0  0  0  0  0  0  0  0  0  0  0  0
   45.0935   24.5344   34.8192 H   0  0  0  0  0  0  0  0  0  0  0  0
   38.0615   25.9448   34.5871 H   0  0  0  0  0  0  0  0  0  0  0  0
   38.6901   24.4921   33.7541 H   0  0  0  0  0  0  0  0  0  0  0  0
   36.9875   23.8919   38.6787 H   0  0  0  0  0  0  0  0  0  0  0  0
   36.8994   25.2049   36.5534 H   0  0  0  0  0  0  0  0  0  0  0  0
   40.7589   21.9287   38.7018 H   0  0  0  0  0  0  0  0  0  0  0  0
   40.9781   21.1607   35.5206 H   0  0  0  0  0  0  0  0  0  0  0  0
   41.6739   20.0572   36.3653 H   0  0  0  0  0  0  0  0  0  0  0  0
   43.2956   22.1328   37.4342 H   0  0  0  0  0  0  0  0  0  0  0  0
   42.7711   23.1751   36.3978 H   0  0  0  0  0  0  0  0  0  0  0  0
  1 12  1  0
  1  5  1  0
  2  1  2  0
  3  2  1  0
  3  4  1  0
  4  6  1  0
  4  5  2  0
  6 11  1  0
  7  8  1  0
  7  6  1  0
  8  9  1  0
  9 10  1  0
 11 10  1  0
 12 15  1  0
 13 18  2  0
 14 13  1  0
 15 16  1  0
 15 14  2  0
 16 17  2  0
 17 19  1  0
 17 18  1  0
 20 21  1  0
 20 19  1  0
 21 19  1  0
  7 22  1  0
  7 23  1  0
  8 24  1  0
  8 25  1  0
 10 26  1  0
 10 27  1  0
 11 28  1  0
 11 29  1  0
 12 30  1  0
 12 31  1  0
 13 32  1  0
 14 33  1  0
 19 34  1  0
 20 35  1  0
 20 36  1  0
 21 37  1  0
 21 38  1  0
M  ISO  8  22  13  23  13  24  13  25  13  26  13  27  13  28  13  29  13
M  ISO  8  30   8  31   8  32  14  33  14  34  13  35  13  36  13  37  13
M  ISO  1  38  13
M  END
>  <minimizedAffinity>  (1) 
-4.70198536

>  <minimizedRMSD>  (1) 
0.59345305

$$$$
