
     RDKit          3D

 33 35  0  0  0  0  0  0  0  0999 V2000
   42.3270   25.2980   34.2650 C   0  0  0  0  0  0  0  0  0  0  0  0
   43.3390   26.0200   33.7170 N   0  0  0  0  0  0  0  0  0  0  0  0
   44.3400   25.9810   34.5570 O   0  0  0  0  0  0  0  0  0  0  0  0
   43.9940   25.2650   35.6060 C   0  0  0  0  0  0  0  0  0  0  0  0
   42.7230   24.8100   35.4670 N   0  0  0  0  0  0  0  0  0  0  0  0
   45.0300   25.1490   36.6120 N   0  0  0  0  0  0  0  0  0  0  0  0
   46.3640   25.0680   36.0690 C   0  0  0  0  0  0  0  0  0  0  0  0
   47.1950   26.1030   36.8340 C   0  0  0  0  0  0  0  0  0  0  0  0
   47.1490   25.7140   38.1890 O   0  0  0  0  0  0  0  0  0  0  0  0
   45.8780   26.0300   38.6760 C   0  0  0  0  0  0  0  0  0  0  0  0
   44.8760   25.1100   38.0390 C   0  0  0  0  0  0  0  0  0  0  0  0
   40.9780   25.0360   33.7120 C   0  0  0  0  0  0  0  0  0  0  0  0
   38.7470   27.2160   35.8320 C   0  0  0  0  0  0  0  0  0  0  0  0
   39.7250   26.8700   34.8770 C   0  0  0  0  0  0  0  0  0  0  0  0
   39.9660   25.5040   34.6970 C   0  0  0  0  0  0  0  0  0  0  0  0
   39.2680   24.5810   35.4280 N   0  0  0  0  0  0  0  0  0  0  0  0
   38.3370   24.9830   36.3340 C   0  0  0  0  0  0  0  0  0  0  0  0
   38.0780   26.2770   36.5360 N   0  0  0  0  0  0  0  0  0  0  0  0
   37.6000   23.9970   37.1080 C   0  0  0  0  0  0  0  0  0  0  0  0
   37.4660   22.8100   36.7160 O   0  0  0  0  0  0  0  0  0  0  0  0
   46.7772   24.0596   36.2191 H   0  0  0  0  0  0  0  0  0  0  0  0
   46.3712   25.2657   34.9869 H   0  0  0  0  0  0  0  0  0  0  0  0
   48.2335   26.1029   36.4714 H   0  0  0  0  0  0  0  0  0  0  0  0
   46.8005   27.1201   36.6932 H   0  0  0  0  0  0  0  0  0  0  0  0
   45.8574   25.9007   39.7682 H   0  0  0  0  0  0  0  0  0  0  0  0
   45.6335   27.0751   38.4352 H   0  0  0  0  0  0  0  0  0  0  0  0
   43.8593   25.4331   38.3070 H   0  0  0  0  0  0  0  0  0  0  0  0
   45.0410   24.0833   38.3977 H   0  0  0  0  0  0  0  0  0  0  0  0
   40.8531   25.5804   32.7643 H   0  0  0  0  0  0  0  0  0  0  0  0
   40.8504   23.9600   33.5223 H   0  0  0  0  0  0  0  0  0  0  0  0
   38.5229   28.2784   36.0084 H   0  0  0  0  0  0  0  0  0  0  0  0
   40.2699   27.6343   34.3036 H   0  0  0  0  0  0  0  0  0  0  0  0
   37.1467   24.2983   38.0639 H   0  0  0  0  0  0  0  0  0  0  0  0
  1  5  1  0
  2  1  2  0
  2  3  1  0
  3  4  1  0
  4  6  1  0
  5  4  2  0
  6 11  1  0
  7  6  1  0
  7  8  1  0
  8  9  1  0
  9 10  1  0
 11 10  1  0
 12  1  1  0
 12 15  1  0
 13 18  2  0
 14 13  1  0
 15 14  2  0
 15 16  1  0
 16 17  2  0
 17 18  1  0
 17 19  1  0
 20 19  2  0
  7 21  1  0
  7 22  1  0
  8 23  1  0
  8 24  1  0
 10 25  1  0
 10 26  1  0
 11 27  1  0
 11 28  1  0
 12 29  1  0
 12 30  1  0
 13 31  1  0
 14 32  1  0
 19 33  1  0
M  ISO  8  21  13  22  13  23  13  24  13  25  13  26  13  27  13  28  13
M  ISO  5  29   8  30   8  31  14  32  14  33   6
M  END
>  <minimizedAffinity>  (1) 
-4.52418089

>  <minimizedRMSD>  (1) 
3.02110553

$$$$
