
     RDKit          3D

 43 46  0  0  0  0  0  0  0  0999 V2000
   39.0190   25.4520   33.9040 C   0  0  0  0  0  0  0  0  0  0  0  0
   39.3120   26.7320   34.2640 N   0  0  0  0  0  0  0  0  0  0  0  0
   40.2480   27.1600   33.4620 O   0  0  0  0  0  0  0  0  0  0  0  0
   40.5520   26.1970   32.6110 C   0  0  0  0  0  0  0  0  0  0  0  0
   39.7990   25.0920   32.8510 N   0  0  0  0  0  0  0  0  0  0  0  0
   41.5860   26.5500   31.6610 N   0  0  0  0  0  0  0  0  0  0  0  0
   41.5390   27.9210   31.2190 C   0  0  0  0  0  0  0  0  0  0  0  0
   42.9680   28.4730   31.4100 C   0  0  0  0  0  0  0  0  0  0  0  0
   43.7910   27.6950   30.5810 O   0  0  0  0  0  0  0  0  0  0  0  0
   43.9370   26.4390   31.1710 C   0  0  0  0  0  0  0  0  0  0  0  0
   42.6220   25.7040   31.1260 C   0  0  0  0  0  0  0  0  0  0  0  0
   38.0300   24.5370   34.5060 C   0  0  0  0  0  0  0  0  0  0  0  0
   38.4680   23.4960   38.1080 C   0  0  0  0  0  0  0  0  0  0  0  0
   37.8550   24.0250   36.9680 C   0  0  0  0  0  0  0  0  0  0  0  0
   38.5970   23.9980   35.7730 C   0  0  0  0  0  0  0  0  0  0  0  0
   39.8780   23.4600   35.7710 N   0  0  0  0  0  0  0  0  0  0  0  0
   40.3910   22.9720   36.9160 C   0  0  0  0  0  0  0  0  0  0  0  0
   39.7080   22.9860   38.0650 N   0  0  0  0  0  0  0  0  0  0  0  0
   41.7030   22.4240   36.9030 N   0  0  0  0  0  0  0  0  0  0  0  0
   42.9790   23.1060   36.8450 C   0  0  0  0  0  0  0  0  0  0  0  0
   43.6390   22.3460   35.6890 C   0  0  0  0  0  0  0  0  0  0  0  0
   43.2910   20.9230   36.0590 C   0  0  0  0  0  0  0  0  0  0  0  0
   42.0710   21.0210   36.9490 C   0  0  0  0  0  0  0  0  0  0  0  0
   40.8224   28.4947   31.8252 H   0  0  0  0  0  0  0  0  0  0  0  0
   41.2116   27.9980   30.1717 H   0  0  0  0  0  0  0  0  0  0  0  0
   43.0134   29.5307   31.1114 H   0  0  0  0  0  0  0  0  0  0  0  0
   43.2859   28.4200   32.4617 H   0  0  0  0  0  0  0  0  0  0  0  0
   44.6973   25.8631   30.6230 H   0  0  0  0  0  0  0  0  0  0  0  0
   44.2518   26.5612   32.2179 H   0  0  0  0  0  0  0  0  0  0  0  0
   42.3822   25.4430   30.0847 H   0  0  0  0  0  0  0  0  0  0  0  0
   42.6930   24.7841   31.7250 H   0  0  0  0  0  0  0  0  0  0  0  0
   37.0995   25.0838   34.7186 H   0  0  0  0  0  0  0  0  0  0  0  0
   37.8063   23.7134   33.8120 H   0  0  0  0  0  0  0  0  0  0  0  0
   37.9207   23.4981   39.0622 H   0  0  0  0  0  0  0  0  0  0  0  0
   36.8383   24.4434   37.0039 H   0  0  0  0  0  0  0  0  0  0  0  0
   42.8597   24.1750   36.6146 H   0  0  0  0  0  0  0  0  0  0  0  0
   43.5486   23.1009   37.7860 H   0  0  0  0  0  0  0  0  0  0  0  0
   44.7272   22.5052   35.6674 H   0  0  0  0  0  0  0  0  0  0  0  0
   43.3033   22.6539   34.6878 H   0  0  0  0  0  0  0  0  0  0  0  0
   43.0622   20.3366   35.1569 H   0  0  0  0  0  0  0  0  0  0  0  0
   44.1261   20.4186   36.5670 H   0  0  0  0  0  0  0  0  0  0  0  0
   42.3139   20.7157   37.9775 H   0  0  0  0  0  0  0  0  0  0  0  0
   41.2552   20.3622   36.6165 H   0  0  0  0  0  0  0  0  0  0  0  0
  1  2  2  0
  1 12  1  0
  3  2  1  0
  4  5  2  0
  4  3  1  0
  5  1  1  0
  6  4  1  0
  7  8  1  0
  7  6  1  0
  9 10  1  0
  9  8  1  0
 11 10  1  0
 11  6  1  0
 12 15  1  0
 14 13  2  0
 15 14  1  0
 16 15  2  0
 16 17  1  0
 17 18  2  0
 18 13  1  0
 19 17  1  0
 19 23  1  0
 20 19  1  0
 21 22  1  0
 21 20  1  0
 22 23  1  0
  7 24  1  0
  7 25  1  0
  8 26  1  0
  8 27  1  0
 10 28  1  0
 10 29  1  0
 11 30  1  0
 11 31  1  0
 12 32  1  0
 12 33  1  0
 13 34  1  0
 14 35  1  0
 20 36  1  0
 20 37  1  0
 21 38  1  0
 21 39  1  0
 22 40  1  0
 22 41  1  0
 23 42  1  0
 23 43  1  0
M  ISO  8  24  13  25  13  26  13  27  13  28  13  29  13  30  13  31  13
M  ISO  8  32   8  33   8  34  14  35  14  36  13  37  13  38  13  39  13
M  ISO  4  40  13  41  13  42  13  43  13
M  END
>  <minimizedAffinity>  (1) 
-4.29381227

>  <minimizedRMSD>  (1) 
2.8921175

$$$$
