
     RDKit          3D

 49 52  0  0  0  0  0  0  0  0999 V2000
   41.3930   25.2400   34.3270 C   0  0  0  0  0  0  0  0  0  0  0  0
   41.8650   26.5180   34.2180 N   0  0  0  0  0  0  0  0  0  0  0  0
   43.1240   26.4850   34.5380 O   0  0  0  0  0  0  0  0  0  0  0  0
   43.4560   25.2350   34.8430 C   0  0  0  0  0  0  0  0  0  0  0  0
   42.3970   24.4160   34.7230 N   0  0  0  0  0  0  0  0  0  0  0  0
   44.8460   25.0900   35.2160 N   0  0  0  0  0  0  0  0  0  0  0  0
   45.7590   25.9130   34.4760 C   0  0  0  0  0  0  0  0  0  0  0  0
   46.6170   26.6370   35.5470 C   0  0  0  0  0  0  0  0  0  0  0  0
   47.2980   25.6290   36.2350 O   0  0  0  0  0  0  0  0  0  0  0  0
   46.3740   25.0100   37.0780 C   0  0  0  0  0  0  0  0  0  0  0  0
   45.4040   24.2190   36.2360 C   0  0  0  0  0  0  0  0  0  0  0  0
   40.0130   24.7290   34.0730 C   0  0  0  0  0  0  0  0  0  0  0  0
   37.7710   24.1690   37.0660 C   0  0  0  0  0  0  0  0  0  0  0  0
   38.2140   24.6970   35.8340 C   0  0  0  0  0  0  0  0  0  0  0  0
   39.4370   24.2490   35.3520 C   0  0  0  0  0  0  0  0  0  0  0  0
   40.1630   23.3230   36.0810 N   0  0  0  0  0  0  0  0  0  0  0  0
   39.6770   22.8580   37.2600 C   0  0  0  0  0  0  0  0  0  0  0  0
   38.4880   23.2820   37.7450 N   0  0  0  0  0  0  0  0  0  0  0  0
   40.3740   21.9030   38.0580 N   0  0  0  0  0  0  0  0  0  0  0  0
   37.4040   25.6690   35.1010 C   0  0  0  0  0  0  0  0  0  0  0  0
   37.3920   25.4990   33.6090 C   0  0  0  0  0  0  0  0  0  0  0  0
   37.8350   26.7280   32.8470 C   0  0  0  0  0  0  0  0  0  0  0  0
   37.1790   27.9960   33.2610 C   0  0  0  0  0  0  0  0  0  0  0  0
   37.0220   28.0410   34.7460 C   0  0  0  0  0  0  0  0  0  0  0  0
   38.0350   27.0530   35.3430 C   0  0  0  0  0  0  0  0  0  0  0  0
   46.3954   25.2945   33.8260 H   0  0  0  0  0  0  0  0  0  0  0  0
   45.2328   26.6242   33.8223 H   0  0  0  0  0  0  0  0  0  0  0  0
   47.3308   27.3224   35.0667 H   0  0  0  0  0  0  0  0  0  0  0  0
   45.9945   27.2399   36.2245 H   0  0  0  0  0  0  0  0  0  0  0  0
   46.8988   24.3352   37.7702 H   0  0  0  0  0  0  0  0  0  0  0  0
   45.8315   25.7691   37.6607 H   0  0  0  0  0  0  0  0  0  0  0  0
   44.5952   23.8300   36.8720 H   0  0  0  0  0  0  0  0  0  0  0  0
   45.9257   23.3754   35.7605 H   0  0  0  0  0  0  0  0  0  0  0  0
   39.3882   25.5383   33.6671 H   0  0  0  0  0  0  0  0  0  0  0  0
   40.0484   23.9037   33.3466 H   0  0  0  0  0  0  0  0  0  0  0  0
   36.8053   24.5017   37.4744 H   0  0  0  0  0  0  0  0  0  0  0  0
   39.9662   21.5785   38.9464 H   0  0  0  0  0  0  0  0  0  0  0  0
   41.2851   21.5379   37.7458 H   0  0  0  0  0  0  0  0  0  0  0  0
   36.3733   25.5389   35.4625 H   0  0  0  0  0  0  0  0  0  0  0  0
   38.0663   24.6694   33.3498 H   0  0  0  0  0  0  0  0  0  0  0  0
   36.3491   25.3031   33.3191 H   0  0  0  0  0  0  0  0  0  0  0  0
   37.6188   26.5645   31.7809 H   0  0  0  0  0  0  0  0  0  0  0  0
   38.9066   26.8526   33.0621 H   0  0  0  0  0  0  0  0  0  0  0  0
   37.7965   28.8464   32.9360 H   0  0  0  0  0  0  0  0  0  0  0  0
   36.1839   28.0513   32.7954 H   0  0  0  0  0  0  0  0  0  0  0  0
   37.2248   29.0571   35.1153 H   0  0  0  0  0  0  0  0  0  0  0  0
   35.9964   27.7705   35.0373 H   0  0  0  0  0  0  0  0  0  0  0  0
   38.1709   27.2366   36.4190 H   0  0  0  0  0  0  0  0  0  0  0  0
   39.0318   27.1461   34.8873 H   0  0  0  0  0  0  0  0  0  0  0  0
  1  5  1  0
  2  1  2  0
  2  3  1  0
  3  4  1  0
  4  6  1  0
  5  4  2  0
  6 11  1  0
  7  6  1  0
  7  8  1  0
  8  9  1  0
  9 10  1  0
 11 10  1  0
 12  1  1  0
 12 15  1  0
 13 18  2  0
 14 13  1  0
 15 14  2  0
 15 16  1  0
 16 17  2  0
 17 18  1  0
 17 19  1  0
 20 25  1  0
 20 14  1  0
 21 20  1  0
 22 23  1  0
 22 21  1  0
 23 24  1  0
 24 25  1  0
  7 26  1  0
  7 27  1  0
  8 28  1  0
  8 29  1  0
 10 30  1  0
 10 31  1  0
 11 32  1  0
 11 33  1  0
 12 34  1  0
 12 35  1  0
 13 36  1  0
 19 37  1  0
 19 38  1  0
 20 39  1  0
 21 40  1  0
 21 41  1  0
 22 42  1  0
 22 43  1  0
 23 44  1  0
 23 45  1  0
 24 46  1  0
 24 47  1  0
 25 48  1  0
 25 49  1  0
M  ISO  8  26  13  27  13  28  13  29  13  30  13  31  13  32  13  33  13
M  ISO  8  34   8  35   8  36  14  39  13  40  13  41  13  42  13  43  13
M  ISO  6  44  13  45  13  46  13  47  13  48  13  49  13
M  END
>  <minimizedAffinity>  (1) 
-5.75229168

>  <minimizedRMSD>  (1) 
1.68907452

$$$$
