
     RDKit          3D

 46 49  0  0  0  0  0  0  0  0999 V2000
   43.3280   24.6960   34.7650 C   0  0  0  0  0  0  0  0  0  0  0  0
   43.5650   25.9900   35.1070 N   0  0  0  0  0  0  0  0  0  0  0  0
   44.7530   26.0500   35.6430 O   0  0  0  0  0  0  0  0  0  0  0  0
   45.2720   24.8290   35.6500 C   0  0  0  0  0  0  0  0  0  0  0  0
   44.4130   23.9300   35.1050 N   0  0  0  0  0  0  0  0  0  0  0  0
   46.6020   24.7720   36.2280 N   0  0  0  0  0  0  0  0  0  0  0  0
   47.4310   25.9100   35.9160 C   0  0  0  0  0  0  0  0  0  0  0  0
   48.0020   26.3870   37.2570 C   0  0  0  0  0  0  0  0  0  0  0  0
   48.7630   25.3250   37.7530 O   0  0  0  0  0  0  0  0  0  0  0  0
   47.8730   24.3530   38.2120 C   0  0  0  0  0  0  0  0  0  0  0  0
   47.1740   23.7320   37.0550 C   0  0  0  0  0  0  0  0  0  0  0  0
   42.1550   24.0590   34.1260 C   0  0  0  0  0  0  0  0  0  0  0  0
   39.0910   23.8870   36.3520 C   0  0  0  0  0  0  0  0  0  0  0  0
   39.9100   24.3410   35.3210 C   0  0  0  0  0  0  0  0  0  0  0  0
   41.1540   23.7080   35.1820 C   0  0  0  0  0  0  0  0  0  0  0  0
   41.5180   22.6880   36.0410 N   0  0  0  0  0  0  0  0  0  0  0  0
   40.6480   22.3040   37.0300 C   0  0  0  0  0  0  0  0  0  0  0  0
   39.4580   22.9020   37.1730 N   0  0  0  0  0  0  0  0  0  0  0  0
   40.9160   21.2780   37.9630 N   0  0  0  0  0  0  0  0  0  0  0  0
   39.5610   25.4380   34.3870 C   0  0  0  0  0  0  0  0  0  0  0  0
   38.0690   25.5780   34.1940 C   0  0  0  0  0  0  0  0  0  0  0  0
   37.6900   26.2030   35.5450 C   0  0  0  0  0  0  0  0  0  0  0  0
   38.7620   27.2910   35.7100 C   0  0  0  0  0  0  0  0  0  0  0  0
   39.9310   26.7920   34.9460 C   0  0  0  0  0  0  0  0  0  0  0  0
   48.2440   25.6173   35.2353 H   0  0  0  0  0  0  0  0  0  0  0  0
   46.8590   26.7035   35.4128 H   0  0  0  0  0  0  0  0  0  0  0  0
   48.6353   27.2741   37.1086 H   0  0  0  0  0  0  0  0  0  0  0  0
   47.2020   26.6700   37.9570 H   0  0  0  0  0  0  0  0  0  0  0  0
   48.4278   23.5793   38.7631 H   0  0  0  0  0  0  0  0  0  0  0  0
   47.1331   24.8200   38.8787 H   0  0  0  0  0  0  0  0  0  0  0  0
   46.3740   23.0714   37.4204 H   0  0  0  0  0  0  0  0  0  0  0  0
   47.8910   23.1435   36.4638 H   0  0  0  0  0  0  0  0  0  0  0  0
   41.7025   24.7575   33.4068 H   0  0  0  0  0  0  0  0  0  0  0  0
   42.4702   23.1481   33.5960 H   0  0  0  0  0  0  0  0  0  0  0  0
   38.1068   24.3573   36.4942 H   0  0  0  0  0  0  0  0  0  0  0  0
   40.2173   21.0398   38.6814 H   0  0  0  0  0  0  0  0  0  0  0  0
   41.8101   20.7680   37.9250 H   0  0  0  0  0  0  0  0  0  0  0  0
   40.0978   25.1746   33.4637 H   0  0  0  0  0  0  0  0  0  0  0  0
   37.8257   26.2434   33.3525 H   0  0  0  0  0  0  0  0  0  0  0  0
   37.5414   24.6447   33.9480 H   0  0  0  0  0  0  0  0  0  0  0  0
   36.6805   26.6389   35.5138 H   0  0  0  0  0  0  0  0  0  0  0  0
   37.6622   25.4805   36.3740 H   0  0  0  0  0  0  0  0  0  0  0  0
   38.4094   28.2478   35.2973 H   0  0  0  0  0  0  0  0  0  0  0  0
   39.0056   27.4762   36.7666 H   0  0  0  0  0  0  0  0  0  0  0  0
   40.8026   26.6990   35.6106 H   0  0  0  0  0  0  0  0  0  0  0  0
   40.1914   27.4887   34.1356 H   0  0  0  0  0  0  0  0  0  0  0  0
  1  5  1  0
  1  2  2  0
  2  3  1  0
  3  4  1  0
  4  6  1  0
  5  4  2  0
  6 11  1  0
  7  6  1  0
  7  8  1  0
  8  9  1  0
  9 10  1  0
 11 10  1  0
 12  1  1  0
 12 15  1  0
 13 18  2  0
 14 13  1  0
 15 14  2  0
 15 16  1  0
 16 17  2  0
 17 18  1  0
 17 19  1  0
 20 24  1  0
 20 14  1  0
 21 20  1  0
 21 22  1  0
 22 23  1  0
 24 23  1  0
  7 25  1  0
  7 26  1  0
  8 27  1  0
  8 28  1  0
 10 29  1  0
 10 30  1  0
 11 31  1  0
 11 32  1  0
 12 33  1  0
 12 34  1  0
 13 35  1  0
 19 36  1  0
 19 37  1  0
 20 38  1  0
 21 39  1  0
 21 40  1  0
 22 41  1  0
 22 42  1  0
 23 43  1  0
 23 44  1  0
 24 45  1  0
 24 46  1  0
M  ISO  8  25  13  26  13  27  13  28  13  29  13  30  13  31  13  32  13
M  ISO  8  33   8  34   8  35  14  38  13  39  13  40  13  41  13  42  13
M  ISO  4  43  13  44  13  45  13  46  13
M  END
>  <minimizedAffinity>  (1) 
-5.63736439

>  <minimizedRMSD>  (1) 
2.99362874

$$$$
