
     RDKit          3D

 38 41  0  0  0  0  0  0  0  0999 V2000
   41.1740   25.4670   34.0550 C   0  0  0  0  0  0  0  0  0  0  0  0
   41.2350   26.8180   34.0980 N   0  0  0  0  0  0  0  0  0  0  0  0
   42.4880   27.1630   34.1260 O   0  0  0  0  0  0  0  0  0  0  0  0
   43.2340   26.0630   34.1030 C   0  0  0  0  0  0  0  0  0  0  0  0
   42.4510   24.9650   34.0580 N   0  0  0  0  0  0  0  0  0  0  0  0
   44.6580   26.3240   34.1310 N   0  0  0  0  0  0  0  0  0  0  0  0
   45.0540   27.4930   33.3770 C   0  0  0  0  0  0  0  0  0  0  0  0
   45.9560   28.2980   34.3210 C   0  0  0  0  0  0  0  0  0  0  0  0
   47.0550   27.4680   34.5910 O   0  0  0  0  0  0  0  0  0  0  0  0
   46.6110   26.5020   35.4980 C   0  0  0  0  0  0  0  0  0  0  0  0
   45.6820   25.5720   34.8010 C   0  0  0  0  0  0  0  0  0  0  0  0
   40.0170   24.5330   34.0050 C   0  0  0  0  0  0  0  0  0  0  0  0
   38.3730   24.4070   37.4190 C   0  0  0  0  0  0  0  0  0  0  0  0
   38.6510   24.8640   36.1280 C   0  0  0  0  0  0  0  0  0  0  0  0
   39.6130   24.1810   35.3980 C   0  0  0  0  0  0  0  0  0  0  0  0
   40.2590   23.0930   35.9480 N   0  0  0  0  0  0  0  0  0  0  0  0
   39.9420   22.6930   37.2220 C   0  0  0  0  0  0  0  0  0  0  0  0
   39.0160   23.3420   37.9390 N   0  0  0  0  0  0  0  0  0  0  0  0
   40.5510   21.5910   37.8750 N   0  0  0  0  0  0  0  0  0  0  0  0
   37.9520   26.0300   35.5760 C   0  0  0  0  0  0  0  0  0  0  0  0
   38.2750   27.2370   36.0450 N   0  0  0  0  0  0  0  0  0  0  0  0
   37.5880   28.1540   35.4670 O   0  0  0  0  0  0  0  0  0  0  0  0
   36.8000   27.5670   34.6080 C   0  0  0  0  0  0  0  0  0  0  0  0
   37.0220   26.2530   34.6720 N   0  0  0  0  0  0  0  0  0  0  0  0
   45.6075   27.1990   32.4730 H   0  0  0  0  0  0  0  0  0  0  0  0
   44.1850   28.0785   33.0422 H   0  0  0  0  0  0  0  0  0  0  0  0
   46.2871   29.2280   33.8357 H   0  0  0  0  0  0  0  0  0  0  0  0
   45.4276   28.5865   35.2416 H   0  0  0  0  0  0  0  0  0  0  0  0
   47.4720   25.9393   35.8880 H   0  0  0  0  0  0  0  0  0  0  0  0
   46.0892   26.9902   36.3343 H   0  0  0  0  0  0  0  0  0  0  0  0
   45.2188   24.8980   35.5367 H   0  0  0  0  0  0  0  0  0  0  0  0
   46.2435   24.9816   34.0620 H   0  0  0  0  0  0  0  0  0  0  0  0
   39.1750   25.0169   33.4884 H   0  0  0  0  0  0  0  0  0  0  0  0
   40.3004   23.6207   33.4596 H   0  0  0  0  0  0  0  0  0  0  0  0
   37.6145   24.9264   38.0230 H   0  0  0  0  0  0  0  0  0  0  0  0
   40.2692   21.3404   38.8335 H   0  0  0  0  0  0  0  0  0  0  0  0
   41.2750   21.0413   37.3907 H   0  0  0  0  0  0  0  0  0  0  0  0
   36.0783   28.0684   33.9463 H   0  0  0  0  0  0  0  0  0  0  0  0
  1  5  1  0
  1  2  2  0
  2  3  1  0
  4  3  1  0
  4  6  1  0
  5  4  2  0
  6 11  1  0
  7  6  1  0
  7  8  1  0
  8  9  1  0
  9 10  1  0
 11 10  1  0
 12  1  1  0
 12 15  1  0
 13 18  2  0
 14 13  1  0
 15 16  1  0
 15 14  2  0
 16 17  2  0
 17 19  1  0
 17 18  1  0
 20 21  2  0
 20 14  1  0
 22 21  1  0
 23 24  2  0
 23 22  1  0
 24 20  1  0
  7 25  1  0
  7 26  1  0
  8 27  1  0
  8 28  1  0
 10 29  1  0
 10 30  1  0
 11 31  1  0
 11 32  1  0
 12 33  1  0
 12 34  1  0
 13 35  1  0
 19 36  1  0
 19 37  1  0
 23 38  1  0
M  ISO  8  25  13  26  13  27  13  28  13  29  13  30  13  31  13  32  13
M  ISO  4  33   8  34   8  35  14  38  14
M  END
>  <minimizedAffinity>  (1) 
-5.38523579

>  <minimizedRMSD>  (1) 
1.10974061

$$$$
