
     RDKit          3D

 40 43  0  0  0  0  0  0  0  0999 V2000
   41.2300   25.3490   34.0620 C   0  0  0  0  0  0  0  0  0  0  0  0
   41.2680   26.7130   34.0970 N   0  0  0  0  0  0  0  0  0  0  0  0
   42.5220   27.0490   34.1290 O   0  0  0  0  0  0  0  0  0  0  0  0
   43.2700   25.9640   34.1170 C   0  0  0  0  0  0  0  0  0  0  0  0
   42.5020   24.8450   34.0740 N   0  0  0  0  0  0  0  0  0  0  0  0
   44.6840   26.2320   34.1500 N   0  0  0  0  0  0  0  0  0  0  0  0
   45.0920   27.3850   33.3890 C   0  0  0  0  0  0  0  0  0  0  0  0
   45.9670   28.2260   34.3560 C   0  0  0  0  0  0  0  0  0  0  0  0
   47.0740   27.4130   34.6660 O   0  0  0  0  0  0  0  0  0  0  0  0
   46.6310   26.4320   35.5530 C   0  0  0  0  0  0  0  0  0  0  0  0
   45.7220   25.4920   34.8460 C   0  0  0  0  0  0  0  0  0  0  0  0
   40.0570   24.4350   34.0170 C   0  0  0  0  0  0  0  0  0  0  0  0
   38.5090   24.1960   37.4740 C   0  0  0  0  0  0  0  0  0  0  0  0
   38.7430   24.6690   36.1810 C   0  0  0  0  0  0  0  0  0  0  0  0
   39.7140   24.0270   35.4100 C   0  0  0  0  0  0  0  0  0  0  0  0
   40.3940   22.9650   35.9570 N   0  0  0  0  0  0  0  0  0  0  0  0
   40.1240   22.5520   37.2150 C   0  0  0  0  0  0  0  0  0  0  0  0
   39.1880   23.1660   37.9650 N   0  0  0  0  0  0  0  0  0  0  0  0
   40.7790   21.4630   37.8580 N   0  0  0  0  0  0  0  0  0  0  0  0
   38.0800   25.7620   35.5440 N   0  0  0  0  0  0  0  0  0  0  0  0
   37.2300   25.9870   34.5130 C   0  0  0  0  0  0  0  0  0  0  0  0
   37.0050   27.3490   34.4760 C   0  0  0  0  0  0  0  0  0  0  0  0
   37.6890   27.9500   35.4460 N   0  0  0  0  0  0  0  0  0  0  0  0
   38.3600   26.9700   36.1140 C   0  0  0  0  0  0  0  0  0  0  0  0
   45.6762   27.0785   32.5088 H   0  0  0  0  0  0  0  0  0  0  0  0
   44.2291   27.9559   33.0156 H   0  0  0  0  0  0  0  0  0  0  0  0
   46.2970   29.1543   33.8668 H   0  0  0  0  0  0  0  0  0  0  0  0
   45.4109   28.5193   35.2586 H   0  0  0  0  0  0  0  0  0  0  0  0
   47.4956   25.8779   35.9472 H   0  0  0  0  0  0  0  0  0  0  0  0
   46.0888   26.9088   36.3829 H   0  0  0  0  0  0  0  0  0  0  0  0
   45.2578   24.8147   35.5779 H   0  0  0  0  0  0  0  0  0  0  0  0
   46.3025   24.9105   34.1146 H   0  0  0  0  0  0  0  0  0  0  0  0
   39.2006   24.9542   33.5620 H   0  0  0  0  0  0  0  0  0  0  0  0
   40.2976   23.5463   33.4150 H   0  0  0  0  0  0  0  0  0  0  0  0
   37.7472   24.6864   38.0979 H   0  0  0  0  0  0  0  0  0  0  0  0
   40.5215   21.2031   38.8209 H   0  0  0  0  0  0  0  0  0  0  0  0
   41.5102   20.9353   37.3602 H   0  0  0  0  0  0  0  0  0  0  0  0
   36.8024   25.2318   33.8371 H   0  0  0  0  0  0  0  0  0  0  0  0
   36.3557   27.8616   33.7511 H   0  0  0  0  0  0  0  0  0  0  0  0
   39.0233   27.1278   36.9772 H   0  0  0  0  0  0  0  0  0  0  0  0
  1  5  1  0
  1  2  2  0
  2  3  1  0
  4  3  1  0
  4  6  1  0
  5  4  2  0
  6 11  1  0
  7  6  1  0
  7  8  1  0
  8  9  1  0
  9 10  1  0
 11 10  1  0
 12  1  1  0
 12 15  1  0
 13 18  2  0
 14 13  1  0
 15 16  1  0
 15 14  2  0
 16 17  2  0
 17 19  1  0
 17 18  1  0
 20 24  1  0
 20 14  1  0
 21 20  1  0
 22 21  2  0
 22 23  1  0
 23 24  2  0
  7 25  1  0
  7 26  1  0
  8 27  1  0
  8 28  1  0
 10 29  1  0
 10 30  1  0
 11 31  1  0
 11 32  1  0
 12 33  1  0
 12 34  1  0
 13 35  1  0
 19 36  1  0
 19 37  1  0
 21 38  1  0
 22 39  1  0
 24 40  1  0
M  ISO  8  25  13  26  13  27  13  28  13  29  13  30  13  31  13  32  13
M  ISO  6  33   8  34   8  35  14  38  14  39  14  40  14
M  END
>  <minimizedAffinity>  (1) 
-5.28328657

>  <minimizedRMSD>  (1) 
1.10786712

$$$$
