
     RDKit          3D

 36 38  0  0  0  0  0  0  0  0999 V2000
   40.9800   25.6420   34.1000 C   0  0  0  0  0  0  0  0  0  0  0  0
   41.1170   26.9840   34.0470 N   0  0  0  0  0  0  0  0  0  0  0  0
   42.3910   27.2490   34.0990 O   0  0  0  0  0  0  0  0  0  0  0  0
   43.0570   26.1010   34.1820 C   0  0  0  0  0  0  0  0  0  0  0  0
   42.2170   25.0500   34.1870 N   0  0  0  0  0  0  0  0  0  0  0  0
   44.5010   26.2630   34.2460 N   0  0  0  0  0  0  0  0  0  0  0  0
   45.0030   27.3430   33.4240 C   0  0  0  0  0  0  0  0  0  0  0  0
   45.9250   28.1590   34.3290 C   0  0  0  0  0  0  0  0  0  0  0  0
   46.9470   27.2960   34.7320 O   0  0  0  0  0  0  0  0  0  0  0  0
   46.4070   26.4230   35.6790 C   0  0  0  0  0  0  0  0  0  0  0  0
   45.4540   25.5000   35.0050 C   0  0  0  0  0  0  0  0  0  0  0  0
   39.7540   24.7880   34.0710 C   0  0  0  0  0  0  0  0  0  0  0  0
   38.2260   24.6920   37.5360 C   0  0  0  0  0  0  0  0  0  0  0  0
   38.4900   25.1510   36.2490 C   0  0  0  0  0  0  0  0  0  0  0  0
   39.3760   24.4330   35.4630 C   0  0  0  0  0  0  0  0  0  0  0  0
   39.9690   23.2900   35.9790 N   0  0  0  0  0  0  0  0  0  0  0  0
   39.6630   22.8970   37.2540 C   0  0  0  0  0  0  0  0  0  0  0  0
   38.8000   23.5970   38.0130 N   0  0  0  0  0  0  0  0  0  0  0  0
   40.2220   21.7420   37.8670 N   0  0  0  0  0  0  0  0  0  0  0  0
   37.8370   26.3560   35.7870 C   0  0  0  0  0  0  0  0  0  0  0  0
   36.8750   26.5810   35.0300 O   0  0  0  0  0  0  0  0  0  0  0  0
   38.2590   27.5880   36.1840 O   0  0  0  0  0  0  0  0  0  0  0  0
   45.5636   26.9431   32.5662 H   0  0  0  0  0  0  0  0  0  0  0  0
   44.1857   27.9573   33.0181 H   0  0  0  0  0  0  0  0  0  0  0  0
   46.3438   29.0122   33.7753 H   0  0  0  0  0  0  0  0  0  0  0  0
   45.3792   28.5624   35.1947 H   0  0  0  0  0  0  0  0  0  0  0  0
   47.2151   25.8410   36.1461 H   0  0  0  0  0  0  0  0  0  0  0  0
   45.8794   26.9983   36.4540 H   0  0  0  0  0  0  0  0  0  0  0  0
   44.9252   24.9025   35.7622 H   0  0  0  0  0  0  0  0  0  0  0  0
   46.0079   24.8310   34.3300 H   0  0  0  0  0  0  0  0  0  0  0  0
   38.9308   25.3414   33.5955 H   0  0  0  0  0  0  0  0  0  0  0  0
   39.9541   23.8717   33.4962 H   0  0  0  0  0  0  0  0  0  0  0  0
   37.5243   25.2513   38.1723 H   0  0  0  0  0  0  0  0  0  0  0  0
   39.9573   21.4910   38.8302 H   0  0  0  0  0  0  0  0  0  0  0  0
   40.8916   21.1564   37.3478 H   0  0  0  0  0  0  0  0  0  0  0  0
   37.7968   28.3993   35.8550 H   0  0  0  0  0  0  0  0  0  0  0  0
  1  5  1  0
  2  3  1  0
  2  1  2  0
  3  4  1  0
  4  5  2  0
  4  6  1  0
  6 11  1  0
  7  6  1  0
  7  8  1  0
  8  9  1  0
  9 10  1  0
 11 10  1  0
 12  1  1  0
 12 15  1  0
 13 18  2  0
 14 13  1  0
 15 16  1  0
 15 14  2  0
 16 17  2  0
 17 19  1  0
 17 18  1  0
 20 22  1  0
 20 14  1  0
 21 20  2  0
  7 23  1  0
  7 24  1  0
  8 25  1  0
  8 26  1  0
 10 27  1  0
 10 28  1  0
 11 29  1  0
 11 30  1  0
 12 31  1  0
 12 32  1  0
 13 33  1  0
 19 34  1  0
 19 35  1  0
 22 36  1  0
M  ISO  8  23  13  24  13  25  13  26  13  27  13  28  13  29  13  30  13
M  ISO  4  31   8  32   8  33  14  36   3
M  END
>  <minimizedAffinity>  (1) 
-5.14386511

>  <minimizedRMSD>  (1) 
0.860677958

$$$$
