
     RDKit          3D

 39 42  0  0  0  0  0  0  0  0999 V2000
   41.4400   25.2210   33.9240 C   0  0  0  0  0  0  0  0  0  0  0  0
   41.3870   26.5650   34.0240 N   0  0  0  0  0  0  0  0  0  0  0  0
   42.6210   27.0000   34.0590 O   0  0  0  0  0  0  0  0  0  0  0  0
   43.4490   25.9610   33.9840 C   0  0  0  0  0  0  0  0  0  0  0  0
   42.7540   24.8090   33.8960 N   0  0  0  0  0  0  0  0  0  0  0  0
   44.8510   26.3230   34.0140 N   0  0  0  0  0  0  0  0  0  0  0  0
   45.1520   27.5480   33.3100 C   0  0  0  0  0  0  0  0  0  0  0  0
   45.9980   28.3830   34.2850 C   0  0  0  0  0  0  0  0  0  0  0  0
   47.1540   27.6290   34.5230 O   0  0  0  0  0  0  0  0  0  0  0  0
   46.7810   26.6030   35.3910 C   0  0  0  0  0  0  0  0  0  0  0  0
   45.9390   25.6250   34.6410 C   0  0  0  0  0  0  0  0  0  0  0  0
   40.3540   24.2000   33.8390 C   0  0  0  0  0  0  0  0  0  0  0  0
   38.4270   24.1180   37.0830 C   0  0  0  0  0  0  0  0  0  0  0  0
   38.7720   24.5300   35.7990 C   0  0  0  0  0  0  0  0  0  0  0  0
   39.8600   23.8960   35.2020 C   0  0  0  0  0  0  0  0  0  0  0  0
   40.5400   22.9050   35.8930 N   0  0  0  0  0  0  0  0  0  0  0  0
   40.1380   22.5600   37.1470 C   0  0  0  0  0  0  0  0  0  0  0  0
   39.0940   23.1580   37.7350 N   0  0  0  0  0  0  0  0  0  0  0  0
   40.7760   21.5570   37.9240 N   0  0  0  0  0  0  0  0  0  0  0  0
   38.0480   25.5910   35.0830 C   0  0  0  0  0  0  0  0  0  0  0  0
   37.9090   26.8240   35.7070 C   0  0  0  0  0  0  0  0  0  0  0  0
   36.9580   27.8440   34.4950 S   0  0  0  0  0  0  0  0  0  0  0  0
   36.9080   26.3690   33.3020 C   0  0  0  0  0  0  0  0  0  0  0  0
   37.4670   25.6540   33.9280 N   0  0  0  0  0  0  0  0  0  0  0  0
   45.7205   27.3348   32.3927 H   0  0  0  0  0  0  0  0  0  0  0  0
   44.2383   28.0786   33.0039 H   0  0  0  0  0  0  0  0  0  0  0  0
   46.2580   29.3523   33.8345 H   0  0  0  0  0  0  0  0  0  0  0  0
   45.4529   28.5965   35.2163 H   0  0  0  0  0  0  0  0  0  0  0  0
   47.6796   26.0990   35.7763 H   0  0  0  0  0  0  0  0  0  0  0  0
   46.2125   27.0158   36.2374 H   0  0  0  0  0  0  0  0  0  0  0  0
   45.5409   24.8721   35.3372 H   0  0  0  0  0  0  0  0  0  0  0  0
   46.5481   25.1240   33.8742 H   0  0  0  0  0  0  0  0  0  0  0  0
   39.5279   24.5923   33.2278 H   0  0  0  0  0  0  0  0  0  0  0  0
   40.7463   23.2825   33.3761 H   0  0  0  0  0  0  0  0  0  0  0  0
   37.5730   24.6001   37.5813 H   0  0  0  0  0  0  0  0  0  0  0  0
   40.4277   21.3378   38.8682 H   0  0  0  0  0  0  0  0  0  0  0  0
   41.5870   21.0488   37.5433 H   0  0  0  0  0  0  0  0  0  0  0  0
   38.2806   27.1249   36.6976 H   0  0  0  0  0  0  0  0  0  0  0  0
   36.4623   26.2614   32.3021 H   0  0  0  0  0  0  0  0  0  0  0  0
  1  2  2  0
  2  3  1  0
  4  6  1  0
  4  3  1  0
  5  1  1  0
  5  4  2  0
  6 11  1  0
  7  6  1  0
  7  8  1  0
  8  9  1  0
  9 10  1  0
 11 10  1  0
 12  1  1  0
 12 15  1  0
 13 18  2  0
 14 13  1  0
 15 14  2  0
 15 16  1  0
 16 17  2  0
 17 18  1  0
 17 19  1  0
 20 21  2  0
 20 14  1  0
 22 21  1  0
 23 24  2  0
 23 22  1  0
 24 20  1  0
  7 25  1  0
  7 26  1  0
  8 27  1  0
  8 28  1  0
 10 29  1  0
 10 30  1  0
 11 31  1  0
 11 32  1  0
 12 33  1  0
 12 34  1  0
 13 35  1  0
 19 36  1  0
 19 37  1  0
 21 38  1  0
 23 39  1  0
M  ISO  8  25  13  26  13  27  13  28  13  29  13  30  13  31  13  32  13
M  ISO  5  33   8  34   8  35  14  38  14  39  14
M  END
>  <minimizedAffinity>  (1) 
-5.08520174

>  <minimizedRMSD>  (1) 
1.55017936

$$$$
