
     RDKit          3D

 40 43  0  0  0  0  0  0  0  0999 V2000
   41.4980   25.3020   34.0200 C   0  0  0  0  0  0  0  0  0  0  0  0
   41.5000   26.6690   34.0540 N   0  0  0  0  0  0  0  0  0  0  0  0
   42.7520   27.0330   34.1210 O   0  0  0  0  0  0  0  0  0  0  0  0
   43.5200   25.9450   34.1300 C   0  0  0  0  0  0  0  0  0  0  0  0
   42.7690   24.8280   34.0680 N   0  0  0  0  0  0  0  0  0  0  0  0
   44.9340   26.2420   34.2030 N   0  0  0  0  0  0  0  0  0  0  0  0
   45.3340   27.3970   33.4390 C   0  0  0  0  0  0  0  0  0  0  0  0
   46.1720   28.2620   34.3890 C   0  0  0  0  0  0  0  0  0  0  0  0
   47.2680   27.4860   34.7710 O   0  0  0  0  0  0  0  0  0  0  0  0
   46.8080   26.5250   35.6730 C   0  0  0  0  0  0  0  0  0  0  0  0
   45.9550   25.5280   34.9350 C   0  0  0  0  0  0  0  0  0  0  0  0
   40.3320   24.3590   33.9410 C   0  0  0  0  0  0  0  0  0  0  0  0
   38.6750   24.2740   37.3310 C   0  0  0  0  0  0  0  0  0  0  0  0
   38.9720   24.7260   36.0200 C   0  0  0  0  0  0  0  0  0  0  0  0
   39.9080   24.0010   35.3140 C   0  0  0  0  0  0  0  0  0  0  0  0
   40.4920   22.9050   35.8880 N   0  0  0  0  0  0  0  0  0  0  0  0
   40.1660   22.5140   37.1530 C   0  0  0  0  0  0  0  0  0  0  0  0
   39.2600   23.2040   37.8630 N   0  0  0  0  0  0  0  0  0  0  0  0
   40.7140   21.3850   37.8130 N   0  0  0  0  0  0  0  0  0  0  0  0
   38.2660   25.9040   35.6300 C   0  0  0  0  0  0  0  0  0  0  0  0
   38.3000   27.2410   35.9240 C   0  0  0  0  0  0  0  0  0  0  0  0
   37.4330   27.9680   35.2090 N   0  0  0  0  0  0  0  0  0  0  0  0
   36.7770   27.1000   34.3900 C   0  0  0  0  0  0  0  0  0  0  0  0
   37.3090   25.9070   34.6830 N   0  0  0  0  0  0  0  0  0  0  0  0
   45.9350   27.0911   32.5700 H   0  0  0  0  0  0  0  0  0  0  0  0
   44.4628   27.9479   33.0550 H   0  0  0  0  0  0  0  0  0  0  0  0
   46.5123   29.1721   33.8733 H   0  0  0  0  0  0  0  0  0  0  0  0
   45.5834   28.5760   35.2637 H   0  0  0  0  0  0  0  0  0  0  0  0
   47.6648   26.0094   36.1313 H   0  0  0  0  0  0  0  0  0  0  0  0
   46.2142   27.0100   36.4618 H   0  0  0  0  0  0  0  0  0  0  0  0
   45.4833   24.8413   35.6533 H   0  0  0  0  0  0  0  0  0  0  0  0
   46.5769   24.9461   34.2388 H   0  0  0  0  0  0  0  0  0  0  0  0
   39.4989   24.8459   33.4129 H   0  0  0  0  0  0  0  0  0  0  0  0
   40.6247   23.4509   33.3936 H   0  0  0  0  0  0  0  0  0  0  0  0
   37.9355   24.8271   37.9286 H   0  0  0  0  0  0  0  0  0  0  0  0
   40.4162   21.1541   38.7716 H   0  0  0  0  0  0  0  0  0  0  0  0
   41.4098   20.7958   37.3338 H   0  0  0  0  0  0  0  0  0  0  0  0
   38.9751   27.6758   36.6757 H   0  0  0  0  0  0  0  0  0  0  0  0
   35.9901   27.3272   33.6557 H   0  0  0  0  0  0  0  0  0  0  0  0
   37.0044   25.0431   34.2121 H   0  0  0  0  0  0  0  0  0  0  0  0
  1  2  2  0
  1  5  1  0
  2  3  1  0
  3  4  1  0
  4  6  1  0
  5  4  2  0
  6 11  1  0
  7  6  1  0
  7  8  1  0
  8  9  1  0
  9 10  1  0
 11 10  1  0
 12  1  1  0
 12 15  1  0
 13 18  2  0
 14 13  1  0
 15 16  1  0
 15 14  2  0
 16 17  2  0
 17 19  1  0
 17 18  1  0
 20 21  2  0
 20 14  1  0
 22 21  1  0
 23 24  1  0
 23 22  2  0
 24 20  1  0
  7 25  1  0
  7 26  1  0
  8 27  1  0
  8 28  1  0
 10 29  1  0
 10 30  1  0
 11 31  1  0
 11 32  1  0
 12 33  1  0
 12 34  1  0
 13 35  1  0
 19 36  1  0
 19 37  1  0
 21 38  1  0
 23 39  1  0
 24 40  1  0
M  ISO  8  25  13  26  13  27  13  28  13  29  13  30  13  31  13  32  13
M  ISO  6  33   8  34   8  35  14  38  14  39  14  40   9
M  END
>  <minimizedAffinity>  (1) 
-5.01709366

>  <minimizedRMSD>  (1) 
1.39510167

$$$$
