
     RDKit          3D

 35 37  0  0  0  0  0  0  0  0999 V2000
   40.7830   25.5370   34.1750 C   0  0  0  0  0  0  0  0  0  0  0  0
   40.9080   26.8800   34.1220 N   0  0  0  0  0  0  0  0  0  0  0  0
   42.1880   27.1470   34.1560 O   0  0  0  0  0  0  0  0  0  0  0  0
   42.8630   26.0070   34.2310 C   0  0  0  0  0  0  0  0  0  0  0  0
   42.0150   24.9630   34.2450 N   0  0  0  0  0  0  0  0  0  0  0  0
   44.2930   26.1920   34.2750 N   0  0  0  0  0  0  0  0  0  0  0  0
   44.7720   27.2840   33.4580 C   0  0  0  0  0  0  0  0  0  0  0  0
   45.7000   28.1110   34.3800 C   0  0  0  0  0  0  0  0  0  0  0  0
   46.7330   27.2590   34.7620 O   0  0  0  0  0  0  0  0  0  0  0  0
   46.2170   26.3670   35.7000 C   0  0  0  0  0  0  0  0  0  0  0  0
   45.2670   25.4290   35.0210 C   0  0  0  0  0  0  0  0  0  0  0  0
   39.5460   24.7020   34.1670 C   0  0  0  0  0  0  0  0  0  0  0  0
   38.0890   24.3240   37.6330 C   0  0  0  0  0  0  0  0  0  0  0  0
   38.2720   24.8220   36.3390 C   0  0  0  0  0  0  0  0  0  0  0  0
   39.2670   24.2470   35.5580 C   0  0  0  0  0  0  0  0  0  0  0  0
   40.0290   23.2210   36.0730 N   0  0  0  0  0  0  0  0  0  0  0  0
   39.7980   22.7820   37.3430 C   0  0  0  0  0  0  0  0  0  0  0  0
   38.8380   23.3300   38.1100 N   0  0  0  0  0  0  0  0  0  0  0  0
   40.5220   21.7350   37.9650 N   0  0  0  0  0  0  0  0  0  0  0  0
   37.4830   25.8800   35.8170 N   0  0  0  0  0  0  0  0  0  0  0  0
   45.3321   26.9002   32.5926 H   0  0  0  0  0  0  0  0  0  0  0  0
   43.9450   27.8903   33.0600 H   0  0  0  0  0  0  0  0  0  0  0  0
   46.1030   28.9779   33.8358 H   0  0  0  0  0  0  0  0  0  0  0  0
   45.1548   28.4949   35.2548 H   0  0  0  0  0  0  0  0  0  0  0  0
   47.0392   25.7933   36.1526 H   0  0  0  0  0  0  0  0  0  0  0  0
   45.6859   26.9247   36.4854 H   0  0  0  0  0  0  0  0  0  0  0  0
   44.7533   24.8161   35.7762 H   0  0  0  0  0  0  0  0  0  0  0  0
   45.8239   24.7729   34.3359 H   0  0  0  0  0  0  0  0  0  0  0  0
   38.6994   25.2983   33.7959 H   0  0  0  0  0  0  0  0  0  0  0  0
   39.6860   23.8315   33.5092 H   0  0  0  0  0  0  0  0  0  0  0  0
   37.3087   24.7629   38.2721 H   0  0  0  0  0  0  0  0  0  0  0  0
   40.2944   21.4536   38.9293 H   0  0  0  0  0  0  0  0  0  0  0  0
   41.2760   21.2553   37.4529 H   0  0  0  0  0  0  0  0  0  0  0  0
   37.6470   26.2204   34.8588 H   0  0  0  0  0  0  0  0  0  0  0  0
   36.7464   26.3074   36.3964 H   0  0  0  0  0  0  0  0  0  0  0  0
  1  5  1  0
  2  3  1  0
  2  1  2  0
  3  4  1  0
  4  5  2  0
  4  6  1  0
  6 11  1  0
  7  6  1  0
  7  8  1  0
  8  9  1  0
  9 10  1  0
 11 10  1  0
 12  1  1  0
 12 15  1  0
 13 18  2  0
 14 13  1  0
 15 16  1  0
 15 14  2  0
 16 17  2  0
 17 19  1  0
 17 18  1  0
 20 14  1  0
  7 21  1  0
  7 22  1  0
  8 23  1  0
  8 24  1  0
 10 25  1  0
 10 26  1  0
 11 27  1  0
 11 28  1  0
 12 29  1  0
 12 30  1  0
 13 31  1  0
 19 32  1  0
 19 33  1  0
 20 34  1  0
 20 35  1  0
M  ISO  8  21  13  22  13  23  13  24  13  25  13  26  13  27  13  28  13
M  ISO  3  29   8  30   8  31  14
M  END
>  <minimizedAffinity>  (1) 
-4.8253808

>  <minimizedRMSD>  (1) 
0.541251719

$$$$
