
     RDKit          3D

 23 25  0  0  0  0  0  0  0  0999 V2000
   39.6110   22.7490   37.4560 C   0  0  0  0  0  0  0  0  0  0  0  0
   38.8800   23.3290   38.5310 C   0  0  0  0  0  0  0  0  0  0  0  0
   37.9190   24.2940   38.1950 C   0  0  0  0  0  0  0  0  0  0  0  0
   37.7530   24.6080   36.8850 N   0  0  0  0  0  0  0  0  0  0  0  0
   38.4620   24.0380   35.9030 C   0  0  0  0  0  0  0  0  0  0  0  0
   39.3960   23.1040   36.1900 N   0  0  0  0  0  0  0  0  0  0  0  0
   38.2520   24.3990   34.5420 N   0  0  0  0  0  0  0  0  0  0  0  0
   38.5060   25.6310   34.0630 C   0  0  0  0  0  0  0  0  0  0  0  0
   38.2310   25.7150   32.7700 N   0  0  0  0  0  0  0  0  0  0  0  0
   37.7850   24.5300   32.3660 C   0  0  0  0  0  0  0  0  0  0  0  0
   37.3510   24.0130   31.1600 C   0  0  0  0  0  0  0  0  0  0  0  0
   36.9510   22.7200   31.0970 N   0  0  0  0  0  0  0  0  0  0  0  0
   36.9820   21.9540   32.2090 C   0  0  0  0  0  0  0  0  0  0  0  0
   37.4060   22.4330   33.4150 N   0  0  0  0  0  0  0  0  0  0  0  0
   37.8050   23.7270   33.4780 C   0  0  0  0  0  0  0  0  0  0  0  0
   40.5800   21.7730   37.8110 N   0  0  0  0  0  0  0  0  0  0  0  0
   39.0601   23.0345   39.5754 H   0  0  0  0  0  0  0  0  0  0  0  0
   37.3154   24.7838   38.9733 H   0  0  0  0  0  0  0  0  0  0  0  0
   38.8932   26.4633   34.6691 H   0  0  0  0  0  0  0  0  0  0  0  0
   37.3305   24.6451   30.2600 H   0  0  0  0  0  0  0  0  0  0  0  0
   36.6537   20.9064   32.1404 H   0  0  0  0  0  0  0  0  0  0  0  0
   41.1424   21.3157   37.0792 H   0  0  0  0  0  0  0  0  0  0  0  0
   40.7203   21.5226   38.8002 H   0  0  0  0  0  0  0  0  0  0  0  0
  1 16  1  0
  1  2  2  0
  3  2  1  0
  4  3  2  0
  5  6  2  0
  5  4  1  0
  6  1  1  0
  7  5  1  0
  8  7  1  0
  9  8  2  0
 10  9  1  0
 10 15  2  0
 11 10  1  0
 12 11  2  0
 12 13  1  0
 13 14  2  0
 14 15  1  0
 15  7  1  0
  2 17  1  0
  3 18  1  0
  8 19  1  0
 11 20  1  0
 13 21  1  0
 16 22  1  0
 16 23  1  0
M  ISO  5  17  14  18  14  19  14  20  14  21  14
M  END
>  <minimizedAffinity>  (1) 
-5.16108084

>  <minimizedRMSD>  (1) 
6.28341484

$$$$
