
     RDKit          3D

 20 21  0  0  0  0  0  0  0  0999 V2000
   39.8230   22.3240   37.3940 C   0  0  0  0  0  0  0  0  0  0  0  0
   39.2150   23.2230   38.3040 C   0  0  0  0  0  0  0  0  0  0  0  0
   38.1230   23.9520   37.8410 C   0  0  0  0  0  0  0  0  0  0  0  0
   37.7120   23.7610   36.5630 N   0  0  0  0  0  0  0  0  0  0  0  0
   38.3170   22.8990   35.7350 C   0  0  0  0  0  0  0  0  0  0  0  0
   39.3620   22.1840   36.1380 N   0  0  0  0  0  0  0  0  0  0  0  0
   37.7820   22.7740   34.3660 C   0  0  0  0  0  0  0  0  0  0  0  0
   37.9090   23.8110   33.4750 C   0  0  0  0  0  0  0  0  0  0  0  0
   37.3850   23.6380   32.1950 C   0  0  0  0  0  0  0  0  0  0  0  0
   36.7700   22.4640   31.8720 N   0  0  0  0  0  0  0  0  0  0  0  0
   36.6550   21.4590   32.7590 C   0  0  0  0  0  0  0  0  0  0  0  0
   37.1730   21.6530   33.9950 N   0  0  0  0  0  0  0  0  0  0  0  0
   40.9370   21.5790   37.8630 N   0  0  0  0  0  0  0  0  0  0  0  0
   39.5893   23.3401   39.3317 H   0  0  0  0  0  0  0  0  0  0  0  0
   37.6052   24.6670   38.4973 H   0  0  0  0  0  0  0  0  0  0  0  0
   38.4082   24.7482   33.7621 H   0  0  0  0  0  0  0  0  0  0  0  0
   37.4669   24.4431   31.4500 H   0  0  0  0  0  0  0  0  0  0  0  0
   36.1587   20.5149   32.4902 H   0  0  0  0  0  0  0  0  0  0  0  0
   41.4115   20.9129   37.2369 H   0  0  0  0  0  0  0  0  0  0  0  0
   41.2706   21.7047   38.8293 H   0  0  0  0  0  0  0  0  0  0  0  0
  1 13  1  0
  1  2  2  0
  3  2  1  0
  4  3  2  0
  5  6  2  0
  5  4  1  0
  6  1  1  0
  7  5  1  0
  8  7  2  0
  9  8  1  0
 10  9  2  0
 10 11  1  0
 11 12  2  0
 12  7  1  0
  2 14  1  0
  3 15  1  0
  8 16  1  0
  9 17  1  0
 11 18  1  0
 13 19  1  0
 13 20  1  0
M  ISO  5  14  14  15  14  16  14  17  14  18  14
M  END
>  <minimizedAffinity>  (1) 
-4.08799744

>  <minimizedRMSD>  (1) 
5.64696884

$$$$
