
     RDKit          3D

 19 19  0  0  0  0  0  0  0  0999 V2000
   40.3990   25.3400   34.9930 C   0  0  0  0  0  0  0  0  0  0  0  0
   40.0210   26.6960   34.9940 C   0  0  0  0  0  0  0  0  0  0  0  0
   38.8480   27.0590   35.6790 C   0  0  0  0  0  0  0  0  0  0  0  0
   38.1540   26.0650   36.3000 N   0  0  0  0  0  0  0  0  0  0  0  0
   38.5490   24.7860   36.2740 C   0  0  0  0  0  0  0  0  0  0  0  0
   39.6590   24.4310   35.6270 N   0  0  0  0  0  0  0  0  0  0  0  0
   37.7690   23.7980   36.9490 N   0  0  0  0  0  0  0  0  0  0  0  0
   38.3300   23.0190   37.9980 C   0  0  0  0  0  0  0  0  0  0  0  0
   39.5990   22.7760   37.9840 N   0  0  0  0  0  0  0  0  0  0  0  0
   37.4330   22.5520   39.0080 N   0  0  0  0  0  0  0  0  0  0  0  0
   40.0670   22.2120   38.7270 H   0  0  0  0  0  0  0  0  0  0  0  0
   41.5890   25.0000   34.2920 N   0  0  0  0  0  0  0  0  0  0  0  0
   40.6272   27.4515   34.4727 H   0  0  0  0  0  0  0  0  0  0  0  0
   38.5046   28.1035   35.7121 H   0  0  0  0  0  0  0  0  0  0  0  0
   36.7882   23.6480   36.6725 H   0  0  0  0  0  0  0  0  0  0  0  0
   37.7887   21.9837   39.7899 H   0  0  0  0  0  0  0  0  0  0  0  0
   36.4309   22.7838   38.9540 H   0  0  0  0  0  0  0  0  0  0  0  0
   41.9073   24.0209   34.2623 H   0  0  0  0  0  0  0  0  0  0  0  0
   42.1324   25.7329   33.8141 H   0  0  0  0  0  0  0  0  0  0  0  0
  1  2  2  0
  1  6  1  0
  2  3  1  0
  3  4  2  0
  5  4  1  0
  5  7  1  0
  6  5  2  0
  7  8  1  0
  8 10  1  0
  9  8  2  0
  9 11  1  0
 12  1  1  0
  2 13  1  0
  3 14  1  0
  7 15  1  0
 10 16  1  0
 10 17  1  0
 12 18  1  0
 12 19  1  0
M  ISO  2  13  14  14  14
M  END
>  <minimizedAffinity>  (1) 
-4.05923367

>  <minimizedRMSD>  (1) 
3.74468684

$$$$
