
     RDKit          3D

 31 33  0  0  0  0  0  0  0  0999 V2000
   39.0850   26.1220   34.6320 C   0  0  0  0  0  0  0  0  0  0  0  0
   38.1000   27.0450   34.0200 C   0  0  0  0  0  0  0  0  0  0  0  0
   37.0810   27.5590   34.7800 C   0  0  0  0  0  0  0  0  0  0  0  0
   36.1070   28.4350   34.2920 C   0  0  0  0  0  0  0  0  0  0  0  0
   36.1980   28.7830   32.9740 N   0  0  0  0  0  0  0  0  0  0  0  0
   37.2000   28.2790   32.2210 C   0  0  0  0  0  0  0  0  0  0  0  0
   38.1140   27.4350   32.7500 N   0  0  0  0  0  0  0  0  0  0  0  0
   37.3430   28.6220   30.8010 C   0  0  0  0  0  0  0  0  0  0  0  0
   37.0850   29.8870   30.2700 C   0  0  0  0  0  0  0  0  0  0  0  0
   37.3190   29.8360   28.9460 N   0  0  0  0  0  0  0  0  0  0  0  0
   37.7130   28.5820   28.6400 C   0  0  0  0  0  0  0  0  0  0  0  0
   37.7280   27.8390   29.7740 N   0  0  0  0  0  0  0  0  0  0  0  0
   38.5790   24.6940   34.6810 C   0  0  0  0  0  0  0  0  0  0  0  0
   39.7360   22.8150   37.7050 C   0  0  0  0  0  0  0  0  0  0  0  0
   38.8760   23.3260   38.6950 C   0  0  0  0  0  0  0  0  0  0  0  0
   37.9200   24.3000   38.3020 C   0  0  0  0  0  0  0  0  0  0  0  0
   37.8770   24.6930   37.0070 N   0  0  0  0  0  0  0  0  0  0  0  0
   38.7390   24.1630   36.0870 C   0  0  0  0  0  0  0  0  0  0  0  0
   39.6420   23.2520   36.4180 N   0  0  0  0  0  0  0  0  0  0  0  0
   39.2957   26.4584   35.6579 H   0  0  0  0  0  0  0  0  0  0  0  0
   39.9928   26.1372   34.0109 H   0  0  0  0  0  0  0  0  0  0  0  0
   37.0266   27.2640   35.8383 H   0  0  0  0  0  0  0  0  0  0  0  0
   35.3064   28.8251   34.9377 H   0  0  0  0  0  0  0  0  0  0  0  0
   36.7496   30.7696   30.8344 H   0  0  0  0  0  0  0  0  0  0  0  0
   37.9785   28.2217   27.6351 H   0  0  0  0  0  0  0  0  0  0  0  0
   37.9893   26.8448   29.8394 H   0  0  0  0  0  0  0  0  0  0  0  0
   37.5168   24.6692   34.3961 H   0  0  0  0  0  0  0  0  0  0  0  0
   39.1553   24.0714   33.9809 H   0  0  0  0  0  0  0  0  0  0  0  0
   40.4885   22.0583   37.9719 H   0  0  0  0  0  0  0  0  0  0  0  0
   38.9421   22.9826   39.7379 H   0  0  0  0  0  0  0  0  0  0  0  0
   37.2248   24.7288   39.0388 H   0  0  0  0  0  0  0  0  0  0  0  0
  1 13  1  0
  2  1  1  0
  2  3  2  0
  4  3  1  0
  5  4  2  0
  6  7  2  0
  6  5  1  0
  7  2  1  0
  8  6  1  0
  9  8  2  0
 10  9  1  0
 11 10  2  0
 11 12  1  0
 12  8  1  0
 13 18  1  0
 14 15  2  0
 16 15  1  0
 17 16  2  0
 18 19  2  0
 18 17  1  0
 19 14  1  0
  1 20  1  0
  1 21  1  0
  3 22  1  0
  4 23  1  0
  9 24  1  0
 11 25  1  0
 12 26  1  0
 13 27  1  0
 13 28  1  0
 14 29  1  0
 15 30  1  0
 16 31  1  0
M  ISO  8  20   8  21   8  22  14  23  14  24  14  25  14  26   9  27   8
M  ISO  4  28   8  29  14  30  14  31  14
M  END
>  <minimizedAffinity>  (1) 
-4.75438929

>  <minimizedRMSD>  (1) 
0.364805907

$$$$
