
     RDKit          3D

 18 19  0  0  0  0  0  0  0  0999 V2000
   39.4070   22.8680   37.2740 C   0  0  0  0  0  0  0  0  0  0  0  0
   38.9640   23.2220   38.5690 C   0  0  0  0  0  0  0  0  0  0  0  0
   38.1270   24.3490   38.6890 C   0  0  0  0  0  0  0  0  0  0  0  0
   37.7980   25.0230   37.5600 N   0  0  0  0  0  0  0  0  0  0  0  0
   38.2390   24.6570   36.3510 C   0  0  0  0  0  0  0  0  0  0  0  0
   39.0350   23.5920   36.2030 N   0  0  0  0  0  0  0  0  0  0  0  0
   37.8880   25.3820   35.1190 C   0  0  0  0  0  0  0  0  0  0  0  0
   38.2680   24.5890   34.0030 C   0  0  0  0  0  0  0  0  0  0  0  0
   37.7530   25.6530   32.5150 S   0  0  0  0  0  0  0  0  0  0  0  0
   37.1230   26.9660   33.7400 C   0  0  0  0  0  0  0  0  0  0  0  0
   37.3390   26.5220   34.7490 N   0  0  0  0  0  0  0  0  0  0  0  0
   40.2520   21.7270   37.1680 N   0  0  0  0  0  0  0  0  0  0  0  0
   39.2624   22.6380   39.4521 H   0  0  0  0  0  0  0  0  0  0  0  0
   37.7513   24.6726   39.6709 H   0  0  0  0  0  0  0  0  0  0  0  0
   38.7453   23.5980   34.0008 H   0  0  0  0  0  0  0  0  0  0  0  0
   36.6555   27.9354   33.5126 H   0  0  0  0  0  0  0  0  0  0  0  0
   40.6011   21.4286   36.2461 H   0  0  0  0  0  0  0  0  0  0  0  0
   40.5142   21.2000   38.0132 H   0  0  0  0  0  0  0  0  0  0  0  0
  1  2  2  0
  2  3  1  0
  4  3  2  0
  5  4  1  0
  6  5  2  0
  6  1  1  0
  7  5  1  0
  8  7  2  0
  9 10  1  0
  9  8  1  0
 10 11  2  0
 11  7  1  0
 12  1  1  0
  2 13  1  0
  3 14  1  0
  8 15  1  0
 10 16  1  0
 12 17  1  0
 12 18  1  0
M  ISO  4  13  14  14  14  15  14  16  14
M  END
>  <minimizedAffinity>  (1) 
-3.83366871

>  <minimizedRMSD>  (1) 
4.58761787

$$$$
