
     RDKit          3D

 19 20  0  0  0  0  0  0  0  0999 V2000
   36.3930   21.1810   33.7130 C   0  0  0  0  0  0  0  0  0  0  0  0
   36.6630   22.0290   32.6230 C   0  0  0  0  0  0  0  0  0  0  0  0
   37.4810   23.1370   32.8380 C   0  0  0  0  0  0  0  0  0  0  0  0
   37.9720   23.3300   34.1040 N   0  0  0  0  0  0  0  0  0  0  0  0
   37.6860   22.4960   35.1090 C   0  0  0  0  0  0  0  0  0  0  0  0
   36.9050   21.4270   34.9280 N   0  0  0  0  0  0  0  0  0  0  0  0
   38.2620   22.8090   36.3890 N   0  0  0  0  0  0  0  0  0  0  0  0
   39.4740   22.3510   36.5320 N   0  0  0  0  0  0  0  0  0  0  0  0
   39.9160   22.7040   37.7720 C   0  0  0  0  0  0  0  0  0  0  0  0
   38.9230   23.4050   38.4030 C   0  0  0  0  0  0  0  0  0  0  0  0
   37.8720   23.4680   37.5130 C   0  0  0  0  0  0  0  0  0  0  0  0
   35.5590   20.0540   33.4840 N   0  0  0  0  0  0  0  0  0  0  0  0
   36.2402   21.8232   31.6286 H   0  0  0  0  0  0  0  0  0  0  0  0
   37.7242   23.8322   32.0210 H   0  0  0  0  0  0  0  0  0  0  0  0
   40.9034   22.4661   38.1945 H   0  0  0  0  0  0  0  0  0  0  0  0
   38.9571   23.8319   39.4162 H   0  0  0  0  0  0  0  0  0  0  0  0
   36.9017   23.9584   37.6803 H   0  0  0  0  0  0  0  0  0  0  0  0
   35.1744   19.8804   32.5444 H   0  0  0  0  0  0  0  0  0  0  0  0
   35.3389   19.4105   34.2576 H   0  0  0  0  0  0  0  0  0  0  0  0
  1  6  2  0
  2  3  2  0
  2  1  1  0
  3  4  1  0
  4  5  2  0
  5  7  1  0
  6  5  1  0
  7  8  1  0
  7 11  1  0
  8  9  2  0
  9 10  1  0
 11 10  2  0
 12  1  1  0
  2 13  1  0
  3 14  1  0
  9 15  1  0
 10 16  1  0
 11 17  1  0
 12 18  1  0
 12 19  1  0
M  ISO  5  13  14  14  14  15  14  16  14  17  14
M  END
>  <minimizedAffinity>  (1) 
-3.76905584

>  <minimizedRMSD>  (1) 
4.04866743

$$$$
