
     RDKit          3D

 18 18  0  0  0  0  0  0  0  0999 V2000
   37.8300   23.3130   37.4170 C   0  0  0  0  0  0  0  0  0  0  0  0
   37.8810   22.5040   36.2650 C   0  0  0  0  0  0  0  0  0  0  0  0
   38.0960   23.1290   35.0190 C   0  0  0  0  0  0  0  0  0  0  0  0
   38.2380   24.4810   35.0140 N   0  0  0  0  0  0  0  0  0  0  0  0
   38.1800   25.2140   36.1500 C   0  0  0  0  0  0  0  0  0  0  0  0
   37.9770   24.6340   37.3410 N   0  0  0  0  0  0  0  0  0  0  0  0
   37.6140   22.6580   38.6550 N   0  0  0  0  0  0  0  0  0  0  0  0
   38.3360   26.6930   36.1360 C   0  0  0  0  0  0  0  0  0  0  0  0
   39.4350   27.1040   35.1550 C   0  0  0  0  0  0  0  0  0  0  0  0
   37.7564   21.4133   36.3353 H   0  0  0  0  0  0  0  0  0  0  0  0
   38.1468   22.5454   34.0879 H   0  0  0  0  0  0  0  0  0  0  0  0
   37.5686   23.2055   39.5263 H   0  0  0  0  0  0  0  0  0  0  0  0
   37.5024   21.6345   38.6835 H   0  0  0  0  0  0  0  0  0  0  0  0
   37.3857   27.1548   35.8299 H   0  0  0  0  0  0  0  0  0  0  0  0
   38.6134   27.0321   37.1450 H   0  0  0  0  0  0  0  0  0  0  0  0
   40.3215   27.4355   35.7155 H   0  0  0  0  0  0  0  0  0  0  0  0
   39.7015   26.2448   34.5220 H   0  0  0  0  0  0  0  0  0  0  0  0
   39.0723   27.9273   34.5220 H   0  0  0  0  0  0  0  0  0  0  0  0
  1  7  1  0
  2  1  2  0
  3  2  1  0
  4  3  2  0
  4  5  1  0
  5  6  2  0
  6  1  1  0
  8  5  1  0
  9  8  1  0
  2 10  1  0
  3 11  1  0
  7 12  1  0
  7 13  1  0
  8 14  1  0
  8 15  1  0
  9 16  1  0
  9 17  1  0
  9 18  1  0
M  ISO  7  10  14  11  14  14   8  15   8  16   8  17   8  18   8
M  END
>  <minimizedAffinity>  (1) 
-3.44836617

>  <minimizedRMSD>  (1) 
3.57439089

$$$$
