
     RDKit          3D

 29 31  0  0  0  0  0  0  0  0999 V2000
   39.1110   26.2110   34.7340 C   0  0  0  0  0  0  0  0  0  0  0  0
   38.1700   27.0560   33.9520 C   0  0  0  0  0  0  0  0  0  0  0  0
   37.0790   27.6290   34.5680 C   0  0  0  0  0  0  0  0  0  0  0  0
   36.1430   28.4320   33.9310 C   0  0  0  0  0  0  0  0  0  0  0  0
   36.3460   28.6480   32.6130 N   0  0  0  0  0  0  0  0  0  0  0  0
   37.4110   28.1000   31.9690 C   0  0  0  0  0  0  0  0  0  0  0  0
   38.2770   27.3290   32.6630 N   0  0  0  0  0  0  0  0  0  0  0  0
   37.7010   28.2840   30.5500 C   0  0  0  0  0  0  0  0  0  0  0  0
   36.9670   28.8390   29.5660 N   0  0  0  0  0  0  0  0  0  0  0  0
   37.6060   28.8010   28.4330 O   0  0  0  0  0  0  0  0  0  0  0  0
   38.7760   28.2230   28.6300 C   0  0  0  0  0  0  0  0  0  0  0  0
   38.8360   27.9030   29.9360 N   0  0  0  0  0  0  0  0  0  0  0  0
   38.7200   24.7670   34.7430 C   0  0  0  0  0  0  0  0  0  0  0  0
   39.7600   22.8270   37.7610 C   0  0  0  0  0  0  0  0  0  0  0  0
   38.8530   23.3120   38.7380 C   0  0  0  0  0  0  0  0  0  0  0  0
   37.9250   24.2800   38.3290 C   0  0  0  0  0  0  0  0  0  0  0  0
   37.9310   24.7060   37.0400 N   0  0  0  0  0  0  0  0  0  0  0  0
   38.8170   24.2130   36.1410 C   0  0  0  0  0  0  0  0  0  0  0  0
   39.7140   23.2930   36.4900 N   0  0  0  0  0  0  0  0  0  0  0  0
   39.1326   26.5761   35.7714 H   0  0  0  0  0  0  0  0  0  0  0  0
   40.0989   26.2845   34.2559 H   0  0  0  0  0  0  0  0  0  0  0  0
   36.9396   27.4363   35.6420 H   0  0  0  0  0  0  0  0  0  0  0  0
   35.2868   28.8667   34.4675 H   0  0  0  0  0  0  0  0  0  0  0  0
   39.5524   28.0384   27.8729 H   0  0  0  0  0  0  0  0  0  0  0  0
   37.6852   24.6680   34.3834 H   0  0  0  0  0  0  0  0  0  0  0  0
   39.4000   24.2057   34.0853 H   0  0  0  0  0  0  0  0  0  0  0  0
   40.5058   22.0672   38.0375 H   0  0  0  0  0  0  0  0  0  0  0  0
   38.8768   22.9436   39.7742 H   0  0  0  0  0  0  0  0  0  0  0  0
   37.1987   24.6905   39.0459 H   0  0  0  0  0  0  0  0  0  0  0  0
  1 13  1  0
  2  3  2  0
  2  1  1  0
  4  3  1  0
  5  4  2  0
  6  5  1  0
  6  7  2  0
  7  2  1  0
  8  6  1  0
  9  8  2  0
 10 11  1  0
 10  9  1  0
 11 12  2  0
 12  8  1  0
 13 18  1  0
 14 15  2  0
 16 15  1  0
 17 16  2  0
 18 19  2  0
 18 17  1  0
 19 14  1  0
  1 20  1  0
  1 21  1  0
  3 22  1  0
  4 23  1  0
 11 24  1  0
 13 25  1  0
 13 26  1  0
 14 27  1  0
 15 28  1  0
 16 29  1  0
M  ISO  8  20   8  21   8  22  14  23  14  24  14  25   8  26   8  27  14
M  ISO  2  28  14  29  14
M  END
>  <minimizedAffinity>  (1) 
-4.72536659

>  <minimizedRMSD>  (1) 
0.657683969

$$$$
