
     RDKit          3D

 35 38  0  0  1  0  0  0  0  0999 V2000
   38.2900   25.8900   35.3770 C   0  0  1  0  0  0  0  0  0  0  0  0
   38.4580   27.3750   35.7540 C   0  0  0  0  0  0  0  0  0  0  0  0
   39.4270   26.6740   34.8790 C   0  0  2  0  0  0  0  0  0  0  0  0
   39.5400   26.9710   33.4280 C   0  0  0  0  0  0  0  0  0  0  0  0
   40.7770   26.8520   32.8330 C   0  0  0  0  0  0  0  0  0  0  0  0
   41.0140   27.1000   31.4990 C   0  0  0  0  0  0  0  0  0  0  0  0
   39.9000   27.4910   30.7510 C   0  0  0  0  0  0  0  0  0  0  0  0
   38.6470   27.6200   31.3150 C   0  0  0  0  0  0  0  0  0  0  0  0
   37.5680   28.0160   30.5170 C   0  0  0  0  0  0  0  0  0  0  0  0
   36.3110   28.1390   31.1130 C   0  0  0  0  0  0  0  0  0  0  0  0
   36.1640   27.8690   32.4670 C   0  0  0  0  0  0  0  0  0  0  0  0
   37.2200   27.4780   33.2660 C   0  0  0  0  0  0  0  0  0  0  0  0
   38.4580   27.3580   32.6730 C   0  0  0  0  0  0  0  0  0  0  0  0
   39.4060   22.9480   37.2990 C   0  0  0  0  0  0  0  0  0  0  0  0
   38.7920   23.1490   38.5440 C   0  0  0  0  0  0  0  0  0  0  0  0
   38.0100   24.2840   38.7270 C   0  0  0  0  0  0  0  0  0  0  0  0
   37.8800   25.1420   37.6900 N   0  0  0  0  0  0  0  0  0  0  0  0
   38.4750   24.9320   36.5100 C   0  0  0  0  0  0  0  0  0  0  0  0
   39.2470   23.8270   36.3070 N   0  0  0  0  0  0  0  0  0  0  0  0
   40.1950   21.7710   37.1240 N   0  0  0  0  0  0  0  0  0  0  0  0
   37.5411   25.2529   34.8839 H   0  0  0  0  0  0  0  0  0  0  0  0
   37.7805   28.1341   35.3360 H   0  0  0  0  0  0  0  0  0  0  0  0
   38.5127   27.9501   36.6901 H   0  0  0  0  0  0  0  0  0  0  0  0
   40.5206   26.5616   34.9172 H   0  0  0  0  0  0  0  0  0  0  0  0
   41.6253   26.5406   33.4603 H   0  0  0  0  0  0  0  0  0  0  0  0
   42.0138   26.9971   31.0520 H   0  0  0  0  0  0  0  0  0  0  0  0
   40.0259   27.7026   29.6789 H   0  0  0  0  0  0  0  0  0  0  0  0
   37.7065   28.2254   29.4460 H   0  0  0  0  0  0  0  0  0  0  0  0
   35.4423   28.4480   30.5131 H   0  0  0  0  0  0  0  0  0  0  0  0
   35.1672   27.9706   32.9209 H   0  0  0  0  0  0  0  0  0  0  0  0
   37.0782   27.2699   34.3368 H   0  0  0  0  0  0  0  0  0  0  0  0
   38.9265   22.4231   39.3594 H   0  0  0  0  0  0  0  0  0  0  0  0
   37.5113   24.4784   39.6880 H   0  0  0  0  0  0  0  0  0  0  0  0
   40.6600   21.5920   36.2225 H   0  0  0  0  0  0  0  0  0  0  0  0
   40.2992   21.1009   37.8992 H   0  0  0  0  0  0  0  0  0  0  0  0
  1  2  1  0
  1 18  1  0
  3  1  1  0
  3  2  1  0
  4  3  1  0
  5  4  2  0
  6  5  1  0
  7  8  1  0
  7  6  2  0
  8 13  2  0
  9 10  2  0
  9  8  1  0
 10 11  1  0
 11 12  2  0
 13 12  1  0
 13  4  1  0
 14 15  2  0
 15 16  1  0
 17 16  2  0
 18 17  1  0
 19 18  2  0
 19 14  1  0
 20 14  1  0
  1 21  1  6
  2 22  1  0
  2 23  1  0
  3 24  1  1
  5 25  1  0
  6 26  1  0
  7 27  1  0
  9 28  1  0
 10 29  1  0
 11 30  1  0
 12 31  1  0
 15 32  1  0
 16 33  1  0
 20 34  1  0
 20 35  1  0
M  ISO  8  21  13  22  13  23  13  24  13  25  14  26  14  27  14  28  14
M  ISO  5  29  14  30  14  31  14  32  14  33  14
M  END
>  <minimizedAffinity>  (1) 
-6.20914459

>  <minimizedRMSD>  (1) 
2.51052332

$$$$
