
     RDKit          3D

 33 36  0  0  1  0  0  0  0  0999 V2000
   38.9110   25.7090   35.2190 C   0  0  1  0  0  0  0  0  0  0  0  0
   38.7590   27.2140   35.5410 C   0  0  0  0  0  0  0  0  0  0  0  0
   40.0440   26.6300   35.0740 C   0  0  2  0  0  0  0  0  0  0  0  0
   40.5680   27.0010   33.7240 C   0  0  0  0  0  0  0  0  0  0  0  0
   41.8400   27.2580   33.2440 C   0  0  0  0  0  0  0  0  0  0  0  0
   41.7520   27.5530   31.9200 N   0  0  0  0  0  0  0  0  0  0  0  0
   40.4480   27.4820   31.5800 C   0  0  0  0  0  0  0  0  0  0  0  0
   39.8140   27.6900   30.3680 C   0  0  0  0  0  0  0  0  0  0  0  0
   38.4490   27.5650   30.2350 C   0  0  0  0  0  0  0  0  0  0  0  0
   37.6530   27.2220   31.3220 C   0  0  0  0  0  0  0  0  0  0  0  0
   38.2950   27.0190   32.5190 C   0  0  0  0  0  0  0  0  0  0  0  0
   39.6730   27.1410   32.6760 C   0  0  0  0  0  0  0  0  0  0  0  0
   39.6110   22.9230   37.5370 C   0  0  0  0  0  0  0  0  0  0  0  0
   38.6800   23.1270   38.5730 C   0  0  0  0  0  0  0  0  0  0  0  0
   37.8230   24.2370   38.4610 C   0  0  0  0  0  0  0  0  0  0  0  0
   37.9350   25.0410   37.3770 N   0  0  0  0  0  0  0  0  0  0  0  0
   38.8340   24.8130   36.4140 C   0  0  0  0  0  0  0  0  0  0  0  0
   39.6770   23.7450   36.4970 N   0  0  0  0  0  0  0  0  0  0  0  0
   40.4770   21.7920   37.6420 N   0  0  0  0  0  0  0  0  0  0  0  0
   38.4511   24.9688   34.5478 H   0  0  0  0  0  0  0  0  0  0  0  0
   38.1722   27.8677   34.8789 H   0  0  0  0  0  0  0  0  0  0  0  0
   38.4288   27.8078   36.4061 H   0  0  0  0  0  0  0  0  0  0  0  0
   41.0718   26.6194   35.4658 H   0  0  0  0  0  0  0  0  0  0  0  0
   42.7673   27.2285   33.8349 H   0  0  0  0  0  0  0  0  0  0  0  0
   42.5349   27.7871   31.2930 H   0  0  0  0  0  0  0  0  0  0  0  0
   40.4156   27.9622   29.4882 H   0  0  0  0  0  0  0  0  0  0  0  0
   37.9817   27.7391   29.2545 H   0  0  0  0  0  0  0  0  0  0  0  0
   36.5620   27.1182   31.2279 H   0  0  0  0  0  0  0  0  0  0  0  0
   37.6907   26.7466   33.3969 H   0  0  0  0  0  0  0  0  0  0  0  0
   38.6248   22.4461   39.4352 H   0  0  0  0  0  0  0  0  0  0  0  0
   37.0754   24.4481   39.2398 H   0  0  0  0  0  0  0  0  0  0  0  0
   41.1728   21.6060   36.9057 H   0  0  0  0  0  0  0  0  0  0  0  0
   40.4057   21.1624   38.4540 H   0  0  0  0  0  0  0  0  0  0  0  0
  1  2  1  0
  1 17  1  0
  3  1  1  0
  3  2  1  0
  4  3  1  0
  5  4  2  0
  6  5  1  0
  7  6  1  0
  7 12  2  0
  8  7  1  0
  9  8  2  0
  9 10  1  0
 10 11  2  0
 11 12  1  0
 12  4  1  0
 13 19  1  0
 13 14  2  0
 15 14  1  0
 16 15  2  0
 17 18  2  0
 17 16  1  0
 18 13  1  0
  1 20  1  6
  2 21  1  0
  2 22  1  0
  3 23  1  1
  5 24  1  0
  6 25  1  0
  8 26  1  0
  9 27  1  0
 10 28  1  0
 11 29  1  0
 14 30  1  0
 15 31  1  0
 19 32  1  0
 19 33  1  0
M  ISO  8  20  13  21  13  22  13  23  13  24  14  25   9  26  14  27  14
M  ISO  4  28  14  29  14  30  14  31  14
M  END
>  <minimizedAffinity>  (1) 
-5.72602177

>  <minimizedRMSD>  (1) 
2.48802495

$$$$
