
     RDKit          3D

 30 32  0  0  1  0  0  0  0  0999 V2000
   38.2130   25.8640   35.4270 C   0  0  1  0  0  0  0  0  0  0  0  0
   38.6870   27.3120   35.6670 C   0  0  0  0  0  0  0  0  0  0  0  0
   39.3620   26.4110   34.6950 C   0  0  2  0  0  0  0  0  0  0  0  0
   39.3440   26.6210   33.2830 N   0  0  0  0  0  0  0  0  0  0  0  0
   38.1850   26.1610   32.7300 C   0  0  0  0  0  0  0  0  0  0  0  0
   37.9340   26.2550   31.3560 C   0  0  0  0  0  0  0  0  0  0  0  0
   38.9170   26.8370   30.5840 C   0  0  0  0  0  0  0  0  0  0  0  0
   38.8050   27.0040   29.1670 N   0  0  0  0  0  0  0  0  0  0  0  0
   40.0510   27.2840   31.1560 N   0  0  0  0  0  0  0  0  0  0  0  0
   40.2670   27.1810   32.4800 C   0  0  0  0  0  0  0  0  0  0  0  0
   41.2950   27.5710   33.0950 O   0  0  0  0  0  0  0  0  0  0  0  0
   39.3780   22.9550   37.3300 C   0  0  0  0  0  0  0  0  0  0  0  0
   38.8040   23.1280   38.5950 C   0  0  0  0  0  0  0  0  0  0  0  0
   38.0130   24.2760   38.7910 C   0  0  0  0  0  0  0  0  0  0  0  0
   37.8580   25.1330   37.7500 N   0  0  0  0  0  0  0  0  0  0  0  0
   38.4280   24.9190   36.5670 C   0  0  0  0  0  0  0  0  0  0  0  0
   39.2010   23.8230   36.3350 N   0  0  0  0  0  0  0  0  0  0  0  0
   40.1710   21.7710   37.1390 N   0  0  0  0  0  0  0  0  0  0  0  0
   37.2896   25.3551   35.1135 H   0  0  0  0  0  0  0  0  0  0  0  0
   38.0835   28.1603   35.3118 H   0  0  0  0  0  0  0  0  0  0  0  0
   38.9966   27.9074   36.5385 H   0  0  0  0  0  0  0  0  0  0  0  0
   40.4062   26.0931   34.5587 H   0  0  0  0  0  0  0  0  0  0  0  0
   37.4264   25.7034   33.3820 H   0  0  0  0  0  0  0  0  0  0  0  0
   36.9981   25.8827   30.9138 H   0  0  0  0  0  0  0  0  0  0  0  0
   37.9595   26.6808   28.6756 H   0  0  0  0  0  0  0  0  0  0  0  0
   39.5699   27.4474   28.6386 H   0  0  0  0  0  0  0  0  0  0  0  0
   38.9642   22.3977   39.4019 H   0  0  0  0  0  0  0  0  0  0  0  0
   37.5337   24.4730   39.7613 H   0  0  0  0  0  0  0  0  0  0  0  0
   40.6176   21.5917   36.2284 H   0  0  0  0  0  0  0  0  0  0  0  0
   40.2925   21.1021   37.9128 H   0  0  0  0  0  0  0  0  0  0  0  0
  1  2  1  0
  1 16  1  0
  3  1  1  0
  3  2  1  0
  4  3  1  0
  5  4  1  0
  6  5  2  0
  7  9  2  0
  7  6  1  0
  8  7  1  0
  9 10  1  0
 10 11  2  0
 10  4  1  0
 12 13  2  0
 13 14  1  0
 15 14  2  0
 16 15  1  0
 17 16  2  0
 17 12  1  0
 18 12  1  0
  1 19  1  6
  2 20  1  0
  2 21  1  0
  3 22  1  1
  5 23  1  0
  6 24  1  0
  8 25  1  0
  8 26  1  0
 13 27  1  0
 14 28  1  0
 18 29  1  0
 18 30  1  0
M  ISO  8  19  13  20  13  21  13  22  13  23  14  24  14  27  14  28  14
M  END
>  <minimizedAffinity>  (1) 
-4.99331427

>  <minimizedRMSD>  (1) 
2.58519244

$$$$
