
     RDKit          3D

 29 31  0  0  1  0  0  0  0  0999 V2000
   38.5790   25.6010   35.2220 C   0  0  1  0  0  0  0  0  0  0  0  0
   39.1050   27.0450   35.3780 C   0  0  0  0  0  0  0  0  0  0  0  0
   39.8180   26.0330   34.5630 C   0  0  2  0  0  0  0  0  0  0  0  0
   39.5620   22.9500   37.5750 C   0  0  0  0  0  0  0  0  0  0  0  0
   38.7580   23.2030   38.6970 C   0  0  0  0  0  0  0  0  0  0  0  0
   37.8850   24.2970   38.6390 C   0  0  0  0  0  0  0  0  0  0  0  0
   37.8610   25.0480   37.5150 N   0  0  0  0  0  0  0  0  0  0  0  0
   38.6420   24.7780   36.4630 C   0  0  0  0  0  0  0  0  0  0  0  0
   39.5040   23.7230   36.4820 N   0  0  0  0  0  0  0  0  0  0  0  0
   40.4480   21.8270   37.6250 N   0  0  0  0  0  0  0  0  0  0  0  0
   39.8340   26.0400   33.0930 C   0  0  0  0  0  0  0  0  0  0  0  0
   40.1950   24.9290   32.3490 C   0  0  0  0  0  0  0  0  0  0  0  0
   40.2060   24.9540   30.9560 C   0  0  0  0  0  0  0  0  0  0  0  0
   39.8520   26.1020   30.2640 C   0  0  0  0  0  0  0  0  0  0  0  0
   39.4830   27.2350   30.9690 C   0  0  0  0  0  0  0  0  0  0  0  0
   39.4860   27.1720   32.3470 C   0  0  0  0  0  0  0  0  0  0  0  0
   37.6689   25.0988   34.8623 H   0  0  0  0  0  0  0  0  0  0  0  0
   38.5826   27.8820   34.8918 H   0  0  0  0  0  0  0  0  0  0  0  0
   39.3625   27.7047   36.2197 H   0  0  0  0  0  0  0  0  0  0  0  0
   40.8718   25.7175   34.5640 H   0  0  0  0  0  0  0  0  0  0  0  0
   38.8114   22.5644   39.5910 H   0  0  0  0  0  0  0  0  0  0  0  0
   37.2324   24.5401   39.4905 H   0  0  0  0  0  0  0  0  0  0  0  0
   41.0526   21.6117   36.8194 H   0  0  0  0  0  0  0  0  0  0  0  0
   40.4810   21.2341   38.4666 H   0  0  0  0  0  0  0  0  0  0  0  0
   40.4802   24.0037   32.8710 H   0  0  0  0  0  0  0  0  0  0  0  0
   40.4991   24.0521   30.3986 H   0  0  0  0  0  0  0  0  0  0  0  0
   39.8642   26.1126   29.1641 H   0  0  0  0  0  0  0  0  0  0  0  0
   39.1957   28.1587   30.4454 H   0  0  0  0  0  0  0  0  0  0  0  0
   39.1937   28.0771   32.8997 H   0  0  0  0  0  0  0  0  0  0  0  0
  1  2  1  0
  1  8  1  0
  3  1  1  0
  3  2  1  0
  4 10  1  0
  4  5  2  0
  6  5  1  0
  7  6  2  0
  8  9  2  0
  8  7  1  0
  9  4  1  0
 11  3  1  0
 12 11  2  0
 13 12  1  0
 14 13  2  0
 14 15  1  0
 15 16  2  0
 16 11  1  0
  1 17  1  6
  2 18  1  0
  2 19  1  0
  3 20  1  1
  5 21  1  0
  6 22  1  0
 10 23  1  0
 10 24  1  0
 12 25  1  0
 13 26  1  0
 14 27  1  0
 15 28  1  0
 16 29  1  0
M  ISO  8  17  13  18  13  19  13  20  13  21  14  22  14  25  14  26  14
M  ISO  3  27  14  28  14  29  14
M  END
>  <minimizedAffinity>  (1) 
-4.6147213

>  <minimizedRMSD>  (1) 
1.8479408

$$$$
