
     RDKit          3D

 28 29  0  0  1  0  0  0  0  0999 V2000
   39.5910   22.9460   37.5480 C   0  0  0  0  0  0  0  0  0  0  0  0
   38.7080   23.1410   38.6310 C   0  0  0  0  0  0  0  0  0  0  0  0
   37.8400   24.2490   38.5570 C   0  0  0  0  0  0  0  0  0  0  0  0
   37.8960   25.0520   37.4730 N   0  0  0  0  0  0  0  0  0  0  0  0
   38.7530   24.8270   36.4690 C   0  0  0  0  0  0  0  0  0  0  0  0
   39.6130   23.7710   36.4900 N   0  0  0  0  0  0  0  0  0  0  0  0
   38.7800   25.7140   35.2650 C   0  0  1  0  0  0  0  0  0  0  0  0
   38.6170   27.2160   35.5820 C   0  0  0  0  0  0  0  0  0  0  0  0
   39.8910   26.6520   35.0660 C   0  0  2  0  0  0  0  0  0  0  0  0
   40.2980   27.0860   33.6770 C   0  0  0  0  0  0  0  0  0  0  0  0
   39.9010   26.0190   32.6740 C   0  0  0  0  0  0  0  0  0  0  0  0
   41.7840   27.2590   33.6040 C   0  0  0  0  0  0  0  0  0  0  0  0
   40.4540   21.8140   37.6300 N   0  0  0  0  0  0  0  0  0  0  0  0
   38.6975   22.4591   39.4941 H   0  0  0  0  0  0  0  0  0  0  0  0
   37.1282   24.4563   39.3696 H   0  0  0  0  0  0  0  0  0  0  0  0
   38.3108   24.9591   34.6170 H   0  0  0  0  0  0  0  0  0  0  0  0
   37.9919   27.8547   34.9406 H   0  0  0  0  0  0  0  0  0  0  0  0
   38.3131   27.8103   36.4563 H   0  0  0  0  0  0  0  0  0  0  0  0
   40.9371   26.6305   35.4053 H   0  0  0  0  0  0  0  0  0  0  0  0
   39.7963   28.0380   33.4491 H   0  0  0  0  0  0  0  0  0  0  0  0
   39.5660   25.1186   33.2098 H   0  0  0  0  0  0  0  0  0  0  0  0
   39.0828   26.3956   32.0425 H   0  0  0  0  0  0  0  0  0  0  0  0
   40.7664   25.7692   32.0425 H   0  0  0  0  0  0  0  0  0  0  0  0
   42.1980   27.3072   34.6220 H   0  0  0  0  0  0  0  0  0  0  0  0
   42.2265   26.4063   33.0682 H   0  0  0  0  0  0  0  0  0  0  0  0
   42.0188   28.1905   33.0682 H   0  0  0  0  0  0  0  0  0  0  0  0
   41.1211   21.6188   36.8698 H   0  0  0  0  0  0  0  0  0  0  0  0
   40.4104   21.1914   38.4494 H   0  0  0  0  0  0  0  0  0  0  0  0
  1 13  1  0
  1  2  2  0
  3  2  1  0
  4  3  2  0
  5  6  2  0
  5  4  1  0
  6  1  1  0
  7  8  1  0
  7  5  1  0
  9  7  1  0
  9  8  1  0
 10  9  1  0
 11 10  1  0
 12 10  1  0
  2 14  1  0
  3 15  1  0
  7 16  1  6
  8 17  1  0
  8 18  1  0
  9 19  1  1
 10 20  1  0
 11 21  1  0
 11 22  1  0
 11 23  1  0
 12 24  1  0
 12 25  1  0
 12 26  1  0
 13 27  1  0
 13 28  1  0
M  ISO  8  14  14  15  14  16  13  17  13  18  13  19  13  20   8  21   8
M  ISO  5  22   8  23   8  24   8  25   8  26   8
M  END
>  <minimizedAffinity>  (1) 
-4.59565449

>  <minimizedRMSD>  (1) 
1.9383533

$$$$
