
     RDKit          3D

 31 33  0  0  1  0  0  0  0  0999 V2000
   38.0410   25.0740   35.0970 C   0  0  1  0  0  0  0  0  0  0  0  0
   39.1520   25.9830   34.5270 C   0  0  0  0  0  0  0  0  0  0  0  0
   38.7880   24.6870   33.8990 C   0  0  2  0  0  0  0  0  0  0  0  0
   39.5620   22.8660   37.6060 C   0  0  0  0  0  0  0  0  0  0  0  0
   38.9650   23.2770   38.8240 C   0  0  0  0  0  0  0  0  0  0  0  0
   38.0520   24.3240   38.7430 C   0  0  0  0  0  0  0  0  0  0  0  0
   37.7830   24.8830   37.5420 N   0  0  0  0  0  0  0  0  0  0  0  0
   38.3740   24.4590   36.4160 C   0  0  0  0  0  0  0  0  0  0  0  0
   39.2760   23.4380   36.4410 N   0  0  0  0  0  0  0  0  0  0  0  0
   40.4980   21.7750   37.6750 N   0  0  0  0  0  0  0  0  0  0  0  0
   38.2900   24.6430   32.5730 N   0  0  0  0  0  0  0  0  0  0  0  0
   38.2550   23.3680   31.9330 C   0  0  0  0  0  0  0  0  0  0  0  0
   37.6570   23.7630   30.5720 C   0  0  0  0  0  0  0  0  0  0  0  0
   36.5060   24.6540   31.0490 C   0  0  0  0  0  0  0  0  0  0  0  0
   36.9340   25.1330   32.4360 C   0  0  0  0  0  0  0  0  0  0  0  0
   36.9662   25.1389   35.3219 H   0  0  0  0  0  0  0  0  0  0  0  0
   38.8955   26.9318   34.0331 H   0  0  0  0  0  0  0  0  0  0  0  0
   40.0732   26.4433   34.9137 H   0  0  0  0  0  0  0  0  0  0  0  0
   39.3088   23.7531   33.6410 H   0  0  0  0  0  0  0  0  0  0  0  0
   39.2102   22.7944   39.7816 H   0  0  0  0  0  0  0  0  0  0  0  0
   37.5524   24.6943   39.6504 H   0  0  0  0  0  0  0  0  0  0  0  0
   40.9598   21.4377   36.8184 H   0  0  0  0  0  0  0  0  0  0  0  0
   40.7060   21.3315   38.5810 H   0  0  0  0  0  0  0  0  0  0  0  0
   39.2618   22.9379   31.8263 H   0  0  0  0  0  0  0  0  0  0  0  0
   37.6933   22.5941   32.4767 H   0  0  0  0  0  0  0  0  0  0  0  0
   37.2937   22.8874   30.0140 H   0  0  0  0  0  0  0  0  0  0  0  0
   38.3596   24.2407   29.8734 H   0  0  0  0  0  0  0  0  0  0  0  0
   36.3691   25.5078   30.3691 H   0  0  0  0  0  0  0  0  0  0  0  0
   35.5464   24.1167   31.0724 H   0  0  0  0  0  0  0  0  0  0  0  0
   36.9071   26.2310   32.4960 H   0  0  0  0  0  0  0  0  0  0  0  0
   36.2696   24.7686   33.2334 H   0  0  0  0  0  0  0  0  0  0  0  0
  1  8  1  0
  2  1  1  0
  3  2  1  0
  3  1  1  0
  4 10  1  0
  4  5  2  0
  6  5  1  0
  7  6  2  0
  8  9  2  0
  8  7  1  0
  9  4  1  0
 11 12  1  0
 11  3  1  0
 13 14  1  0
 13 12  1  0
 14 15  1  0
 15 11  1  0
  1 16  1  6
  2 17  1  0
  2 18  1  0
  3 19  1  1
  5 20  1  0
  6 21  1  0
 10 22  1  0
 10 23  1  0
 12 24  1  0
 12 25  1  0
 13 26  1  0
 13 27  1  0
 14 28  1  0
 14 29  1  0
 15 30  1  0
 15 31  1  0
M  ISO  8  16  13  17  13  18  13  19  13  20  14  21  14  24  13  25  13
M  ISO  6  26  13  27  13  28  13  29  13  30  13  31  13
M  END
>  <minimizedAffinity>  (1) 
-4.444592

>  <minimizedRMSD>  (1) 
0.968301177

$$$$
