
     RDKit          3D

 26 28  0  0  1  0  0  0  0  0999 V2000
   38.1050   24.8690   35.0140 C   0  0  1  0  0  0  0  0  0  0  0  0
   39.2700   25.6070   34.3140 C   0  0  0  0  0  0  0  0  0  0  0  0
   38.7510   24.2990   33.8290 C   0  0  2  0  0  0  0  0  0  0  0  0
   39.6140   22.8220   37.6510 C   0  0  0  0  0  0  0  0  0  0  0  0
   39.0060   23.2920   38.8310 C   0  0  0  0  0  0  0  0  0  0  0  0
   38.0710   24.3390   38.7030 C   0  0  0  0  0  0  0  0  0  0  0  0
   37.8210   24.8200   37.4630 N   0  0  0  0  0  0  0  0  0  0  0  0
   38.4250   24.3380   36.3750 C   0  0  0  0  0  0  0  0  0  0  0  0
   39.3370   23.3290   36.4410 N   0  0  0  0  0  0  0  0  0  0  0  0
   40.5490   21.7460   37.8040 N   0  0  0  0  0  0  0  0  0  0  0  0
   38.0590   24.2020   32.5250 C   0  0  0  0  0  0  0  0  0  0  0  0
   38.7340   24.0810   31.3190 C   0  0  0  0  0  0  0  0  0  0  0  0
   37.8260   24.0170   30.3190 N   0  0  0  0  0  0  0  0  0  0  0  0
   36.5850   24.0970   30.8710 C   0  0  0  0  0  0  0  0  0  0  0  0
   36.7550   24.2080   32.1930 N   0  0  0  0  0  0  0  0  0  0  0  0
   37.0553   25.0680   35.2759 H   0  0  0  0  0  0  0  0  0  0  0  0
   39.0816   26.5271   33.7414 H   0  0  0  0  0  0  0  0  0  0  0  0
   40.2491   26.0065   34.6168 H   0  0  0  0  0  0  0  0  0  0  0  0
   39.2072   23.3196   33.6227 H   0  0  0  0  0  0  0  0  0  0  0  0
   39.2507   22.8598   39.8125 H   0  0  0  0  0  0  0  0  0  0  0  0
   37.5598   24.7528   39.5847 H   0  0  0  0  0  0  0  0  0  0  0  0
   41.0272   21.3579   36.9784 H   0  0  0  0  0  0  0  0  0  0  0  0
   40.7425   21.3610   38.7395 H   0  0  0  0  0  0  0  0  0  0  0  0
   39.8265   24.0434   31.1966 H   0  0  0  0  0  0  0  0  0  0  0  0
   35.6257   24.0747   30.3331 H   0  0  0  0  0  0  0  0  0  0  0  0
   35.9844   24.2880   32.8718 H   0  0  0  0  0  0  0  0  0  0  0  0
  1  8  1  0
  2  1  1  0
  3  2  1  0
  3  1  1  0
  4 10  1  0
  4  5  2  0
  6  5  1  0
  7  6  2  0
  8  9  2  0
  8  7  1  0
  9  4  1  0
 11  3  1  0
 12 11  2  0
 13 14  2  0
 13 12  1  0
 14 15  1  0
 15 11  1  0
  1 16  1  6
  2 17  1  0
  2 18  1  0
  3 19  1  1
  5 20  1  0
  6 21  1  0
 10 22  1  0
 10 23  1  0
 12 24  1  0
 14 25  1  0
 15 26  1  0
M  ISO  8  16  13  17  13  18  13  19  13  20  14  21  14  24  14  25  14
M  ISO  1  26   9
M  END
>  <minimizedAffinity>  (1) 
-4.41541719

>  <minimizedRMSD>  (1) 
0.911056459

$$$$
