
     RDKit          3D

 26 28  0  0  1  0  0  0  0  0999 V2000
   38.1820   24.9330   34.9650 C   0  0  1  0  0  0  0  0  0  0  0  0
   39.3680   25.6620   34.3130 C   0  0  0  0  0  0  0  0  0  0  0  0
   38.8610   24.3630   33.7950 C   0  0  2  0  0  0  0  0  0  0  0  0
   39.5980   22.8400   37.6290 C   0  0  0  0  0  0  0  0  0  0  0  0
   38.9630   23.3020   38.7920 C   0  0  0  0  0  0  0  0  0  0  0  0
   38.0480   24.3490   38.6400 C   0  0  0  0  0  0  0  0  0  0  0  0
   37.8290   24.8520   37.4050 N   0  0  0  0  0  0  0  0  0  0  0  0
   38.4620   24.3750   36.3240 C   0  0  0  0  0  0  0  0  0  0  0  0
   39.3610   23.3560   36.4190 N   0  0  0  0  0  0  0  0  0  0  0  0
   40.5260   21.7530   37.7870 N   0  0  0  0  0  0  0  0  0  0  0  0
   38.2160   24.2820   32.5030 N   0  0  0  0  0  0  0  0  0  0  0  0
   36.9190   24.4890   32.2040 C   0  0  0  0  0  0  0  0  0  0  0  0
   36.6870   24.3180   30.8530 C   0  0  0  0  0  0  0  0  0  0  0  0
   37.8840   23.9960   30.3180 N   0  0  0  0  0  0  0  0  0  0  0  0
   38.7890   23.9780   31.3160 C   0  0  0  0  0  0  0  0  0  0  0  0
   37.1280   25.1460   35.1967 H   0  0  0  0  0  0  0  0  0  0  0  0
   39.2050   26.5888   33.7433 H   0  0  0  0  0  0  0  0  0  0  0  0
   40.3390   26.0510   34.6535 H   0  0  0  0  0  0  0  0  0  0  0  0
   39.3215   23.3851   33.5906 H   0  0  0  0  0  0  0  0  0  0  0  0
   39.1749   22.8613   39.7773 H   0  0  0  0  0  0  0  0  0  0  0  0
   37.5152   24.7564   39.5118 H   0  0  0  0  0  0  0  0  0  0  0  0
   41.0204   21.3745   36.9665 H   0  0  0  0  0  0  0  0  0  0  0  0
   40.6964   21.3529   38.7207 H   0  0  0  0  0  0  0  0  0  0  0  0
   36.1463   24.7587   32.9389 H   0  0  0  0  0  0  0  0  0  0  0  0
   35.7282   24.4223   30.3241 H   0  0  0  0  0  0  0  0  0  0  0  0
   39.8560   23.7461   31.1827 H   0  0  0  0  0  0  0  0  0  0  0  0
  1  8  1  0
  2  1  1  0
  3  2  1  0
  3  1  1  0
  4 10  1  0
  4  5  2  0
  6  5  1  0
  7  6  2  0
  8  9  2  0
  8  7  1  0
  9  4  1  0
 11  3  1  0
 12 11  1  0
 13 12  2  0
 14 13  1  0
 14 15  2  0
 15 11  1  0
  1 16  1  6
  2 17  1  0
  2 18  1  0
  3 19  1  1
  5 20  1  0
  6 21  1  0
 10 22  1  0
 10 23  1  0
 12 24  1  0
 13 25  1  0
 15 26  1  0
M  ISO  8  16  13  17  13  18  13  19  13  20  14  21  14  24  14  25  14
M  ISO  1  26  14
M  END
>  <minimizedAffinity>  (1) 
-4.41529751

>  <minimizedRMSD>  (1) 
0.8420192

$$$$
