
     RDKit          3D

 26 28  0  0  1  0  0  0  0  0999 V2000
   38.2080   24.5250   34.7050 C   0  0  1  0  0  0  0  0  0  0  0  0
   38.5250   25.9940   34.3600 C   0  0  0  0  0  0  0  0  0  0  0  0
   39.3110   24.8670   33.7970 C   0  0  1  0  0  0  0  0  0  0  0  0
   39.6310   22.7600   37.5810 C   0  0  0  0  0  0  0  0  0  0  0  0
   38.9540   23.3270   38.6830 C   0  0  0  0  0  0  0  0  0  0  0  0
   38.0050   24.3330   38.4230 C   0  0  0  0  0  0  0  0  0  0  0  0
   37.8020   24.6930   37.1300 N   0  0  0  0  0  0  0  0  0  0  0  0
   38.4650   24.1300   36.1230 C   0  0  0  0  0  0  0  0  0  0  0  0
   39.3700   23.1730   36.3460 N   0  0  0  0  0  0  0  0  0  0  0  0
   40.5710   21.7390   37.8810 N   0  0  0  0  0  0  0  0  0  0  0  0
   40.7400   24.8740   34.1990 C   0  0  0  0  0  0  0  0  0  0  0  0
   41.4480   25.9120   34.8240 C   0  0  0  0  0  0  0  0  0  0  0  0
   42.7570   25.5320   35.0330 C   0  0  0  0  0  0  0  0  0  0  0  0
   42.7540   24.2590   34.5090 C   0  0  0  0  0  0  0  0  0  0  0  0
   41.6040   23.8750   34.0290 O   0  0  0  0  0  0  0  0  0  0  0  0
   37.3582   23.8313   34.6243 H   0  0  0  0  0  0  0  0  0  0  0  0
   37.8452   26.5727   33.7173 H   0  0  0  0  0  0  0  0  0  0  0  0
   38.7516   26.9073   34.9297 H   0  0  0  0  0  0  0  0  0  0  0  0
   39.5586   24.4531   32.8084 H   0  0  0  0  0  0  0  0  0  0  0  0
   39.1616   22.9934   39.7104 H   0  0  0  0  0  0  0  0  0  0  0  0
   37.4461   24.8118   39.2405 H   0  0  0  0  0  0  0  0  0  0  0  0
   41.0981   21.2849   37.1215 H   0  0  0  0  0  0  0  0  0  0  0  0
   40.7258   21.4524   38.8581 H   0  0  0  0  0  0  0  0  0  0  0  0
   41.0214   26.8859   35.1059 H   0  0  0  0  0  0  0  0  0  0  0  0
   43.5819   26.0948   35.4944 H   0  0  0  0  0  0  0  0  0  0  0  0
   43.6482   23.6184   34.4963 H   0  0  0  0  0  0  0  0  0  0  0  0
  1  8  1  0
  2  1  1  0
  3 11  1  0
  3  2  1  0
  3  1  1  0
  4 10  1  0
  4  5  2  0
  6  5  1  0
  7  6  2  0
  8  9  2  0
  8  7  1  0
  9  4  1  0
 11 12  2  0
 12 13  1  0
 14 13  2  0
 15 11  1  0
 15 14  1  0
  1 16  1  6
  2 17  1  0
  2 18  1  0
  3 19  1  6
  5 20  1  0
  6 21  1  0
 10 22  1  0
 10 23  1  0
 12 24  1  0
 13 25  1  0
 14 26  1  0
M  ISO  8  16  13  17  13  18  13  19  13  20  14  21  14  24  14  25  14
M  ISO  1  26  14
M  END
>  <minimizedAffinity>  (1) 
-4.37154388

>  <minimizedRMSD>  (1) 
1.24256945

$$$$
