
     RDKit          3D

 21 22  0  0  1  0  0  0  0  0999 V2000
   39.6580   22.7910   37.5630 C   0  0  0  0  0  0  0  0  0  0  0  0
   38.9050   23.2890   38.6320 C   0  0  0  0  0  0  0  0  0  0  0  0
   37.9600   24.2870   38.3730 C   0  0  0  0  0  0  0  0  0  0  0  0
   37.8260   24.7140   37.0970 N   0  0  0  0  0  0  0  0  0  0  0  0
   38.5690   24.2110   36.0990 C   0  0  0  0  0  0  0  0  0  0  0  0
   39.4930   23.2440   36.3200 N   0  0  0  0  0  0  0  0  0  0  0  0
   38.3770   24.6860   34.6920 C   0  0  1  0  0  0  0  0  0  0  0  0
   39.3300   25.8250   34.2610 C   0  0  0  0  0  0  0  0  0  0  0  0
   39.4210   24.4530   33.6900 C   0  0  2  0  0  0  0  0  0  0  0  0
   38.9530   24.2390   32.3350 N   0  0  0  0  0  0  0  0  0  0  0  0
   40.5890   21.7670   37.8790 N   0  0  0  0  0  0  0  0  0  0  0  0
   39.0528   22.9047   39.6520 H   0  0  0  0  0  0  0  0  0  0  0  0
   37.3457   24.7108   39.1811 H   0  0  0  0  0  0  0  0  0  0  0  0
   37.2943   24.4925   34.7089 H   0  0  0  0  0  0  0  0  0  0  0  0
   38.9583   26.6592   33.6478 H   0  0  0  0  0  0  0  0  0  0  0  0
   40.0168   26.5170   34.7703 H   0  0  0  0  0  0  0  0  0  0  0  0
   40.2552   23.7431   33.5893 H   0  0  0  0  0  0  0  0  0  0  0  0
   38.0165   23.8108   32.3588 H   0  0  0  0  0  0  0  0  0  0  0  0
   38.9052   25.1419   31.8416 H   0  0  0  0  0  0  0  0  0  0  0  0
   41.1749   21.3570   37.1377 H   0  0  0  0  0  0  0  0  0  0  0  0
   40.6786   21.4340   38.8496 H   0  0  0  0  0  0  0  0  0  0  0  0
  1 11  1  0
  1  2  2  0
  3  2  1  0
  4  3  2  0
  5  6  2  0
  5  4  1  0
  6  1  1  0
  7  5  1  0
  8  7  1  0
  9  8  1  0
  9  7  1  0
 10  9  1  0
  2 12  1  0
  3 13  1  0
  7 14  1  6
  8 15  1  0
  8 16  1  0
  9 17  1  1
 10 18  1  0
 10 19  1  0
 11 20  1  0
 11 21  1  0
M  ISO  8  12  14  13  14  14  13  15  13  16  13  17  13  18   5  19   5
M  END
>  <minimizedAffinity>  (1) 
-3.81857157

>  <minimizedRMSD>  (1) 
0.0293976162

$$$$
