
     RDKit          3D

 36 37  0  0  0  0  0  0  0  0999 V2000
   39.5760   26.3360   34.8740 C   0  0  0  0  0  0  0  0  0  0  0  0
   38.4280   27.1050   34.3160 C   0  0  0  0  0  0  0  0  0  0  0  0
   37.5490   27.7400   35.1620 C   0  0  0  0  0  0  0  0  0  0  0  0
   36.4550   28.4750   34.7230 C   0  0  0  0  0  0  0  0  0  0  0  0
   36.2570   28.5590   33.3710 N   0  0  0  0  0  0  0  0  0  0  0  0
   37.1290   27.9290   32.5260 C   0  0  0  0  0  0  0  0  0  0  0  0
   38.1760   27.2280   33.0250 N   0  0  0  0  0  0  0  0  0  0  0  0
   36.9320   28.0070   31.0610 C   0  0  0  0  0  0  0  0  0  0  0  0
   36.0270   26.8350   30.6960 C   0  0  0  0  0  0  0  0  0  0  0  0
   36.1590   29.2710   30.7670 C   0  0  0  0  0  0  0  0  0  0  0  0
   38.2230   27.9700   30.2830 C   0  0  0  0  0  0  0  0  0  0  0  0
   39.4030   24.8500   34.7430 C   0  0  0  0  0  0  0  0  0  0  0  0
   39.8720   22.7670   37.8020 C   0  0  0  0  0  0  0  0  0  0  0  0
   38.7990   23.2130   38.6140 C   0  0  0  0  0  0  0  0  0  0  0  0
   37.9500   24.2090   38.0880 C   0  0  0  0  0  0  0  0  0  0  0  0
   38.2010   24.6900   36.8410 N   0  0  0  0  0  0  0  0  0  0  0  0
   39.2370   24.2350   36.1030 C   0  0  0  0  0  0  0  0  0  0  0  0
   40.0450   23.2990   36.5800 N   0  0  0  0  0  0  0  0  0  0  0  0
   40.4900   26.6315   34.3381 H   0  0  0  0  0  0  0  0  0  0  0  0
   39.6378   26.5677   35.9475 H   0  0  0  0  0  0  0  0  0  0  0  0
   37.7217   27.6616   36.2455 H   0  0  0  0  0  0  0  0  0  0  0  0
   35.7755   28.9694   35.4328 H   0  0  0  0  0  0  0  0  0  0  0  0
   35.6577   26.3568   31.6152 H   0  0  0  0  0  0  0  0  0  0  0  0
   35.1744   27.2004   30.1048 H   0  0  0  0  0  0  0  0  0  0  0  0
   36.5961   26.1025   30.1048 H   0  0  0  0  0  0  0  0  0  0  0  0
   35.8660   29.7500   31.7129 H   0  0  0  0  0  0  0  0  0  0  0  0
   36.7902   29.9603   30.1870 H   0  0  0  0  0  0  0  0  0  0  0  0
   35.2578   29.0231   30.1870 H   0  0  0  0  0  0  0  0  0  0  0  0
   39.0719   27.9457   30.9822 H   0  0  0  0  0  0  0  0  0  0  0  0
   38.2438   27.0709   29.6496 H   0  0  0  0  0  0  0  0  0  0  0  0
   38.2952   28.8664   29.6496 H   0  0  0  0  0  0  0  0  0  0  0  0
   38.5109   24.6384   34.1353 H   0  0  0  0  0  0  0  0  0  0  0  0
   40.2925   24.4224   34.2573 H   0  0  0  0  0  0  0  0  0  0  0  0
   40.5587   21.9904   38.1698 H   0  0  0  0  0  0  0  0  0  0  0  0
   38.6343   22.7970   39.6189 H   0  0  0  0  0  0  0  0  0  0  0  0
   37.1012   24.5894   38.6752 H   0  0  0  0  0  0  0  0  0  0  0  0
  2  1  1  0
  2  3  2  0
  4  3  1  0
  5  4  2  0
  6  7  2  0
  6  5  1  0
  7  2  1  0
  8  6  1  0
  9  8  1  0
 10  8  1  0
 11  8  1  0
 12  1  1  0
 12 17  1  0
 13 14  2  0
 15 14  1  0
 16 15  2  0
 17 18  2  0
 17 16  1  0
 18 13  1  0
  1 19  1  0
  1 20  1  0
  3 21  1  0
  4 22  1  0
  9 23  1  0
  9 24  1  0
  9 25  1  0
 10 26  1  0
 10 27  1  0
 10 28  1  0
 11 29  1  0
 11 30  1  0
 11 31  1  0
 12 32  1  0
 12 33  1  0
 13 34  1  0
 14 35  1  0
 15 36  1  0
M  ISO  8  19   8  20   8  21  14  22  14  23   8  24   8  25   8  26   8
M  ISO  8  27   8  28   8  29   8  30   8  31   8  32   8  33   8  34  14
M  ISO  2  35  14  36  14
M  END
>  <minimizedAffinity>  (1) 
-4.5167222

>  <minimizedRMSD>  (1) 
0.667752504

$$$$
