
     RDKit          3D

 34 36  0  0  1  0  0  0  0  0999 V2000
   38.3140   24.3740   34.5740 C   0  0  1  0  0  0  0  0  0  0  0  0
   38.7470   25.7910   34.1170 C   0  0  0  0  0  0  0  0  0  0  0  0
   39.4330   24.5840   33.6330 C   0  0  1  0  0  0  0  0  0  0  0  0
   40.8190   24.4360   34.1370 C   0  0  0  0  0  0  0  0  0  0  0  0
   41.4330   23.2710   33.7400 C   0  0  0  0  0  0  0  0  0  0  0  0
   42.7430   22.9240   34.0730 C   0  0  0  0  0  0  0  0  0  0  0  0
   43.4580   23.7830   34.8350 N   0  0  0  0  0  0  0  0  0  0  0  0
   42.8490   24.9200   35.2180 C   0  0  0  0  0  0  0  0  0  0  0  0
   41.5960   25.2260   34.8850 N   0  0  0  0  0  0  0  0  0  0  0  0
   43.5680   25.8510   36.0210 N   0  0  0  0  0  0  0  0  0  0  0  0
   44.5910   25.4010   36.9340 C   0  0  0  0  0  0  0  0  0  0  0  0
   45.2480   24.3150   36.6100 N   0  0  0  0  0  0  0  0  0  0  0  0
   44.7900   26.1910   38.1190 N   0  0  0  0  0  0  0  0  0  0  0  0
   45.9840   23.9600   37.2320 H   0  0  0  0  0  0  0  0  0  0  0  0
   39.6170   22.7260   37.5540 C   0  0  0  0  0  0  0  0  0  0  0  0
   38.9210   23.3530   38.6140 C   0  0  0  0  0  0  0  0  0  0  0  0
   37.9970   24.3650   38.2780 C   0  0  0  0  0  0  0  0  0  0  0  0
   37.8430   24.6620   36.9570 N   0  0  0  0  0  0  0  0  0  0  0  0
   38.5160   24.0460   36.0020 C   0  0  0  0  0  0  0  0  0  0  0  0
   39.4050   23.0810   36.2610 N   0  0  0  0  0  0  0  0  0  0  0  0
   40.5340   21.7080   37.9120 N   0  0  0  0  0  0  0  0  0  0  0  0
   37.4177   23.7368   34.5483 H   0  0  0  0  0  0  0  0  0  0  0  0
   38.1069   26.3743   33.4387 H   0  0  0  0  0  0  0  0  0  0  0  0
   39.0516   26.7208   34.6196 H   0  0  0  0  0  0  0  0  0  0  0  0
   39.6511   24.1472   32.6473 H   0  0  0  0  0  0  0  0  0  0  0  0
   40.8552   22.5687   33.1212 H   0  0  0  0  0  0  0  0  0  0  0  0
   43.1823   21.9774   33.7252 H   0  0  0  0  0  0  0  0  0  0  0  0
   43.3555   26.8563   35.9493 H   0  0  0  0  0  0  0  0  0  0  0  0
   45.5067   25.9171   38.8062 H   0  0  0  0  0  0  0  0  0  0  0  0
   44.2158   27.0307   38.2806 H   0  0  0  0  0  0  0  0  0  0  0  0
   39.0937   23.0625   39.6608 H   0  0  0  0  0  0  0  0  0  0  0  0
   37.4228   24.8941   39.0529 H   0  0  0  0  0  0  0  0  0  0  0  0
   41.0690   21.2167   37.1817 H   0  0  0  0  0  0  0  0  0  0  0  0
   40.6659   21.4588   38.9027 H   0  0  0  0  0  0  0  0  0  0  0  0
  1 19  1  0
  2  1  1  0
  3  2  1  0
  3  4  1  0
  3  1  1  0
  4  9  2  0
  5  6  2  0
  5  4  1  0
  6  7  1  0
  7  8  2  0
  8 10  1  0
  9  8  1  0
 10 11  1  0
 11 13  1  0
 12 11  2  0
 12 14  1  0
 15 21  1  0
 15 16  2  0
 17 16  1  0
 18 17  2  0
 19 20  2  0
 19 18  1  0
 20 15  1  0
  1 22  1  6
  2 23  1  0
  2 24  1  0
  3 25  1  6
  5 26  1  0
  6 27  1  0
 10 28  1  0
 13 29  1  0
 13 30  1  0
 16 31  1  0
 17 32  1  0
 21 33  1  0
 21 34  1  0
M  ISO  8  22  13  23  13  24  13  25  13  26  14  27  14  31  14  32  14
M  END
>  <minimizedAffinity>  (1) 
-5.56243086

>  <minimizedRMSD>  (1) 
0.574577212

$$$$
