
     RDKit          3D

 30 32  0  0  1  0  0  0  0  0999 V2000
   38.7860   25.1110   34.8600 C   0  0  1  0  0  0  0  0  0  0  0  0
   39.5540   26.4510   34.6910 C   0  0  0  0  0  0  0  0  0  0  0  0
   39.9850   25.2260   34.0040 C   0  0  1  0  0  0  0  0  0  0  0  0
   39.6730   22.8350   37.5660 C   0  0  0  0  0  0  0  0  0  0  0  0
   38.8970   23.2810   38.6510 C   0  0  0  0  0  0  0  0  0  0  0  0
   38.0560   24.4000   38.4340 C   0  0  0  0  0  0  0  0  0  0  0  0
   38.0600   24.9620   37.1950 N   0  0  0  0  0  0  0  0  0  0  0  0
   38.8150   24.5000   36.2060 C   0  0  0  0  0  0  0  0  0  0  0  0
   39.6200   23.4510   36.3600 N   0  0  0  0  0  0  0  0  0  0  0  0
   40.5000   21.7090   37.8000 N   0  0  0  0  0  0  0  0  0  0  0  0
   41.2660   24.6770   34.5060 C   0  0  0  0  0  0  0  0  0  0  0  0
   41.5600   23.4160   34.0490 C   0  0  0  0  0  0  0  0  0  0  0  0
   42.7270   22.7210   34.3830 C   0  0  0  0  0  0  0  0  0  0  0  0
   43.6180   23.3080   35.1960 N   0  0  0  0  0  0  0  0  0  0  0  0
   43.3340   24.5480   35.6480 C   0  0  0  0  0  0  0  0  0  0  0  0
   42.2140   25.1900   35.3150 N   0  0  0  0  0  0  0  0  0  0  0  0
   44.2500   25.2610   36.5370 C   0  0  0  0  0  0  0  0  0  0  0  0
   44.6360   24.8200   37.6510 O   0  0  0  0  0  0  0  0  0  0  0  0
   44.7790   26.5060   36.2270 O   0  0  0  0  0  0  0  0  0  0  0  0
   37.7760   24.7094   34.6906 H   0  0  0  0  0  0  0  0  0  0  0  0
   39.1065   27.2782   34.1205 H   0  0  0  0  0  0  0  0  0  0  0  0
   40.0231   27.1798   35.3683 H   0  0  0  0  0  0  0  0  0  0  0  0
   40.1660   24.9353   32.9587 H   0  0  0  0  0  0  0  0  0  0  0  0
   38.9414   22.7805   39.6295 H   0  0  0  0  0  0  0  0  0  0  0  0
   37.4221   24.8004   39.2388 H   0  0  0  0  0  0  0  0  0  0  0  0
   41.0907   21.3375   37.0424 H   0  0  0  0  0  0  0  0  0  0  0  0
   40.5106   21.2617   38.7278 H   0  0  0  0  0  0  0  0  0  0  0  0
   40.8364   22.9243   33.3821 H   0  0  0  0  0  0  0  0  0  0  0  0
   42.9107   21.7116   33.9863 H   0  0  0  0  0  0  0  0  0  0  0  0
   45.3962   26.9529   36.8590 H   0  0  0  0  0  0  0  0  0  0  0  0
  1  8  1  0
  2  1  1  0
  3 11  1  0
  3  2  1  0
  3  1  1  0
  4 10  1  0
  4  5  2  0
  6  5  1  0
  7  6  2  0
  8  9  2  0
  8  7  1  0
  9  4  1  0
 11 16  2  0
 12 13  2  0
 12 11  1  0
 13 14  1  0
 14 15  2  0
 15 17  1  0
 16 15  1  0
 17 18  2  0
 19 17  1  0
  1 20  1  6
  2 21  1  0
  2 22  1  0
  3 23  1  6
  5 24  1  0
  6 25  1  0
 10 26  1  0
 10 27  1  0
 12 28  1  0
 13 29  1  0
 19 30  1  0
M  ISO  8  20  13  21  13  22  13  23  13  24  14  25  14  28  14  29  14
M  ISO  1  30   3
M  END
>  <minimizedAffinity>  (1) 
-5.10280371

>  <minimizedRMSD>  (1) 
1.18964863

$$$$
