
     RDKit          3D

 37 40  0  0  1  0  0  0  0  0999 V2000
   41.6270   22.2610   33.6150 C   0  0  1  0  0  0  0  0  0  0  0  0
   42.2110   23.5780   33.0420 C   0  0  0  0  0  0  0  0  0  0  0  0
   43.0170   22.3550   33.1250 C   0  0  1  0  0  0  0  0  0  0  0  0
   41.5900   21.2690   37.1230 C   0  0  0  0  0  0  0  0  0  0  0  0
   40.6630   22.1600   37.7140 C   0  0  0  0  0  0  0  0  0  0  0  0
   40.0550   23.1210   36.8740 C   0  0  0  0  0  0  0  0  0  0  0  0
   40.4030   23.1200   35.5590 N   0  0  0  0  0  0  0  0  0  0  0  0
   41.2810   22.2590   35.0540 C   0  0  0  0  0  0  0  0  0  0  0  0
   41.8800   21.3390   35.8000 N   0  0  0  0  0  0  0  0  0  0  0  0
   42.1810   20.3110   37.9790 N   0  0  0  0  0  0  0  0  0  0  0  0
   44.1120   22.4180   34.1170 C   0  0  0  0  0  0  0  0  0  0  0  0
   45.0780   21.4540   33.9570 C   0  0  0  0  0  0  0  0  0  0  0  0
   46.2120   21.3490   34.7720 C   0  0  0  0  0  0  0  0  0  0  0  0
   46.3780   22.2250   35.7610 N   0  0  0  0  0  0  0  0  0  0  0  0
   45.4270   23.1870   35.9310 C   0  0  0  0  0  0  0  0  0  0  0  0
   44.3590   23.2570   35.1350 N   0  0  0  0  0  0  0  0  0  0  0  0
   45.5290   24.1850   36.9890 C   0  0  0  0  0  0  0  0  0  0  0  0
   46.7560   24.3190   37.6450 C   0  0  0  0  0  0  0  0  0  0  0  0
   46.9770   25.2120   38.6470 C   0  0  0  0  0  0  0  0  0  0  0  0
   45.9110   26.0240   39.0220 C   0  0  0  0  0  0  0  0  0  0  0  0
   44.6820   25.9220   38.3990 C   0  0  0  0  0  0  0  0  0  0  0  0
   44.4790   24.9950   37.3700 C   0  0  0  0  0  0  0  0  0  0  0  0
   40.8001   21.5656   33.4084 H   0  0  0  0  0  0  0  0  0  0  0  0
   42.4220   24.4269   33.7090 H   0  0  0  0  0  0  0  0  0  0  0  0
   41.9295   24.2817   32.2448 H   0  0  0  0  0  0  0  0  0  0  0  0
   43.5840   21.7408   32.4100 H   0  0  0  0  0  0  0  0  0  0  0  0
   40.4245   22.1069   38.7865 H   0  0  0  0  0  0  0  0  0  0  0  0
   39.3264   23.8438   37.2698 H   0  0  0  0  0  0  0  0  0  0  0  0
   42.8631   19.6365   37.6040 H   0  0  0  0  0  0  0  0  0  0  0  0
   41.9294   20.2878   38.9775 H   0  0  0  0  0  0  0  0  0  0  0  0
   44.9537   20.7241   33.1435 H   0  0  0  0  0  0  0  0  0  0  0  0
   46.9537   20.5556   34.5979 H   0  0  0  0  0  0  0  0  0  0  0  0
   47.5866   23.6680   37.3346 H   0  0  0  0  0  0  0  0  0  0  0  0
   47.9572   25.2890   39.1401 H   0  0  0  0  0  0  0  0  0  0  0  0
   46.0491   26.7596   39.8281 H   0  0  0  0  0  0  0  0  0  0  0  0
   43.8553   26.5754   38.7146 H   0  0  0  0  0  0  0  0  0  0  0  0
   43.5004   24.9138   36.8743 H   0  0  0  0  0  0  0  0  0  0  0  0
  1  8  1  0
  2  3  1  0
  2  1  1  0
  3  1  1  0
  3 11  1  0
  4  5  2  0
  4 10  1  0
  6  5  1  0
  7  6  2  0
  8  7  1  0
  8  9  2  0
  9  4  1  0
 11 16  1  0
 12 11  2  0
 12 13  1  0
 13 14  2  0
 14 15  1  0
 15 17  1  0
 16 15  2  0
 17 22  1  0
 17 18  2  0
 18 19  1  0
 19 20  2  0
 21 20  1  0
 22 21  2  0
  1 23  1  6
  2 24  1  0
  2 25  1  0
  3 26  1  6
  5 27  1  0
  6 28  1  0
 10 29  1  0
 10 30  1  0
 12 31  1  0
 13 32  1  0
 18 33  1  0
 19 34  1  0
 20 35  1  0
 21 36  1  0
 22 37  1  0
M  ISO  8  23  13  24  13  25  13  26  13  27  14  28  14  31  14  32  14
M  ISO  5  33  14  34  14  35  14  36  14  37  14
M  END
>  <minimizedAffinity>  (1) 
-5.01856565

>  <minimizedRMSD>  (1) 
3.69783115

$$$$
