
     RDKit          3D

 30 31  0  0  0  0  0  0  0  0999 V2000
   37.8770   26.7110   35.3040 C   0  0  0  0  0  0  0  0  0  0  0  0
   37.0040   27.2230   34.2010 C   0  0  0  0  0  0  0  0  0  0  0  0
   36.3210   28.4040   34.3570 C   0  0  0  0  0  0  0  0  0  0  0  0
   35.4860   28.9640   33.3930 C   0  0  0  0  0  0  0  0  0  0  0  0
   35.3660   28.2700   32.2400 N   0  0  0  0  0  0  0  0  0  0  0  0
   36.0310   27.0960   32.0560 C   0  0  0  0  0  0  0  0  0  0  0  0
   36.8290   26.6100   33.0430 N   0  0  0  0  0  0  0  0  0  0  0  0
   35.9220   26.2960   30.7900 C   0  0  0  0  0  0  0  0  0  0  0  0
   34.8570   25.2210   30.9380 C   0  0  0  0  0  0  0  0  0  0  0  0
   38.5000   25.3890   34.9890 C   0  0  0  0  0  0  0  0  0  0  0  0
   39.6570   22.8870   37.4960 C   0  0  0  0  0  0  0  0  0  0  0  0
   38.8750   23.2070   38.6120 C   0  0  0  0  0  0  0  0  0  0  0  0
   37.9630   24.2820   38.4770 C   0  0  0  0  0  0  0  0  0  0  0  0
   37.8970   24.9370   37.2840 N   0  0  0  0  0  0  0  0  0  0  0  0
   38.6780   24.5830   36.2400 C   0  0  0  0  0  0  0  0  0  0  0  0
   39.5340   23.5820   36.3510 N   0  0  0  0  0  0  0  0  0  0  0  0
   38.6786   27.4422   35.4849 H   0  0  0  0  0  0  0  0  0  0  0  0
   37.2405   26.5723   36.1904 H   0  0  0  0  0  0  0  0  0  0  0  0
   36.4414   28.9443   35.3075 H   0  0  0  0  0  0  0  0  0  0  0  0
   34.9565   29.9135   33.5603 H   0  0  0  0  0  0  0  0  0  0  0  0
   36.8907   25.8207   30.5760 H   0  0  0  0  0  0  0  0  0  0  0  0
   35.6423   26.9670   29.9645 H   0  0  0  0  0  0  0  0  0  0  0  0
   34.6712   25.0335   32.0059 H   0  0  0  0  0  0  0  0  0  0  0  0
   33.9266   25.5580   30.4576 H   0  0  0  0  0  0  0  0  0  0  0  0
   35.2027   24.2938   30.4576 H   0  0  0  0  0  0  0  0  0  0  0  0
   37.8498   24.8387   34.2930 H   0  0  0  0  0  0  0  0  0  0  0  0
   39.4857   25.5594   34.5315 H   0  0  0  0  0  0  0  0  0  0  0  0
   40.3790   22.0593   37.5560 H   0  0  0  0  0  0  0  0  0  0  0  0
   38.9651   22.6469   39.5544 H   0  0  0  0  0  0  0  0  0  0  0  0
   37.3209   24.5821   39.3182 H   0  0  0  0  0  0  0  0  0  0  0  0
  2  3  2  0
  2  1  1  0
  4  3  1  0
  5  4  2  0
  6  5  1  0
  6  7  2  0
  7  2  1  0
  8  9  1  0
  8  6  1  0
 10  1  1  0
 10 15  1  0
 11 12  2  0
 13 12  1  0
 14 13  2  0
 15 16  2  0
 15 14  1  0
 16 11  1  0
  1 17  1  0
  1 18  1  0
  3 19  1  0
  4 20  1  0
  8 21  1  0
  8 22  1  0
  9 23  1  0
  9 24  1  0
  9 25  1  0
 10 26  1  0
 10 27  1  0
 11 28  1  0
 12 29  1  0
 13 30  1  0
M  ISO  8  17   8  18   8  19  14  20  14  21   8  22   8  23   8  24   8
M  ISO  6  25   8  26   8  27   8  28  14  29  14  30  14
M  END
>  <minimizedAffinity>  (1) 
-4.48276377

>  <minimizedRMSD>  (1) 
1.30754817

$$$$
