
     RDKit          3D

 29 31  0  0  1  0  0  0  0  0999 V2000
   38.7750   25.1120   34.8620 C   0  0  1  0  0  0  0  0  0  0  0  0
   39.5330   26.4550   34.6910 C   0  0  0  0  0  0  0  0  0  0  0  0
   39.9680   25.2310   34.0030 C   0  0  1  0  0  0  0  0  0  0  0  0
   39.6720   22.8320   37.5630 C   0  0  0  0  0  0  0  0  0  0  0  0
   38.8960   23.2840   38.6540 C   0  0  0  0  0  0  0  0  0  0  0  0
   38.0610   24.4000   38.4380 C   0  0  0  0  0  0  0  0  0  0  0  0
   38.0650   24.9560   37.1980 N   0  0  0  0  0  0  0  0  0  0  0  0
   38.8080   24.5000   36.2070 C   0  0  0  0  0  0  0  0  0  0  0  0
   39.6190   23.4450   36.3530 N   0  0  0  0  0  0  0  0  0  0  0  0
   40.5010   21.7080   37.7940 N   0  0  0  0  0  0  0  0  0  0  0  0
   41.2550   24.6930   34.5060 C   0  0  0  0  0  0  0  0  0  0  0  0
   41.5610   23.4360   34.0450 C   0  0  0  0  0  0  0  0  0  0  0  0
   42.7300   22.7450   34.3710 C   0  0  0  0  0  0  0  0  0  0  0  0
   43.6150   23.3320   35.1810 N   0  0  0  0  0  0  0  0  0  0  0  0
   43.3260   24.5790   35.6470 C   0  0  0  0  0  0  0  0  0  0  0  0
   42.1960   25.2050   35.3110 N   0  0  0  0  0  0  0  0  0  0  0  0
   44.2320   25.2960   36.5340 C   0  0  0  0  0  0  0  0  0  0  0  0
   44.6410   24.8460   37.6300 O   0  0  0  0  0  0  0  0  0  0  0  0
   37.7665   24.7053   34.6959 H   0  0  0  0  0  0  0  0  0  0  0  0
   39.0789   27.2795   34.1218 H   0  0  0  0  0  0  0  0  0  0  0  0
   40.0001   27.1870   35.3663 H   0  0  0  0  0  0  0  0  0  0  0  0
   40.1462   24.9383   32.9577 H   0  0  0  0  0  0  0  0  0  0  0  0
   38.9414   22.7851   39.6333 H   0  0  0  0  0  0  0  0  0  0  0  0
   37.4302   24.8051   39.2430 H   0  0  0  0  0  0  0  0  0  0  0  0
   41.0881   21.3361   37.0338 H   0  0  0  0  0  0  0  0  0  0  0  0
   40.5171   21.2620   38.7223 H   0  0  0  0  0  0  0  0  0  0  0  0
   40.8399   22.9424   33.3769 H   0  0  0  0  0  0  0  0  0  0  0  0
   42.9180   21.7384   33.9691 H   0  0  0  0  0  0  0  0  0  0  0  0
   44.5782   26.2928   36.2232 H   0  0  0  0  0  0  0  0  0  0  0  0
  1  8  1  0
  2  1  1  0
  3 11  1  0
  3  2  1  0
  3  1  1  0
  4 10  1  0
  4  5  2  0
  6  5  1  0
  7  6  2  0
  8  9  2  0
  8  7  1  0
  9  4  1  0
 11 16  2  0
 12 13  2  0
 12 11  1  0
 13 14  1  0
 14 15  2  0
 15 17  1  0
 16 15  1  0
 17 18  2  0
  1 19  1  6
  2 20  1  0
  2 21  1  0
  3 22  1  6
  5 23  1  0
  6 24  1  0
 10 25  1  0
 10 26  1  0
 12 27  1  0
 13 28  1  0
 17 29  1  0
M  ISO  8  19  13  20  13  21  13  22  13  23  14  24  14  27  14  28  14
M  ISO  1  29   6
M  END
>  <minimizedAffinity>  (1) 
-4.70313978

>  <minimizedRMSD>  (1) 
1.07152152

$$$$
