
     RDKit          3D

 30 32  0  0  1  0  0  0  0  0999 V2000
   39.5940   25.1280   34.6790 C   0  0  1  0  0  0  0  0  0  0  0  0
   40.3940   26.4590   34.6990 C   0  0  0  0  0  0  0  0  0  0  0  0
   40.9530   25.2310   34.1150 C   0  0  1  0  0  0  0  0  0  0  0  0
   39.8190   22.8160   37.4920 C   0  0  0  0  0  0  0  0  0  0  0  0
   38.8240   23.2720   38.3810 C   0  0  0  0  0  0  0  0  0  0  0  0
   38.0730   24.4060   37.9920 C   0  0  0  0  0  0  0  0  0  0  0  0
   38.3650   24.9750   36.7900 N   0  0  0  0  0  0  0  0  0  0  0  0
   39.3130   24.5060   35.9900 C   0  0  0  0  0  0  0  0  0  0  0  0
   40.0470   23.4430   36.3110 N   0  0  0  0  0  0  0  0  0  0  0  0
   40.5530   21.6740   37.8940 N   0  0  0  0  0  0  0  0  0  0  0  0
   42.0850   24.6630   34.8890 C   0  0  0  0  0  0  0  0  0  0  0  0
   42.3220   23.3310   34.6390 C   0  0  0  0  0  0  0  0  0  0  0  0
   43.3560   22.6090   35.2480 C   0  0  0  0  0  0  0  0  0  0  0  0
   44.1590   23.2300   36.1190 N   0  0  0  0  0  0  0  0  0  0  0  0
   43.9260   24.5390   36.3650 C   0  0  0  0  0  0  0  0  0  0  0  0
   42.9370   25.2090   35.7740 N   0  0  0  0  0  0  0  0  0  0  0  0
   44.7700   25.3100   37.3190 C   0  0  0  0  0  0  0  0  0  0  0  0
   44.0770   25.5860   38.4640 F   0  0  0  0  0  0  0  0  0  0  0  0
   45.2850   26.4320   36.7020 F   0  0  0  0  0  0  0  0  0  0  0  0
   45.8320   24.4590   37.6540 F   0  0  0  0  0  0  0  0  0  0  0  0
   38.6428   24.7418   34.2840 H   0  0  0  0  0  0  0  0  0  0  0  0
   40.0951   27.2955   34.0502 H   0  0  0  0  0  0  0  0  0  0  0  0
   40.7076   27.1778   35.4703 H   0  0  0  0  0  0  0  0  0  0  0  0
   41.3592   24.9425   33.1343 H   0  0  0  0  0  0  0  0  0  0  0  0
   38.6389   22.7656   39.3398 H   0  0  0  0  0  0  0  0  0  0  0  0
   37.2812   24.8136   38.6377 H   0  0  0  0  0  0  0  0  0  0  0  0
   41.2924   21.2962   37.2845 H   0  0  0  0  0  0  0  0  0  0  0  0
   40.3476   21.2210   38.7959 H   0  0  0  0  0  0  0  0  0  0  0  0
   41.6676   22.8078   33.9262 H   0  0  0  0  0  0  0  0  0  0  0  0
   43.5059   21.5449   35.0131 H   0  0  0  0  0  0  0  0  0  0  0  0
  1  2  1  0
  1  8  1  0
  3  1  1  0
  3  2  1  0
  3 11  1  0
  4 10  1  0
  4  5  2  0
  6  5  1  0
  7  6  2  0
  8  9  2  0
  8  7  1  0
  9  4  1  0
 11 16  1  0
 12 11  2  0
 12 13  1  0
 13 14  2  0
 14 15  1  0
 15 17  1  0
 16 15  2  0
 17 20  1  0
 17 18  1  0
 19 17  1  0
  1 21  1  6
  2 22  1  0
  2 23  1  0
  3 24  1  6
  5 25  1  0
  6 26  1  0
 10 27  1  0
 10 28  1  0
 12 29  1  0
 13 30  1  0
M  ISO  8  21  13  22  13  23  13  24  13  25  14  26  14  29  14  30  14
M  END
>  <minimizedAffinity>  (1) 
-5.38968563

>  <minimizedRMSD>  (1) 
1.79532743

$$$$
