
     RDKit          3D

 43 47  0  0  1  0  0  0  0  0999 V2000
   41.9770   24.7490   34.8550 C   0  0  0  0  0  0  0  0  0  0  0  0
   42.1920   23.4420   34.5310 C   0  0  0  0  0  0  0  0  0  0  0  0
   43.2410   22.6770   35.0670 C   0  0  0  0  0  0  0  0  0  0  0  0
   44.0780   23.2440   35.9380 N   0  0  0  0  0  0  0  0  0  0  0  0
   43.8690   24.5410   36.2620 C   0  0  0  0  0  0  0  0  0  0  0  0
   42.8680   25.2530   35.7450 N   0  0  0  0  0  0  0  0  0  0  0  0
   43.4290   21.3130   34.6990 N   0  0  0  0  0  0  0  0  0  0  0  0
   43.7530   21.0300   33.4040 C   0  0  0  0  0  0  0  0  0  0  0  0
   43.8960   19.6930   33.2200 N   0  0  0  0  0  0  0  0  0  0  0  0
   43.6630   19.1180   34.4110 C   0  0  0  0  0  0  0  0  0  0  0  0
   43.6360   17.8270   34.9430 C   0  0  0  0  0  0  0  0  0  0  0  0
   43.3420   17.6440   36.2620 N   0  0  0  0  0  0  0  0  0  0  0  0
   43.0710   18.6690   37.0940 C   0  0  0  0  0  0  0  0  0  0  0  0
   43.0850   19.9470   36.6180 N   0  0  0  0  0  0  0  0  0  0  0  0
   43.3760   20.1190   35.3170 C   0  0  0  0  0  0  0  0  0  0  0  0
   39.4850   25.2490   34.7790 C   0  0  1  0  0  0  0  0  0  0  0  0
   40.3150   26.5750   34.8160 C   0  0  0  0  0  0  0  0  0  0  0  0
   40.8210   25.3850   34.1520 C   0  0  1  0  0  0  0  0  0  0  0  0
   39.8130   22.8120   37.4570 C   0  0  0  0  0  0  0  0  0  0  0  0
   38.8310   23.2060   38.3880 C   0  0  0  0  0  0  0  0  0  0  0  0
   38.0550   24.3510   38.0700 C   0  0  0  0  0  0  0  0  0  0  0  0
   38.3110   24.9870   36.8870 N   0  0  0  0  0  0  0  0  0  0  0  0
   39.2420   24.5730   36.0550 C   0  0  0  0  0  0  0  0  0  0  0  0
   40.0020   23.5020   36.3060 N   0  0  0  0  0  0  0  0  0  0  0  0
   40.5660   21.6640   37.7850 N   0  0  0  0  0  0  0  0  0  0  0  0
   44.7560   25.2670   37.2250 C   0  0  0  0  0  0  0  0  0  0  0  0
   44.1040   25.5160   38.3890 F   0  0  0  0  0  0  0  0  0  0  0  0
   45.2870   26.3920   36.6290 F   0  0  0  0  0  0  0  0  0  0  0  0
   45.8120   24.3710   37.4850 F   0  0  0  0  0  0  0  0  0  0  0  0
   43.9240   16.7540   34.0580 N   0  0  0  0  0  0  0  0  0  0  0  0
   41.5095   22.9626   33.8137 H   0  0  0  0  0  0  0  0  0  0  0  0
   43.8812   21.7850   32.6144 H   0  0  0  0  0  0  0  0  0  0  0  0
   42.8396   18.4758   38.1519 H   0  0  0  0  0  0  0  0  0  0  0  0
   38.5132   24.8824   34.4167 H   0  0  0  0  0  0  0  0  0  0  0  0
   39.9948   27.4453   34.2243 H   0  0  0  0  0  0  0  0  0  0  0  0
   40.6808   27.2510   35.6029 H   0  0  0  0  0  0  0  0  0  0  0  0
   41.1791   25.1583   33.1369 H   0  0  0  0  0  0  0  0  0  0  0  0
   38.6724   22.6488   39.3231 H   0  0  0  0  0  0  0  0  0  0  0  0
   37.2732   24.7149   38.7529 H   0  0  0  0  0  0  0  0  0  0  0  0
   41.2981   21.3277   37.1433 H   0  0  0  0  0  0  0  0  0  0  0  0
   40.3833   21.1627   38.6660 H   0  0  0  0  0  0  0  0  0  0  0  0
   43.9161   15.7842   34.4047 H   0  0  0  0  0  0  0  0  0  0  0  0
   44.1408   16.9458   33.0695 H   0  0  0  0  0  0  0  0  0  0  0  0
  1  6  1  0
  2  1  2  0
  2  3  1  0
  3  4  2  0
  4  5  1  0
  5 26  1  0
  6  5  2  0
  7  3  1  0
  7 15  1  0
  8  7  1  0
  9  8  2  0
  9 10  1  0
 10 11  2  0
 10 15  1  0
 11 12  1  0
 12 13  2  0
 14 13  1  0
 15 14  2  0
 16 17  1  0
 16 23  1  0
 18 16  1  0
 18 17  1  0
 18  1  1  0
 19 25  1  0
 19 20  2  0
 21 20  1  0
 22 21  2  0
 23 24  2  0
 23 22  1  0
 24 19  1  0
 26 29  1  0
 26 27  1  0
 28 26  1  0
 30 11  1  0
  2 31  1  0
  8 32  1  0
 13 33  1  0
 16 34  1  6
 17 35  1  0
 17 36  1  0
 18 37  1  6
 20 38  1  0
 21 39  1  0
 25 40  1  0
 25 41  1  0
 30 42  1  0
 30 43  1  0
M  ISO  8  31  14  32  14  33  14  34  13  35  13  36  13  37  13  38  14
M  ISO  1  39  14
M  END
>  <minimizedAffinity>  (1) 
-6.27228069

>  <minimizedRMSD>  (1) 
0.258642167

$$$$
