
     RDKit          3D

 41 44  0  0  1  0  0  0  0  0999 V2000
   42.0350   24.6140   34.9770 C   0  0  0  0  0  0  0  0  0  0  0  0
   42.1550   23.2600   34.8660 C   0  0  0  0  0  0  0  0  0  0  0  0
   43.1350   22.5210   35.5430 C   0  0  0  0  0  0  0  0  0  0  0  0
   44.0030   23.1570   36.3380 N   0  0  0  0  0  0  0  0  0  0  0  0
   43.8860   24.5040   36.4500 C   0  0  0  0  0  0  0  0  0  0  0  0
   42.9490   25.1870   35.7990 N   0  0  0  0  0  0  0  0  0  0  0  0
   43.2310   21.1110   35.4060 N   0  0  0  0  0  0  0  0  0  0  0  0
   43.3580   20.4870   36.6060 C   0  0  0  0  0  0  0  0  0  0  0  0
   43.4660   19.1100   36.6790 C   0  0  0  0  0  0  0  0  0  0  0  0
   43.4430   18.3830   35.5070 C   0  0  0  0  0  0  0  0  0  0  0  0
   43.5490   16.9560   35.4980 N   0  0  0  0  0  0  0  0  0  0  0  0
   43.3180   19.0350   34.3480 N   0  0  0  0  0  0  0  0  0  0  0  0
   43.2120   20.3840   34.2740 C   0  0  0  0  0  0  0  0  0  0  0  0
   43.0930   21.0620   33.2330 O   0  0  0  0  0  0  0  0  0  0  0  0
   39.5720   25.1520   34.6970 C   0  0  1  0  0  0  0  0  0  0  0  0
   40.4250   26.4650   34.6880 C   0  0  0  0  0  0  0  0  0  0  0  0
   40.9400   25.2160   34.1540 C   0  0  1  0  0  0  0  0  0  0  0  0
   39.6160   22.8970   37.5470 C   0  0  0  0  0  0  0  0  0  0  0  0
   38.6230   23.4180   38.4010 C   0  0  0  0  0  0  0  0  0  0  0  0
   37.9420   24.5810   37.9710 C   0  0  0  0  0  0  0  0  0  0  0  0
   38.2910   25.1190   36.7600 N   0  0  0  0  0  0  0  0  0  0  0  0
   39.2270   24.5860   36.0050 C   0  0  0  0  0  0  0  0  0  0  0  0
   39.9040   23.4890   36.3590 N   0  0  0  0  0  0  0  0  0  0  0  0
   40.2810   21.7290   37.9760 N   0  0  0  0  0  0  0  0  0  0  0  0
   44.8110   25.2990   37.3080 C   0  0  0  0  0  0  0  0  0  0  0  0
   44.2200   25.6160   38.4910 F   0  0  0  0  0  0  0  0  0  0  0  0
   45.2850   26.3900   36.6090 F   0  0  0  0  0  0  0  0  0  0  0  0
   45.8980   24.4440   37.5670 F   0  0  0  0  0  0  0  0  0  0  0  0
   41.4498   22.7228   34.2148 H   0  0  0  0  0  0  0  0  0  0  0  0
   43.3751   21.0836   37.5300 H   0  0  0  0  0  0  0  0  0  0  0  0
   43.5681   18.6054   37.6511 H   0  0  0  0  0  0  0  0  0  0  0  0
   43.5283   16.4437   34.6047 H   0  0  0  0  0  0  0  0  0  0  0  0
   43.6460   16.4412   36.3848 H   0  0  0  0  0  0  0  0  0  0  0  0
   38.6201   24.7706   34.2990 H   0  0  0  0  0  0  0  0  0  0  0  0
   40.1635   27.2917   34.0111 H   0  0  0  0  0  0  0  0  0  0  0  0
   40.7551   27.1952   35.4416 H   0  0  0  0  0  0  0  0  0  0  0  0
   41.3555   24.9039   33.1845 H   0  0  0  0  0  0  0  0  0  0  0  0
   38.3871   22.9396   39.3630 H   0  0  0  0  0  0  0  0  0  0  0  0
   37.1565   25.0394   38.5897 H   0  0  0  0  0  0  0  0  0  0  0  0
   41.0148   21.3087   37.3880 H   0  0  0  0  0  0  0  0  0  0  0  0
   40.0327   21.2966   38.8772 H   0  0  0  0  0  0  0  0  0  0  0  0
  1  6  1  0
  2  1  2  0
  2  3  1  0
  3  4  2  0
  4  5  1  0
  5 25  1  0
  6  5  2  0
  7  3  1  0
  7  8  1  0
  8  9  2  0
 10  9  1  0
 11 10  1  0
 12 10  2  0
 13 12  1  0
 13  7  1  0
 14 13  2  0
 15 22  1  0
 16 15  1  0
 17 16  1  0
 17 15  1  0
 17  1  1  0
 18 24  1  0
 18 19  2  0
 20 19  1  0
 21 20  2  0
 22 23  2  0
 22 21  1  0
 23 18  1  0
 25 28  1  0
 25 26  1  0
 27 25  1  0
  2 29  1  0
  8 30  1  0
  9 31  1  0
 11 32  1  0
 11 33  1  0
 15 34  1  6
 16 35  1  0
 16 36  1  0
 17 37  1  6
 19 38  1  0
 20 39  1  0
 24 40  1  0
 24 41  1  0
M  ISO  8  29  14  30  14  31  14  34  13  35  13  36  13  37  13  38  14
M  ISO  1  39  14
M  END
>  <minimizedAffinity>  (1) 
-6.23588037

>  <minimizedRMSD>  (1) 
0.474004984

$$$$
