
     RDKit          3D

 46 50  0  0  1  0  0  0  0  0999 V2000
   42.5410   24.5080   35.0470 C   0  0  0  0  0  0  0  0  0  0  0  0
   42.7880   23.1690   35.0550 C   0  0  0  0  0  0  0  0  0  0  0  0
   43.7030   22.5460   35.8870 C   0  0  0  0  0  0  0  0  0  0  0  0
   44.4060   23.3110   36.7500 N   0  0  0  0  0  0  0  0  0  0  0  0
   44.1770   24.6440   36.7560 C   0  0  0  0  0  0  0  0  0  0  0  0
   43.2910   25.1950   35.9450 N   0  0  0  0  0  0  0  0  0  0  0  0
   44.0950   21.1580   35.9420 C   0  0  0  0  0  0  0  0  0  0  0  0
   43.0880   20.1780   35.8800 C   0  0  0  0  0  0  0  0  0  0  0  0
   43.2670   18.8140   35.9020 C   0  0  0  0  0  0  0  0  0  0  0  0
   44.5560   18.3520   35.9920 C   0  0  0  0  0  0  0  0  0  0  0  0
   45.6110   19.2330   36.0540 C   0  0  0  0  0  0  0  0  0  0  0  0
   46.9100   18.7790   36.1060 C   0  0  0  0  0  0  0  0  0  0  0  0
   48.0020   19.6290   36.1270 C   0  0  0  0  0  0  0  0  0  0  0  0
   47.7070   20.9970   36.0920 C   0  0  0  0  0  0  0  0  0  0  0  0
   46.4000   21.4230   36.0420 C   0  0  0  0  0  0  0  0  0  0  0  0
   45.3280   20.5710   36.0250 C   0  0  0  0  0  0  0  0  0  0  0  0
   40.1030   24.8490   34.4210 C   0  0  1  0  0  0  0  0  0  0  0  0
   40.8680   26.2180   34.4160 C   0  0  0  0  0  0  0  0  0  0  0  0
   41.5270   24.9750   34.0500 C   0  0  1  0  0  0  0  0  0  0  0  0
   39.8870   22.7750   37.4010 C   0  0  0  0  0  0  0  0  0  0  0  0
   38.7970   23.3230   38.1090 C   0  0  0  0  0  0  0  0  0  0  0  0
   38.1420   24.4360   37.5330 C   0  0  0  0  0  0  0  0  0  0  0  0
   38.6110   24.8990   36.3380 N   0  0  0  0  0  0  0  0  0  0  0  0
   39.6350   24.3510   35.7170 C   0  0  0  0  0  0  0  0  0  0  0  0
   40.2880   23.2990   36.2180 N   0  0  0  0  0  0  0  0  0  0  0  0
   40.5190   21.6580   37.9870 N   0  0  0  0  0  0  0  0  0  0  0  0
   44.9140   25.5490   37.6740 C   0  0  0  0  0  0  0  0  0  0  0  0
   44.1170   25.9450   38.7020 F   0  0  0  0  0  0  0  0  0  0  0  0
   45.4630   26.5940   36.9610 F   0  0  0  0  0  0  0  0  0  0  0  0
   45.9660   24.7820   38.1980 F   0  0  0  0  0  0  0  0  0  0  0  0
   42.2221   22.5392   34.3527 H   0  0  0  0  0  0  0  0  0  0  0  0
   42.0515   20.5389   35.8064 H   0  0  0  0  0  0  0  0  0  0  0  0
   42.4128   18.1229   35.8496 H   0  0  0  0  0  0  0  0  0  0  0  0
   44.7473   17.2690   36.0148 H   0  0  0  0  0  0  0  0  0  0  0  0
   47.0874   17.6937   36.1320 H   0  0  0  0  0  0  0  0  0  0  0  0
   49.0352   19.2538   36.1685 H   0  0  0  0  0  0  0  0  0  0  0  0
   48.5234   21.7341   36.1045 H   0  0  0  0  0  0  0  0  0  0  0  0
   46.2056   22.5053   36.0142 H   0  0  0  0  0  0  0  0  0  0  0  0
   39.2355   24.3753   33.9383 H   0  0  0  0  0  0  0  0  0  0  0  0
   40.6458   26.9745   33.6490 H   0  0  0  0  0  0  0  0  0  0  0  0
   41.0504   27.0206   35.1458 H   0  0  0  0  0  0  0  0  0  0  0  0
   42.0856   24.6295   33.1676 H   0  0  0  0  0  0  0  0  0  0  0  0
   38.4696   22.9014   39.0708 H   0  0  0  0  0  0  0  0  0  0  0  0
   37.2843   24.9120   38.0308 H   0  0  0  0  0  0  0  0  0  0  0  0
   41.3208   21.2144   37.5166 H   0  0  0  0  0  0  0  0  0  0  0  0
   40.1786   21.2861   38.8852 H   0  0  0  0  0  0  0  0  0  0  0  0
  1  2  2  0
  1  6  1  0
  2  3  1  0
  3  7  1  0
  3  4  2  0
  4  5  1  0
  5 27  1  0
  6  5  2  0
  7 16  2  0
  8  9  2  0
  8  7  1  0
  9 10  1  0
 10 11  2  0
 11 12  1  0
 12 13  2  0
 14 13  1  0
 15 14  2  0
 16 15  1  0
 16 11  1  0
 17 24  1  0
 18 17  1  0
 19 18  1  0
 19 17  1  0
 19  1  1  0
 20 26  1  0
 20 21  2  0
 22 21  1  0
 23 22  2  0
 24 25  2  0
 24 23  1  0
 25 20  1  0
 27 30  1  0
 27 28  1  0
 29 27  1  0
  2 31  1  0
  8 32  1  0
  9 33  1  0
 10 34  1  0
 12 35  1  0
 13 36  1  0
 14 37  1  0
 15 38  1  0
 17 39  1  6
 18 40  1  0
 18 41  1  0
 19 42  1  6
 21 43  1  0
 22 44  1  0
 26 45  1  0
 26 46  1  0
M  ISO  8  31  14  32  14  33  14  34  14  35  14  36  14  37  14  38  14
M  ISO  6  39  13  40  13  41  13  42  13  43  14  44  14
M  END
>  <minimizedAffinity>  (1) 
-6.08342981

>  <minimizedRMSD>  (1) 
0.981451511

$$$$
