
     RDKit          3D

 44 48  0  0  1  0  0  0  0  0999 V2000
   42.0570   24.6910   34.8830 C   0  0  0  0  0  0  0  0  0  0  0  0
   42.2960   23.3750   34.6170 C   0  0  0  0  0  0  0  0  0  0  0  0
   43.3280   22.6350   35.1950 C   0  0  0  0  0  0  0  0  0  0  0  0
   44.1290   23.2640   36.0620 N   0  0  0  0  0  0  0  0  0  0  0  0
   43.9110   24.5570   36.3380 C   0  0  0  0  0  0  0  0  0  0  0  0
   42.9220   25.2260   35.7700 N   0  0  0  0  0  0  0  0  0  0  0  0
   43.3840   21.2350   34.7510 C   0  0  0  0  0  0  0  0  0  0  0  0
   42.4860   20.7230   33.8750 N   0  0  0  0  0  0  0  0  0  0  0  0
   42.4720   19.4700   33.4290 C   0  0  0  0  0  0  0  0  0  0  0  0
   43.4080   18.5760   33.8460 N   0  0  0  0  0  0  0  0  0  0  0  0
   44.3440   18.9900   34.7180 C   0  0  0  0  0  0  0  0  0  0  0  0
   45.3020   18.0990   35.1530 C   0  0  0  0  0  0  0  0  0  0  0  0
   46.2850   18.4750   36.0500 C   0  0  0  0  0  0  0  0  0  0  0  0
   46.2400   19.8060   36.4770 C   0  0  0  0  0  0  0  0  0  0  0  0
   45.2700   20.6550   36.0170 C   0  0  0  0  0  0  0  0  0  0  0  0
   44.3000   20.2910   35.1360 C   0  0  0  0  0  0  0  0  0  0  0  0
   39.5620   25.1770   34.7100 C   0  0  1  0  0  0  0  0  0  0  0  0
   40.3760   26.5170   34.7470 C   0  0  0  0  0  0  0  0  0  0  0  0
   40.9180   25.3130   34.1410 C   0  0  1  0  0  0  0  0  0  0  0  0
   39.8200   22.8150   37.4710 C   0  0  0  0  0  0  0  0  0  0  0  0
   38.8300   23.2440   38.3700 C   0  0  0  0  0  0  0  0  0  0  0  0
   38.0750   24.3760   38.0050 C   0  0  0  0  0  0  0  0  0  0  0  0
   38.3460   24.9800   36.8160 N   0  0  0  0  0  0  0  0  0  0  0  0
   39.2940   24.5340   36.0010 C   0  0  0  0  0  0  0  0  0  0  0  0
   40.0390   23.4690   36.2960 N   0  0  0  0  0  0  0  0  0  0  0  0
   40.5640   21.6680   37.8470 N   0  0  0  0  0  0  0  0  0  0  0  0
   44.7830   25.2790   37.2910 C   0  0  0  0  0  0  0  0  0  0  0  0
   44.0900   25.5810   38.4420 F   0  0  0  0  0  0  0  0  0  0  0  0
   45.2980   26.4220   36.6920 F   0  0  0  0  0  0  0  0  0  0  0  0
   45.8270   24.4190   37.6180 F   0  0  0  0  0  0  0  0  0  0  0  0
   41.6337   22.8650   33.9020 H   0  0  0  0  0  0  0  0  0  0  0  0
   41.6961   19.1540   32.7162 H   0  0  0  0  0  0  0  0  0  0  0  0
   45.2840   17.0651   34.7779 H   0  0  0  0  0  0  0  0  0  0  0  0
   47.0532   17.7722   36.4050 H   0  0  0  0  0  0  0  0  0  0  0  0
   46.9922   20.1744   37.1901 H   0  0  0  0  0  0  0  0  0  0  0  0
   45.2753   21.6929   36.3813 H   0  0  0  0  0  0  0  0  0  0  0  0
   38.6099   24.7913   34.3166 H   0  0  0  0  0  0  0  0  0  0  0  0
   40.0738   27.3669   34.1174 H   0  0  0  0  0  0  0  0  0  0  0  0
   40.7006   27.2196   35.5287 H   0  0  0  0  0  0  0  0  0  0  0  0
   41.3227   25.0679   33.1480 H   0  0  0  0  0  0  0  0  0  0  0  0
   38.6515   22.7181   39.3195 H   0  0  0  0  0  0  0  0  0  0  0  0
   37.2850   24.7626   38.6656 H   0  0  0  0  0  0  0  0  0  0  0  0
   41.3032   21.3076   37.2269 H   0  0  0  0  0  0  0  0  0  0  0  0
   40.3652   21.1952   38.7402 H   0  0  0  0  0  0  0  0  0  0  0  0
  1  6  1  0
  2  1  2  0
  2  3  1  0
  3  4  2  0
  4  5  1  0
  5 27  1  0
  6  5  2  0
  7 16  1  0
  7  3  1  0
  8  7  2  0
  9 10  2  0
  9  8  1  0
 10 11  1  0
 11 16  2  0
 11 12  1  0
 12 13  2  0
 13 14  1  0
 15 14  2  0
 16 15  1  0
 17 18  1  0
 17 24  1  0
 19 17  1  0
 19 18  1  0
 19  1  1  0
 20 26  1  0
 20 21  2  0
 22 21  1  0
 23 22  2  0
 24 25  2  0
 24 23  1  0
 25 20  1  0
 27 30  1  0
 27 28  1  0
 29 27  1  0
  2 31  1  0
  9 32  1  0
 12 33  1  0
 13 34  1  0
 14 35  1  0
 15 36  1  0
 17 37  1  6
 18 38  1  0
 18 39  1  0
 19 40  1  6
 21 41  1  0
 22 42  1  0
 26 43  1  0
 26 44  1  0
M  ISO  8  31  14  32  14  33  14  34  14  35  14  36  14  37  13  38  13
M  ISO  4  39  13  40  13  41  14  42  14
M  END
>  <minimizedAffinity>  (1) 
-5.9758482

>  <minimizedRMSD>  (1) 
0.0942245796

$$$$
