
     RDKit          3D

 37 40  0  0  1  0  0  0  0  0999 V2000
   39.5970   25.1260   34.7020 C   0  0  1  0  0  0  0  0  0  0  0  0
   40.4220   26.4560   34.7040 C   0  0  0  0  0  0  0  0  0  0  0  0
   40.9560   25.2340   34.1330 C   0  0  1  0  0  0  0  0  0  0  0  0
   42.0800   24.6390   34.9200 C   0  0  0  0  0  0  0  0  0  0  0  0
   42.2750   23.3040   34.7170 C   0  0  0  0  0  0  0  0  0  0  0  0
   43.2940   22.5740   35.3480 C   0  0  0  0  0  0  0  0  0  0  0  0
   44.1210   23.2010   36.1920 N   0  0  0  0  0  0  0  0  0  0  0  0
   43.9280   24.5280   36.3950 C   0  0  0  0  0  0  0  0  0  0  0  0
   42.9560   25.2020   35.7870 N   0  0  0  0  0  0  0  0  0  0  0  0
   43.4670   21.1810   35.1110 N   0  0  0  0  0  0  0  0  0  0  0  0
   43.0210   20.2440   34.2540 C   0  0  0  0  0  0  0  0  0  0  0  0
   43.6160   19.0340   34.5990 C   0  0  0  0  0  0  0  0  0  0  0  0
   44.4110   19.2750   35.6630 N   0  0  0  0  0  0  0  0  0  0  0  0
   44.3240   20.5940   35.9820 C   0  0  0  0  0  0  0  0  0  0  0  0
   44.8030   25.3160   37.3130 C   0  0  0  0  0  0  0  0  0  0  0  0
   44.1540   25.6000   38.4720 F   0  0  0  0  0  0  0  0  0  0  0  0
   45.2950   26.4270   36.6610 F   0  0  0  0  0  0  0  0  0  0  0  0
   45.8850   24.4650   37.6030 F   0  0  0  0  0  0  0  0  0  0  0  0
   39.7780   22.8300   37.5150 C   0  0  0  0  0  0  0  0  0  0  0  0
   38.7750   23.2910   38.3870 C   0  0  0  0  0  0  0  0  0  0  0  0
   38.0310   24.4320   37.9830 C   0  0  0  0  0  0  0  0  0  0  0  0
   38.3410   25.0010   36.7770 N   0  0  0  0  0  0  0  0  0  0  0  0
   39.2930   24.5230   36.0030 C   0  0  0  0  0  0  0  0  0  0  0  0
   40.0250   23.4540   36.3330 N   0  0  0  0  0  0  0  0  0  0  0  0
   40.4990   21.6890   37.9250 N   0  0  0  0  0  0  0  0  0  0  0  0
   38.6451   24.7332   34.3152 H   0  0  0  0  0  0  0  0  0  0  0  0
   40.1287   27.2909   34.0506 H   0  0  0  0  0  0  0  0  0  0  0  0
   40.7506   27.1765   35.4675 H   0  0  0  0  0  0  0  0  0  0  0  0
   41.3605   24.9540   33.1491 H   0  0  0  0  0  0  0  0  0  0  0  0
   41.6019   22.7750   34.0263 H   0  0  0  0  0  0  0  0  0  0  0  0
   42.3126   20.4056   33.4282 H   0  0  0  0  0  0  0  0  0  0  0  0
   43.4668   18.0654   34.0995 H   0  0  0  0  0  0  0  0  0  0  0  0
   44.8560   21.0967   36.8032 H   0  0  0  0  0  0  0  0  0  0  0  0
   38.5745   22.7877   39.3443 H   0  0  0  0  0  0  0  0  0  0  0  0
   37.2328   24.8443   38.6178 H   0  0  0  0  0  0  0  0  0  0  0  0
   41.2448   21.3081   37.3254 H   0  0  0  0  0  0  0  0  0  0  0  0
   40.2796   21.2367   38.8240 H   0  0  0  0  0  0  0  0  0  0  0  0
  1  2  1  0
  1 23  1  0
  3  1  1  0
  3  2  1  0
  3  4  1  0
  4  9  1  0
  5  4  2  0
  5  6  1  0
  6  7  2  0
  7  8  1  0
  8 15  1  0
  9  8  2  0
 10  6  1  0
 10 14  1  0
 11 12  2  0
 11 10  1  0
 12 13  1  0
 13 14  2  0
 15 18  1  0
 15 16  1  0
 17 15  1  0
 19 25  1  0
 19 20  2  0
 21 20  1  0
 22 21  2  0
 23 24  2  0
 23 22  1  0
 24 19  1  0
  1 26  1  6
  2 27  1  0
  2 28  1  0
  3 29  1  6
  5 30  1  0
 11 31  1  0
 12 32  1  0
 14 33  1  0
 20 34  1  0
 21 35  1  0
 25 36  1  0
 25 37  1  0
M  ISO  8  26  13  27  13  28  13  29  13  30  14  31  14  32  14  33  14
M  ISO  2  34  14  35  14
M  END
>  <minimizedAffinity>  (1) 
-5.90284491

>  <minimizedRMSD>  (1) 
0.129028723

$$$$
