
     RDKit          3D

 46 49  0  0  1  0  0  0  0  0999 V2000
   39.7280   24.9810   34.5410 C   0  0  1  0  0  0  0  0  0  0  0  0
   40.5560   26.3080   34.4980 C   0  0  0  0  0  0  0  0  0  0  0  0
   41.1110   25.0480   34.0320 C   0  0  1  0  0  0  0  0  0  0  0  0
   39.7420   22.8510   37.4910 C   0  0  0  0  0  0  0  0  0  0  0  0
   38.7180   23.3870   38.2940 C   0  0  0  0  0  0  0  0  0  0  0  0
   38.0230   24.5190   37.7940 C   0  0  0  0  0  0  0  0  0  0  0  0
   38.3940   25.0100   36.5710 N   0  0  0  0  0  0  0  0  0  0  0  0
   39.3620   24.4640   35.8650 C   0  0  0  0  0  0  0  0  0  0  0  0
   40.0460   23.3990   36.2910 N   0  0  0  0  0  0  0  0  0  0  0  0
   40.4150   21.7190   37.9890 N   0  0  0  0  0  0  0  0  0  0  0  0
   42.1920   24.5010   34.9100 C   0  0  0  0  0  0  0  0  0  0  0  0
   42.3890   23.1530   34.8120 C   0  0  0  0  0  0  0  0  0  0  0  0
   43.3700   22.4680   35.5360 C   0  0  0  0  0  0  0  0  0  0  0  0
   44.1650   23.1650   36.3740 N   0  0  0  0  0  0  0  0  0  0  0  0
   43.9730   24.4960   36.4720 C   0  0  0  0  0  0  0  0  0  0  0  0
   43.0330   25.1260   35.7740 N   0  0  0  0  0  0  0  0  0  0  0  0
   43.5430   21.0040   35.3730 C   0  0  0  0  0  0  0  0  0  0  0  0
   43.3590   20.2930   36.7200 C   0  0  0  0  0  0  0  0  0  0  0  0
   43.2390   18.8220   36.3790 C   0  0  0  0  0  0  0  0  0  0  0  0
   44.6370   18.4210   35.9240 C   0  0  0  0  0  0  0  0  0  0  0  0
   44.8520   19.0850   34.5950 C   0  0  0  0  0  0  0  0  0  0  0  0
   44.8150   20.5870   34.7180 C   0  0  0  0  0  0  0  0  0  0  0  0
   44.8130   25.3350   37.3690 C   0  0  0  0  0  0  0  0  0  0  0  0
   44.1440   25.6380   38.5090 F   0  0  0  0  0  0  0  0  0  0  0  0
   45.2800   26.4380   36.6800 F   0  0  0  0  0  0  0  0  0  0  0  0
   45.9190   24.5330   37.7020 F   0  0  0  0  0  0  0  0  0  0  0  0
   38.7940   24.5657   34.1347 H   0  0  0  0  0  0  0  0  0  0  0  0
   40.2977   27.0996   33.7793 H   0  0  0  0  0  0  0  0  0  0  0  0
   40.8509   27.0759   35.2283 H   0  0  0  0  0  0  0  0  0  0  0  0
   41.5606   24.7046   33.0886 H   0  0  0  0  0  0  0  0  0  0  0  0
   38.4664   22.9463   39.2700 H   0  0  0  0  0  0  0  0  0  0  0  0
   37.2118   24.9871   38.3709 H   0  0  0  0  0  0  0  0  0  0  0  0
   41.1727   21.2876   37.4406 H   0  0  0  0  0  0  0  0  0  0  0  0
   40.1497   21.3222   38.9017 H   0  0  0  0  0  0  0  0  0  0  0  0
   41.7447   22.5782   34.1305 H   0  0  0  0  0  0  0  0  0  0  0  0
   42.7545   20.6924   34.6722 H   0  0  0  0  0  0  0  0  0  0  0  0
   44.2283   20.4685   37.3708 H   0  0  0  0  0  0  0  0  0  0  0  0
   42.4767   20.6626   37.2630 H   0  0  0  0  0  0  0  0  0  0  0  0
   42.9362   18.2414   37.2628 H   0  0  0  0  0  0  0  0  0  0  0  0
   42.4775   18.6319   35.6083 H   0  0  0  0  0  0  0  0  0  0  0  0
   45.3880   18.7675   36.6492 H   0  0  0  0  0  0  0  0  0  0  0  0
   44.7349   17.3281   35.8463 H   0  0  0  0  0  0  0  0  0  0  0  0
   44.0608   18.7631   33.9020 H   0  0  0  0  0  0  0  0  0  0  0  0
   45.8434   18.7929   34.2185 H   0  0  0  0  0  0  0  0  0  0  0  0
   45.6675   20.9257   35.3251 H   0  0  0  0  0  0  0  0  0  0  0  0
   44.8745   21.0371   33.7160 H   0  0  0  0  0  0  0  0  0  0  0  0
  1  8  1  0
  2  1  1  0
  3  2  1  0
  3  1  1  0
  3 11  1  0
  4 10  1  0
  4  5  2  0
  6  5  1  0
  7  6  2  0
  8  9  2  0
  8  7  1  0
  9  4  1  0
 11 16  1  0
 12 11  2  0
 12 13  1  0
 13 14  2  0
 14 15  1  0
 15 23  1  0
 16 15  2  0
 17 13  1  0
 17 18  1  0
 19 18  1  0
 20 19  1  0
 21 22  1  0
 21 20  1  0
 22 17  1  0
 23 26  1  0
 23 24  1  0
 25 23  1  0
  1 27  1  6
  2 28  1  0
  2 29  1  0
  3 30  1  6
  5 31  1  0
  6 32  1  0
 10 33  1  0
 10 34  1  0
 12 35  1  0
 17 36  1  0
 18 37  1  0
 18 38  1  0
 19 39  1  0
 19 40  1  0
 20 41  1  0
 20 42  1  0
 21 43  1  0
 21 44  1  0
 22 45  1  0
 22 46  1  0
M  ISO  8  27  13  28  13  29  13  30  13  31  14  32  14  35  14  36  13
M  ISO  8  37  13  38  13  39  13  40  13  41  13  42  13  43  13  44  13
M  ISO  2  45  13  46  13
M  END
>  <minimizedAffinity>  (1) 
-5.80334663

>  <minimizedRMSD>  (1) 
0.533349991

$$$$
