
     RDKit          3D

 33 35  0  0  1  0  0  0  0  0999 V2000
   39.7000   25.1200   34.6620 C   0  0  1  0  0  0  0  0  0  0  0  0
   40.5230   26.4540   34.7000 C   0  0  0  0  0  0  0  0  0  0  0  0
   41.0860   25.2320   34.1480 C   0  0  1  0  0  0  0  0  0  0  0  0
   39.7800   22.8230   37.4820 C   0  0  0  0  0  0  0  0  0  0  0  0
   38.7420   23.2810   38.3150 C   0  0  0  0  0  0  0  0  0  0  0  0
   38.0150   24.4190   37.8820 C   0  0  0  0  0  0  0  0  0  0  0  0
   38.3710   24.9880   36.6910 N   0  0  0  0  0  0  0  0  0  0  0  0
   39.3510   24.5140   35.9530 C   0  0  0  0  0  0  0  0  0  0  0  0
   40.0680   23.4480   36.3140 N   0  0  0  0  0  0  0  0  0  0  0  0
   40.4820   21.6810   37.9240 N   0  0  0  0  0  0  0  0  0  0  0  0
   42.1780   24.6420   34.9810 C   0  0  0  0  0  0  0  0  0  0  0  0
   42.3370   23.2930   34.8390 C   0  0  0  0  0  0  0  0  0  0  0  0
   43.3230   22.5640   35.5190 C   0  0  0  0  0  0  0  0  0  0  0  0
   44.1600   23.2120   36.3520 N   0  0  0  0  0  0  0  0  0  0  0  0
   44.0010   24.5420   36.4900 C   0  0  0  0  0  0  0  0  0  0  0  0
   43.0580   25.2180   35.8360 N   0  0  0  0  0  0  0  0  0  0  0  0
   44.8850   25.3430   37.3860 C   0  0  0  0  0  0  0  0  0  0  0  0
   44.2390   25.6680   38.5370 F   0  0  0  0  0  0  0  0  0  0  0  0
   45.3920   26.4300   36.7040 F   0  0  0  0  0  0  0  0  0  0  0  0
   45.9560   24.4880   37.7030 F   0  0  0  0  0  0  0  0  0  0  0  0
   43.4370   21.1260   35.3210 C   0  0  0  0  0  0  0  0  0  0  0  0
   42.6740   20.3610   35.9550 O   0  0  0  0  0  0  0  0  0  0  0  0
   44.3770   20.6170   34.4430 O   0  0  0  0  0  0  0  0  0  0  0  0
   38.7650   24.7271   34.2360 H   0  0  0  0  0  0  0  0  0  0  0  0
   40.2548   27.2893   34.0364 H   0  0  0  0  0  0  0  0  0  0  0  0
   40.8178   27.1737   35.4779 H   0  0  0  0  0  0  0  0  0  0  0  0
   41.5314   24.9534   33.1816 H   0  0  0  0  0  0  0  0  0  0  0  0
   38.5044   22.7767   39.2633 H   0  0  0  0  0  0  0  0  0  0  0  0
   37.1918   24.8303   38.4846 H   0  0  0  0  0  0  0  0  0  0  0  0
   41.2523   21.2986   37.3572 H   0  0  0  0  0  0  0  0  0  0  0  0
   40.2240   21.2301   38.8134 H   0  0  0  0  0  0  0  0  0  0  0  0
   41.6604   22.7535   34.1599 H   0  0  0  0  0  0  0  0  0  0  0  0
   44.4520   19.6388   34.3106 H   0  0  0  0  0  0  0  0  0  0  0  0
  1  2  1  0
  1  8  1  0
  3  1  1  0
  3  2  1  0
  3 11  1  0
  4 10  1  0
  4  5  2  0
  6  5  1  0
  7  6  2  0
  8  9  2  0
  8  7  1  0
  9  4  1  0
 11 16  1  0
 12 11  2  0
 12 13  1  0
 13 14  2  0
 14 15  1  0
 15 17  1  0
 16 15  2  0
 17 20  1  0
 17 18  1  0
 19 17  1  0
 21 13  1  0
 21 22  2  0
 23 21  1  0
  1 24  1  6
  2 25  1  0
  2 26  1  0
  3 27  1  6
  5 28  1  0
  6 29  1  0
 10 30  1  0
 10 31  1  0
 12 32  1  0
 23 33  1  0
M  ISO  8  24  13  25  13  26  13  27  13  28  14  29  14  32  14  33   3
M  END
>  <minimizedAffinity>  (1) 
-5.51230335

>  <minimizedRMSD>  (1) 
0.223357871

$$$$
