
     RDKit          3D

 33 35  0  0  1  0  0  0  0  0999 V2000
   39.6050   25.1190   34.6930 C   0  0  1  0  0  0  0  0  0  0  0  0
   40.4180   26.4580   34.6970 C   0  0  0  0  0  0  0  0  0  0  0  0
   40.9540   25.2360   34.1180 C   0  0  1  0  0  0  0  0  0  0  0  0
   39.8110   22.8150   37.5010 C   0  0  0  0  0  0  0  0  0  0  0  0
   38.8090   23.2740   38.3810 C   0  0  0  0  0  0  0  0  0  0  0  0
   38.0650   24.4070   37.9840 C   0  0  0  0  0  0  0  0  0  0  0  0
   38.3630   24.9810   36.7820 N   0  0  0  0  0  0  0  0  0  0  0  0
   39.3090   24.5150   35.9960 C   0  0  0  0  0  0  0  0  0  0  0  0
   40.0480   23.4440   36.3190 N   0  0  0  0  0  0  0  0  0  0  0  0
   40.5370   21.6750   37.9010 N   0  0  0  0  0  0  0  0  0  0  0  0
   42.0870   24.6470   34.8980 C   0  0  0  0  0  0  0  0  0  0  0  0
   42.3150   23.3220   34.6610 C   0  0  0  0  0  0  0  0  0  0  0  0
   43.3450   22.6020   35.2770 C   0  0  0  0  0  0  0  0  0  0  0  0
   44.1520   23.2220   36.1410 N   0  0  0  0  0  0  0  0  0  0  0  0
   43.9300   24.5380   36.3800 C   0  0  0  0  0  0  0  0  0  0  0  0
   42.9460   25.2080   35.7850 N   0  0  0  0  0  0  0  0  0  0  0  0
   44.7830   25.3200   37.3250 C   0  0  0  0  0  0  0  0  0  0  0  0
   44.1060   25.5990   38.4680 F   0  0  0  0  0  0  0  0  0  0  0  0
   45.2950   26.4320   36.6900 F   0  0  0  0  0  0  0  0  0  0  0  0
   45.8580   24.4630   37.6350 F   0  0  0  0  0  0  0  0  0  0  0  0
   43.5580   21.1510   34.9880 C   0  0  0  0  0  0  0  0  0  0  0  0
   38.6560   24.7173   34.3083 H   0  0  0  0  0  0  0  0  0  0  0  0
   40.1151   27.2932   34.0484 H   0  0  0  0  0  0  0  0  0  0  0  0
   40.7462   27.1790   35.4602 H   0  0  0  0  0  0  0  0  0  0  0  0
   41.3522   24.9595   33.1306 H   0  0  0  0  0  0  0  0  0  0  0  0
   38.6146   22.7694   39.3389 H   0  0  0  0  0  0  0  0  0  0  0  0
   37.2690   24.8147   38.6245 H   0  0  0  0  0  0  0  0  0  0  0  0
   41.2799   21.2987   37.2949 H   0  0  0  0  0  0  0  0  0  0  0  0
   40.3246   21.2183   38.7994 H   0  0  0  0  0  0  0  0  0  0  0  0
   41.6584   22.7956   33.9527 H   0  0  0  0  0  0  0  0  0  0  0  0
   43.6394   20.5967   35.9346 H   0  0  0  0  0  0  0  0  0  0  0  0
   42.7071   20.7638   34.4083 H   0  0  0  0  0  0  0  0  0  0  0  0
   44.4843   21.0247   34.4083 H   0  0  0  0  0  0  0  0  0  0  0  0
  1  2  1  0
  1  8  1  0
  3  1  1  0
  3  2  1  0
  3 11  1  0
  4 10  1  0
  4  5  2  0
  6  5  1  0
  7  6  2  0
  8  9  2  0
  8  7  1  0
  9  4  1  0
 11 16  1  0
 12 11  2  0
 12 13  1  0
 13 14  2  0
 14 15  1  0
 15 17  1  0
 16 15  2  0
 17 20  1  0
 17 18  1  0
 19 17  1  0
 21 13  1  0
  1 22  1  6
  2 23  1  0
  2 24  1  0
  3 25  1  6
  5 26  1  0
  6 27  1  0
 10 28  1  0
 10 29  1  0
 12 30  1  0
 21 31  1  0
 21 32  1  0
 21 33  1  0
M  ISO  8  22  13  23  13  24  13  25  13  26  14  27  14  30  14  31   8
M  ISO  2  32   8  33   8
M  END
>  <minimizedAffinity>  (1) 
-5.49958515

>  <minimizedRMSD>  (1) 
0.0239528418

$$$$
