
     RDKit          3D

 43 47  0  0  1  0  0  0  0  0999 V2000
   41.9970   24.6480   34.8780 C   0  0  0  0  0  0  0  0  0  0  0  0
   42.1750   23.3290   34.6270 C   0  0  0  0  0  0  0  0  0  0  0  0
   43.1870   22.5580   35.2040 C   0  0  0  0  0  0  0  0  0  0  0  0
   44.0400   23.1510   36.0550 N   0  0  0  0  0  0  0  0  0  0  0  0
   43.8790   24.4560   36.3120 C   0  0  0  0  0  0  0  0  0  0  0  0
   42.9080   25.1650   35.7530 N   0  0  0  0  0  0  0  0  0  0  0  0
   43.2950   21.1100   34.8760 C   0  0  0  0  0  0  0  0  0  0  0  0
   43.1400   20.6270   33.5770 C   0  0  0  0  0  0  0  0  0  0  0  0
   43.3760   18.8080   33.8060 S   0  0  0  0  0  0  0  0  0  0  0  0
   43.6470   19.0430   35.6660 C   0  0  0  0  0  0  0  0  0  0  0  0
   43.5400   20.2000   35.7900 N   0  0  0  0  0  0  0  0  0  0  0  0
   43.9270   18.0440   36.7320 N   0  0  0  0  0  0  0  0  0  0  0  0
   42.9400   17.2340   37.0780 C   0  0  0  0  0  0  0  0  0  0  0  0
   43.4810   16.4360   38.0660 C   0  0  0  0  0  0  0  0  0  0  0  0
   44.7590   16.8040   38.2620 N   0  0  0  0  0  0  0  0  0  0  0  0
   45.0510   17.8300   37.4150 C   0  0  0  0  0  0  0  0  0  0  0  0
   39.5270   25.1970   34.7650 C   0  0  1  0  0  0  0  0  0  0  0  0
   40.3910   26.5200   34.7730 C   0  0  0  0  0  0  0  0  0  0  0  0
   40.8570   25.3110   34.1490 C   0  0  1  0  0  0  0  0  0  0  0  0
   39.7690   22.8360   37.5090 C   0  0  0  0  0  0  0  0  0  0  0  0
   38.7690   23.2660   38.4020 C   0  0  0  0  0  0  0  0  0  0  0  0
   38.0160   24.4030   38.0340 C   0  0  0  0  0  0  0  0  0  0  0  0
   38.3050   25.0100   36.8400 N   0  0  0  0  0  0  0  0  0  0  0  0
   39.2460   24.5670   36.0500 C   0  0  0  0  0  0  0  0  0  0  0  0
   39.9880   23.4930   36.3550 N   0  0  0  0  0  0  0  0  0  0  0  0
   40.5020   21.6860   37.8830 N   0  0  0  0  0  0  0  0  0  0  0  0
   44.7910   25.1900   37.2380 C   0  0  0  0  0  0  0  0  0  0  0  0
   44.1780   25.4570   38.4100 F   0  0  0  0  0  0  0  0  0  0  0  0
   45.3040   26.3130   36.6060 F   0  0  0  0  0  0  0  0  0  0  0  0
   45.8640   24.3120   37.4670 F   0  0  0  0  0  0  0  0  0  0  0  0
   41.4827   22.8364   33.9284 H   0  0  0  0  0  0  0  0  0  0  0  0
   42.9308   21.1855   32.6527 H   0  0  0  0  0  0  0  0  0  0  0  0
   41.9188   17.2033   36.6704 H   0  0  0  0  0  0  0  0  0  0  0  0
   42.9544   15.6333   38.6030 H   0  0  0  0  0  0  0  0  0  0  0  0
   46.0068   18.3655   37.3163 H   0  0  0  0  0  0  0  0  0  0  0  0
   38.5566   24.8248   34.4049 H   0  0  0  0  0  0  0  0  0  0  0  0
   40.0920   27.3822   34.1589 H   0  0  0  0  0  0  0  0  0  0  0  0
   40.7721   27.2088   35.5413 H   0  0  0  0  0  0  0  0  0  0  0  0
   41.2142   25.0665   33.1377 H   0  0  0  0  0  0  0  0  0  0  0  0
   38.5816   22.7376   39.3484 H   0  0  0  0  0  0  0  0  0  0  0  0
   37.2202   24.7902   38.6873 H   0  0  0  0  0  0  0  0  0  0  0  0
   41.2457   21.3266   37.2676 H   0  0  0  0  0  0  0  0  0  0  0  0
   40.2922   21.2077   38.7708 H   0  0  0  0  0  0  0  0  0  0  0  0
  1  6  1  0
  2  1  2  0
  2  3  1  0
  3  4  2  0
  4  5  1  0
  5 27  1  0
  6  5  2  0
  7  3  1  0
  7 11  1  0
  8  9  1  0
  8  7  2  0
  9 10  1  0
 10 11  2  0
 10 12  1  0
 12 13  1  0
 12 16  1  0
 13 14  2  0
 14 15  1  0
 16 15  2  0
 17 18  1  0
 17 24  1  0
 19 17  1  0
 19 18  1  0
 19  1  1  0
 20 26  1  0
 20 21  2  0
 22 21  1  0
 23 22  2  0
 24 25  2  0
 24 23  1  0
 25 20  1  0
 27 30  1  0
 27 28  1  0
 29 27  1  0
  2 31  1  0
  8 32  1  0
 13 33  1  0
 14 34  1  0
 16 35  1  0
 17 36  1  6
 18 37  1  0
 18 38  1  0
 19 39  1  6
 21 40  1  0
 22 41  1  0
 26 42  1  0
 26 43  1  0
M  ISO  8  31  14  32  14  33  14  34  14  35  14  36  13  37  13  38  13
M  ISO  3  39  13  40  14  41  14
M  END
>  <minimizedAffinity>  (1) 
-6.23180676

>  <minimizedRMSD>  (1) 
1.12567353

$$$$
