
     RDKit          3D

 43 47  0  0  1  0  0  0  0  0999 V2000
   42.1230   24.5920   34.9400 C   0  0  0  0  0  0  0  0  0  0  0  0
   42.2960   23.2550   34.8010 C   0  0  0  0  0  0  0  0  0  0  0  0
   43.2780   22.5140   35.4660 C   0  0  0  0  0  0  0  0  0  0  0  0
   44.1120   23.1770   36.3030 N   0  0  0  0  0  0  0  0  0  0  0  0
   43.9540   24.5000   36.4510 C   0  0  0  0  0  0  0  0  0  0  0  0
   43.0090   25.1700   35.8040 N   0  0  0  0  0  0  0  0  0  0  0  0
   39.6550   25.0950   34.6730 C   0  0  1  0  0  0  0  0  0  0  0  0
   40.5010   26.4300   34.6700 C   0  0  0  0  0  0  0  0  0  0  0  0
   41.0150   25.2010   34.1240 C   0  0  1  0  0  0  0  0  0  0  0  0
   39.7570   22.8370   37.5120 C   0  0  0  0  0  0  0  0  0  0  0  0
   38.7290   23.3070   38.3460 C   0  0  0  0  0  0  0  0  0  0  0  0
   38.0030   24.4380   37.9040 C   0  0  0  0  0  0  0  0  0  0  0  0
   38.3490   24.9960   36.7010 N   0  0  0  0  0  0  0  0  0  0  0  0
   39.3160   24.5150   35.9670 C   0  0  0  0  0  0  0  0  0  0  0  0
   40.0320   23.4460   36.3440 N   0  0  0  0  0  0  0  0  0  0  0  0
   40.4630   21.6950   37.9600 N   0  0  0  0  0  0  0  0  0  0  0  0
   43.3840   21.0490   35.2580 C   0  0  0  0  0  0  0  0  0  0  0  0
   43.3080   20.4800   33.9910 C   0  0  0  0  0  0  0  0  0  0  0  0
   43.5020   18.6730   34.3750 S   0  0  0  0  0  0  0  0  0  0  0  0
   43.6500   19.0540   36.2180 C   0  0  0  0  0  0  0  0  0  0  0  0
   43.5540   20.2120   36.2460 N   0  0  0  0  0  0  0  0  0  0  0  0
   43.8410   17.8800   37.1250 C   0  0  0  0  0  0  0  0  0  0  0  0
   45.0050   17.4080   37.6810 C   0  0  0  0  0  0  0  0  0  0  0  0
   44.5610   16.3150   38.4150 C   0  0  0  0  0  0  0  0  0  0  0  0
   43.1790   16.2230   38.2420 C   0  0  0  0  0  0  0  0  0  0  0  0
   42.8010   17.1980   37.4500 O   0  0  0  0  0  0  0  0  0  0  0  0
   44.8420   25.2990   37.3460 C   0  0  0  0  0  0  0  0  0  0  0  0
   44.2060   25.6180   38.4930 F   0  0  0  0  0  0  0  0  0  0  0  0
   45.3450   26.3940   36.6600 F   0  0  0  0  0  0  0  0  0  0  0  0
   45.9250   24.4530   37.6390 F   0  0  0  0  0  0  0  0  0  0  0  0
   41.6195   22.7174   34.1203 H   0  0  0  0  0  0  0  0  0  0  0  0
   38.7093   24.6952   34.2784 H   0  0  0  0  0  0  0  0  0  0  0  0
   40.2249   27.2609   34.0041 H   0  0  0  0  0  0  0  0  0  0  0  0
   40.8317   27.1564   35.4270 H   0  0  0  0  0  0  0  0  0  0  0  0
   41.4275   24.9160   33.1449 H   0  0  0  0  0  0  0  0  0  0  0  0
   38.4981   22.8161   39.3029 H   0  0  0  0  0  0  0  0  0  0  0  0
   37.1849   24.8572   38.5081 H   0  0  0  0  0  0  0  0  0  0  0  0
   41.2273   21.3055   37.3898 H   0  0  0  0  0  0  0  0  0  0  0  0
   40.2125   21.2534   38.8562 H   0  0  0  0  0  0  0  0  0  0  0  0
   43.1693   20.9715   33.0167 H   0  0  0  0  0  0  0  0  0  0  0  0
   46.0284   17.7965   37.5727 H   0  0  0  0  0  0  0  0  0  0  0  0
   45.1856   15.6436   39.0225 H   0  0  0  0  0  0  0  0  0  0  0  0
   42.5212   15.4647   38.6917 H   0  0  0  0  0  0  0  0  0  0  0  0
  1  6  1  0
  2  1  2  0
  2  3  1  0
  3  4  2  0
  4  5  1  0
  5 27  1  0
  6  5  2  0
  7 14  1  0
  8  7  1  0
  9  8  1  0
  9  7  1  0
  9  1  1  0
 10 16  1  0
 10 11  2  0
 12 11  1  0
 13 12  2  0
 14 15  2  0
 14 13  1  0
 15 10  1  0
 17  3  1  0
 17 21  1  0
 18 19  1  0
 18 17  2  0
 19 20  1  0
 20 21  2  0
 20 22  1  0
 22 26  1  0
 22 23  2  0
 23 24  1  0
 25 24  2  0
 26 25  1  0
 27 30  1  0
 27 28  1  0
 29 27  1  0
  2 31  1  0
  7 32  1  6
  8 33  1  0
  8 34  1  0
  9 35  1  6
 11 36  1  0
 12 37  1  0
 16 38  1  0
 16 39  1  0
 18 40  1  0
 23 41  1  0
 24 42  1  0
 25 43  1  0
M  ISO  8  31  14  32  13  33  13  34  13  35  13  36  14  37  14  40  14
M  ISO  3  41  14  42  14  43  14
M  END
>  <minimizedAffinity>  (1) 
-6.12229252

>  <minimizedRMSD>  (1) 
0.816144884

$$$$
