
     RDKit          3D

 49 53  0  0  1  0  0  0  0  0999 V2000
   42.1200   24.6620   34.9590 C   0  0  0  0  0  0  0  0  0  0  0  0
   42.2850   23.3270   34.8060 C   0  0  0  0  0  0  0  0  0  0  0  0
   43.2800   22.5860   35.4490 C   0  0  0  0  0  0  0  0  0  0  0  0
   44.1280   23.2270   36.2670 N   0  0  0  0  0  0  0  0  0  0  0  0
   43.9800   24.5520   36.4310 C   0  0  0  0  0  0  0  0  0  0  0  0
   43.0260   25.2290   35.8090 N   0  0  0  0  0  0  0  0  0  0  0  0
   39.6430   25.1400   34.7240 C   0  0  1  0  0  0  0  0  0  0  0  0
   40.4710   26.4870   34.7620 C   0  0  0  0  0  0  0  0  0  0  0  0
   41.0000   25.2870   34.1680 C   0  0  1  0  0  0  0  0  0  0  0  0
   39.8010   22.7960   37.4870 C   0  0  0  0  0  0  0  0  0  0  0  0
   38.7640   23.2150   38.3380 C   0  0  0  0  0  0  0  0  0  0  0  0
   38.0130   24.3430   37.9340 C   0  0  0  0  0  0  0  0  0  0  0  0
   38.3420   24.9510   36.7470 N   0  0  0  0  0  0  0  0  0  0  0  0
   39.3190   24.5130   35.9990 C   0  0  0  0  0  0  0  0  0  0  0  0
   40.0590   23.4500   36.3370 N   0  0  0  0  0  0  0  0  0  0  0  0
   40.5310   21.6580   37.8970 N   0  0  0  0  0  0  0  0  0  0  0  0
   43.3730   21.1190   35.2230 C   0  0  0  0  0  0  0  0  0  0  0  0
   43.6040   20.5710   33.9710 C   0  0  0  0  0  0  0  0  0  0  0  0
   43.6130   18.7530   34.3220 S   0  0  0  0  0  0  0  0  0  0  0  0
   43.2910   19.0830   36.1630 C   0  0  0  0  0  0  0  0  0  0  0  0
   43.2420   20.2480   36.1930 N   0  0  0  0  0  0  0  0  0  0  0  0
   43.1540   18.0200   37.2050 C   0  0  0  0  0  0  0  0  0  0  0  0
   44.5280   17.4870   37.5970 C   0  0  0  0  0  0  0  0  0  0  0  0
   44.1580   16.1850   38.2770 C   0  0  0  0  0  0  0  0  0  0  0  0
   42.9190   15.7030   37.5940 C   0  0  0  0  0  0  0  0  0  0  0  0
   42.5040   16.7910   36.6230 C   0  0  0  0  0  0  0  0  0  0  0  0
   44.8910   25.3390   37.3140 C   0  0  0  0  0  0  0  0  0  0  0  0
   44.2810   25.6560   38.4750 F   0  0  0  0  0  0  0  0  0  0  0  0
   45.3880   26.4320   36.6230 F   0  0  0  0  0  0  0  0  0  0  0  0
   45.9740   24.4820   37.5800 F   0  0  0  0  0  0  0  0  0  0  0  0
   41.5947   22.7939   34.1356 H   0  0  0  0  0  0  0  0  0  0  0  0
   38.7012   24.7383   34.3219 H   0  0  0  0  0  0  0  0  0  0  0  0
   40.1774   27.3370   34.1285 H   0  0  0  0  0  0  0  0  0  0  0  0
   40.7970   27.1903   35.5424 H   0  0  0  0  0  0  0  0  0  0  0  0
   41.4110   25.0464   33.1764 H   0  0  0  0  0  0  0  0  0  0  0  0
   38.5458   22.6878   39.2785 H   0  0  0  0  0  0  0  0  0  0  0  0
   37.1875   24.7234   38.5536 H   0  0  0  0  0  0  0  0  0  0  0  0
   41.3029   21.3038   37.3142 H   0  0  0  0  0  0  0  0  0  0  0  0
   40.2913   21.1825   38.7787 H   0  0  0  0  0  0  0  0  0  0  0  0
   43.7463   21.0868   33.0099 H   0  0  0  0  0  0  0  0  0  0  0  0
   42.5911   18.4750   38.0334 H   0  0  0  0  0  0  0  0  0  0  0  0
   45.1601   17.3145   36.7135 H   0  0  0  0  0  0  0  0  0  0  0  0
   45.1148   18.1728   38.2257 H   0  0  0  0  0  0  0  0  0  0  0  0
   44.9684   15.4500   38.1627 H   0  0  0  0  0  0  0  0  0  0  0  0
   43.9956   16.3251   39.3559 H   0  0  0  0  0  0  0  0  0  0  0  0
   43.1247   14.7688   37.0509 H   0  0  0  0  0  0  0  0  0  0  0  0
   42.1206   15.4978   38.3223 H   0  0  0  0  0  0  0  0  0  0  0  0
   41.4097   16.8982   36.5915 H   0  0  0  0  0  0  0  0  0  0  0  0
   42.8055   16.5878   35.5848 H   0  0  0  0  0  0  0  0  0  0  0  0
  1  6  1  0
  2  1  2  0
  2  3  1  0
  3  4  2  0
  4  5  1  0
  5 27  1  0
  6  5  2  0
  7  8  1  0
  7 14  1  0
  9  7  1  0
  9  8  1  0
  9  1  1  0
 10 16  1  0
 10 11  2  0
 12 11  1  0
 13 12  2  0
 14 15  2  0
 14 13  1  0
 15 10  1  0
 17  3  1  0
 17 21  1  0
 18 19  1  0
 18 17  2  0
 19 20  1  0
 20 21  2  0
 20 22  1  0
 22 23  1  0
 23 24  1  0
 25 24  1  0
 26 22  1  0
 26 25  1  0
 27 30  1  0
 27 28  1  0
 29 27  1  0
  2 31  1  0
  7 32  1  6
  8 33  1  0
  8 34  1  0
  9 35  1  6
 11 36  1  0
 12 37  1  0
 16 38  1  0
 16 39  1  0
 18 40  1  0
 22 41  1  0
 23 42  1  0
 23 43  1  0
 24 44  1  0
 24 45  1  0
 25 46  1  0
 25 47  1  0
 26 48  1  0
 26 49  1  0
M  ISO  8  31  14  32  13  33  13  34  13  35  13  36  14  37  14  40  14
M  ISO  8  41  13  42  13  43  13  44  13  45  13  46  13  47  13  48  13
M  ISO  1  49  13
M  END
>  <minimizedAffinity>  (1) 
-6.1217432

>  <minimizedRMSD>  (1) 
0.713258266

$$$$
