
     RDKit          3D

 45 48  0  0  1  0  0  0  0  0999 V2000
   42.0970   24.6740   34.9590 C   0  0  0  0  0  0  0  0  0  0  0  0
   42.2560   23.3390   34.7990 C   0  0  0  0  0  0  0  0  0  0  0  0
   43.2520   22.5900   35.4320 C   0  0  0  0  0  0  0  0  0  0  0  0
   44.1050   23.2240   36.2470 N   0  0  0  0  0  0  0  0  0  0  0  0
   43.9640   24.5500   36.4180 C   0  0  0  0  0  0  0  0  0  0  0  0
   43.0090   25.2340   35.8060 N   0  0  0  0  0  0  0  0  0  0  0  0
   39.6170   25.1570   34.7400 C   0  0  1  0  0  0  0  0  0  0  0  0
   40.4460   26.4990   34.7780 C   0  0  0  0  0  0  0  0  0  0  0  0
   40.9740   25.3050   34.1760 C   0  0  1  0  0  0  0  0  0  0  0  0
   39.7940   22.7950   37.4880 C   0  0  0  0  0  0  0  0  0  0  0  0
   38.7570   23.2040   38.3420 C   0  0  0  0  0  0  0  0  0  0  0  0
   37.9950   24.3330   37.9480 C   0  0  0  0  0  0  0  0  0  0  0  0
   38.3200   24.9490   36.7630 N   0  0  0  0  0  0  0  0  0  0  0  0
   39.2990   24.5210   36.0100 C   0  0  0  0  0  0  0  0  0  0  0  0
   40.0450   23.4600   36.3390 N   0  0  0  0  0  0  0  0  0  0  0  0
   40.5270   21.6610   37.8890 N   0  0  0  0  0  0  0  0  0  0  0  0
   43.3410   21.1260   35.2000 C   0  0  0  0  0  0  0  0  0  0  0  0
   43.4990   20.5850   33.9270 C   0  0  0  0  0  0  0  0  0  0  0  0
   43.5390   18.7660   34.2820 S   0  0  0  0  0  0  0  0  0  0  0  0
   43.3280   19.0880   36.1400 C   0  0  0  0  0  0  0  0  0  0  0  0
   43.2740   20.2530   36.1750 N   0  0  0  0  0  0  0  0  0  0  0  0
   43.2690   18.0030   37.1440 C   0  0  0  0  0  0  0  0  0  0  0  0
   42.5090   16.8560   36.5820 C   0  0  0  0  0  0  0  0  0  0  0  0
   44.6340   17.5270   37.5970 C   0  0  0  0  0  0  0  0  0  0  0  0
   44.8820   25.3330   37.2990 C   0  0  0  0  0  0  0  0  0  0  0  0
   44.2800   25.6450   38.4640 F   0  0  0  0  0  0  0  0  0  0  0  0
   45.3790   26.4260   36.6090 F   0  0  0  0  0  0  0  0  0  0  0  0
   45.9630   24.4700   37.5550 F   0  0  0  0  0  0  0  0  0  0  0  0
   41.5593   22.8120   34.1305 H   0  0  0  0  0  0  0  0  0  0  0  0
   38.6710   24.7605   34.3427 H   0  0  0  0  0  0  0  0  0  0  0  0
   40.1492   27.3518   34.1499 H   0  0  0  0  0  0  0  0  0  0  0  0
   40.7763   27.1980   35.5605 H   0  0  0  0  0  0  0  0  0  0  0  0
   41.3816   25.0702   33.1816 H   0  0  0  0  0  0  0  0  0  0  0  0
   38.5442   22.6696   39.2796 H   0  0  0  0  0  0  0  0  0  0  0  0
   37.1687   24.7047   38.5718 H   0  0  0  0  0  0  0  0  0  0  0  0
   41.2997   21.3137   37.3032 H   0  0  0  0  0  0  0  0  0  0  0  0
   40.2903   21.1791   38.7680 H   0  0  0  0  0  0  0  0  0  0  0  0
   43.5794   21.1032   32.9600 H   0  0  0  0  0  0  0  0  0  0  0  0
   42.7661   18.4157   38.0310 H   0  0  0  0  0  0  0  0  0  0  0  0
   42.1049   16.2461   37.4034 H   0  0  0  0  0  0  0  0  0  0  0  0
   41.6811   17.2326   35.9633 H   0  0  0  0  0  0  0  0  0  0  0  0
   43.1785   16.2404   35.9633 H   0  0  0  0  0  0  0  0  0  0  0  0
   44.6716   17.5139   38.6963 H   0  0  0  0  0  0  0  0  0  0  0  0
   44.8151   16.5127   37.2118 H   0  0  0  0  0  0  0  0  0  0  0  0
   45.4065   18.2088   37.2118 H   0  0  0  0  0  0  0  0  0  0  0  0
  1  6  1  0
  2  1  2  0
  2  3  1  0
  3  4  2  0
  4  5  1  0
  5 25  1  0
  6  5  2  0
  7  8  1  0
  7 14  1  0
  9  7  1  0
  9  8  1  0
  9  1  1  0
 10 16  1  0
 10 11  2  0
 12 11  1  0
 13 12  2  0
 14 15  2  0
 14 13  1  0
 15 10  1  0
 17  3  1  0
 17 21  1  0
 18 19  1  0
 18 17  2  0
 19 20  1  0
 20 21  2  0
 20 22  1  0
 22 24  1  0
 23 22  1  0
 25 28  1  0
 25 26  1  0
 27 25  1  0
  2 29  1  0
  7 30  1  6
  8 31  1  0
  8 32  1  0
  9 33  1  6
 11 34  1  0
 12 35  1  0
 16 36  1  0
 16 37  1  0
 18 38  1  0
 22 39  1  0
 23 40  1  0
 23 41  1  0
 23 42  1  0
 24 43  1  0
 24 44  1  0
 24 45  1  0
M  ISO  8  29  14  30  13  31  13  32  13  33  13  34  14  35  14  38  14
M  ISO  7  39   8  40   8  41   8  42   8  43   8  44   8  45   8
M  END
>  <minimizedAffinity>  (1) 
-5.90621138

>  <minimizedRMSD>  (1) 
0.533453286

$$$$
