
     RDKit          3D

 43 47  0  0  1  0  0  0  0  0999 V2000
   42.2100   24.6520   34.9800 C   0  0  0  0  0  0  0  0  0  0  0  0
   42.3900   23.3200   34.8270 C   0  0  0  0  0  0  0  0  0  0  0  0
   43.3760   22.5850   35.4970 C   0  0  0  0  0  0  0  0  0  0  0  0
   44.1940   23.2300   36.3380 N   0  0  0  0  0  0  0  0  0  0  0  0
   44.0300   24.5550   36.5010 C   0  0  0  0  0  0  0  0  0  0  0  0
   43.0880   25.2260   35.8540 N   0  0  0  0  0  0  0  0  0  0  0  0
   39.7370   25.1190   34.6840 C   0  0  1  0  0  0  0  0  0  0  0  0
   40.5580   26.4670   34.7300 C   0  0  0  0  0  0  0  0  0  0  0  0
   41.1060   25.2670   34.1590 C   0  0  1  0  0  0  0  0  0  0  0  0
   39.8360   22.7820   37.4570 C   0  0  0  0  0  0  0  0  0  0  0  0
   38.7800   23.2040   38.2830 C   0  0  0  0  0  0  0  0  0  0  0  0
   38.0360   24.3330   37.8600 C   0  0  0  0  0  0  0  0  0  0  0  0
   38.3940   24.9350   36.6780 N   0  0  0  0  0  0  0  0  0  0  0  0
   39.3860   24.4960   35.9540 C   0  0  0  0  0  0  0  0  0  0  0  0
   40.1190   23.4340   36.3120 N   0  0  0  0  0  0  0  0  0  0  0  0
   40.5570   21.6450   37.8850 N   0  0  0  0  0  0  0  0  0  0  0  0
   43.4880   21.1200   35.2710 C   0  0  0  0  0  0  0  0  0  0  0  0
   43.8760   20.5830   34.0510 C   0  0  0  0  0  0  0  0  0  0  0  0
   43.8290   18.7620   34.3830 S   0  0  0  0  0  0  0  0  0  0  0  0
   43.2750   19.0770   36.1680 C   0  0  0  0  0  0  0  0  0  0  0  0
   43.2320   20.2400   36.1990 N   0  0  0  0  0  0  0  0  0  0  0  0
   42.9960   18.0050   37.1880 C   0  0  0  0  0  0  0  0  0  0  0  0
   43.9410   16.8630   37.2360 C   0  0  0  0  0  0  0  0  0  0  0  0
   42.5520   16.6890   36.6680 C   0  0  0  0  0  0  0  0  0  0  0  0
   44.9090   25.3490   37.4100 C   0  0  0  0  0  0  0  0  0  0  0  0
   44.2520   25.6890   38.5390 F   0  0  0  0  0  0  0  0  0  0  0  0
   45.4490   26.4260   36.7240 F   0  0  0  0  0  0  0  0  0  0  0  0
   45.9710   24.4870   37.7370 F   0  0  0  0  0  0  0  0  0  0  0  0
   41.7232   22.7831   34.1363 H   0  0  0  0  0  0  0  0  0  0  0  0
   38.8050   24.7127   34.2641 H   0  0  0  0  0  0  0  0  0  0  0  0
   40.2760   27.3107   34.0829 H   0  0  0  0  0  0  0  0  0  0  0  0
   40.8627   27.1776   35.5124 H   0  0  0  0  0  0  0  0  0  0  0  0
   41.5418   25.0208   33.1795 H   0  0  0  0  0  0  0  0  0  0  0  0
   38.5410   22.6791   39.2197 H   0  0  0  0  0  0  0  0  0  0  0  0
   37.1972   24.7160   38.4597 H   0  0  0  0  0  0  0  0  0  0  0  0
   41.3415   21.2899   37.3199 H   0  0  0  0  0  0  0  0  0  0  0  0
   40.2981   21.1711   38.7621 H   0  0  0  0  0  0  0  0  0  0  0  0
   44.1438   21.1071   33.1217 H   0  0  0  0  0  0  0  0  0  0  0  0
   42.6044   18.7128   37.9334 H   0  0  0  0  0  0  0  0  0  0  0  0
   44.8160   16.8426   36.5698 H   0  0  0  0  0  0  0  0  0  0  0  0
   44.5312   16.3696   38.0223 H   0  0  0  0  0  0  0  0  0  0  0  0
   41.8004   16.1036   37.2179 H   0  0  0  0  0  0  0  0  0  0  0  0
   42.1367   16.3243   35.7169 H   0  0  0  0  0  0  0  0  0  0  0  0
  1  6  1  0
  2  1  2  0
  2  3  1  0
  3  4  2  0
  4  5  1  0
  5 25  1  0
  6  5  2  0
  7  8  1  0
  7 14  1  0
  9  7  1  0
  9  8  1  0
  9  1  1  0
 10 16  1  0
 10 11  2  0
 12 11  1  0
 13 12  2  0
 14 15  2  0
 14 13  1  0
 15 10  1  0
 17  3  1  0
 17 21  1  0
 18 19  1  0
 18 17  2  0
 19 20  1  0
 20 21  2  0
 20 22  1  0
 22 23  1  0
 24 22  1  0
 24 23  1  0
 25 28  1  0
 25 26  1  0
 27 25  1  0
  2 29  1  0
  7 30  1  6
  8 31  1  0
  8 32  1  0
  9 33  1  6
 11 34  1  0
 12 35  1  0
 16 36  1  0
 16 37  1  0
 18 38  1  0
 22 39  1  0
 23 40  1  0
 23 41  1  0
 24 42  1  0
 24 43  1  0
M  ISO  8  29  14  30  13  31  13  32  13  33  13  34  14  35  14  38  14
M  ISO  5  39  13  40  13  41  13  42  13  43  13
M  END
>  <minimizedAffinity>  (1) 
-5.83494759

>  <minimizedRMSD>  (1) 
0.411245167

$$$$
