
     RDKit          3D

 48 51  0  0  1  0  0  0  0  0999 V2000
   42.1470   24.5750   34.8880 C   0  0  0  0  0  0  0  0  0  0  0  0
   42.3620   23.2500   34.7200 C   0  0  0  0  0  0  0  0  0  0  0  0
   43.3560   22.5250   35.3790 C   0  0  0  0  0  0  0  0  0  0  0  0
   44.1580   23.1890   36.2400 N   0  0  0  0  0  0  0  0  0  0  0  0
   43.9600   24.5060   36.4190 C   0  0  0  0  0  0  0  0  0  0  0  0
   43.0030   25.1600   35.7770 N   0  0  0  0  0  0  0  0  0  0  0  0
   39.6700   25.0620   34.6330 C   0  0  1  0  0  0  0  0  0  0  0  0
   40.5100   26.3990   34.6100 C   0  0  0  0  0  0  0  0  0  0  0  0
   41.0330   25.1730   34.0680 C   0  0  1  0  0  0  0  0  0  0  0  0
   39.7990   22.8220   37.4840 C   0  0  0  0  0  0  0  0  0  0  0  0
   38.7760   23.2970   38.3230 C   0  0  0  0  0  0  0  0  0  0  0  0
   38.0430   24.4300   37.8800 C   0  0  0  0  0  0  0  0  0  0  0  0
   38.3810   24.9790   36.6680 N   0  0  0  0  0  0  0  0  0  0  0  0
   39.3430   24.4910   35.9320 C   0  0  0  0  0  0  0  0  0  0  0  0
   40.0620   23.4290   36.3050 N   0  0  0  0  0  0  0  0  0  0  0  0
   40.5030   21.6890   37.9330 N   0  0  0  0  0  0  0  0  0  0  0  0
   43.5090   21.0710   35.1370 C   0  0  0  0  0  0  0  0  0  0  0  0
   42.7200   20.3840   34.2270 C   0  0  0  0  0  0  0  0  0  0  0  0
   43.3720   18.6540   34.3740 S   0  0  0  0  0  0  0  0  0  0  0  0
   44.6280   19.2050   35.6800 C   0  0  0  0  0  0  0  0  0  0  0  0
   44.3950   20.3420   35.7640 N   0  0  0  0  0  0  0  0  0  0  0  0
   45.5750   18.2500   36.3040 C   0  0  0  0  0  0  0  0  0  0  0  0
   45.9080   17.1100   35.3480 C   0  0  0  0  0  0  0  0  0  0  0  0
   45.0070   17.6800   37.5670 C   0  0  0  0  0  0  0  0  0  0  0  0
   46.8440   19.0130   36.6370 C   0  0  0  0  0  0  0  0  0  0  0  0
   44.8130   25.3100   37.3450 C   0  0  0  0  0  0  0  0  0  0  0  0
   44.1460   25.6060   38.4780 F   0  0  0  0  0  0  0  0  0  0  0  0
   45.3130   26.4190   36.6810 F   0  0  0  0  0  0  0  0  0  0  0  0
   45.9020   24.4780   37.6540 F   0  0  0  0  0  0  0  0  0  0  0  0
   41.7108   22.7086   34.0180 H   0  0  0  0  0  0  0  0  0  0  0  0
   38.7228   24.6537   34.2508 H   0  0  0  0  0  0  0  0  0  0  0  0
   40.2223   27.2227   33.9402 H   0  0  0  0  0  0  0  0  0  0  0  0
   40.8420   27.1323   35.3597 H   0  0  0  0  0  0  0  0  0  0  0  0
   41.4432   24.8870   33.0882 H   0  0  0  0  0  0  0  0  0  0  0  0
   38.5522   22.8108   39.2840 H   0  0  0  0  0  0  0  0  0  0  0  0
   37.2306   24.8540   38.4885 H   0  0  0  0  0  0  0  0  0  0  0  0
   41.2636   21.2952   37.3609 H   0  0  0  0  0  0  0  0  0  0  0  0
   40.2576   21.2537   38.8336 H   0  0  0  0  0  0  0  0  0  0  0  0
   41.9143   20.7667   33.5833 H   0  0  0  0  0  0  0  0  0  0  0  0
   46.1704   16.2116   35.9260 H   0  0  0  0  0  0  0  0  0  0  0  0
   45.0348   16.8961   34.7141 H   0  0  0  0  0  0  0  0  0  0  0  0
   46.7590   17.3998   34.7141 H   0  0  0  0  0  0  0  0  0  0  0  0
   45.4853   18.1600   38.4335 H   0  0  0  0  0  0  0  0  0  0  0  0
   43.9230   17.8646   37.5976 H   0  0  0  0  0  0  0  0  0  0  0  0
   45.1954   16.5967   37.5976 H   0  0  0  0  0  0  0  0  0  0  0  0
   46.9556   19.0801   37.7293 H   0  0  0  0  0  0  0  0  0  0  0  0
   47.7109   18.4862   36.2115 H   0  0  0  0  0  0  0  0  0  0  0  0
   46.7853   20.0257   36.2115 H   0  0  0  0  0  0  0  0  0  0  0  0
  1  6  1  0
  2  1  2  0
  2  3  1  0
  3  4  2  0
  4  5  1  0
  5 26  1  0
  6  5  2  0
  7 14  1  0
  8  7  1  0
  9  8  1  0
  9  7  1  0
  9  1  1  0
 10 16  1  0
 10 11  2  0
 12 11  1  0
 13 12  2  0
 14 15  2  0
 14 13  1  0
 15 10  1  0
 17  3  1  0
 17 21  1  0
 18 19  1  0
 18 17  2  0
 19 20  1  0
 20 21  2  0
 20 22  1  0
 22 25  1  0
 22 24  1  0
 23 22  1  0
 26 29  1  0
 26 27  1  0
 28 26  1  0
  2 30  1  0
  7 31  1  6
  8 32  1  0
  8 33  1  0
  9 34  1  6
 11 35  1  0
 12 36  1  0
 16 37  1  0
 16 38  1  0
 18 39  1  0
 23 40  1  0
 23 41  1  0
 23 42  1  0
 24 43  1  0
 24 44  1  0
 24 45  1  0
 25 46  1  0
 25 47  1  0
 25 48  1  0
M  ISO  8  30  14  31  13  32  13  33  13  34  13  35  14  36  14  39  14
M  ISO  8  40   8  41   8  42   8  43   8  44   8  45   8  46   8  47   8
M  ISO  1  48   8
M  END
>  <minimizedAffinity>  (1) 
-5.76157093

>  <minimizedRMSD>  (1) 
1.65775967

$$$$
