
     RDKit          3D

 28 29  0  0  0  0  0  0  0  0999 V2000
   39.9830   22.3450   37.0040 C   0  0  0  0  0  0  0  0  0  0  0  0
   39.6370   23.0500   38.1540 C   0  0  0  0  0  0  0  0  0  0  0  0
   38.3320   23.5710   38.2370 C   0  0  0  0  0  0  0  0  0  0  0  0
   37.4720   23.3690   37.2090 N   0  0  0  0  0  0  0  0  0  0  0  0
   37.8590   22.6720   36.1050 C   0  0  0  0  0  0  0  0  0  0  0  0
   39.0860   22.1730   36.0070 N   0  0  0  0  0  0  0  0  0  0  0  0
   41.3230   21.8300   36.9520 C   0  0  0  0  0  0  0  0  0  0  0  0
   41.8450   21.1170   37.8560 O   0  0  0  0  0  0  0  0  0  0  0  0
   42.1560   22.1470   35.7650 C   0  0  0  0  0  0  0  0  0  0  0  0
   42.3850   23.6220   35.5940 C   0  0  0  0  0  0  0  0  0  0  0  0
   43.3970   24.1630   36.5810 C   0  0  0  0  0  0  0  0  0  0  0  0
   44.7290   23.5060   36.4730 C   0  0  0  0  0  0  0  0  0  0  0  0
   44.6410   22.3540   35.4880 C   0  0  0  0  0  0  0  0  0  0  0  0
   43.4930   21.4720   35.8320 C   0  0  0  0  0  0  0  0  0  0  0  0
   40.3596   23.1950   38.9706 H   0  0  0  0  0  0  0  0  0  0  0  0
   38.0138   24.1355   39.1258 H   0  0  0  0  0  0  0  0  0  0  0  0
   37.1449   22.5200   35.2822 H   0  0  0  0  0  0  0  0  0  0  0  0
   41.5857   21.7716   34.9025 H   0  0  0  0  0  0  0  0  0  0  0  0
   42.7516   23.8074   34.5736 H   0  0  0  0  0  0  0  0  0  0  0  0
   41.4291   24.1349   35.7760 H   0  0  0  0  0  0  0  0  0  0  0  0
   43.5225   25.2404   36.3983 H   0  0  0  0  0  0  0  0  0  0  0  0
   43.0116   23.9580   37.5907 H   0  0  0  0  0  0  0  0  0  0  0  0
   45.4715   24.2364   36.1191 H   0  0  0  0  0  0  0  0  0  0  0  0
   45.0337   23.1256   37.4591 H   0  0  0  0  0  0  0  0  0  0  0  0
   45.5725   21.7702   35.5271 H   0  0  0  0  0  0  0  0  0  0  0  0
   44.4936   22.7574   34.4753 H   0  0  0  0  0  0  0  0  0  0  0  0
   43.6398   21.0989   36.8563 H   0  0  0  0  0  0  0  0  0  0  0  0
   43.4779   20.6670   35.0825 H   0  0  0  0  0  0  0  0  0  0  0  0
  1  2  2  0
  2  3  1  0
  4  3  2  0
  5  4  1  0
  6  5  2  0
  6  1  1  0
  7  1  1  0
  7  8  2  0
  9 14  1  0
  9  7  1  0
 10  9  1  0
 10 11  1  0
 12 11  1  0
 13 14  1  0
 13 12  1  0
  2 15  1  0
  3 16  1  0
  5 17  1  0
  9 18  1  0
 10 19  1  0
 10 20  1  0
 11 21  1  0
 11 22  1  0
 12 23  1  0
 12 24  1  0
 13 25  1  0
 13 26  1  0
 14 27  1  0
 14 28  1  0
M  ISO  8  15  14  16  14  17  14  18  13  19  13  20  13  21  13  22  13
M  ISO  6  23  13  24  13  25  13  26  13  27  13  28  13
M  END
>  <minimizedAffinity>  (1) 
-4.01652431

>  <minimizedRMSD>  (1) 
1.16509283

$$$$
