
     RDKit          3D

 19 20  0  0  0  0  0  0  0  0999 V2000
   39.8880   22.5170   36.9880 C   0  0  0  0  0  0  0  0  0  0  0  0
   39.3830   23.1590   38.1280 C   0  0  0  0  0  0  0  0  0  0  0  0
   38.0260   23.4410   38.2090 C   0  0  0  0  0  0  0  0  0  0  0  0
   37.2250   23.0780   37.1600 N   0  0  0  0  0  0  0  0  0  0  0  0
   37.7450   22.4620   36.0790 C   0  0  0  0  0  0  0  0  0  0  0  0
   39.0420   22.1870   35.9900 N   0  0  0  0  0  0  0  0  0  0  0  0
   41.2970   22.2590   36.9780 C   0  0  0  0  0  0  0  0  0  0  0  0
   41.8330   21.2300   37.4710 O   0  0  0  0  0  0  0  0  0  0  0  0
   42.9510   24.8840   35.1140 N   0  0  0  0  0  0  0  0  0  0  0  0
   41.8710   24.1830   35.4820 N   0  0  0  0  0  0  0  0  0  0  0  0
   42.2410   23.2180   36.3650 C   0  0  0  0  0  0  0  0  0  0  0  0
   43.6200   23.3150   36.5620 C   0  0  0  0  0  0  0  0  0  0  0  0
   44.0120   24.3730   35.7550 C   0  0  0  0  0  0  0  0  0  0  0  0
   40.0569   23.4370   38.9517 H   0  0  0  0  0  0  0  0  0  0  0  0
   37.6056   23.9429   39.0929 H   0  0  0  0  0  0  0  0  0  0  0  0
   37.0789   22.1801   35.2502 H   0  0  0  0  0  0  0  0  0  0  0  0
   42.9643   25.6756   34.4552 H   0  0  0  0  0  0  0  0  0  0  0  0
   44.2532   22.6924   37.2112 H   0  0  0  0  0  0  0  0  0  0  0  0
   45.0443   24.7398   35.6553 H   0  0  0  0  0  0  0  0  0  0  0  0
  1  2  2  0
  2  3  1  0
  4  3  2  0
  5  4  1  0
  6  5  2  0
  6  1  1  0
  7  1  1  0
  7  8  2  0
  9 10  1  0
  9 13  1  0
 10 11  2  0
 11 12  1  0
 11  7  1  0
 13 12  2  0
  2 14  1  0
  3 15  1  0
  5 16  1  0
  9 17  1  0
 12 18  1  0
 13 19  1  0
M  ISO  6  14  14  15  14  16  14  17   9  18  14  19  14
M  END
>  <minimizedAffinity>  (1) 
-3.75567627

>  <minimizedRMSD>  (1) 
0.722741663

$$$$
