
     RDKit          3D

 13 13  0  0  0  0  0  0  0  0999 V2000
   39.8570   22.5100   37.1260 C   0  0  0  0  0  0  0  0  0  0  0  0
   39.3500   23.1650   38.2450 C   0  0  0  0  0  0  0  0  0  0  0  0
   37.9900   23.5160   38.2330 C   0  0  0  0  0  0  0  0  0  0  0  0
   37.2360   23.2020   37.1310 N   0  0  0  0  0  0  0  0  0  0  0  0
   37.7950   22.5570   36.0640 C   0  0  0  0  0  0  0  0  0  0  0  0
   39.0970   22.2190   36.0740 N   0  0  0  0  0  0  0  0  0  0  0  0
   41.2530   22.1950   37.2360 C   0  0  0  0  0  0  0  0  0  0  0  0
   41.7620   21.1570   37.6910 O   0  0  0  0  0  0  0  0  0  0  0  0
   42.1670   23.1660   36.7820 O   0  0  0  0  0  0  0  0  0  0  0  0
   39.9914   23.3992   39.1074 H   0  0  0  0  0  0  0  0  0  0  0  0
   37.5377   24.0334   39.0919 H   0  0  0  0  0  0  0  0  0  0  0  0
   37.1749   22.3120   35.1891 H   0  0  0  0  0  0  0  0  0  0  0  0
   43.1403   22.9939   36.8375 H   0  0  0  0  0  0  0  0  0  0  0  0
  1  7  1  0
  1  2  2  0
  3  2  1  0
  4  3  2  0
  5  6  2  0
  5  4  1  0
  6  1  1  0
  7  8  2  0
  9  7  1  0
  2 10  1  0
  3 11  1  0
  5 12  1  0
  9 13  1  0
M  ISO  4  10  14  11  14  12  14  13   3
M  END
>  <minimizedAffinity>  (1) 
-3.11745596

>  <minimizedRMSD>  (1) 
0.080190517

$$$$
