
     RDKit          3D

 14 14  0  0  0  0  0  0  0  0999 V2000
   39.8940   22.4900   37.0800 C   0  0  0  0  0  0  0  0  0  0  0  0
   39.3740   23.1510   38.2130 C   0  0  0  0  0  0  0  0  0  0  0  0
   38.0270   23.4910   38.2050 C   0  0  0  0  0  0  0  0  0  0  0  0
   37.2620   23.1840   37.1230 N   0  0  0  0  0  0  0  0  0  0  0  0
   37.8020   22.5480   36.0540 C   0  0  0  0  0  0  0  0  0  0  0  0
   39.0980   22.2070   36.0370 N   0  0  0  0  0  0  0  0  0  0  0  0
   41.2920   22.1720   37.1690 C   0  0  0  0  0  0  0  0  0  0  0  0
   41.7640   21.1490   37.7000 O   0  0  0  0  0  0  0  0  0  0  0  0
   42.2530   23.0880   36.6130 N   0  0  0  0  0  0  0  0  0  0  0  0
   40.0146   23.3894   39.0749 H   0  0  0  0  0  0  0  0  0  0  0  0
   37.5815   24.0057   39.0691 H   0  0  0  0  0  0  0  0  0  0  0  0
   37.1671   22.3085   35.1882 H   0  0  0  0  0  0  0  0  0  0  0  0
   43.2592   22.8751   36.6683 H   0  0  0  0  0  0  0  0  0  0  0  0
   41.9344   23.9563   36.1598 H   0  0  0  0  0  0  0  0  0  0  0  0
  1  7  1  0
  1  2  2  0
  3  2  1  0
  4  3  2  0
  5  4  1  0
  6  5  2  0
  6  1  1  0
  7  8  2  0
  9  7  1  0
  2 10  1  0
  3 11  1  0
  5 12  1  0
  9 13  1  0
  9 14  1  0
M  ISO  3  10  14  11  14  12  14
M  END
>  <minimizedAffinity>  (1) 
-3.10056353

>  <minimizedRMSD>  (1) 
0.151545525

$$$$
