
     RDKit          3D

 35 38  0  0  0  0  0  0  0  0999 V2000
   42.0700   23.4420   36.2900 C   0  0  0  0  0  0  0  0  0  0  0  0
   43.3820   23.6090   36.7320 C   0  0  0  0  0  0  0  0  0  0  0  0
   44.1830   24.6050   36.1910 C   0  0  0  0  0  0  0  0  0  0  0  0
   43.6710   25.4200   35.2160 C   0  0  0  0  0  0  0  0  0  0  0  0
   42.3780   25.2100   34.8200 C   0  0  0  0  0  0  0  0  0  0  0  0
   41.5720   24.2500   35.3290 N   0  0  0  0  0  0  0  0  0  0  0  0
   41.8400   26.0580   33.8050 N   0  0  0  0  0  0  0  0  0  0  0  0
   42.4730   27.1130   33.2150 C   0  0  0  0  0  0  0  0  0  0  0  0
   41.6880   27.7040   32.2950 N   0  0  0  0  0  0  0  0  0  0  0  0
   40.5250   27.0390   32.2710 C   0  0  0  0  0  0  0  0  0  0  0  0
   39.4060   27.2390   31.5180 C   0  0  0  0  0  0  0  0  0  0  0  0
   39.3300   28.1790   30.6600 O   0  0  0  0  0  0  0  0  0  0  0  0
   38.3650   26.4080   31.7020 N   0  0  0  0  0  0  0  0  0  0  0  0
   38.4820   25.4160   32.6240 C   0  0  0  0  0  0  0  0  0  0  0  0
   37.2920   24.6050   32.7130 N   0  0  0  0  0  0  0  0  0  0  0  0
   39.5930   25.2300   33.3620 N   0  0  0  0  0  0  0  0  0  0  0  0
   40.6430   26.0400   33.2010 C   0  0  0  0  0  0  0  0  0  0  0  0
   41.2720   22.3600   36.9110 C   0  0  0  0  0  0  0  0  0  0  0  0
   41.9090   21.3810   37.3490 O   0  0  0  0  0  0  0  0  0  0  0  0
   39.8440   22.5480   36.9470 C   0  0  0  0  0  0  0  0  0  0  0  0
   39.3930   23.1640   38.1090 C   0  0  0  0  0  0  0  0  0  0  0  0
   38.0100   23.3860   38.2250 C   0  0  0  0  0  0  0  0  0  0  0  0
   37.1880   22.9990   37.2220 N   0  0  0  0  0  0  0  0  0  0  0  0
   37.6840   22.4010   36.1100 C   0  0  0  0  0  0  0  0  0  0  0  0
   39.0090   22.1740   35.9670 N   0  0  0  0  0  0  0  0  0  0  0  0
   43.7843   22.9478   37.5136 H   0  0  0  0  0  0  0  0  0  0  0  0
   45.2172   24.7385   36.5411 H   0  0  0  0  0  0  0  0  0  0  0  0
   44.2799   26.2178   34.7658 H   0  0  0  0  0  0  0  0  0  0  0  0
   43.4946   27.4390   33.4600 H   0  0  0  0  0  0  0  0  0  0  0  0
   37.4985   26.5206   31.1566 H   0  0  0  0  0  0  0  0  0  0  0  0
   37.2535   23.8181   33.3765 H   0  0  0  0  0  0  0  0  0  0  0  0
   36.4810   24.8129   32.1131 H   0  0  0  0  0  0  0  0  0  0  0  0
   40.0900   23.4653   38.9049 H   0  0  0  0  0  0  0  0  0  0  0  0
   37.5993   23.8701   39.1233 H   0  0  0  0  0  0  0  0  0  0  0  0
   36.9948   22.0949   35.3092 H   0  0  0  0  0  0  0  0  0  0  0  0
  1  2  2  0
  1 18  1  0
  3  2  1  0
  4  3  2  0
  5  4  1  0
  5  6  2  0
  6  1  1  0
  7  5  1  0
  8  7  1  0
  9  8  2  0
 10  9  1  0
 10 17  2  0
 11 13  1  0
 11 10  1  0
 12 11  2  0
 13 14  1  0
 14 15  1  0
 14 16  2  0
 17 16  1  0
 17  7  1  0
 18 20  1  0
 18 19  2  0
 20 21  2  0
 21 22  1  0
 23 22  2  0
 24 23  1  0
 25 24  2  0
 25 20  1  0
  2 26  1  0
  3 27  1  0
  4 28  1  0
  8 29  1  0
 13 30  1  0
 15 31  1  0
 15 32  1  0
 21 33  1  0
 22 34  1  0
 24 35  1  0
M  ISO  8  26  14  27  14  28  14  29  14  30   9  33  14  34  14  35  14
M  END
>  <minimizedAffinity>  (1) 
-5.65210295

>  <minimizedRMSD>  (1) 
0.340119898

$$$$
