
     RDKit          3D

 35 38  0  0  0  0  0  0  0  0999 V2000
   42.0790   23.3170   36.3150 C   0  0  0  0  0  0  0  0  0  0  0  0
   43.3860   23.4540   36.7510 C   0  0  0  0  0  0  0  0  0  0  0  0
   44.2380   24.3920   36.1860 C   0  0  0  0  0  0  0  0  0  0  0  0
   43.7350   25.1790   35.1790 C   0  0  0  0  0  0  0  0  0  0  0  0
   42.4170   25.0170   34.7620 C   0  0  0  0  0  0  0  0  0  0  0  0
   41.6390   24.0980   35.3420 N   0  0  0  0  0  0  0  0  0  0  0  0
   42.0970   25.9500   33.6880 C   0  0  0  0  0  0  0  0  0  0  0  0
   43.0120   26.6190   32.9660 N   0  0  0  0  0  0  0  0  0  0  0  0
   42.7720   27.4740   31.9810 C   0  0  0  0  0  0  0  0  0  0  0  0
   41.5150   27.7600   31.6010 N   0  0  0  0  0  0  0  0  0  0  0  0
   40.5080   27.1490   32.2530 C   0  0  0  0  0  0  0  0  0  0  0  0
   39.2200   27.4370   31.8700 C   0  0  0  0  0  0  0  0  0  0  0  0
   38.1560   26.8440   32.4990 C   0  0  0  0  0  0  0  0  0  0  0  0
   38.4320   25.9440   33.5350 C   0  0  0  0  0  0  0  0  0  0  0  0
   39.7410   25.7020   33.8680 C   0  0  0  0  0  0  0  0  0  0  0  0
   40.8310   26.2750   33.2630 C   0  0  0  0  0  0  0  0  0  0  0  0
   41.2310   22.2940   36.9590 C   0  0  0  0  0  0  0  0  0  0  0  0
   41.8310   21.3070   37.4520 O   0  0  0  0  0  0  0  0  0  0  0  0
   39.8140   22.5130   36.9650 C   0  0  0  0  0  0  0  0  0  0  0  0
   39.3660   23.1640   38.1340 C   0  0  0  0  0  0  0  0  0  0  0  0
   37.9800   23.4220   38.2260 C   0  0  0  0  0  0  0  0  0  0  0  0
   37.1730   23.0320   37.1950 N   0  0  0  0  0  0  0  0  0  0  0  0
   37.6700   22.4130   36.1040 C   0  0  0  0  0  0  0  0  0  0  0  0
   38.9820   22.1610   36.0010 N   0  0  0  0  0  0  0  0  0  0  0  0
   43.7557   22.8072   37.5603 H   0  0  0  0  0  0  0  0  0  0  0  0
   45.2767   24.5012   36.5314 H   0  0  0  0  0  0  0  0  0  0  0  0
   44.3736   25.9371   34.7022 H   0  0  0  0  0  0  0  0  0  0  0  0
   43.6158   27.9571   31.4665 H   0  0  0  0  0  0  0  0  0  0  0  0
   39.0412   28.1497   31.0514 H   0  0  0  0  0  0  0  0  0  0  0  0
   37.1213   27.0677   32.2000 H   0  0  0  0  0  0  0  0  0  0  0  0
   37.6149   25.4402   34.0721 H   0  0  0  0  0  0  0  0  0  0  0  0
   39.9318   24.9915   34.6858 H   0  0  0  0  0  0  0  0  0  0  0  0
   40.0617   23.4563   38.9344 H   0  0  0  0  0  0  0  0  0  0  0  0
   37.5597   23.9260   39.1088 H   0  0  0  0  0  0  0  0  0  0  0  0
   36.9919   22.1125   35.2917 H   0  0  0  0  0  0  0  0  0  0  0  0
  1  2  2  0
  1 17  1  0
  3  2  1  0
  4  3  2  0
  5  4  1  0
  5  6  2  0
  6  1  1  0
  7  5  1  0
  8  7  2  0
  9  8  1  0
 10  9  2  0
 10 11  1  0
 11 16  2  0
 12 11  1  0
 12 13  2  0
 13 14  1  0
 14 15  2  0
 16  7  1  0
 16 15  1  0
 17 19  1  0
 17 18  2  0
 19 20  2  0
 20 21  1  0
 22 21  2  0
 23 22  1  0
 24 23  2  0
 24 19  1  0
  2 25  1  0
  3 26  1  0
  4 27  1  0
  9 28  1  0
 12 29  1  0
 13 30  1  0
 14 31  1  0
 15 32  1  0
 20 33  1  0
 21 34  1  0
 23 35  1  0
M  ISO  8  25  14  26  14  27  14  28  14  29  14  30  14  31  14  32  14
M  ISO  3  33  14  34  14  35  14
M  END
>  <minimizedAffinity>  (1) 
-5.25604486

>  <minimizedRMSD>  (1) 
0.383078724

$$$$
