
     RDKit          3D

 34 36  0  0  0  0  0  0  0  0999 V2000
   42.0450   23.4310   36.2330 C   0  0  0  0  0  0  0  0  0  0  0  0
   43.3410   23.6690   36.7020 C   0  0  0  0  0  0  0  0  0  0  0  0
   44.1630   24.6500   36.1570 C   0  0  0  0  0  0  0  0  0  0  0  0
   43.6450   25.3950   35.1180 C   0  0  0  0  0  0  0  0  0  0  0  0
   42.3560   25.1270   34.6850 C   0  0  0  0  0  0  0  0  0  0  0  0
   41.5720   24.1690   35.2270 N   0  0  0  0  0  0  0  0  0  0  0  0
   41.7960   25.8800   33.6150 N   0  0  0  0  0  0  0  0  0  0  0  0
   40.4870   26.2350   33.5690 C   0  0  0  0  0  0  0  0  0  0  0  0
   40.0170   26.9730   32.4880 C   0  0  0  0  0  0  0  0  0  0  0  0
   38.5880   27.3840   32.3940 C   0  0  0  0  0  0  0  0  0  0  0  0
   40.8650   27.3510   31.4540 C   0  0  0  0  0  0  0  0  0  0  0  0
   40.4470   28.0260   30.4590 O   0  0  0  0  0  0  0  0  0  0  0  0
   42.1520   26.9970   31.5090 N   0  0  0  0  0  0  0  0  0  0  0  0
   42.5570   26.2830   32.5780 C   0  0  0  0  0  0  0  0  0  0  0  0
   43.7770   25.9530   32.6200 O   0  0  0  0  0  0  0  0  0  0  0  0
   41.2670   22.3600   36.8940 C   0  0  0  0  0  0  0  0  0  0  0  0
   41.9190   21.3970   37.3370 O   0  0  0  0  0  0  0  0  0  0  0  0
   39.8440   22.5490   36.9510 C   0  0  0  0  0  0  0  0  0  0  0  0
   39.3930   23.1730   38.1100 C   0  0  0  0  0  0  0  0  0  0  0  0
   38.0130   23.3870   38.2270 C   0  0  0  0  0  0  0  0  0  0  0  0
   37.1870   22.9880   37.2300 N   0  0  0  0  0  0  0  0  0  0  0  0
   37.6780   22.3860   36.1240 C   0  0  0  0  0  0  0  0  0  0  0  0
   38.9940   22.1760   36.0020 N   0  0  0  0  0  0  0  0  0  0  0  0
   43.7244   23.0579   37.5324 H   0  0  0  0  0  0  0  0  0  0  0  0
   45.1804   24.8238   36.5375 H   0  0  0  0  0  0  0  0  0  0  0  0
   44.2432   26.1862   34.6425 H   0  0  0  0  0  0  0  0  0  0  0  0
   39.8037   25.9416   34.3796 H   0  0  0  0  0  0  0  0  0  0  0  0
   38.1734   27.5032   33.4059 H   0  0  0  0  0  0  0  0  0  0  0  0
   38.5160   28.3393   31.8534 H   0  0  0  0  0  0  0  0  0  0  0  0
   38.0195   26.6130   31.8534 H   0  0  0  0  0  0  0  0  0  0  0  0
   42.8105   27.2600   30.7620 H   0  0  0  0  0  0  0  0  0  0  0  0
   40.0904   23.4852   38.9013 H   0  0  0  0  0  0  0  0  0  0  0  0
   37.6029   23.8760   39.1229 H   0  0  0  0  0  0  0  0  0  0  0  0
   36.9947   22.0681   35.3227 H   0  0  0  0  0  0  0  0  0  0  0  0
  1  2  2  0
  1 16  1  0
  3  2  1  0
  4  3  2  0
  5  4  1  0
  5  6  2  0
  6  1  1  0
  7  5  1  0
  8  7  1  0
  9  8  2  0
 10  9  1  0
 11 13  1  0
 11  9  1  0
 12 11  2  0
 13 14  1  0
 14 15  2  0
 14  7  1  0
 16 18  1  0
 16 17  2  0
 18 19  2  0
 19 20  1  0
 21 20  2  0
 22 21  1  0
 23 22  2  0
 23 18  1  0
  2 24  1  0
  3 25  1  0
  4 26  1  0
  8 27  1  0
 10 28  1  0
 10 29  1  0
 10 30  1  0
 13 31  1  0
 19 32  1  0
 20 33  1  0
 22 34  1  0
M  ISO  8  24  14  25  14  26  14  27  14  28   8  29   8  30   8  31   9
M  ISO  3  32  14  33  14  34  14
M  END
>  <minimizedAffinity>  (1) 
-5.24047136

>  <minimizedRMSD>  (1) 
0.530551493

$$$$
