
     RDKit          3D

 12 12  0  0  0  0  0  0  0  0999 V2000
   39.9920   22.6560   37.5330 C   0  0  0  0  0  0  0  0  0  0  0  0
   39.1470   23.2910   38.4570 C   0  0  0  0  0  0  0  0  0  0  0  0
   37.8160   23.4780   38.0910 C   0  0  0  0  0  0  0  0  0  0  0  0
   37.3990   23.0450   36.8730 N   0  0  0  0  0  0  0  0  0  0  0  0
   38.2400   22.4310   35.9950 C   0  0  0  0  0  0  0  0  0  0  0  0
   39.5180   22.2540   36.3510 N   0  0  0  0  0  0  0  0  0  0  0  0
   37.8010   21.9780   34.7180 N   0  0  0  0  0  0  0  0  0  0  0  0
   41.0499   22.4887   37.7839 H   0  0  0  0  0  0  0  0  0  0  0  0
   39.5223   23.6286   39.4344 H   0  0  0  0  0  0  0  0  0  0  0  0
   37.1124   23.9696   38.7789 H   0  0  0  0  0  0  0  0  0  0  0  0
   36.8196   22.1094   34.4344 H   0  0  0  0  0  0  0  0  0  0  0  0
   38.4650   21.5190   34.0781 H   0  0  0  0  0  0  0  0  0  0  0  0
  1  2  2  0
  3  2  1  0
  4  3  2  0
  5  6  2  0
  5  4  1  0
  6  1  1  0
  7  5  1  0
  1  8  1  0
  2  9  1  0
  3 10  1  0
  7 11  1  0
  7 12  1  0
M  ISO  3   8  14   9  14  10  14
M  END
>  <minimizedAffinity>  (1) 
-2.71362281

>  <minimizedRMSD>  (1) 
0.420584053

$$$$
