
     RDKit          3D

 28 30  0  0  0  0  0  0  0  0999 V2000
   42.1910   23.1560   36.4010 C   0  0  0  0  0  0  0  0  0  0  0  0
   43.5330   23.0940   36.7520 C   0  0  0  0  0  0  0  0  0  0  0  0
   44.4730   24.0160   36.2800 C   0  0  0  0  0  0  0  0  0  0  0  0
   44.0040   25.0130   35.4340 C   0  0  0  0  0  0  0  0  0  0  0  0
   42.6500   25.0220   35.1200 C   0  0  0  0  0  0  0  0  0  0  0  0
   41.7770   24.1290   35.5870 N   0  0  0  0  0  0  0  0  0  0  0  0
   42.2920   26.0890   34.2480 N   0  0  0  0  0  0  0  0  0  0  0  0
   40.9500   26.3310   34.2250 C   0  0  0  0  0  0  0  0  0  0  0  0
   40.7150   27.3890   33.3430 C   0  0  0  0  0  0  0  0  0  0  0  0
   41.9330   27.7490   32.8630 N   0  0  0  0  0  0  0  0  0  0  0  0
   42.8790   26.9540   33.4170 C   0  0  0  0  0  0  0  0  0  0  0  0
   41.3000   22.1290   36.9630 C   0  0  0  0  0  0  0  0  0  0  0  0
   41.8350   21.0910   37.3960 O   0  0  0  0  0  0  0  0  0  0  0  0
   39.8920   22.4290   36.9530 C   0  0  0  0  0  0  0  0  0  0  0  0
   39.4490   23.1040   38.1100 C   0  0  0  0  0  0  0  0  0  0  0  0
   38.0820   23.4280   38.1680 C   0  0  0  0  0  0  0  0  0  0  0  0
   37.2680   23.0870   37.1330 N   0  0  0  0  0  0  0  0  0  0  0  0
   37.7450   22.4440   36.0540 C   0  0  0  0  0  0  0  0  0  0  0  0
   39.0490   22.1200   35.9700 N   0  0  0  0  0  0  0  0  0  0  0  0
   43.8688   22.2914   37.4251 H   0  0  0  0  0  0  0  0  0  0  0  0
   45.5336   23.9545   36.5653 H   0  0  0  0  0  0  0  0  0  0  0  0
   44.6848   25.7737   35.0243 H   0  0  0  0  0  0  0  0  0  0  0  0
   40.1858   25.7880   34.8005 H   0  0  0  0  0  0  0  0  0  0  0  0
   39.7432   27.8379   33.0897 H   0  0  0  0  0  0  0  0  0  0  0  0
   43.9587   27.0116   33.2148 H   0  0  0  0  0  0  0  0  0  0  0  0
   40.1389   23.3640   38.9263 H   0  0  0  0  0  0  0  0  0  0  0  0
   37.6738   23.9534   39.0440 H   0  0  0  0  0  0  0  0  0  0  0  0
   37.0638   22.1799   35.2317 H   0  0  0  0  0  0  0  0  0  0  0  0
  1  2  2  0
  1 12  1  0
  3  2  1  0
  4  3  2  0
  5  4  1  0
  5  6  2  0
  6  1  1  0
  7  5  1  0
  8  7  1  0
  9  8  2  0
 10  9  1  0
 10 11  2  0
 11  7  1  0
 12 13  2  0
 14 12  1  0
 14 15  2  0
 15 16  1  0
 17 16  2  0
 18 17  1  0
 19 18  2  0
 19 14  1  0
  2 20  1  0
  3 21  1  0
  4 22  1  0
  8 23  1  0
  9 24  1  0
 11 25  1  0
 15 26  1  0
 16 27  1  0
 18 28  1  0
M  ISO  8  20  14  21  14  22  14  23  14  24  14  25  14  26  14  27  14
M  ISO  1  28  14
M  END
>  <minimizedAffinity>  (1) 
-4.90150404

>  <minimizedRMSD>  (1) 
0.250563741

$$$$
