
     RDKit          3D

 33 34  0  0  0  0  0  0  0  0999 V2000
   42.0460   23.3100   36.3140 C   0  0  0  0  0  0  0  0  0  0  0  0
   43.3960   23.3440   36.6730 C   0  0  0  0  0  0  0  0  0  0  0  0
   44.2620   24.3040   36.1370 C   0  0  0  0  0  0  0  0  0  0  0  0
   43.7310   25.2160   35.2420 C   0  0  0  0  0  0  0  0  0  0  0  0
   42.3810   25.1250   34.9290 C   0  0  0  0  0  0  0  0  0  0  0  0
   41.5580   24.2050   35.4450 N   0  0  0  0  0  0  0  0  0  0  0  0
   41.8930   26.1460   33.9580 C   0  0  0  0  0  0  0  0  0  0  0  0
   42.9570   27.1730   33.6590 C   0  0  0  0  0  0  0  0  0  0  0  0
   41.4660   25.4770   32.6540 C   0  0  0  0  0  0  0  0  0  0  0  0
   40.6680   26.7980   34.5650 C   0  0  0  0  0  0  0  0  0  0  0  0
   41.2100   22.2560   36.9350 C   0  0  0  0  0  0  0  0  0  0  0  0
   41.8100   21.2610   37.3770 O   0  0  0  0  0  0  0  0  0  0  0  0
   39.7890   22.4940   36.9620 C   0  0  0  0  0  0  0  0  0  0  0  0
   39.3360   23.1500   38.1160 C   0  0  0  0  0  0  0  0  0  0  0  0
   37.9620   23.4160   38.2110 C   0  0  0  0  0  0  0  0  0  0  0  0
   37.1470   23.0340   37.2020 N   0  0  0  0  0  0  0  0  0  0  0  0
   37.6270   22.4080   36.1170 C   0  0  0  0  0  0  0  0  0  0  0  0
   38.9440   22.1430   36.0050 N   0  0  0  0  0  0  0  0  0  0  0  0
   43.7844   22.6043   37.3885 H   0  0  0  0  0  0  0  0  0  0  0  0
   45.3254   24.3325   36.4169 H   0  0  0  0  0  0  0  0  0  0  0  0
   44.3629   25.9943   34.7893 H   0  0  0  0  0  0  0  0  0  0  0  0
   43.3635   27.5653   34.6029 H   0  0  0  0  0  0  0  0  0  0  0  0
   43.7654   26.7050   33.0781 H   0  0  0  0  0  0  0  0  0  0  0  0
   42.5179   27.9974   33.0781 H   0  0  0  0  0  0  0  0  0  0  0  0
   40.8868   24.5695   32.8800 H   0  0  0  0  0  0  0  0  0  0  0  0
   40.8447   26.1729   32.0712 H   0  0  0  0  0  0  0  0  0  0  0  0
   42.3588   25.2065   32.0712 H   0  0  0  0  0  0  0  0  0  0  0  0
   40.7383   26.7606   35.6621 H   0  0  0  0  0  0  0  0  0  0  0  0
   40.6100   27.8463   34.2369 H   0  0  0  0  0  0  0  0  0  0  0  0
   39.7660   26.2606   34.2369 H   0  0  0  0  0  0  0  0  0  0  0  0
   40.0314   23.4445   38.9158 H   0  0  0  0  0  0  0  0  0  0  0  0
   37.5531   23.9284   39.0943 H   0  0  0  0  0  0  0  0  0  0  0  0
   36.9401   22.1084   35.3118 H   0  0  0  0  0  0  0  0  0  0  0  0
  1  2  2  0
  1 11  1  0
  3  2  1  0
  4  3  2  0
  5  4  1  0
  5  6  2  0
  6  1  1  0
  7 10  1  0
  7  5  1  0
  8  7  1  0
  9  7  1  0
 11 13  1  0
 11 12  2  0
 13 14  2  0
 14 15  1  0
 16 15  2  0
 17 16  1  0
 18 17  2  0
 18 13  1  0
  2 19  1  0
  3 20  1  0
  4 21  1  0
  8 22  1  0
  8 23  1  0
  8 24  1  0
  9 25  1  0
  9 26  1  0
  9 27  1  0
 10 28  1  0
 10 29  1  0
 10 30  1  0
 14 31  1  0
 15 32  1  0
 17 33  1  0
M  ISO  8  19  14  20  14  21  14  22   8  23   8  24   8  25   8  26   8
M  ISO  7  27   8  28   8  29   8  30   8  31  14  32  14  33  14
M  END
>  <minimizedAffinity>  (1) 
-4.66794348

>  <minimizedRMSD>  (1) 
0.130596489

$$$$
