
     RDKit          3D

 40 43  0  0  0  0  0  0  0  0999 V2000
   42.2600   23.0160   36.5070 C   0  0  0  0  0  0  0  0  0  0  0  0
   43.6100   22.8530   36.7730 C   0  0  0  0  0  0  0  0  0  0  0  0
   44.5740   23.6900   36.1990 C   0  0  0  0  0  0  0  0  0  0  0  0
   44.1310   24.6830   35.3600 C   0  0  0  0  0  0  0  0  0  0  0  0
   42.7670   24.8030   35.1260 C   0  0  0  0  0  0  0  0  0  0  0  0
   41.8530   23.9930   35.6830 N   0  0  0  0  0  0  0  0  0  0  0  0
   42.3730   25.8750   34.2290 C   0  0  0  0  0  0  0  0  0  0  0  0
   41.0660   26.3410   34.1650 C   0  0  0  0  0  0  0  0  0  0  0  0
   40.6690   27.3460   33.3330 C   0  0  0  0  0  0  0  0  0  0  0  0
   41.6650   27.8820   32.5410 C   0  0  0  0  0  0  0  0  0  0  0  0
   42.9970   27.4540   32.5630 C   0  0  0  0  0  0  0  0  0  0  0  0
   43.2490   26.4680   33.4180 N   0  0  0  0  0  0  0  0  0  0  0  0
   41.3250   22.0770   37.1620 C   0  0  0  0  0  0  0  0  0  0  0  0
   41.8320   21.1030   37.7590 O   0  0  0  0  0  0  0  0  0  0  0  0
   39.9240   22.3760   37.0480 C   0  0  0  0  0  0  0  0  0  0  0  0
   39.4390   23.1830   38.0640 C   0  0  0  0  0  0  0  0  0  0  0  0
   38.0750   23.5170   38.0190 C   0  0  0  0  0  0  0  0  0  0  0  0
   37.3070   23.0540   37.0160 N   0  0  0  0  0  0  0  0  0  0  0  0
   37.8330   22.2670   36.0470 C   0  0  0  0  0  0  0  0  0  0  0  0
   39.1260   21.9350   36.0670 N   0  0  0  0  0  0  0  0  0  0  0  0
   37.1170   21.7210   34.9390 N   0  0  0  0  0  0  0  0  0  0  0  0
   37.4660   21.9070   33.6540 C   0  0  0  0  0  0  0  0  0  0  0  0
   36.6970   21.3280   32.6640 C   0  0  0  0  0  0  0  0  0  0  0  0
   35.5950   20.5790   33.0370 C   0  0  0  0  0  0  0  0  0  0  0  0
   34.9120   20.0640   32.1300 O   0  0  0  0  0  0  0  0  0  0  0  0
   35.2900   20.4250   34.3390 N   0  0  0  0  0  0  0  0  0  0  0  0
   36.0460   20.9930   35.3170 C   0  0  0  0  0  0  0  0  0  0  0  0
   35.6960   20.8030   36.5030 O   0  0  0  0  0  0  0  0  0  0  0  0
   43.9313   22.0480   37.4503 H   0  0  0  0  0  0  0  0  0  0  0  0
   45.6451   23.5575   36.4117 H   0  0  0  0  0  0  0  0  0  0  0  0
   44.8436   25.3711   34.8818 H   0  0  0  0  0  0  0  0  0  0  0  0
   40.3132   25.8759   34.8184 H   0  0  0  0  0  0  0  0  0  0  0  0
   39.6296   27.7040   33.2955 H   0  0  0  0  0  0  0  0  0  0  0  0
   41.3949   28.6949   31.8508 H   0  0  0  0  0  0  0  0  0  0  0  0
   43.7739   27.8983   31.9235 H   0  0  0  0  0  0  0  0  0  0  0  0
   40.0929   23.5463   38.8705 H   0  0  0  0  0  0  0  0  0  0  0  0
   37.6367   24.1546   38.8009 H   0  0  0  0  0  0  0  0  0  0  0  0
   38.3490   22.5101   33.3958 H   0  0  0  0  0  0  0  0  0  0  0  0
   36.9547   21.4593   31.6027 H   0  0  0  0  0  0  0  0  0  0  0  0
   34.4662   19.8648   34.6005 H   0  0  0  0  0  0  0  0  0  0  0  0
  1  2  2  0
  1 13  1  0
  3  2  1  0
  4  3  2  0
  5  4  1  0
  5  6  2  0
  6  1  1  0
  7  5  1  0
  8  7  2  0
  9  8  1  0
 10 11  1  0
 10  9  2  0
 11 12  2  0
 12  7  1  0
 13 14  2  0
 15 13  1  0
 15 16  2  0
 17 16  1  0
 18 17  2  0
 19 20  2  0
 19 18  1  0
 20 15  1  0
 21 27  1  0
 21 19  1  0
 22 21  1  0
 23 24  1  0
 23 22  2  0
 24 26  1  0
 25 24  2  0
 26 27  1  0
 27 28  2  0
  2 29  1  0
  3 30  1  0
  4 31  1  0
  8 32  1  0
  9 33  1  0
 10 34  1  0
 11 35  1  0
 16 36  1  0
 17 37  1  0
 22 38  1  0
 23 39  1  0
 26 40  1  0
M  ISO  8  29  14  30  14  31  14  32  14  33  14  34  14  35  14  36  14
M  ISO  4  37  14  38  14  39  14  40   9
M  END
>  <minimizedAffinity>  (1) 
-6.7247839

>  <minimizedRMSD>  (1) 
0.318465173

$$$$
