
     RDKit          3D

 43 47  0  0  0  0  0  0  0  0999 V2000
   41.2350   22.6220   36.8300 C   0  0  0  0  0  0  0  0  0  0  0  0
   41.5160   21.5220   37.3060 O   0  0  0  0  0  0  0  0  0  0  0  0
   39.9320   23.2390   36.7530 C   0  0  0  0  0  0  0  0  0  0  0  0
   39.1610   23.0710   37.8900 C   0  0  0  0  0  0  0  0  0  0  0  0
   37.8840   23.6360   37.9050 C   0  0  0  0  0  0  0  0  0  0  0  0
   37.4520   24.3200   36.8100 N   0  0  0  0  0  0  0  0  0  0  0  0
   38.2560   24.4530   35.7170 C   0  0  0  0  0  0  0  0  0  0  0  0
   39.4700   23.9120   35.7150 N   0  0  0  0  0  0  0  0  0  0  0  0
   37.7490   25.1810   34.6020 N   0  0  0  0  0  0  0  0  0  0  0  0
   37.5260   26.5290   34.6220 C   0  0  0  0  0  0  0  0  0  0  0  0
   37.0420   26.9190   33.4050 N   0  0  0  0  0  0  0  0  0  0  0  0
   36.9760   25.8120   32.6610 C   0  0  0  0  0  0  0  0  0  0  0  0
   36.5940   25.4770   31.3820 C   0  0  0  0  0  0  0  0  0  0  0  0
   36.6270   24.2350   30.8630 N   0  0  0  0  0  0  0  0  0  0  0  0
   37.0640   23.2130   31.6300 C   0  0  0  0  0  0  0  0  0  0  0  0
   37.4520   23.4640   32.8840 N   0  0  0  0  0  0  0  0  0  0  0  0
   37.4060   24.7080   33.3660 C   0  0  0  0  0  0  0  0  0  0  0  0
   36.1230   26.4850   30.5070 N   0  0  0  0  0  0  0  0  0  0  0  0
   42.3600   23.4150   36.2680 C   0  0  0  0  0  0  0  0  0  0  0  0
   43.6490   23.1000   36.7260 C   0  0  0  0  0  0  0  0  0  0  0  0
   44.7670   23.7840   36.2600 C   0  0  0  0  0  0  0  0  0  0  0  0
   44.5750   24.7780   35.3380 C   0  0  0  0  0  0  0  0  0  0  0  0
   43.2800   25.0490   34.9180 C   0  0  0  0  0  0  0  0  0  0  0  0
   42.1930   24.3910   35.3640 N   0  0  0  0  0  0  0  0  0  0  0  0
   43.1320   26.1230   33.9290 C   0  0  0  0  0  0  0  0  0  0  0  0
   41.9330   26.7350   33.6750 C   0  0  0  0  0  0  0  0  0  0  0  0
   41.7760   27.7390   32.7540 C   0  0  0  0  0  0  0  0  0  0  0  0
   42.9350   28.0990   32.0870 C   0  0  0  0  0  0  0  0  0  0  0  0
   44.1780   27.5120   32.3060 C   0  0  0  0  0  0  0  0  0  0  0  0
   44.1810   26.5520   33.2270 N   0  0  0  0  0  0  0  0  0  0  0  0
   39.5425   22.5095   38.7556 H   0  0  0  0  0  0  0  0  0  0  0  0
   37.2369   23.5300   38.7882 H   0  0  0  0  0  0  0  0  0  0  0  0
   37.7070   27.1934   35.4798 H   0  0  0  0  0  0  0  0  0  0  0  0
   37.1000   22.1895   31.2287 H   0  0  0  0  0  0  0  0  0  0  0  0
   35.8354   26.2416   29.5484 H   0  0  0  0  0  0  0  0  0  0  0  0
   36.0679   27.4619   30.8289 H   0  0  0  0  0  0  0  0  0  0  0  0
   43.7774   22.2974   37.4672 H   0  0  0  0  0  0  0  0  0  0  0  0
   45.7754   23.5338   36.6214 H   0  0  0  0  0  0  0  0  0  0  0  0
   45.4270   25.3484   34.9395 H   0  0  0  0  0  0  0  0  0  0  0  0
   41.0492   26.4035   34.2398 H   0  0  0  0  0  0  0  0  0  0  0  0
   40.8060   28.2203   32.5604 H   0  0  0  0  0  0  0  0  0  0  0  0
   42.8691   28.9001   31.3361 H   0  0  0  0  0  0  0  0  0  0  0  0
   45.0840   27.8171   31.7619 H   0  0  0  0  0  0  0  0  0  0  0  0
  1  2  2  0
  3  1  1  0
  3  4  2  0
  4  5  1  0
  6  5  2  0
  7  6  1  0
  8  7  2  0
  8  3  1  0
  9 10  1  0
  9  7  1  0
 11 10  2  0
 12 17  2  0
 12 11  1  0
 13 12  1  0
 14 13  2  0
 14 15  1  0
 15 16  2  0
 16 17  1  0
 17  9  1  0
 18 13  1  0
 19 20  2  0
 19  1  1  0
 21 20  1  0
 22 21  2  0
 23 22  1  0
 23 24  2  0
 24 19  1  0
 25 23  1  0
 26 25  2  0
 27 26  1  0
 28 29  1  0
 28 27  2  0
 29 30  2  0
 30 25  1  0
  4 31  1  0
  5 32  1  0
 10 33  1  0
 15 34  1  0
 18 35  1  0
 18 36  1  0
 20 37  1  0
 21 38  1  0
 22 39  1  0
 26 40  1  0
 27 41  1  0
 28 42  1  0
 29 43  1  0
M  ISO  8  31  14  32  14  33  14  34  14  37  14  38  14  39  14  40  14
M  ISO  3  41  14  42  14  43  14
M  END
>  <minimizedAffinity>  (1) 
-6.64990234

>  <minimizedRMSD>  (1) 
2.98605084

$$$$
