
     RDKit          3D

 44 48  0  0  0  0  0  0  0  0999 V2000
   41.3880   22.2380   36.9220 C   0  0  0  0  0  0  0  0  0  0  0  0
   41.7980   21.2290   37.5210 O   0  0  0  0  0  0  0  0  0  0  0  0
   42.4190   23.1320   36.3590 C   0  0  0  0  0  0  0  0  0  0  0  0
   43.7430   22.9260   36.7410 C   0  0  0  0  0  0  0  0  0  0  0  0
   44.7820   23.7140   36.2680 C   0  0  0  0  0  0  0  0  0  0  0  0
   44.4530   24.7200   35.3950 C   0  0  0  0  0  0  0  0  0  0  0  0
   43.1360   24.8940   35.0400 C   0  0  0  0  0  0  0  0  0  0  0  0
   42.1310   24.1380   35.4930 N   0  0  0  0  0  0  0  0  0  0  0  0
   42.8480   25.9860   34.1030 C   0  0  0  0  0  0  0  0  0  0  0  0
   41.6120   26.5630   33.9780 C   0  0  0  0  0  0  0  0  0  0  0  0
   41.3340   27.5780   33.1090 C   0  0  0  0  0  0  0  0  0  0  0  0
   42.4080   27.9950   32.3460 C   0  0  0  0  0  0  0  0  0  0  0  0
   43.6890   27.4520   32.4240 C   0  0  0  0  0  0  0  0  0  0  0  0
   43.8170   26.4700   33.3120 N   0  0  0  0  0  0  0  0  0  0  0  0
   40.0140   22.6280   36.7180 C   0  0  0  0  0  0  0  0  0  0  0  0
   39.3200   22.9590   37.8600 C   0  0  0  0  0  0  0  0  0  0  0  0
   37.9870   23.3350   37.6800 C   0  0  0  0  0  0  0  0  0  0  0  0
   37.4450   23.3630   36.4600 N   0  0  0  0  0  0  0  0  0  0  0  0
   38.1490   23.0350   35.3630 C   0  0  0  0  0  0  0  0  0  0  0  0
   39.4030   22.6830   35.5650 N   0  0  0  0  0  0  0  0  0  0  0  0
   37.7830   22.9880   33.9440 C   0  0  0  0  0  0  0  0  0  0  0  0
   38.2500   23.8620   33.0060 N   0  0  0  0  0  0  0  0  0  0  0  0
   37.9200   23.8230   31.7150 C   0  0  0  0  0  0  0  0  0  0  0  0
   37.0860   22.9040   31.2220 N   0  0  0  0  0  0  0  0  0  0  0  0
   36.5660   21.9880   32.0720 C   0  0  0  0  0  0  0  0  0  0  0  0
   35.7090   21.0490   31.5530 C   0  0  0  0  0  0  0  0  0  0  0  0
   35.1530   20.0960   32.3760 C   0  0  0  0  0  0  0  0  0  0  0  0
   35.4970   20.1350   33.7290 C   0  0  0  0  0  0  0  0  0  0  0  0
   36.3630   21.1060   34.1800 C   0  0  0  0  0  0  0  0  0  0  0  0
   36.9320   22.0640   33.3940 C   0  0  0  0  0  0  0  0  0  0  0  0
   43.9724   22.1100   37.4421 H   0  0  0  0  0  0  0  0  0  0  0  0
   45.8228   23.5402   36.5788 H   0  0  0  0  0  0  0  0  0  0  0  0
   45.2325   25.3787   34.9845 H   0  0  0  0  0  0  0  0  0  0  0  0
   40.7972   26.1869   34.6141 H   0  0  0  0  0  0  0  0  0  0  0  0
   40.3342   28.0285   33.0228 H   0  0  0  0  0  0  0  0  0  0  0  0
   42.2403   28.8113   31.6280 H   0  0  0  0  0  0  0  0  0  0  0  0
   44.5249   27.8061   31.8028 H   0  0  0  0  0  0  0  0  0  0  0  0
   39.7876   22.9291   38.8552 H   0  0  0  0  0  0  0  0  0  0  0  0
   37.3770   23.6111   38.5528 H   0  0  0  0  0  0  0  0  0  0  0  0
   38.3488   24.5724   31.0335 H   0  0  0  0  0  0  0  0  0  0  0  0
   35.4669   21.0584   30.4800 H   0  0  0  0  0  0  0  0  0  0  0  0
   34.4645   19.3333   31.9833 H   0  0  0  0  0  0  0  0  0  0  0  0
   35.0795   19.3960   34.4287 H   0  0  0  0  0  0  0  0  0  0  0  0
   36.6137   21.1091   35.2510 H   0  0  0  0  0  0  0  0  0  0  0  0
  1  2  2  0
  3  4  2  0
  3  1  1  0
  5  4  1  0
  6  5  2  0
  7  6  1  0
  7  8  2  0
  8  3  1  0
  9  7  1  0
 10  9  2  0
 11 10  1  0
 12 13  1  0
 12 11  2  0
 13 14  2  0
 14  9  1  0
 15  1  1  0
 15 16  2  0
 17 16  1  0
 18 17  2  0
 19 20  2  0
 19 18  1  0
 20 15  1  0
 21 19  1  0
 22 21  2  0
 23 22  1  0
 24 23  2  0
 24 25  1  0
 25 30  2  0
 26 25  1  0
 26 27  2  0
 27 28  1  0
 28 29  2  0
 30 21  1  0
 30 29  1  0
  4 31  1  0
  5 32  1  0
  6 33  1  0
 10 34  1  0
 11 35  1  0
 12 36  1  0
 13 37  1  0
 16 38  1  0
 17 39  1  0
 23 40  1  0
 26 41  1  0
 27 42  1  0
 28 43  1  0
 29 44  1  0
M  ISO  8  31  14  32  14  33  14  34  14  35  14  36  14  37  14  38  14
M  ISO  6  39  14  40  14  41  14  42  14  43  14  44  14
M  END
>  <minimizedAffinity>  (1) 
-6.38330793

>  <minimizedRMSD>  (1) 
1.30551422

$$$$
