
     RDKit          3D

 37 40  0  0  0  0  0  0  0  0999 V2000
   42.2560   22.9960   36.5030 C   0  0  0  0  0  0  0  0  0  0  0  0
   43.6220   22.8370   36.7850 C   0  0  0  0  0  0  0  0  0  0  0  0
   44.5720   23.6840   36.2360 C   0  0  0  0  0  0  0  0  0  0  0  0
   44.1290   24.6810   35.4100 C   0  0  0  0  0  0  0  0  0  0  0  0
   42.7850   24.7990   35.1630 C   0  0  0  0  0  0  0  0  0  0  0  0
   41.8480   23.9840   35.6890 N   0  0  0  0  0  0  0  0  0  0  0  0
   42.3510   25.8820   34.2660 C   0  0  0  0  0  0  0  0  0  0  0  0
   41.0620   26.3400   34.1910 C   0  0  0  0  0  0  0  0  0  0  0  0
   40.6710   27.3360   33.3610 C   0  0  0  0  0  0  0  0  0  0  0  0
   41.6710   27.8720   32.5770 C   0  0  0  0  0  0  0  0  0  0  0  0
   42.9970   27.4590   32.5990 C   0  0  0  0  0  0  0  0  0  0  0  0
   43.2540   26.4720   33.4590 N   0  0  0  0  0  0  0  0  0  0  0  0
   41.3220   22.0340   37.1460 C   0  0  0  0  0  0  0  0  0  0  0  0
   41.8250   21.0730   37.7400 O   0  0  0  0  0  0  0  0  0  0  0  0
   39.9300   22.3270   37.0090 C   0  0  0  0  0  0  0  0  0  0  0  0
   39.4120   23.1630   38.0130 C   0  0  0  0  0  0  0  0  0  0  0  0
   38.0540   23.5050   37.9620 C   0  0  0  0  0  0  0  0  0  0  0  0
   37.2930   23.0140   36.9440 N   0  0  0  0  0  0  0  0  0  0  0  0
   37.8450   22.2150   36.0080 C   0  0  0  0  0  0  0  0  0  0  0  0
   39.1420   21.8840   36.0510 N   0  0  0  0  0  0  0  0  0  0  0  0
   37.0390   21.7100   34.9510 N   0  0  0  0  0  0  0  0  0  0  0  0
   37.1530   21.9760   33.6450 C   0  0  0  0  0  0  0  0  0  0  0  0
   36.2030   21.3170   32.8850 C   0  0  0  0  0  0  0  0  0  0  0  0
   35.4880   20.6230   33.7910 N   0  0  0  0  0  0  0  0  0  0  0  0
   35.9940   20.8630   35.0360 C   0  0  0  0  0  0  0  0  0  0  0  0
   43.9443   22.0254   37.4539 H   0  0  0  0  0  0  0  0  0  0  0  0
   45.6425   23.5593   36.4562 H   0  0  0  0  0  0  0  0  0  0  0  0
   44.8427   25.3799   34.9493 H   0  0  0  0  0  0  0  0  0  0  0  0
   40.3049   25.8742   34.8390 H   0  0  0  0  0  0  0  0  0  0  0  0
   39.6311   27.6918   33.3154 H   0  0  0  0  0  0  0  0  0  0  0  0
   41.3995   28.6835   31.8858 H   0  0  0  0  0  0  0  0  0  0  0  0
   43.7713   27.9086   31.9600 H   0  0  0  0  0  0  0  0  0  0  0  0
   40.0575   23.5400   38.8200 H   0  0  0  0  0  0  0  0  0  0  0  0
   37.6109   24.1572   38.7290 H   0  0  0  0  0  0  0  0  0  0  0  0
   37.9173   22.6446   33.2221 H   0  0  0  0  0  0  0  0  0  0  0  0
   36.0640   21.3518   31.7944 H   0  0  0  0  0  0  0  0  0  0  0  0
   35.6065   20.4295   35.9698 H   0  0  0  0  0  0  0  0  0  0  0  0
  1  2  2  0
  1 13  1  0
  3  2  1  0
  4  3  2  0
  5  4  1  0
  5  6  2  0
  6  1  1  0
  7  5  1  0
  8  7  2  0
  9  8  1  0
 10 11  1  0
 10  9  2  0
 11 12  2  0
 12  7  1  0
 13 14  2  0
 15 13  1  0
 15 16  2  0
 17 16  1  0
 18 17  2  0
 19 20  2  0
 19 18  1  0
 20 15  1  0
 21 25  1  0
 21 19  1  0
 22 21  1  0
 23 22  2  0
 23 24  1  0
 24 25  2  0
  2 26  1  0
  3 27  1  0
  4 28  1  0
  8 29  1  0
  9 30  1  0
 10 31  1  0
 11 32  1  0
 16 33  1  0
 17 34  1  0
 22 35  1  0
 23 36  1  0
 25 37  1  0
M  ISO  8  26  14  27  14  28  14  29  14  30  14  31  14  32  14  33  14
M  ISO  4  34  14  35  14  36  14  37  14
M  END
>  <minimizedAffinity>  (1) 
-5.75984669

>  <minimizedRMSD>  (1) 
0.309469342

$$$$
