
     RDKit          3D

 38 41  0  0  0  0  0  0  0  0999 V2000
   42.3200   23.0240   36.5100 C   0  0  0  0  0  0  0  0  0  0  0  0
   43.6710   22.8930   36.8190 C   0  0  0  0  0  0  0  0  0  0  0  0
   44.6220   23.7450   36.2850 C   0  0  0  0  0  0  0  0  0  0  0  0
   44.2020   24.7280   35.4380 C   0  0  0  0  0  0  0  0  0  0  0  0
   42.8450   24.8310   35.1510 C   0  0  0  0  0  0  0  0  0  0  0  0
   41.9260   23.9990   35.6730 N   0  0  0  0  0  0  0  0  0  0  0  0
   42.4480   25.8960   34.2410 C   0  0  0  0  0  0  0  0  0  0  0  0
   41.1610   26.3780   34.1780 C   0  0  0  0  0  0  0  0  0  0  0  0
   40.7680   27.3760   33.3330 C   0  0  0  0  0  0  0  0  0  0  0  0
   41.7740   27.8850   32.5250 C   0  0  0  0  0  0  0  0  0  0  0  0
   43.0950   27.4370   32.5450 C   0  0  0  0  0  0  0  0  0  0  0  0
   43.3320   26.4620   33.4150 N   0  0  0  0  0  0  0  0  0  0  0  0
   41.3740   22.0680   37.1280 C   0  0  0  0  0  0  0  0  0  0  0  0
   41.8730   21.0900   37.7110 O   0  0  0  0  0  0  0  0  0  0  0  0
   39.9760   22.3660   36.9930 C   0  0  0  0  0  0  0  0  0  0  0  0
   39.4440   23.1040   38.0600 C   0  0  0  0  0  0  0  0  0  0  0  0
   38.0790   23.4260   37.9830 C   0  0  0  0  0  0  0  0  0  0  0  0
   37.3430   23.0250   36.9110 N   0  0  0  0  0  0  0  0  0  0  0  0
   37.9230   22.3180   35.9250 C   0  0  0  0  0  0  0  0  0  0  0  0
   39.2160   22.0020   35.9770 N   0  0  0  0  0  0  0  0  0  0  0  0
   37.1710   21.8680   34.7590 C   0  0  0  0  0  0  0  0  0  0  0  0
   36.1560   20.9280   34.8320 C   0  0  0  0  0  0  0  0  0  0  0  0
   35.4420   20.5050   33.7190 C   0  0  0  0  0  0  0  0  0  0  0  0
   35.7480   21.0280   32.5190 N   0  0  0  0  0  0  0  0  0  0  0  0
   36.7290   21.9430   32.4160 C   0  0  0  0  0  0  0  0  0  0  0  0
   37.4000   22.3310   33.5160 N   0  0  0  0  0  0  0  0  0  0  0  0
   43.9902   22.0935   37.5037 H   0  0  0  0  0  0  0  0  0  0  0  0
   45.6869   23.6325   36.5367 H   0  0  0  0  0  0  0  0  0  0  0  0
   44.9236   25.4269   34.9898 H   0  0  0  0  0  0  0  0  0  0  0  0
   40.4069   25.9350   34.8452 H   0  0  0  0  0  0  0  0  0  0  0  0
   39.7334   27.7477   33.2959 H   0  0  0  0  0  0  0  0  0  0  0  0
   41.5139   28.6924   31.8247 H   0  0  0  0  0  0  0  0  0  0  0  0
   43.8759   27.8567   31.8939 H   0  0  0  0  0  0  0  0  0  0  0  0
   40.0640   23.4149   38.9138 H   0  0  0  0  0  0  0  0  0  0  0  0
   37.6044   24.0031   38.7903 H   0  0  0  0  0  0  0  0  0  0  0  0
   35.9052   20.4986   35.8132 H   0  0  0  0  0  0  0  0  0  0  0  0
   34.6417   19.7567   33.8171 H   0  0  0  0  0  0  0  0  0  0  0  0
   36.9818   22.3727   31.4355 H   0  0  0  0  0  0  0  0  0  0  0  0
  1  2  2  0
  1 13  1  0
  3  2  1  0
  4  3  2  0
  5  4  1  0
  5  6  2  0
  6  1  1  0
  7  5  1  0
  8  7  2  0
  9  8  1  0
 10 11  1  0
 10  9  2  0
 11 12  2  0
 12  7  1  0
 13 14  2  0
 15 13  1  0
 15 16  2  0
 17 16  1  0
 18 17  2  0
 19 20  2  0
 19 18  1  0
 20 15  1  0
 21 22  2  0
 21 19  1  0
 23 22  1  0
 24 23  2  0
 25 24  1  0
 25 26  2  0
 26 21  1  0
  2 27  1  0
  3 28  1  0
  4 29  1  0
  8 30  1  0
  9 31  1  0
 10 32  1  0
 11 33  1  0
 16 34  1  0
 17 35  1  0
 22 36  1  0
 23 37  1  0
 25 38  1  0
M  ISO  8  27  14  28  14  29  14  30  14  31  14  32  14  33  14  34  14
M  ISO  4  35  14  36  14  37  14  38  14
M  END
>  <minimizedAffinity>  (1) 
-5.72394753

>  <minimizedRMSD>  (1) 
0.233795688

$$$$
