
     RDKit          3D

 37 40  0  0  0  0  0  0  0  0999 V2000
   42.3550   23.0450   36.4950 C   0  0  0  0  0  0  0  0  0  0  0  0
   43.7090   22.9250   36.8230 C   0  0  0  0  0  0  0  0  0  0  0  0
   44.6630   23.7840   36.2990 C   0  0  0  0  0  0  0  0  0  0  0  0
   44.2360   24.7670   35.4410 C   0  0  0  0  0  0  0  0  0  0  0  0
   42.8820   24.8510   35.1430 C   0  0  0  0  0  0  0  0  0  0  0  0
   41.9580   24.0190   35.6500 N   0  0  0  0  0  0  0  0  0  0  0  0
   42.4780   25.9130   34.2260 C   0  0  0  0  0  0  0  0  0  0  0  0
   41.1940   26.4070   34.1570 C   0  0  0  0  0  0  0  0  0  0  0  0
   40.8030   27.3970   33.3080 C   0  0  0  0  0  0  0  0  0  0  0  0
   41.8070   27.8890   32.4920 C   0  0  0  0  0  0  0  0  0  0  0  0
   43.1350   27.4270   32.5130 C   0  0  0  0  0  0  0  0  0  0  0  0
   43.3640   26.4600   33.3940 N   0  0  0  0  0  0  0  0  0  0  0  0
   41.4200   22.0790   37.1070 C   0  0  0  0  0  0  0  0  0  0  0  0
   41.9260   21.1260   37.7220 O   0  0  0  0  0  0  0  0  0  0  0  0
   40.0160   22.3450   36.9260 C   0  0  0  0  0  0  0  0  0  0  0  0
   39.4180   23.0410   37.9630 C   0  0  0  0  0  0  0  0  0  0  0  0
   38.0530   23.3420   37.8680 C   0  0  0  0  0  0  0  0  0  0  0  0
   37.3720   22.9390   36.7630 N   0  0  0  0  0  0  0  0  0  0  0  0
   38.0120   22.2630   35.7860 C   0  0  0  0  0  0  0  0  0  0  0  0
   39.3080   21.9720   35.8650 N   0  0  0  0  0  0  0  0  0  0  0  0
   37.2060   21.8530   34.6080 C   0  0  0  0  0  0  0  0  0  0  0  0
   36.1310   20.9020   34.7920 C   0  0  0  0  0  0  0  0  0  0  0  0
   35.4130   20.5500   33.6820 C   0  0  0  0  0  0  0  0  0  0  0  0
   35.7300   21.1140   32.3930 C   0  0  0  0  0  0  0  0  0  0  0  0
   37.1870   22.2390   32.8630 S   0  0  0  0  0  0  0  0  0  0  0  0
   44.0251   22.1295   37.5138 H   0  0  0  0  0  0  0  0  0  0  0  0
   45.7262   23.6813   36.5619 H   0  0  0  0  0  0  0  0  0  0  0  0
   44.9524   25.4745   34.9981 H   0  0  0  0  0  0  0  0  0  0  0  0
   40.4380   25.9751   34.8292 H   0  0  0  0  0  0  0  0  0  0  0  0
   39.7709   27.7759   33.2733 H   0  0  0  0  0  0  0  0  0  0  0  0
   41.5503   28.6905   31.7837 H   0  0  0  0  0  0  0  0  0  0  0  0
   43.9180   27.8323   31.8553 H   0  0  0  0  0  0  0  0  0  0  0  0
   40.0019   23.3508   38.8422 H   0  0  0  0  0  0  0  0  0  0  0  0
   37.5427   23.8934   38.6715 H   0  0  0  0  0  0  0  0  0  0  0  0
   35.9011   20.4803   35.7816 H   0  0  0  0  0  0  0  0  0  0  0  0
   34.5863   19.8302   33.7734 H   0  0  0  0  0  0  0  0  0  0  0  0
   35.2603   20.9414   31.4134 H   0  0  0  0  0  0  0  0  0  0  0  0
  1  2  2  0
  1 13  1  0
  3  2  1  0
  4  3  2  0
  5  4  1  0
  5  6  2  0
  6  1  1  0
  7  5  1  0
  8  7  2  0
  9  8  1  0
 10 11  1  0
 10  9  2  0
 11 12  2  0
 12  7  1  0
 13 14  2  0
 15 13  1  0
 15 16  2  0
 17 16  1  0
 18 17  2  0
 19 20  2  0
 19 18  1  0
 20 15  1  0
 21 22  2  0
 21 19  1  0
 23 22  1  0
 24 25  1  0
 24 23  2  0
 25 21  1  0
  2 26  1  0
  3 27  1  0
  4 28  1  0
  8 29  1  0
  9 30  1  0
 10 31  1  0
 11 32  1  0
 16 33  1  0
 17 34  1  0
 22 35  1  0
 23 36  1  0
 24 37  1  0
M  ISO  8  26  14  27  14  28  14  29  14  30  14  31  14  32  14  33  14
M  ISO  4  34  14  35  14  36  14  37  14
M  END
>  <minimizedAffinity>  (1) 
-5.63712168

>  <minimizedRMSD>  (1) 
0.372394621

$$$$
