
     RDKit          3D

 44 48  0  0  0  0  0  0  0  0999 V2000
   40.1580   25.7350   34.5700 C   0  0  0  0  0  0  0  0  0  0  0  0
   38.8020   22.6630   36.2130 C   0  0  0  0  0  0  0  0  0  0  0  0
   38.2090   22.0160   35.1210 C   0  0  0  0  0  0  0  0  0  0  0  0
   38.2760   22.6200   33.8690 C   0  0  0  0  0  0  0  0  0  0  0  0
   38.9120   23.8100   33.7470 N   0  0  0  0  0  0  0  0  0  0  0  0
   39.4810   24.4140   34.8400 C   0  0  0  0  0  0  0  0  0  0  0  0
   39.4270   23.8510   36.0480 N   0  0  0  0  0  0  0  0  0  0  0  0
   37.6690   21.9480   32.7780 N   0  0  0  0  0  0  0  0  0  0  0  0
   36.5360   22.4200   32.1860 C   0  0  0  0  0  0  0  0  0  0  0  0
   36.1570   21.5990   31.1690 N   0  0  0  0  0  0  0  0  0  0  0  0
   37.0450   20.6010   31.1090 C   0  0  0  0  0  0  0  0  0  0  0  0
   37.2350   19.4710   30.3300 C   0  0  0  0  0  0  0  0  0  0  0  0
   38.2850   18.6550   30.5640 N   0  0  0  0  0  0  0  0  0  0  0  0
   39.1740   18.9100   31.5520 C   0  0  0  0  0  0  0  0  0  0  0  0
   39.0270   20.0060   32.3400 N   0  0  0  0  0  0  0  0  0  0  0  0
   37.9840   20.8180   32.1090 C   0  0  0  0  0  0  0  0  0  0  0  0
   36.3020   19.1990   29.2890 N   0  0  0  0  0  0  0  0  0  0  0  0
   39.3910   26.8440   35.2670 C   0  0  0  0  0  0  0  0  0  0  0  0
   38.3050   27.3890   34.3960 C   0  0  0  0  0  0  0  0  0  0  0  0
   37.1180   27.8370   34.9500 C   0  0  0  0  0  0  0  0  0  0  0  0
   36.0570   28.3580   34.2170 C   0  0  0  0  0  0  0  0  0  0  0  0
   36.2230   28.4210   32.8650 N   0  0  0  0  0  0  0  0  0  0  0  0
   37.3840   27.9850   32.3070 C   0  0  0  0  0  0  0  0  0  0  0  0
   38.3720   27.4900   33.0820 N   0  0  0  0  0  0  0  0  0  0  0  0
   37.5900   28.0380   30.8750 C   0  0  0  0  0  0  0  0  0  0  0  0
   38.8750   27.8840   30.3400 C   0  0  0  0  0  0  0  0  0  0  0  0
   38.7630   27.9820   28.9410 C   0  0  0  0  0  0  0  0  0  0  0  0
   37.4400   28.1890   28.6850 N   0  0  0  0  0  0  0  0  0  0  0  0
   36.7400   28.2230   29.8240 N   0  0  0  0  0  0  0  0  0  0  0  0
   41.1888   25.7045   34.9528 H   0  0  0  0  0  0  0  0  0  0  0  0
   40.1766   25.9247   33.4866 H   0  0  0  0  0  0  0  0  0  0  0  0
   38.7590   22.2019   37.2108 H   0  0  0  0  0  0  0  0  0  0  0  0
   37.7003   21.0493   35.2507 H   0  0  0  0  0  0  0  0  0  0  0  0
   36.0037   23.3343   32.4872 H   0  0  0  0  0  0  0  0  0  0  0  0
   40.0196   18.2262   31.7175 H   0  0  0  0  0  0  0  0  0  0  0  0
   35.5085   19.8360   29.1292 H   0  0  0  0  0  0  0  0  0  0  0  0
   36.4207   18.3653   28.6959 H   0  0  0  0  0  0  0  0  0  0  0  0
   38.9434   26.4444   36.1889 H   0  0  0  0  0  0  0  0  0  0  0  0
   40.0932   27.6595   35.4947 H   0  0  0  0  0  0  0  0  0  0  0  0
   37.0066   27.7769   36.0427 H   0  0  0  0  0  0  0  0  0  0  0  0
   35.1318   28.7015   34.7028 H   0  0  0  0  0  0  0  0  0  0  0  0
   39.8015   27.7171   30.9090 H   0  0  0  0  0  0  0  0  0  0  0  0
   39.5765   27.9070   28.2044 H   0  0  0  0  0  0  0  0  0  0  0  0
   37.0356   28.3034   27.7446 H   0  0  0  0  0  0  0  0  0  0  0  0
  1  6  1  0
  1 18  1  0
  3  2  2  0
  4  3  1  0
  5  4  2  0
  5  6  1  0
  6  7  2  0
  7  2  1  0
  8  4  1  0
  9  8  1  0
 10  9  2  0
 11 10  1  0
 11 16  2  0
 12 13  2  0
 12 11  1  0
 13 14  1  0
 14 15  2  0
 16 15  1  0
 16  8  1  0
 17 12  1  0
 19 20  2  0
 19 18  1  0
 21 20  1  0
 22 21  2  0
 23 22  1  0
 23 24  2  0
 24 19  1  0
 25 23  1  0
 26 25  1  0
 27 26  2  0
 28 27  1  0
 28 29  1  0
 29 25  2  0
  1 30  1  0
  1 31  1  0
  2 32  1  0
  3 33  1  0
  9 34  1  0
 14 35  1  0
 17 36  1  0
 17 37  1  0
 18 38  1  0
 18 39  1  0
 20 40  1  0
 21 41  1  0
 26 42  1  0
 27 43  1  0
 28 44  1  0
M  ISO  8  30   8  31   8  32  14  33  14  34  14  35  14  38   8  39   8
M  ISO  5  40  14  41  14  42  14  43  14  44   9
M  END
>  <minimizedAffinity>  (1) 
-5.82830763

>  <minimizedRMSD>  (1) 
6.33855247

$$$$
