
     RDKit          3D

 43 46  0  0  0  0  0  0  0  0999 V2000
   42.2760   23.0060   36.4900 C   0  0  0  0  0  0  0  0  0  0  0  0
   43.6300   22.8470   36.7840 C   0  0  0  0  0  0  0  0  0  0  0  0
   44.5940   23.6830   36.2450 C   0  0  0  0  0  0  0  0  0  0  0  0
   44.1710   24.6820   35.4040 C   0  0  0  0  0  0  0  0  0  0  0  0
   42.8160   24.8030   35.1400 C   0  0  0  0  0  0  0  0  0  0  0  0
   41.8840   23.9920   35.6640 N   0  0  0  0  0  0  0  0  0  0  0  0
   42.4200   25.8850   34.2390 C   0  0  0  0  0  0  0  0  0  0  0  0
   41.1230   26.3710   34.1770 C   0  0  0  0  0  0  0  0  0  0  0  0
   40.7590   27.3780   33.3360 C   0  0  0  0  0  0  0  0  0  0  0  0
   41.7510   27.8900   32.5440 C   0  0  0  0  0  0  0  0  0  0  0  0
   43.0650   27.4440   32.5640 C   0  0  0  0  0  0  0  0  0  0  0  0
   43.3200   26.4520   33.4240 N   0  0  0  0  0  0  0  0  0  0  0  0
   41.3240   22.0460   37.1280 C   0  0  0  0  0  0  0  0  0  0  0  0
   41.8170   21.0620   37.6950 O   0  0  0  0  0  0  0  0  0  0  0  0
   39.9360   22.3730   37.0150 C   0  0  0  0  0  0  0  0  0  0  0  0
   39.4210   23.0930   38.0900 C   0  0  0  0  0  0  0  0  0  0  0  0
   38.0640   23.4600   38.0680 C   0  0  0  0  0  0  0  0  0  0  0  0
   37.3180   23.1000   37.0110 N   0  0  0  0  0  0  0  0  0  0  0  0
   37.8530   22.3990   35.9830 C   0  0  0  0  0  0  0  0  0  0  0  0
   39.1520   22.0490   36.0050 N   0  0  0  0  0  0  0  0  0  0  0  0
   36.9790   22.0280   34.8360 C   0  0  0  0  0  0  0  0  0  0  0  0
   36.0920   20.8490   35.1810 C   0  0  0  0  0  0  0  0  0  0  0  0
   35.5420   20.5000   33.8040 C   0  0  0  0  0  0  0  0  0  0  0  0
   36.7580   20.6390   32.8940 C   0  0  0  0  0  0  0  0  0  0  0  0
   37.7260   21.5570   33.6300 C   0  0  0  0  0  0  0  0  0  0  0  0
   43.9402   22.0374   37.4609 H   0  0  0  0  0  0  0  0  0  0  0  0
   45.6600   23.5511   36.4823 H   0  0  0  0  0  0  0  0  0  0  0  0
   44.8944   25.3739   34.9479 H   0  0  0  0  0  0  0  0  0  0  0  0
   40.3593   25.9263   34.8319 H   0  0  0  0  0  0  0  0  0  0  0  0
   39.7275   27.7580   33.2954 H   0  0  0  0  0  0  0  0  0  0  0  0
   41.4913   28.7033   31.8504 H   0  0  0  0  0  0  0  0  0  0  0  0
   43.8428   27.8764   31.9174 H   0  0  0  0  0  0  0  0  0  0  0  0
   40.0631   23.3691   38.9394 H   0  0  0  0  0  0  0  0  0  0  0  0
   37.6227   24.0299   38.8989 H   0  0  0  0  0  0  0  0  0  0  0  0
   36.4276   22.9563   34.6257 H   0  0  0  0  0  0  0  0  0  0  0  0
   36.6708   20.0175   35.6094 H   0  0  0  0  0  0  0  0  0  0  0  0
   35.3245   21.0606   35.9400 H   0  0  0  0  0  0  0  0  0  0  0  0
   35.1512   19.4719   33.7849 H   0  0  0  0  0  0  0  0  0  0  0  0
   34.7022   21.1425   33.5008 H   0  0  0  0  0  0  0  0  0  0  0  0
   36.4666   21.0832   31.9308 H   0  0  0  0  0  0  0  0  0  0  0  0
   37.2138   19.6619   32.6761 H   0  0  0  0  0  0  0  0  0  0  0  0
   38.6301   21.0055   33.9273 H   0  0  0  0  0  0  0  0  0  0  0  0
   38.0585   22.3946   32.9992 H   0  0  0  0  0  0  0  0  0  0  0  0
  1  2  2  0
  1 13  1  0
  3  2  1  0
  4  3  2  0
  5  4  1  0
  5  6  2  0
  6  1  1  0
  7  5  1  0
  8  7  2  0
  9  8  1  0
 10 11  1  0
 10  9  2  0
 11 12  2  0
 12  7  1  0
 13 14  2  0
 15 13  1  0
 15 16  2  0
 17 16  1  0
 18 17  2  0
 19 20  2  0
 19 18  1  0
 20 15  1  0
 21 22  1  0
 21 19  1  0
 23 22  1  0
 24 25  1  0
 24 23  1  0
 25 21  1  0
  2 26  1  0
  3 27  1  0
  4 28  1  0
  8 29  1  0
  9 30  1  0
 10 31  1  0
 11 32  1  0
 16 33  1  0
 17 34  1  0
 21 35  1  0
 22 36  1  0
 22 37  1  0
 23 38  1  0
 23 39  1  0
 24 40  1  0
 24 41  1  0
 25 42  1  0
 25 43  1  0
M  ISO  8  26  14  27  14  28  14  29  14  30  14  31  14  32  14  33  14
M  ISO  8  34  14  35  13  36  13  37  13  38  13  39  13  40  13  41  13
M  ISO  2  42  13  43  13
M  END
>  <minimizedAffinity>  (1) 
-5.62306833

>  <minimizedRMSD>  (1) 
0.11798244

$$$$
