
     RDKit          3D

 46 49  0  0  0  0  0  0  0  0999 V2000
   42.1080   23.1110   36.4390 C   0  0  0  0  0  0  0  0  0  0  0  0
   43.4340   22.9650   36.8480 C   0  0  0  0  0  0  0  0  0  0  0  0
   44.4300   23.7940   36.3720 C   0  0  0  0  0  0  0  0  0  0  0  0
   44.0760   24.7700   35.4800 C   0  0  0  0  0  0  0  0  0  0  0  0
   42.7480   24.8780   35.1030 C   0  0  0  0  0  0  0  0  0  0  0  0
   41.7830   24.0740   35.5640 N   0  0  0  0  0  0  0  0  0  0  0  0
   42.4210   25.9380   34.1480 C   0  0  0  0  0  0  0  0  0  0  0  0
   41.1540   26.4490   33.9880 C   0  0  0  0  0  0  0  0  0  0  0  0
   40.8380   27.4280   33.1090 C   0  0  0  0  0  0  0  0  0  0  0  0
   41.9050   27.8990   32.3570 C   0  0  0  0  0  0  0  0  0  0  0  0
   43.2060   27.4300   32.4670 C   0  0  0  0  0  0  0  0  0  0  0  0
   43.3800   26.4640   33.3700 N   0  0  0  0  0  0  0  0  0  0  0  0
   41.1040   22.1720   37.0050 C   0  0  0  0  0  0  0  0  0  0  0  0
   41.5410   21.3040   37.7850 O   0  0  0  0  0  0  0  0  0  0  0  0
   39.7490   22.3560   36.6010 C   0  0  0  0  0  0  0  0  0  0  0  0
   39.0000   23.1680   37.4380 C   0  0  0  0  0  0  0  0  0  0  0  0
   37.6610   23.4000   37.1160 C   0  0  0  0  0  0  0  0  0  0  0  0
   37.1440   22.8320   36.0090 N   0  0  0  0  0  0  0  0  0  0  0  0
   37.9160   22.0420   35.2170 C   0  0  0  0  0  0  0  0  0  0  0  0
   39.1990   21.8100   35.5130 N   0  0  0  0  0  0  0  0  0  0  0  0
   37.2890   21.4410   34.0100 C   0  0  0  0  0  0  0  0  0  0  0  0
   35.8720   20.9460   34.3260 C   0  0  0  0  0  0  0  0  0  0  0  0
   35.4920   20.1130   33.1190 C   0  0  0  0  0  0  0  0  0  0  0  0
   35.2810   21.0510   31.9780 C   0  0  0  0  0  0  0  0  0  0  0  0
   35.7570   22.4690   32.3040 C   0  0  0  0  0  0  0  0  0  0  0  0
   37.1610   22.3710   32.8530 C   0  0  0  0  0  0  0  0  0  0  0  0
   43.6914   22.1719   37.5655 H   0  0  0  0  0  0  0  0  0  0  0  0
   45.4735   23.6742   36.6987 H   0  0  0  0  0  0  0  0  0  0  0  0
   44.8323   25.4557   35.0703 H   0  0  0  0  0  0  0  0  0  0  0  0
   40.3482   26.0365   34.6130 H   0  0  0  0  0  0  0  0  0  0  0  0
   39.8160   27.8196   32.9992 H   0  0  0  0  0  0  0  0  0  0  0  0
   41.7062   28.6964   31.6258 H   0  0  0  0  0  0  0  0  0  0  0  0
   44.0312   27.8248   31.8560 H   0  0  0  0  0  0  0  0  0  0  0  0
   39.4496   23.6191   38.3348 H   0  0  0  0  0  0  0  0  0  0  0  0
   37.0363   24.0384   37.7580 H   0  0  0  0  0  0  0  0  0  0  0  0
   37.9701   20.6237   33.7307 H   0  0  0  0  0  0  0  0  0  0  0  0
   35.8673   20.3337   35.2398 H   0  0  0  0  0  0  0  0  0  0  0  0
   35.1678   21.7714   34.5071 H   0  0  0  0  0  0  0  0  0  0  0  0
   36.3005   19.4064   32.8802 H   0  0  0  0  0  0  0  0  0  0  0  0
   34.5789   19.5332   33.3191 H   0  0  0  0  0  0  0  0  0  0  0  0
   34.2078   21.0831   31.7388 H   0  0  0  0  0  0  0  0  0  0  0  0
   35.8689   20.6838   31.1239 H   0  0  0  0  0  0  0  0  0  0  0  0
   35.7542   23.0835   31.3917 H   0  0  0  0  0  0  0  0  0  0  0  0
   35.0886   22.9384   33.0408 H   0  0  0  0  0  0  0  0  0  0  0  0
   37.8242   22.0185   32.0493 H   0  0  0  0  0  0  0  0  0  0  0  0
   37.4350   23.3731   33.2147 H   0  0  0  0  0  0  0  0  0  0  0  0
  1  2  2  0
  1 13  1  0
  3  2  1  0
  4  3  2  0
  5  4  1  0
  5  6  2  0
  6  1  1  0
  7  5  1  0
  8  7  2  0
  9  8  1  0
 10 11  1  0
 10  9  2  0
 11 12  2  0
 12  7  1  0
 13 14  2  0
 15 13  1  0
 15 16  2  0
 17 16  1  0
 18 17  2  0
 19 20  2  0
 19 18  1  0
 20 15  1  0
 21 22  1  0
 21 19  1  0
 23 22  1  0
 24 25  1  0
 24 23  1  0
 25 26  1  0
 26 21  1  0
  2 27  1  0
  3 28  1  0
  4 29  1  0
  8 30  1  0
  9 31  1  0
 10 32  1  0
 11 33  1  0
 16 34  1  0
 17 35  1  0
 21 36  1  0
 22 37  1  0
 22 38  1  0
 23 39  1  0
 23 40  1  0
 24 41  1  0
 24 42  1  0
 25 43  1  0
 25 44  1  0
 26 45  1  0
 26 46  1  0
M  ISO  8  27  14  28  14  29  14  30  14  31  14  32  14  33  14  34  14
M  ISO  8  35  14  36  13  37  13  38  13  39  13  40  13  41  13  42  13
M  ISO  4  43  13  44  13  45  13  46  13
M  END
>  <minimizedAffinity>  (1) 
-5.58650684

>  <minimizedRMSD>  (1) 
0.90983665

$$$$
