
     RDKit          3D

 34 36  0  0  0  0  0  0  0  0999 V2000
   40.1760   26.4810   34.9180 C   0  0  0  0  0  0  0  0  0  0  0  0
   38.9400   27.0410   34.2950 C   0  0  0  0  0  0  0  0  0  0  0  0
   37.8480   27.3810   35.0880 C   0  0  0  0  0  0  0  0  0  0  0  0
   36.6610   27.9080   34.5970 C   0  0  0  0  0  0  0  0  0  0  0  0
   36.5860   28.0930   33.2440 N   0  0  0  0  0  0  0  0  0  0  0  0
   37.6430   27.7640   32.4700 C   0  0  0  0  0  0  0  0  0  0  0  0
   38.7900   27.2500   32.9930 N   0  0  0  0  0  0  0  0  0  0  0  0
   37.5990   27.9480   31.0250 C   0  0  0  0  0  0  0  0  0  0  0  0
   38.7710   28.1320   30.3020 C   0  0  0  0  0  0  0  0  0  0  0  0
   38.4110   28.2790   28.9520 C   0  0  0  0  0  0  0  0  0  0  0  0
   37.0610   28.1800   28.9170 N   0  0  0  0  0  0  0  0  0  0  0  0
   36.5680   27.9850   30.1280 N   0  0  0  0  0  0  0  0  0  0  0  0
   40.5020   25.1080   34.4060 C   0  0  0  0  0  0  0  0  0  0  0  0
   37.9580   22.3900   34.6800 C   0  0  0  0  0  0  0  0  0  0  0  0
   37.6890   22.4160   36.0570 C   0  0  0  0  0  0  0  0  0  0  0  0
   38.3610   23.3360   36.8580 C   0  0  0  0  0  0  0  0  0  0  0  0
   39.2490   24.1690   36.2670 N   0  0  0  0  0  0  0  0  0  0  0  0
   39.4910   24.1250   34.9320 C   0  0  0  0  0  0  0  0  0  0  0  0
   38.8570   23.2470   34.1400 N   0  0  0  0  0  0  0  0  0  0  0  0
   38.1930   23.4850   38.2870 C   0  0  0  0  0  0  0  0  0  0  0  0
   38.0060   24.6070   38.8650 O   0  0  0  0  0  0  0  0  0  0  0  0
   38.2090   22.4740   39.2190 O   0  0  0  0  0  0  0  0  0  0  0  0
   41.0193   27.1510   34.6945 H   0  0  0  0  0  0  0  0  0  0  0  0
   40.0003   26.4026   36.0011 H   0  0  0  0  0  0  0  0  0  0  0  0
   37.9306   27.2220   36.1733 H   0  0  0  0  0  0  0  0  0  0  0  0
   35.8233   28.1638   35.2625 H   0  0  0  0  0  0  0  0  0  0  0  0
   39.7919   28.1578   30.7109 H   0  0  0  0  0  0  0  0  0  0  0  0
   39.0866   28.4411   28.0992 H   0  0  0  0  0  0  0  0  0  0  0  0
   36.4933   28.2477   28.0602 H   0  0  0  0  0  0  0  0  0  0  0  0
   40.4740   25.1102   33.3064 H   0  0  0  0  0  0  0  0  0  0  0  0
   41.5073   24.8183   34.7458 H   0  0  0  0  0  0  0  0  0  0  0  0
   37.4351   21.6687   34.0348 H   0  0  0  0  0  0  0  0  0  0  0  0
   36.9589   21.7207   36.4968 H   0  0  0  0  0  0  0  0  0  0  0  0
   38.0838   22.6833   40.1785 H   0  0  0  0  0  0  0  0  0  0  0  0
  2  1  1  0
  2  3  2  0
  4  3  1  0
  5  4  2  0
  6  7  2  0
  6  5  1  0
  7  2  1  0
  8  6  1  0
  9  8  1  0
 10  9  2  0
 11 10  1  0
 11 12  1  0
 12  8  2  0
 13  1  1  0
 13 18  1  0
 14 15  2  0
 15 16  1  0
 16 20  1  0
 17 16  2  0
 18 17  1  0
 19 14  1  0
 19 18  2  0
 20 21  2  0
 20 22  1  0
  1 23  1  0
  1 24  1  0
  3 25  1  0
  4 26  1  0
  9 27  1  0
 10 28  1  0
 11 29  1  0
 13 30  1  0
 13 31  1  0
 14 32  1  0
 15 33  1  0
 22 34  1  0
M  ISO  8  23   8  24   8  25  14  26  14  27  14  28  14  29   9  30   8
M  ISO  4  31   8  32  14  33  14  34   3
M  END
>  <minimizedAffinity>  (1) 
-5.77601624

>  <minimizedRMSD>  (1) 
1.6580739

$$$$
