
     RDKit          3D

 39 41  0  0  0  0  0  0  0  0999 V2000
   42.2630   23.0030   36.4990 C   0  0  0  0  0  0  0  0  0  0  0  0
   43.6100   22.8400   36.7800 C   0  0  0  0  0  0  0  0  0  0  0  0
   44.5800   23.6760   36.2300 C   0  0  0  0  0  0  0  0  0  0  0  0
   44.1480   24.6740   35.3920 C   0  0  0  0  0  0  0  0  0  0  0  0
   42.7920   24.7990   35.1390 C   0  0  0  0  0  0  0  0  0  0  0  0
   41.8590   23.9900   35.6720 N   0  0  0  0  0  0  0  0  0  0  0  0
   42.3870   25.8810   34.2370 C   0  0  0  0  0  0  0  0  0  0  0  0
   41.0950   26.3580   34.1680 C   0  0  0  0  0  0  0  0  0  0  0  0
   40.7030   27.3610   33.3370 C   0  0  0  0  0  0  0  0  0  0  0  0
   41.6960   27.8840   32.5510 C   0  0  0  0  0  0  0  0  0  0  0  0
   43.0280   27.4450   32.5720 C   0  0  0  0  0  0  0  0  0  0  0  0
   43.2860   26.4530   33.4310 N   0  0  0  0  0  0  0  0  0  0  0  0
   41.3210   22.0570   37.1400 C   0  0  0  0  0  0  0  0  0  0  0  0
   41.8170   21.0750   37.7190 O   0  0  0  0  0  0  0  0  0  0  0  0
   39.9280   22.3690   37.0270 C   0  0  0  0  0  0  0  0  0  0  0  0
   39.4210   23.1180   38.0810 C   0  0  0  0  0  0  0  0  0  0  0  0
   38.0640   23.4670   38.0480 C   0  0  0  0  0  0  0  0  0  0  0  0
   37.2970   23.0770   37.0170 N   0  0  0  0  0  0  0  0  0  0  0  0
   37.8390   22.3390   36.0010 C   0  0  0  0  0  0  0  0  0  0  0  0
   39.1290   22.0090   36.0330 N   0  0  0  0  0  0  0  0  0  0  0  0
   36.9510   21.9250   34.8710 C   0  0  0  0  0  0  0  0  0  0  0  0
   37.8680   21.5720   33.7230 C   0  0  0  0  0  0  0  0  0  0  0  0
   35.9840   20.8440   35.2360 C   0  0  0  0  0  0  0  0  0  0  0  0
   43.9220   22.0294   37.4550 H   0  0  0  0  0  0  0  0  0  0  0  0
   45.6477   23.5418   36.4579 H   0  0  0  0  0  0  0  0  0  0  0  0
   44.8682   25.3642   34.9283 H   0  0  0  0  0  0  0  0  0  0  0  0
   40.3380   25.9012   34.8225 H   0  0  0  0  0  0  0  0  0  0  0  0
   39.6657   27.7252   33.2988 H   0  0  0  0  0  0  0  0  0  0  0  0
   41.4322   28.6988   31.8606 H   0  0  0  0  0  0  0  0  0  0  0  0
   43.8042   27.8848   31.9285 H   0  0  0  0  0  0  0  0  0  0  0  0
   40.0654   23.4281   38.9169 H   0  0  0  0  0  0  0  0  0  0  0  0
   37.6278   24.0596   38.8656 H   0  0  0  0  0  0  0  0  0  0  0  0
   36.2806   22.7474   34.5807 H   0  0  0  0  0  0  0  0  0  0  0  0
   38.8258   21.2033   34.1188 H   0  0  0  0  0  0  0  0  0  0  0  0
   37.4002   20.7897   33.1072 H   0  0  0  0  0  0  0  0  0  0  0  0
   38.0455   22.4661   33.1072 H   0  0  0  0  0  0  0  0  0  0  0  0
   35.9157   20.7676   36.3312 H   0  0  0  0  0  0  0  0  0  0  0  0
   34.9932   21.0835   34.8226 H   0  0  0  0  0  0  0  0  0  0  0  0
   36.3320   19.8859   34.8226 H   0  0  0  0  0  0  0  0  0  0  0  0
  1  2  2  0
  1 13  1  0
  3  2  1  0
  4  3  2  0
  5  4  1  0
  5  6  2  0
  6  1  1  0
  7  5  1  0
  8  7  2  0
  9  8  1  0
 10 11  1  0
 10  9  2  0
 11 12  2  0
 12  7  1  0
 13 14  2  0
 15 13  1  0
 15 16  2  0
 17 16  1  0
 18 17  2  0
 19 20  2  0
 19 18  1  0
 20 15  1  0
 21 23  1  0
 21 19  1  0
 22 21  1  0
  2 24  1  0
  3 25  1  0
  4 26  1  0
  8 27  1  0
  9 28  1  0
 10 29  1  0
 11 30  1  0
 16 31  1  0
 17 32  1  0
 21 33  1  0
 22 34  1  0
 22 35  1  0
 22 36  1  0
 23 37  1  0
 23 38  1  0
 23 39  1  0
M  ISO  8  24  14  25  14  26  14  27  14  28  14  29  14  30  14  31  14
M  ISO  8  32  14  33   8  34   8  35   8  36   8  37   8  38   8  39   8
M  END
>  <minimizedAffinity>  (1) 
-5.02587128

>  <minimizedRMSD>  (1) 
0.146371216

$$$$
