
     RDKit          3D

 32 34  0  0  0  0  0  0  0  0999 V2000
   42.3200   23.0240   36.4990 C   0  0  0  0  0  0  0  0  0  0  0  0
   43.6790   22.8740   36.8110 C   0  0  0  0  0  0  0  0  0  0  0  0
   44.6380   23.7260   36.2680 C   0  0  0  0  0  0  0  0  0  0  0  0
   44.2060   24.7170   35.4190 C   0  0  0  0  0  0  0  0  0  0  0  0
   42.8470   24.8180   35.1450 C   0  0  0  0  0  0  0  0  0  0  0  0
   41.9230   24.0020   35.6640 N   0  0  0  0  0  0  0  0  0  0  0  0
   42.4610   25.8870   34.2420 C   0  0  0  0  0  0  0  0  0  0  0  0
   41.1660   26.3670   34.1750 C   0  0  0  0  0  0  0  0  0  0  0  0
   40.7850   27.3750   33.3330 C   0  0  0  0  0  0  0  0  0  0  0  0
   41.7960   27.8910   32.5360 C   0  0  0  0  0  0  0  0  0  0  0  0
   43.1130   27.4440   32.5630 C   0  0  0  0  0  0  0  0  0  0  0  0
   43.3420   26.4640   33.4270 N   0  0  0  0  0  0  0  0  0  0  0  0
   41.3840   22.0620   37.1320 C   0  0  0  0  0  0  0  0  0  0  0  0
   41.8790   21.1000   37.7380 O   0  0  0  0  0  0  0  0  0  0  0  0
   39.9770   22.3530   36.9730 C   0  0  0  0  0  0  0  0  0  0  0  0
   39.4230   23.0790   38.0320 C   0  0  0  0  0  0  0  0  0  0  0  0
   38.0590   23.4010   37.9510 C   0  0  0  0  0  0  0  0  0  0  0  0
   37.3470   23.0080   36.8820 N   0  0  0  0  0  0  0  0  0  0  0  0
   37.9470   22.3020   35.8820 C   0  0  0  0  0  0  0  0  0  0  0  0
   39.2490   21.9840   35.9380 N   0  0  0  0  0  0  0  0  0  0  0  0
   37.2120   21.8590   34.7080 C   0  0  0  0  0  0  0  0  0  0  0  0
   36.1980   21.0840   34.7710 O   0  0  0  0  0  0  0  0  0  0  0  0
   43.9924   22.0714   37.4948 H   0  0  0  0  0  0  0  0  0  0  0  0
   45.7047   23.6097   36.5104 H   0  0  0  0  0  0  0  0  0  0  0  0
   44.9225   25.4172   34.9648 H   0  0  0  0  0  0  0  0  0  0  0  0
   40.4059   25.9165   34.8303 H   0  0  0  0  0  0  0  0  0  0  0  0
   39.7515   27.7494   33.2909 H   0  0  0  0  0  0  0  0  0  0  0  0
   41.5407   28.7035   31.8399 H   0  0  0  0  0  0  0  0  0  0  0  0
   43.8992   27.8680   31.9211 H   0  0  0  0  0  0  0  0  0  0  0  0
   40.0323   23.3858   38.8949 H   0  0  0  0  0  0  0  0  0  0  0  0
   37.5763   23.9717   38.7580 H   0  0  0  0  0  0  0  0  0  0  0  0
   37.5446   22.2075   33.7191 H   0  0  0  0  0  0  0  0  0  0  0  0
  1  2  2  0
  1 13  1  0
  3  2  1  0
  4  3  2  0
  5  4  1  0
  5  6  2  0
  6  1  1  0
  7  5  1  0
  8  7  2  0
  9  8  1  0
 10 11  1  0
 10  9  2  0
 11 12  2  0
 12  7  1  0
 13 14  2  0
 15 13  1  0
 15 16  2  0
 17 16  1  0
 18 17  2  0
 19 20  2  0
 19 18  1  0
 20 15  1  0
 21 22  2  0
 21 19  1  0
  2 23  1  0
  3 24  1  0
  4 25  1  0
  8 26  1  0
  9 27  1  0
 10 28  1  0
 11 29  1  0
 16 30  1  0
 17 31  1  0
 21 32  1  0
M  ISO  8  23  14  24  14  25  14  26  14  27  14  28  14  29  14  30  14
M  ISO  2  31  14  32   6
M  END
>  <minimizedAffinity>  (1) 
-4.817904

>  <minimizedRMSD>  (1) 
0.161512569

$$$$
