
     RDKit          3D

 23 24  0  0  0  0  0  0  0  0999 V2000
   38.1020   24.5700   34.8000 C   0  0  0  0  0  0  0  0  0  0  0  0
   37.9560   23.7130   33.6880 C   0  0  0  0  0  0  0  0  0  0  0  0
   37.5740   24.5430   32.6610 N   0  0  0  0  0  0  0  0  0  0  0  0
   37.5100   25.7890   33.1600 C   0  0  0  0  0  0  0  0  0  0  0  0
   37.8270   25.8310   34.4620 N   0  0  0  0  0  0  0  0  0  0  0  0
   38.0080   23.8850   38.4570 C   0  0  0  0  0  0  0  0  0  0  0  0
   37.6760   24.3570   37.1850 C   0  0  0  0  0  0  0  0  0  0  0  0
   38.4780   24.0730   36.1060 C   0  0  0  0  0  0  0  0  0  0  0  0
   39.6170   23.3070   36.3420 N   0  0  0  0  0  0  0  0  0  0  0  0
   39.9120   22.8690   37.5670 C   0  0  0  0  0  0  0  0  0  0  0  0
   39.1320   23.1420   38.6230 N   0  0  0  0  0  0  0  0  0  0  0  0
   37.8180   27.1070   35.1220 C   0  0  0  0  0  0  0  0  0  0  0  0
   36.7000   27.9420   34.5380 C   0  0  0  0  0  0  0  0  0  0  0  0
   38.1128   22.6248   33.6514 H   0  0  0  0  0  0  0  0  0  0  0  0
   37.2297   26.6729   32.5683 H   0  0  0  0  0  0  0  0  0  0  0  0
   37.3631   24.1137   39.3183 H   0  0  0  0  0  0  0  0  0  0  0  0
   36.7666   24.9600   37.0461 H   0  0  0  0  0  0  0  0  0  0  0  0
   40.8206   22.2670   37.7150 H   0  0  0  0  0  0  0  0  0  0  0  0
   37.6514   26.9659   36.2001 H   0  0  0  0  0  0  0  0  0  0  0  0
   38.7831   27.6140   34.9751 H   0  0  0  0  0  0  0  0  0  0  0  0
   36.1082   28.3840   35.3531 H   0  0  0  0  0  0  0  0  0  0  0  0
   37.1268   28.7442   33.9181 H   0  0  0  0  0  0  0  0  0  0  0  0
   36.0520   27.3050   33.9181 H   0  0  0  0  0  0  0  0  0  0  0  0
  1  8  1  0
  2  1  2  0
  3  4  2  0
  3  2  1  0
  4  5  1  0
  5  1  1  0
  5 12  1  0
  6 11  2  0
  7  6  1  0
  8  9  1  0
  8  7  2  0
  9 10  2  0
 10 11  1  0
 13 12  1  0
  2 14  1  0
  4 15  1  0
  6 16  1  0
  7 17  1  0
 10 18  1  0
 12 19  1  0
 12 20  1  0
 13 21  1  0
 13 22  1  0
 13 23  1  0
M  ISO  8  14  14  15  14  16  14  17  14  18  14  19   8  20   8  21   8
M  ISO  2  22   8  23   8
M  END
>  <minimizedAffinity>  (1) 
-3.76829648

>  <minimizedRMSD>  (1) 
5.09235907

$$$$
