
     RDKit          3D

 27 29  0  0  0  0  0  0  0  0999 V2000
   39.4790   24.7280   34.1040 C   0  0  0  0  0  0  0  0  0  0  0  0
   38.8630   25.2540   32.9480 C   0  0  0  0  0  0  0  0  0  0  0  0
   39.9050   25.7120   32.1790 N   0  0  0  0  0  0  0  0  0  0  0  0
   41.0520   25.4570   32.8650 C   0  0  0  0  0  0  0  0  0  0  0  0
   40.8100   24.8710   34.0150 N   0  0  0  0  0  0  0  0  0  0  0  0
   37.4930   22.2640   36.0560 C   0  0  0  0  0  0  0  0  0  0  0  0
   38.2270   22.8520   35.0140 C   0  0  0  0  0  0  0  0  0  0  0  0
   38.7250   24.1320   35.1860 C   0  0  0  0  0  0  0  0  0  0  0  0
   38.4750   24.7790   36.3880 N   0  0  0  0  0  0  0  0  0  0  0  0
   37.7660   24.1800   37.3630 C   0  0  0  0  0  0  0  0  0  0  0  0
   37.2780   22.9320   37.2000 N   0  0  0  0  0  0  0  0  0  0  0  0
   41.8520   24.5160   34.9110 C   0  0  0  0  0  0  0  0  0  0  0  0
   41.9360   23.2550   35.5190 C   0  0  0  0  0  0  0  0  0  0  0  0
   42.9510   22.9040   36.3840 C   0  0  0  0  0  0  0  0  0  0  0  0
   43.9420   23.8160   36.6820 C   0  0  0  0  0  0  0  0  0  0  0  0
   43.9110   25.0700   36.1150 C   0  0  0  0  0  0  0  0  0  0  0  0
   42.8880   25.3960   35.2550 C   0  0  0  0  0  0  0  0  0  0  0  0
   37.7885   25.2893   32.7150 H   0  0  0  0  0  0  0  0  0  0  0  0
   42.0586   25.7106   32.5010 H   0  0  0  0  0  0  0  0  0  0  0  0
   37.0908   21.2475   35.9339 H   0  0  0  0  0  0  0  0  0  0  0  0
   38.4035   22.3047   34.0763 H   0  0  0  0  0  0  0  0  0  0  0  0
   37.5816   24.7152   38.3062 H   0  0  0  0  0  0  0  0  0  0  0  0
   41.1564   22.5118   35.2956 H   0  0  0  0  0  0  0  0  0  0  0  0
   42.9703   21.9007   36.8346 H   0  0  0  0  0  0  0  0  0  0  0  0
   44.7547   23.5420   37.3708 H   0  0  0  0  0  0  0  0  0  0  0  0
   44.6965   25.8042   36.3473 H   0  0  0  0  0  0  0  0  0  0  0  0
   42.8824   26.4031   34.8126 H   0  0  0  0  0  0  0  0  0  0  0  0
  1  8  1  0
  2  1  2  0
  3  4  2  0
  3  2  1  0
  4  5  1  0
  5  1  1  0
  5 12  1  0
  6 11  2  0
  7  8  2  0
  7  6  1  0
  8  9  1  0
  9 10  2  0
 11 10  1  0
 12 17  1  0
 12 13  2  0
 13 14  1  0
 14 15  2  0
 16 15  1  0
 17 16  2  0
  2 18  1  0
  4 19  1  0
  6 20  1  0
  7 21  1  0
 10 22  1  0
 13 23  1  0
 14 24  1  0
 15 25  1  0
 16 26  1  0
 17 27  1  0
M  ISO  8  18  14  19  14  20  14  21  14  22  14  23  14  24  14  25  14
M  ISO  2  26  14  27  14
M  END
>  <minimizedAffinity>  (1) 
-3.94206452

>  <minimizedRMSD>  (1) 
5.75258636

$$$$
