
     RDKit          3D

 41 45  0  0  0  0  0  0  0  0999 V2000
   40.0870   22.9390   33.4220 C   0  0  0  0  0  0  0  0  0  0  0  0
   41.3250   22.3040   33.6130 C   0  0  0  0  0  0  0  0  0  0  0  0
   42.5300   22.9200   33.3850 C   0  0  0  0  0  0  0  0  0  0  0  0
   42.5700   24.2160   32.9480 C   0  0  0  0  0  0  0  0  0  0  0  0
   41.3950   24.8850   32.7430 C   0  0  0  0  0  0  0  0  0  0  0  0
   40.1970   24.2530   32.9780 C   0  0  0  0  0  0  0  0  0  0  0  0
   38.9640   25.0310   32.7630 C   0  0  0  0  0  0  0  0  0  0  0  0
   38.2050   24.9030   31.6280 N   0  0  0  0  0  0  0  0  0  0  0  0
   37.0830   25.6570   31.4830 C   0  0  0  0  0  0  0  0  0  0  0  0
   36.6650   26.5390   32.3980 N   0  0  0  0  0  0  0  0  0  0  0  0
   37.3620   26.7200   33.5410 C   0  0  0  0  0  0  0  0  0  0  0  0
   36.9990   27.6330   34.5410 C   0  0  0  0  0  0  0  0  0  0  0  0
   37.7610   27.8000   35.7070 C   0  0  0  0  0  0  0  0  0  0  0  0
   38.8790   27.0050   35.7840 C   0  0  0  0  0  0  0  0  0  0  0  0
   39.2390   26.1100   34.8090 C   0  0  0  0  0  0  0  0  0  0  0  0
   38.4830   25.9510   33.6660 C   0  0  0  0  0  0  0  0  0  0  0  0
   38.0910   22.1890   34.7620 C   0  0  0  0  0  0  0  0  0  0  0  0
   36.9310   21.4520   34.4660 C   0  0  0  0  0  0  0  0  0  0  0  0
   37.0290   21.1330   33.1430 N   0  0  0  0  0  0  0  0  0  0  0  0
   38.2080   21.6720   32.6980 C   0  0  0  0  0  0  0  0  0  0  0  0
   38.8440   22.3000   33.6540 N   0  0  0  0  0  0  0  0  0  0  0  0
   39.8590   22.8380   37.9630 C   0  0  0  0  0  0  0  0  0  0  0  0
   39.5780   22.3250   36.6880 C   0  0  0  0  0  0  0  0  0  0  0  0
   38.3830   22.7210   36.0840 C   0  0  0  0  0  0  0  0  0  0  0  0
   37.5520   23.5840   36.7570 N   0  0  0  0  0  0  0  0  0  0  0  0
   37.8730   24.0470   37.9810 C   0  0  0  0  0  0  0  0  0  0  0  0
   39.0160   23.6800   38.5850 N   0  0  0  0  0  0  0  0  0  0  0  0
   41.3290   21.2611   33.9627 H   0  0  0  0  0  0  0  0  0  0  0  0
   43.4673   22.3697   33.5542 H   0  0  0  0  0  0  0  0  0  0  0  0
   43.5340   24.7129   32.7641 H   0  0  0  0  0  0  0  0  0  0  0  0
   41.4085   25.9270   32.3907 H   0  0  0  0  0  0  0  0  0  0  0  0
   36.4880   25.5356   30.5658 H   0  0  0  0  0  0  0  0  0  0  0  0
   36.0892   28.2367   34.4074 H   0  0  0  0  0  0  0  0  0  0  0  0
   37.4848   28.5123   36.4984 H   0  0  0  0  0  0  0  0  0  0  0  0
   39.5190   27.0908   36.6745 H   0  0  0  0  0  0  0  0  0  0  0  0
   40.1492   25.5066   34.9411 H   0  0  0  0  0  0  0  0  0  0  0  0
   36.1159   21.1880   35.1558 H   0  0  0  0  0  0  0  0  0  0  0  0
   38.5746   21.5872   31.6644 H   0  0  0  0  0  0  0  0  0  0  0  0
   40.7920   22.5440   38.4660 H   0  0  0  0  0  0  0  0  0  0  0  0
   40.2724   21.6371   36.1834 H   0  0  0  0  0  0  0  0  0  0  0  0
   37.1877   24.7373   38.4947 H   0  0  0  0  0  0  0  0  0  0  0  0
  1  2  2  0
  1 21  1  0
  3  2  1  0
  4  3  2  0
  5  4  1  0
  5  6  2  0
  6  1  1  0
  7  6  1  0
  7 16  1  0
  8  7  2  0
  9  8  1  0
  9 10  2  0
 10 11  1  0
 11 16  2  0
 11 12  1  0
 12 13  2  0
 13 14  1  0
 15 14  2  0
 16 15  1  0
 17 24  1  0
 18 17  2  0
 19 18  1  0
 20 19  2  0
 20 21  1  0
 21 17  1  0
 22 27  2  0
 23 22  1  0
 24 23  2  0
 24 25  1  0
 25 26  2  0
 26 27  1  0
  2 28  1  0
  3 29  1  0
  4 30  1  0
  5 31  1  0
  9 32  1  0
 12 33  1  0
 13 34  1  0
 14 35  1  0
 15 36  1  0
 18 37  1  0
 20 38  1  0
 22 39  1  0
 23 40  1  0
 26 41  1  0
M  ISO  8  28  14  29  14  30  14  31  14  32  14  33  14  34  14  35  14
M  ISO  6  36  14  37  14  38  14  39  14  40  14  41  14
M  END
>  <minimizedAffinity>  (1) 
-5.76038122

>  <minimizedRMSD>  (1) 
4.88201094

$$$$
