
     RDKit          3D

 37 40  0  0  0  0  0  0  0  0999 V2000
   42.1020   23.4570   35.2260 C   0  0  0  0  0  0  0  0  0  0  0  0
   43.0450   22.8530   36.0540 C   0  0  0  0  0  0  0  0  0  0  0  0
   44.1150   23.5420   36.5870 C   0  0  0  0  0  0  0  0  0  0  0  0
   44.2800   24.8710   36.3040 C   0  0  0  0  0  0  0  0  0  0  0  0
   43.3830   25.5200   35.4940 C   0  0  0  0  0  0  0  0  0  0  0  0
   42.3090   24.8280   34.9600 C   0  0  0  0  0  0  0  0  0  0  0  0
   41.3840   25.5800   34.1140 C   0  0  0  0  0  0  0  0  0  0  0  0
   41.2950   25.6360   32.7600 C   0  0  0  0  0  0  0  0  0  0  0  0
   40.3400   26.4240   32.1500 C   0  0  0  0  0  0  0  0  0  0  0  0
   39.4430   27.1790   32.8770 C   0  0  0  0  0  0  0  0  0  0  0  0
   39.4970   27.1510   34.2470 C   0  0  0  0  0  0  0  0  0  0  0  0
   40.4710   26.3480   34.8500 C   0  0  0  0  0  0  0  0  0  0  0  0
   39.7130   22.6430   35.0840 C   0  0  0  0  0  0  0  0  0  0  0  0
   38.9830   21.8430   34.1940 C   0  0  0  0  0  0  0  0  0  0  0  0
   39.9050   21.4870   33.2270 N   0  0  0  0  0  0  0  0  0  0  0  0
   41.0850   22.0610   33.5630 C   0  0  0  0  0  0  0  0  0  0  0  0
   40.9960   22.7560   34.6680 N   0  0  0  0  0  0  0  0  0  0  0  0
   39.0190   23.3420   38.6680 C   0  0  0  0  0  0  0  0  0  0  0  0
   39.5590   22.8030   37.4980 C   0  0  0  0  0  0  0  0  0  0  0  0
   39.1200   23.2340   36.2660 C   0  0  0  0  0  0  0  0  0  0  0  0
   38.1420   24.2020   36.2360 N   0  0  0  0  0  0  0  0  0  0  0  0
   37.6380   24.7030   37.3820 C   0  0  0  0  0  0  0  0  0  0  0  0
   38.0730   24.2760   38.5950 N   0  0  0  0  0  0  0  0  0  0  0  0
   42.9324   21.7851   36.2923 H   0  0  0  0  0  0  0  0  0  0  0  0
   44.8344   23.0241   37.2384 H   0  0  0  0  0  0  0  0  0  0  0  0
   45.1341   25.4201   36.7272 H   0  0  0  0  0  0  0  0  0  0  0  0
   43.5167   26.5884   35.2691 H   0  0  0  0  0  0  0  0  0  0  0  0
   41.9907   25.0477   32.1436 H   0  0  0  0  0  0  0  0  0  0  0  0
   40.2927   26.4508   31.0513 H   0  0  0  0  0  0  0  0  0  0  0  0
   38.6922   27.7971   32.3630 H   0  0  0  0  0  0  0  0  0  0  0  0
   38.7954   27.7423   34.8537 H   0  0  0  0  0  0  0  0  0  0  0  0
   40.5226   26.3180   35.9484 H   0  0  0  0  0  0  0  0  0  0  0  0
   37.9208   21.5628   34.2516 H   0  0  0  0  0  0  0  0  0  0  0  0
   42.0093   21.9553   32.9760 H   0  0  0  0  0  0  0  0  0  0  0  0
   39.3751   22.9950   39.6492 H   0  0  0  0  0  0  0  0  0  0  0  0
   40.3391   22.0301   37.5611 H   0  0  0  0  0  0  0  0  0  0  0  0
   36.8564   25.4755   37.3328 H   0  0  0  0  0  0  0  0  0  0  0  0
  1  2  2  0
  2  3  1  0
  4  3  2  0
  5  4  1  0
  6  1  1  0
  6  5  2  0
  7 12  1  0
  7  6  1  0
  8  7  2  0
  9  8  1  0
  9 10  2  0
 10 11  1  0
 11 12  2  0
 13 20  1  0
 14 13  2  0
 15 16  2  0
 15 14  1  0
 16 17  1  0
 17 13  1  0
 17  1  1  0
 19 18  2  0
 20 19  1  0
 21 20  2  0
 21 22  1  0
 22 23  2  0
 23 18  1  0
  2 24  1  0
  3 25  1  0
  4 26  1  0
  5 27  1  0
  8 28  1  0
  9 29  1  0
 10 30  1  0
 11 31  1  0
 12 32  1  0
 14 33  1  0
 16 34  1  0
 18 35  1  0
 19 36  1  0
 22 37  1  0
M  ISO  8  24  14  25  14  26  14  27  14  28  14  29  14  30  14  31  14
M  ISO  6  32  14  33  14  34  14  35  14  36  14  37  14
M  END
>  <minimizedAffinity>  (1) 
-5.11984825

>  <minimizedRMSD>  (1) 
2.58072758

$$$$
