
     RDKit          3D

 37 40  0  0  0  0  0  0  0  0999 V2000
   42.1380   23.4890   35.2150 C   0  0  0  0  0  0  0  0  0  0  0  0
   43.0910   22.8620   36.0450 C   0  0  0  0  0  0  0  0  0  0  0  0
   44.1520   23.5690   36.5870 C   0  0  0  0  0  0  0  0  0  0  0  0
   44.3020   24.9190   36.3220 C   0  0  0  0  0  0  0  0  0  0  0  0
   43.3930   25.5530   35.5210 C   0  0  0  0  0  0  0  0  0  0  0  0
   42.3300   24.8500   34.9770 C   0  0  0  0  0  0  0  0  0  0  0  0
   41.4020   25.6060   34.1430 C   0  0  0  0  0  0  0  0  0  0  0  0
   41.3310   25.6900   32.7670 C   0  0  0  0  0  0  0  0  0  0  0  0
   40.3640   26.4790   32.1820 C   0  0  0  0  0  0  0  0  0  0  0  0
   39.4500   27.2010   32.9070 C   0  0  0  0  0  0  0  0  0  0  0  0
   39.5250   27.1150   34.2620 C   0  0  0  0  0  0  0  0  0  0  0  0
   40.4630   26.3480   34.8720 C   0  0  0  0  0  0  0  0  0  0  0  0
   39.7700   22.6170   35.0470 C   0  0  0  0  0  0  0  0  0  0  0  0
   39.0700   21.8020   34.1460 C   0  0  0  0  0  0  0  0  0  0  0  0
   39.9930   21.4760   33.1920 N   0  0  0  0  0  0  0  0  0  0  0  0
   41.1610   22.0750   33.5310 C   0  0  0  0  0  0  0  0  0  0  0  0
   41.0530   22.7720   34.6520 N   0  0  0  0  0  0  0  0  0  0  0  0
   39.0350   23.3210   38.6300 C   0  0  0  0  0  0  0  0  0  0  0  0
   39.6040   22.7980   37.4700 C   0  0  0  0  0  0  0  0  0  0  0  0
   39.1480   23.1850   36.2270 C   0  0  0  0  0  0  0  0  0  0  0  0
   38.1190   24.0990   36.1980 N   0  0  0  0  0  0  0  0  0  0  0  0
   37.5860   24.5900   37.3360 C   0  0  0  0  0  0  0  0  0  0  0  0
   38.0410   24.2030   38.5340 N   0  0  0  0  0  0  0  0  0  0  0  0
   42.9895   21.7893   36.2665 H   0  0  0  0  0  0  0  0  0  0  0  0
   44.8795   23.0543   37.2318 H   0  0  0  0  0  0  0  0  0  0  0  0
   45.1461   25.4778   36.7525 H   0  0  0  0  0  0  0  0  0  0  0  0
   43.5061   26.6261   35.3075 H   0  0  0  0  0  0  0  0  0  0  0  0
   42.0419   25.1306   32.1411 H   0  0  0  0  0  0  0  0  0  0  0  0
   40.3232   26.5322   31.0840 H   0  0  0  0  0  0  0  0  0  0  0  0
   38.6889   27.8230   32.4132 H   0  0  0  0  0  0  0  0  0  0  0  0
   38.8092   27.6799   34.8772 H   0  0  0  0  0  0  0  0  0  0  0  0
   40.4872   26.3073   35.9710 H   0  0  0  0  0  0  0  0  0  0  0  0
   38.0151   21.4942   34.1957 H   0  0  0  0  0  0  0  0  0  0  0  0
   42.0881   21.9920   32.9448 H   0  0  0  0  0  0  0  0  0  0  0  0
   39.4040   23.0077   39.6178 H   0  0  0  0  0  0  0  0  0  0  0  0
   40.4247   22.0696   37.5465 H   0  0  0  0  0  0  0  0  0  0  0  0
   36.7648   25.3196   37.2785 H   0  0  0  0  0  0  0  0  0  0  0  0
  1  2  2  0
  2  3  1  0
  4  3  2  0
  5  4  1  0
  6  1  1  0
  6  5  2  0
  7 12  1  0
  7  6  1  0
  8  7  2  0
  9  8  1  0
  9 10  2  0
 10 11  1  0
 11 12  2  0
 13 20  1  0
 14 13  2  0
 15 16  2  0
 15 14  1  0
 16 17  1  0
 17 13  1  0
 17  1  1  0
 19 18  2  0
 20 19  1  0
 21 20  2  0
 21 22  1  0
 22 23  2  0
 23 18  1  0
  2 24  1  0
  3 25  1  0
  4 26  1  0
  5 27  1  0
  8 28  1  0
  9 29  1  0
 10 30  1  0
 11 31  1  0
 12 32  1  0
 14 33  1  0
 16 34  1  0
 18 35  1  0
 19 36  1  0
 22 37  1  0
M  ISO  8  24  14  25  14  26  14  27  14  28  14  29  14  30  14  31  14
M  ISO  6  32  14  33  14  34  14  35  14  36  14  37  14
M  END
>  <minimizedAffinity>  (1) 
-5.11119032

>  <minimizedRMSD>  (1) 
2.53634834

$$$$
