
     RDKit          3D

 43 47  0  0  0  0  0  0  0  0999 V2000
   39.9670   22.6730   35.1540 C   0  0  0  0  0  0  0  0  0  0  0  0
   39.7840   22.1700   36.4620 C   0  0  0  0  0  0  0  0  0  0  0  0
   40.8000   22.1650   37.4010 C   0  0  0  0  0  0  0  0  0  0  0  0
   42.0410   22.6580   37.0900 C   0  0  0  0  0  0  0  0  0  0  0  0
   42.2720   23.1640   35.8190 C   0  0  0  0  0  0  0  0  0  0  0  0
   41.2420   23.1620   34.8900 C   0  0  0  0  0  0  0  0  0  0  0  0
   41.6920   23.7180   33.6220 C   0  0  0  0  0  0  0  0  0  0  0  0
   42.0560   22.7150   32.7470 C   0  0  0  0  0  0  0  0  0  0  0  0
   42.5360   23.0050   31.4660 C   0  0  0  0  0  0  0  0  0  0  0  0
   42.6330   24.3470   31.0990 C   0  0  0  0  0  0  0  0  0  0  0  0
   42.2710   25.3540   31.9680 C   0  0  0  0  0  0  0  0  0  0  0  0
   42.3310   26.7030   31.6800 C   0  0  0  0  0  0  0  0  0  0  0  0
   41.9390   27.6520   32.6170 C   0  0  0  0  0  0  0  0  0  0  0  0
   41.4680   27.2850   33.8800 C   0  0  0  0  0  0  0  0  0  0  0  0
   41.3960   25.9450   34.1970 C   0  0  0  0  0  0  0  0  0  0  0  0
   41.8020   25.0500   33.2230 C   0  0  0  0  0  0  0  0  0  0  0  0
   38.0880   23.6610   33.8010 C   0  0  0  0  0  0  0  0  0  0  0  0
   37.2150   23.1950   32.8010 C   0  0  0  0  0  0  0  0  0  0  0  0
   37.5980   21.8750   32.6290 N   0  0  0  0  0  0  0  0  0  0  0  0
   38.6220   21.6400   33.4870 C   0  0  0  0  0  0  0  0  0  0  0  0
   38.9380   22.6850   34.1990 N   0  0  0  0  0  0  0  0  0  0  0  0
   38.1440   26.5290   36.1830 C   0  0  0  0  0  0  0  0  0  0  0  0
   38.1960   25.2310   35.6670 C   0  0  0  0  0  0  0  0  0  0  0  0
   38.0240   25.0260   34.3000 C   0  0  0  0  0  0  0  0  0  0  0  0
   37.8060   26.1250   33.5030 N   0  0  0  0  0  0  0  0  0  0  0  0
   37.7630   27.3660   34.0480 C   0  0  0  0  0  0  0  0  0  0  0  0
   37.9300   27.5640   35.3710 N   0  0  0  0  0  0  0  0  0  0  0  0
   38.7993   21.7684   36.7433 H   0  0  0  0  0  0  0  0  0  0  0  0
   40.6104   21.7617   38.4067 H   0  0  0  0  0  0  0  0  0  0  0  0
   42.8452   22.6524   37.8405 H   0  0  0  0  0  0  0  0  0  0  0  0
   43.2616   23.5626   35.5508 H   0  0  0  0  0  0  0  0  0  0  0  0
   41.9667   21.6654   33.0638 H   0  0  0  0  0  0  0  0  0  0  0  0
   42.8269   22.2027   30.7720 H   0  0  0  0  0  0  0  0  0  0  0  0
   43.0054   24.6068   30.0971 H   0  0  0  0  0  0  0  0  0  0  0  0
   42.6942   27.0314   30.6950 H   0  0  0  0  0  0  0  0  0  0  0  0
   42.0012   28.7191   32.3574 H   0  0  0  0  0  0  0  0  0  0  0  0
   41.1604   28.0504   34.6077 H   0  0  0  0  0  0  0  0  0  0  0  0
   41.0330   25.6037   35.1777 H   0  0  0  0  0  0  0  0  0  0  0  0
   36.4187   23.7469   32.2802 H   0  0  0  0  0  0  0  0  0  0  0  0
   39.1322   20.6693   33.5729 H   0  0  0  0  0  0  0  0  0  0  0  0
   38.2800   26.6966   37.2616 H   0  0  0  0  0  0  0  0  0  0  0  0
   38.3718   24.3762   36.3367 H   0  0  0  0  0  0  0  0  0  0  0  0
   37.5874   28.2329   33.3941 H   0  0  0  0  0  0  0  0  0  0  0  0
  1  2  2  0
  2  3  1  0
  4  3  2  0
  5  4  1  0
  6  1  1  0
  6  5  2  0
  7  6  1  0
  8  7  2  0
  9  8  1  0
 10  9  2  0
 10 11  1  0
 11 16  2  0
 12 11  1  0
 12 13  2  0
 13 14  1  0
 14 15  2  0
 16  7  1  0
 16 15  1  0
 17 21  1  0
 17 24  1  0
 18 17  2  0
 19 18  1  0
 19 20  2  0
 20 21  1  0
 21  1  1  0
 23 22  2  0
 24 23  1  0
 25 26  1  0
 25 24  2  0
 26 27  2  0
 27 22  1  0
  2 28  1  0
  3 29  1  0
  4 30  1  0
  5 31  1  0
  8 32  1  0
  9 33  1  0
 10 34  1  0
 12 35  1  0
 13 36  1  0
 14 37  1  0
 15 38  1  0
 18 39  1  0
 20 40  1  0
 22 41  1  0
 23 42  1  0
 26 43  1  0
M  ISO  8  28  14  29  14  30  14  31  14  32  14  33  14  34  14  35  14
M  ISO  8  36  14  37  14  38  14  39  14  40  14  41  14  42  14  43  14
M  END
>  <minimizedAffinity>  (1) 
-4.91449118

>  <minimizedRMSD>  (1) 
3.59645629

$$$$
