
     RDKit          3D

 34 37  0  0  0  0  0  0  0  0999 V2000
   39.9660   23.8800   33.3590 C   0  0  0  0  0  0  0  0  0  0  0  0
   40.9190   24.3710   32.4500 C   0  0  0  0  0  0  0  0  0  0  0  0
   41.8390   25.0260   33.2280 N   0  0  0  0  0  0  0  0  0  0  0  0
   41.4340   24.9130   34.5090 C   0  0  0  0  0  0  0  0  0  0  0  0
   40.3060   24.2280   34.6220 N   0  0  0  0  0  0  0  0  0  0  0  0
   39.6800   23.9810   35.8720 C   0  0  0  0  0  0  0  0  0  0  0  0
   40.0580   22.8890   36.6870 C   0  0  0  0  0  0  0  0  0  0  0  0
   39.5060   22.6560   37.9170 C   0  0  0  0  0  0  0  0  0  0  0  0
   38.5470   23.5010   38.4010 C   0  0  0  0  0  0  0  0  0  0  0  0
   38.1490   24.5750   37.6460 C   0  0  0  0  0  0  0  0  0  0  0  0
   38.7010   24.8230   36.3870 C   0  0  0  0  0  0  0  0  0  0  0  0
   38.0430   25.9100   35.6900 C   0  0  0  0  0  0  0  0  0  0  0  0
   38.1970   27.2580   35.9810 C   0  0  0  0  0  0  0  0  0  0  0  0
   37.4870   28.0090   35.1010 N   0  0  0  0  0  0  0  0  0  0  0  0
   36.8690   27.1710   34.2400 C   0  0  0  0  0  0  0  0  0  0  0  0
   37.2310   25.9580   34.6350 N   0  0  0  0  0  0  0  0  0  0  0  0
   37.8510   20.9060   32.6040 C   0  0  0  0  0  0  0  0  0  0  0  0
   38.9230   21.7110   32.9770 C   0  0  0  0  0  0  0  0  0  0  0  0
   38.8270   23.1020   32.9560 C   0  0  0  0  0  0  0  0  0  0  0  0
   37.6290   23.6340   32.5510 N   0  0  0  0  0  0  0  0  0  0  0  0
   36.6020   22.8250   32.1950 C   0  0  0  0  0  0  0  0  0  0  0  0
   36.7150   21.4900   32.2220 N   0  0  0  0  0  0  0  0  0  0  0  0
   40.9255   24.2554   31.3561 H   0  0  0  0  0  0  0  0  0  0  0  0
   41.9786   25.3412   35.3634 H   0  0  0  0  0  0  0  0  0  0  0  0
   40.8288   22.1973   36.3162 H   0  0  0  0  0  0  0  0  0  0  0  0
   39.8328   21.7919   38.5141 H   0  0  0  0  0  0  0  0  0  0  0  0
   38.0976   23.3212   39.3888 H   0  0  0  0  0  0  0  0  0  0  0  0
   37.3793   25.2549   38.0401 H   0  0  0  0  0  0  0  0  0  0  0  0
   38.8057   27.6594   36.8047 H   0  0  0  0  0  0  0  0  0  0  0  0
   36.2118   27.4360   33.3986 H   0  0  0  0  0  0  0  0  0  0  0  0
   36.9048   25.1064   34.1562 H   0  0  0  0  0  0  0  0  0  0  0  0
   37.9391   19.8097   32.6239 H   0  0  0  0  0  0  0  0  0  0  0  0
   39.8652   21.2406   33.2948 H   0  0  0  0  0  0  0  0  0  0  0  0
   35.6508   23.2758   31.8755 H   0  0  0  0  0  0  0  0  0  0  0  0
  1  5  1  0
  2  3  1  0
  2  1  2  0
  3  4  2  0
  4  5  1  0
  5  6  1  0
  6 11  1  0
  6  7  2  0
  7  8  1  0
  8  9  2  0
 10  9  1  0
 11 10  2  0
 12 13  2  0
 12 11  1  0
 14 13  1  0
 15 16  1  0
 15 14  2  0
 16 12  1  0
 17 18  2  0
 19 18  1  0
 19  1  1  0
 20 19  2  0
 21 22  2  0
 21 20  1  0
 22 17  1  0
  2 23  1  0
  4 24  1  0
  7 25  1  0
  8 26  1  0
  9 27  1  0
 10 28  1  0
 13 29  1  0
 15 30  1  0
 16 31  1  0
 17 32  1  0
 18 33  1  0
 21 34  1  0
M  ISO  8  23  14  24  14  25  14  26  14  27  14  28  14  29  14  30  14
M  ISO  4  31   9  32  14  33  14  34  14
M  END
>  <minimizedAffinity>  (1) 
-4.76532459

>  <minimizedRMSD>  (1) 
4.20424461

$$$$
