
     RDKit          3D

 40 43  0  0  0  0  0  0  0  0999 V2000
   39.7590   22.6370   34.9860 C   0  0  0  0  0  0  0  0  0  0  0  0
   39.0570   21.8110   34.0810 C   0  0  0  0  0  0  0  0  0  0  0  0
   40.0120   21.4350   33.1660 N   0  0  0  0  0  0  0  0  0  0  0  0
   41.1730   22.0180   33.5390 C   0  0  0  0  0  0  0  0  0  0  0  0
   41.0550   22.7410   34.6200 N   0  0  0  0  0  0  0  0  0  0  0  0
   42.1350   23.4420   35.1950 C   0  0  0  0  0  0  0  0  0  0  0  0
   43.0560   22.8370   36.0730 C   0  0  0  0  0  0  0  0  0  0  0  0
   44.1080   23.5410   36.6270 C   0  0  0  0  0  0  0  0  0  0  0  0
   44.2930   24.8680   36.3370 C   0  0  0  0  0  0  0  0  0  0  0  0
   43.4250   25.5000   35.4910 C   0  0  0  0  0  0  0  0  0  0  0  0
   42.3840   24.7870   34.9480 C   0  0  0  0  0  0  0  0  0  0  0  0
   41.5270   25.5210   34.0790 N   0  0  0  0  0  0  0  0  0  0  0  0
   41.3570   25.5900   32.6410 C   0  0  0  0  0  0  0  0  0  0  0  0
   39.8600   25.3950   32.3810 C   0  0  0  0  0  0  0  0  0  0  0  0
   39.1130   26.4380   32.8620 O   0  0  0  0  0  0  0  0  0  0  0  0
   39.7940   27.2340   33.7740 C   0  0  0  0  0  0  0  0  0  0  0  0
   40.5930   26.4180   34.7390 C   0  0  0  0  0  0  0  0  0  0  0  0
   38.8430   23.3640   38.5230 C   0  0  0  0  0  0  0  0  0  0  0  0
   39.4420   22.7890   37.3980 C   0  0  0  0  0  0  0  0  0  0  0  0
   39.1140   23.2600   36.1350 C   0  0  0  0  0  0  0  0  0  0  0  0
   38.2020   24.2870   36.0350 N   0  0  0  0  0  0  0  0  0  0  0  0
   37.6420   24.8200   37.1400 C   0  0  0  0  0  0  0  0  0  0  0  0
   37.9550   24.3670   38.3730 N   0  0  0  0  0  0  0  0  0  0  0  0
   37.9930   21.5329   34.1029 H   0  0  0  0  0  0  0  0  0  0  0  0
   42.1181   21.8962   32.9896 H   0  0  0  0  0  0  0  0  0  0  0  0
   42.9340   21.7732   36.3248 H   0  0  0  0  0  0  0  0  0  0  0  0
   44.8048   23.0309   37.3084 H   0  0  0  0  0  0  0  0  0  0  0  0
   45.1339   25.4203   36.7819 H   0  0  0  0  0  0  0  0  0  0  0  0
   43.5583   26.5646   35.2484 H   0  0  0  0  0  0  0  0  0  0  0  0
   41.6856   26.5698   32.2642 H   0  0  0  0  0  0  0  0  0  0  0  0
   41.9573   24.8243   32.1279 H   0  0  0  0  0  0  0  0  0  0  0  0
   39.6963   25.3120   31.2964 H   0  0  0  0  0  0  0  0  0  0  0  0
   39.5417   24.4811   32.9039 H   0  0  0  0  0  0  0  0  0  0  0  0
   40.4740   27.9019   33.2249 H   0  0  0  0  0  0  0  0  0  0  0  0
   39.0509   27.8082   34.3468 H   0  0  0  0  0  0  0  0  0  0  0  0
   39.9015   25.8186   35.3493 H   0  0  0  0  0  0  0  0  0  0  0  0
   41.1812   27.1146   35.3545 H   0  0  0  0  0  0  0  0  0  0  0  0
   39.0961   22.9984   39.5291 H   0  0  0  0  0  0  0  0  0  0  0  0
   40.1672   21.9700   37.5134 H   0  0  0  0  0  0  0  0  0  0  0  0
   36.9161   25.6398   37.0349 H   0  0  0  0  0  0  0  0  0  0  0  0
  1 20  1  0
  2  1  2  0
  3  4  2  0
  3  2  1  0
  4  5  1  0
  5  1  1  0
  5  6  1  0
  6  7  2  0
  7  8  1  0
  9  8  2  0
 10  9  1  0
 11  6  1  0
 11 10  2  0
 12 17  1  0
 12 11  1  0
 13 12  1  0
 14 13  1  0
 14 15  1  0
 15 16  1  0
 16 17  1  0
 19 18  2  0
 20 19  1  0
 21 20  2  0
 21 22  1  0
 22 23  2  0
 23 18  1  0
  2 24  1  0
  4 25  1  0
  7 26  1  0
  8 27  1  0
  9 28  1  0
 10 29  1  0
 13 30  1  0
 13 31  1  0
 14 32  1  0
 14 33  1  0
 16 34  1  0
 16 35  1  0
 17 36  1  0
 17 37  1  0
 18 38  1  0
 19 39  1  0
 22 40  1  0
M  ISO  8  24  14  25  14  26  14  27  14  28  14  29  14  30  13  31  13
M  ISO  8  32  13  33  13  34  13  35  13  36  13  37  13  38  14  39  14
M  ISO  1  40  14
M  END
>  <minimizedAffinity>  (1) 
-4.64430046

>  <minimizedRMSD>  (1) 
2.56142998

$$$$
