
     RDKit          3D

 33 36  0  0  0  0  0  0  0  0999 V2000
   39.7430   22.7740   35.0980 C   0  0  0  0  0  0  0  0  0  0  0  0
   38.9870   22.0050   34.1930 C   0  0  0  0  0  0  0  0  0  0  0  0
   39.9000   21.6430   33.2210 N   0  0  0  0  0  0  0  0  0  0  0  0
   41.0930   22.1860   33.5790 C   0  0  0  0  0  0  0  0  0  0  0  0
   41.0210   22.8650   34.6960 N   0  0  0  0  0  0  0  0  0  0  0  0
   42.1400   23.5200   35.2640 C   0  0  0  0  0  0  0  0  0  0  0  0
   43.0540   22.8690   36.0930 C   0  0  0  0  0  0  0  0  0  0  0  0
   44.1510   23.5110   36.6500 C   0  0  0  0  0  0  0  0  0  0  0  0
   44.3610   24.8510   36.3820 C   0  0  0  0  0  0  0  0  0  0  0  0
   43.4830   25.5430   35.5660 C   0  0  0  0  0  0  0  0  0  0  0  0
   42.4050   24.8770   35.0290 C   0  0  0  0  0  0  0  0  0  0  0  0
   41.5320   25.6330   34.1970 N   0  0  0  0  0  0  0  0  0  0  0  0
   40.6510   26.5130   34.7590 C   0  0  0  0  0  0  0  0  0  0  0  0
   39.9210   27.1190   33.7800 N   0  0  0  0  0  0  0  0  0  0  0  0
   40.3630   26.6030   32.6190 C   0  0  0  0  0  0  0  0  0  0  0  0
   41.3460   25.6960   32.8830 N   0  0  0  0  0  0  0  0  0  0  0  0
   38.9360   23.3550   38.6880 C   0  0  0  0  0  0  0  0  0  0  0  0
   39.4920   22.8080   37.5260 C   0  0  0  0  0  0  0  0  0  0  0  0
   39.1520   23.3610   36.2920 C   0  0  0  0  0  0  0  0  0  0  0  0
   38.2790   24.4250   36.2870 N   0  0  0  0  0  0  0  0  0  0  0  0
   37.7650   24.9240   37.4210 C   0  0  0  0  0  0  0  0  0  0  0  0
   38.0930   24.3900   38.6180 N   0  0  0  0  0  0  0  0  0  0  0  0
   37.9180   21.7513   34.2471 H   0  0  0  0  0  0  0  0  0  0  0  0
   42.0175   22.0681   32.9947 H   0  0  0  0  0  0  0  0  0  0  0  0
   42.8987   21.8027   36.3143 H   0  0  0  0  0  0  0  0  0  0  0  0
   44.8470   22.9589   37.2987 H   0  0  0  0  0  0  0  0  0  0  0  0
   45.2281   25.3684   36.8184 H   0  0  0  0  0  0  0  0  0  0  0  0
   43.6444   26.6094   35.3499 H   0  0  0  0  0  0  0  0  0  0  0  0
   40.5466   26.7036   35.8373 H   0  0  0  0  0  0  0  0  0  0  0  0
   39.9915   26.8697   31.6186 H   0  0  0  0  0  0  0  0  0  0  0  0
   39.1952   22.9291   39.6685 H   0  0  0  0  0  0  0  0  0  0  0  0
   40.1855   21.9562   37.5852 H   0  0  0  0  0  0  0  0  0  0  0  0
   37.0702   25.7756   37.3761 H   0  0  0  0  0  0  0  0  0  0  0  0
  1 19  1  0
  2  1  2  0
  3  4  2  0
  3  2  1  0
  4  5  1  0
  5  1  1  0
  5  6  1  0
  6  7  2  0
  7  8  1  0
  9  8  2  0
 10  9  1  0
 11  6  1  0
 11 10  2  0
 12 13  1  0
 12 11  1  0
 14 13  2  0
 15 16  2  0
 15 14  1  0
 16 12  1  0
 18 17  2  0
 19 18  1  0
 20 19  2  0
 20 21  1  0
 21 22  2  0
 22 17  1  0
  2 23  1  0
  4 24  1  0
  7 25  1  0
  8 26  1  0
  9 27  1  0
 10 28  1  0
 13 29  1  0
 15 30  1  0
 17 31  1  0
 18 32  1  0
 21 33  1  0
M  ISO  8  23  14  24  14  25  14  26  14  27  14  28  14  29  14  30  14
M  ISO  3  31  14  32  14  33  14
M  END
>  <minimizedAffinity>  (1) 
-4.60572004

>  <minimizedRMSD>  (1) 
2.37366009

$$$$
