
     RDKit          3D

 30 32  0  0  0  0  0  0  0  0999 V2000
   39.7850   22.7810   35.0400 C   0  0  0  0  0  0  0  0  0  0  0  0
   39.0490   22.0400   34.0960 C   0  0  0  0  0  0  0  0  0  0  0  0
   39.9900   21.7190   33.1290 N   0  0  0  0  0  0  0  0  0  0  0  0
   41.1700   22.2550   33.5290 C   0  0  0  0  0  0  0  0  0  0  0  0
   41.0790   22.8940   34.6610 N   0  0  0  0  0  0  0  0  0  0  0  0
   42.1740   23.5340   35.2580 C   0  0  0  0  0  0  0  0  0  0  0  0
   43.1120   22.8390   36.0600 C   0  0  0  0  0  0  0  0  0  0  0  0
   44.1940   23.4540   36.6520 C   0  0  0  0  0  0  0  0  0  0  0  0
   44.4050   24.7960   36.4800 C   0  0  0  0  0  0  0  0  0  0  0  0
   43.5180   25.5300   35.7040 C   0  0  0  0  0  0  0  0  0  0  0  0
   42.4240   24.9150   35.1050 C   0  0  0  0  0  0  0  0  0  0  0  0
   41.5710   25.8200   34.2970 C   0  0  0  0  0  0  0  0  0  0  0  0
   41.1240   25.2380   33.1220 F   0  0  0  0  0  0  0  0  0  0  0  0
   42.0450   27.0890   34.1930 F   0  0  0  0  0  0  0  0  0  0  0  0
   40.3330   26.0060   35.0010 F   0  0  0  0  0  0  0  0  0  0  0  0
   39.0810   23.2730   38.6690 C   0  0  0  0  0  0  0  0  0  0  0  0
   39.6290   22.8070   37.4780 C   0  0  0  0  0  0  0  0  0  0  0  0
   39.1770   23.2970   36.2520 C   0  0  0  0  0  0  0  0  0  0  0  0
   38.1840   24.2430   36.2740 N   0  0  0  0  0  0  0  0  0  0  0  0
   37.6750   24.6710   37.4550 C   0  0  0  0  0  0  0  0  0  0  0  0
   38.1190   24.1920   38.6360 N   0  0  0  0  0  0  0  0  0  0  0  0
   37.9810   21.7778   34.1197 H   0  0  0  0  0  0  0  0  0  0  0  0
   42.1054   22.1603   32.9579 H   0  0  0  0  0  0  0  0  0  0  0  0
   42.9705   21.7596   36.2175 H   0  0  0  0  0  0  0  0  0  0  0  0
   44.8911   22.8642   37.2653 H   0  0  0  0  0  0  0  0  0  0  0  0
   45.2685   25.2876   36.9519 H   0  0  0  0  0  0  0  0  0  0  0  0
   43.6822   26.6083   35.5616 H   0  0  0  0  0  0  0  0  0  0  0  0
   39.4410   22.8838   39.6328 H   0  0  0  0  0  0  0  0  0  0  0  0
   40.4240   22.0471   37.5030 H   0  0  0  0  0  0  0  0  0  0  0  0
   36.8783   25.4294   37.4508 H   0  0  0  0  0  0  0  0  0  0  0  0
  1 18  1  0
  2  1  2  0
  3  4  2  0
  3  2  1  0
  4  5  1  0
  5  1  1  0
  5  6  1  0
  6  7  2  0
  7  8  1  0
  9  8  2  0
 10  9  1  0
 11  6  1  0
 11 10  2  0
 12 15  1  0
 12 11  1  0
 13 12  1  0
 14 12  1  0
 17 16  2  0
 18 19  2  0
 18 17  1  0
 19 20  1  0
 20 21  2  0
 21 16  1  0
  2 22  1  0
  4 23  1  0
  7 24  1  0
  8 25  1  0
  9 26  1  0
 10 27  1  0
 16 28  1  0
 17 29  1  0
 20 30  1  0
M  ISO  8  22  14  23  14  24  14  25  14  26  14  27  14  28  14  29  14
M  ISO  1  30  14
M  END
>  <minimizedAffinity>  (1) 
-4.49215126

>  <minimizedRMSD>  (1) 
2.19132352

$$$$
