
     RDKit          3D

 33 35  0  0  0  0  0  0  0  0999 V2000
   39.7140   22.7870   35.1080 C   0  0  0  0  0  0  0  0  0  0  0  0
   38.9860   21.9580   34.2230 C   0  0  0  0  0  0  0  0  0  0  0  0
   39.9090   21.6100   33.2580 N   0  0  0  0  0  0  0  0  0  0  0  0
   41.0750   22.2120   33.5900 C   0  0  0  0  0  0  0  0  0  0  0  0
   40.9820   22.9220   34.6950 N   0  0  0  0  0  0  0  0  0  0  0  0
   42.0770   23.6280   35.2210 C   0  0  0  0  0  0  0  0  0  0  0  0
   42.9810   23.0310   36.1300 C   0  0  0  0  0  0  0  0  0  0  0  0
   44.0720   23.6950   36.6510 C   0  0  0  0  0  0  0  0  0  0  0  0
   44.3130   25.0130   36.2830 C   0  0  0  0  0  0  0  0  0  0  0  0
   43.4540   25.6430   35.3950 C   0  0  0  0  0  0  0  0  0  0  0  0
   42.3750   24.9560   34.8920 C   0  0  0  0  0  0  0  0  0  0  0  0
   41.4930   25.7330   33.9730 C   0  0  0  0  0  0  0  0  0  0  0  0
   40.5790   26.6880   34.7390 C   0  0  0  0  0  0  0  0  0  0  0  0
   38.8470   23.3690   38.6770 C   0  0  0  0  0  0  0  0  0  0  0  0
   39.4080   22.8320   37.5170 C   0  0  0  0  0  0  0  0  0  0  0  0
   39.1140   23.3760   36.2900 C   0  0  0  0  0  0  0  0  0  0  0  0
   38.2540   24.4580   36.2550 N   0  0  0  0  0  0  0  0  0  0  0  0
   37.7300   24.9510   37.3940 C   0  0  0  0  0  0  0  0  0  0  0  0
   38.0230   24.4120   38.5950 N   0  0  0  0  0  0  0  0  0  0  0  0
   37.9292   21.6598   34.2887 H   0  0  0  0  0  0  0  0  0  0  0  0
   41.9993   22.1183   33.0010 H   0  0  0  0  0  0  0  0  0  0  0  0
   42.8060   21.9889   36.4357 H   0  0  0  0  0  0  0  0  0  0  0  0
   44.7471   23.1843   37.3535 H   0  0  0  0  0  0  0  0  0  0  0  0
   45.1791   25.5530   36.6932 H   0  0  0  0  0  0  0  0  0  0  0  0
   43.6350   26.6857   35.0952 H   0  0  0  0  0  0  0  0  0  0  0  0
   40.8723   25.0311   33.3967 H   0  0  0  0  0  0  0  0  0  0  0  0
   42.1333   26.3311   33.3080 H   0  0  0  0  0  0  0  0  0  0  0  0
   40.7192   26.5415   35.8202 H   0  0  0  0  0  0  0  0  0  0  0  0
   40.8287   27.7260   34.4742 H   0  0  0  0  0  0  0  0  0  0  0  0
   39.5310   26.4840   34.4742 H   0  0  0  0  0  0  0  0  0  0  0  0
   39.0853   22.9312   39.6576 H   0  0  0  0  0  0  0  0  0  0  0  0
   40.0880   21.9701   37.5855 H   0  0  0  0  0  0  0  0  0  0  0  0
   37.0479   25.8125   37.3433 H   0  0  0  0  0  0  0  0  0  0  0  0
  1 16  1  0
  2  1  2  0
  3  4  2  0
  3  2  1  0
  4  5  1  0
  5  1  1  0
  5  6  1  0
  6  7  2  0
  7  8  1  0
  9  8  2  0
 10  9  1  0
 11  6  1  0
 11 10  2  0
 12 13  1  0
 12 11  1  0
 15 14  2  0
 16 15  1  0
 17 16  2  0
 17 18  1  0
 18 19  2  0
 19 14  1  0
  2 20  1  0
  4 21  1  0
  7 22  1  0
  8 23  1  0
  9 24  1  0
 10 25  1  0
 12 26  1  0
 12 27  1  0
 13 28  1  0
 13 29  1  0
 13 30  1  0
 14 31  1  0
 15 32  1  0
 18 33  1  0
M  ISO  8  20  14  21  14  22  14  23  14  24  14  25  14  26   8  27   8
M  ISO  6  28   8  29   8  30   8  31  14  32  14  33  14
M  END
>  <minimizedAffinity>  (1) 
-4.40634632

>  <minimizedRMSD>  (1) 
2.15616131

$$$$
