
     RDKit          3D

 30 32  0  0  0  0  0  0  0  0999 V2000
   39.6950   24.3560   33.4250 C   0  0  0  0  0  0  0  0  0  0  0  0
   39.4480   24.5940   32.0610 C   0  0  0  0  0  0  0  0  0  0  0  0
   38.0940   24.8710   32.0080 N   0  0  0  0  0  0  0  0  0  0  0  0
   37.6200   24.7910   33.2740 C   0  0  0  0  0  0  0  0  0  0  0  0
   38.5490   24.4860   34.1350 N   0  0  0  0  0  0  0  0  0  0  0  0
   38.2870   24.3430   35.5120 C   0  0  0  0  0  0  0  0  0  0  0  0
   38.0090   23.0950   36.1100 C   0  0  0  0  0  0  0  0  0  0  0  0
   37.7590   22.9840   37.4640 C   0  0  0  0  0  0  0  0  0  0  0  0
   37.7700   24.0760   38.2850 C   0  0  0  0  0  0  0  0  0  0  0  0
   38.0320   25.3060   37.7560 C   0  0  0  0  0  0  0  0  0  0  0  0
   38.2760   25.4010   36.4150 C   0  0  0  0  0  0  0  0  0  0  0  0
   38.4830   26.7640   35.9820 C   0  0  0  0  0  0  0  0  0  0  0  0
   39.5030   27.2780   35.4720 O   0  0  0  0  0  0  0  0  0  0  0  0
   37.8970   27.9970   35.8790 O   0  0  0  0  0  0  0  0  0  0  0  0
   43.1020   24.8370   34.8620 C   0  0  0  0  0  0  0  0  0  0  0  0
   41.8280   25.0880   34.3590 C   0  0  0  0  0  0  0  0  0  0  0  0
   41.0100   24.0410   33.9320 C   0  0  0  0  0  0  0  0  0  0  0  0
   41.5110   22.7640   34.0310 N   0  0  0  0  0  0  0  0  0  0  0  0
   42.7540   22.5520   34.5250 C   0  0  0  0  0  0  0  0  0  0  0  0
   43.5410   23.5820   34.9360 N   0  0  0  0  0  0  0  0  0  0  0  0
   40.1662   24.5662   31.2283 H   0  0  0  0  0  0  0  0  0  0  0  0
   36.5681   24.9642   33.5451 H   0  0  0  0  0  0  0  0  0  0  0  0
   37.9910   22.1907   35.4839 H   0  0  0  0  0  0  0  0  0  0  0  0
   37.5460   21.9930   37.8913 H   0  0  0  0  0  0  0  0  0  0  0  0
   37.5698   23.9647   39.3609 H   0  0  0  0  0  0  0  0  0  0  0  0
   38.0465   26.2013   38.3949 H   0  0  0  0  0  0  0  0  0  0  0  0
   38.4031   28.7549   35.4922 H   0  0  0  0  0  0  0  0  0  0  0  0
   43.7404   25.6684   35.1954 H   0  0  0  0  0  0  0  0  0  0  0  0
   41.4621   26.1235   34.2975 H   0  0  0  0  0  0  0  0  0  0  0  0
   43.1358   21.5228   34.5954 H   0  0  0  0  0  0  0  0  0  0  0  0
  1 17  1  0
  1  5  1  0
  2  1  2  0
  3  2  1  0
  3  4  2  0
  4  5  1  0
  5  6  1  0
  6  7  2  0
  6 11  1  0
  7  8  1  0
  8  9  2  0
 10  9  1  0
 11 10  2  0
 12 11  1  0
 13 12  2  0
 14 12  1  0
 15 20  2  0
 16 15  1  0
 17 18  1  0
 17 16  2  0
 18 19  2  0
 19 20  1  0
  2 21  1  0
  4 22  1  0
  7 23  1  0
  8 24  1  0
  9 25  1  0
 10 26  1  0
 14 27  1  0
 15 28  1  0
 16 29  1  0
 19 30  1  0
M  ISO  8  21  14  22  14  23  14  24  14  25  14  26  14  27   3  28  14
M  ISO  2  29  14  30  14
M  END
>  <minimizedAffinity>  (1) 
-4.31553841

>  <minimizedRMSD>  (1) 
4.52106285

$$$$
