
     RDKit          3D

 28 30  0  0  0  0  0  0  0  0999 V2000
   39.7140   24.1650   33.8530 C   0  0  0  0  0  0  0  0  0  0  0  0
   39.1320   24.3640   32.5840 C   0  0  0  0  0  0  0  0  0  0  0  0
   40.1900   24.5430   31.7350 N   0  0  0  0  0  0  0  0  0  0  0  0
   41.3290   24.4520   32.4800 C   0  0  0  0  0  0  0  0  0  0  0  0
   41.0550   24.2260   33.7480 N   0  0  0  0  0  0  0  0  0  0  0  0
   42.0820   24.0930   34.7200 C   0  0  0  0  0  0  0  0  0  0  0  0
   42.5210   22.8560   35.2010 C   0  0  0  0  0  0  0  0  0  0  0  0
   43.5140   22.7180   36.1410 C   0  0  0  0  0  0  0  0  0  0  0  0
   44.1220   23.8350   36.6490 C   0  0  0  0  0  0  0  0  0  0  0  0
   43.7390   25.0890   36.2180 C   0  0  0  0  0  0  0  0  0  0  0  0
   42.7410   25.2010   35.2760 C   0  0  0  0  0  0  0  0  0  0  0  0
   42.3200   26.4450   34.8090 O   0  0  0  0  0  0  0  0  0  0  0  0
   37.5720   22.4630   36.3550 C   0  0  0  0  0  0  0  0  0  0  0  0
   38.3310   22.6990   35.2020 C   0  0  0  0  0  0  0  0  0  0  0  0
   38.9380   23.9370   35.0410 C   0  0  0  0  0  0  0  0  0  0  0  0
   38.7630   24.8950   36.0390 N   0  0  0  0  0  0  0  0  0  0  0  0
   38.0190   24.6100   37.1300 C   0  0  0  0  0  0  0  0  0  0  0  0
   37.4310   23.4160   37.2900 N   0  0  0  0  0  0  0  0  0  0  0  0
   38.0613   24.3733   32.3318 H   0  0  0  0  0  0  0  0  0  0  0  0
   42.3461   24.5543   32.0736 H   0  0  0  0  0  0  0  0  0  0  0  0
   42.0467   21.9453   34.8064 H   0  0  0  0  0  0  0  0  0  0  0  0
   43.8182   21.7177   36.4828 H   0  0  0  0  0  0  0  0  0  0  0  0
   44.9172   23.7326   37.4021 H   0  0  0  0  0  0  0  0  0  0  0  0
   44.2256   25.9888   36.6225 H   0  0  0  0  0  0  0  0  0  0  0  0
   42.7395   27.2719   35.1560 H   0  0  0  0  0  0  0  0  0  0  0  0
   37.0861   21.4863   36.4961 H   0  0  0  0  0  0  0  0  0  0  0  0
   38.4442   21.9167   34.4370 H   0  0  0  0  0  0  0  0  0  0  0  0
   37.8924   25.3778   37.9074 H   0  0  0  0  0  0  0  0  0  0  0  0
  1 15  1  0
  2  1  2  0
  3  4  2  0
  3  2  1  0
  4  5  1  0
  5  1  1  0
  5  6  1  0
  6  7  2  0
  6 11  1  0
  7  8  1  0
  8  9  2  0
 10  9  1  0
 11 10  2  0
 12 11  1  0
 13 18  2  0
 14 13  1  0
 15 14  2  0
 15 16  1  0
 16 17  2  0
 17 18  1  0
  2 19  1  0
  4 20  1  0
  7 21  1  0
  8 22  1  0
  9 23  1  0
 10 24  1  0
 12 25  1  0
 13 26  1  0
 14 27  1  0
 17 28  1  0
M  ISO  8  19  14  20  14  21  14  22  14  23  14  24  14  25   3  26  14
M  ISO  2  27  14  28  14
M  END
>  <minimizedAffinity>  (1) 
-4.00473595

>  <minimizedRMSD>  (1) 
0.653421164

$$$$
