
     RDKit          3D

 28 30  0  0  0  0  0  0  0  0999 V2000
   39.7030   23.5940   33.9720 C   0  0  0  0  0  0  0  0  0  0  0  0
   39.0860   23.3880   32.7190 C   0  0  0  0  0  0  0  0  0  0  0  0
   40.1280   23.2390   31.8400 N   0  0  0  0  0  0  0  0  0  0  0  0
   41.2780   23.3530   32.5540 C   0  0  0  0  0  0  0  0  0  0  0  0
   41.0400   23.5660   33.8360 N   0  0  0  0  0  0  0  0  0  0  0  0
   42.0830   23.7210   34.7870 C   0  0  0  0  0  0  0  0  0  0  0  0
   42.6220   22.6530   35.5090 C   0  0  0  0  0  0  0  0  0  0  0  0
   43.6340   22.8040   36.4300 C   0  0  0  0  0  0  0  0  0  0  0  0
   44.1540   24.0500   36.6670 C   0  0  0  0  0  0  0  0  0  0  0  0
   43.6640   25.1520   35.9840 C   0  0  0  0  0  0  0  0  0  0  0  0
   42.6550   24.9670   35.0720 C   0  0  0  0  0  0  0  0  0  0  0  0
   41.9730   26.3500   34.1510 S   0  0  0  0  0  0  0  0  0  0  0  0
   37.5730   22.8730   36.9330 C   0  0  0  0  0  0  0  0  0  0  0  0
   38.3090   22.7010   35.7580 C   0  0  0  0  0  0  0  0  0  0  0  0
   38.9510   23.7970   35.1850 C   0  0  0  0  0  0  0  0  0  0  0  0
   38.8260   25.0250   35.8200 N   0  0  0  0  0  0  0  0  0  0  0  0
   38.1090   25.1400   36.9460 C   0  0  0  0  0  0  0  0  0  0  0  0
   37.4890   24.0760   37.4990 N   0  0  0  0  0  0  0  0  0  0  0  0
   38.0091   23.3545   32.4972 H   0  0  0  0  0  0  0  0  0  0  0  0
   42.2850   23.2772   32.1178 H   0  0  0  0  0  0  0  0  0  0  0  0
   42.2190   21.6447   35.3333 H   0  0  0  0  0  0  0  0  0  0  0  0
   44.0231   21.9298   36.9726 H   0  0  0  0  0  0  0  0  0  0  0  0
   44.9629   24.1757   37.4017 H   0  0  0  0  0  0  0  0  0  0  0  0
   44.0756   26.1551   36.1692 H   0  0  0  0  0  0  0  0  0  0  0  0
   41.5067   27.2956   35.0258 H   0  0  0  0  0  0  0  0  0  0  0  0
   37.0620   22.0136   37.3916 H   0  0  0  0  0  0  0  0  0  0  0  0
   38.3811   21.7086   35.2891 H   0  0  0  0  0  0  0  0  0  0  0  0
   38.0236   26.1237   37.4308 H   0  0  0  0  0  0  0  0  0  0  0  0
  1 15  1  0
  2  1  2  0
  3  4  2  0
  3  2  1  0
  4  5  1  0
  5  1  1  0
  5  6  1  0
  6 11  1  0
  6  7  2  0
  7  8  1  0
  8  9  2  0
 10  9  1  0
 11 10  2  0
 12 11  1  0
 13 18  2  0
 14 13  1  0
 15 14  2  0
 15 16  1  0
 16 17  2  0
 17 18  1  0
  2 19  1  0
  4 20  1  0
  7 21  1  0
  8 22  1  0
  9 23  1  0
 10 24  1  0
 12 25  1  0
 13 26  1  0
 14 27  1  0
 17 28  1  0
M  ISO  8  19  14  20  14  21  14  22  14  23  14  24  14  25  11  26  14
M  ISO  2  27  14  28  14
M  END
>  <minimizedAffinity>  (1) 
-3.75758171

>  <minimizedRMSD>  (1) 
1.20894492

$$$$
