
     RDKit          3D

 42 45  0  0  0  0  0  0  0  0999 V2000
   38.7610   23.8100   35.6130 C   0  0  0  0  0  0  0  0  0  0  0  0
   38.0480   23.3920   36.7620 C   0  0  0  0  0  0  0  0  0  0  0  0
   39.0180   22.9550   37.6390 N   0  0  0  0  0  0  0  0  0  0  0  0
   40.2200   23.1230   37.0090 C   0  0  0  0  0  0  0  0  0  0  0  0
   40.0790   23.6270   35.8130 N   0  0  0  0  0  0  0  0  0  0  0  0
   37.1720   23.9650   32.2540 C   0  0  0  0  0  0  0  0  0  0  0  0
   37.8180   23.4680   33.3950 C   0  0  0  0  0  0  0  0  0  0  0  0
   38.0940   24.3430   34.4450 C   0  0  0  0  0  0  0  0  0  0  0  0
   37.7190   25.6680   34.3180 N   0  0  0  0  0  0  0  0  0  0  0  0
   37.1000   26.0940   33.1970 C   0  0  0  0  0  0  0  0  0  0  0  0
   36.8320   25.2570   32.1840 N   0  0  0  0  0  0  0  0  0  0  0  0
   36.7080   27.4550   33.0520 N   0  0  0  0  0  0  0  0  0  0  0  0
   36.0440   28.2410   33.9180 C   0  0  0  0  0  0  0  0  0  0  0  0
   35.7520   29.5430   33.5990 C   0  0  0  0  0  0  0  0  0  0  0  0
   35.0180   30.3540   34.5980 C   0  0  0  0  0  0  0  0  0  0  0  0
   36.1360   30.0860   32.3680 C   0  0  0  0  0  0  0  0  0  0  0  0
   35.8680   31.2810   32.0760 O   0  0  0  0  0  0  0  0  0  0  0  0
   36.7930   29.2520   31.5520 N   0  0  0  0  0  0  0  0  0  0  0  0
   37.0880   27.9720   31.8480 C   0  0  0  0  0  0  0  0  0  0  0  0
   37.7150   27.3670   30.9280 O   0  0  0  0  0  0  0  0  0  0  0  0
   41.1820   23.8900   34.9690 C   0  0  0  0  0  0  0  0  0  0  0  0
   41.9020   25.0970   34.9850 C   0  0  0  0  0  0  0  0  0  0  0  0
   42.9660   25.3450   34.1670 C   0  0  0  0  0  0  0  0  0  0  0  0
   43.3910   24.3910   33.2650 C   0  0  0  0  0  0  0  0  0  0  0  0
   42.7350   23.2030   33.2050 C   0  0  0  0  0  0  0  0  0  0  0  0
   41.6670   22.9760   34.0350 C   0  0  0  0  0  0  0  0  0  0  0  0
   41.0270   21.7060   33.9160 N   0  0  0  0  0  0  0  0  0  0  0  0
   36.9596   23.4115   36.9204 H   0  0  0  0  0  0  0  0  0  0  0  0
   41.1908   22.8641   37.4569 H   0  0  0  0  0  0  0  0  0  0  0  0
   36.9443   23.2912   31.4148 H   0  0  0  0  0  0  0  0  0  0  0  0
   38.1018   22.4073   33.4606 H   0  0  0  0  0  0  0  0  0  0  0  0
   35.7319   27.8359   34.8919 H   0  0  0  0  0  0  0  0  0  0  0  0
   35.3056   30.0362   35.6110 H   0  0  0  0  0  0  0  0  0  0  0  0
   35.2676   31.4167   34.4624 H   0  0  0  0  0  0  0  0  0  0  0  0
   33.9358   30.2113   34.4624 H   0  0  0  0  0  0  0  0  0  0  0  0
   37.0931   29.6142   30.6357 H   0  0  0  0  0  0  0  0  0  0  0  0
   41.5925   25.8808   35.6920 H   0  0  0  0  0  0  0  0  0  0  0  0
   43.4880   26.3114   34.2271 H   0  0  0  0  0  0  0  0  0  0  0  0
   44.2480   24.5896   32.6046 H   0  0  0  0  0  0  0  0  0  0  0  0
   43.0584   22.4276   32.4949 H   0  0  0  0  0  0  0  0  0  0  0  0
   40.2193   21.4783   34.5133 H   0  0  0  0  0  0  0  0  0  0  0  0
   41.3728   21.0171   33.2329 H   0  0  0  0  0  0  0  0  0  0  0  0
  1  5  1  0
  1  2  2  0
  2  3  1  0
  4  3  2  0
  5  4  1  0
  6  7  2  0
  7  8  1  0
  8  1  1  0
  9  8  2  0
 10  9  1  0
 11  6  1  0
 11 10  2  0
 12 10  1  0
 12 13  1  0
 14 13  2  0
 14 15  1  0
 16 14  1  0
 17 16  2  0
 18 19  1  0
 18 16  1  0
 19 12  1  0
 20 19  2  0
 21 22  2  0
 21  5  1  0
 23 22  1  0
 24 23  2  0
 25 24  1  0
 25 26  2  0
 26 21  1  0
 27 26  1  0
  2 28  1  0
  4 29  1  0
  6 30  1  0
  7 31  1  0
 13 32  1  0
 15 33  1  0
 15 34  1  0
 15 35  1  0
 18 36  1  0
 22 37  1  0
 23 38  1  0
 24 39  1  0
 25 40  1  0
 27 41  1  0
 27 42  1  0
M  ISO  8  28  14  29  14  30  14  31  14  32  14  33   8  34   8  35   8
M  ISO  5  36   9  37  14  38  14  39  14  40  14
M  END
>  <minimizedAffinity>  (1) 
-5.37109327

>  <minimizedRMSD>  (1) 
5.28325176

$$$$
