
     RDKit          3D

 37 40  0  0  0  0  0  0  0  0999 V2000
   40.1800   26.4780   34.9430 C   0  0  0  0  0  0  0  0  0  0  0  0
   38.9490   27.0240   34.3170 C   0  0  0  0  0  0  0  0  0  0  0  0
   37.8700   27.3540   35.1120 C   0  0  0  0  0  0  0  0  0  0  0  0
   36.6670   27.8720   34.6350 C   0  0  0  0  0  0  0  0  0  0  0  0
   36.5830   28.0550   33.2810 N   0  0  0  0  0  0  0  0  0  0  0  0
   37.6290   27.7370   32.5000 C   0  0  0  0  0  0  0  0  0  0  0  0
   38.7790   27.2330   33.0240 N   0  0  0  0  0  0  0  0  0  0  0  0
   37.5650   27.9220   31.0580 C   0  0  0  0  0  0  0  0  0  0  0  0
   38.7330   28.1230   30.3140 C   0  0  0  0  0  0  0  0  0  0  0  0
   38.3980   28.2710   28.9690 C   0  0  0  0  0  0  0  0  0  0  0  0
   37.0550   28.1550   28.9500 N   0  0  0  0  0  0  0  0  0  0  0  0
   36.5310   27.9490   30.1560 N   0  0  0  0  0  0  0  0  0  0  0  0
   40.5930   25.1550   34.3810 C   0  0  0  0  0  0  0  0  0  0  0  0
   38.4150   22.8810   36.3930 C   0  0  0  0  0  0  0  0  0  0  0  0
   37.7490   22.1740   35.3820 C   0  0  0  0  0  0  0  0  0  0  0  0
   38.0400   22.4690   34.0430 C   0  0  0  0  0  0  0  0  0  0  0  0
   38.9560   23.4320   33.7840 N   0  0  0  0  0  0  0  0  0  0  0  0
   39.5880   24.1030   34.7880 C   0  0  0  0  0  0  0  0  0  0  0  0
   39.3120   23.8230   36.0530 N   0  0  0  0  0  0  0  0  0  0  0  0
   37.4070   21.7970   32.9590 N   0  0  0  0  0  0  0  0  0  0  0  0
   37.5110   20.6330   32.2870 C   0  0  0  0  0  0  0  0  0  0  0  0
   36.5790   20.5900   31.3210 N   0  0  0  0  0  0  0  0  0  0  0  0
   35.8890   21.7460   31.3980 C   0  0  0  0  0  0  0  0  0  0  0  0
   36.4070   22.4820   32.4090 N   0  0  0  0  0  0  0  0  0  0  0  0
   40.9992   27.1951   34.7858 H   0  0  0  0  0  0  0  0  0  0  0  0
   39.9622   26.3248   36.0103 H   0  0  0  0  0  0  0  0  0  0  0  0
   37.9660   27.1975   36.1966 H   0  0  0  0  0  0  0  0  0  0  0  0
   35.8329   28.1195   35.3081 H   0  0  0  0  0  0  0  0  0  0  0  0
   39.7527   28.1585   30.7249 H   0  0  0  0  0  0  0  0  0  0  0  0
   39.0741   28.4429   28.1185 H   0  0  0  0  0  0  0  0  0  0  0  0
   36.4919   28.2192   28.0899 H   0  0  0  0  0  0  0  0  0  0  0  0
   41.5858   24.8845   34.7699 H   0  0  0  0  0  0  0  0  0  0  0  0
   40.6357   25.2183   33.2837 H   0  0  0  0  0  0  0  0  0  0  0  0
   38.2062   22.6676   37.4517 H   0  0  0  0  0  0  0  0  0  0  0  0
   37.0097   21.4000   35.6356 H   0  0  0  0  0  0  0  0  0  0  0  0
   38.2452   19.8413   32.4972 H   0  0  0  0  0  0  0  0  0  0  0  0
   35.0497   22.0402   30.7507 H   0  0  0  0  0  0  0  0  0  0  0  0
  2  1  1  0
  2  3  2  0
  4  3  1  0
  5  4  2  0
  6  7  2  0
  6  5  1  0
  7  2  1  0
  8  6  1  0
  9  8  1  0
 10  9  2  0
 11 10  1  0
 11 12  1  0
 12  8  2  0
 13 18  1  0
 13  1  1  0
 15 14  2  0
 16 15  1  0
 17 16  2  0
 17 18  1  0
 18 19  2  0
 19 14  1  0
 20 16  1  0
 21 20  1  0
 22 23  1  0
 22 21  2  0
 23 24  2  0
 24 20  1  0
  1 25  1  0
  1 26  1  0
  3 27  1  0
  4 28  1  0
  9 29  1  0
 10 30  1  0
 11 31  1  0
 13 32  1  0
 13 33  1  0
 14 34  1  0
 15 35  1  0
 21 36  1  0
 23 37  1  0
M  ISO  8  25   8  26   8  27  14  28  14  29  14  30  14  31   9  32   8
M  ISO  5  33   8  34  14  35  14  36  14  37  14
M  END
>  <minimizedAffinity>  (1) 
-5.44842005

>  <minimizedRMSD>  (1) 
4.34755898

$$$$
