
     RDKit          3D

 34 37  0  0  0  0  0  0  0  0999 V2000
   39.3010   26.2200   33.0970 C   0  0  0  0  0  0  0  0  0  0  0  0
   40.1400   27.1130   32.4060 C   0  0  0  0  0  0  0  0  0  0  0  0
   41.2010   27.3120   33.2610 N   0  0  0  0  0  0  0  0  0  0  0  0
   40.9680   26.5700   34.3710 C   0  0  0  0  0  0  0  0  0  0  0  0
   39.8330   25.9070   34.2920 N   0  0  0  0  0  0  0  0  0  0  0  0
   39.3760   25.0690   35.3230 C   0  0  0  0  0  0  0  0  0  0  0  0
   39.8010   23.7260   35.4720 C   0  0  0  0  0  0  0  0  0  0  0  0
   39.3550   22.9070   36.4810 C   0  0  0  0  0  0  0  0  0  0  0  0
   38.4570   23.3720   37.4080 C   0  0  0  0  0  0  0  0  0  0  0  0
   38.0160   24.6520   37.3130 C   0  0  0  0  0  0  0  0  0  0  0  0
   38.4730   25.4630   36.2950 C   0  0  0  0  0  0  0  0  0  0  0  0
   37.9690   26.7830   36.2630 N   0  0  0  0  0  0  0  0  0  0  0  0
   35.9460   26.2540   31.4810 C   0  0  0  0  0  0  0  0  0  0  0  0
   37.1520   26.6900   32.0280 C   0  0  0  0  0  0  0  0  0  0  0  0
   38.0480   25.7450   32.5310 C   0  0  0  0  0  0  0  0  0  0  0  0
   37.7010   24.4160   32.4650 N   0  0  0  0  0  0  0  0  0  0  0  0
   36.5200   24.0510   31.9260 C   0  0  0  0  0  0  0  0  0  0  0  0
   35.6550   24.9620   31.4410 N   0  0  0  0  0  0  0  0  0  0  0  0
   36.1860   22.6330   31.8740 C   0  0  0  0  0  0  0  0  0  0  0  0
   36.6000   21.8590   32.8730 N   0  0  0  0  0  0  0  0  0  0  0  0
   36.2150   20.6490   32.6550 O   0  0  0  0  0  0  0  0  0  0  0  0
   35.5560   20.6230   31.5280 C   0  0  0  0  0  0  0  0  0  0  0  0
   35.5020   21.8660   30.9780 N   0  0  0  0  0  0  0  0  0  0  0  0
   39.9841   27.5523   31.4096 H   0  0  0  0  0  0  0  0  0  0  0  0
   41.6467   26.5267   35.2356 H   0  0  0  0  0  0  0  0  0  0  0  0
   40.5213   23.3201   34.7465 H   0  0  0  0  0  0  0  0  0  0  0  0
   39.7204   21.8715   36.5459 H   0  0  0  0  0  0  0  0  0  0  0  0
   38.0997   22.7171   38.2163 H   0  0  0  0  0  0  0  0  0  0  0  0
   37.2952   25.0422   38.0467 H   0  0  0  0  0  0  0  0  0  0  0  0
   37.2961   27.0948   36.9778 H   0  0  0  0  0  0  0  0  0  0  0  0
   38.2746   27.4332   35.5249 H   0  0  0  0  0  0  0  0  0  0  0  0
   35.2312   26.9876   31.0799 H   0  0  0  0  0  0  0  0  0  0  0  0
   37.3939   27.7625   32.0627 H   0  0  0  0  0  0  0  0  0  0  0  0
   35.1071   19.7217   31.0851 H   0  0  0  0  0  0  0  0  0  0  0  0
  1  5  1  0
  2  1  2  0
  2  3  1  0
  3  4  2  0
  5  4  1  0
  5  6  1  0
  6  7  2  0
  6 11  1  0
  7  8  1  0
  8  9  2  0
 10  9  1  0
 11 10  2  0
 12 11  1  0
 13 14  2  0
 14 15  1  0
 15  1  1  0
 16 15  2  0
 17 16  1  0
 18 13  1  0
 18 17  2  0
 19 17  1  0
 19 20  2  0
 21 20  1  0
 22 21  1  0
 23 22  2  0
 23 19  1  0
  2 24  1  0
  4 25  1  0
  7 26  1  0
  8 27  1  0
  9 28  1  0
 10 29  1  0
 12 30  1  0
 12 31  1  0
 13 32  1  0
 14 33  1  0
 22 34  1  0
M  ISO  8  24  14  25  14  26  14  27  14  28  14  29  14  32  14  33  14
M  ISO  1  34  14
M  END
>  <minimizedAffinity>  (1) 
-5.21029997

>  <minimizedRMSD>  (1) 
5.65800142

$$$$
