
     RDKit          3D

 38 41  0  0  0  0  0  0  0  0999 V2000
   40.7880   26.2060   34.8050 C   0  0  0  0  0  0  0  0  0  0  0  0
   39.4520   26.8140   34.5380 C   0  0  0  0  0  0  0  0  0  0  0  0
   38.6610   27.2420   35.5910 C   0  0  0  0  0  0  0  0  0  0  0  0
   37.4050   27.8200   35.4430 C   0  0  0  0  0  0  0  0  0  0  0  0
   36.9420   27.9660   34.1710 N   0  0  0  0  0  0  0  0  0  0  0  0
   37.7090   27.5510   33.1260 C   0  0  0  0  0  0  0  0  0  0  0  0
   38.9350   26.9900   33.3330 N   0  0  0  0  0  0  0  0  0  0  0  0
   37.2530   27.6880   31.7500 C   0  0  0  0  0  0  0  0  0  0  0  0
   37.7290   28.7230   30.9540 C   0  0  0  0  0  0  0  0  0  0  0  0
   37.1070   28.5810   29.6990 C   0  0  0  0  0  0  0  0  0  0  0  0
   36.3050   27.4970   29.7850 N   0  0  0  0  0  0  0  0  0  0  0  0
   36.3860   26.9590   31.0030 N   0  0  0  0  0  0  0  0  0  0  0  0
   40.9500   24.8610   34.1260 C   0  0  0  0  0  0  0  0  0  0  0  0
   38.8530   22.6980   36.3340 C   0  0  0  0  0  0  0  0  0  0  0  0
   37.9020   22.2160   35.4240 C   0  0  0  0  0  0  0  0  0  0  0  0
   37.9810   22.6230   34.0950 C   0  0  0  0  0  0  0  0  0  0  0  0
   38.9790   23.4720   33.7350 N   0  0  0  0  0  0  0  0  0  0  0  0
   39.8910   23.9240   34.6480 C   0  0  0  0  0  0  0  0  0  0  0  0
   39.8270   23.5430   35.9170 N   0  0  0  0  0  0  0  0  0  0  0  0
   37.0960   22.2250   33.0560 N   0  0  0  0  0  0  0  0  0  0  0  0
   36.8120   20.9150   32.9790 C   0  0  0  0  0  0  0  0  0  0  0  0
   35.9460   20.7270   31.9170 C   0  0  0  0  0  0  0  0  0  0  0  0
   35.7150   21.9200   31.3680 N   0  0  0  0  0  0  0  0  0  0  0  0
   36.4150   22.8250   32.0630 C   0  0  0  0  0  0  0  0  0  0  0  0
   41.5679   26.8869   34.4333 H   0  0  0  0  0  0  0  0  0  0  0  0
   40.8775   26.0498   35.8902 H   0  0  0  0  0  0  0  0  0  0  0  0
   39.0519   27.1165   36.6115 H   0  0  0  0  0  0  0  0  0  0  0  0
   36.8137   28.1438   36.3122 H   0  0  0  0  0  0  0  0  0  0  0  0
   38.4500   29.5004   31.2469 H   0  0  0  0  0  0  0  0  0  0  0  0
   37.2467   29.2268   28.8196 H   0  0  0  0  0  0  0  0  0  0  0  0
   35.7159   27.1378   29.0202 H   0  0  0  0  0  0  0  0  0  0  0  0
   41.9471   24.4525   34.3474 H   0  0  0  0  0  0  0  0  0  0  0  0
   40.8440   24.9762   33.0372 H   0  0  0  0  0  0  0  0  0  0  0  0
   38.8086   22.3897   37.3890 H   0  0  0  0  0  0  0  0  0  0  0  0
   37.1084   21.5293   35.7537 H   0  0  0  0  0  0  0  0  0  0  0  0
   37.1999   20.1292   33.6438 H   0  0  0  0  0  0  0  0  0  0  0  0
   35.5241   19.7668   31.5853 H   0  0  0  0  0  0  0  0  0  0  0  0
   36.4311   23.9045   31.8523 H   0  0  0  0  0  0  0  0  0  0  0  0
  2  1  1  0
  2  3  2  0
  4  3  1  0
  5  4  2  0
  6  7  2  0
  6  5  1  0
  7  2  1  0
  8  6  1  0
  9  8  1  0
 10 11  1  0
 10  9  2  0
 11 12  1  0
 12  8  2  0
 13 18  1  0
 13  1  1  0
 15 14  2  0
 16 15  1  0
 17 16  2  0
 17 18  1  0
 18 19  2  0
 19 14  1  0
 20 16  1  0
 21 20  1  0
 22 21  2  0
 23 22  1  0
 23 24  2  0
 24 20  1  0
  1 25  1  0
  1 26  1  0
  3 27  1  0
  4 28  1  0
  9 29  1  0
 10 30  1  0
 11 31  1  0
 13 32  1  0
 13 33  1  0
 14 34  1  0
 15 35  1  0
 21 36  1  0
 22 37  1  0
 24 38  1  0
M  ISO  8  25   8  26   8  27  14  28  14  29  14  30  14  31   9  32   8
M  ISO  6  33   8  34  14  35  14  36  14  37  14  38  14
M  END
>  <minimizedAffinity>  (1) 
-5.4423337

>  <minimizedRMSD>  (1) 
4.2446456

$$$$
