
     RDKit          3D

 42 45  0  0  0  0  0  0  0  0999 V2000
   37.8580   26.3560   34.7030 C   0  0  0  0  0  0  0  0  0  0  0  0
   37.4480   27.5140   35.4080 C   0  0  0  0  0  0  0  0  0  0  0  0
   36.7200   28.2340   34.4910 N   0  0  0  0  0  0  0  0  0  0  0  0
   36.7220   27.5200   33.3380 C   0  0  0  0  0  0  0  0  0  0  0  0
   37.3970   26.3930   33.4460 N   0  0  0  0  0  0  0  0  0  0  0  0
   38.8000   23.4700   36.8580 C   0  0  0  0  0  0  0  0  0  0  0  0
   38.0400   24.4790   36.2410 C   0  0  0  0  0  0  0  0  0  0  0  0
   38.6650   25.3170   35.3300 C   0  0  0  0  0  0  0  0  0  0  0  0
   39.9980   25.1260   35.0690 N   0  0  0  0  0  0  0  0  0  0  0  0
   40.6870   24.1510   35.6780 C   0  0  0  0  0  0  0  0  0  0  0  0
   40.1010   23.3350   36.5590 N   0  0  0  0  0  0  0  0  0  0  0  0
   42.0610   23.9750   35.3910 N   0  0  0  0  0  0  0  0  0  0  0  0
   42.7520   22.7000   35.4460 C   0  0  0  0  0  0  0  0  0  0  0  0
   43.9730   22.9450   36.3200 C   0  0  0  0  0  0  0  0  0  0  0  0
   44.8270   23.8400   35.7220 O   0  0  0  0  0  0  0  0  0  0  0  0
   44.2650   24.5220   34.6610 C   0  0  0  0  0  0  0  0  0  0  0  0
   42.8940   25.1010   35.0110 C   0  0  0  0  0  0  0  0  0  0  0  0
   37.5360   25.4870   32.3740 C   0  0  0  0  0  0  0  0  0  0  0  0
   36.5020   24.6240   31.9690 C   0  0  0  0  0  0  0  0  0  0  0  0
   36.6320   23.7380   30.9250 C   0  0  0  0  0  0  0  0  0  0  0  0
   37.8170   23.6660   30.2230 C   0  0  0  0  0  0  0  0  0  0  0  0
   38.8580   24.4900   30.5820 C   0  0  0  0  0  0  0  0  0  0  0  0
   38.6920   25.3560   31.6230 C   0  0  0  0  0  0  0  0  0  0  0  0
   39.8060   26.1700   31.9340 N   0  0  0  0  0  0  0  0  0  0  0  0
   37.6636   27.7778   36.4539 H   0  0  0  0  0  0  0  0  0  0  0  0
   36.2171   27.8449   32.4163 H   0  0  0  0  0  0  0  0  0  0  0  0
   38.3287   22.7921   37.5849 H   0  0  0  0  0  0  0  0  0  0  0  0
   36.9723   24.6011   36.4759 H   0  0  0  0  0  0  0  0  0  0  0  0
   42.1059   21.9301   35.8931 H   0  0  0  0  0  0  0  0  0  0  0  0
   43.0292   22.3392   34.4445 H   0  0  0  0  0  0  0  0  0  0  0  0
   43.6475   23.3493   37.2898 H   0  0  0  0  0  0  0  0  0  0  0  0
   44.5030   21.9916   36.4623 H   0  0  0  0  0  0  0  0  0  0  0  0
   44.1518   23.8293   33.8141 H   0  0  0  0  0  0  0  0  0  0  0  0
   44.9311   25.3593   34.4055 H   0  0  0  0  0  0  0  0  0  0  0  0
   42.9821   25.8092   35.8481 H   0  0  0  0  0  0  0  0  0  0  0  0
   42.4623   25.6484   34.1602 H   0  0  0  0  0  0  0  0  0  0  0  0
   35.5459   24.6592   32.5118 H   0  0  0  0  0  0  0  0  0  0  0  0
   35.7899   23.0861   30.6496 H   0  0  0  0  0  0  0  0  0  0  0  0
   37.9280   22.9592   29.3874 H   0  0  0  0  0  0  0  0  0  0  0  0
   39.8125   24.4513   30.0366 H   0  0  0  0  0  0  0  0  0  0  0  0
   39.7493   26.8464   32.7087 H   0  0  0  0  0  0  0  0  0  0  0  0
   40.6740   26.0864   31.3858 H   0  0  0  0  0  0  0  0  0  0  0  0
  1  8  1  0
  1  2  2  0
  3  2  1  0
  4  5  1  0
  4  3  2  0
  5  1  1  0
  7  6  2  0
  8  7  1  0
  9  8  2  0
  9 10  1  0
 10 11  2  0
 11  6  1  0
 12 13  1  0
 12 10  1  0
 13 14  1  0
 15 14  1  0
 16 17  1  0
 16 15  1  0
 17 12  1  0
 18  5  1  0
 19 18  2  0
 20 19  1  0
 21 22  1  0
 21 20  2  0
 22 23  2  0
 23 24  1  0
 23 18  1  0
  2 25  1  0
  4 26  1  0
  6 27  1  0
  7 28  1  0
 13 29  1  0
 13 30  1  0
 14 31  1  0
 14 32  1  0
 16 33  1  0
 16 34  1  0
 17 35  1  0
 17 36  1  0
 19 37  1  0
 20 38  1  0
 21 39  1  0
 22 40  1  0
 24 41  1  0
 24 42  1  0
M  ISO  8  25  14  26  14  27  14  28  14  29  13  30  13  31  13  32  13
M  ISO  8  33  13  34  13  35  13  36  13  37  14  38  14  39  14  40  14
M  END
>  <minimizedAffinity>  (1) 
-4.82823086

>  <minimizedRMSD>  (1) 
5.91623068

$$$$
