
     RDKit          3D

 51 55  0  0  0  0  0  0  0  0999 V2000
   38.2950   26.8940   36.2230 C   0  0  0  0  0  0  0  0  0  0  0  0
   38.6510   25.5790   35.8780 C   0  0  0  0  0  0  0  0  0  0  0  0
   38.3590   25.1190   34.6030 C   0  0  0  0  0  0  0  0  0  0  0  0
   37.7300   25.9790   33.7350 N   0  0  0  0  0  0  0  0  0  0  0  0
   37.4030   27.2200   34.0880 C   0  0  0  0  0  0  0  0  0  0  0  0
   37.6860   27.6790   35.3360 N   0  0  0  0  0  0  0  0  0  0  0  0
   36.7350   28.1210   33.1530 C   0  0  0  0  0  0  0  0  0  0  0  0
   35.5060   28.6640   33.4710 C   0  0  0  0  0  0  0  0  0  0  0  0
   34.9550   29.5040   32.5220 C   0  0  0  0  0  0  0  0  0  0  0  0
   35.5180   29.8290   31.3290 N   0  0  0  0  0  0  0  0  0  0  0  0
   36.7130   29.2660   31.0880 C   0  0  0  0  0  0  0  0  0  0  0  0
   37.2890   28.4450   31.9730 N   0  0  0  0  0  0  0  0  0  0  0  0
   37.3810   29.5480   29.8630 N   0  0  0  0  0  0  0  0  0  0  0  0
   38.0480   30.7710   29.5640 C   0  0  0  0  0  0  0  0  0  0  0  0
   38.0300   31.1400   28.1090 C   0  0  0  0  0  0  0  0  0  0  0  0
   38.3870   30.0610   27.2330 N   0  0  0  0  0  0  0  0  0  0  0  0
   38.6900   28.8690   28.0010 C   0  0  0  0  0  0  0  0  0  0  0  0
   37.4270   28.5650   28.7990 C   0  0  0  0  0  0  0  0  0  0  0  0
   38.7410   23.7560   34.2800 C   0  0  0  0  0  0  0  0  0  0  0  0
   37.8150   22.7950   33.8450 C   0  0  0  0  0  0  0  0  0  0  0  0
   38.5520   21.6620   33.6510 N   0  0  0  0  0  0  0  0  0  0  0  0
   39.8460   21.9660   33.9620 C   0  0  0  0  0  0  0  0  0  0  0  0
   39.9760   23.2070   34.3390 N   0  0  0  0  0  0  0  0  0  0  0  0
   41.2180   23.7660   34.7140 C   0  0  0  0  0  0  0  0  0  0  0  0
   41.8430   23.4600   35.9400 C   0  0  0  0  0  0  0  0  0  0  0  0
   43.0540   24.0070   36.3020 C   0  0  0  0  0  0  0  0  0  0  0  0
   43.7080   24.8800   35.4800 C   0  0  0  0  0  0  0  0  0  0  0  0
   43.1360   25.1990   34.2890 C   0  0  0  0  0  0  0  0  0  0  0  0
   41.9350   24.6550   33.9330 C   0  0  0  0  0  0  0  0  0  0  0  0
   41.4030   25.0340   32.6800 N   0  0  0  0  0  0  0  0  0  0  0  0
   38.5202   27.2764   37.2295 H   0  0  0  0  0  0  0  0  0  0  0  0
   39.1528   24.9258   36.6071 H   0  0  0  0  0  0  0  0  0  0  0  0
   34.9972   28.4418   34.4206 H   0  0  0  0  0  0  0  0  0  0  0  0
   33.9754   29.9481   32.7526 H   0  0  0  0  0  0  0  0  0  0  0  0
   37.5604   31.5778   30.1309 H   0  0  0  0  0  0  0  0  0  0  0  0
   39.1031   30.6329   29.8428 H   0  0  0  0  0  0  0  0  0  0  0  0
   37.0155   31.4764   27.8491 H   0  0  0  0  0  0  0  0  0  0  0  0
   38.7840   31.9287   27.9693 H   0  0  0  0  0  0  0  0  0  0  0  0
   39.2148   30.3300   26.6823 H   0  0  0  0  0  0  0  0  0  0  0  0
   38.9318   28.0311   27.3305 H   0  0  0  0  0  0  0  0  0  0  0  0
   39.5607   29.0171   28.6568 H   0  0  0  0  0  0  0  0  0  0  0  0
   36.5383   28.6547   28.1570 H   0  0  0  0  0  0  0  0  0  0  0  0
   37.4390   27.5398   29.1976 H   0  0  0  0  0  0  0  0  0  0  0  0
   36.7333   22.9259   33.6937 H   0  0  0  0  0  0  0  0  0  0  0  0
   40.6788   21.2499   33.9017 H   0  0  0  0  0  0  0  0  0  0  0  0
   41.3472   22.7615   36.6301 H   0  0  0  0  0  0  0  0  0  0  0  0
   43.5021   23.7362   37.2694 H   0  0  0  0  0  0  0  0  0  0  0  0
   44.6746   25.3145   35.7748 H   0  0  0  0  0  0  0  0  0  0  0  0
   43.6430   25.8989   33.6084 H   0  0  0  0  0  0  0  0  0  0  0  0
   40.4998   24.6506   32.3668 H   0  0  0  0  0  0  0  0  0  0  0  0
   41.9184   25.6936   32.0799 H   0  0  0  0  0  0  0  0  0  0  0  0
  2  1  2  0
  3  2  1  0
  4  5  1  0
  4  3  2  0
  5  6  2  0
  6  1  1  0
  7  8  2  0
  7  5  1  0
  9  8  1  0
 10  9  2  0
 11 10  1  0
 11 12  2  0
 12  7  1  0
 13 11  1  0
 14 13  1  0
 15 14  1  0
 16 17  1  0
 16 15  1  0
 17 18  1  0
 18 13  1  0
 19 23  1  0
 19  3  1  0
 20 19  2  0
 21 20  1  0
 21 22  2  0
 22 23  1  0
 23 24  1  0
 24 25  2  0
 25 26  1  0
 27 26  2  0
 28 27  1  0
 29 28  2  0
 29 24  1  0
 30 29  1  0
  1 31  1  0
  2 32  1  0
  8 33  1  0
  9 34  1  0
 14 35  1  0
 14 36  1  0
 15 37  1  0
 15 38  1  0
 16 39  1  0
 17 40  1  0
 17 41  1  0
 18 42  1  0
 18 43  1  0
 20 44  1  0
 22 45  1  0
 25 46  1  0
 26 47  1  0
 27 48  1  0
 28 49  1  0
 30 50  1  0
 30 51  1  0
M  ISO  8  31  14  32  14  33  14  34  14  35  13  36  13  37  13  38  13
M  ISO  8  39   5  40  13  41  13  42  13  43  13  44  14  45  14  46  14
M  ISO  3  47  14  48  14  49  14
M  END
>  <minimizedAffinity>  (1) 
-5.85837317

>  <minimizedRMSD>  (1) 
2.28906918

$$$$
