
     RDKit          3D

 44 48  0  0  0  0  0  0  0  0999 V2000
   38.0940   24.8100   36.6670 C   0  0  0  0  0  0  0  0  0  0  0  0
   38.9390   23.8250   36.1110 C   0  0  0  0  0  0  0  0  0  0  0  0
   39.2690   23.9070   34.7740 C   0  0  0  0  0  0  0  0  0  0  0  0
   38.7590   24.9480   34.0390 N   0  0  0  0  0  0  0  0  0  0  0  0
   37.9650   25.8640   34.5860 C   0  0  0  0  0  0  0  0  0  0  0  0
   37.6280   25.7990   35.9020 N   0  0  0  0  0  0  0  0  0  0  0  0
   37.4220   26.9710   33.8020 C   0  0  0  0  0  0  0  0  0  0  0  0
   36.5680   27.8880   34.3720 C   0  0  0  0  0  0  0  0  0  0  0  0
   36.1140   28.8900   33.5520 C   0  0  0  0  0  0  0  0  0  0  0  0
   36.4370   29.0450   32.2400 N   0  0  0  0  0  0  0  0  0  0  0  0
   37.2770   28.1210   31.7280 C   0  0  0  0  0  0  0  0  0  0  0  0
   37.7440   27.1190   32.5070 N   0  0  0  0  0  0  0  0  0  0  0  0
   37.7110   28.1620   30.3330 C   0  0  0  0  0  0  0  0  0  0  0  0
   38.9540   27.6870   29.9560 C   0  0  0  0  0  0  0  0  0  0  0  0
   39.0780   27.8600   28.5760 C   0  0  0  0  0  0  0  0  0  0  0  0
   37.9090   28.4320   28.1660 N   0  0  0  0  0  0  0  0  0  0  0  0
   37.0950   28.6110   29.2180 N   0  0  0  0  0  0  0  0  0  0  0  0
   40.1450   22.8710   34.2330 C   0  0  0  0  0  0  0  0  0  0  0  0
   39.6590   21.7870   33.4890 C   0  0  0  0  0  0  0  0  0  0  0  0
   40.7600   21.0570   33.1700 N   0  0  0  0  0  0  0  0  0  0  0  0
   41.8370   21.7020   33.7140 C   0  0  0  0  0  0  0  0  0  0  0  0
   41.4830   22.7860   34.3520 N   0  0  0  0  0  0  0  0  0  0  0  0
   42.4170   23.6290   35.0020 C   0  0  0  0  0  0  0  0  0  0  0  0
   43.0790   23.2610   36.1690 C   0  0  0  0  0  0  0  0  0  0  0  0
   43.9830   24.0790   36.8000 C   0  0  0  0  0  0  0  0  0  0  0  0
   44.2780   25.3080   36.3020 C   0  0  0  0  0  0  0  0  0  0  0  0
   43.6560   25.7150   35.1580 C   0  0  0  0  0  0  0  0  0  0  0  0
   42.7580   24.8950   34.5390 C   0  0  0  0  0  0  0  0  0  0  0  0
   42.1480   25.3780   33.3590 N   0  0  0  0  0  0  0  0  0  0  0  0
   37.8197   24.7621   37.7312 H   0  0  0  0  0  0  0  0  0  0  0  0
   39.3278   23.0057   36.7336 H   0  0  0  0  0  0  0  0  0  0  0  0
   36.2660   27.8210   35.4276 H   0  0  0  0  0  0  0  0  0  0  0  0
   35.4309   29.6308   33.9931 H   0  0  0  0  0  0  0  0  0  0  0  0
   39.7106   27.2504   30.6246 H   0  0  0  0  0  0  0  0  0  0  0  0
   39.9405   27.5906   27.9486 H   0  0  0  0  0  0  0  0  0  0  0  0
   37.6847   28.6882   27.1939 H   0  0  0  0  0  0  0  0  0  0  0  0
   38.6136   21.5736   33.2215 H   0  0  0  0  0  0  0  0  0  0  0  0
   42.8755   21.3505   33.6250 H   0  0  0  0  0  0  0  0  0  0  0  0
   42.8692   22.2729   36.6045 H   0  0  0  0  0  0  0  0  0  0  0  0
   44.4752   23.7346   37.7215 H   0  0  0  0  0  0  0  0  0  0  0  0
   45.0028   25.9610   36.8102 H   0  0  0  0  0  0  0  0  0  0  0  0
   43.8787   26.7053   34.7341 H   0  0  0  0  0  0  0  0  0  0  0  0
   42.3881   26.3134   33.0009 H   0  0  0  0  0  0  0  0  0  0  0  0
   41.4634   24.7946   32.8572 H   0  0  0  0  0  0  0  0  0  0  0  0
  2  1  2  0
  3  2  1  0
  4  5  1  0
  4  3  2  0
  5  6  2  0
  6  1  1  0
  7  8  2  0
  7  5  1  0
  9  8  1  0
 10  9  2  0
 11 10  1  0
 11 12  2  0
 12  7  1  0
 13 11  1  0
 14 13  1  0
 15 14  2  0
 16 15  1  0
 16 17  1  0
 17 13  2  0
 18 22  1  0
 18  3  1  0
 19 18  2  0
 20 19  1  0
 20 21  2  0
 21 22  1  0
 22 23  1  0
 23 24  2  0
 24 25  1  0
 26 25  2  0
 27 26  1  0
 28 23  1  0
 28 27  2  0
 29 28  1  0
  1 30  1  0
  2 31  1  0
  8 32  1  0
  9 33  1  0
 14 34  1  0
 15 35  1  0
 16 36  1  0
 19 37  1  0
 21 38  1  0
 24 39  1  0
 25 40  1  0
 26 41  1  0
 27 42  1  0
 29 43  1  0
 29 44  1  0
M  ISO  8  30  14  31  14  32  14  33  14  34  14  35  14  36   9  37  14
M  ISO  5  38  14  39  14  40  14  41  14  42  14
M  END
>  <minimizedAffinity>  (1) 
-5.71728706

>  <minimizedRMSD>  (1) 
1.43156362

$$$$
