
     RDKit          3D

 49 53  0  0  0  0  0  0  0  0999 V2000
   38.1770   24.7770   36.7220 C   0  0  0  0  0  0  0  0  0  0  0  0
   39.0270   23.8020   36.1660 C   0  0  0  0  0  0  0  0  0  0  0  0
   39.3620   23.8770   34.8170 C   0  0  0  0  0  0  0  0  0  0  0  0
   38.8340   24.9190   34.0900 N   0  0  0  0  0  0  0  0  0  0  0  0
   38.0350   25.8260   34.6410 C   0  0  0  0  0  0  0  0  0  0  0  0
   37.7030   25.7570   35.9600 N   0  0  0  0  0  0  0  0  0  0  0  0
   37.4830   26.9250   33.8560 C   0  0  0  0  0  0  0  0  0  0  0  0
   36.5580   27.7900   34.4160 C   0  0  0  0  0  0  0  0  0  0  0  0
   36.0920   28.8040   33.5920 C   0  0  0  0  0  0  0  0  0  0  0  0
   36.4700   29.0060   32.2990 N   0  0  0  0  0  0  0  0  0  0  0  0
   37.3690   28.1280   31.8290 C   0  0  0  0  0  0  0  0  0  0  0  0
   37.8540   27.1320   32.5730 N   0  0  0  0  0  0  0  0  0  0  0  0
   37.8320   28.2490   30.4890 N   0  0  0  0  0  0  0  0  0  0  0  0
   37.1810   28.7640   29.3010 C   0  0  0  0  0  0  0  0  0  0  0  0
   38.2690   29.5580   28.5660 C   0  0  0  0  0  0  0  0  0  0  0  0
   39.5570   29.1760   29.3050 C   0  0  0  0  0  0  0  0  0  0  0  0
   39.1240   27.8730   29.9490 C   0  0  0  0  0  0  0  0  0  0  0  0
   40.2370   22.8590   34.2800 C   0  0  0  0  0  0  0  0  0  0  0  0
   39.7540   21.7650   33.5420 C   0  0  0  0  0  0  0  0  0  0  0  0
   40.8750   21.0440   33.2210 N   0  0  0  0  0  0  0  0  0  0  0  0
   41.9300   21.7020   33.7530 C   0  0  0  0  0  0  0  0  0  0  0  0
   41.5730   22.7810   34.3870 N   0  0  0  0  0  0  0  0  0  0  0  0
   42.4990   23.6350   35.0270 C   0  0  0  0  0  0  0  0  0  0  0  0
   43.0550   23.3540   36.2850 C   0  0  0  0  0  0  0  0  0  0  0  0
   43.9570   24.1810   36.9110 C   0  0  0  0  0  0  0  0  0  0  0  0
   44.3580   25.3390   36.3190 C   0  0  0  0  0  0  0  0  0  0  0  0
   43.8530   25.6690   35.0960 C   0  0  0  0  0  0  0  0  0  0  0  0
   42.9510   24.8250   34.4860 C   0  0  0  0  0  0  0  0  0  0  0  0
   42.4710   25.2360   33.2180 N   0  0  0  0  0  0  0  0  0  0  0  0
   37.9054   24.7275   37.7868 H   0  0  0  0  0  0  0  0  0  0  0  0
   39.4227   22.9885   36.7918 H   0  0  0  0  0  0  0  0  0  0  0  0
   36.2126   27.6794   35.4545 H   0  0  0  0  0  0  0  0  0  0  0  0
   35.3566   29.5025   34.0178 H   0  0  0  0  0  0  0  0  0  0  0  0
   36.8132   27.9391   28.6731 H   0  0  0  0  0  0  0  0  0  0  0  0
   36.3078   29.3869   29.5449 H   0  0  0  0  0  0  0  0  0  0  0  0
   38.3219   29.2641   27.5073 H   0  0  0  0  0  0  0  0  0  0  0  0
   38.0813   30.6419   28.5675 H   0  0  0  0  0  0  0  0  0  0  0  0
   40.3962   29.0271   28.6096 H   0  0  0  0  0  0  0  0  0  0  0  0
   39.9269   29.9365   30.0084 H   0  0  0  0  0  0  0  0  0  0  0  0
   39.0327   27.0661   29.2070 H   0  0  0  0  0  0  0  0  0  0  0  0
   39.8302   27.4782   30.6943 H   0  0  0  0  0  0  0  0  0  0  0  0
   38.7100   21.5379   33.2804 H   0  0  0  0  0  0  0  0  0  0  0  0
   42.9724   21.3633   33.6603 H   0  0  0  0  0  0  0  0  0  0  0  0
   42.7542   22.4268   36.7947 H   0  0  0  0  0  0  0  0  0  0  0  0
   44.3576   23.9049   37.8975 H   0  0  0  0  0  0  0  0  0  0  0  0
   45.0801   26.0002   36.8205 H   0  0  0  0  0  0  0  0  0  0  0  0
   44.1632   26.6010   34.6008 H   0  0  0  0  0  0  0  0  0  0  0  0
   42.8001   26.1201   32.8046 H   0  0  0  0  0  0  0  0  0  0  0  0
   41.7929   24.6507   32.7095 H   0  0  0  0  0  0  0  0  0  0  0  0
  2  1  2  0
  3  2  1  0
  4  5  1  0
  4  3  2  0
  5  6  2  0
  6  1  1  0
  7  8  2  0
  7  5  1  0
  9  8  1  0
 10  9  2  0
 11 10  1  0
 11 12  2  0
 12  7  1  0
 13 11  1  0
 14 13  1  0
 15 14  1  0
 15 16  1  0
 16 17  1  0
 17 13  1  0
 18 22  1  0
 18  3  1  0
 19 18  2  0
 20 19  1  0
 20 21  2  0
 21 22  1  0
 22 23  1  0
 23 24  2  0
 24 25  1  0
 26 25  2  0
 27 26  1  0
 28 23  1  0
 28 27  2  0
 29 28  1  0
  1 30  1  0
  2 31  1  0
  8 32  1  0
  9 33  1  0
 14 34  1  0
 14 35  1  0
 15 36  1  0
 15 37  1  0
 16 38  1  0
 16 39  1  0
 17 40  1  0
 17 41  1  0
 19 42  1  0
 21 43  1  0
 24 44  1  0
 25 45  1  0
 26 46  1  0
 27 47  1  0
 29 48  1  0
 29 49  1  0
M  ISO  8  30  14  31  14  32  14  33  14  34  13  35  13  36  13  37  13
M  ISO  8  38  13  39  13  40  13  41  13  42  14  43  14  44  14  45  14
M  ISO  2  46  14  47  14
M  END
>  <minimizedAffinity>  (1) 
-5.66582584

>  <minimizedRMSD>  (1) 
1.3256557

$$$$
