
     RDKit          3D

 46 50  0  0  0  0  0  0  0  0999 V2000
   38.1830   24.7500   36.7660 C   0  0  0  0  0  0  0  0  0  0  0  0
   39.0280   23.7810   36.1980 C   0  0  0  0  0  0  0  0  0  0  0  0
   39.3400   23.8750   34.8600 C   0  0  0  0  0  0  0  0  0  0  0  0
   38.8110   24.9190   34.1270 N   0  0  0  0  0  0  0  0  0  0  0  0
   38.0160   25.8170   34.6960 C   0  0  0  0  0  0  0  0  0  0  0  0
   37.6960   25.7390   36.0210 N   0  0  0  0  0  0  0  0  0  0  0  0
   37.4480   26.9250   33.9390 C   0  0  0  0  0  0  0  0  0  0  0  0
   36.5070   27.7620   34.4760 C   0  0  0  0  0  0  0  0  0  0  0  0
   36.0410   28.7720   33.6710 C   0  0  0  0  0  0  0  0  0  0  0  0
   36.4330   29.0080   32.4040 N   0  0  0  0  0  0  0  0  0  0  0  0
   37.3590   28.1660   31.9130 C   0  0  0  0  0  0  0  0  0  0  0  0
   37.8430   27.1600   32.6660 N   0  0  0  0  0  0  0  0  0  0  0  0
   37.8730   28.3060   30.5540 C   0  0  0  0  0  0  0  0  0  0  0  0
   37.3580   29.2260   29.6660 C   0  0  0  0  0  0  0  0  0  0  0  0
   37.8100   29.3940   28.3730 C   0  0  0  0  0  0  0  0  0  0  0  0
   38.8430   28.5980   27.9240 C   0  0  0  0  0  0  0  0  0  0  0  0
   39.3530   27.6790   28.8190 C   0  0  0  0  0  0  0  0  0  0  0  0
   38.8760   27.5650   30.0490 N   0  0  0  0  0  0  0  0  0  0  0  0
   40.2170   22.8580   34.3000 C   0  0  0  0  0  0  0  0  0  0  0  0
   39.7350   21.7650   33.5510 C   0  0  0  0  0  0  0  0  0  0  0  0
   40.8440   21.0510   33.2110 N   0  0  0  0  0  0  0  0  0  0  0  0
   41.9130   21.7060   33.7390 C   0  0  0  0  0  0  0  0  0  0  0  0
   41.5560   22.7790   34.3880 N   0  0  0  0  0  0  0  0  0  0  0  0
   42.4860   23.6270   35.0260 C   0  0  0  0  0  0  0  0  0  0  0  0
   43.0610   23.3480   36.2750 C   0  0  0  0  0  0  0  0  0  0  0  0
   43.9680   24.1870   36.8860 C   0  0  0  0  0  0  0  0  0  0  0  0
   44.3570   25.3450   36.2960 C   0  0  0  0  0  0  0  0  0  0  0  0
   43.8330   25.6680   35.0840 C   0  0  0  0  0  0  0  0  0  0  0  0
   42.9290   24.8340   34.4760 C   0  0  0  0  0  0  0  0  0  0  0  0
   42.4300   25.2430   33.2130 N   0  0  0  0  0  0  0  0  0  0  0  0
   37.9227   24.6903   37.8331 H   0  0  0  0  0  0  0  0  0  0  0  0
   39.4328   22.9624   36.8112 H   0  0  0  0  0  0  0  0  0  0  0  0
   36.1411   27.6313   35.5051 H   0  0  0  0  0  0  0  0  0  0  0  0
   35.2830   29.4458   34.0970 H   0  0  0  0  0  0  0  0  0  0  0  0
   36.5335   29.8677   30.0103 H   0  0  0  0  0  0  0  0  0  0  0  0
   37.3554   30.1479   27.7135 H   0  0  0  0  0  0  0  0  0  0  0  0
   39.2410   28.6909   26.9027 H   0  0  0  0  0  0  0  0  0  0  0  0
   40.1777   27.0238   28.5019 H   0  0  0  0  0  0  0  0  0  0  0  0
   38.6893   21.5379   33.2963 H   0  0  0  0  0  0  0  0  0  0  0  0
   42.9549   21.3702   33.6312 H   0  0  0  0  0  0  0  0  0  0  0  0
   42.7754   22.4186   36.7894 H   0  0  0  0  0  0  0  0  0  0  0  0
   44.3829   23.9133   37.8673 H   0  0  0  0  0  0  0  0  0  0  0  0
   45.0821   26.0095   36.7886 H   0  0  0  0  0  0  0  0  0  0  0  0
   44.1352   26.6024   34.5884 H   0  0  0  0  0  0  0  0  0  0  0  0
   42.7478   26.1297   32.7963 H   0  0  0  0  0  0  0  0  0  0  0  0
   41.7498   24.6533   32.7125 H   0  0  0  0  0  0  0  0  0  0  0  0
  2  1  2  0
  3  2  1  0
  4  5  1  0
  4  3  2  0
  5  6  2  0
  6  1  1  0
  7  8  2  0
  7  5  1  0
  9  8  1  0
 10  9  2  0
 11 10  1  0
 11 12  2  0
 12  7  1  0
 13 11  1  0
 14 13  2  0
 15 14  1  0
 16 15  2  0
 16 17  1  0
 17 18  2  0
 18 13  1  0
 19 23  1  0
 19  3  1  0
 20 19  2  0
 21 20  1  0
 21 22  2  0
 22 23  1  0
 23 24  1  0
 24 25  2  0
 25 26  1  0
 27 26  2  0
 28 27  1  0
 29 24  1  0
 29 28  2  0
 30 29  1  0
  1 31  1  0
  2 32  1  0
  8 33  1  0
  9 34  1  0
 14 35  1  0
 15 36  1  0
 16 37  1  0
 17 38  1  0
 20 39  1  0
 22 40  1  0
 25 41  1  0
 26 42  1  0
 27 43  1  0
 28 44  1  0
 30 45  1  0
 30 46  1  0
M  ISO  8  31  14  32  14  33  14  34  14  35  14  36  14  37  14  38  14
M  ISO  6  39  14  40  14  41  14  42  14  43  14  44  14
M  END
>  <minimizedAffinity>  (1) 
-5.62593269

>  <minimizedRMSD>  (1) 
1.62526906

$$$$
