
     RDKit          3D

 40 43  0  0  0  0  0  0  0  0999 V2000
   40.7580   22.5700   34.4010 C   0  0  0  0  0  0  0  0  0  0  0  0
   40.4050   21.4660   33.6120 C   0  0  0  0  0  0  0  0  0  0  0  0
   41.5930   20.9440   33.2050 N   0  0  0  0  0  0  0  0  0  0  0  0
   42.5820   21.7150   33.7400 C   0  0  0  0  0  0  0  0  0  0  0  0
   42.1040   22.6930   34.4590 N   0  0  0  0  0  0  0  0  0  0  0  0
   42.9220   23.6310   35.1170 C   0  0  0  0  0  0  0  0  0  0  0  0
   43.4790   23.4040   36.3900 C   0  0  0  0  0  0  0  0  0  0  0  0
   44.2780   24.3240   37.0300 C   0  0  0  0  0  0  0  0  0  0  0  0
   44.5670   25.5230   36.4390 C   0  0  0  0  0  0  0  0  0  0  0  0
   44.0510   25.7900   35.2090 C   0  0  0  0  0  0  0  0  0  0  0  0
   43.2570   24.8660   34.5790 C   0  0  0  0  0  0  0  0  0  0  0  0
   42.7640   25.2210   33.3100 N   0  0  0  0  0  0  0  0  0  0  0  0
   38.5230   23.9890   37.0290 C   0  0  0  0  0  0  0  0  0  0  0  0
   39.4830   23.1800   36.3780 C   0  0  0  0  0  0  0  0  0  0  0  0
   39.7650   23.4220   35.0420 C   0  0  0  0  0  0  0  0  0  0  0  0
   39.0950   24.4380   34.4160 N   0  0  0  0  0  0  0  0  0  0  0  0
   38.1900   25.1860   35.0670 C   0  0  0  0  0  0  0  0  0  0  0  0
   37.9050   24.9630   36.3650 N   0  0  0  0  0  0  0  0  0  0  0  0
   37.4880   26.2680   34.3750 C   0  0  0  0  0  0  0  0  0  0  0  0
   37.0320   27.3590   35.0720 C   0  0  0  0  0  0  0  0  0  0  0  0
   36.3840   28.3280   34.3510 C   0  0  0  0  0  0  0  0  0  0  0  0
   36.1580   28.2980   33.0090 N   0  0  0  0  0  0  0  0  0  0  0  0
   36.6260   27.2070   32.3820 C   0  0  0  0  0  0  0  0  0  0  0  0
   37.2630   26.2430   33.0540 N   0  0  0  0  0  0  0  0  0  0  0  0
   36.4440   27.0560   30.9160 C   0  0  0  0  0  0  0  0  0  0  0  0
   37.6130   26.6470   30.2980 F   0  0  0  0  0  0  0  0  0  0  0  0
   36.1480   28.2950   30.3330 F   0  0  0  0  0  0  0  0  0  0  0  0
   35.4150   26.2010   30.6000 F   0  0  0  0  0  0  0  0  0  0  0  0
   39.3938   21.1034   33.3753 H   0  0  0  0  0  0  0  0  0  0  0  0
   43.6557   21.5339   33.5839 H   0  0  0  0  0  0  0  0  0  0  0  0
   43.2664   22.4501   36.8949 H   0  0  0  0  0  0  0  0  0  0  0  0
   44.6873   24.0931   38.0246 H   0  0  0  0  0  0  0  0  0  0  0  0
   45.2057   26.2588   36.9495 H   0  0  0  0  0  0  0  0  0  0  0  0
   44.2711   26.7496   34.7183 H   0  0  0  0  0  0  0  0  0  0  0  0
   43.0059   26.1347   32.9007 H   0  0  0  0  0  0  0  0  0  0  0  0
   42.1612   24.5672   32.7903 H   0  0  0  0  0  0  0  0  0  0  0  0
   38.2860   23.8126   38.0886 H   0  0  0  0  0  0  0  0  0  0  0  0
   39.9967   22.3734   36.9215 H   0  0  0  0  0  0  0  0  0  0  0  0
   37.1797   27.4513   36.1581 H   0  0  0  0  0  0  0  0  0  0  0  0
   36.0152   29.2045   34.9039 H   0  0  0  0  0  0  0  0  0  0  0  0
  1  5  1  0
  1 15  1  0
  2  1  2  0
  3  2  1  0
  3  4  2  0
  4  5  1  0
  5  6  1  0
  6  7  2  0
  7  8  1  0
  9  8  2  0
 10  9  1  0
 11  6  1  0
 11 10  2  0
 12 11  1  0
 14 13  2  0
 15 14  1  0
 16 15  2  0
 16 17  1  0
 17 18  2  0
 18 13  1  0
 19 17  1  0
 19 20  2  0
 21 20  1  0
 22 21  2  0
 23 22  1  0
 23 24  2  0
 24 19  1  0
 25 23  1  0
 26 25  1  0
 27 25  1  0
 28 25  1  0
  2 29  1  0
  4 30  1  0
  7 31  1  0
  8 32  1  0
  9 33  1  0
 10 34  1  0
 12 35  1  0
 12 36  1  0
 13 37  1  0
 14 38  1  0
 20 39  1  0
 21 40  1  0
M  ISO  8  29  14  30  14  31  14  32  14  33  14  34  14  37  14  38  14
M  ISO  2  39  14  40  14
M  END
>  <minimizedAffinity>  (1) 
-5.3545537

>  <minimizedRMSD>  (1) 
0.839160681

$$$$
