
     RDKit          3D

 50 54  0  0  0  0  0  0  0  0999 V2000
   38.1370   25.1500   36.8910 C   0  0  0  0  0  0  0  0  0  0  0  0
   38.8860   24.1240   36.2910 C   0  0  0  0  0  0  0  0  0  0  0  0
   39.0750   24.1360   34.9280 C   0  0  0  0  0  0  0  0  0  0  0  0
   38.5130   25.1660   34.2000 N   0  0  0  0  0  0  0  0  0  0  0  0
   37.8040   26.1310   34.7980 C   0  0  0  0  0  0  0  0  0  0  0  0
   37.6170   26.1220   36.1360 N   0  0  0  0  0  0  0  0  0  0  0  0
   37.2220   27.2060   34.0160 C   0  0  0  0  0  0  0  0  0  0  0  0
   36.1150   27.8830   34.4900 C   0  0  0  0  0  0  0  0  0  0  0  0
   35.6250   28.8910   33.6830 C   0  0  0  0  0  0  0  0  0  0  0  0
   36.1250   29.2640   32.4930 N   0  0  0  0  0  0  0  0  0  0  0  0
   37.2110   28.5690   32.0700 C   0  0  0  0  0  0  0  0  0  0  0  0
   37.7220   27.5740   32.8310 N   0  0  0  0  0  0  0  0  0  0  0  0
   37.8940   28.8450   30.7820 C   0  0  0  0  0  0  0  0  0  0  0  0
   38.0380   27.6200   29.9070 C   0  0  0  0  0  0  0  0  0  0  0  0
   38.3870   28.2410   28.5700 C   0  0  0  0  0  0  0  0  0  0  0  0
   37.8630   29.6610   28.6040 C   0  0  0  0  0  0  0  0  0  0  0  0
   37.0320   29.7450   29.8910 C   0  0  0  0  0  0  0  0  0  0  0  0
   39.8580   23.0540   34.3420 C   0  0  0  0  0  0  0  0  0  0  0  0
   39.2760   22.0140   33.5980 C   0  0  0  0  0  0  0  0  0  0  0  0
   40.3190   21.2180   33.2290 N   0  0  0  0  0  0  0  0  0  0  0  0
   41.4410   21.7840   33.7400 C   0  0  0  0  0  0  0  0  0  0  0  0
   41.1900   22.8800   34.4080 N   0  0  0  0  0  0  0  0  0  0  0  0
   42.2030   23.6470   35.0330 C   0  0  0  0  0  0  0  0  0  0  0  0
   42.8280   23.2650   36.2220 C   0  0  0  0  0  0  0  0  0  0  0  0
   43.8050   24.0110   36.8190 C   0  0  0  0  0  0  0  0  0  0  0  0
   44.2210   25.1800   36.2740 C   0  0  0  0  0  0  0  0  0  0  0  0
   43.6520   25.6110   35.1110 C   0  0  0  0  0  0  0  0  0  0  0  0
   42.6720   24.8550   34.5220 C   0  0  0  0  0  0  0  0  0  0  0  0
   42.1170   25.3520   33.3170 N   0  0  0  0  0  0  0  0  0  0  0  0
   37.9791   25.1531   37.9796 H   0  0  0  0  0  0  0  0  0  0  0  0
   39.3170   23.3192   36.9046 H   0  0  0  0  0  0  0  0  0  0  0  0
   35.6503   27.6334   35.4553 H   0  0  0  0  0  0  0  0  0  0  0  0
   34.7440   29.4391   34.0482 H   0  0  0  0  0  0  0  0  0  0  0  0
   38.8613   29.2710   31.0866 H   0  0  0  0  0  0  0  0  0  0  0  0
   38.8430   26.9621   30.2665 H   0  0  0  0  0  0  0  0  0  0  0  0
   37.1444   26.9790   29.8834 H   0  0  0  0  0  0  0  0  0  0  0  0
   37.9089   27.6792   27.7540 H   0  0  0  0  0  0  0  0  0  0  0  0
   39.4728   28.2224   28.3948 H   0  0  0  0  0  0  0  0  0  0  0  0
   38.6951   30.3799   28.6331 H   0  0  0  0  0  0  0  0  0  0  0  0
   37.2686   29.9043   27.7110 H   0  0  0  0  0  0  0  0  0  0  0  0
   36.9705   30.7730   30.2775 H   0  0  0  0  0  0  0  0  0  0  0  0
   35.9764   29.4506   29.7962 H   0  0  0  0  0  0  0  0  0  0  0  0
   38.2104   21.8729   33.3642 H   0  0  0  0  0  0  0  0  0  0  0  0
   42.4503   21.3672   33.6072 H   0  0  0  0  0  0  0  0  0  0  0  0
   42.5205   22.3226   36.6987 H   0  0  0  0  0  0  0  0  0  0  0  0
   44.2605   23.6574   37.7557 H   0  0  0  0  0  0  0  0  0  0  0  0
   45.0073   25.7739   36.7629 H   0  0  0  0  0  0  0  0  0  0  0  0
   43.9766   26.5559   34.6507 H   0  0  0  0  0  0  0  0  0  0  0  0
   42.4520   26.2436   32.9250 H   0  0  0  0  0  0  0  0  0  0  0  0
   41.3785   24.8217   32.8329 H   0  0  0  0  0  0  0  0  0  0  0  0
  2  1  2  0
  3  2  1  0
  4  5  1  0
  4  3  2  0
  5  6  2  0
  6  1  1  0
  7  8  2  0
  7  5  1  0
  9  8  1  0
 10  9  2  0
 11 10  1  0
 11 12  2  0
 12  7  1  0
 13 11  1  0
 14 13  1  0
 15 16  1  0
 15 14  1  0
 16 17  1  0
 17 13  1  0
 18 22  1  0
 18  3  1  0
 19 18  2  0
 20 19  1  0
 20 21  2  0
 21 22  1  0
 22 23  1  0
 23 24  2  0
 24 25  1  0
 26 25  2  0
 27 26  1  0
 28 23  1  0
 28 27  2  0
 29 28  1  0
  1 30  1  0
  2 31  1  0
  8 32  1  0
  9 33  1  0
 13 34  1  0
 14 35  1  0
 14 36  1  0
 15 37  1  0
 15 38  1  0
 16 39  1  0
 16 40  1  0
 17 41  1  0
 17 42  1  0
 19 43  1  0
 21 44  1  0
 24 45  1  0
 25 46  1  0
 26 47  1  0
 27 48  1  0
 29 49  1  0
 29 50  1  0
M  ISO  8  30  14  31  14  32  14  33  14  34  13  35  13  36  13  37  13
M  ISO  8  38  13  39  13  40  13  41  13  42  13  43  14  44  14  45  14
M  ISO  3  46  14  47  14  48  14
M  END
>  <minimizedAffinity>  (1) 
-5.04662323

>  <minimizedRMSD>  (1) 
1.4805603

$$$$
