
     RDKit          3D

 31 34  0  0  0  0  0  0  0  0999 V2000
   39.9100   22.9860   37.4290 C   0  0  0  0  0  0  0  0  0  0  0  0
   39.0760   23.1400   38.5460 C   0  0  0  0  0  0  0  0  0  0  0  0
   37.8230   23.7480   38.3250 C   0  0  0  0  0  0  0  0  0  0  0  0
   37.4870   24.1460   37.0730 N   0  0  0  0  0  0  0  0  0  0  0  0
   38.3350   23.9720   36.0180 C   0  0  0  0  0  0  0  0  0  0  0  0
   39.5230   23.4000   36.2090 N   0  0  0  0  0  0  0  0  0  0  0  0
   38.0100   24.3770   34.6970 N   0  0  0  0  0  0  0  0  0  0  0  0
   38.1590   23.5320   33.6570 C   0  0  0  0  0  0  0  0  0  0  0  0
   37.7700   24.1960   32.5340 N   0  0  0  0  0  0  0  0  0  0  0  0
   37.3830   25.4390   32.8560 C   0  0  0  0  0  0  0  0  0  0  0  0
   36.8980   26.5630   32.2090 C   0  0  0  0  0  0  0  0  0  0  0  0
   36.7530   26.4720   30.9510 O   0  0  0  0  0  0  0  0  0  0  0  0
   36.6050   27.6960   32.9300 N   0  0  0  0  0  0  0  0  0  0  0  0
   36.7720   27.7470   34.2450 C   0  0  0  0  0  0  0  0  0  0  0  0
   36.4260   29.0000   34.8050 N   0  0  0  0  0  0  0  0  0  0  0  0
   37.2450   26.6570   34.9000 N   0  0  0  0  0  0  0  0  0  0  0  0
   37.5350   25.5490   34.2210 C   0  0  0  0  0  0  0  0  0  0  0  0
   36.1180   28.7320   32.0520 C   0  0  0  0  0  0  0  0  0  0  0  0
   35.2270   29.7410   32.3360 C   0  0  0  0  0  0  0  0  0  0  0  0
   34.9970   30.5450   31.2490 C   0  0  0  0  0  0  0  0  0  0  0  0
   35.7650   30.0110   30.2860 N   0  0  0  0  0  0  0  0  0  0  0  0
   36.4020   28.9830   30.7390 N   0  0  0  0  0  0  0  0  0  0  0  0
   40.8980   22.5184   37.5527 H   0  0  0  0  0  0  0  0  0  0  0  0
   39.3845   22.8027   39.5465 H   0  0  0  0  0  0  0  0  0  0  0  0
   37.1241   23.8981   39.1611 H   0  0  0  0  0  0  0  0  0  0  0  0
   38.5271   22.4966   33.7067 H   0  0  0  0  0  0  0  0  0  0  0  0
   36.5163   29.1532   35.8195 H   0  0  0  0  0  0  0  0  0  0  0  0
   36.0840   29.7586   34.1980 H   0  0  0  0  0  0  0  0  0  0  0  0
   34.7548   29.8858   33.3189 H   0  0  0  0  0  0  0  0  0  0  0  0
   34.3372   31.4226   31.1819 H   0  0  0  0  0  0  0  0  0  0  0  0
   35.8360   30.3700   29.3232 H   0  0  0  0  0  0  0  0  0  0  0  0
  1  2  2  0
  3  2  1  0
  4  3  2  0
  5  6  2  0
  5  4  1  0
  6  1  1  0
  7  5  1  0
  8  7  1  0
  9 10  1  0
  9  8  2  0
 10 17  2  0
 11 10  1  0
 11 13  1  0
 12 11  2  0
 13 14  1  0
 14 15  1  0
 14 16  2  0
 17  7  1  0
 17 16  1  0
 18 19  1  0
 18 13  1  0
 20 19  2  0
 21 22  1  0
 21 20  1  0
 22 18  2  0
  1 23  1  0
  2 24  1  0
  3 25  1  0
  8 26  1  0
 15 27  1  0
 15 28  1  0
 19 29  1  0
 20 30  1  0
 21 31  1  0
M  ISO  7  23  14  24  14  25  14  26  14  29  14  30  14  31   9
M  END
>  <minimizedAffinity>  (1) 
-6.30607653

>  <minimizedRMSD>  (1) 
1.93548536

$$$$
