
     RDKit          3D

 32 35  0  0  0  0  0  0  0  0999 V2000
   39.9690   22.9670   37.3210 C   0  0  0  0  0  0  0  0  0  0  0  0
   39.1880   23.1460   38.4730 C   0  0  0  0  0  0  0  0  0  0  0  0
   37.9220   23.7650   38.3050 C   0  0  0  0  0  0  0  0  0  0  0  0
   37.5380   24.1460   37.0600 N   0  0  0  0  0  0  0  0  0  0  0  0
   38.3340   23.9480   35.9750 C   0  0  0  0  0  0  0  0  0  0  0  0
   39.5380   23.3630   36.1110 N   0  0  0  0  0  0  0  0  0  0  0  0
   37.9640   24.3350   34.6590 N   0  0  0  0  0  0  0  0  0  0  0  0
   38.0680   23.4700   33.6190 C   0  0  0  0  0  0  0  0  0  0  0  0
   37.6420   24.1240   32.4990 N   0  0  0  0  0  0  0  0  0  0  0  0
   37.2760   25.3800   32.8270 C   0  0  0  0  0  0  0  0  0  0  0  0
   36.7770   26.5050   32.1870 C   0  0  0  0  0  0  0  0  0  0  0  0
   36.5860   26.4030   30.9460 O   0  0  0  0  0  0  0  0  0  0  0  0
   36.5230   27.6250   32.8820 N   0  0  0  0  0  0  0  0  0  0  0  0
   36.7350   27.7060   34.2010 C   0  0  0  0  0  0  0  0  0  0  0  0
   36.3990   28.9680   34.7960 N   0  0  0  0  0  0  0  0  0  0  0  0
   37.2250   26.6160   34.8560 N   0  0  0  0  0  0  0  0  0  0  0  0
   37.4820   25.5020   34.1860 C   0  0  0  0  0  0  0  0  0  0  0  0
   36.0040   28.8100   32.2390 C   0  0  0  0  0  0  0  0  0  0  0  0
   36.6590   29.6550   31.4220 C   0  0  0  0  0  0  0  0  0  0  0  0
   36.1160   30.7700   30.8350 C   0  0  0  0  0  0  0  0  0  0  0  0
   34.8130   31.0660   31.0820 N   0  0  0  0  0  0  0  0  0  0  0  0
   34.1320   30.2380   31.8960 C   0  0  0  0  0  0  0  0  0  0  0  0
   34.7320   29.1780   32.4250 N   0  0  0  0  0  0  0  0  0  0  0  0
   40.9569   22.4915   37.4103 H   0  0  0  0  0  0  0  0  0  0  0  0
   39.5414   22.8209   39.4626 H   0  0  0  0  0  0  0  0  0  0  0  0
   37.2628   23.9333   39.1694 H   0  0  0  0  0  0  0  0  0  0  0  0
   38.4293   22.4322   33.6691 H   0  0  0  0  0  0  0  0  0  0  0  0
   36.5325   29.1125   35.8070 H   0  0  0  0  0  0  0  0  0  0  0  0
   36.0244   29.7292   34.2120 H   0  0  0  0  0  0  0  0  0  0  0  0
   37.7150   29.4341   31.2074 H   0  0  0  0  0  0  0  0  0  0  0  0
   36.7227   31.4108   30.1783 H   0  0  0  0  0  0  0  0  0  0  0  0
   33.0750   30.4401   32.1237 H   0  0  0  0  0  0  0  0  0  0  0  0
  1  2  2  0
  3  2  1  0
  4  3  2  0
  5  6  2  0
  5  4  1  0
  6  1  1  0
  7  5  1  0
  8  7  1  0
  9 10  1  0
  9  8  2  0
 10 17  2  0
 11 10  1  0
 11 13  1  0
 12 11  2  0
 13 14  1  0
 14 15  1  0
 14 16  2  0
 17  7  1  0
 17 16  1  0
 18 23  1  0
 18 13  1  0
 19 18  2  0
 20 21  2  0
 20 19  1  0
 21 22  1  0
 22 23  2  0
  1 24  1  0
  2 25  1  0
  3 26  1  0
  8 27  1  0
 15 28  1  0
 15 29  1  0
 19 30  1  0
 20 31  1  0
 22 32  1  0
M  ISO  7  24  14  25  14  26  14  27  14  30  14  31  14  32  14
M  END
>  <minimizedAffinity>  (1) 
-5.87103224

>  <minimizedRMSD>  (1) 
2.03326893

$$$$
