
     RDKit          3D

 32 35  0  0  0  0  0  0  0  0999 V2000
   39.9680   22.9740   37.3360 C   0  0  0  0  0  0  0  0  0  0  0  0
   39.1810   23.1470   38.4840 C   0  0  0  0  0  0  0  0  0  0  0  0
   37.9140   23.7570   38.3030 C   0  0  0  0  0  0  0  0  0  0  0  0
   37.5340   24.1340   37.0560 N   0  0  0  0  0  0  0  0  0  0  0  0
   38.3290   23.9450   35.9840 C   0  0  0  0  0  0  0  0  0  0  0  0
   39.5290   23.3710   36.1310 N   0  0  0  0  0  0  0  0  0  0  0  0
   37.9650   24.3270   34.6640 N   0  0  0  0  0  0  0  0  0  0  0  0
   38.0740   23.4690   33.6310 C   0  0  0  0  0  0  0  0  0  0  0  0
   37.6550   24.1190   32.5050 N   0  0  0  0  0  0  0  0  0  0  0  0
   37.2830   25.3790   32.8270 C   0  0  0  0  0  0  0  0  0  0  0  0
   36.7880   26.5040   32.1830 C   0  0  0  0  0  0  0  0  0  0  0  0
   36.6070   26.3950   30.9440 O   0  0  0  0  0  0  0  0  0  0  0  0
   36.5310   27.6220   32.8780 N   0  0  0  0  0  0  0  0  0  0  0  0
   36.7330   27.7070   34.1980 C   0  0  0  0  0  0  0  0  0  0  0  0
   36.4030   28.9690   34.7970 N   0  0  0  0  0  0  0  0  0  0  0  0
   37.2180   26.6230   34.8590 N   0  0  0  0  0  0  0  0  0  0  0  0
   37.4820   25.5010   34.1930 C   0  0  0  0  0  0  0  0  0  0  0  0
   36.0180   28.8010   32.2380 C   0  0  0  0  0  0  0  0  0  0  0  0
   36.6650   29.6520   31.4200 C   0  0  0  0  0  0  0  0  0  0  0  0
   36.1470   30.7710   30.8220 C   0  0  0  0  0  0  0  0  0  0  0  0
   34.8340   31.0520   31.0860 N   0  0  0  0  0  0  0  0  0  0  0  0
   34.1310   30.2350   31.8990 C   0  0  0  0  0  0  0  0  0  0  0  0
   34.7480   29.1830   32.4160 N   0  0  0  0  0  0  0  0  0  0  0  0
   40.9596   22.5061   37.4243 H   0  0  0  0  0  0  0  0  0  0  0  0
   39.5298   22.8251   39.4763 H   0  0  0  0  0  0  0  0  0  0  0  0
   37.2476   23.9226   39.1623 H   0  0  0  0  0  0  0  0  0  0  0  0
   38.4355   22.4315   33.6847 H   0  0  0  0  0  0  0  0  0  0  0  0
   36.5324   29.1081   35.8093 H   0  0  0  0  0  0  0  0  0  0  0  0
   36.0368   29.7355   34.2145 H   0  0  0  0  0  0  0  0  0  0  0  0
   37.7206   29.4254   31.2094 H   0  0  0  0  0  0  0  0  0  0  0  0
   36.7548   31.4098   30.1643 H   0  0  0  0  0  0  0  0  0  0  0  0
   33.0739   30.4375   32.1261 H   0  0  0  0  0  0  0  0  0  0  0  0
  1  2  2  0
  3  2  1  0
  4  3  2  0
  5  6  2  0
  5  4  1  0
  6  1  1  0
  7  5  1  0
  8  7  1  0
  9 10  1  0
  9  8  2  0
 10 17  2  0
 11 10  1  0
 11 13  1  0
 12 11  2  0
 13 14  1  0
 14 15  1  0
 14 16  2  0
 17  7  1  0
 17 16  1  0
 18 23  1  0
 18 13  1  0
 19 18  2  0
 20 21  2  0
 20 19  1  0
 21 22  1  0
 22 23  2  0
  1 24  1  0
  2 25  1  0
  3 26  1  0
  8 27  1  0
 15 28  1  0
 15 29  1  0
 19 30  1  0
 20 31  1  0
 22 32  1  0
M  ISO  7  24  14  25  14  26  14  27  14  30  14  31  14  32  14
M  END
>  <minimizedAffinity>  (1) 
-5.8693943

>  <minimizedRMSD>  (1) 
1.98004806

$$$$
