
     RDKit          3D

 36 39  0  0  0  0  0  0  0  0999 V2000
   40.4680   26.4980   34.7630 C   0  0  0  0  0  0  0  0  0  0  0  0
   39.1770   26.9950   34.2140 C   0  0  0  0  0  0  0  0  0  0  0  0
   38.1120   27.2370   35.0700 C   0  0  0  0  0  0  0  0  0  0  0  0
   36.8710   27.6980   34.6670 C   0  0  0  0  0  0  0  0  0  0  0  0
   36.7020   27.9260   33.3260 N   0  0  0  0  0  0  0  0  0  0  0  0
   37.7330   27.6930   32.4880 C   0  0  0  0  0  0  0  0  0  0  0  0
   38.9360   27.2370   32.9400 N   0  0  0  0  0  0  0  0  0  0  0  0
   37.6040   27.9190   31.0520 C   0  0  0  0  0  0  0  0  0  0  0  0
   38.7070   28.2480   30.2720 C   0  0  0  0  0  0  0  0  0  0  0  0
   38.2810   28.4020   28.9500 C   0  0  0  0  0  0  0  0  0  0  0  0
   36.9530   28.1630   28.9830 N   0  0  0  0  0  0  0  0  0  0  0  0
   36.5240   27.8760   30.2050 N   0  0  0  0  0  0  0  0  0  0  0  0
   40.8590   25.1670   34.1640 C   0  0  0  0  0  0  0  0  0  0  0  0
   40.7010   22.6790   36.9490 C   0  0  0  0  0  0  0  0  0  0  0  0
   39.4880   22.0370   36.6530 C   0  0  0  0  0  0  0  0  0  0  0  0
   38.7500   22.4440   35.5360 C   0  0  0  0  0  0  0  0  0  0  0  0
   39.2530   23.4590   34.7800 N   0  0  0  0  0  0  0  0  0  0  0  0
   40.4280   24.0590   35.0920 C   0  0  0  0  0  0  0  0  0  0  0  0
   41.1460   23.6830   36.1560 N   0  0  0  0  0  0  0  0  0  0  0  0
   37.4820   21.7830   35.2120 C   0  0  0  0  0  0  0  0  0  0  0  0
   36.4480   21.3090   35.8940 N   0  0  0  0  0  0  0  0  0  0  0  0
   35.5650   20.8070   35.0810 O   0  0  0  0  0  0  0  0  0  0  0  0
   36.0250   20.9550   33.8550 C   0  0  0  0  0  0  0  0  0  0  0  0
   37.2430   21.5710   33.8910 N   0  0  0  0  0  0  0  0  0  0  0  0
   41.2556   27.2332   34.5410 H   0  0  0  0  0  0  0  0  0  0  0  0
   40.3476   26.3618   35.8479 H   0  0  0  0  0  0  0  0  0  0  0  0
   38.2648   27.0494   36.1431 H   0  0  0  0  0  0  0  0  0  0  0  0
   36.0591   27.8731   35.3882 H   0  0  0  0  0  0  0  0  0  0  0  0
   39.7390   28.3668   30.6338 H   0  0  0  0  0  0  0  0  0  0  0  0
   38.8939   28.6613   28.0741 H   0  0  0  0  0  0  0  0  0  0  0  0
   36.3425   28.1993   28.1542 H   0  0  0  0  0  0  0  0  0  0  0  0
   40.3650   25.0431   33.1890 H   0  0  0  0  0  0  0  0  0  0  0  0
   41.9497   25.1301   34.0264 H   0  0  0  0  0  0  0  0  0  0  0  0
   41.2896   22.3669   37.8243 H   0  0  0  0  0  0  0  0  0  0  0  0
   39.1211   21.2214   37.2934 H   0  0  0  0  0  0  0  0  0  0  0  0
   35.5061   20.6312   32.9407 H   0  0  0  0  0  0  0  0  0  0  0  0
  2  1  1  0
  2  3  2  0
  4  3  1  0
  5  4  2  0
  6  7  2  0
  6  5  1  0
  7  2  1  0
  8  6  1  0
  9  8  1  0
 10 11  1  0
 10  9  2  0
 11 12  1  0
 12  8  2  0
 13  1  1  0
 13 18  1  0
 15 14  2  0
 16 15  1  0
 17 18  1  0
 17 16  2  0
 18 19  2  0
 19 14  1  0
 20 16  1  0
 20 21  2  0
 22 21  1  0
 23 24  2  0
 23 22  1  0
 24 20  1  0
  1 25  1  0
  1 26  1  0
  3 27  1  0
  4 28  1  0
  9 29  1  0
 10 30  1  0
 11 31  1  0
 13 32  1  0
 13 33  1  0
 14 34  1  0
 15 35  1  0
 23 36  1  0
M  ISO  8  25   8  26   8  27  14  28  14  29  14  30  14  31   9  32   8
M  ISO  4  33   8  34  14  35  14  36  14
M  END
>  <minimizedAffinity>  (1) 
-5.33172417

>  <minimizedRMSD>  (1) 
3.29120779

$$$$
