
     RDKit          3D

 37 40  0  0  0  0  0  0  0  0999 V2000
   39.9150   22.9810   37.3850 C   0  0  0  0  0  0  0  0  0  0  0  0
   39.1400   23.1020   38.5490 C   0  0  0  0  0  0  0  0  0  0  0  0
   37.9160   23.7600   38.3960 C   0  0  0  0  0  0  0  0  0  0  0  0
   37.5310   24.2390   37.1820 N   0  0  0  0  0  0  0  0  0  0  0  0
   38.3370   24.0860   36.0840 C   0  0  0  0  0  0  0  0  0  0  0  0
   39.5090   23.4650   36.1940 N   0  0  0  0  0  0  0  0  0  0  0  0
   37.9590   24.5740   34.8090 N   0  0  0  0  0  0  0  0  0  0  0  0
   38.0140   23.7770   33.7180 C   0  0  0  0  0  0  0  0  0  0  0  0
   37.5950   24.5070   32.6500 N   0  0  0  0  0  0  0  0  0  0  0  0
   37.2810   25.7380   33.0430 C   0  0  0  0  0  0  0  0  0  0  0  0
   36.8090   26.9210   32.4800 C   0  0  0  0  0  0  0  0  0  0  0  0
   36.5930   26.9000   31.2390 O   0  0  0  0  0  0  0  0  0  0  0  0
   36.6020   28.0310   33.2730 N   0  0  0  0  0  0  0  0  0  0  0  0
   36.8440   28.0050   34.5780 C   0  0  0  0  0  0  0  0  0  0  0  0
   36.5810   29.2440   35.2180 N   0  0  0  0  0  0  0  0  0  0  0  0
   37.3060   26.8670   35.1590 N   0  0  0  0  0  0  0  0  0  0  0  0
   37.5110   25.7840   34.4130 C   0  0  0  0  0  0  0  0  0  0  0  0
   36.1220   29.1240   32.5100 C   0  0  0  0  0  0  0  0  0  0  0  0
   34.7130   29.1390   32.0640 C   0  0  0  0  0  0  0  0  0  0  0  0
   34.7210   30.5510   31.4260 C   0  0  0  0  0  0  0  0  0  0  0  0
   36.0750   30.5960   30.7270 C   0  0  0  0  0  0  0  0  0  0  0  0
   36.8170   29.3260   31.1640 C   0  0  0  0  0  0  0  0  0  0  0  0
   40.8887   22.4730   37.4468 H   0  0  0  0  0  0  0  0  0  0  0  0
   39.4741   22.7048   39.5189 H   0  0  0  0  0  0  0  0  0  0  0  0
   37.2569   23.8920   39.2667 H   0  0  0  0  0  0  0  0  0  0  0  0
   38.3394   22.7264   33.6980 H   0  0  0  0  0  0  0  0  0  0  0  0
   36.7329   29.3423   36.2320 H   0  0  0  0  0  0  0  0  0  0  0  0
   36.2382   30.0449   34.6685 H   0  0  0  0  0  0  0  0  0  0  0  0
   36.3142   29.8809   33.2847 H   0  0  0  0  0  0  0  0  0  0  0  0
   34.4972   28.3486   31.3301 H   0  0  0  0  0  0  0  0  0  0  0  0
   33.9534   28.9571   32.8385 H   0  0  0  0  0  0  0  0  0  0  0  0
   33.8984   30.6649   30.7047 H   0  0  0  0  0  0  0  0  0  0  0  0
   34.5803   31.3608   32.1570 H   0  0  0  0  0  0  0  0  0  0  0  0
   36.6349   31.4913   31.0351 H   0  0  0  0  0  0  0  0  0  0  0  0
   35.9634   30.6422   29.6336 H   0  0  0  0  0  0  0  0  0  0  0  0
   36.6444   28.4853   30.4759 H   0  0  0  0  0  0  0  0  0  0  0  0
   37.9144   29.3949   31.1936 H   0  0  0  0  0  0  0  0  0  0  0  0
  1  2  2  0
  3  2  1  0
  4  3  2  0
  5  6  2  0
  5  4  1  0
  6  1  1  0
  7  5  1  0
  8  7  1  0
  9 10  1  0
  9  8  2  0
 10 17  2  0
 11 10  1  0
 11 13  1  0
 12 11  2  0
 13 14  1  0
 14 16  2  0
 14 15  1  0
 17  7  1  0
 17 16  1  0
 18 13  1  0
 19 18  1  0
 20 19  1  0
 21 22  1  0
 21 20  1  0
 22 18  1  0
  1 23  1  0
  2 24  1  0
  3 25  1  0
  8 26  1  0
 15 27  1  0
 15 28  1  0
 18 29  1  0
 19 30  1  0
 19 31  1  0
 20 32  1  0
 20 33  1  0
 21 34  1  0
 21 35  1  0
 22 36  1  0
 22 37  1  0
M  ISO  8  23  14  24  14  25  14  26  14  29  13  30  13  31  13  32  13
M  ISO  5  33  13  34  13  35  13  36  13  37  13
M  END
>  <minimizedAffinity>  (1) 
-5.562819

>  <minimizedRMSD>  (1) 
2.26035166

$$$$
