
     RDKit          3D

 30 32  0  0  0  0  0  0  0  0999 V2000
   39.9700   23.0640   37.0760 C   0  0  0  0  0  0  0  0  0  0  0  0
   39.2180   23.2240   38.2510 C   0  0  0  0  0  0  0  0  0  0  0  0
   37.9560   23.8250   38.1200 C   0  0  0  0  0  0  0  0  0  0  0  0
   37.5280   24.2150   36.8900 N   0  0  0  0  0  0  0  0  0  0  0  0
   38.3030   24.0350   35.7760 C   0  0  0  0  0  0  0  0  0  0  0  0
   39.5020   23.4670   35.8800 N   0  0  0  0  0  0  0  0  0  0  0  0
   37.8700   24.4360   34.4850 N   0  0  0  0  0  0  0  0  0  0  0  0
   37.9450   23.5810   33.4350 C   0  0  0  0  0  0  0  0  0  0  0  0
   37.4690   24.2240   32.3370 N   0  0  0  0  0  0  0  0  0  0  0  0
   37.0980   25.4610   32.6780 C   0  0  0  0  0  0  0  0  0  0  0  0
   36.5530   26.5920   32.0650 C   0  0  0  0  0  0  0  0  0  0  0  0
   36.3100   26.5040   30.8330 O   0  0  0  0  0  0  0  0  0  0  0  0
   36.3110   27.7200   32.8020 N   0  0  0  0  0  0  0  0  0  0  0  0
   36.5740   27.7950   34.1080 C   0  0  0  0  0  0  0  0  0  0  0  0
   36.2570   29.0410   34.7070 N   0  0  0  0  0  0  0  0  0  0  0  0
   37.1070   26.7030   34.7250 N   0  0  0  0  0  0  0  0  0  0  0  0
   37.3560   25.5920   34.0440 C   0  0  0  0  0  0  0  0  0  0  0  0
   35.7430   28.8070   32.0200 C   0  0  0  0  0  0  0  0  0  0  0  0
   36.7720   29.6460   31.3240 C   0  0  0  0  0  0  0  0  0  0  0  0
   40.9649   22.5984   37.1343 H   0  0  0  0  0  0  0  0  0  0  0  0
   39.5998   22.8939   39.2284 H   0  0  0  0  0  0  0  0  0  0  0  0
   37.3197   23.9788   39.0040 H   0  0  0  0  0  0  0  0  0  0  0  0
   38.3243   22.5490   33.4668 H   0  0  0  0  0  0  0  0  0  0  0  0
   36.4274   29.1874   35.7122 H   0  0  0  0  0  0  0  0  0  0  0  0
   35.8564   29.7995   34.1368 H   0  0  0  0  0  0  0  0  0  0  0  0
   35.0736   28.3765   31.2607 H   0  0  0  0  0  0  0  0  0  0  0  0
   35.2102   29.4656   32.7217 H   0  0  0  0  0  0  0  0  0  0  0  0
   37.3969   30.1555   32.0723 H   0  0  0  0  0  0  0  0  0  0  0  0
   37.4047   29.0030   30.6945 H   0  0  0  0  0  0  0  0  0  0  0  0
   36.2695   30.3952   30.6945 H   0  0  0  0  0  0  0  0  0  0  0  0
  1  2  2  0
  3  2  1  0
  4  3  2  0
  5  6  2  0
  5  4  1  0
  6  1  1  0
  7  5  1  0
  8  7  1  0
  9 10  1  0
  9  8  2  0
 10 17  2  0
 11 10  1  0
 11 13  1  0
 12 11  2  0
 13 14  1  0
 14 15  1  0
 14 16  2  0
 17  7  1  0
 17 16  1  0
 18 13  1  0
 19 18  1  0
  1 20  1  0
  2 21  1  0
  3 22  1  0
  8 23  1  0
 15 24  1  0
 15 25  1  0
 18 26  1  0
 18 27  1  0
 19 28  1  0
 19 29  1  0
 19 30  1  0
M  ISO  8  20  14  21  14  22  14  23  14  26   8  27   8  28   8  29   8
M  ISO  1  30   8
M  END
>  <minimizedAffinity>  (1) 
-5.03473759

>  <minimizedRMSD>  (1) 
1.84785259

$$$$
