
     RDKit          3D

 30 33  0  0  0  0  0  0  0  0999 V2000
   39.9770   23.0070   37.3110 C   0  0  0  0  0  0  0  0  0  0  0  0
   39.1740   23.1470   38.4690 C   0  0  0  0  0  0  0  0  0  0  0  0
   37.9150   23.7410   38.2900 C   0  0  0  0  0  0  0  0  0  0  0  0
   37.5210   24.1460   37.0550 N   0  0  0  0  0  0  0  0  0  0  0  0
   38.3290   23.9880   35.9730 C   0  0  0  0  0  0  0  0  0  0  0  0
   39.5480   23.4210   36.1040 N   0  0  0  0  0  0  0  0  0  0  0  0
   37.9550   24.3950   34.6690 N   0  0  0  0  0  0  0  0  0  0  0  0
   38.0670   23.5530   33.6170 C   0  0  0  0  0  0  0  0  0  0  0  0
   37.6320   24.2220   32.5110 N   0  0  0  0  0  0  0  0  0  0  0  0
   37.2530   25.4560   32.8500 C   0  0  0  0  0  0  0  0  0  0  0  0
   36.7340   26.6020   32.2360 C   0  0  0  0  0  0  0  0  0  0  0  0
   36.5470   26.5090   30.9960 O   0  0  0  0  0  0  0  0  0  0  0  0
   36.4680   27.7110   32.9630 N   0  0  0  0  0  0  0  0  0  0  0  0
   36.6860   27.7560   34.2750 C   0  0  0  0  0  0  0  0  0  0  0  0
   36.3550   29.0160   34.8780 N   0  0  0  0  0  0  0  0  0  0  0  0
   37.1870   26.6680   34.9070 N   0  0  0  0  0  0  0  0  0  0  0  0
   37.4570   25.5660   34.2150 C   0  0  0  0  0  0  0  0  0  0  0  0
   35.9310   28.8860   32.3000 C   0  0  0  0  0  0  0  0  0  0  0  0
   36.7120   29.6720   31.4310 C   0  0  0  0  0  0  0  0  0  0  0  0
   35.5550   31.0000   30.8880 S   0  0  0  0  0  0  0  0  0  0  0  0
   34.1730   30.2530   31.9520 C   0  0  0  0  0  0  0  0  0  0  0  0
   34.6980   29.3610   32.4110 N   0  0  0  0  0  0  0  0  0  0  0  0
   40.9735   22.5498   37.3997 H   0  0  0  0  0  0  0  0  0  0  0  0
   39.5189   22.8080   39.4570 H   0  0  0  0  0  0  0  0  0  0  0  0
   37.2458   23.8788   39.1521 H   0  0  0  0  0  0  0  0  0  0  0  0
   38.4403   22.5187   33.6476 H   0  0  0  0  0  0  0  0  0  0  0  0
   36.4875   29.1532   35.8902 H   0  0  0  0  0  0  0  0  0  0  0  0
   35.9850   29.7829   34.2985 H   0  0  0  0  0  0  0  0  0  0  0  0
   37.7640   29.5276   31.1440 H   0  0  0  0  0  0  0  0  0  0  0  0
   33.1365   30.5957   32.0871 H   0  0  0  0  0  0  0  0  0  0  0  0
  1  2  2  0
  3  2  1  0
  4  3  2  0
  5  6  2  0
  5  4  1  0
  6  1  1  0
  7  5  1  0
  8  7  1  0
  9 10  1  0
  9  8  2  0
 10 17  2  0
 11 10  1  0
 11 13  1  0
 12 11  2  0
 13 14  1  0
 14 15  1  0
 14 16  2  0
 17  7  1  0
 17 16  1  0
 18 22  1  0
 18 13  1  0
 19 18  2  0
 20 19  1  0
 20 21  1  0
 21 22  2  0
  1 23  1  0
  2 24  1  0
  3 25  1  0
  8 26  1  0
 15 27  1  0
 15 28  1  0
 19 29  1  0
 21 30  1  0
M  ISO  6  23  14  24  14  25  14  26  14  29  14  30  14
M  END
>  <minimizedAffinity>  (1) 
-5.57105494

>  <minimizedRMSD>  (1) 
2.06633759

$$$$
