
     RDKit          3D

 36 40  0  0  0  0  0  0  0  0999 V2000
   39.9690   23.0000   37.3340 C   0  0  0  0  0  0  0  0  0  0  0  0
   39.1700   23.1500   38.4870 C   0  0  0  0  0  0  0  0  0  0  0  0
   37.9160   23.7480   38.2960 C   0  0  0  0  0  0  0  0  0  0  0  0
   37.5320   24.1440   37.0600 N   0  0  0  0  0  0  0  0  0  0  0  0
   38.3390   23.9800   35.9730 C   0  0  0  0  0  0  0  0  0  0  0  0
   39.5510   23.4100   36.1150 N   0  0  0  0  0  0  0  0  0  0  0  0
   37.9660   24.3830   34.6720 N   0  0  0  0  0  0  0  0  0  0  0  0
   38.0830   23.5440   33.6260 C   0  0  0  0  0  0  0  0  0  0  0  0
   37.6530   24.2050   32.5180 N   0  0  0  0  0  0  0  0  0  0  0  0
   37.2690   25.4340   32.8440 C   0  0  0  0  0  0  0  0  0  0  0  0
   36.7510   26.5780   32.2280 C   0  0  0  0  0  0  0  0  0  0  0  0
   36.5670   26.4840   30.9880 O   0  0  0  0  0  0  0  0  0  0  0  0
   36.4800   27.6860   32.9410 N   0  0  0  0  0  0  0  0  0  0  0  0
   36.6910   27.7400   34.2630 C   0  0  0  0  0  0  0  0  0  0  0  0
   36.3470   28.9960   34.8600 N   0  0  0  0  0  0  0  0  0  0  0  0
   37.1930   26.6530   34.9040 N   0  0  0  0  0  0  0  0  0  0  0  0
   37.4690   25.5490   34.2200 C   0  0  0  0  0  0  0  0  0  0  0  0
   35.9400   28.8640   32.2750 C   0  0  0  0  0  0  0  0  0  0  0  0
   36.7550   29.6870   31.4700 C   0  0  0  0  0  0  0  0  0  0  0  0
   35.5790   30.9890   30.8980 S   0  0  0  0  0  0  0  0  0  0  0  0
   34.1730   30.1850   31.8610 C   0  0  0  0  0  0  0  0  0  0  0  0
   34.6820   29.2880   32.3400 N   0  0  0  0  0  0  0  0  0  0  0  0
   32.8240   30.6630   31.9130 N   0  0  0  0  0  0  0  0  0  0  0  0
   32.3420   31.5200   31.0090 C   0  0  0  0  0  0  0  0  0  0  0  0
   31.0580   31.8040   31.2900 N   0  0  0  0  0  0  0  0  0  0  0  0
   30.7350   31.1210   32.3770 C   0  0  0  0  0  0  0  0  0  0  0  0
   31.8280   30.4140   32.7620 N   0  0  0  0  0  0  0  0  0  0  0  0
   40.9616   22.5357   37.4294 H   0  0  0  0  0  0  0  0  0  0  0  0
   39.5109   22.8171   39.4785 H   0  0  0  0  0  0  0  0  0  0  0  0
   37.2425   23.8957   39.1531 H   0  0  0  0  0  0  0  0  0  0  0  0
   38.4585   22.5107   33.6610 H   0  0  0  0  0  0  0  0  0  0  0  0
   36.4732   29.1367   35.8725 H   0  0  0  0  0  0  0  0  0  0  0  0
   35.9735   29.7583   34.2767 H   0  0  0  0  0  0  0  0  0  0  0  0
   37.8254   29.5795   31.2403 H   0  0  0  0  0  0  0  0  0  0  0  0
   32.9101   31.9317   30.1618 H   0  0  0  0  0  0  0  0  0  0  0  0
   29.7560   31.1255   32.8786 H   0  0  0  0  0  0  0  0  0  0  0  0
  1  2  2  0
  3  2  1  0
  4  3  2  0
  5  6  2  0
  5  4  1  0
  6  1  1  0
  7  5  1  0
  8  7  1  0
  9 10  1  0
  9  8  2  0
 10 17  2  0
 11 10  1  0
 11 13  1  0
 12 11  2  0
 13 14  1  0
 14 15  1  0
 14 16  2  0
 17  7  1  0
 17 16  1  0
 18 22  1  0
 18 13  1  0
 19 18  2  0
 20 19  1  0
 20 21  1  0
 21 23  1  0
 21 22  2  0
 23 27  1  0
 24 25  2  0
 24 23  1  0
 25 26  1  0
 26 27  2  0
  1 28  1  0
  2 29  1  0
  3 30  1  0
  8 31  1  0
 15 32  1  0
 15 33  1  0
 19 34  1  0
 24 35  1  0
 26 36  1  0
M  ISO  7  28  14  29  14  30  14  31  14  34  14  35  14  36  14
M  END
>  <minimizedAffinity>  (1) 
-6.47459841

>  <minimizedRMSD>  (1) 
0.119332366

$$$$
