
     RDKit          3D

 38 42  0  0  0  0  0  0  0  0999 V2000
   40.0470   22.9960   37.2440 C   0  0  0  0  0  0  0  0  0  0  0  0
   39.2560   23.1290   38.4130 C   0  0  0  0  0  0  0  0  0  0  0  0
   38.0010   23.7120   38.2520 C   0  0  0  0  0  0  0  0  0  0  0  0
   37.5900   24.1220   37.0220 N   0  0  0  0  0  0  0  0  0  0  0  0
   38.3800   23.9770   35.9260 C   0  0  0  0  0  0  0  0  0  0  0  0
   39.6030   23.4160   36.0390 N   0  0  0  0  0  0  0  0  0  0  0  0
   37.9820   24.3920   34.6370 N   0  0  0  0  0  0  0  0  0  0  0  0
   38.0860   23.5540   33.5710 C   0  0  0  0  0  0  0  0  0  0  0  0
   37.6290   24.2300   32.4790 N   0  0  0  0  0  0  0  0  0  0  0  0
   37.2470   25.4530   32.8320 C   0  0  0  0  0  0  0  0  0  0  0  0
   36.7110   26.5990   32.2310 C   0  0  0  0  0  0  0  0  0  0  0  0
   36.5050   26.5160   30.9920 O   0  0  0  0  0  0  0  0  0  0  0  0
   36.4480   27.7030   32.9800 N   0  0  0  0  0  0  0  0  0  0  0  0
   36.6820   27.7400   34.2810 C   0  0  0  0  0  0  0  0  0  0  0  0
   36.3400   28.9880   34.8930 N   0  0  0  0  0  0  0  0  0  0  0  0
   37.2000   26.6500   34.8950 N   0  0  0  0  0  0  0  0  0  0  0  0
   37.4690   25.5570   34.1960 C   0  0  0  0  0  0  0  0  0  0  0  0
   35.8870   28.8840   32.3240 C   0  0  0  0  0  0  0  0  0  0  0  0
   36.6930   29.7410   31.5310 C   0  0  0  0  0  0  0  0  0  0  0  0
   35.4710   31.0180   30.9810 S   0  0  0  0  0  0  0  0  0  0  0  0
   34.0840   30.1570   31.9270 C   0  0  0  0  0  0  0  0  0  0  0  0
   34.6390   29.2870   32.3740 N   0  0  0  0  0  0  0  0  0  0  0  0
   32.7180   30.6620   31.9410 C   0  0  0  0  0  0  0  0  0  0  0  0
   31.8220   30.3490   32.9310 C   0  0  0  0  0  0  0  0  0  0  0  0
   30.5610   30.8710   32.8570 C   0  0  0  0  0  0  0  0  0  0  0  0
   30.1870   31.6800   31.8360 N   0  0  0  0  0  0  0  0  0  0  0  0
   31.0780   31.9750   30.8750 C   0  0  0  0  0  0  0  0  0  0  0  0
   32.3210   31.4770   30.9230 N   0  0  0  0  0  0  0  0  0  0  0  0
   41.0453   22.5403   37.3198 H   0  0  0  0  0  0  0  0  0  0  0  0
   39.6145   22.7895   39.3960 H   0  0  0  0  0  0  0  0  0  0  0  0
   37.3406   23.8411   39.1221 H   0  0  0  0  0  0  0  0  0  0  0  0
   38.4679   22.5225   33.5870 H   0  0  0  0  0  0  0  0  0  0  0  0
   36.4832   29.1221   35.9041 H   0  0  0  0  0  0  0  0  0  0  0  0
   35.9507   29.7519   34.3222 H   0  0  0  0  0  0  0  0  0  0  0  0
   37.7663   29.6660   31.3022 H   0  0  0  0  0  0  0  0  0  0  0  0
   32.1115   29.6931   33.7652 H   0  0  0  0  0  0  0  0  0  0  0  0
   29.8325   30.6288   33.6448 H   0  0  0  0  0  0  0  0  0  0  0  0
   30.7848   32.6307   30.0419 H   0  0  0  0  0  0  0  0  0  0  0  0
  1  2  2  0
  3  2  1  0
  4  3  2  0
  5  6  2  0
  5  4  1  0
  6  1  1  0
  7  5  1  0
  8  7  1  0
  9 10  1  0
  9  8  2  0
 10 17  2  0
 11 10  1  0
 11 13  1  0
 12 11  2  0
 13 14  1  0
 14 15  1  0
 14 16  2  0
 17  7  1  0
 17 16  1  0
 18 22  1  0
 18 13  1  0
 19 18  2  0
 20 19  1  0
 20 21  1  0
 21 23  1  0
 21 22  2  0
 23 24  2  0
 25 24  1  0
 26 25  2  0
 27 28  2  0
 27 26  1  0
 28 23  1  0
  1 29  1  0
  2 30  1  0
  3 31  1  0
  8 32  1  0
 15 33  1  0
 15 34  1  0
 19 35  1  0
 24 36  1  0
 25 37  1  0
 27 38  1  0
M  ISO  8  29  14  30  14  31  14  32  14  35  14  36  14  37  14  38  14
M  END
>  <minimizedAffinity>  (1) 
-6.26850748

>  <minimizedRMSD>  (1) 
0.408981651

$$$$
