
     RDKit          3D

 39 43  0  0  0  0  0  0  0  0999 V2000
   40.1560   23.0350   36.9730 C   0  0  0  0  0  0  0  0  0  0  0  0
   39.4160   23.1140   38.1710 C   0  0  0  0  0  0  0  0  0  0  0  0
   38.1430   23.6790   38.0650 C   0  0  0  0  0  0  0  0  0  0  0  0
   37.6780   24.1140   36.8670 N   0  0  0  0  0  0  0  0  0  0  0  0
   38.4410   24.0120   35.7350 C   0  0  0  0  0  0  0  0  0  0  0  0
   39.6700   23.4740   35.8000 N   0  0  0  0  0  0  0  0  0  0  0  0
   37.9860   24.4550   34.4750 N   0  0  0  0  0  0  0  0  0  0  0  0
   38.0630   23.6520   33.3910 C   0  0  0  0  0  0  0  0  0  0  0  0
   37.5550   24.3450   32.3360 N   0  0  0  0  0  0  0  0  0  0  0  0
   37.1640   25.5580   32.7340 C   0  0  0  0  0  0  0  0  0  0  0  0
   36.5900   26.7050   32.1870 C   0  0  0  0  0  0  0  0  0  0  0  0
   36.3390   26.6490   30.9520 O   0  0  0  0  0  0  0  0  0  0  0  0
   36.3320   27.7940   32.9630 N   0  0  0  0  0  0  0  0  0  0  0  0
   36.6220   27.7900   34.2590 C   0  0  0  0  0  0  0  0  0  0  0  0
   36.2850   29.0130   34.9200 N   0  0  0  0  0  0  0  0  0  0  0  0
   37.1790   26.6950   34.8220 N   0  0  0  0  0  0  0  0  0  0  0  0
   37.4370   25.6270   34.0830 C   0  0  0  0  0  0  0  0  0  0  0  0
   35.7320   28.9780   32.3610 C   0  0  0  0  0  0  0  0  0  0  0  0
   36.5080   29.8980   31.6330 C   0  0  0  0  0  0  0  0  0  0  0  0
   35.2560   31.1540   31.1230 S   0  0  0  0  0  0  0  0  0  0  0  0
   33.8910   30.1960   31.9950 C   0  0  0  0  0  0  0  0  0  0  0  0
   34.4630   29.3160   32.4170 N   0  0  0  0  0  0  0  0  0  0  0  0
   32.5290   30.7690   31.9270 C   0  0  0  0  0  0  0  0  0  0  0  0
   31.5710   30.5590   32.8930 C   0  0  0  0  0  0  0  0  0  0  0  0
   30.3400   31.1800   32.6590 C   0  0  0  0  0  0  0  0  0  0  0  0
   30.1620   31.9470   31.5020 C   0  0  0  0  0  0  0  0  0  0  0  0
   31.1580   32.1240   30.5650 C   0  0  0  0  0  0  0  0  0  0  0  0
   32.3510   31.5070   30.8180 N   0  0  0  0  0  0  0  0  0  0  0  0
   41.1656   22.5991   37.0000 H   0  0  0  0  0  0  0  0  0  0  0  0
   39.8166   22.7529   39.1297 H   0  0  0  0  0  0  0  0  0  0  0  0
   37.5117   23.7721   38.9610 H   0  0  0  0  0  0  0  0  0  0  0  0
   38.4625   22.6274   33.3661 H   0  0  0  0  0  0  0  0  0  0  0  0
   36.4668   29.1206   35.9281 H   0  0  0  0  0  0  0  0  0  0  0  0
   35.8606   29.7860   34.3878 H   0  0  0  0  0  0  0  0  0  0  0  0
   37.5872   29.8747   31.4214 H   0  0  0  0  0  0  0  0  0  0  0  0
   31.7605   29.9457   33.7863 H   0  0  0  0  0  0  0  0  0  0  0  0
   29.5169   31.0663   33.3798 H   0  0  0  0  0  0  0  0  0  0  0  0
   29.1875   32.4284   31.3332 H   0  0  0  0  0  0  0  0  0  0  0  0
   31.0006   32.7303   29.6608 H   0  0  0  0  0  0  0  0  0  0  0  0
  1  2  2  0
  3  2  1  0
  4  3  2  0
  5  6  2  0
  5  4  1  0
  6  1  1  0
  7  5  1  0
  8  7  1  0
  9 10  1  0
  9  8  2  0
 10 17  2  0
 11 10  1  0
 11 13  1  0
 12 11  2  0
 13 14  1  0
 14 16  2  0
 14 15  1  0
 17  7  1  0
 17 16  1  0
 18 22  1  0
 18 13  1  0
 19 18  2  0
 20 19  1  0
 20 21  1  0
 21 22  2  0
 23 21  1  0
 23 24  2  0
 25 24  1  0
 26 25  2  0
 27 28  2  0
 27 26  1  0
 28 23  1  0
  1 29  1  0
  2 30  1  0
  3 31  1  0
  8 32  1  0
 15 33  1  0
 15 34  1  0
 19 35  1  0
 24 36  1  0
 25 37  1  0
 26 38  1  0
 27 39  1  0
M  ISO  8  29  14  30  14  31  14  32  14  35  14  36  14  37  14  38  14
M  ISO  1  39  14
M  END
>  <minimizedAffinity>  (1) 
-6.25333071

>  <minimizedRMSD>  (1) 
0.696066976

$$$$
