
     RDKit          3D

 38 42  0  0  0  0  0  0  0  0999 V2000
   40.1390   23.0320   36.9770 C   0  0  0  0  0  0  0  0  0  0  0  0
   39.3950   23.1190   38.1730 C   0  0  0  0  0  0  0  0  0  0  0  0
   38.1270   23.6890   38.0720 C   0  0  0  0  0  0  0  0  0  0  0  0
   37.6680   24.1240   36.8680 N   0  0  0  0  0  0  0  0  0  0  0  0
   38.4200   24.0190   35.7440 C   0  0  0  0  0  0  0  0  0  0  0  0
   39.6460   23.4750   35.8070 N   0  0  0  0  0  0  0  0  0  0  0  0
   37.9700   24.4620   34.4850 N   0  0  0  0  0  0  0  0  0  0  0  0
   38.0450   23.6530   33.3950 C   0  0  0  0  0  0  0  0  0  0  0  0
   37.5420   24.3460   32.3390 N   0  0  0  0  0  0  0  0  0  0  0  0
   37.1580   25.5610   32.7340 C   0  0  0  0  0  0  0  0  0  0  0  0
   36.5900   26.7150   32.1830 C   0  0  0  0  0  0  0  0  0  0  0  0
   36.3420   26.6530   30.9550 O   0  0  0  0  0  0  0  0  0  0  0  0
   36.3390   27.8030   32.9610 N   0  0  0  0  0  0  0  0  0  0  0  0
   36.6240   27.8040   34.2550 C   0  0  0  0  0  0  0  0  0  0  0  0
   36.2940   29.0280   34.9080 N   0  0  0  0  0  0  0  0  0  0  0  0
   37.1750   26.7140   34.8340 N   0  0  0  0  0  0  0  0  0  0  0  0
   37.4290   25.6350   34.0900 C   0  0  0  0  0  0  0  0  0  0  0  0
   35.7450   28.9900   32.3540 C   0  0  0  0  0  0  0  0  0  0  0  0
   36.5270   29.8950   31.6170 C   0  0  0  0  0  0  0  0  0  0  0  0
   35.2800   31.1610   31.1060 S   0  0  0  0  0  0  0  0  0  0  0  0
   33.9070   30.2210   31.9960 C   0  0  0  0  0  0  0  0  0  0  0  0
   34.4770   29.3370   32.4200 N   0  0  0  0  0  0  0  0  0  0  0  0
   32.5740   30.8030   31.9300 C   0  0  0  0  0  0  0  0  0  0  0  0
   31.6190   30.6750   32.9120 C   0  0  0  0  0  0  0  0  0  0  0  0
   30.4170   31.3220   32.6180 C   0  0  0  0  0  0  0  0  0  0  0  0
   30.2190   31.9980   31.4950 N   0  0  0  0  0  0  0  0  0  0  0  0
   31.1750   32.1030   30.5580 C   0  0  0  0  0  0  0  0  0  0  0  0
   32.3660   31.4890   30.7950 N   0  0  0  0  0  0  0  0  0  0  0  0
   41.1465   22.5912   37.0025 H   0  0  0  0  0  0  0  0  0  0  0  0
   39.7938   22.7569   39.1321 H   0  0  0  0  0  0  0  0  0  0  0  0
   37.4964   23.7872   38.9679 H   0  0  0  0  0  0  0  0  0  0  0  0
   38.4400   22.6266   33.3717 H   0  0  0  0  0  0  0  0  0  0  0  0
   36.4735   29.1385   35.9162 H   0  0  0  0  0  0  0  0  0  0  0  0
   35.8761   29.8016   34.3715 H   0  0  0  0  0  0  0  0  0  0  0  0
   37.6047   29.8595   31.3997 H   0  0  0  0  0  0  0  0  0  0  0  0
   31.7869   30.1144   33.8434 H   0  0  0  0  0  0  0  0  0  0  0  0
   29.5982   31.2684   33.3506 H   0  0  0  0  0  0  0  0  0  0  0  0
   31.0012   32.6667   29.6295 H   0  0  0  0  0  0  0  0  0  0  0  0
  1  2  2  0
  3  2  1  0
  4  3  2  0
  5  6  2  0
  5  4  1  0
  6  1  1  0
  7  5  1  0
  8  7  1  0
  9 10  1  0
  9  8  2  0
 10 17  2  0
 11 10  1  0
 11 13  1  0
 12 11  2  0
 13 14  1  0
 14 16  2  0
 14 15  1  0
 17  7  1  0
 17 16  1  0
 18 22  1  0
 18 13  1  0
 19 18  2  0
 20 19  1  0
 20 21  1  0
 21 22  2  0
 23 21  1  0
 23 24  2  0
 25 24  1  0
 26 25  2  0
 27 28  2  0
 27 26  1  0
 28 23  1  0
  1 29  1  0
  2 30  1  0
  3 31  1  0
  8 32  1  0
 15 33  1  0
 15 34  1  0
 19 35  1  0
 24 36  1  0
 25 37  1  0
 27 38  1  0
M  ISO  8  29  14  30  14  31  14  32  14  35  14  36  14  37  14  38  14
M  END
>  <minimizedAffinity>  (1) 
-6.21753073

>  <minimizedRMSD>  (1) 
0.326373279

$$$$
