
     RDKit          3D

 37 41  0  0  0  0  0  0  0  0999 V2000
   40.0750   22.9790   37.1530 C   0  0  0  0  0  0  0  0  0  0  0  0
   39.2990   23.1060   38.3310 C   0  0  0  0  0  0  0  0  0  0  0  0
   38.0380   23.6890   38.1960 C   0  0  0  0  0  0  0  0  0  0  0  0
   37.6060   24.1020   36.9760 N   0  0  0  0  0  0  0  0  0  0  0  0
   38.3910   23.9600   35.8640 C   0  0  0  0  0  0  0  0  0  0  0  0
   39.6070   23.4030   35.9670 N   0  0  0  0  0  0  0  0  0  0  0  0
   37.9720   24.3790   34.5850 N   0  0  0  0  0  0  0  0  0  0  0  0
   38.0500   23.5430   33.5190 C   0  0  0  0  0  0  0  0  0  0  0  0
   37.5780   24.2200   32.4380 N   0  0  0  0  0  0  0  0  0  0  0  0
   37.2100   25.4500   32.8000 C   0  0  0  0  0  0  0  0  0  0  0  0
   36.6710   26.5960   32.2090 C   0  0  0  0  0  0  0  0  0  0  0  0
   36.4400   26.5160   30.9730 O   0  0  0  0  0  0  0  0  0  0  0  0
   36.4260   27.7040   32.9500 N   0  0  0  0  0  0  0  0  0  0  0  0
   36.6860   27.7390   34.2570 C   0  0  0  0  0  0  0  0  0  0  0  0
   36.3660   28.9840   34.8750 N   0  0  0  0  0  0  0  0  0  0  0  0
   37.2090   26.6430   34.8580 N   0  0  0  0  0  0  0  0  0  0  0  0
   37.4570   25.5490   34.1500 C   0  0  0  0  0  0  0  0  0  0  0  0
   35.8610   28.8910   32.3080 C   0  0  0  0  0  0  0  0  0  0  0  0
   36.6620   29.7090   31.4830 C   0  0  0  0  0  0  0  0  0  0  0  0
   35.4560   31.0180   30.9650 S   0  0  0  0  0  0  0  0  0  0  0  0
   34.0840   30.2100   31.9700 C   0  0  0  0  0  0  0  0  0  0  0  0
   34.6270   29.3230   32.4100 N   0  0  0  0  0  0  0  0  0  0  0  0
   32.7810   30.8520   31.9470 C   0  0  0  0  0  0  0  0  0  0  0  0
   32.1290   31.1020   33.1130 C   0  0  0  0  0  0  0  0  0  0  0  0
   30.9530   31.7000   32.7630 N   0  0  0  0  0  0  0  0  0  0  0  0
   30.9140   31.8000   31.4310 C   0  0  0  0  0  0  0  0  0  0  0  0
   32.0350   31.2810   30.9190 N   0  0  0  0  0  0  0  0  0  0  0  0
   41.0760   22.5264   37.2099 H   0  0  0  0  0  0  0  0  0  0  0  0
   39.6726   22.7613   39.3065 H   0  0  0  0  0  0  0  0  0  0  0  0
   37.3933   23.8142   39.0784 H   0  0  0  0  0  0  0  0  0  0  0  0
   38.4255   22.5091   33.5276 H   0  0  0  0  0  0  0  0  0  0  0  0
   36.5290   29.1153   35.8835 H   0  0  0  0  0  0  0  0  0  0  0  0
   35.9719   29.7518   34.3128 H   0  0  0  0  0  0  0  0  0  0  0  0
   37.7237   29.5988   31.2170 H   0  0  0  0  0  0  0  0  0  0  0  0
   32.4776   30.8700   34.1302 H   0  0  0  0  0  0  0  0  0  0  0  0
   30.0908   32.2393   30.8485 H   0  0  0  0  0  0  0  0  0  0  0  0
   32.2799   31.2218   29.9203 H   0  0  0  0  0  0  0  0  0  0  0  0
  1  2  2  0
  3  2  1  0
  4  3  2  0
  5  6  2  0
  5  4  1  0
  6  1  1  0
  7  5  1  0
  8  7  1  0
  9 10  1  0
  9  8  2  0
 10 17  2  0
 11 10  1  0
 11 13  1  0
 12 11  2  0
 13 14  1  0
 14 16  2  0
 14 15  1  0
 17  7  1  0
 17 16  1  0
 18 22  1  0
 18 13  1  0
 19 18  2  0
 20 19  1  0
 20 21  1  0
 21 22  2  0
 23 21  1  0
 23 24  2  0
 25 24  1  0
 26 25  2  0
 27 26  1  0
 27 23  1  0
  1 28  1  0
  2 29  1  0
  3 30  1  0
  8 31  1  0
 15 32  1  0
 15 33  1  0
 19 34  1  0
 24 35  1  0
 26 36  1  0
 27 37  1  0
M  ISO  8  28  14  29  14  30  14  31  14  34  14  35  14  36  14  37   9
M  END
>  <minimizedAffinity>  (1) 
-6.18285131

>  <minimizedRMSD>  (1) 
0.150296718

$$$$
