
     RDKit          3D

 42 45  0  0  0  0  0  0  0  0999 V2000
   40.0970   22.9390   37.1350 C   0  0  0  0  0  0  0  0  0  0  0  0
   39.3480   23.0780   38.3210 C   0  0  0  0  0  0  0  0  0  0  0  0
   38.0850   23.6860   38.2090 C   0  0  0  0  0  0  0  0  0  0  0  0
   37.6470   24.1030   37.0020 N   0  0  0  0  0  0  0  0  0  0  0  0
   38.4070   23.9470   35.8820 C   0  0  0  0  0  0  0  0  0  0  0  0
   39.6130   23.3720   35.9590 N   0  0  0  0  0  0  0  0  0  0  0  0
   37.9760   24.3750   34.6000 N   0  0  0  0  0  0  0  0  0  0  0  0
   38.0420   23.5420   33.5330 C   0  0  0  0  0  0  0  0  0  0  0  0
   37.5650   24.2210   32.4490 N   0  0  0  0  0  0  0  0  0  0  0  0
   37.2060   25.4530   32.8200 C   0  0  0  0  0  0  0  0  0  0  0  0
   36.6650   26.6100   32.2340 C   0  0  0  0  0  0  0  0  0  0  0  0
   36.4280   26.5310   31.0100 O   0  0  0  0  0  0  0  0  0  0  0  0
   36.4370   27.7100   32.9950 N   0  0  0  0  0  0  0  0  0  0  0  0
   36.7080   27.7420   34.3000 C   0  0  0  0  0  0  0  0  0  0  0  0
   36.3990   28.9890   34.9250 N   0  0  0  0  0  0  0  0  0  0  0  0
   37.2290   26.6420   34.8890 N   0  0  0  0  0  0  0  0  0  0  0  0
   37.4660   25.5480   34.1820 C   0  0  0  0  0  0  0  0  0  0  0  0
   35.8770   28.8960   32.3660 C   0  0  0  0  0  0  0  0  0  0  0  0
   36.6240   29.6650   31.4440 C   0  0  0  0  0  0  0  0  0  0  0  0
   35.4440   31.0180   30.9770 S   0  0  0  0  0  0  0  0  0  0  0  0
   34.1400   30.2900   32.1270 C   0  0  0  0  0  0  0  0  0  0  0  0
   34.6670   29.3920   32.5550 N   0  0  0  0  0  0  0  0  0  0  0  0
   32.7910   30.9870   32.2290 C   0  0  0  0  0  0  0  0  0  0  0  0
   32.3810   31.5270   30.8660 C   0  0  0  0  0  0  0  0  0  0  0  0
   31.8060   29.9990   32.7620 C   0  0  0  0  0  0  0  0  0  0  0  0
   32.8770   32.1280   33.2170 C   0  0  0  0  0  0  0  0  0  0  0  0
   41.0911   22.4697   37.1729 H   0  0  0  0  0  0  0  0  0  0  0  0
   39.7337   22.7270   39.2895 H   0  0  0  0  0  0  0  0  0  0  0  0
   37.4563   23.8213   39.1014 H   0  0  0  0  0  0  0  0  0  0  0  0
   38.4128   22.5064   33.5393 H   0  0  0  0  0  0  0  0  0  0  0  0
   36.5714   29.1169   35.9324 H   0  0  0  0  0  0  0  0  0  0  0  0
   36.0038   29.7602   34.3682 H   0  0  0  0  0  0  0  0  0  0  0  0
   37.6526   29.5011   31.0904 H   0  0  0  0  0  0  0  0  0  0  0  0
   31.7207   32.3966   30.9996 H   0  0  0  0  0  0  0  0  0  0  0  0
   33.2783   31.8304   30.3068 H   0  0  0  0  0  0  0  0  0  0  0  0
   31.8477   30.7442   30.3068 H   0  0  0  0  0  0  0  0  0  0  0  0
   31.8255   30.0186   33.8617 H   0  0  0  0  0  0  0  0  0  0  0  0
   30.7975   30.2595   32.4085 H   0  0  0  0  0  0  0  0  0  0  0  0
   32.0696   28.9913   32.4085 H   0  0  0  0  0  0  0  0  0  0  0  0
   32.8469   31.7289   34.2416 H   0  0  0  0  0  0  0  0  0  0  0  0
   33.8189   32.6752   33.0642 H   0  0  0  0  0  0  0  0  0  0  0  0
   32.0277   32.8102   33.0642 H   0  0  0  0  0  0  0  0  0  0  0  0
  1  2  2  0
  3  2  1  0
  4  3  2  0
  5  6  2  0
  5  4  1  0
  6  1  1  0
  7  5  1  0
  8  7  1  0
  9 10  1  0
  9  8  2  0
 10 17  2  0
 11 10  1  0
 11 13  1  0
 12 11  2  0
 13 14  1  0
 14 16  2  0
 14 15  1  0
 17  7  1  0
 17 16  1  0
 18 22  1  0
 18 13  1  0
 19 18  2  0
 20 19  1  0
 20 21  1  0
 21 23  1  0
 21 22  2  0
 23 25  1  0
 23 26  1  0
 24 23  1  0
  1 27  1  0
  2 28  1  0
  3 29  1  0
  8 30  1  0
 15 31  1  0
 15 32  1  0
 19 33  1  0
 24 34  1  0
 24 35  1  0
 24 36  1  0
 25 37  1  0
 25 38  1  0
 25 39  1  0
 26 40  1  0
 26 41  1  0
 26 42  1  0
M  ISO  8  27  14  28  14  29  14  30  14  33  14  34   8  35   8  36   8
M  ISO  6  37   8  38   8  39   8  40   8  41   8  42   8
M  END
>  <minimizedAffinity>  (1) 
-6.01914883

>  <minimizedRMSD>  (1) 
0.349001855

$$$$
