
     RDKit          3D

 39 42  0  0  0  0  0  0  0  0999 V2000
   40.0610   22.9420   37.1470 C   0  0  0  0  0  0  0  0  0  0  0  0
   39.3120   23.0780   38.3370 C   0  0  0  0  0  0  0  0  0  0  0  0
   38.0560   23.6880   38.2160 C   0  0  0  0  0  0  0  0  0  0  0  0
   37.6130   24.1150   37.0090 N   0  0  0  0  0  0  0  0  0  0  0  0
   38.3820   23.9580   35.8890 C   0  0  0  0  0  0  0  0  0  0  0  0
   39.5880   23.3770   35.9760 N   0  0  0  0  0  0  0  0  0  0  0  0
   37.9580   24.3880   34.6150 N   0  0  0  0  0  0  0  0  0  0  0  0
   38.0150   23.5530   33.5480 C   0  0  0  0  0  0  0  0  0  0  0  0
   37.5470   24.2320   32.4620 N   0  0  0  0  0  0  0  0  0  0  0  0
   37.1980   25.4680   32.8210 C   0  0  0  0  0  0  0  0  0  0  0  0
   36.6750   26.6260   32.2490 C   0  0  0  0  0  0  0  0  0  0  0  0
   36.4350   26.5460   31.0100 O   0  0  0  0  0  0  0  0  0  0  0  0
   36.4530   27.7390   33.0010 N   0  0  0  0  0  0  0  0  0  0  0  0
   36.7230   27.7650   34.2950 C   0  0  0  0  0  0  0  0  0  0  0  0
   36.4250   29.0180   34.9150 N   0  0  0  0  0  0  0  0  0  0  0  0
   37.2330   26.6670   34.9000 N   0  0  0  0  0  0  0  0  0  0  0  0
   37.4580   25.5660   34.1830 C   0  0  0  0  0  0  0  0  0  0  0  0
   35.9030   28.9300   32.3580 C   0  0  0  0  0  0  0  0  0  0  0  0
   36.6560   29.6720   31.4170 C   0  0  0  0  0  0  0  0  0  0  0  0
   35.4840   31.0240   30.9570 S   0  0  0  0  0  0  0  0  0  0  0  0
   34.1720   30.3370   32.1310 C   0  0  0  0  0  0  0  0  0  0  0  0
   34.7080   29.4450   32.5520 N   0  0  0  0  0  0  0  0  0  0  0  0
   32.8390   30.9850   32.2920 C   0  0  0  0  0  0  0  0  0  0  0  0
   32.3830   31.4750   30.9160 C   0  0  0  0  0  0  0  0  0  0  0  0
   31.7990   29.9920   32.7680 C   0  0  0  0  0  0  0  0  0  0  0  0
   41.0532   22.4686   37.1855 H   0  0  0  0  0  0  0  0  0  0  0  0
   39.6939   22.7243   39.3061 H   0  0  0  0  0  0  0  0  0  0  0  0
   37.4254   23.8210   39.1074 H   0  0  0  0  0  0  0  0  0  0  0  0
   38.3746   22.5135   33.5569 H   0  0  0  0  0  0  0  0  0  0  0  0
   36.5973   29.1481   35.9221 H   0  0  0  0  0  0  0  0  0  0  0  0
   36.0380   29.7907   34.3546 H   0  0  0  0  0  0  0  0  0  0  0  0
   37.6779   29.4902   31.0527 H   0  0  0  0  0  0  0  0  0  0  0  0
   32.9348   31.7995   33.0251 H   0  0  0  0  0  0  0  0  0  0  0  0
   31.6384   32.2751   31.0399 H   0  0  0  0  0  0  0  0  0  0  0  0
   33.2489   31.8629   30.3594 H   0  0  0  0  0  0  0  0  0  0  0  0
   31.9339   30.6392   30.3594 H   0  0  0  0  0  0  0  0  0  0  0  0
   31.7830   29.9767   33.8678 H   0  0  0  0  0  0  0  0  0  0  0  0
   30.8091   30.2887   32.3910 H   0  0  0  0  0  0  0  0  0  0  0  0
   32.0496   28.9895   32.3910 H   0  0  0  0  0  0  0  0  0  0  0  0
  1  2  2  0
  3  2  1  0
  4  3  2  0
  5  6  2  0
  5  4  1  0
  6  1  1  0
  7  5  1  0
  8  7  1  0
  9 10  1  0
  9  8  2  0
 10 17  2  0
 11 10  1  0
 11 13  1  0
 12 11  2  0
 13 14  1  0
 14 16  2  0
 14 15  1  0
 17  7  1  0
 17 16  1  0
 18 22  1  0
 18 13  1  0
 19 18  2  0
 20 19  1  0
 20 21  1  0
 21 23  1  0
 21 22  2  0
 23 25  1  0
 24 23  1  0
  1 26  1  0
  2 27  1  0
  3 28  1  0
  8 29  1  0
 15 30  1  0
 15 31  1  0
 19 32  1  0
 23 33  1  0
 24 34  1  0
 24 35  1  0
 24 36  1  0
 25 37  1  0
 25 38  1  0
 25 39  1  0
M  ISO  8  26  14  27  14  28  14  29  14  32  14  33   8  34   8  35   8
M  ISO  4  36   8  37   8  38   8  39   8
M  END
>  <minimizedAffinity>  (1) 
-5.87373543

>  <minimizedRMSD>  (1) 
0.255986869

$$$$
