
     RDKit          3D

 41 44  0  0  0  0  0  0  0  0999 V2000
   40.0590   26.1940   33.7140 C   0  0  0  0  0  0  0  0  0  0  0  0
   41.0350   23.3720   35.9630 C   0  0  0  0  0  0  0  0  0  0  0  0
   39.9170   22.5120   35.7960 C   0  0  0  0  0  0  0  0  0  0  0  0
   38.8880   22.9010   34.9460 C   0  0  0  0  0  0  0  0  0  0  0  0
   39.0130   24.1030   34.3130 N   0  0  0  0  0  0  0  0  0  0  0  0
   40.0880   24.9080   34.4880 C   0  0  0  0  0  0  0  0  0  0  0  0
   41.0750   24.5480   35.2950 N   0  0  0  0  0  0  0  0  0  0  0  0
   37.7140   22.0670   34.7290 C   0  0  0  0  0  0  0  0  0  0  0  0
   36.8930   21.6210   35.7110 C   0  0  0  0  0  0  0  0  0  0  0  0
   35.7760   20.8280   35.5000 C   0  0  0  0  0  0  0  0  0  0  0  0
   35.4870   20.4680   34.1810 C   0  0  0  0  0  0  0  0  0  0  0  0
   36.2900   20.8920   33.1320 C   0  0  0  0  0  0  0  0  0  0  0  0
   37.3960   21.6920   33.4430 C   0  0  0  0  0  0  0  0  0  0  0  0
   38.8530   26.9990   34.0850 C   0  0  0  0  0  0  0  0  0  0  0  0
   38.0160   27.3510   32.9050 C   0  0  0  0  0  0  0  0  0  0  0  0
   36.6450   27.4380   33.0440 C   0  0  0  0  0  0  0  0  0  0  0  0
   35.7700   27.7570   32.0120 C   0  0  0  0  0  0  0  0  0  0  0  0
   36.3400   27.9940   30.7910 N   0  0  0  0  0  0  0  0  0  0  0  0
   37.6880   27.9110   30.6440 C   0  0  0  0  0  0  0  0  0  0  0  0
   38.4910   27.5940   31.6930 N   0  0  0  0  0  0  0  0  0  0  0  0
   38.3080   28.1590   29.3580 C   0  0  0  0  0  0  0  0  0  0  0  0
   39.4230   27.4150   28.9640 C   0  0  0  0  0  0  0  0  0  0  0  0
   39.8110   27.8640   27.6880 C   0  0  0  0  0  0  0  0  0  0  0  0
   38.9280   28.8500   27.3650 N   0  0  0  0  0  0  0  0  0  0  0  0
   38.0410   29.0250   28.3500 N   0  0  0  0  0  0  0  0  0  0  0  0
   40.0274   25.9687   32.6378 H   0  0  0  0  0  0  0  0  0  0  0  0
   40.9626   26.7744   33.9522 H   0  0  0  0  0  0  0  0  0  0  0  0
   41.8613   23.0844   36.6297 H   0  0  0  0  0  0  0  0  0  0  0  0
   39.8661   21.5524   36.3313 H   0  0  0  0  0  0  0  0  0  0  0  0
   37.1294   21.9081   36.7462 H   0  0  0  0  0  0  0  0  0  0  0  0
   35.1432   20.4958   36.3362 H   0  0  0  0  0  0  0  0  0  0  0  0
   34.6094   19.8388   33.9712 H   0  0  0  0  0  0  0  0  0  0  0  0
   36.0656   20.6096   32.0928 H   0  0  0  0  0  0  0  0  0  0  0  0
   38.0411   22.0371   32.6215 H   0  0  0  0  0  0  0  0  0  0  0  0
   38.2421   26.4148   34.7889 H   0  0  0  0  0  0  0  0  0  0  0  0
   39.2047   27.9382   34.5368 H   0  0  0  0  0  0  0  0  0  0  0  0
   36.2165   27.2417   34.0379 H   0  0  0  0  0  0  0  0  0  0  0  0
   34.6827   27.8155   32.1680 H   0  0  0  0  0  0  0  0  0  0  0  0
   39.9106   26.6200   29.5472 H   0  0  0  0  0  0  0  0  0  0  0  0
   40.6504   27.4963   27.0795 H   0  0  0  0  0  0  0  0  0  0  0  0
   38.9418   29.3855   26.4853 H   0  0  0  0  0  0  0  0  0  0  0  0
  1 14  1  0
  1  6  1  0
  3  2  2  0
  4  3  1  0
  5  6  1  0
  5  4  2  0
  6  7  2  0
  7  2  1  0
  8  4  1  0
  8  9  2  0
 10  9  1  0
 11 10  2  0
 12 13  2  0
 12 11  1  0
 13  8  1  0
 15 16  2  0
 15 14  1  0
 17 16  1  0
 18 17  2  0
 19 18  1  0
 19 20  2  0
 20 15  1  0
 21 19  1  0
 22 21  1  0
 23 22  2  0
 24 23  1  0
 24 25  1  0
 25 21  2  0
  1 26  1  0
  1 27  1  0
  2 28  1  0
  3 29  1  0
  9 30  1  0
 10 31  1  0
 11 32  1  0
 12 33  1  0
 13 34  1  0
 14 35  1  0
 14 36  1  0
 16 37  1  0
 17 38  1  0
 22 39  1  0
 23 40  1  0
 24 41  1  0
M  ISO  8  26   8  27   8  28  14  29  14  30  14  31  14  32  14  33  14
M  ISO  8  34  14  35   8  36   8  37  14  38  14  39  14  40  14  41   9
M  END
>  <minimizedAffinity>  (1) 
-5.18578053

>  <minimizedRMSD>  (1) 
3.92634439

$$$$
