
     RDKit          3D

 52 57  0  0  1  0  0  0  0  0999 V2000
   40.4490   22.5860   36.6970 C   0  0  0  0  0  0  0  0  0  0  0  0
   39.8360   22.7480   37.9580 C   0  0  0  0  0  0  0  0  0  0  0  0
   38.5930   23.3800   37.9710 C   0  0  0  0  0  0  0  0  0  0  0  0
   38.0370   23.8030   36.8100 N   0  0  0  0  0  0  0  0  0  0  0  0
   38.6740   23.6220   35.6030 C   0  0  0  0  0  0  0  0  0  0  0  0
   39.8680   23.0190   35.5600 N   0  0  0  0  0  0  0  0  0  0  0  0
   38.1140   24.0530   34.3840 N   0  0  0  0  0  0  0  0  0  0  0  0
   38.0460   23.2160   33.3180 C   0  0  0  0  0  0  0  0  0  0  0  0
   37.4680   23.9010   32.3070 N   0  0  0  0  0  0  0  0  0  0  0  0
   37.1650   25.1390   32.6870 C   0  0  0  0  0  0  0  0  0  0  0  0
   36.5890   26.3080   32.1800 C   0  0  0  0  0  0  0  0  0  0  0  0
   36.2140   26.2200   30.9760 O   0  0  0  0  0  0  0  0  0  0  0  0
   36.4650   27.4240   32.9600 N   0  0  0  0  0  0  0  0  0  0  0  0
   36.8780   27.4400   34.2040 C   0  0  0  0  0  0  0  0  0  0  0  0
   36.6550   28.6910   34.8480 N   0  0  0  0  0  0  0  0  0  0  0  0
   37.4430   26.3320   34.7410 N   0  0  0  0  0  0  0  0  0  0  0  0
   37.5790   25.2300   34.0100 C   0  0  0  0  0  0  0  0  0  0  0  0
   35.8590   28.6090   32.3750 C   0  0  0  0  0  0  0  0  0  0  0  0
   36.5130   29.3640   31.3760 C   0  0  0  0  0  0  0  0  0  0  0  0
   35.3020   30.7180   31.0080 S   0  0  0  0  0  0  0  0  0  0  0  0
   34.1200   30.0250   32.2770 C   0  0  0  0  0  0  0  0  0  0  0  0
   34.6790   29.1120   32.6780 N   0  0  0  0  0  0  0  0  0  0  0  0
   32.7810   30.7690   32.4640 C   0  0  1  0  0  0  0  0  0  0  0  0
   31.6660   29.9770   33.0160 C   0  0  0  0  0  0  0  0  0  0  0  0
   32.4480   30.9660   33.8830 C   0  0  1  0  0  0  0  0  0  0  0  0
   33.2960   30.5000   34.9180 N   0  0  0  0  0  0  0  0  0  0  0  0
   32.5700   29.9650   36.0560 C   0  0  0  0  0  0  0  0  0  0  0  0
   31.8350   31.0200   36.8480 C   0  0  0  0  0  0  0  0  0  0  0  0
   32.7560   32.1590   37.2330 C   0  0  0  0  0  0  0  0  0  0  0  0
   34.1800   31.8390   36.8110 C   0  0  0  0  0  0  0  0  0  0  0  0
   34.2600   31.5000   35.3420 C   0  0  0  0  0  0  0  0  0  0  0  0
   41.4300   22.0917   36.6402 H   0  0  0  0  0  0  0  0  0  0  0  0
   40.3143   22.3939   38.8831 H   0  0  0  0  0  0  0  0  0  0  0  0
   38.0643   23.5350   38.9231 H   0  0  0  0  0  0  0  0  0  0  0  0
   38.3963   22.1738   33.2835 H   0  0  0  0  0  0  0  0  0  0  0  0
   36.9389   28.8229   35.8293 H   0  0  0  0  0  0  0  0  0  0  0  0
   36.2099   29.4636   34.3323 H   0  0  0  0  0  0  0  0  0  0  0  0
   37.5015   29.1904   30.9257 H   0  0  0  0  0  0  0  0  0  0  0  0
   32.8646   31.4139   31.5768 H   0  0  0  0  0  0  0  0  0  0  0  0
   30.6298   30.1984   32.7205 H   0  0  0  0  0  0  0  0  0  0  0  0
   31.4149   28.9077   33.0749 H   0  0  0  0  0  0  0  0  0  0  0  0
   32.2020   31.8352   34.5106 H   0  0  0  0  0  0  0  0  0  0  0  0
   31.8374   29.2312   35.6886 H   0  0  0  0  0  0  0  0  0  0  0  0
   33.3113   29.5107   36.7298 H   0  0  0  0  0  0  0  0  0  0  0  0
   31.0101   31.4166   36.2378 H   0  0  0  0  0  0  0  0  0  0  0  0
   31.4499   30.5579   37.7690 H   0  0  0  0  0  0  0  0  0  0  0  0
   32.4255   33.0805   36.7315 H   0  0  0  0  0  0  0  0  0  0  0  0
   32.7243   32.2969   38.3239 H   0  0  0  0  0  0  0  0  0  0  0  0
   34.8169   32.7133   37.0111 H   0  0  0  0  0  0  0  0  0  0  0  0
   34.5216   30.9653   37.3854 H   0  0  0  0  0  0  0  0  0  0  0  0
   35.2701   31.1206   35.1281 H   0  0  0  0  0  0  0  0  0  0  0  0
   34.0304   32.4218   34.7875 H   0  0  0  0  0  0  0  0  0  0  0  0
  1  2  2  0
  2  3  1  0
  4  3  2  0
  5  4  1  0
  6  5  2  0
  6  1  1  0
  7  5  1  0
  8  7  1  0
  9 10  1  0
  9  8  2  0
 10 17  2  0
 11 10  1  0
 11 13  1  0
 12 11  2  0
 13 14  1  0
 14 16  2  0
 14 15  1  0
 17  7  1  0
 17 16  1  0
 18 22  1  0
 18 13  1  0
 19 18  2  0
 20 19  1  0
 20 21  1  0
 21 23  1  0
 21 22  2  0
 23 24  1  0
 23 25  1  0
 24 25  1  0
 25 26  1  0
 26 31  1  0
 26 27  1  0
 27 28  1  0
 28 29  1  0
 30 29  1  0
 31 30  1  0
  1 32  1  0
  2 33  1  0
  3 34  1  0
  8 35  1  0
 15 36  1  0
 15 37  1  0
 19 38  1  0
 23 39  1  6
 24 40  1  0
 24 41  1  0
 25 42  1  6
 27 43  1  0
 27 44  1  0
 28 45  1  0
 28 46  1  0
 29 47  1  0
 29 48  1  0
 30 49  1  0
 30 50  1  0
 31 51  1  0
 31 52  1  0
M  ISO  8  32  14  33  14  34  14  35  14  38  14  39  13  40  13  41  13
M  ISO  8  42  13  43  13  44  13  45  13  46  13  47  13  48  13  49  13
M  ISO  3  50  13  51  13  52  13
M  END
>  <minimizedAffinity>  (1) 
-6.92518473

>  <minimizedRMSD>  (1) 
1.25933802

$$$$
