
     RDKit          3D

 49 54  0  0  1  0  0  0  0  0999 V2000
   40.7610   22.4980   36.5390 C   0  0  0  0  0  0  0  0  0  0  0  0
   40.1940   22.6320   37.8260 C   0  0  0  0  0  0  0  0  0  0  0  0
   38.9340   23.2360   37.8990 C   0  0  0  0  0  0  0  0  0  0  0  0
   38.3280   23.6550   36.7610 N   0  0  0  0  0  0  0  0  0  0  0  0
   38.9090   23.5070   35.5440 C   0  0  0  0  0  0  0  0  0  0  0  0
   40.1140   22.9330   35.4430 N   0  0  0  0  0  0  0  0  0  0  0  0
   38.2940   23.9370   34.3530 N   0  0  0  0  0  0  0  0  0  0  0  0
   38.2070   23.1040   33.2790 C   0  0  0  0  0  0  0  0  0  0  0  0
   37.5710   23.7950   32.2980 N   0  0  0  0  0  0  0  0  0  0  0  0
   37.2550   25.0140   32.6970 C   0  0  0  0  0  0  0  0  0  0  0  0
   36.6360   26.1720   32.2290 C   0  0  0  0  0  0  0  0  0  0  0  0
   36.2160   26.0910   31.0380 O   0  0  0  0  0  0  0  0  0  0  0  0
   36.5120   27.2780   33.0230 N   0  0  0  0  0  0  0  0  0  0  0  0
   36.9690   27.2960   34.2510 C   0  0  0  0  0  0  0  0  0  0  0  0
   36.7400   28.5490   34.9210 N   0  0  0  0  0  0  0  0  0  0  0  0
   37.5820   26.1950   34.7580 N   0  0  0  0  0  0  0  0  0  0  0  0
   37.7180   25.1010   34.0090 C   0  0  0  0  0  0  0  0  0  0  0  0
   35.8610   28.4510   32.4750 C   0  0  0  0  0  0  0  0  0  0  0  0
   36.4860   29.2820   31.5260 C   0  0  0  0  0  0  0  0  0  0  0  0
   35.2210   30.5900   31.1950 S   0  0  0  0  0  0  0  0  0  0  0  0
   34.0510   29.7810   32.4090 C   0  0  0  0  0  0  0  0  0  0  0  0
   34.6660   28.9040   32.7510 N   0  0  0  0  0  0  0  0  0  0  0  0
   32.6740   30.4470   32.6100 C   0  0  1  0  0  0  0  0  0  0  0  0
   31.5620   29.5810   33.0120 C   0  0  0  0  0  0  0  0  0  0  0  0
   32.2850   30.5340   33.9980 C   0  0  1  0  0  0  0  0  0  0  0  0
   33.0090   29.9560   35.0720 N   0  0  0  0  0  0  0  0  0  0  0  0
   33.7250   31.0140   35.7980 C   0  0  0  0  0  0  0  0  0  0  0  0
   32.7670   31.6000   36.7900 C   0  0  0  0  0  0  0  0  0  0  0  0
   31.6160   30.6110   36.8130 C   0  0  0  0  0  0  0  0  0  0  0  0
   32.2080   29.4170   36.1360 C   0  0  0  0  0  0  0  0  0  0  0  0
   41.7502   22.0291   36.4312 H   0  0  0  0  0  0  0  0  0  0  0  0
   40.7175   22.2788   38.7267 H   0  0  0  0  0  0  0  0  0  0  0  0
   38.4390   23.3698   38.8722 H   0  0  0  0  0  0  0  0  0  0  0  0
   38.5799   22.0709   33.2179 H   0  0  0  0  0  0  0  0  0  0  0  0
   37.0569   28.6791   35.8924 H   0  0  0  0  0  0  0  0  0  0  0  0
   36.2592   29.3157   34.4291 H   0  0  0  0  0  0  0  0  0  0  0  0
   37.4887   29.1781   31.0858 H   0  0  0  0  0  0  0  0  0  0  0  0
   32.7753   31.1663   31.7840 H   0  0  0  0  0  0  0  0  0  0  0  0
   30.5369   29.7979   32.6771 H   0  0  0  0  0  0  0  0  0  0  0  0
   31.3371   28.5051   32.9680 H   0  0  0  0  0  0  0  0  0  0  0  0
   32.0397   31.3812   34.6554 H   0  0  0  0  0  0  0  0  0  0  0  0
   34.5951   30.5896   36.3203 H   0  0  0  0  0  0  0  0  0  0  0  0
   34.0876   31.7862   35.1036 H   0  0  0  0  0  0  0  0  0  0  0  0
   33.2329   31.6816   37.7831 H   0  0  0  0  0  0  0  0  0  0  0  0
   32.4471   32.6175   36.5211 H   0  0  0  0  0  0  0  0  0  0  0  0
   31.3140   30.3753   37.8441 H   0  0  0  0  0  0  0  0  0  0  0  0
   30.7035   30.9858   36.3263 H   0  0  0  0  0  0  0  0  0  0  0  0
   31.4163   28.7677   35.7339 H   0  0  0  0  0  0  0  0  0  0  0  0
   32.7992   28.7989   36.8277 H   0  0  0  0  0  0  0  0  0  0  0  0
  1  2  2  0
  2  3  1  0
  4  3  2  0
  5  4  1  0
  6  5  2  0
  6  1  1  0
  7  5  1  0
  8  7  1  0
  9 10  1  0
  9  8  2  0
 10 17  2  0
 11 10  1  0
 11 13  1  0
 12 11  2  0
 13 14  1  0
 14 16  2  0
 14 15  1  0
 17  7  1  0
 17 16  1  0
 18 22  1  0
 18 13  1  0
 19 18  2  0
 20 19  1  0
 20 21  1  0
 21 23  1  0
 21 22  2  0
 23 24  1  0
 23 25  1  0
 24 25  1  0
 25 26  1  0
 26 27  1  0
 26 30  1  0
 27 28  1  0
 28 29  1  0
 30 29  1  0
  1 31  1  0
  2 32  1  0
  3 33  1  0
  8 34  1  0
 15 35  1  0
 15 36  1  0
 19 37  1  0
 23 38  1  6
 24 39  1  0
 24 40  1  0
 25 41  1  1
 27 42  1  0
 27 43  1  0
 28 44  1  0
 28 45  1  0
 29 46  1  0
 29 47  1  0
 30 48  1  0
 30 49  1  0
M  ISO  8  31  14  32  14  33  14  34  14  37  14  38  13  39  13  40  13
M  ISO  8  41  13  42  13  43  13  44  13  45  13  46  13  47  13  48  13
M  ISO  1  49  13
M  END
>  <minimizedAffinity>  (1) 
-6.59636593

>  <minimizedRMSD>  (1) 
1.0087074

$$$$
