
     RDKit          3D

 38 41  0  0  0  0  0  0  0  0999 V2000
   39.3480   26.3200   35.1520 C   0  0  0  0  0  0  0  0  0  0  0  0
   38.3260   27.0760   34.3820 C   0  0  0  0  0  0  0  0  0  0  0  0
   37.2680   27.6640   35.0470 C   0  0  0  0  0  0  0  0  0  0  0  0
   36.2580   28.3920   34.4250 C   0  0  0  0  0  0  0  0  0  0  0  0
   36.3490   28.5130   33.0690 N   0  0  0  0  0  0  0  0  0  0  0  0
   37.3860   27.9380   32.4090 C   0  0  0  0  0  0  0  0  0  0  0  0
   38.3500   27.2350   33.0640 N   0  0  0  0  0  0  0  0  0  0  0  0
   37.5080   28.0530   30.9580 C   0  0  0  0  0  0  0  0  0  0  0  0
   38.7800   28.0950   30.3680 C   0  0  0  0  0  0  0  0  0  0  0  0
   38.5530   28.2080   28.9820 C   0  0  0  0  0  0  0  0  0  0  0  0
   37.1960   28.2280   28.7950 N   0  0  0  0  0  0  0  0  0  0  0  0
   36.5870   28.1360   29.9660 N   0  0  0  0  0  0  0  0  0  0  0  0
   40.4280   25.7390   34.2830 C   0  0  0  0  0  0  0  0  0  0  0  0
   39.8790   22.9150   31.8990 C   0  0  0  0  0  0  0  0  0  0  0  0
   38.8740   22.1960   32.5690 C   0  0  0  0  0  0  0  0  0  0  0  0
   38.3990   22.6610   33.7970 C   0  0  0  0  0  0  0  0  0  0  0  0
   38.9370   23.8060   34.2980 N   0  0  0  0  0  0  0  0  0  0  0  0
   39.9140   24.4850   33.6240 C   0  0  0  0  0  0  0  0  0  0  0  0
   40.3780   24.0500   32.4470 N   0  0  0  0  0  0  0  0  0  0  0  0
   37.3820   21.9420   34.4830 N   0  0  0  0  0  0  0  0  0  0  0  0
   36.5510   21.1860   33.7550 N   0  0  0  0  0  0  0  0  0  0  0  0
   35.6710   20.5920   34.5850 C   0  0  0  0  0  0  0  0  0  0  0  0
   35.9440   20.9800   35.8980 C   0  0  0  0  0  0  0  0  0  0  0  0
   37.0400   21.8390   35.8020 C   0  0  0  0  0  0  0  0  0  0  0  0
   39.8127   27.0010   35.8802 H   0  0  0  0  0  0  0  0  0  0  0  0
   38.8346   25.4806   35.6438 H   0  0  0  0  0  0  0  0  0  0  0  0
   37.2205   27.5494   36.1400 H   0  0  0  0  0  0  0  0  0  0  0  0
   35.4328   28.8444   34.9945 H   0  0  0  0  0  0  0  0  0  0  0  0
   39.7522   28.0492   30.8806 H   0  0  0  0  0  0  0  0  0  0  0  0
   39.3214   28.2688   28.1972 H   0  0  0  0  0  0  0  0  0  0  0  0
   36.7227   28.3031   27.8833 H   0  0  0  0  0  0  0  0  0  0  0  0
   40.7122   26.4698   33.5116 H   0  0  0  0  0  0  0  0  0  0  0  0
   41.3076   25.4988   34.8983 H   0  0  0  0  0  0  0  0  0  0  0  0
   40.2601   22.5571   30.9312 H   0  0  0  0  0  0  0  0  0  0  0  0
   38.4650   21.2743   32.1294 H   0  0  0  0  0  0  0  0  0  0  0  0
   34.8652   19.9095   34.2768 H   0  0  0  0  0  0  0  0  0  0  0  0
   35.4109   20.6749   36.8105 H   0  0  0  0  0  0  0  0  0  0  0  0
   37.5406   22.3444   36.6410 H   0  0  0  0  0  0  0  0  0  0  0  0
  2  3  2  0
  2  1  1  0
  4  3  1  0
  5  4  2  0
  6  7  2  0
  6  5  1  0
  7  2  1  0
  8  6  1  0
  9  8  1  0
 10  9  2  0
 11 10  1  0
 11 12  1  0
 12  8  2  0
 13  1  1  0
 14 19  2  0
 14 15  1  0
 15 16  2  0
 16 17  1  0
 16 20  1  0
 18 13  1  0
 18 17  2  0
 19 18  1  0
 20 24  1  0
 21 20  1  0
 21 22  2  0
 22 23  1  0
 24 23  2  0
  1 25  1  0
  1 26  1  0
  3 27  1  0
  4 28  1  0
  9 29  1  0
 10 30  1  0
 11 31  1  0
 13 32  1  0
 13 33  1  0
 14 34  1  0
 15 35  1  0
 22 36  1  0
 23 37  1  0
 24 38  1  0
M  ISO  8  25   8  26   8  27  14  28  14  29  14  30  14  31   9  32   8
M  ISO  6  33   8  34  14  35  14  36  14  37  14  38  14
M  END
>  <minimizedAffinity>  (1) 
-5.10262108

>  <minimizedRMSD>  (1) 
3.74901867

$$$$
