
     RDKit          3D

 50 55  0  0  1  0  0  0  0  0999 V2000
   41.2530   21.7410   36.2220 C   0  0  0  0  0  0  0  0  0  0  0  0
   40.9150   22.0020   37.5710 C   0  0  0  0  0  0  0  0  0  0  0  0
   39.7380   22.7260   37.7990 C   0  0  0  0  0  0  0  0  0  0  0  0
   38.9910   23.1360   36.7440 N   0  0  0  0  0  0  0  0  0  0  0  0
   39.3540   22.8620   35.4660 C   0  0  0  0  0  0  0  0  0  0  0  0
   40.4770   22.1690   35.2050 N   0  0  0  0  0  0  0  0  0  0  0  0
   38.5930   23.2770   34.3490 N   0  0  0  0  0  0  0  0  0  0  0  0
   38.2650   22.4020   33.3710 C   0  0  0  0  0  0  0  0  0  0  0  0
   37.5420   23.0900   32.4470 N   0  0  0  0  0  0  0  0  0  0  0  0
   37.4060   24.3550   32.8100 C   0  0  0  0  0  0  0  0  0  0  0  0
   36.8210   25.5490   32.3610 C   0  0  0  0  0  0  0  0  0  0  0  0
   36.2100   25.4330   31.2520 O   0  0  0  0  0  0  0  0  0  0  0  0
   36.9260   26.7050   33.0840 N   0  0  0  0  0  0  0  0  0  0  0  0
   37.5740   26.7480   34.2230 C   0  0  0  0  0  0  0  0  0  0  0  0
   37.5630   28.0440   34.8190 N   0  0  0  0  0  0  0  0  0  0  0  0
   38.1540   25.6220   34.6960 N   0  0  0  0  0  0  0  0  0  0  0  0
   38.0760   24.4740   34.0200 C   0  0  0  0  0  0  0  0  0  0  0  0
   36.2930   27.9090   32.5560 C   0  0  0  0  0  0  0  0  0  0  0  0
   36.8780   28.6390   31.5010 C   0  0  0  0  0  0  0  0  0  0  0  0
   35.6600   30.0250   31.2560 S   0  0  0  0  0  0  0  0  0  0  0  0
   34.5890   29.3520   32.6310 C   0  0  0  0  0  0  0  0  0  0  0  0
   35.1660   28.4400   32.9610 N   0  0  0  0  0  0  0  0  0  0  0  0
   33.2920   30.1250   32.9400 C   0  0  1  0  0  0  0  0  0  0  0  0
   32.0310   29.3710   32.9040 C   0  0  0  0  0  0  0  0  0  0  0  0
   32.7200   29.7290   34.2370 C   0  0  2  0  0  0  0  0  0  0  0  0
   32.2030   30.7210   35.0930 N   0  0  0  0  0  0  0  0  0  0  0  0
   32.7030   32.0470   34.9880 C   0  0  0  0  0  0  0  0  0  0  0  0
   33.8700   32.3700   35.8850 C   0  0  0  0  0  0  0  0  0  0  0  0
   33.9270   31.6140   37.0200 O   0  0  0  0  0  0  0  0  0  0  0  0
   32.6890   31.2130   37.4400 C   0  0  0  0  0  0  0  0  0  0  0  0
   31.9950   30.2980   36.4570 C   0  0  0  0  0  0  0  0  0  0  0  0
   42.1697   21.1760   35.9974 H   0  0  0  0  0  0  0  0  0  0  0  0
   41.5466   21.6529   38.4011 H   0  0  0  0  0  0  0  0  0  0  0  0
   39.4218   22.9603   38.8262 H   0  0  0  0  0  0  0  0  0  0  0  0
   38.5324   21.3358   33.3306 H   0  0  0  0  0  0  0  0  0  0  0  0
   38.0405   28.2015   35.7180 H   0  0  0  0  0  0  0  0  0  0  0  0
   37.0776   28.8223   34.3504 H   0  0  0  0  0  0  0  0  0  0  0  0
   37.8152   28.4401   30.9606 H   0  0  0  0  0  0  0  0  0  0  0  0
   33.5896   31.0679   32.4580 H   0  0  0  0  0  0  0  0  0  0  0  0
   31.0950   29.8699   32.6123 H   0  0  0  0  0  0  0  0  0  0  0  0
   31.6808   28.4459   32.4228 H   0  0  0  0  0  0  0  0  0  0  0  0
   33.0486   29.1559   35.1165 H   0  0  0  0  0  0  0  0  0  0  0  0
   33.0199   32.2089   33.9471 H   0  0  0  0  0  0  0  0  0  0  0  0
   31.8829   32.7067   35.3078 H   0  0  0  0  0  0  0  0  0  0  0  0
   34.7977   32.2094   35.3161 H   0  0  0  0  0  0  0  0  0  0  0  0
   33.7436   33.4145   36.2059 H   0  0  0  0  0  0  0  0  0  0  0  0
   32.7996   30.6800   38.3959 H   0  0  0  0  0  0  0  0  0  0  0  0
   32.0691   32.1161   37.5403 H   0  0  0  0  0  0  0  0  0  0  0  0
   30.9158   30.2996   36.6697 H   0  0  0  0  0  0  0  0  0  0  0  0
   32.4186   29.2892   36.5708 H   0  0  0  0  0  0  0  0  0  0  0  0
  1  2  2  0
  2  3  1  0
  4  3  2  0
  5  4  1  0
  6  5  2  0
  6  1  1  0
  7  5  1  0
  8  7  1  0
  9 10  1  0
  9  8  2  0
 10 17  2  0
 11 10  1  0
 11 13  1  0
 12 11  2  0
 13 14  1  0
 14 16  2  0
 14 15  1  0
 17  7  1  0
 17 16  1  0
 18 22  1  0
 18 13  1  0
 19 18  2  0
 20 19  1  0
 20 21  1  0
 21 23  1  0
 21 22  2  0
 23 25  1  0
 24 23  1  0
 24 25  1  0
 25 26  1  0
 26 31  1  0
 27 26  1  0
 27 28  1  0
 28 29  1  0
 29 30  1  0
 31 30  1  0
  1 32  1  0
  2 33  1  0
  3 34  1  0
  8 35  1  0
 15 36  1  0
 15 37  1  0
 19 38  1  0
 23 39  1  1
 24 40  1  0
 24 41  1  0
 25 42  1  1
 27 43  1  0
 27 44  1  0
 28 45  1  0
 28 46  1  0
 30 47  1  0
 30 48  1  0
 31 49  1  0
 31 50  1  0
M  ISO  8  32  14  33  14  34  14  35  14  38  14  39  13  40  13  41  13
M  ISO  8  42  13  43  13  44  13  45  13  46  13  47  13  48  13  49  13
M  ISO  1  50  13
M  END
>  <minimizedAffinity>  (1) 
-6.42790699

>  <minimizedRMSD>  (1) 
2.46999002

$$$$
