
     RDKit          3D

 40 44  0  0  1  0  0  0  0  0999 V2000
   40.1130   22.9480   37.1410 C   0  0  0  0  0  0  0  0  0  0  0  0
   39.3580   23.0780   38.3310 C   0  0  0  0  0  0  0  0  0  0  0  0
   38.0960   23.6790   38.2160 C   0  0  0  0  0  0  0  0  0  0  0  0
   37.6650   24.0970   37.0030 N   0  0  0  0  0  0  0  0  0  0  0  0
   38.4320   23.9500   35.8770 C   0  0  0  0  0  0  0  0  0  0  0  0
   39.6400   23.3820   35.9560 N   0  0  0  0  0  0  0  0  0  0  0  0
   38.0000   24.3790   34.6160 N   0  0  0  0  0  0  0  0  0  0  0  0
   38.0690   23.5440   33.5440 C   0  0  0  0  0  0  0  0  0  0  0  0
   37.5830   24.2290   32.4720 N   0  0  0  0  0  0  0  0  0  0  0  0
   37.2130   25.4510   32.8170 C   0  0  0  0  0  0  0  0  0  0  0  0
   36.6680   26.6150   32.2660 C   0  0  0  0  0  0  0  0  0  0  0  0
   36.4280   26.5220   31.0230 O   0  0  0  0  0  0  0  0  0  0  0  0
   36.4320   27.7230   33.0330 N   0  0  0  0  0  0  0  0  0  0  0  0
   36.7070   27.7430   34.3150 C   0  0  0  0  0  0  0  0  0  0  0  0
   36.3860   28.9910   34.9280 N   0  0  0  0  0  0  0  0  0  0  0  0
   37.2360   26.6430   34.8980 N   0  0  0  0  0  0  0  0  0  0  0  0
   37.4780   25.5460   34.1840 C   0  0  0  0  0  0  0  0  0  0  0  0
   35.8620   28.9020   32.3850 C   0  0  0  0  0  0  0  0  0  0  0  0
   36.6080   29.6670   31.4690 C   0  0  0  0  0  0  0  0  0  0  0  0
   35.4000   30.9930   30.9820 S   0  0  0  0  0  0  0  0  0  0  0  0
   34.1060   30.2620   32.1130 C   0  0  0  0  0  0  0  0  0  0  0  0
   34.6490   29.3760   32.5540 N   0  0  0  0  0  0  0  0  0  0  0  0
   32.7380   30.9640   32.1540 C   0  0  1  0  0  0  0  0  0  0  0  0
   31.6250   30.2380   32.7770 C   0  0  0  0  0  0  0  0  0  0  0  0
   32.3880   31.3960   33.5150 C   0  0  2  0  0  0  0  0  0  0  0  0
   31.5890   32.6730   33.7270 C   0  0  0  0  0  0  0  0  0  0  0  0
   30.3480   32.3900   34.2570 F   0  0  0  0  0  0  0  0  0  0  0  0
   31.4370   33.2710   32.4770 F   0  0  0  0  0  0  0  0  0  0  0  0
   32.2920   33.5580   34.5220 F   0  0  0  0  0  0  0  0  0  0  0  0
   41.1085   22.4821   37.1843 H   0  0  0  0  0  0  0  0  0  0  0  0
   39.7424   22.7248   39.2992 H   0  0  0  0  0  0  0  0  0  0  0  0
   37.4613   23.8096   39.1049 H   0  0  0  0  0  0  0  0  0  0  0  0
   38.4462   22.5107   33.5433 H   0  0  0  0  0  0  0  0  0  0  0  0
   36.5569   29.1296   35.9342 H   0  0  0  0  0  0  0  0  0  0  0  0
   35.9834   29.7532   34.3642 H   0  0  0  0  0  0  0  0  0  0  0  0
   37.6431   29.5180   31.1279 H   0  0  0  0  0  0  0  0  0  0  0  0
   32.8175   31.4519   31.1714 H   0  0  0  0  0  0  0  0  0  0  0  0
   30.5948   30.3886   32.4221 H   0  0  0  0  0  0  0  0  0  0  0  0
   31.3885   29.1851   32.9904 H   0  0  0  0  0  0  0  0  0  0  0  0
   32.9596   31.5377   34.4441 H   0  0  0  0  0  0  0  0  0  0  0  0
  1  2  2  0
  3  2  1  0
  4  3  2  0
  5  6  2  0
  5  4  1  0
  6  1  1  0
  7  5  1  0
  8  7  1  0
  9 10  1  0
  9  8  2  0
 10 17  2  0
 11 10  1  0
 11 13  1  0
 12 11  2  0
 13 14  1  0
 14 16  2  0
 14 15  1  0
 17  7  1  0
 17 16  1  0
 18 22  1  0
 18 13  1  0
 19 18  2  0
 20 19  1  0
 20 21  1  0
 21 23  1  0
 21 22  2  0
 23 24  1  0
 23 25  1  0
 24 25  1  0
 25 26  1  0
 26 27  1  0
 26 29  1  0
 28 26  1  0
  1 30  1  0
  2 31  1  0
  3 32  1  0
  8 33  1  0
 15 34  1  0
 15 35  1  0
 19 36  1  0
 23 37  1  6
 24 38  1  0
 24 39  1  0
 25 40  1  1
M  ISO  8  30  14  31  14  32  14  33  14  36  14  37  13  38  13  39  13
M  ISO  1  40  13
M  END
>  <minimizedAffinity>  (1) 
-5.81498051

>  <minimizedRMSD>  (1) 
0.383883506

$$$$
