
     RDKit          3D

 44 49  0  0  1  0  0  0  0  0999 V2000
   40.0550   22.9130   37.2120 C   0  0  0  0  0  0  0  0  0  0  0  0
   39.2930   23.0750   38.3850 C   0  0  0  0  0  0  0  0  0  0  0  0
   38.0450   23.6930   38.2490 C   0  0  0  0  0  0  0  0  0  0  0  0
   37.6240   24.1030   37.0290 N   0  0  0  0  0  0  0  0  0  0  0  0
   38.3910   23.9260   35.9240 C   0  0  0  0  0  0  0  0  0  0  0  0
   39.6000   23.3350   36.0160 N   0  0  0  0  0  0  0  0  0  0  0  0
   37.9870   24.3400   34.6340 N   0  0  0  0  0  0  0  0  0  0  0  0
   38.0610   23.5050   33.5800 C   0  0  0  0  0  0  0  0  0  0  0  0
   37.6100   24.1800   32.4920 N   0  0  0  0  0  0  0  0  0  0  0  0
   37.2550   25.4060   32.8220 C   0  0  0  0  0  0  0  0  0  0  0  0
   36.7320   26.5790   32.2450 C   0  0  0  0  0  0  0  0  0  0  0  0
   36.5160   26.4760   30.9990 O   0  0  0  0  0  0  0  0  0  0  0  0
   36.4960   27.6960   32.9980 N   0  0  0  0  0  0  0  0  0  0  0  0
   36.7470   27.7200   34.2820 C   0  0  0  0  0  0  0  0  0  0  0  0
   36.4270   28.9780   34.8880 N   0  0  0  0  0  0  0  0  0  0  0  0
   37.2530   26.6180   34.8900 N   0  0  0  0  0  0  0  0  0  0  0  0
   37.4950   25.5080   34.1810 C   0  0  0  0  0  0  0  0  0  0  0  0
   35.9510   28.8690   32.3320 C   0  0  0  0  0  0  0  0  0  0  0  0
   36.6950   29.6220   31.4170 C   0  0  0  0  0  0  0  0  0  0  0  0
   35.5140   30.9520   30.9000 S   0  0  0  0  0  0  0  0  0  0  0  0
   34.2020   30.2490   32.0280 C   0  0  0  0  0  0  0  0  0  0  0  0
   34.7390   29.3590   32.4850 N   0  0  0  0  0  0  0  0  0  0  0  0
   32.8350   30.9680   32.0490 C   0  0  1  0  0  0  0  0  0  0  0  0
   31.7300   30.2590   32.7090 C   0  0  0  0  0  0  0  0  0  0  0  0
   32.4880   31.4470   33.3920 C   0  0  2  0  0  0  0  0  0  0  0  0
   31.6150   32.6340   33.5970 C   0  0  0  0  0  0  0  0  0  0  0  0
   31.1410   32.9530   34.8590 C   0  0  0  0  0  0  0  0  0  0  0  0
   30.3680   34.0960   34.7200 C   0  0  0  0  0  0  0  0  0  0  0  0
   30.4140   34.4030   33.3990 N   0  0  0  0  0  0  0  0  0  0  0  0
   31.1640   33.5240   32.7240 N   0  0  0  0  0  0  0  0  0  0  0  0
   41.0423   22.4319   37.2733 H   0  0  0  0  0  0  0  0  0  0  0  0
   39.6617   22.7317   39.3628 H   0  0  0  0  0  0  0  0  0  0  0  0
   37.4068   23.8456   39.1319 H   0  0  0  0  0  0  0  0  0  0  0  0
   38.4211   22.4658   33.5975 H   0  0  0  0  0  0  0  0  0  0  0  0
   36.5816   29.1179   35.8967 H   0  0  0  0  0  0  0  0  0  0  0  0
   36.0423   29.7426   34.3150 H   0  0  0  0  0  0  0  0  0  0  0  0
   37.7314   29.4626   31.0848 H   0  0  0  0  0  0  0  0  0  0  0  0
   32.9114   31.4267   31.0521 H   0  0  0  0  0  0  0  0  0  0  0  0
   30.6963   30.3884   32.3558 H   0  0  0  0  0  0  0  0  0  0  0  0
   31.5021   29.2140   32.9660 H   0  0  0  0  0  0  0  0  0  0  0  0
   33.0997   31.6575   34.2817 H   0  0  0  0  0  0  0  0  0  0  0  0
   31.3396   32.4051   35.7919 H   0  0  0  0  0  0  0  0  0  0  0  0
   29.8315   34.6385   35.5123 H   0  0  0  0  0  0  0  0  0  0  0  0
   29.9341   35.2079   32.9715 H   0  0  0  0  0  0  0  0  0  0  0  0
  1  2  2  0
  3  2  1  0
  4  3  2  0
  5  6  2  0
  5  4  1  0
  6  1  1  0
  7  5  1  0
  8  7  1  0
  9 10  1  0
  9  8  2  0
 10 17  2  0
 11 10  1  0
 11 13  1  0
 12 11  2  0
 13 14  1  0
 14 15  1  0
 14 16  2  0
 17  7  1  0
 17 16  1  0
 18 22  1  0
 18 13  1  0
 19 18  2  0
 20 19  1  0
 20 21  1  0
 21 23  1  0
 21 22  2  0
 23 24  1  0
 23 25  1  0
 24 25  1  0
 25 26  1  0
 26 27  1  0
 28 27  2  0
 29 28  1  0
 30 29  1  0
 30 26  2  0
  1 31  1  0
  2 32  1  0
  3 33  1  0
  8 34  1  0
 15 35  1  0
 15 36  1  0
 19 37  1  0
 23 38  1  6
 24 39  1  0
 24 40  1  0
 25 41  1  1
 27 42  1  0
 28 43  1  0
 29 44  1  0
M  ISO  8  31  14  32  14  33  14  34  14  37  14  38  13  39  13  40  13
M  ISO  4  41  13  42  14  43  14  44   9
M  END
>  <minimizedAffinity>  (1) 
-5.81034708

>  <minimizedRMSD>  (1) 
0.201081127

$$$$
