
     RDKit          3D

 43 45  0  0  0  0  0  0  0  0999 V2000
   40.5970   26.7200   34.2490 C   0  0  0  0  0  0  0  0  0  0  0  0
   39.3450   27.1190   33.5370 C   0  0  0  0  0  0  0  0  0  0  0  0
   38.1420   27.2460   34.2410 C   0  0  0  0  0  0  0  0  0  0  0  0
   36.9390   27.6110   33.6620 C   0  0  0  0  0  0  0  0  0  0  0  0
   36.9520   27.8570   32.3170 N   0  0  0  0  0  0  0  0  0  0  0  0
   38.1020   27.7380   31.6320 C   0  0  0  0  0  0  0  0  0  0  0  0
   39.2740   27.3750   32.2400 N   0  0  0  0  0  0  0  0  0  0  0  0
   38.1620   27.9910   30.1950 C   0  0  0  0  0  0  0  0  0  0  0  0
   39.3090   27.6730   29.4650 C   0  0  0  0  0  0  0  0  0  0  0  0
   39.0640   28.0290   28.1300 C   0  0  0  0  0  0  0  0  0  0  0  0
   37.7950   28.5410   28.1020 N   0  0  0  0  0  0  0  0  0  0  0  0
   37.2620   28.5170   29.3250 N   0  0  0  0  0  0  0  0  0  0  0  0
   41.1790   25.4480   33.7120 C   0  0  0  0  0  0  0  0  0  0  0  0
   41.3750   22.2480   35.6190 C   0  0  0  0  0  0  0  0  0  0  0  0
   40.2740   22.3810   36.4860 C   0  0  0  0  0  0  0  0  0  0  0  0
   39.5010   23.5360   36.4070 C   0  0  0  0  0  0  0  0  0  0  0  0
   39.8430   24.4810   35.4960 N   0  0  0  0  0  0  0  0  0  0  0  0
   40.9130   24.3250   34.6720 C   0  0  0  0  0  0  0  0  0  0  0  0
   41.6690   23.2260   34.7300 N   0  0  0  0  0  0  0  0  0  0  0  0
   38.3700   23.6250   37.3290 C   0  0  0  0  0  0  0  0  0  0  0  0
   38.8400   23.3110   38.7290 C   0  0  0  0  0  0  0  0  0  0  0  0
   37.8800   25.0670   37.3000 C   0  0  0  0  0  0  0  0  0  0  0  0
   37.2440   22.6970   36.9640 C   0  0  0  0  0  0  0  0  0  0  0  0
   41.3394   27.5237   34.1354 H   0  0  0  0  0  0  0  0  0  0  0  0
   40.3428   26.5524   35.3060 H   0  0  0  0  0  0  0  0  0  0  0  0
   38.1533   27.0430   35.3221 H   0  0  0  0  0  0  0  0  0  0  0  0
   36.0169   27.6989   34.2553 H   0  0  0  0  0  0  0  0  0  0  0  0
   40.2325   27.2266   29.8624 H   0  0  0  0  0  0  0  0  0  0  0  0
   39.7521   27.9189   27.2789 H   0  0  0  0  0  0  0  0  0  0  0  0
   37.3201   28.8938   27.2588 H   0  0  0  0  0  0  0  0  0  0  0  0
   40.7173   25.2160   32.7409 H   0  0  0  0  0  0  0  0  0  0  0  0
   42.2649   25.5693   33.5852 H   0  0  0  0  0  0  0  0  0  0  0  0
   42.0002   21.3441   35.6640 H   0  0  0  0  0  0  0  0  0  0  0  0
   40.0299   21.5897   37.2100 H   0  0  0  0  0  0  0  0  0  0  0  0
   38.1545   23.7690   39.4573 H   0  0  0  0  0  0  0  0  0  0  0  0
   38.8550   22.2208   38.8749 H   0  0  0  0  0  0  0  0  0  0  0  0
   39.8529   23.7144   38.8749 H   0  0  0  0  0  0  0  0  0  0  0  0
   37.7557   25.4328   38.3299 H   0  0  0  0  0  0  0  0  0  0  0  0
   38.6156   25.6937   36.7746 H   0  0  0  0  0  0  0  0  0  0  0  0
   36.9148   25.1158   36.7746 H   0  0  0  0  0  0  0  0  0  0  0  0
   36.7753   22.3107   37.8811 H   0  0  0  0  0  0  0  0  0  0  0  0
   36.4954   23.2439   36.3720 H   0  0  0  0  0  0  0  0  0  0  0  0
   37.6378   21.8577   36.3720 H   0  0  0  0  0  0  0  0  0  0  0  0
  2  3  2  0
  2  1  1  0
  4  3  1  0
  5  4  2  0
  6  7  2  0
  6  5  1  0
  7  2  1  0
  8  6  1  0
  9  8  1  0
 10  9  2  0
 11 10  1  0
 11 12  1  0
 12  8  2  0
 13  1  1  0
 13 18  1  0
 14 15  2  0
 16 15  1  0
 16 20  1  0
 17 16  2  0
 18 19  2  0
 18 17  1  0
 19 14  1  0
 20 21  1  0
 22 20  1  0
 23 20  1  0
  1 24  1  0
  1 25  1  0
  3 26  1  0
  4 27  1  0
  9 28  1  0
 10 29  1  0
 11 30  1  0
 13 31  1  0
 13 32  1  0
 14 33  1  0
 15 34  1  0
 21 35  1  0
 21 36  1  0
 21 37  1  0
 22 38  1  0
 22 39  1  0
 22 40  1  0
 23 41  1  0
 23 42  1  0
 23 43  1  0
M  ISO  8  24   8  25   8  26  14  27  14  28  14  29  14  30   9  31   8
M  ISO  8  32   8  33  14  34  14  35   8  36   8  37   8  38   8  39   8
M  ISO  4  40   8  41   8  42   8  43   8
M  END
>  <minimizedAffinity>  (1) 
-4.97493219

>  <minimizedRMSD>  (1) 
1.92479277

$$$$
