
     RDKit          3D

 43 47  0  0  1  0  0  0  0  0999 V2000
   40.1310   23.0210   37.0580 C   0  0  0  0  0  0  0  0  0  0  0  0
   39.3710   23.1170   38.2510 C   0  0  0  0  0  0  0  0  0  0  0  0
   38.0990   23.6940   38.1500 C   0  0  0  0  0  0  0  0  0  0  0  0
   37.6580   24.1270   36.9430 N   0  0  0  0  0  0  0  0  0  0  0  0
   38.4270   24.0130   35.8190 C   0  0  0  0  0  0  0  0  0  0  0  0
   39.6530   23.4620   35.8870 N   0  0  0  0  0  0  0  0  0  0  0  0
   37.9880   24.4560   34.5570 N   0  0  0  0  0  0  0  0  0  0  0  0
   38.0680   23.6400   33.4700 C   0  0  0  0  0  0  0  0  0  0  0  0
   37.5740   24.3350   32.4100 N   0  0  0  0  0  0  0  0  0  0  0  0
   37.1900   25.5430   32.7860 C   0  0  0  0  0  0  0  0  0  0  0  0
   36.6250   26.7110   32.2490 C   0  0  0  0  0  0  0  0  0  0  0  0
   36.3850   26.6380   31.0040 O   0  0  0  0  0  0  0  0  0  0  0  0
   36.3730   27.8010   33.0340 N   0  0  0  0  0  0  0  0  0  0  0  0
   36.6470   27.8030   34.3170 C   0  0  0  0  0  0  0  0  0  0  0  0
   36.3040   29.0320   34.9530 N   0  0  0  0  0  0  0  0  0  0  0  0
   37.1930   26.6990   34.8830 N   0  0  0  0  0  0  0  0  0  0  0  0
   37.4510   25.6210   34.1500 C   0  0  0  0  0  0  0  0  0  0  0  0
   35.7870   28.9830   32.4090 C   0  0  0  0  0  0  0  0  0  0  0  0
   36.5580   29.8510   31.6020 C   0  0  0  0  0  0  0  0  0  0  0  0
   35.3170   31.1300   31.0920 S   0  0  0  0  0  0  0  0  0  0  0  0
   33.9810   30.2580   32.0640 C   0  0  0  0  0  0  0  0  0  0  0  0
   34.5290   29.3680   32.5090 N   0  0  0  0  0  0  0  0  0  0  0  0
   32.5760   30.8770   32.0290 C   0  0  1  0  0  0  0  0  0  0  0  0
   31.5490   30.2680   32.8870 C   0  0  0  0  0  0  0  0  0  0  0  0
   32.2750   31.6030   33.2740 C   0  0  1  0  0  0  0  0  0  0  0  0
   33.1900   31.5530   34.4480 C   0  0  0  0  0  0  0  0  0  0  0  0
   33.7770   32.9300   34.6690 C   0  0  0  0  0  0  0  0  0  0  0  0
   41.1356   22.5744   37.0949 H   0  0  0  0  0  0  0  0  0  0  0  0
   39.7629   22.7545   39.2128 H   0  0  0  0  0  0  0  0  0  0  0  0
   37.4632   23.7951   39.0419 H   0  0  0  0  0  0  0  0  0  0  0  0
   38.4587   22.6119   33.4523 H   0  0  0  0  0  0  0  0  0  0  0  0
   36.4723   29.1544   35.9618 H   0  0  0  0  0  0  0  0  0  0  0  0
   35.8879   29.7975   34.4037 H   0  0  0  0  0  0  0  0  0  0  0  0
   37.6248   29.7842   31.3424 H   0  0  0  0  0  0  0  0  0  0  0  0
   32.5672   31.1167   30.9555 H   0  0  0  0  0  0  0  0  0  0  0  0
   30.4922   30.2783   32.5818 H   0  0  0  0  0  0  0  0  0  0  0  0
   31.3945   29.2868   33.3597 H   0  0  0  0  0  0  0  0  0  0  0  0
   32.0060   32.6445   33.5039 H   0  0  0  0  0  0  0  0  0  0  0  0
   32.6281   31.2431   35.3415 H   0  0  0  0  0  0  0  0  0  0  0  0
   33.9967   30.8287   34.2620 H   0  0  0  0  0  0  0  0  0  0  0  0
   33.8598   33.1243   35.7485 H   0  0  0  0  0  0  0  0  0  0  0  0
   34.7752   32.9812   34.2096 H   0  0  0  0  0  0  0  0  0  0  0  0
   33.1227   33.6856   34.2096 H   0  0  0  0  0  0  0  0  0  0  0  0
  1  2  2  0
  3  2  1  0
  4  3  2  0
  5  6  2  0
  5  4  1  0
  6  1  1  0
  7  5  1  0
  8  7  1  0
  9 10  1  0
  9  8  2  0
 10 17  2  0
 11 10  1  0
 11 13  1  0
 12 11  2  0
 13 14  1  0
 14 16  2  0
 14 15  1  0
 17  7  1  0
 17 16  1  0
 18 22  1  0
 18 13  1  0
 19 18  2  0
 20 19  1  0
 20 21  1  0
 21 22  2  0
 23 21  1  0
 23 24  1  0
 23 25  1  0
 24 25  1  0
 25 26  1  0
 26 27  1  0
  1 28  1  0
  2 29  1  0
  3 30  1  0
  8 31  1  0
 15 32  1  0
 15 33  1  0
 19 34  1  0
 23 35  1  6
 24 36  1  0
 24 37  1  0
 25 38  1  6
 26 39  1  0
 26 40  1  0
 27 41  1  0
 27 42  1  0
 27 43  1  0
M  ISO  8  28  14  29  14  30  14  31  14  34  14  35  13  36  13  37  13
M  ISO  6  38  13  39   8  40   8  41   8  42   8  43   8
M  END
>  <minimizedAffinity>  (1) 
-5.76565313

>  <minimizedRMSD>  (1) 
0.512640297

$$$$
