
     RDKit          3D

 34 37  0  0  0  0  0  0  0  0999 V2000
   37.2030   21.5270   33.4240 C   0  0  0  0  0  0  0  0  0  0  0  0
   36.1180   20.6490   33.4080 C   0  0  0  0  0  0  0  0  0  0  0  0
   35.5170   20.4110   34.6470 C   0  0  0  0  0  0  0  0  0  0  0  0
   36.0050   21.0360   35.7980 C   0  0  0  0  0  0  0  0  0  0  0  0
   37.0960   21.9030   35.7250 C   0  0  0  0  0  0  0  0  0  0  0  0
   37.7220   22.1670   34.5170 C   0  0  0  0  0  0  0  0  0  0  0  0
   38.7520   23.0970   34.7110 N   0  0  0  0  0  0  0  0  0  0  0  0
   40.0020   22.7180   35.1250 C   0  0  0  0  0  0  0  0  0  0  0  0
   40.8250   23.7940   35.2090 N   0  0  0  0  0  0  0  0  0  0  0  0
   40.0800   24.8370   34.8450 C   0  0  0  0  0  0  0  0  0  0  0  0
   40.3530   26.2010   34.7280 C   0  0  0  0  0  0  0  0  0  0  0  0
   41.5010   26.6400   34.9960 O   0  0  0  0  0  0  0  0  0  0  0  0
   39.3550   27.0380   34.3200 N   0  0  0  0  0  0  0  0  0  0  0  0
   38.1170   26.5940   34.0270 C   0  0  0  0  0  0  0  0  0  0  0  0
   37.1810   27.6070   33.6120 N   0  0  0  0  0  0  0  0  0  0  0  0
   37.8080   25.2780   34.1260 N   0  0  0  0  0  0  0  0  0  0  0  0
   38.7930   24.4530   34.5280 C   0  0  0  0  0  0  0  0  0  0  0  0
   37.4520   22.9240   31.4070 C   0  0  0  0  0  0  0  0  0  0  0  0
   37.8300   21.7540   32.1440 C   0  0  0  0  0  0  0  0  0  0  0  0
   38.7760   20.8960   31.5950 C   0  0  0  0  0  0  0  0  0  0  0  0
   39.3190   21.1850   30.3810 N   0  0  0  0  0  0  0  0  0  0  0  0
   38.9420   22.3150   29.6910 C   0  0  0  0  0  0  0  0  0  0  0  0
   38.0090   23.1810   30.2050 N   0  0  0  0  0  0  0  0  0  0  0  0
   35.7599   20.1759   32.4818 H   0  0  0  0  0  0  0  0  0  0  0  0
   34.6566   19.7292   34.7167 H   0  0  0  0  0  0  0  0  0  0  0  0
   35.5253   20.8430   36.7689 H   0  0  0  0  0  0  0  0  0  0  0  0
   37.4655   22.3852   36.6420 H   0  0  0  0  0  0  0  0  0  0  0  0
   40.2977   21.6843   35.3572 H   0  0  0  0  0  0  0  0  0  0  0  0
   39.5553   28.0446   34.2330 H   0  0  0  0  0  0  0  0  0  0  0  0
   37.4785   28.5916   33.5571 H   0  0  0  0  0  0  0  0  0  0  0  0
   36.2142   27.3468   33.3702 H   0  0  0  0  0  0  0  0  0  0  0  0
   36.7045   23.6154   31.8231 H   0  0  0  0  0  0  0  0  0  0  0  0
   39.0834   19.9900   32.1379 H   0  0  0  0  0  0  0  0  0  0  0  0
   39.3958   22.5275   28.7118 H   0  0  0  0  0  0  0  0  0  0  0  0
  1  6  1  0
  2  1  2  0
  2  3  1  0
  3  4  2  0
  5  4  1  0
  6  7  1  0
  6  5  2  0
  7  8  1  0
  8  9  2  0
 10  9  1  0
 11 10  1  0
 11 12  2  0
 13 11  1  0
 14 16  2  0
 14 13  1  0
 15 14  1  0
 16 17  1  0
 17  7  1  0
 17 10  2  0
 18 19  2  0
 19  1  1  0
 20 19  1  0
 21 20  2  0
 22 23  2  0
 22 21  1  0
 23 18  1  0
  2 24  1  0
  3 25  1  0
  4 26  1  0
  5 27  1  0
  8 28  1  0
 13 29  1  0
 15 30  1  0
 15 31  1  0
 18 32  1  0
 20 33  1  0
 22 34  1  0
M  ISO  8  24  14  25  14  26  14  27  14  28  14  29   9  32  14  33  14
M  ISO  1  34  14
M  END
>  <minimizedAffinity>  (1) 
-4.62732935

>  <minimizedRMSD>  (1) 
5.60821629

$$$$
