
     RDKit          3D

 27 29  0  0  0  0  0  0  0  0999 V2000
   37.6290   22.4300   33.9660 C   0  0  0  0  0  0  0  0  0  0  0  0
   36.8410   21.9840   32.9030 C   0  0  0  0  0  0  0  0  0  0  0  0
   35.8400   21.0620   33.2200 C   0  0  0  0  0  0  0  0  0  0  0  0
   35.6770   20.6410   34.5410 C   0  0  0  0  0  0  0  0  0  0  0  0
   36.5050   21.1330   35.5510 C   0  0  0  0  0  0  0  0  0  0  0  0
   37.5150   22.0550   35.2760 C   0  0  0  0  0  0  0  0  0  0  0  0
   38.3350   24.7690   33.6400 C   0  0  0  0  0  0  0  0  0  0  0  0
   38.6590   23.3750   33.6130 C   0  0  0  0  0  0  0  0  0  0  0  0
   39.9430   23.0090   33.2500 C   0  0  0  0  0  0  0  0  0  0  0  0
   40.8580   23.9500   32.9340 N   0  0  0  0  0  0  0  0  0  0  0  0
   40.5260   25.2870   32.9660 C   0  0  0  0  0  0  0  0  0  0  0  0
   39.2620   25.6970   33.3180 N   0  0  0  0  0  0  0  0  0  0  0  0
   38.2060   22.4410   36.4760 C   0  0  0  0  0  0  0  0  0  0  0  0
   37.6250   23.2400   37.4740 C   0  0  0  0  0  0  0  0  0  0  0  0
   38.5840   23.4240   38.4730 C   0  0  0  0  0  0  0  0  0  0  0  0
   39.6830   22.7670   38.0880 N   0  0  0  0  0  0  0  0  0  0  0  0
   39.4750   22.1860   36.9180 N   0  0  0  0  0  0  0  0  0  0  0  0
   36.9994   22.3386   31.8738 H   0  0  0  0  0  0  0  0  0  0  0  0
   35.1822   20.6690   32.4308 H   0  0  0  0  0  0  0  0  0  0  0  0
   34.8886   19.9148   34.7881 H   0  0  0  0  0  0  0  0  0  0  0  0
   36.3582   20.7868   36.5847 H   0  0  0  0  0  0  0  0  0  0  0  0
   37.3216   25.0874   33.9257 H   0  0  0  0  0  0  0  0  0  0  0  0
   40.2199   21.9449   33.2187 H   0  0  0  0  0  0  0  0  0  0  0  0
   41.2853   26.0390   32.7054 H   0  0  0  0  0  0  0  0  0  0  0  0
   36.6028   23.6463   37.4699 H   0  0  0  0  0  0  0  0  0  0  0  0
   38.4586   24.0007   39.4013 H   0  0  0  0  0  0  0  0  0  0  0  0
   40.5617   22.7202   38.6233 H   0  0  0  0  0  0  0  0  0  0  0  0
  1  6  2  0
  2  3  2  0
  2  1  1  0
  3  4  1  0
  4  5  2  0
  6  5  1  0
  6 13  1  0
  8  7  2  0
  8  1  1  0
  9  8  1  0
 10 11  1  0
 10  9  2  0
 11 12  2  0
 12  7  1  0
 13 17  2  0
 13 14  1  0
 14 15  2  0
 16 15  1  0
 17 16  1  0
  2 18  1  0
  3 19  1  0
  4 20  1  0
  5 21  1  0
  7 22  1  0
  9 23  1  0
 11 24  1  0
 14 25  1  0
 15 26  1  0
 16 27  1  0
M  ISO  8  18  14  19  14  20  14  21  14  22  14  23  14  24  14  25  14
M  ISO  2  26  14  27   9
M  END
>  <minimizedAffinity>  (1) 
-4.401546

>  <minimizedRMSD>  (1) 
3.29424167

$$$$
