
     RDKit          3D

 32 34  0  0  0  0  0  0  0  0999 V2000
   39.5590   25.5800   34.3420 C   0  0  0  0  0  0  0  0  0  0  0  0
   40.6630   26.3150   34.7660 C   0  0  0  0  0  0  0  0  0  0  0  0
   41.1930   27.1860   33.8290 C   0  0  0  0  0  0  0  0  0  0  0  0
   40.6300   27.2880   32.5570 C   0  0  0  0  0  0  0  0  0  0  0  0
   39.5340   26.5270   32.2010 C   0  0  0  0  0  0  0  0  0  0  0  0
   38.9780   25.6490   33.1080 C   0  0  0  0  0  0  0  0  0  0  0  0
   37.9810   25.1750   36.1900 C   0  0  0  0  0  0  0  0  0  0  0  0
   38.9980   24.6810   35.3170 C   0  0  0  0  0  0  0  0  0  0  0  0
   39.3870   23.3700   35.4590 C   0  0  0  0  0  0  0  0  0  0  0  0
   38.8210   22.5740   36.3970 N   0  0  0  0  0  0  0  0  0  0  0  0
   37.8450   23.0690   37.2260 C   0  0  0  0  0  0  0  0  0  0  0  0
   37.4290   24.3690   37.1190 N   0  0  0  0  0  0  0  0  0  0  0  0
   37.8950   25.0010   32.4900 N   0  0  0  0  0  0  0  0  0  0  0  0
   36.5820   25.6550   32.2740 C   0  0  0  0  0  0  0  0  0  0  0  0
   35.7940   24.7510   31.3860 C   0  0  0  0  0  0  0  0  0  0  0  0
   36.2990   23.3770   31.8280 C   0  0  0  0  0  0  0  0  0  0  0  0
   37.7940   23.6410   31.9730 C   0  0  0  0  0  0  0  0  0  0  0  0
   41.0853   26.2109   35.7763 H   0  0  0  0  0  0  0  0  0  0  0  0
   42.0656   27.8028   34.0901 H   0  0  0  0  0  0  0  0  0  0  0  0
   41.0656   27.9853   31.8262 H   0  0  0  0  0  0  0  0  0  0  0  0
   39.1039   26.6211   31.1930 H   0  0  0  0  0  0  0  0  0  0  0  0
   37.6463   26.2193   36.1037 H   0  0  0  0  0  0  0  0  0  0  0  0
   40.1689   22.9620   34.8015 H   0  0  0  0  0  0  0  0  0  0  0  0
   37.3921   22.4138   37.9847 H   0  0  0  0  0  0  0  0  0  0  0  0
   36.0630   25.7898   33.2344 H   0  0  0  0  0  0  0  0  0  0  0  0
   36.7049   26.6487   31.8185 H   0  0  0  0  0  0  0  0  0  0  0  0
   36.0140   24.9380   30.3246 H   0  0  0  0  0  0  0  0  0  0  0  0
   34.7045   24.8774   31.4692 H   0  0  0  0  0  0  0  0  0  0  0  0
   35.8494   23.0711   32.7842 H   0  0  0  0  0  0  0  0  0  0  0  0
   36.0508   22.5609   31.1335 H   0  0  0  0  0  0  0  0  0  0  0  0
   38.2452   22.9264   32.6771 H   0  0  0  0  0  0  0  0  0  0  0  0
   38.3261   23.5244   31.0174 H   0  0  0  0  0  0  0  0  0  0  0  0
  1  2  2  0
  1  8  1  0
  3  2  1  0
  4  3  2  0
  5  4  1  0
  5  6  2  0
  6  1  1  0
  7 12  2  0
  8  9  2  0
  8  7  1  0
  9 10  1  0
 10 11  2  0
 12 11  1  0
 13  6  1  0
 14 13  1  0
 15 16  1  0
 15 14  1  0
 16 17  1  0
 17 13  1  0
  2 18  1  0
  3 19  1  0
  4 20  1  0
  5 21  1  0
  7 22  1  0
  9 23  1  0
 11 24  1  0
 14 25  1  0
 14 26  1  0
 15 27  1  0
 15 28  1  0
 16 29  1  0
 16 30  1  0
 17 31  1  0
 17 32  1  0
M  ISO  8  18  14  19  14  20  14  21  14  22  14  23  14  24  14  25  13
M  ISO  7  26  13  27  13  28  13  29  13  30  13  31  13  32  13
M  END
>  <minimizedAffinity>  (1) 
-4.39505339

>  <minimizedRMSD>  (1) 
5.72125673

$$$$
