
     RDKit          3D

 23 24  0  0  0  0  0  0  0  0999 V2000
   37.0100   21.8220   33.2480 C   0  0  0  0  0  0  0  0  0  0  0  0
   37.2050   21.9650   31.8650 C   0  0  0  0  0  0  0  0  0  0  0  0
   36.3670   21.1920   31.0580 C   0  0  0  0  0  0  0  0  0  0  0  0
   35.4170   20.3510   31.6450 C   0  0  0  0  0  0  0  0  0  0  0  0
   35.2870   20.2690   33.0310 C   0  0  0  0  0  0  0  0  0  0  0  0
   36.0950   21.0180   33.8720 C   0  0  0  0  0  0  0  0  0  0  0  0
   37.7710   24.0300   34.0460 C   0  0  0  0  0  0  0  0  0  0  0  0
   37.9060   22.6060   34.0660 C   0  0  0  0  0  0  0  0  0  0  0  0
   38.8970   22.0290   34.8690 C   0  0  0  0  0  0  0  0  0  0  0  0
   39.6990   22.8430   35.6070 N   0  0  0  0  0  0  0  0  0  0  0  0
   39.5530   24.2120   35.5740 C   0  0  0  0  0  0  0  0  0  0  0  0
   38.5900   24.8040   34.7930 N   0  0  0  0  0  0  0  0  0  0  0  0
   35.7660   20.8340   35.2910 C   0  0  0  0  0  0  0  0  0  0  0  0
   37.9658   22.6397   31.4456 H   0  0  0  0  0  0  0  0  0  0  0  0
   36.4544   21.2449   29.9628 H   0  0  0  0  0  0  0  0  0  0  0  0
   34.7614   19.7441   31.0032 H   0  0  0  0  0  0  0  0  0  0  0  0
   34.5303   19.5984   33.4643 H   0  0  0  0  0  0  0  0  0  0  0  0
   36.9970   24.4976   33.4197 H   0  0  0  0  0  0  0  0  0  0  0  0
   39.0249   20.9370   34.9026 H   0  0  0  0  0  0  0  0  0  0  0  0
   40.2183   24.8418   36.1829 H   0  0  0  0  0  0  0  0  0  0  0  0
   36.5586   21.2773   35.9116 H   0  0  0  0  0  0  0  0  0  0  0  0
   34.8080   21.3273   35.5122 H   0  0  0  0  0  0  0  0  0  0  0  0
   35.6848   19.7595   35.5122 H   0  0  0  0  0  0  0  0  0  0  0  0
  1  6  1  0
  1  8  1  0
  2  1  2  0
  3  4  2  0
  3  2  1  0
  4  5  1  0
  5  6  2  0
  6 13  1  0
  7  8  2  0
  7 12  1  0
  8  9  1  0
  9 10  2  0
 11 10  1  0
 12 11  2  0
  2 14  1  0
  3 15  1  0
  4 16  1  0
  5 17  1  0
  7 18  1  0
  9 19  1  0
 11 20  1  0
 13 21  1  0
 13 22  1  0
 13 23  1  0
M  ISO  8  14  14  15  14  16  14  17  14  18  14  19  14  20  14  21   8
M  ISO  2  22   8  23   8
M  END
>  <minimizedAffinity>  (1) 
-3.57128358

>  <minimizedRMSD>  (1) 
0.586718559

$$$$
