
     RDKit          3D

 33 35  0  0  0  0  0  0  0  0999 V2000
   38.9000   26.8690   33.5850 C   0  0  0  0  0  0  0  0  0  0  0  0
   38.5120   27.4450   32.3730 C   0  0  0  0  0  0  0  0  0  0  0  0
   37.2550   28.0210   32.3460 C   0  0  0  0  0  0  0  0  0  0  0  0
   36.4660   28.0040   33.4800 C   0  0  0  0  0  0  0  0  0  0  0  0
   36.9240   27.4160   34.6330 C   0  0  0  0  0  0  0  0  0  0  0  0
   38.1760   26.8190   34.7260 C   0  0  0  0  0  0  0  0  0  0  0  0
   41.3300   27.1440   33.9550 C   0  0  0  0  0  0  0  0  0  0  0  0
   40.2270   26.2800   33.5910 C   0  0  0  0  0  0  0  0  0  0  0  0
   40.5180   24.9920   33.2890 C   0  0  0  0  0  0  0  0  0  0  0  0
   41.7880   24.5310   33.3240 N   0  0  0  0  0  0  0  0  0  0  0  0
   42.8110   25.3630   33.6690 C   0  0  0  0  0  0  0  0  0  0  0  0
   42.5880   26.6620   33.9830 N   0  0  0  0  0  0  0  0  0  0  0  0
   38.3780   26.2580   36.0750 C   0  0  0  0  0  0  0  0  0  0  0  0
   37.6590   24.9260   36.2710 C   0  0  0  0  0  0  0  0  0  0  0  0
   38.5160   23.9950   37.0490 C   0  0  0  0  0  0  0  0  0  0  0  0
   39.6410   23.3990   36.5180 C   0  0  0  0  0  0  0  0  0  0  0  0
   40.1920   22.6010   37.5120 C   0  0  0  0  0  0  0  0  0  0  0  0
   39.4060   22.7300   38.5970 N   0  0  0  0  0  0  0  0  0  0  0  0
   38.4000   23.5610   38.3330 N   0  0  0  0  0  0  0  0  0  0  0  0
   39.1687   27.4407   31.4905 H   0  0  0  0  0  0  0  0  0  0  0  0
   36.8841   28.4917   31.4236 H   0  0  0  0  0  0  0  0  0  0  0  0
   35.4668   28.4635   33.4590 H   0  0  0  0  0  0  0  0  0  0  0  0
   36.2733   27.4173   35.5199 H   0  0  0  0  0  0  0  0  0  0  0  0
   41.1406   28.1973   34.2095 H   0  0  0  0  0  0  0  0  0  0  0  0
   39.7039   24.3071   33.0095 H   0  0  0  0  0  0  0  0  0  0  0  0
   43.8388   24.9718   33.6930 H   0  0  0  0  0  0  0  0  0  0  0  0
   39.4554   26.1035   36.2345 H   0  0  0  0  0  0  0  0  0  0  0  0
   37.9588   26.9723   36.7989 H   0  0  0  0  0  0  0  0  0  0  0  0
   36.7186   25.0965   36.8156 H   0  0  0  0  0  0  0  0  0  0  0  0
   37.4456   24.4830   35.2870 H   0  0  0  0  0  0  0  0  0  0  0  0
   40.0293   23.5312   35.4973 H   0  0  0  0  0  0  0  0  0  0  0  0
   41.0975   21.9820   37.4286 H   0  0  0  0  0  0  0  0  0  0  0  0
   39.5601   22.2559   39.4983 H   0  0  0  0  0  0  0  0  0  0  0  0
  1  8  1  0
  1  6  1  0
  2  1  2  0
  3  2  1  0
  3  4  2  0
  4  5  1  0
  5  6  2  0
  6 13  1  0
  7 12  2  0
  8  7  1  0
  9 10  1  0
  9  8  2  0
 10 11  2  0
 11 12  1  0
 13 14  1  0
 14 15  1  0
 15 19  2  0
 16 15  1  0
 16 17  2  0
 17 18  1  0
 19 18  1  0
  2 20  1  0
  3 21  1  0
  4 22  1  0
  5 23  1  0
  7 24  1  0
  9 25  1  0
 11 26  1  0
 13 27  1  0
 13 28  1  0
 14 29  1  0
 14 30  1  0
 16 31  1  0
 17 32  1  0
 18 33  1  0
M  ISO  8  20  14  21  14  22  14  23  14  24  14  25  14  26  14  27   8
M  ISO  6  28   8  29   8  30   8  31  14  32  14  33   9
M  END
>  <minimizedAffinity>  (1) 
-5.14016485

>  <minimizedRMSD>  (1) 
1.3278538

$$$$
