
     RDKit          3D

 34 36  0  0  0  0  0  0  0  0999 V2000
   39.0340   27.0880   33.1210 C   0  0  0  0  0  0  0  0  0  0  0  0
   38.7330   27.4770   31.8140 C   0  0  0  0  0  0  0  0  0  0  0  0
   37.4840   28.0390   31.6120 C   0  0  0  0  0  0  0  0  0  0  0  0
   36.6230   28.1840   32.6820 C   0  0  0  0  0  0  0  0  0  0  0  0
   36.9990   27.7730   33.9430 C   0  0  0  0  0  0  0  0  0  0  0  0
   38.2340   27.2030   34.2080 C   0  0  0  0  0  0  0  0  0  0  0  0
   41.4250   27.4190   33.6520 C   0  0  0  0  0  0  0  0  0  0  0  0
   40.3550   26.5100   33.2980 C   0  0  0  0  0  0  0  0  0  0  0  0
   40.6550   25.1970   33.1580 C   0  0  0  0  0  0  0  0  0  0  0  0
   41.9140   24.7400   33.3410 N   0  0  0  0  0  0  0  0  0  0  0  0
   42.9170   25.6190   33.6770 C   0  0  0  0  0  0  0  0  0  0  0  0
   42.6810   26.9640   33.8350 N   0  0  0  0  0  0  0  0  0  0  0  0
   38.3530   26.8590   35.6360 C   0  0  0  0  0  0  0  0  0  0  0  0
   37.5060   25.6770   36.0390 C   0  0  0  0  0  0  0  0  0  0  0  0
   38.2450   24.6600   36.8020 C   0  0  0  0  0  0  0  0  0  0  0  0
   38.0040   24.2950   38.1110 C   0  0  0  0  0  0  0  0  0  0  0  0
   38.8300   23.3120   38.6170 C   0  0  0  0  0  0  0  0  0  0  0  0
   39.8070   22.7170   37.9430 N   0  0  0  0  0  0  0  0  0  0  0  0
   40.0150   23.1030   36.6520 C   0  0  0  0  0  0  0  0  0  0  0  0
   39.2340   24.0540   36.1270 N   0  0  0  0  0  0  0  0  0  0  0  0
   39.4493   27.3441   30.9898 H   0  0  0  0  0  0  0  0  0  0  0  0
   37.1798   28.3674   30.6072 H   0  0  0  0  0  0  0  0  0  0  0  0
   35.6298   28.6307   32.5269 H   0  0  0  0  0  0  0  0  0  0  0  0
   36.2893   27.9029   34.7733 H   0  0  0  0  0  0  0  0  0  0  0  0
   41.2111   28.4912   33.7728 H   0  0  0  0  0  0  0  0  0  0  0  0
   39.8580   24.4878   32.8899 H   0  0  0  0  0  0  0  0  0  0  0  0
   43.9372   25.2348   33.8235 H   0  0  0  0  0  0  0  0  0  0  0  0
   39.4057   26.6236   35.8517 H   0  0  0  0  0  0  0  0  0  0  0  0
   37.9955   27.7263   36.2104 H   0  0  0  0  0  0  0  0  0  0  0  0
   36.6731   26.0405   36.6588 H   0  0  0  0  0  0  0  0  0  0  0  0
   37.1575   25.1972   35.1125 H   0  0  0  0  0  0  0  0  0  0  0  0
   37.2064   24.7570   38.7113 H   0  0  0  0  0  0  0  0  0  0  0  0
   38.6664   22.9974   39.6583 H   0  0  0  0  0  0  0  0  0  0  0  0
   40.8121   22.6400   36.0518 H   0  0  0  0  0  0  0  0  0  0  0  0
  1  8  1  0
  1  6  1  0
  2  1  2  0
  3  2  1  0
  3  4  2  0
  4  5  1  0
  5  6  2  0
  6 13  1  0
  7 12  2  0
  8  7  1  0
  9  8  2  0
  9 10  1  0
 10 11  2  0
 11 12  1  0
 13 14  1  0
 14 15  1  0
 15 16  2  0
 16 17  1  0
 18 17  2  0
 19 18  1  0
 20 19  2  0
 20 15  1  0
  2 21  1  0
  3 22  1  0
  4 23  1  0
  5 24  1  0
  7 25  1  0
  9 26  1  0
 11 27  1  0
 13 28  1  0
 13 29  1  0
 14 30  1  0
 14 31  1  0
 16 32  1  0
 17 33  1  0
 19 34  1  0
M  ISO  8  21  14  22  14  23  14  24  14  25  14  26  14  27  14  28   8
M  ISO  6  29   8  30   8  31   8  32  14  33  14  34  14
M  END
>  <minimizedAffinity>  (1) 
-4.94635153

>  <minimizedRMSD>  (1) 
1.45300567

$$$$
