
     RDKit          3D

 33 35  0  0  0  0  0  0  0  0999 V2000
   39.3090   26.9370   33.3270 C   0  0  0  0  0  0  0  0  0  0  0  0
   39.1230   27.3040   31.9970 C   0  0  0  0  0  0  0  0  0  0  0  0
   37.8880   27.8370   31.6660 C   0  0  0  0  0  0  0  0  0  0  0  0
   36.9250   27.9730   32.6520 C   0  0  0  0  0  0  0  0  0  0  0  0
   37.1910   27.5830   33.9480 C   0  0  0  0  0  0  0  0  0  0  0  0
   38.4070   27.0460   34.3310 C   0  0  0  0  0  0  0  0  0  0  0  0
   41.7260   27.3120   33.6890 C   0  0  0  0  0  0  0  0  0  0  0  0
   40.6120   26.3900   33.6370 C   0  0  0  0  0  0  0  0  0  0  0  0
   40.8880   25.0880   33.8840 C   0  0  0  0  0  0  0  0  0  0  0  0
   42.1320   24.6550   34.1660 N   0  0  0  0  0  0  0  0  0  0  0  0
   43.1720   25.5650   34.2080 C   0  0  0  0  0  0  0  0  0  0  0  0
   42.9740   26.9040   33.9690 N   0  0  0  0  0  0  0  0  0  0  0  0
   38.4100   26.7200   35.7660 C   0  0  0  0  0  0  0  0  0  0  0  0
   37.5380   25.5440   36.1230 C   0  0  0  0  0  0  0  0  0  0  0  0
   38.1880   24.5700   37.0300 C   0  0  0  0  0  0  0  0  0  0  0  0
   37.9730   24.3240   38.3700 C   0  0  0  0  0  0  0  0  0  0  0  0
   38.8460   23.3070   38.7420 C   0  0  0  0  0  0  0  0  0  0  0  0
   39.5540   22.9900   37.5780 C   0  0  0  0  0  0  0  0  0  0  0  0
   39.1270   23.7600   36.6060 O   0  0  0  0  0  0  0  0  0  0  0  0
   39.9171   27.1771   31.2465 H   0  0  0  0  0  0  0  0  0  0  0  0
   37.6748   28.1484   30.6328 H   0  0  0  0  0  0  0  0  0  0  0  0
   35.9410   28.3950   32.3998 H   0  0  0  0  0  0  0  0  0  0  0  0
   36.4046   27.7038   34.7076 H   0  0  0  0  0  0  0  0  0  0  0  0
   41.5449   28.3792   33.4932 H   0  0  0  0  0  0  0  0  0  0  0  0
   40.0666   24.3570   33.8533 H   0  0  0  0  0  0  0  0  0  0  0  0
   44.1863   25.2074   34.4391 H   0  0  0  0  0  0  0  0  0  0  0  0
   39.4427   26.4906   36.0676 H   0  0  0  0  0  0  0  0  0  0  0  0
   38.0021   27.5942   36.2946 H   0  0  0  0  0  0  0  0  0  0  0  0
   36.6297   25.9226   36.6145 H   0  0  0  0  0  0  0  0  0  0  0  0
   37.3194   25.0116   35.1856 H   0  0  0  0  0  0  0  0  0  0  0  0
   37.2485   24.8351   39.0211 H   0  0  0  0  0  0  0  0  0  0  0  0
   38.9559   22.8506   39.7368 H   0  0  0  0  0  0  0  0  0  0  0  0
   40.3379   22.2231   37.4922 H   0  0  0  0  0  0  0  0  0  0  0  0
  1  8  1  0
  1  6  1  0
  2  1  2  0
  3  2  1  0
  3  4  2  0
  4  5  1  0
  5  6  2  0
  6 13  1  0
  7 12  2  0
  8  7  1  0
  8  9  2  0
  9 10  1  0
 10 11  2  0
 12 11  1  0
 13 14  1  0
 14 15  1  0
 15 16  2  0
 16 17  1  0
 18 17  2  0
 19 15  1  0
 19 18  1  0
  2 20  1  0
  3 21  1  0
  4 22  1  0
  5 23  1  0
  7 24  1  0
  9 25  1  0
 11 26  1  0
 13 27  1  0
 13 28  1  0
 14 29  1  0
 14 30  1  0
 16 31  1  0
 17 32  1  0
 18 33  1  0
M  ISO  8  20  14  21  14  22  14  23  14  24  14  25  14  26  14  27   8
M  ISO  6  28   8  29   8  30   8  31  14  32  14  33  14
M  END
>  <minimizedAffinity>  (1) 
-4.92127752

>  <minimizedRMSD>  (1) 
1.14328027

$$$$
