
     RDKit          3D

 39 41  0  0  0  0  0  0  0  0999 V2000
   39.5760   26.9290   34.3390 C   0  0  0  0  0  0  0  0  0  0  0  0
   39.0770   27.2240   35.6080 C   0  0  0  0  0  0  0  0  0  0  0  0
   37.7400   27.5640   35.6680 C   0  0  0  0  0  0  0  0  0  0  0  0
   36.9750   27.5990   34.5190 C   0  0  0  0  0  0  0  0  0  0  0  0
   37.5550   27.2920   33.3100 C   0  0  0  0  0  0  0  0  0  0  0  0
   38.8910   26.9430   33.1750 C   0  0  0  0  0  0  0  0  0  0  0  0
   41.3560   25.2960   34.8980 C   0  0  0  0  0  0  0  0  0  0  0  0
   40.9800   26.5620   34.3060 C   0  0  0  0  0  0  0  0  0  0  0  0
   41.9750   27.3040   33.7620 C   0  0  0  0  0  0  0  0  0  0  0  0
   43.2570   26.8850   33.7700 N   0  0  0  0  0  0  0  0  0  0  0  0
   43.5830   25.6840   34.3360 C   0  0  0  0  0  0  0  0  0  0  0  0
   42.6390   24.8910   34.8980 N   0  0  0  0  0  0  0  0  0  0  0  0
   39.2170   26.6900   31.7600 C   0  0  0  0  0  0  0  0  0  0  0  0
   38.0610   27.0250   30.8200 C   0  0  0  0  0  0  0  0  0  0  0  0
   38.4310   28.2620   30.1560 N   0  0  0  0  0  0  0  0  0  0  0  0
   39.7020   28.4550   29.7550 C   0  0  0  0  0  0  0  0  0  0  0  0
   39.9530   29.6500   29.1390 C   0  0  0  0  0  0  0  0  0  0  0  0
   41.3510   29.9290   28.6660 C   0  0  0  0  0  0  0  0  0  0  0  0
   38.9570   30.5920   28.9450 C   0  0  0  0  0  0  0  0  0  0  0  0
   39.2230   31.6660   28.3820 O   0  0  0  0  0  0  0  0  0  0  0  0
   37.6850   30.3710   29.3610 N   0  0  0  0  0  0  0  0  0  0  0  0
   37.4710   29.1850   29.9630 C   0  0  0  0  0  0  0  0  0  0  0  0
   36.2880   28.9350   30.3690 O   0  0  0  0  0  0  0  0  0  0  0  0
   39.7104   27.1879   36.5066 H   0  0  0  0  0  0  0  0  0  0  0  0
   37.2814   27.8086   36.6375 H   0  0  0  0  0  0  0  0  0  0  0  0
   35.9102   27.8702   34.5700 H   0  0  0  0  0  0  0  0  0  0  0  0
   36.9290   27.3248   32.4061 H   0  0  0  0  0  0  0  0  0  0  0  0
   40.5842   24.6578   35.3530 H   0  0  0  0  0  0  0  0  0  0  0  0
   41.7308   28.2729   33.3021 H   0  0  0  0  0  0  0  0  0  0  0  0
   44.6326   25.3549   34.3351 H   0  0  0  0  0  0  0  0  0  0  0  0
   40.0854   27.3059   31.4833 H   0  0  0  0  0  0  0  0  0  0  0  0
   39.4301   25.6160   31.6550 H   0  0  0  0  0  0  0  0  0  0  0  0
   37.9234   26.2212   30.0817 H   0  0  0  0  0  0  0  0  0  0  0  0
   37.1132   27.1298   31.3683 H   0  0  0  0  0  0  0  0  0  0  0  0
   40.4870   27.7008   29.9126 H   0  0  0  0  0  0  0  0  0  0  0  0
   42.0126   30.0610   29.5349 H   0  0  0  0  0  0  0  0  0  0  0  0
   41.7079   29.0844   28.0584 H   0  0  0  0  0  0  0  0  0  0  0  0
   41.3564   30.8459   28.0584 H   0  0  0  0  0  0  0  0  0  0  0  0
   36.9340   31.0628   29.2258 H   0  0  0  0  0  0  0  0  0  0  0  0
  1  2  2  0
  2  3  1  0
  4  3  2  0
  5  4  1  0
  6  5  2  0
  6  1  1  0
  8  1  1  0
  8  7  2  0
  9 10  2  0
  9  8  1  0
 10 11  1  0
 11 12  2  0
 12  7  1  0
 13  6  1  0
 14 13  1  0
 15 14  1  0
 16 15  1  0
 17 16  2  0
 18 17  1  0
 19 17  1  0
 19 21  1  0
 20 19  2  0
 21 22  1  0
 22 15  1  0
 22 23  2  0
  2 24  1  0
  3 25  1  0
  4 26  1  0
  5 27  1  0
  7 28  1  0
  9 29  1  0
 11 30  1  0
 13 31  1  0
 13 32  1  0
 14 33  1  0
 14 34  1  0
 16 35  1  0
 18 36  1  0
 18 37  1  0
 18 38  1  0
 21 39  1  0
M  ISO  8  24  14  25  14  26  14  27  14  28  14  29  14  30  14  31   8
M  ISO  8  32   8  33   8  34   8  35  14  36   8  37   8  38   8  39   9
M  END
>  <minimizedAffinity>  (1) 
-4.87439919

>  <minimizedRMSD>  (1) 
7.5297327

$$$$
