
     RDKit          3D

 32 34  0  0  0  0  0  0  0  0999 V2000
   39.1990   26.9040   33.3900 C   0  0  0  0  0  0  0  0  0  0  0  0
   38.9240   27.3730   32.1040 C   0  0  0  0  0  0  0  0  0  0  0  0
   37.6750   27.9280   31.9070 C   0  0  0  0  0  0  0  0  0  0  0  0
   36.7770   27.9950   32.9540 C   0  0  0  0  0  0  0  0  0  0  0  0
   37.1260   27.5070   34.1930 C   0  0  0  0  0  0  0  0  0  0  0  0
   38.3660   26.9380   34.4570 C   0  0  0  0  0  0  0  0  0  0  0  0
   41.6180   27.2670   33.7600 C   0  0  0  0  0  0  0  0  0  0  0  0
   40.5220   26.3370   33.5700 C   0  0  0  0  0  0  0  0  0  0  0  0
   40.8160   25.0150   33.5770 C   0  0  0  0  0  0  0  0  0  0  0  0
   42.0810   24.5770   33.7560 N   0  0  0  0  0  0  0  0  0  0  0  0
   43.0990   25.4660   33.9340 C   0  0  0  0  0  0  0  0  0  0  0  0
   42.8710   26.8020   33.9360 N   0  0  0  0  0  0  0  0  0  0  0  0
   38.4450   26.4960   35.8600 C   0  0  0  0  0  0  0  0  0  0  0  0
   37.5180   25.3200   36.1580 C   0  0  0  0  0  0  0  0  0  0  0  0
   38.2630   24.4060   37.0060 N   0  0  0  0  0  0  0  0  0  0  0  0
   38.0540   24.1860   38.3300 C   0  0  0  0  0  0  0  0  0  0  0  0
   38.9390   23.2630   38.8080 N   0  0  0  0  0  0  0  0  0  0  0  0
   39.6770   22.9480   37.7250 C   0  0  0  0  0  0  0  0  0  0  0  0
   39.2660   23.6370   36.6500 N   0  0  0  0  0  0  0  0  0  0  0  0
   39.6624   27.3041   31.2916 H   0  0  0  0  0  0  0  0  0  0  0  0
   37.3955   28.3165   30.9166 H   0  0  0  0  0  0  0  0  0  0  0  0
   35.7825   28.4384   32.7979 H   0  0  0  0  0  0  0  0  0  0  0  0
   36.3915   27.5702   35.0094 H   0  0  0  0  0  0  0  0  0  0  0  0
   41.4273   28.3504   33.7605 H   0  0  0  0  0  0  0  0  0  0  0  0
   40.0077   24.2828   33.4339 H   0  0  0  0  0  0  0  0  0  0  0  0
   44.1235   25.0925   34.0785 H   0  0  0  0  0  0  0  0  0  0  0  0
   39.4800   26.1923   36.0760 H   0  0  0  0  0  0  0  0  0  0  0  0
   38.1289   27.3382   36.4930 H   0  0  0  0  0  0  0  0  0  0  0  0
   36.6157   25.6713   36.6800 H   0  0  0  0  0  0  0  0  0  0  0  0
   37.1957   24.8251   35.2300 H   0  0  0  0  0  0  0  0  0  0  0  0
   37.2795   24.6824   38.9331 H   0  0  0  0  0  0  0  0  0  0  0  0
   40.5048   22.2236   37.7230 H   0  0  0  0  0  0  0  0  0  0  0  0
  1  8  1  0
  1  6  1  0
  2  1  2  0
  3  2  1  0
  3  4  2  0
  4  5  1  0
  5  6  2  0
  6 13  1  0
  7 12  2  0
  8  9  2  0
  8  7  1  0
  9 10  1  0
 10 11  2  0
 11 12  1  0
 13 14  1  0
 14 15  1  0
 15 16  1  0
 16 17  2  0
 18 17  1  0
 19 15  1  0
 19 18  2  0
  2 20  1  0
  3 21  1  0
  4 22  1  0
  5 23  1  0
  7 24  1  0
  9 25  1  0
 11 26  1  0
 13 27  1  0
 13 28  1  0
 14 29  1  0
 14 30  1  0
 16 31  1  0
 18 32  1  0
M  ISO  8  20  14  21  14  22  14  23  14  24  14  25  14  26  14  27   8
M  ISO  5  28   8  29   8  30   8  31  14  32  14
M  END
>  <minimizedAffinity>  (1) 
-4.56247234

>  <minimizedRMSD>  (1) 
1.20148301

$$$$
