
     RDKit          3D

 27 28  0  0  0  0  0  0  0  0999 V2000
   38.8920   26.9660   33.6460 C   0  0  0  0  0  0  0  0  0  0  0  0
   38.5000   27.4130   32.3830 C   0  0  0  0  0  0  0  0  0  0  0  0
   37.2520   28.0000   32.3050 C   0  0  0  0  0  0  0  0  0  0  0  0
   36.4690   28.1160   33.4370 C   0  0  0  0  0  0  0  0  0  0  0  0
   36.9340   27.6460   34.6470 C   0  0  0  0  0  0  0  0  0  0  0  0
   38.1810   27.0460   34.7930 C   0  0  0  0  0  0  0  0  0  0  0  0
   41.3420   27.2410   33.9010 C   0  0  0  0  0  0  0  0  0  0  0  0
   40.2110   26.3600   33.6970 C   0  0  0  0  0  0  0  0  0  0  0  0
   40.4670   25.0360   33.5670 C   0  0  0  0  0  0  0  0  0  0  0  0
   41.7170   24.5500   33.6240 N   0  0  0  0  0  0  0  0  0  0  0  0
   42.7800   25.4110   33.8200 C   0  0  0  0  0  0  0  0  0  0  0  0
   42.5930   26.7460   33.9570 N   0  0  0  0  0  0  0  0  0  0  0  0
   38.3940   26.6370   36.1930 C   0  0  0  0  0  0  0  0  0  0  0  0
   38.0390   25.1820   36.4480 C   0  0  0  0  0  0  0  0  0  0  0  0
   38.0590   24.8760   37.8030 O   0  0  0  0  0  0  0  0  0  0  0  0
   39.1477   27.3041   31.5006 H   0  0  0  0  0  0  0  0  0  0  0  0
   36.8812   28.3756   31.3399 H   0  0  0  0  0  0  0  0  0  0  0  0
   35.4751   28.5830   33.3732 H   0  0  0  0  0  0  0  0  0  0  0  0
   36.2922   27.7497   35.5343 H   0  0  0  0  0  0  0  0  0  0  0  0
   41.1779   28.3231   34.0111 H   0  0  0  0  0  0  0  0  0  0  0  0
   39.6287   24.3411   33.4107 H   0  0  0  0  0  0  0  0  0  0  0  0
   43.8007   25.0035   33.8658 H   0  0  0  0  0  0  0  0  0  0  0  0
   39.4541   26.7883   36.4448 H   0  0  0  0  0  0  0  0  0  0  0  0
   37.7308   27.2517   36.8194 H   0  0  0  0  0  0  0  0  0  0  0  0
   37.0307   24.9871   36.0538 H   0  0  0  0  0  0  0  0  0  0  0  0
   38.7886   24.5538   35.9445 H   0  0  0  0  0  0  0  0  0  0  0  0
   38.0044   25.7117   38.3309 H   0  0  0  0  0  0  0  0  0  0  0  0
  1  8  1  0
  1  6  1  0
  2  1  2  0
  3  2  1  0
  3  4  2  0
  4  5  1  0
  5  6  2  0
  6 13  1  0
  7 12  2  0
  8  7  1  0
  9 10  1  0
  9  8  2  0
 10 11  2  0
 11 12  1  0
 13 14  1  0
 14 15  1  0
  2 16  1  0
  3 17  1  0
  4 18  1  0
  5 19  1  0
  7 20  1  0
  9 21  1  0
 11 22  1  0
 13 23  1  0
 13 24  1  0
 14 25  1  0
 14 26  1  0
 15 27  1  0
M  ISO  8  16  14  17  14  18  14  19  14  20  14  21  14  22  14  23   8
M  ISO  4  24   8  25   8  26   8  27   3
M  END
>  <minimizedAffinity>  (1) 
-3.78675723

>  <minimizedRMSD>  (1) 
0.195998222

$$$$
