
     RDKit          3D

 47 51  0  0  0  0  0  0  0  0999 V2000
   38.3830   22.7770   33.4770 C   0  0  0  0  0  0  0  0  0  0  0  0
   36.3000   23.0550   31.9620 C   0  0  0  0  0  0  0  0  0  0  0  0
   35.3950   23.8650   31.2940 C   0  0  0  0  0  0  0  0  0  0  0  0
   35.5840   25.2320   31.4180 C   0  0  0  0  0  0  0  0  0  0  0  0
   36.6250   25.7140   32.1720 C   0  0  0  0  0  0  0  0  0  0  0  0
   37.4710   24.8610   32.7980 C   0  0  0  0  0  0  0  0  0  0  0  0
   37.3370   23.4990   32.7140 C   0  0  0  0  0  0  0  0  0  0  0  0
   36.9670   20.9490   30.8480 C   0  0  0  0  0  0  0  0  0  0  0  0
   36.0930   21.6220   31.8030 C   0  0  0  0  0  0  0  0  0  0  0  0
   35.1720   20.8990   32.4590 C   0  0  0  0  0  0  0  0  0  0  0  0
   35.0440   19.5730   32.2520 N   0  0  0  0  0  0  0  0  0  0  0  0
   35.8710   18.9430   31.3500 C   0  0  0  0  0  0  0  0  0  0  0  0
   36.8430   19.6300   30.6380 N   0  0  0  0  0  0  0  0  0  0  0  0
   37.8630   21.9680   34.6330 C   0  0  0  0  0  0  0  0  0  0  0  0
   37.9470   22.6320   35.8930 N   0  0  0  0  0  0  0  0  0  0  0  0
   36.9860   22.6240   36.8420 N   0  0  0  0  0  0  0  0  0  0  0  0
   37.3740   23.3800   37.8870 C   0  0  0  0  0  0  0  0  0  0  0  0
   38.6080   23.8420   37.5290 C   0  0  0  0  0  0  0  0  0  0  0  0
   38.9770   23.3650   36.2590 C   0  0  0  0  0  0  0  0  0  0  0  0
   40.2620   23.7450   35.7330 C   0  0  0  0  0  0  0  0  0  0  0  0
   41.4200   23.0150   35.6100 C   0  0  0  0  0  0  0  0  0  0  0  0
   42.4480   23.6170   34.9970 N   0  0  0  0  0  0  0  0  0  0  0  0
   41.9830   24.8370   34.6760 C   0  0  0  0  0  0  0  0  0  0  0  0
   42.6430   25.8560   34.0190 C   0  0  0  0  0  0  0  0  0  0  0  0
   41.9640   27.0280   33.7820 C   0  0  0  0  0  0  0  0  0  0  0  0
   40.6530   27.1800   34.1910 C   0  0  0  0  0  0  0  0  0  0  0  0
   40.1070   26.1100   34.8270 C   0  0  0  0  0  0  0  0  0  0  0  0
   40.6730   24.9060   35.1200 C   0  0  0  0  0  0  0  0  0  0  0  0
   39.0958   23.5176   33.8686 H   0  0  0  0  0  0  0  0  0  0  0  0
   38.8451   22.0642   32.7782 H   0  0  0  0  0  0  0  0  0  0  0  0
   34.5714   23.4453   30.6978 H   0  0  0  0  0  0  0  0  0  0  0  0
   34.9006   25.9303   30.9128 H   0  0  0  0  0  0  0  0  0  0  0  0
   36.7731   26.7997   32.2685 H   0  0  0  0  0  0  0  0  0  0  0  0
   38.2958   25.2763   33.3957 H   0  0  0  0  0  0  0  0  0  0  0  0
   37.7281   21.5237   30.2999 H   0  0  0  0  0  0  0  0  0  0  0  0
   34.5082   21.3984   33.1801 H   0  0  0  0  0  0  0  0  0  0  0  0
   35.7575   17.8608   31.1888 H   0  0  0  0  0  0  0  0  0  0  0  0
   36.8073   21.7273   34.4391 H   0  0  0  0  0  0  0  0  0  0  0  0
   38.4970   21.0719   34.7037 H   0  0  0  0  0  0  0  0  0  0  0  0
   36.8222   23.5798   38.8174 H   0  0  0  0  0  0  0  0  0  0  0  0
   39.2311   24.5005   38.1520 H   0  0  0  0  0  0  0  0  0  0  0  0
   41.4988   21.9878   35.9956 H   0  0  0  0  0  0  0  0  0  0  0  0
   43.3852   23.2314   34.8128 H   0  0  0  0  0  0  0  0  0  0  0  0
   43.6864   25.7334   33.6931 H   0  0  0  0  0  0  0  0  0  0  0  0
   42.4703   27.8539   33.2609 H   0  0  0  0  0  0  0  0  0  0  0  0
   40.0878   28.1068   34.0134 H   0  0  0  0  0  0  0  0  0  0  0  0
   39.0628   26.2334   35.1501 H   0  0  0  0  0  0  0  0  0  0  0  0
  1 14  1  0
  2  7  2  0
  3  4  2  0
  3  2  1  0
  4  5  1  0
  5  6  2  0
  7  6  1  0
  7  1  1  0
  8  9  2  0
  9  2  1  0
  9 10  1  0
 11 10  2  0
 12 11  1  0
 13  8  1  0
 13 12  2  0
 14 15  1  0
 15 19  1  0
 15 16  1  0
 16 17  2  0
 18 17  1  0
 19 18  2  0
 20 19  1  0
 21 20  2  0
 22 21  1  0
 23 22  1  0
 23 28  2  0
 24 23  1  0
 25 24  2  0
 25 26  1  0
 26 27  2  0
 27 28  1  0
 28 20  1  0
  1 29  1  0
  1 30  1  0
  3 31  1  0
  4 32  1  0
  5 33  1  0
  6 34  1  0
  8 35  1  0
 10 36  1  0
 12 37  1  0
 14 38  1  0
 14 39  1  0
 17 40  1  0
 18 41  1  0
 21 42  1  0
 22 43  1  0
 24 44  1  0
 25 45  1  0
 26 46  1  0
 27 47  1  0
M  ISO  8  29   8  30   8  31  14  32  14  33  14  34  14  35  14  36  14
M  ISO  8  37  14  38   8  39   8  40  14  41  14  42  14  43   9  44  14
M  ISO  3  45  14  46  14  47  14
M  END
>  <minimizedAffinity>  (1) 
-6.13508081

>  <minimizedRMSD>  (1) 
2.05286312

$$$$
