
     RDKit          3D

 46 49  0  0  0  0  0  0  0  0999 V2000
   38.5760   22.6440   33.8020 C   0  0  0  0  0  0  0  0  0  0  0  0
   36.4990   22.6160   32.2660 C   0  0  0  0  0  0  0  0  0  0  0  0
   35.5360   23.2930   31.5060 C   0  0  0  0  0  0  0  0  0  0  0  0
   35.6210   24.6640   31.4680 C   0  0  0  0  0  0  0  0  0  0  0  0
   36.6190   25.3020   32.1590 C   0  0  0  0  0  0  0  0  0  0  0  0
   37.5190   24.5780   32.8760 C   0  0  0  0  0  0  0  0  0  0  0  0
   37.4900   23.2000   32.9560 C   0  0  0  0  0  0  0  0  0  0  0  0
   37.2400   20.4350   31.3580 C   0  0  0  0  0  0  0  0  0  0  0  0
   36.3740   21.1600   32.2770 C   0  0  0  0  0  0  0  0  0  0  0  0
   35.5320   20.4660   33.0610 C   0  0  0  0  0  0  0  0  0  0  0  0
   35.4760   19.1310   33.0130 N   0  0  0  0  0  0  0  0  0  0  0  0
   36.2930   18.4450   32.1450 C   0  0  0  0  0  0  0  0  0  0  0  0
   37.1800   19.0960   31.3140 N   0  0  0  0  0  0  0  0  0  0  0  0
   38.0630   21.9100   35.0170 C   0  0  0  0  0  0  0  0  0  0  0  0
   38.1610   22.6600   36.2260 N   0  0  0  0  0  0  0  0  0  0  0  0
   37.1570   23.1750   36.9130 N   0  0  0  0  0  0  0  0  0  0  0  0
   37.6040   23.8210   37.9980 C   0  0  0  0  0  0  0  0  0  0  0  0
   38.9650   23.6790   37.9490 C   0  0  0  0  0  0  0  0  0  0  0  0
   39.3190   22.9420   36.8240 C   0  0  0  0  0  0  0  0  0  0  0  0
   40.6760   22.6400   36.5210 N   0  0  0  0  0  0  0  0  0  0  0  0
   41.2480   21.4790   36.9490 C   0  0  0  0  0  0  0  0  0  0  0  0
   42.5490   21.0880   36.7110 C   0  0  0  0  0  0  0  0  0  0  0  0
   43.0330   19.7920   37.2420 C   0  0  0  0  0  0  0  0  0  0  0  0
   43.3450   21.9390   35.9780 C   0  0  0  0  0  0  0  0  0  0  0  0
   44.5370   21.6220   35.7380 O   0  0  0  0  0  0  0  0  0  0  0  0
   42.7850   23.0830   35.5550 N   0  0  0  0  0  0  0  0  0  0  0  0
   41.5140   23.4180   35.8130 C   0  0  0  0  0  0  0  0  0  0  0  0
   41.0620   24.5080   35.3820 O   0  0  0  0  0  0  0  0  0  0  0  0
   39.2169   23.4724   34.1381 H   0  0  0  0  0  0  0  0  0  0  0  0
   39.1297   21.9174   33.1893 H   0  0  0  0  0  0  0  0  0  0  0  0
   34.7470   22.7511   30.9639 H   0  0  0  0  0  0  0  0  0  0  0  0
   34.8920   25.2469   30.8861 H   0  0  0  0  0  0  0  0  0  0  0  0
   36.6913   26.3993   32.1332 H   0  0  0  0  0  0  0  0  0  0  0  0
   38.3094   25.1167   33.4192 H   0  0  0  0  0  0  0  0  0  0  0  0
   37.9374   20.9808   30.7055 H   0  0  0  0  0  0  0  0  0  0  0  0
   34.8748   21.0077   33.7572 H   0  0  0  0  0  0  0  0  0  0  0  0
   36.2373   17.3469   32.1128 H   0  0  0  0  0  0  0  0  0  0  0  0
   37.0053   21.6586   34.8495 H   0  0  0  0  0  0  0  0  0  0  0  0
   38.6931   21.0170   35.1418 H   0  0  0  0  0  0  0  0  0  0  0  0
   37.0099   24.3482   38.7590 H   0  0  0  0  0  0  0  0  0  0  0  0
   39.6713   24.0861   38.6875 H   0  0  0  0  0  0  0  0  0  0  0  0
   40.6171   20.7946   37.5351 H   0  0  0  0  0  0  0  0  0  0  0  0
   43.0227   19.8195   38.3416 H   0  0  0  0  0  0  0  0  0  0  0  0
   42.3764   18.9830   36.8893 H   0  0  0  0  0  0  0  0  0  0  0  0
   44.0592   19.6115   36.8893 H   0  0  0  0  0  0  0  0  0  0  0  0
   43.3612   23.7358   35.0047 H   0  0  0  0  0  0  0  0  0  0  0  0
  1 14  1  0
  2  9  1  0
  2  7  1  0
  3  2  2  0
  4  3  1  0
  4  5  2  0
  5  6  1  0
  6  7  2  0
  7  1  1  0
  8  9  2  0
  9 10  1  0
 11 10  2  0
 12 11  1  0
 13  8  1  0
 13 12  2  0
 14 15  1  0
 15 19  1  0
 15 16  1  0
 16 17  2  0
 18 17  1  0
 19 18  2  0
 20 19  1  0
 20 21  1  0
 22 21  2  0
 22 23  1  0
 24 22  1  0
 25 24  2  0
 26 27  1  0
 26 24  1  0
 27 20  1  0
 28 27  2  0
  1 29  1  0
  1 30  1  0
  3 31  1  0
  4 32  1  0
  5 33  1  0
  6 34  1  0
  8 35  1  0
 10 36  1  0
 12 37  1  0
 14 38  1  0
 14 39  1  0
 17 40  1  0
 18 41  1  0
 21 42  1  0
 23 43  1  0
 23 44  1  0
 23 45  1  0
 26 46  1  0
M  ISO  8  29   8  30   8  31  14  32  14  33  14  34  14  35  14  36  14
M  ISO  8  37  14  38   8  39   8  40  14  41  14  42  14  43   8  44   8
M  ISO  2  45   8  46   9
M  END
>  <minimizedAffinity>  (1) 
-5.92885876

>  <minimizedRMSD>  (1) 
1.50418472

$$$$
