
     RDKit          3D

 46 49  0  0  0  0  0  0  0  0999 V2000
   36.6340   23.4130   32.2230 C   0  0  0  0  0  0  0  0  0  0  0  0
   35.8940   24.3820   31.5410 C   0  0  0  0  0  0  0  0  0  0  0  0
   36.1970   25.6950   31.8150 C   0  0  0  0  0  0  0  0  0  0  0  0
   37.1860   25.9920   32.7200 C   0  0  0  0  0  0  0  0  0  0  0  0
   37.8660   24.9920   33.3470 C   0  0  0  0  0  0  0  0  0  0  0  0
   37.6090   23.6550   33.1150 C   0  0  0  0  0  0  0  0  0  0  0  0
   37.1320   21.3610   30.9250 C   0  0  0  0  0  0  0  0  0  0  0  0
   36.2850   22.0270   31.9040 C   0  0  0  0  0  0  0  0  0  0  0  0
   35.2630   21.3430   32.4420 C   0  0  0  0  0  0  0  0  0  0  0  0
   35.0070   20.0770   32.1030 N   0  0  0  0  0  0  0  0  0  0  0  0
   35.8140   19.4470   31.1720 C   0  0  0  0  0  0  0  0  0  0  0  0
   36.8810   20.0880   30.5790 N   0  0  0  0  0  0  0  0  0  0  0  0
   38.4770   22.7580   33.9150 C   0  0  0  0  0  0  0  0  0  0  0  0
   37.7700   22.1180   35.0890 C   0  0  0  0  0  0  0  0  0  0  0  0
   38.1000   22.7270   36.3450 N   0  0  0  0  0  0  0  0  0  0  0  0
   37.2620   23.4070   37.1310 N   0  0  0  0  0  0  0  0  0  0  0  0
   37.9090   23.8420   38.2130 C   0  0  0  0  0  0  0  0  0  0  0  0
   39.1970   23.3970   38.0640 C   0  0  0  0  0  0  0  0  0  0  0  0
   39.3200   22.6860   36.8730 C   0  0  0  0  0  0  0  0  0  0  0  0
   40.5910   22.1000   36.4760 C   0  0  0  0  0  0  0  0  0  0  0  0
   41.6250   23.1630   36.0840 C   0  0  0  0  0  0  0  0  0  0  0  0
   42.8640   22.3590   35.9020 C   0  0  0  0  0  0  0  0  0  0  0  0
   42.7120   21.2200   36.8600 C   0  0  0  0  0  0  0  0  0  0  0  0
   41.3700   21.4390   37.5730 C   0  0  0  0  0  0  0  0  0  0  0  0
   35.1086   24.1084   30.8211 H   0  0  0  0  0  0  0  0  0  0  0  0
   35.6490   26.5046   31.3109 H   0  0  0  0  0  0  0  0  0  0  0  0
   37.4302   27.0418   32.9396 H   0  0  0  0  0  0  0  0  0  0  0  0
   38.6523   25.2604   34.0679 H   0  0  0  0  0  0  0  0  0  0  0  0
   37.9761   21.8996   30.4695 H   0  0  0  0  0  0  0  0  0  0  0  0
   34.6185   21.8391   33.1826 H   0  0  0  0  0  0  0  0  0  0  0  0
   35.5979   18.4041   30.8969 H   0  0  0  0  0  0  0  0  0  0  0  0
   38.8514   21.9596   33.2575 H   0  0  0  0  0  0  0  0  0  0  0  0
   39.2880   23.3771   34.3260 H   0  0  0  0  0  0  0  0  0  0  0  0
   36.6845   22.2037   34.9329 H   0  0  0  0  0  0  0  0  0  0  0  0
   38.0979   21.0691   35.1370 H   0  0  0  0  0  0  0  0  0  0  0  0
   37.4976   24.4312   39.0459 H   0  0  0  0  0  0  0  0  0  0  0  0
   40.0131   23.5753   38.7797 H   0  0  0  0  0  0  0  0  0  0  0  0
   40.2541   21.4108   35.6876 H   0  0  0  0  0  0  0  0  0  0  0  0
   41.3395   23.6694   35.1502 H   0  0  0  0  0  0  0  0  0  0  0  0
   41.7301   23.9664   36.8279 H   0  0  0  0  0  0  0  0  0  0  0  0
   42.9408   21.9907   34.8683 H   0  0  0  0  0  0  0  0  0  0  0  0
   43.7758   22.9454   36.0888 H   0  0  0  0  0  0  0  0  0  0  0  0
   42.7042   20.2632   36.3173 H   0  0  0  0  0  0  0  0  0  0  0  0
   43.5461   21.1834   37.5762 H   0  0  0  0  0  0  0  0  0  0  0  0
   41.4767   22.0953   38.4493 H   0  0  0  0  0  0  0  0  0  0  0  0
   40.9098   20.5267   37.9803 H   0  0  0  0  0  0  0  0  0  0  0  0
  1  6  2  0
  2  3  2  0
  2  1  1  0
  3  4  1  0
  4  5  2  0
  6  5  1  0
  6 13  1  0
  7  8  2  0
  8  1  1  0
  8  9  1  0
 10  9  2  0
 11 10  1  0
 12  7  1  0
 12 11  2  0
 13 14  1  0
 14 15  1  0
 15 19  1  0
 15 16  1  0
 16 17  2  0
 18 17  1  0
 19 18  2  0
 20 19  1  0
 20 24  1  0
 21 20  1  0
 22 21  1  0
 22 23  1  0
 23 24  1  0
  2 25  1  0
  3 26  1  0
  4 27  1  0
  5 28  1  0
  7 29  1  0
  9 30  1  0
 11 31  1  0
 13 32  1  0
 13 33  1  0
 14 34  1  0
 14 35  1  0
 17 36  1  0
 18 37  1  0
 20 38  1  0
 21 39  1  0
 21 40  1  0
 22 41  1  0
 22 42  1  0
 23 43  1  0
 23 44  1  0
 24 45  1  0
 24 46  1  0
M  ISO  8  25  14  26  14  27  14  28  14  29  14  30  14  31  14  32   8
M  ISO  8  33   8  34   8  35   8  36  14  37  14  38  13  39  13  40  13
M  ISO  6  41  13  42  13  43  13  44  13  45  13  46  13
M  END
>  <minimizedAffinity>  (1) 
-5.7487464

>  <minimizedRMSD>  (1) 
1.02663398

$$$$
