
     RDKit          3D

 41 44  0  0  0  0  0  0  0  0999 V2000
   38.3810   22.6960   33.6780 C   0  0  0  0  0  0  0  0  0  0  0  0
   36.4000   23.0570   32.0580 C   0  0  0  0  0  0  0  0  0  0  0  0
   35.5440   23.9160   31.3560 C   0  0  0  0  0  0  0  0  0  0  0  0
   35.7450   25.2620   31.5160 C   0  0  0  0  0  0  0  0  0  0  0  0
   36.7520   25.7030   32.3360 C   0  0  0  0  0  0  0  0  0  0  0  0
   37.5440   24.8180   32.9860 C   0  0  0  0  0  0  0  0  0  0  0  0
   37.3950   23.4570   32.8690 C   0  0  0  0  0  0  0  0  0  0  0  0
   37.0000   20.9680   30.8850 C   0  0  0  0  0  0  0  0  0  0  0  0
   36.1560   21.6340   31.8620 C   0  0  0  0  0  0  0  0  0  0  0  0
   35.2050   20.9180   32.5210 C   0  0  0  0  0  0  0  0  0  0  0  0
   35.0440   19.6120   32.2790 N   0  0  0  0  0  0  0  0  0  0  0  0
   35.8450   18.9780   31.3530 C   0  0  0  0  0  0  0  0  0  0  0  0
   36.8280   19.6550   30.6520 N   0  0  0  0  0  0  0  0  0  0  0  0
   37.7870   22.0480   34.9040 C   0  0  0  0  0  0  0  0  0  0  0  0
   38.0830   22.7350   36.1160 N   0  0  0  0  0  0  0  0  0  0  0  0
   37.2480   23.5090   36.8160 N   0  0  0  0  0  0  0  0  0  0  0  0
   37.8570   24.0120   37.8890 C   0  0  0  0  0  0  0  0  0  0  0  0
   39.1260   23.5130   37.8340 C   0  0  0  0  0  0  0  0  0  0  0  0
   39.2730   22.6910   36.6950 C   0  0  0  0  0  0  0  0  0  0  0  0
   40.5380   22.0240   36.4360 C   0  0  0  0  0  0  0  0  0  0  0  0
   41.2600   21.4330   37.4490 C   0  0  0  0  0  0  0  0  0  0  0  0
   42.4580   20.7810   37.3120 C   0  0  0  0  0  0  0  0  0  0  0  0
   42.9740   20.7160   36.0550 N   0  0  0  0  0  0  0  0  0  0  0  0
   42.3120   21.2760   35.0230 C   0  0  0  0  0  0  0  0  0  0  0  0
   41.1580   21.8840   35.2660 N   0  0  0  0  0  0  0  0  0  0  0  0
   39.1738   23.3873   33.9999 H   0  0  0  0  0  0  0  0  0  0  0  0
   38.7645   21.8863   33.0398 H   0  0  0  0  0  0  0  0  0  0  0  0
   34.7465   23.5273   30.7057 H   0  0  0  0  0  0  0  0  0  0  0  0
   35.1029   25.9840   30.9902 H   0  0  0  0  0  0  0  0  0  0  0  0
   36.9172   26.7827   32.4664 H   0  0  0  0  0  0  0  0  0  0  0  0
   38.3419   25.2055   33.6365 H   0  0  0  0  0  0  0  0  0  0  0  0
   37.7720   21.5322   30.3413 H   0  0  0  0  0  0  0  0  0  0  0  0
   34.5620   21.4180   33.2603 H   0  0  0  0  0  0  0  0  0  0  0  0
   35.6987   17.9039   31.1660 H   0  0  0  0  0  0  0  0  0  0  0  0
   36.6942   22.0127   34.7830 H   0  0  0  0  0  0  0  0  0  0  0  0
   38.2333   21.0459   34.9857 H   0  0  0  0  0  0  0  0  0  0  0  0
   37.4311   24.6815   38.6508 H   0  0  0  0  0  0  0  0  0  0  0  0
   39.9179   23.7205   38.5687 H   0  0  0  0  0  0  0  0  0  0  0  0
   40.8358   21.4894   38.4624 H   0  0  0  0  0  0  0  0  0  0  0  0
   42.9752   20.3337   38.1736 H   0  0  0  0  0  0  0  0  0  0  0  0
   42.7194   21.2300   34.0022 H   0  0  0  0  0  0  0  0  0  0  0  0
  1 14  1  0
  2  7  2  0
  3  4  2  0
  3  2  1  0
  4  5  1  0
  5  6  2  0
  7  6  1  0
  7  1  1  0
  8  9  2  0
  9  2  1  0
  9 10  1  0
 11 10  2  0
 12 11  1  0
 13  8  1  0
 13 12  2  0
 14 15  1  0
 15 19  1  0
 15 16  1  0
 16 17  2  0
 18 17  1  0
 19 18  2  0
 20 19  1  0
 20 21  2  0
 22 21  1  0
 23 22  2  0
 24 25  2  0
 24 23  1  0
 25 20  1  0
  1 26  1  0
  1 27  1  0
  3 28  1  0
  4 29  1  0
  5 30  1  0
  6 31  1  0
  8 32  1  0
 10 33  1  0
 12 34  1  0
 14 35  1  0
 14 36  1  0
 17 37  1  0
 18 38  1  0
 21 39  1  0
 22 40  1  0
 24 41  1  0
M  ISO  8  26   8  27   8  28  14  29  14  30  14  31  14  32  14  33  14
M  ISO  8  34  14  35   8  36   8  37  14  38  14  39  14  40  14  41  14
M  END
>  <minimizedAffinity>  (1) 
-5.58004618

>  <minimizedRMSD>  (1) 
0.625044703

$$$$
