
     RDKit          3D

 40 43  0  0  0  0  0  0  0  0999 V2000
   38.4710   22.8130   33.8340 C   0  0  0  0  0  0  0  0  0  0  0  0
   36.5680   23.4140   32.1800 C   0  0  0  0  0  0  0  0  0  0  0  0
   35.8030   24.3560   31.5090 C   0  0  0  0  0  0  0  0  0  0  0  0
   36.0960   25.6810   31.7620 C   0  0  0  0  0  0  0  0  0  0  0  0
   37.1010   26.0000   32.6380 C   0  0  0  0  0  0  0  0  0  0  0  0
   37.8110   25.0240   33.2590 C   0  0  0  0  0  0  0  0  0  0  0  0
   37.5660   23.6920   33.0500 C   0  0  0  0  0  0  0  0  0  0  0  0
   37.1000   21.3580   30.9060 C   0  0  0  0  0  0  0  0  0  0  0  0
   36.2430   22.0180   31.8840 C   0  0  0  0  0  0  0  0  0  0  0  0
   35.2360   21.3230   32.4350 C   0  0  0  0  0  0  0  0  0  0  0  0
   35.0180   20.0370   32.0970 N   0  0  0  0  0  0  0  0  0  0  0  0
   35.8220   19.4190   31.1820 C   0  0  0  0  0  0  0  0  0  0  0  0
   36.8770   20.0780   30.5730 N   0  0  0  0  0  0  0  0  0  0  0  0
   37.8200   22.1660   35.0250 C   0  0  0  0  0  0  0  0  0  0  0  0
   38.1100   22.8020   36.2680 N   0  0  0  0  0  0  0  0  0  0  0  0
   37.2820   23.5970   36.9550 N   0  0  0  0  0  0  0  0  0  0  0  0
   37.8810   24.0450   38.0680 C   0  0  0  0  0  0  0  0  0  0  0  0
   39.1240   23.4850   38.0310 C   0  0  0  0  0  0  0  0  0  0  0  0
   39.2770   22.6830   36.8780 C   0  0  0  0  0  0  0  0  0  0  0  0
   40.5420   22.0020   36.7100 C   0  0  0  0  0  0  0  0  0  0  0  0
   41.4080   21.3630   37.5500 C   0  0  0  0  0  0  0  0  0  0  0  0
   42.5480   20.8930   36.9420 C   0  0  0  0  0  0  0  0  0  0  0  0
   42.3600   21.2680   35.6690 N   0  0  0  0  0  0  0  0  0  0  0  0
   41.2140   21.8990   35.5530 N   0  0  0  0  0  0  0  0  0  0  0  0
   39.3176   23.4186   34.1898 H   0  0  0  0  0  0  0  0  0  0  0  0
   38.7825   21.9994   33.1624 H   0  0  0  0  0  0  0  0  0  0  0  0
   35.0045   24.0628   30.8116 H   0  0  0  0  0  0  0  0  0  0  0  0
   35.5253   26.4778   31.2626 H   0  0  0  0  0  0  0  0  0  0  0  0
   37.3340   27.0560   32.8394 H   0  0  0  0  0  0  0  0  0  0  0  0
   38.6121   25.3127   33.9553 H   0  0  0  0  0  0  0  0  0  0  0  0
   37.9299   21.9103   30.4410 H   0  0  0  0  0  0  0  0  0  0  0  0
   34.5801   21.8094   33.1720 H   0  0  0  0  0  0  0  0  0  0  0  0
   35.6261   18.3684   30.9215 H   0  0  0  0  0  0  0  0  0  0  0  0
   36.7305   22.1838   34.8745 H   0  0  0  0  0  0  0  0  0  0  0  0
   38.2250   21.1454   35.0905 H   0  0  0  0  0  0  0  0  0  0  0  0
   37.4643   24.7127   38.8365 H   0  0  0  0  0  0  0  0  0  0  0  0
   39.9012   23.6370   38.7945 H   0  0  0  0  0  0  0  0  0  0  0  0
   41.2100   21.2348   38.6244 H   0  0  0  0  0  0  0  0  0  0  0  0
   43.3953   20.3497   37.3856 H   0  0  0  0  0  0  0  0  0  0  0  0
   43.0169   21.0880   34.8963 H   0  0  0  0  0  0  0  0  0  0  0  0
  1 14  1  0
  2  7  2  0
  3  4  2  0
  3  2  1  0
  4  5  1  0
  5  6  2  0
  7  6  1  0
  7  1  1  0
  8  9  2  0
  9  2  1  0
  9 10  1  0
 11 10  2  0
 12 11  1  0
 13  8  1  0
 13 12  2  0
 14 15  1  0
 15 19  1  0
 15 16  1  0
 16 17  2  0
 18 17  1  0
 19 18  2  0
 20 19  1  0
 20 21  1  0
 22 21  2  0
 23 22  1  0
 24 23  1  0
 24 20  2  0
  1 25  1  0
  1 26  1  0
  3 27  1  0
  4 28  1  0
  5 29  1  0
  6 30  1  0
  8 31  1  0
 10 32  1  0
 12 33  1  0
 14 34  1  0
 14 35  1  0
 17 36  1  0
 18 37  1  0
 21 38  1  0
 22 39  1  0
 23 40  1  0
M  ISO  8  25   8  26   8  27  14  28  14  29  14  30  14  31  14  32  14
M  ISO  8  33  14  34   8  35   8  36  14  37  14  38  14  39  14  40   9
M  END
>  <minimizedAffinity>  (1) 
-5.50161886

>  <minimizedRMSD>  (1) 
0.811115324

$$$$
