
     RDKit          3D

 36 38  0  0  0  0  0  0  0  0999 V2000
   36.5830   22.7510   32.3480 C   0  0  0  0  0  0  0  0  0  0  0  0
   35.6420   23.4410   31.5780 C   0  0  0  0  0  0  0  0  0  0  0  0
   35.7290   24.8130   31.5640 C   0  0  0  0  0  0  0  0  0  0  0  0
   36.7130   25.4320   32.2890 C   0  0  0  0  0  0  0  0  0  0  0  0
   37.5970   24.6970   33.0170 C   0  0  0  0  0  0  0  0  0  0  0  0
   37.5630   23.3210   33.0730 C   0  0  0  0  0  0  0  0  0  0  0  0
   37.3380   20.5840   31.4190 C   0  0  0  0  0  0  0  0  0  0  0  0
   36.4540   21.2940   32.3340 C   0  0  0  0  0  0  0  0  0  0  0  0
   35.5930   20.5940   33.0900 C   0  0  0  0  0  0  0  0  0  0  0  0
   35.5370   19.2510   33.0140 N   0  0  0  0  0  0  0  0  0  0  0  0
   36.3750   18.5810   32.1500 C   0  0  0  0  0  0  0  0  0  0  0  0
   37.2790   19.2480   31.3480 N   0  0  0  0  0  0  0  0  0  0  0  0
   38.6290   22.7440   33.9310 C   0  0  0  0  0  0  0  0  0  0  0  0
   38.0990   22.0360   35.1520 C   0  0  0  0  0  0  0  0  0  0  0  0
   38.2440   22.7760   36.3600 N   0  0  0  0  0  0  0  0  0  0  0  0
   37.3370   23.5230   36.9470 N   0  0  0  0  0  0  0  0  0  0  0  0
   37.8110   24.0750   38.0670 C   0  0  0  0  0  0  0  0  0  0  0  0
   39.1010   23.6220   38.1560 C   0  0  0  0  0  0  0  0  0  0  0  0
   39.3710   22.7960   37.0670 C   0  0  0  0  0  0  0  0  0  0  0  0
   40.6920   22.1730   36.9220 C   0  0  0  0  0  0  0  0  0  0  0  0
   41.0670   21.3630   37.9530 F   0  0  0  0  0  0  0  0  0  0  0  0
   41.6680   23.1780   36.8390 F   0  0  0  0  0  0  0  0  0  0  0  0
   40.7650   21.5410   35.6720 F   0  0  0  0  0  0  0  0  0  0  0  0
   34.8658   22.9093   31.0081 H   0  0  0  0  0  0  0  0  0  0  0  0
   35.0150   25.4084   30.9760 H   0  0  0  0  0  0  0  0  0  0  0  0
   36.7889   26.5294   32.2826 H   0  0  0  0  0  0  0  0  0  0  0  0
   38.3748   25.2261   33.5872 H   0  0  0  0  0  0  0  0  0  0  0  0
   38.0487   21.1413   30.7911 H   0  0  0  0  0  0  0  0  0  0  0  0
   34.9233   21.1258   33.7819 H   0  0  0  0  0  0  0  0  0  0  0  0
   36.3223   17.4835   32.0977 H   0  0  0  0  0  0  0  0  0  0  0  0
   39.2055   22.0229   33.3329 H   0  0  0  0  0  0  0  0  0  0  0  0
   39.2486   23.5811   34.2851 H   0  0  0  0  0  0  0  0  0  0  0  0
   37.0290   21.8334   34.9970 H   0  0  0  0  0  0  0  0  0  0  0  0
   38.6919   21.1169   35.2690 H   0  0  0  0  0  0  0  0  0  0  0  0
   37.2834   24.7440   38.7627 H   0  0  0  0  0  0  0  0  0  0  0  0
   39.8103   23.8708   38.9591 H   0  0  0  0  0  0  0  0  0  0  0  0
  1  6  1  0
  2  1  2  0
  3  2  1  0
  3  4  2  0
  4  5  1  0
  5  6  2  0
  6 13  1  0
  7  8  2  0
  8  1  1  0
  8  9  1  0
 10  9  2  0
 11 10  1  0
 12  7  1  0
 12 11  2  0
 13 14  1  0
 14 15  1  0
 15 16  1  0
 15 19  1  0
 16 17  2  0
 17 18  1  0
 19 18  2  0
 20 19  1  0
 20 21  1  0
 22 20  1  0
 23 20  1  0
  2 24  1  0
  3 25  1  0
  4 26  1  0
  5 27  1  0
  7 28  1  0
  9 29  1  0
 11 30  1  0
 13 31  1  0
 13 32  1  0
 14 33  1  0
 14 34  1  0
 17 35  1  0
 18 36  1  0
M  ISO  8  24  14  25  14  26  14  27  14  28  14  29  14  30  14  31   8
M  ISO  5  32   8  33   8  34   8  35  14  36  14
M  END
>  <minimizedAffinity>  (1) 
-5.37985229

>  <minimizedRMSD>  (1) 
0.873824

$$$$
