
     RDKit          3D

 42 44  0  0  0  0  0  0  0  0999 V2000
   36.4200   23.0410   32.0730 C   0  0  0  0  0  0  0  0  0  0  0  0
   35.5820   23.9130   31.3670 C   0  0  0  0  0  0  0  0  0  0  0  0
   35.7930   25.2600   31.5360 C   0  0  0  0  0  0  0  0  0  0  0  0
   36.7940   25.6840   32.3700 C   0  0  0  0  0  0  0  0  0  0  0  0
   37.5760   24.7780   33.0290 C   0  0  0  0  0  0  0  0  0  0  0  0
   37.4110   23.4110   32.8990 C   0  0  0  0  0  0  0  0  0  0  0  0
   36.9930   20.9420   30.8890 C   0  0  0  0  0  0  0  0  0  0  0  0
   36.1580   21.6170   31.8620 C   0  0  0  0  0  0  0  0  0  0  0  0
   35.2080   20.9100   32.5010 C   0  0  0  0  0  0  0  0  0  0  0  0
   35.0190   19.6060   32.2590 N   0  0  0  0  0  0  0  0  0  0  0  0
   35.8210   18.9720   31.3280 C   0  0  0  0  0  0  0  0  0  0  0  0
   36.8100   19.6430   30.6430 N   0  0  0  0  0  0  0  0  0  0  0  0
   38.3770   22.6340   33.7110 C   0  0  0  0  0  0  0  0  0  0  0  0
   37.7530   21.9680   34.9100 C   0  0  0  0  0  0  0  0  0  0  0  0
   38.0490   22.6080   36.1470 N   0  0  0  0  0  0  0  0  0  0  0  0
   37.2050   23.2210   36.9470 N   0  0  0  0  0  0  0  0  0  0  0  0
   37.8310   23.7090   38.0240 C   0  0  0  0  0  0  0  0  0  0  0  0
   39.1470   23.3610   37.8530 C   0  0  0  0  0  0  0  0  0  0  0  0
   39.2740   22.6640   36.6590 C   0  0  0  0  0  0  0  0  0  0  0  0
   40.5840   22.1780   36.2460 C   0  0  0  0  0  0  0  0  0  0  0  0
   41.3470   21.5270   37.4030 C   0  0  0  0  0  0  0  0  0  0  0  0
   41.3720   23.3950   35.7460 C   0  0  0  0  0  0  0  0  0  0  0  0
   34.7885   23.5355   30.7053 H   0  0  0  0  0  0  0  0  0  0  0  0
   35.1643   25.9912   31.0068 H   0  0  0  0  0  0  0  0  0  0  0  0
   36.9692   26.7609   32.5099 H   0  0  0  0  0  0  0  0  0  0  0  0
   38.3708   25.1518   33.6913 H   0  0  0  0  0  0  0  0  0  0  0  0
   37.7763   21.4991   30.3541 H   0  0  0  0  0  0  0  0  0  0  0  0
   34.5703   21.4157   33.2410 H   0  0  0  0  0  0  0  0  0  0  0  0
   35.6649   17.9015   31.1287 H   0  0  0  0  0  0  0  0  0  0  0  0
   38.8225   21.8565   33.0730 H   0  0  0  0  0  0  0  0  0  0  0  0
   39.1280   23.3436   34.0885 H   0  0  0  0  0  0  0  0  0  0  0  0
   36.6614   21.9646   34.7748 H   0  0  0  0  0  0  0  0  0  0  0  0
   38.1757   20.9541   34.9669 H   0  0  0  0  0  0  0  0  0  0  0  0
   37.3879   24.2666   38.8623 H   0  0  0  0  0  0  0  0  0  0  0  0
   39.9669   23.5957   38.5478 H   0  0  0  0  0  0  0  0  0  0  0  0
   40.4606   21.4112   35.4671 H   0  0  0  0  0  0  0  0  0  0  0  0
   40.9336   21.8797   38.3594 H   0  0  0  0  0  0  0  0  0  0  0  0
   41.2448   20.4335   37.3404 H   0  0  0  0  0  0  0  0  0  0  0  0
   42.4107   21.8000   37.3404 H   0  0  0  0  0  0  0  0  0  0  0  0
   41.7442   23.9698   36.6069 H   0  0  0  0  0  0  0  0  0  0  0  0
   42.2224   23.0559   35.1362 H   0  0  0  0  0  0  0  0  0  0  0  0
   40.7146   24.0322   35.1362 H   0  0  0  0  0  0  0  0  0  0  0  0
  1  6  2  0
  2  3  2  0
  2  1  1  0
  3  4  1  0
  4  5  2  0
  6  5  1  0
  6 13  1  0
  7  8  2  0
  8  1  1  0
  8  9  1  0
 10  9  2  0
 11 10  1  0
 12  7  1  0
 12 11  2  0
 13 14  1  0
 14 15  1  0
 15 19  1  0
 15 16  1  0
 16 17  2  0
 18 17  1  0
 19 18  2  0
 20 19  1  0
 20 21  1  0
 22 20  1  0
  2 23  1  0
  3 24  1  0
  4 25  1  0
  5 26  1  0
  7 27  1  0
  9 28  1  0
 11 29  1  0
 13 30  1  0
 13 31  1  0
 14 32  1  0
 14 33  1  0
 17 34  1  0
 18 35  1  0
 20 36  1  0
 21 37  1  0
 21 38  1  0
 21 39  1  0
 22 40  1  0
 22 41  1  0
 22 42  1  0
M  ISO  8  23  14  24  14  25  14  26  14  27  14  28  14  29  14  30   8
M  ISO  8  31   8  32   8  33   8  34  14  35  14  36   8  37   8  38   8
M  ISO  4  39   8  40   8  41   8  42   8
M  END
>  <minimizedAffinity>  (1) 
-5.32485437

>  <minimizedRMSD>  (1) 
0.698658884

$$$$
