
     RDKit          3D

 39 42  0  0  0  0  0  0  0  0999 V2000
   40.9120   25.2900   34.1870 C   0  0  0  0  0  0  0  0  0  0  0  0
   41.0180   22.6970   36.8640 C   0  0  0  0  0  0  0  0  0  0  0  0
   39.7950   22.0420   36.6530 C   0  0  0  0  0  0  0  0  0  0  0  0
   38.9740   22.4830   35.6270 C   0  0  0  0  0  0  0  0  0  0  0  0
   39.4050   23.5330   34.8800 N   0  0  0  0  0  0  0  0  0  0  0  0
   40.5890   24.1510   35.1010 C   0  0  0  0  0  0  0  0  0  0  0  0
   41.3830   23.7330   36.0830 N   0  0  0  0  0  0  0  0  0  0  0  0
   37.6580   21.8520   35.3270 C   0  0  0  0  0  0  0  0  0  0  0  0
   37.2840   21.5430   34.0090 C   0  0  0  0  0  0  0  0  0  0  0  0
   35.6360   20.8230   34.2540 S   0  0  0  0  0  0  0  0  0  0  0  0
   35.7180   21.0590   36.1290 C   0  0  0  0  0  0  0  0  0  0  0  0
   36.8490   21.5920   36.3260 N   0  0  0  0  0  0  0  0  0  0  0  0
   34.7480   20.7310   37.1760 N   0  0  0  0  0  0  0  0  0  0  0  0
   40.4570   26.5890   34.7940 C   0  0  0  0  0  0  0  0  0  0  0  0
   39.1610   27.0510   34.2330 C   0  0  0  0  0  0  0  0  0  0  0  0
   38.0870   27.2660   35.0640 C   0  0  0  0  0  0  0  0  0  0  0  0
   36.8280   27.6970   34.6490 C   0  0  0  0  0  0  0  0  0  0  0  0
   36.6850   27.9130   33.3060 N   0  0  0  0  0  0  0  0  0  0  0  0
   37.7470   27.7010   32.4770 C   0  0  0  0  0  0  0  0  0  0  0  0
   38.9500   27.2800   32.9390 N   0  0  0  0  0  0  0  0  0  0  0  0
   37.6270   27.9230   31.0320 C   0  0  0  0  0  0  0  0  0  0  0  0
   38.7630   28.1990   30.2730 C   0  0  0  0  0  0  0  0  0  0  0  0
   38.3200   28.3600   28.9430 C   0  0  0  0  0  0  0  0  0  0  0  0
   36.9670   28.1790   28.9540 N   0  0  0  0  0  0  0  0  0  0  0  0
   36.5650   27.9210   30.1900 N   0  0  0  0  0  0  0  0  0  0  0  0
   40.4006   25.1399   33.2247 H   0  0  0  0  0  0  0  0  0  0  0  0
   42.0004   25.3282   34.0322 H   0  0  0  0  0  0  0  0  0  0  0  0
   41.6839   22.3623   37.6731 H   0  0  0  0  0  0  0  0  0  0  0  0
   39.4941   21.1962   37.2886 H   0  0  0  0  0  0  0  0  0  0  0  0
   37.8429   21.6969   33.0741 H   0  0  0  0  0  0  0  0  0  0  0  0
   34.9660   20.9342   38.1619 H   0  0  0  0  0  0  0  0  0  0  0  0
   33.8478   20.2971   36.9264 H   0  0  0  0  0  0  0  0  0  0  0  0
   40.3435   26.4515   35.8795 H   0  0  0  0  0  0  0  0  0  0  0  0
   41.2147   27.3520   34.5624 H   0  0  0  0  0  0  0  0  0  0  0  0
   38.2324   27.0839   36.1390 H   0  0  0  0  0  0  0  0  0  0  0  0
   36.0011   27.8536   35.3574 H   0  0  0  0  0  0  0  0  0  0  0  0
   39.7979   28.2759   30.6378 H   0  0  0  0  0  0  0  0  0  0  0  0
   38.9444   28.5875   28.0664 H   0  0  0  0  0  0  0  0  0  0  0  0
   36.3532   28.2344   28.1287 H   0  0  0  0  0  0  0  0  0  0  0  0
  1 14  1  0
  1  6  1  0
  3  2  2  0
  4  3  1  0
  5  6  1  0
  5  4  2  0
  6  7  2  0
  7  2  1  0
  8  4  1  0
  8 12  1  0
  9 10  1  0
  9  8  2  0
 10 11  1  0
 11 12  2  0
 11 13  1  0
 15 14  1  0
 15 16  2  0
 17 16  1  0
 18 17  2  0
 19 20  2  0
 19 18  1  0
 20 15  1  0
 21 19  1  0
 22 21  1  0
 23 24  1  0
 23 22  2  0
 24 25  1  0
 25 21  2  0
  1 26  1  0
  1 27  1  0
  2 28  1  0
  3 29  1  0
  9 30  1  0
 13 31  1  0
 13 32  1  0
 14 33  1  0
 14 34  1  0
 16 35  1  0
 17 36  1  0
 22 37  1  0
 23 38  1  0
 24 39  1  0
M  ISO  8  26   8  27   8  28  14  29  14  30  14  33   8  34   8  35  14
M  ISO  4  36  14  37  14  38  14  39   9
M  END
>  <minimizedAffinity>  (1) 
-6.04191971

>  <minimizedRMSD>  (1) 
0.266703129

$$$$
