
     RDKit          3D

 40 43  0  0  0  0  0  0  0  0999 V2000
   39.9520   23.0370   37.5110 C   0  0  0  0  0  0  0  0  0  0  0  0
   39.0790   23.2460   38.5790 C   0  0  0  0  0  0  0  0  0  0  0  0
   37.7210   23.2750   38.2620 C   0  0  0  0  0  0  0  0  0  0  0  0
   37.3000   23.1070   36.9820 N   0  0  0  0  0  0  0  0  0  0  0  0
   38.1880   22.9080   35.9870 C   0  0  0  0  0  0  0  0  0  0  0  0
   39.5050   22.8740   36.2540 N   0  0  0  0  0  0  0  0  0  0  0  0
   37.8200   22.7230   34.6240 N   0  0  0  0  0  0  0  0  0  0  0  0
   38.2950   23.4810   33.5990 C   0  0  0  0  0  0  0  0  0  0  0  0
   37.8430   23.1730   32.3290 C   0  0  0  0  0  0  0  0  0  0  0  0
   36.9570   22.1460   32.1450 C   0  0  0  0  0  0  0  0  0  0  0  0
   36.5490   21.8710   30.9770 O   0  0  0  0  0  0  0  0  0  0  0  0
   36.4780   21.3890   33.1410 N   0  0  0  0  0  0  0  0  0  0  0  0
   36.9440   21.7220   34.3670 C   0  0  0  0  0  0  0  0  0  0  0  0
   36.5010   21.0160   35.3250 O   0  0  0  0  0  0  0  0  0  0  0  0
   35.5410   20.3040   32.9600 C   0  0  0  0  0  0  0  0  0  0  0  0
   36.0970   19.3340   32.1280 F   0  0  0  0  0  0  0  0  0  0  0  0
   34.3480   20.7300   32.4410 F   0  0  0  0  0  0  0  0  0  0  0  0
   35.3310   19.7240   34.2120 F   0  0  0  0  0  0  0  0  0  0  0  0
   38.3260   23.9480   31.1860 C   0  0  0  0  0  0  0  0  0  0  0  0
   37.6210   25.2400   31.0300 C   0  0  0  0  0  0  0  0  0  0  0  0
   36.3290   25.5160   31.2660 N   0  0  0  0  0  0  0  0  0  0  0  0
   35.8040   26.7390   31.0870 C   0  0  0  0  0  0  0  0  0  0  0  0
   36.5760   27.7770   30.6500 N   0  0  0  0  0  0  0  0  0  0  0  0
   37.8840   27.5130   30.4080 C   0  0  0  0  0  0  0  0  0  0  0  0
   38.6250   28.6100   29.9640 C   0  0  0  0  0  0  0  0  0  0  0  0
   39.9750   28.4620   29.6850 C   0  0  0  0  0  0  0  0  0  0  0  0
   40.5470   27.2190   29.8570 C   0  0  0  0  0  0  0  0  0  0  0  0
   39.8140   26.1230   30.2990 C   0  0  0  0  0  0  0  0  0  0  0  0
   38.4590   26.2680   30.5790 C   0  0  0  0  0  0  0  0  0  0  0  0
   41.0347   23.0048   37.7028 H   0  0  0  0  0  0  0  0  0  0  0  0
   39.4400   23.3799   39.6094 H   0  0  0  0  0  0  0  0  0  0  0  0
   36.9810   23.4362   39.0598 H   0  0  0  0  0  0  0  0  0  0  0  0
   39.0065   24.3018   33.7727 H   0  0  0  0  0  0  0  0  0  0  0  0
   39.3988   24.1475   31.3248 H   0  0  0  0  0  0  0  0  0  0  0  0
   38.1352   23.3550   30.2794 H   0  0  0  0  0  0  0  0  0  0  0  0
   34.7370   26.9069   31.2954 H   0  0  0  0  0  0  0  0  0  0  0  0
   38.1392   29.5886   29.8360 H   0  0  0  0  0  0  0  0  0  0  0  0
   40.5750   29.3150   29.3351 H   0  0  0  0  0  0  0  0  0  0  0  0
   41.6172   27.0904   29.6376 H   0  0  0  0  0  0  0  0  0  0  0  0
   40.3032   25.1461   30.4266 H   0  0  0  0  0  0  0  0  0  0  0  0
  1  2  2  0
  3  2  1  0
  4  3  2  0
  5  6  2  0
  5  4  1  0
  6  1  1  0
  7  5  1  0
  8  7  1  0
  9  8  2  0
 10  9  1  0
 10 12  1  0
 11 10  2  0
 12 13  1  0
 13  7  1  0
 13 14  2  0
 15 12  1  0
 15 18  1  0
 16 15  1  0
 17 15  1  0
 19  9  1  0
 20 19  1  0
 20 21  2  0
 22 21  1  0
 23 22  2  0
 24 29  2  0
 24 23  1  0
 25 24  1  0
 26 27  1  0
 26 25  2  0
 27 28  2  0
 28 29  1  0
 29 20  1  0
  1 30  1  0
  2 31  1  0
  3 32  1  0
  8 33  1  0
 19 34  1  0
 19 35  1  0
 22 36  1  0
 25 37  1  0
 26 38  1  0
 27 39  1  0
 28 40  1  0
M  ISO  8  30  14  31  14  32  14  33  14  34   8  35   8  36  14  37  14
M  ISO  3  38  14  39  14  40  14
M  END
>  <minimizedAffinity>  (1) 
-6.51272154

>  <minimizedRMSD>  (1) 
2.39628625

$$$$
