
     RDKit          3D

 39 41  0  0  0  0  0  0  0  0999 V2000
   39.9600   23.0350   37.5490 C   0  0  0  0  0  0  0  0  0  0  0  0
   39.0590   23.2370   38.6140 C   0  0  0  0  0  0  0  0  0  0  0  0
   37.7050   23.2660   38.2860 C   0  0  0  0  0  0  0  0  0  0  0  0
   37.3060   23.1070   36.9910 N   0  0  0  0  0  0  0  0  0  0  0  0
   38.2050   22.9170   36.0110 C   0  0  0  0  0  0  0  0  0  0  0  0
   39.5100   22.8840   36.2930 N   0  0  0  0  0  0  0  0  0  0  0  0
   37.8530   22.7440   34.6390 N   0  0  0  0  0  0  0  0  0  0  0  0
   38.3420   23.4910   33.6310 C   0  0  0  0  0  0  0  0  0  0  0  0
   37.9040   23.2070   32.3440 C   0  0  0  0  0  0  0  0  0  0  0  0
   36.9980   22.1840   32.1460 C   0  0  0  0  0  0  0  0  0  0  0  0
   36.6030   21.9270   30.9860 O   0  0  0  0  0  0  0  0  0  0  0  0
   36.5070   21.4400   33.1320 N   0  0  0  0  0  0  0  0  0  0  0  0
   36.9600   21.7500   34.3720 C   0  0  0  0  0  0  0  0  0  0  0  0
   36.4950   21.0410   35.3160 O   0  0  0  0  0  0  0  0  0  0  0  0
   35.5530   20.3540   32.9460 C   0  0  0  0  0  0  0  0  0  0  0  0
   36.1080   19.4130   32.0530 F   0  0  0  0  0  0  0  0  0  0  0  0
   34.3630   20.8030   32.4600 F   0  0  0  0  0  0  0  0  0  0  0  0
   35.3830   19.7240   34.1790 F   0  0  0  0  0  0  0  0  0  0  0  0
   38.4020   23.9890   31.2230 C   0  0  0  0  0  0  0  0  0  0  0  0
   36.7030   27.9370   30.9780 C   0  0  0  0  0  0  0  0  0  0  0  0
   35.9450   26.7880   31.0480 C   0  0  0  0  0  0  0  0  0  0  0  0
   36.4960   25.5270   31.1250 C   0  0  0  0  0  0  0  0  0  0  0  0
   37.8890   25.3760   31.1350 C   0  0  0  0  0  0  0  0  0  0  0  0
   38.6230   26.5380   31.0650 C   0  0  0  0  0  0  0  0  0  0  0  0
   38.0920   27.8060   30.9880 C   0  0  0  0  0  0  0  0  0  0  0  0
   36.0910   29.5730   30.8740 S   0  0  0  0  0  0  0  0  0  0  0  0
   35.5990   29.9160   32.2600 O   0  0  0  0  0  0  0  0  0  0  0  0
   37.2080   30.5050   30.5760 O   0  0  0  0  0  0  0  0  0  0  0  0
   41.0412   23.0008   37.7486 H   0  0  0  0  0  0  0  0  0  0  0  0
   39.4065   23.3650   39.6498 H   0  0  0  0  0  0  0  0  0  0  0  0
   36.9540   23.4179   39.0752 H   0  0  0  0  0  0  0  0  0  0  0  0
   39.0640   24.2989   33.8205 H   0  0  0  0  0  0  0  0  0  0  0  0
   39.4979   24.0375   31.3039 H   0  0  0  0  0  0  0  0  0  0  0  0
   38.0465   23.4775   30.3164 H   0  0  0  0  0  0  0  0  0  0  0  0
   34.8490   26.8818   31.0421 H   0  0  0  0  0  0  0  0  0  0  0  0
   35.8445   24.6423   31.1784 H   0  0  0  0  0  0  0  0  0  0  0  0
   39.7192   26.4467   31.0710 H   0  0  0  0  0  0  0  0  0  0  0  0
   38.7441   28.6903   30.9359 H   0  0  0  0  0  0  0  0  0  0  0  0
   35.1251   29.6728   29.9076 H   0  0  0  0  0  0  0  0  0  0  0  0
  1  2  2  0
  3  2  1  0
  4  3  2  0
  5  6  2  0
  5  4  1  0
  6  1  1  0
  7  5  1  0
  8  7  1  0
  9  8  2  0
 10  9  1  0
 10 12  1  0
 11 10  2  0
 12 13  1  0
 13  7  1  0
 13 14  2  0
 15 12  1  0
 15 18  1  0
 16 15  1  0
 17 15  1  0
 19  9  1  0
 20 25  2  0
 20 21  1  0
 21 22  2  0
 22 23  1  0
 23 19  1  0
 24 23  2  0
 25 24  1  0
 26 20  1  0
 26 27  2  0
 28 26  2  0
  1 29  1  0
  2 30  1  0
  3 31  1  0
  8 32  1  0
 19 33  1  0
 19 34  1  0
 21 35  1  0
 22 36  1  0
 24 37  1  0
 25 38  1  0
 26 39  1  0
M  ISO  8  29  14  30  14  31  14  32  14  33   8  34   8  35  14  36  14
M  ISO  3  37  14  38  14  39  11
M  END
>  <minimizedAffinity>  (1) 
-6.22468519

>  <minimizedRMSD>  (1) 
1.37826395

$$$$
