
     RDKit          3D

 34 36  0  0  0  0  0  0  0  0999 V2000
   39.9590   23.0200   37.5740 C   0  0  0  0  0  0  0  0  0  0  0  0
   39.0580   23.2470   38.6240 C   0  0  0  0  0  0  0  0  0  0  0  0
   37.6940   23.3010   38.2930 C   0  0  0  0  0  0  0  0  0  0  0  0
   37.3110   23.1350   36.9910 N   0  0  0  0  0  0  0  0  0  0  0  0
   38.2310   22.9180   36.0160 C   0  0  0  0  0  0  0  0  0  0  0  0
   39.5220   22.8620   36.3020 N   0  0  0  0  0  0  0  0  0  0  0  0
   37.8700   22.7390   34.6430 N   0  0  0  0  0  0  0  0  0  0  0  0
   38.3760   23.4880   33.6280 C   0  0  0  0  0  0  0  0  0  0  0  0
   37.9370   23.2050   32.3490 C   0  0  0  0  0  0  0  0  0  0  0  0
   37.0320   22.2030   32.1510 C   0  0  0  0  0  0  0  0  0  0  0  0
   36.6330   21.9470   30.9780 O   0  0  0  0  0  0  0  0  0  0  0  0
   36.5200   21.4520   33.1320 N   0  0  0  0  0  0  0  0  0  0  0  0
   36.9780   21.7660   34.3650 C   0  0  0  0  0  0  0  0  0  0  0  0
   36.4970   21.0570   35.3170 O   0  0  0  0  0  0  0  0  0  0  0  0
   35.5540   20.3830   32.9440 C   0  0  0  0  0  0  0  0  0  0  0  0
   36.0950   19.4360   32.0590 F   0  0  0  0  0  0  0  0  0  0  0  0
   34.3640   20.8420   32.4570 F   0  0  0  0  0  0  0  0  0  0  0  0
   35.3700   19.7530   34.1810 F   0  0  0  0  0  0  0  0  0  0  0  0
   38.4450   23.9750   31.2220 C   0  0  0  0  0  0  0  0  0  0  0  0
   37.8000   25.2770   31.0280 C   0  0  0  0  0  0  0  0  0  0  0  0
   38.6270   26.3080   30.5650 C   0  0  0  0  0  0  0  0  0  0  0  0
   38.1350   27.5710   30.3460 C   0  0  0  0  0  0  0  0  0  0  0  0
   36.8360   27.8280   30.5760 N   0  0  0  0  0  0  0  0  0  0  0  0
   36.0360   26.8450   31.0210 C   0  0  0  0  0  0  0  0  0  0  0  0
   36.4920   25.5810   31.2490 N   0  0  0  0  0  0  0  0  0  0  0  0
   41.0371   22.9695   37.7866 H   0  0  0  0  0  0  0  0  0  0  0  0
   39.4037   23.3769   39.6602 H   0  0  0  0  0  0  0  0  0  0  0  0
   36.9401   23.4754   39.0748 H   0  0  0  0  0  0  0  0  0  0  0  0
   39.1065   24.2883   33.8175 H   0  0  0  0  0  0  0  0  0  0  0  0
   39.5200   24.1457   31.3806 H   0  0  0  0  0  0  0  0  0  0  0  0
   38.2286   23.3841   30.3198 H   0  0  0  0  0  0  0  0  0  0  0  0
   39.6904   26.1021   30.3732 H   0  0  0  0  0  0  0  0  0  0  0  0
   38.8006   28.3685   29.9841 H   0  0  0  0  0  0  0  0  0  0  0  0
   34.9752   27.0681   31.2080 H   0  0  0  0  0  0  0  0  0  0  0  0
  1  2  2  0
  3  2  1  0
  4  3  2  0
  5  6  2  0
  5  4  1  0
  6  1  1  0
  7  5  1  0
  8  7  1  0
  9  8  2  0
 10  9  1  0
 10 12  1  0
 11 10  2  0
 12 13  1  0
 13  7  1  0
 13 14  2  0
 15 12  1  0
 15 18  1  0
 16 15  1  0
 17 15  1  0
 19  9  1  0
 20 19  1  0
 20 25  1  0
 21 20  2  0
 22 21  1  0
 22 23  2  0
 23 24  1  0
 24 25  2  0
  1 26  1  0
  2 27  1  0
  3 28  1  0
  8 29  1  0
 19 30  1  0
 19 31  1  0
 21 32  1  0
 22 33  1  0
 24 34  1  0
M  ISO  8  26  14  27  14  28  14  29  14  30   8  31   8  32  14  33  14
M  ISO  1  34  14
M  END
>  <minimizedAffinity>  (1) 
-5.86443233

>  <minimizedRMSD>  (1) 
2.31933999

$$$$
