
     RDKit          3D

 44 48  0  0  0  0  0  0  0  0999 V2000
   41.3050   25.8610   33.9810 C   0  0  0  0  0  0  0  0  0  0  0  0
   41.6100   22.7440   35.9950 C   0  0  0  0  0  0  0  0  0  0  0  0
   40.9260   21.8310   35.1800 C   0  0  0  0  0  0  0  0  0  0  0  0
   40.3790   22.2660   33.9840 C   0  0  0  0  0  0  0  0  0  0  0  0
   40.5470   23.5890   33.6700 N   0  0  0  0  0  0  0  0  0  0  0  0
   41.2160   24.4500   34.4790 C   0  0  0  0  0  0  0  0  0  0  0  0
   41.7360   24.0320   35.6200 N   0  0  0  0  0  0  0  0  0  0  0  0
   39.6370   21.3720   33.0540 C   0  0  0  0  0  0  0  0  0  0  0  0
   40.3190   20.6530   32.0580 C   0  0  0  0  0  0  0  0  0  0  0  0
   38.9280   19.7700   31.2570 S   0  0  0  0  0  0  0  0  0  0  0  0
   37.6650   20.5460   32.4300 C   0  0  0  0  0  0  0  0  0  0  0  0
   38.3360   21.2910   33.2020 N   0  0  0  0  0  0  0  0  0  0  0  0
   36.2650   20.1660   32.2370 C   0  0  0  0  0  0  0  0  0  0  0  0
   35.1590   20.9710   32.1830 C   0  0  0  0  0  0  0  0  0  0  0  0
   34.1340   20.0390   31.9820 C   0  0  0  0  0  0  0  0  0  0  0  0
   34.6400   18.7710   31.9270 N   0  0  0  0  0  0  0  0  0  0  0  0
   35.9700   18.8860   32.0900 N   0  0  0  0  0  0  0  0  0  0  0  0
   40.4980   26.7790   34.8580 C   0  0  0  0  0  0  0  0  0  0  0  0
   39.1750   27.1110   34.2650 C   0  0  0  0  0  0  0  0  0  0  0  0
   38.0710   27.1980   35.0720 C   0  0  0  0  0  0  0  0  0  0  0  0
   36.7840   27.5030   34.6240 C   0  0  0  0  0  0  0  0  0  0  0  0
   36.6550   27.7220   33.2810 N   0  0  0  0  0  0  0  0  0  0  0  0
   37.7520   27.6370   32.4740 C   0  0  0  0  0  0  0  0  0  0  0  0
   38.9880   27.3350   32.9680 N   0  0  0  0  0  0  0  0  0  0  0  0
   37.6520   27.8650   31.0360 C   0  0  0  0  0  0  0  0  0  0  0  0
   38.8130   28.0710   30.2780 C   0  0  0  0  0  0  0  0  0  0  0  0
   38.3790   28.2570   28.9490 C   0  0  0  0  0  0  0  0  0  0  0  0
   37.0070   28.1600   28.9580 N   0  0  0  0  0  0  0  0  0  0  0  0
   36.5900   27.9290   30.1910 N   0  0  0  0  0  0  0  0  0  0  0  0
   42.3568   26.1829   33.9903 H   0  0  0  0  0  0  0  0  0  0  0  0
   40.9055   25.9036   32.9570 H   0  0  0  0  0  0  0  0  0  0  0  0
   42.0466   22.4067   36.9466 H   0  0  0  0  0  0  0  0  0  0  0  0
   40.8247   20.7797   35.4873 H   0  0  0  0  0  0  0  0  0  0  0  0
   41.3934   20.6273   31.8235 H   0  0  0  0  0  0  0  0  0  0  0  0
   35.0930   22.0652   32.2739 H   0  0  0  0  0  0  0  0  0  0  0  0
   33.0683   20.2925   31.8821 H   0  0  0  0  0  0  0  0  0  0  0  0
   34.1083   17.8998   31.7882 H   0  0  0  0  0  0  0  0  0  0  0  0
   40.3368   26.2884   35.8293 H   0  0  0  0  0  0  0  0  0  0  0  0
   41.0609   27.7175   34.9692 H   0  0  0  0  0  0  0  0  0  0  0  0
   38.2081   27.0148   36.1479 H   0  0  0  0  0  0  0  0  0  0  0  0
   35.9263   27.5633   35.3101 H   0  0  0  0  0  0  0  0  0  0  0  0
   39.8500   28.0848   30.6446 H   0  0  0  0  0  0  0  0  0  0  0  0
   39.0164   28.4440   28.0722 H   0  0  0  0  0  0  0  0  0  0  0  0
   36.3987   28.2529   28.1320 H   0  0  0  0  0  0  0  0  0  0  0  0
  1  6  1  0
  1 18  1  0
  3  2  2  0
  4  3  1  0
  5  4  2  0
  5  6  1  0
  6  7  2  0
  7  2  1  0
  8 12  1  0
  8  4  1  0
  9  8  2  0
 10  9  1  0
 10 11  1  0
 11 12  2  0
 13 11  1  0
 14 13  1  0
 15 14  2  0
 16 15  1  0
 16 17  1  0
 17 13  2  0
 19 18  1  0
 19 20  2  0
 21 20  1  0
 22 21  2  0
 23 24  2  0
 23 22  1  0
 24 19  1  0
 25 23  1  0
 26 25  1  0
 27 28  1  0
 27 26  2  0
 28 29  1  0
 29 25  2  0
  1 30  1  0
  1 31  1  0
  2 32  1  0
  3 33  1  0
  9 34  1  0
 14 35  1  0
 15 36  1  0
 16 37  1  0
 18 38  1  0
 18 39  1  0
 20 40  1  0
 21 41  1  0
 26 42  1  0
 27 43  1  0
 28 44  1  0
M  ISO  8  30   8  31   8  32  14  33  14  34  14  35  14  36  14  37   9
M  ISO  7  38   8  39   8  40  14  41  14  42  14  43  14  44   9
M  END
>  <minimizedAffinity>  (1) 
-5.53178787

>  <minimizedRMSD>  (1) 
2.62128782

$$$$
