
     RDKit          3D

 32 34  0  0  0  0  0  0  0  0999 V2000
   39.9590   23.0350   37.5510 C   0  0  0  0  0  0  0  0  0  0  0  0
   39.0670   23.2380   38.6070 C   0  0  0  0  0  0  0  0  0  0  0  0
   37.7100   23.2740   38.2770 C   0  0  0  0  0  0  0  0  0  0  0  0
   37.3140   23.1160   36.9880 N   0  0  0  0  0  0  0  0  0  0  0  0
   38.2260   22.9200   36.0010 C   0  0  0  0  0  0  0  0  0  0  0  0
   39.5260   22.8820   36.2860 N   0  0  0  0  0  0  0  0  0  0  0  0
   37.8580   22.7490   34.6330 N   0  0  0  0  0  0  0  0  0  0  0  0
   38.3600   23.5070   33.6240 C   0  0  0  0  0  0  0  0  0  0  0  0
   37.9200   23.2390   32.3410 C   0  0  0  0  0  0  0  0  0  0  0  0
   37.0060   22.2320   32.1320 C   0  0  0  0  0  0  0  0  0  0  0  0
   36.6010   21.9810   30.9680 O   0  0  0  0  0  0  0  0  0  0  0  0
   36.5040   21.4780   33.1120 N   0  0  0  0  0  0  0  0  0  0  0  0
   36.9650   21.7780   34.3520 C   0  0  0  0  0  0  0  0  0  0  0  0
   36.4940   21.0680   35.2940 O   0  0  0  0  0  0  0  0  0  0  0  0
   35.5390   20.4090   32.9200 C   0  0  0  0  0  0  0  0  0  0  0  0
   36.0780   19.4620   32.0330 F   0  0  0  0  0  0  0  0  0  0  0  0
   34.3510   20.8670   32.4440 F   0  0  0  0  0  0  0  0  0  0  0  0
   35.3750   19.7620   34.1600 F   0  0  0  0  0  0  0  0  0  0  0  0
   38.4190   24.0140   31.2200 C   0  0  0  0  0  0  0  0  0  0  0  0
   37.8960   25.4000   31.1510 C   0  0  0  0  0  0  0  0  0  0  0  0
   38.7890   26.5530   31.1450 C   0  0  0  0  0  0  0  0  0  0  0  0
   37.5920   27.9120   31.0530 S   0  0  0  0  0  0  0  0  0  0  0  0
   36.1000   26.7230   31.0370 C   0  0  0  0  0  0  0  0  0  0  0  0
   36.6030   25.6640   31.0930 N   0  0  0  0  0  0  0  0  0  0  0  0
   41.0387   22.9995   37.7581 H   0  0  0  0  0  0  0  0  0  0  0  0
   39.4147   23.3628   39.6431 H   0  0  0  0  0  0  0  0  0  0  0  0
   36.9589   23.4311   39.0651 H   0  0  0  0  0  0  0  0  0  0  0  0
   39.0905   24.3056   33.8205 H   0  0  0  0  0  0  0  0  0  0  0  0
   39.5152   24.0636   31.2971 H   0  0  0  0  0  0  0  0  0  0  0  0
   38.0753   23.5035   30.3083 H   0  0  0  0  0  0  0  0  0  0  0  0
   39.8877   26.5885   31.1853 H   0  0  0  0  0  0  0  0  0  0  0  0
   35.0292   26.9698   30.9874 H   0  0  0  0  0  0  0  0  0  0  0  0
  1  2  2  0
  3  2  1  0
  4  3  2  0
  5  6  2  0
  5  4  1  0
  6  1  1  0
  7  5  1  0
  8  7  1  0
  9  8  2  0
 10  9  1  0
 10 12  1  0
 11 10  2  0
 12 13  1  0
 13  7  1  0
 13 14  2  0
 15 12  1  0
 15 18  1  0
 16 15  1  0
 17 15  1  0
 19  9  1  0
 20 19  1  0
 21 20  2  0
 22 21  1  0
 23 22  1  0
 23 24  2  0
 24 20  1  0
  1 25  1  0
  2 26  1  0
  3 27  1  0
  8 28  1  0
 19 29  1  0
 19 30  1  0
 21 31  1  0
 23 32  1  0
M  ISO  8  25  14  26  14  27  14  28  14  29   8  30   8  31  14  32  14
M  END
>  <minimizedAffinity>  (1) 
-5.65193415

>  <minimizedRMSD>  (1) 
2.05875421

$$$$
