
     RDKit          3D

 39 41  0  0  0  0  0  0  0  0999 V2000
   39.9580   22.9440   37.6960 C   0  0  0  0  0  0  0  0  0  0  0  0
   39.0430   23.2320   38.7140 C   0  0  0  0  0  0  0  0  0  0  0  0
   37.7060   23.3480   38.3360 C   0  0  0  0  0  0  0  0  0  0  0  0
   37.3490   23.1810   37.0260 N   0  0  0  0  0  0  0  0  0  0  0  0
   38.2840   22.9030   36.0800 C   0  0  0  0  0  0  0  0  0  0  0  0
   39.5700   22.7860   36.4130 N   0  0  0  0  0  0  0  0  0  0  0  0
   37.9590   22.7200   34.7020 N   0  0  0  0  0  0  0  0  0  0  0  0
   38.5540   23.4210   33.6940 C   0  0  0  0  0  0  0  0  0  0  0  0
   38.1380   23.1380   32.4060 C   0  0  0  0  0  0  0  0  0  0  0  0
   37.1760   22.1930   32.1850 C   0  0  0  0  0  0  0  0  0  0  0  0
   36.8040   21.9430   31.0070 O   0  0  0  0  0  0  0  0  0  0  0  0
   36.5850   21.4980   33.1660 N   0  0  0  0  0  0  0  0  0  0  0  0
   37.0060   21.7920   34.4150 C   0  0  0  0  0  0  0  0  0  0  0  0
   36.4600   21.1470   35.3540 O   0  0  0  0  0  0  0  0  0  0  0  0
   35.5580   20.4890   32.9490 C   0  0  0  0  0  0  0  0  0  0  0  0
   36.0770   19.4700   32.1360 F   0  0  0  0  0  0  0  0  0  0  0  0
   34.4310   20.9960   32.3960 F   0  0  0  0  0  0  0  0  0  0  0  0
   35.2870   19.9010   34.1990 F   0  0  0  0  0  0  0  0  0  0  0  0
   38.7330   23.8540   31.2790 C   0  0  0  0  0  0  0  0  0  0  0  0
   38.7120   25.3390   31.5840 C   0  0  0  0  0  0  0  0  0  0  0  0
   39.8010   26.0970   30.8360 C   0  0  0  0  0  0  0  0  0  0  0  0
   39.2420   27.4730   30.5720 C   0  0  0  0  0  0  0  0  0  0  0  0
   37.8580   27.4960   31.1970 C   0  0  0  0  0  0  0  0  0  0  0  0
   37.4530   26.0180   31.1160 C   0  0  0  0  0  0  0  0  0  0  0  0
   41.0240   22.8434   37.9482 H   0  0  0  0  0  0  0  0  0  0  0  0
   39.3618   23.3604   39.7589 H   0  0  0  0  0  0  0  0  0  0  0  0
   36.9384   23.5737   39.0909 H   0  0  0  0  0  0  0  0  0  0  0  0
   39.3282   24.1758   33.8964 H   0  0  0  0  0  0  0  0  0  0  0  0
   38.1530   23.6550   30.3657 H   0  0  0  0  0  0  0  0  0  0  0  0
   39.7685   23.5168   31.1240 H   0  0  0  0  0  0  0  0  0  0  0  0
   38.8294   25.3724   32.6772 H   0  0  0  0  0  0  0  0  0  0  0  0
   40.7106   26.1653   31.4508 H   0  0  0  0  0  0  0  0  0  0  0  0
   40.0774   25.5877   29.9010 H   0  0  0  0  0  0  0  0  0  0  0  0
   39.8817   28.2394   31.0340 H   0  0  0  0  0  0  0  0  0  0  0  0
   39.1983   27.6875   29.4940 H   0  0  0  0  0  0  0  0  0  0  0  0
   37.8950   27.8447   32.2396 H   0  0  0  0  0  0  0  0  0  0  0  0
   37.1548   28.1788   30.6977 H   0  0  0  0  0  0  0  0  0  0  0  0
   36.6052   25.7961   31.7809 H   0  0  0  0  0  0  0  0  0  0  0  0
   37.1136   25.6987   30.1196 H   0  0  0  0  0  0  0  0  0  0  0  0
  1  2  2  0
  3  2  1  0
  4  3  2  0
  5  6  2  0
  5  4  1  0
  6  1  1  0
  7  5  1  0
  8  7  1  0
  9  8  2  0
 10  9  1  0
 10 12  1  0
 11 10  2  0
 12 13  1  0
 13  7  1  0
 13 14  2  0
 15 12  1  0
 15 18  1  0
 16 15  1  0
 17 15  1  0
 19 20  1  0
 19  9  1  0
 21 20  1  0
 22 21  1  0
 22 23  1  0
 24 23  1  0
 24 20  1  0
  1 25  1  0
  2 26  1  0
  3 27  1  0
  8 28  1  0
 19 29  1  0
 19 30  1  0
 20 31  1  0
 21 32  1  0
 21 33  1  0
 22 34  1  0
 22 35  1  0
 23 36  1  0
 23 37  1  0
 24 38  1  0
 24 39  1  0
M  ISO  8  25  14  26  14  27  14  28  14  29   8  30   8  31  13  32  13
M  ISO  7  33  13  34  13  35  13  36  13  37  13  38  13  39  13
M  END
>  <minimizedAffinity>  (1) 
-5.63619423

>  <minimizedRMSD>  (1) 
2.80058002

$$$$
