
     RDKit          3D

 33 35  0  0  0  0  0  0  0  0999 V2000
   39.9790   23.0350   37.5670 C   0  0  0  0  0  0  0  0  0  0  0  0
   39.0940   23.2240   38.6310 C   0  0  0  0  0  0  0  0  0  0  0  0
   37.7340   23.2630   38.3170 C   0  0  0  0  0  0  0  0  0  0  0  0
   37.3410   23.1220   37.0280 N   0  0  0  0  0  0  0  0  0  0  0  0
   38.2240   22.9410   36.0270 C   0  0  0  0  0  0  0  0  0  0  0  0
   39.5320   22.8990   36.3000 N   0  0  0  0  0  0  0  0  0  0  0  0
   37.8550   22.7870   34.6550 N   0  0  0  0  0  0  0  0  0  0  0  0
   38.3500   23.5530   33.6460 C   0  0  0  0  0  0  0  0  0  0  0  0
   37.9060   23.2940   32.3730 C   0  0  0  0  0  0  0  0  0  0  0  0
   36.9910   22.2850   32.1590 C   0  0  0  0  0  0  0  0  0  0  0  0
   36.5900   22.0540   30.9860 O   0  0  0  0  0  0  0  0  0  0  0  0
   36.4970   21.5270   33.1350 N   0  0  0  0  0  0  0  0  0  0  0  0
   36.9550   21.8080   34.3780 C   0  0  0  0  0  0  0  0  0  0  0  0
   36.4900   21.0930   35.3120 O   0  0  0  0  0  0  0  0  0  0  0  0
   35.5330   20.4590   32.9260 C   0  0  0  0  0  0  0  0  0  0  0  0
   36.0950   19.4770   32.1100 F   0  0  0  0  0  0  0  0  0  0  0  0
   34.3640   20.9150   32.3880 F   0  0  0  0  0  0  0  0  0  0  0  0
   35.2760   19.8750   34.1840 F   0  0  0  0  0  0  0  0  0  0  0  0
   38.4050   24.0800   31.2520 C   0  0  0  0  0  0  0  0  0  0  0  0
   37.7690   25.3740   31.1220 N   0  0  0  0  0  0  0  0  0  0  0  0
   36.5200   25.7950   31.0370 N   0  0  0  0  0  0  0  0  0  0  0  0
   36.4650   27.1150   30.9280 C   0  0  0  0  0  0  0  0  0  0  0  0
   37.7530   27.6280   30.9380 C   0  0  0  0  0  0  0  0  0  0  0  0
   38.5410   26.4990   31.0620 C   0  0  0  0  0  0  0  0  0  0  0  0
   41.0604   22.9962   37.7649 H   0  0  0  0  0  0  0  0  0  0  0  0
   39.4509   23.3366   39.6654 H   0  0  0  0  0  0  0  0  0  0  0  0
   36.9865   23.4073   39.1110 H   0  0  0  0  0  0  0  0  0  0  0  0
   39.0802   24.3517   33.8430 H   0  0  0  0  0  0  0  0  0  0  0  0
   39.4851   24.2358   31.3902 H   0  0  0  0  0  0  0  0  0  0  0  0
   38.1772   23.5154   30.3358 H   0  0  0  0  0  0  0  0  0  0  0  0
   35.5433   27.7093   30.8431 H   0  0  0  0  0  0  0  0  0  0  0  0
   38.0708   28.6786   30.8650 H   0  0  0  0  0  0  0  0  0  0  0  0
   39.6401   26.5058   31.1063 H   0  0  0  0  0  0  0  0  0  0  0  0
  1  2  2  0
  3  2  1  0
  4  3  2  0
  5  6  2  0
  5  4  1  0
  6  1  1  0
  7  5  1  0
  8  7  1  0
  9  8  2  0
 10  9  1  0
 10 12  1  0
 11 10  2  0
 12 13  1  0
 13  7  1  0
 13 14  2  0
 15 12  1  0
 15 18  1  0
 16 15  1  0
 17 15  1  0
 19  9  1  0
 20 19  1  0
 21 20  1  0
 22 23  1  0
 22 21  2  0
 23 24  2  0
 24 20  1  0
  1 25  1  0
  2 26  1  0
  3 27  1  0
  8 28  1  0
 19 29  1  0
 19 30  1  0
 22 31  1  0
 23 32  1  0
 24 33  1  0
M  ISO  8  25  14  26  14  27  14  28  14  29   8  30   8  31  14  32  14
M  ISO  1  33  14
M  END
>  <minimizedAffinity>  (1) 
-5.61410522

>  <minimizedRMSD>  (1) 
1.02053964

$$$$
