
     RDKit          3D

 42 44  0  0  0  0  0  0  0  0999 V2000
   40.0740   23.0500   37.1670 C   0  0  0  0  0  0  0  0  0  0  0  0
   39.2630   23.2310   38.2860 C   0  0  0  0  0  0  0  0  0  0  0  0
   37.8820   23.2210   38.0750 C   0  0  0  0  0  0  0  0  0  0  0  0
   37.4020   23.0400   36.8120 N   0  0  0  0  0  0  0  0  0  0  0  0
   38.2290   22.8700   35.7580 C   0  0  0  0  0  0  0  0  0  0  0  0
   39.5390   22.8760   35.9420 N   0  0  0  0  0  0  0  0  0  0  0  0
   37.7690   22.6790   34.4210 N   0  0  0  0  0  0  0  0  0  0  0  0
   38.1580   23.4440   33.3760 C   0  0  0  0  0  0  0  0  0  0  0  0
   37.6310   23.1540   32.1210 C   0  0  0  0  0  0  0  0  0  0  0  0
   36.7390   22.1030   32.0120 C   0  0  0  0  0  0  0  0  0  0  0  0
   36.2540   21.8370   30.8820 O   0  0  0  0  0  0  0  0  0  0  0  0
   36.3460   21.3420   33.0240 N   0  0  0  0  0  0  0  0  0  0  0  0
   36.8890   21.6650   34.2250 C   0  0  0  0  0  0  0  0  0  0  0  0
   36.5250   20.9500   35.2020 O   0  0  0  0  0  0  0  0  0  0  0  0
   35.4080   20.2370   32.9070 C   0  0  0  0  0  0  0  0  0  0  0  0
   35.9710   19.2460   32.1090 F   0  0  0  0  0  0  0  0  0  0  0  0
   34.2080   20.6500   32.3870 F   0  0  0  0  0  0  0  0  0  0  0  0
   35.2240   19.7120   34.1920 F   0  0  0  0  0  0  0  0  0  0  0  0
   38.0340   23.9320   30.9680 C   0  0  0  0  0  0  0  0  0  0  0  0
   39.3560   23.6920   30.3600 C   0  0  0  0  0  0  0  0  0  0  0  0
   39.5220   24.7080   29.2230 C   0  0  0  0  0  0  0  0  0  0  0  0
   39.7350   24.0440   27.8880 C   0  0  0  0  0  0  0  0  0  0  0  0
   40.9890   23.2310   27.9510 C   0  0  0  0  0  0  0  0  0  0  0  0
   40.8580   22.2010   29.0410 C   0  0  0  0  0  0  0  0  0  0  0  0
   39.5060   22.3400   29.7590 C   0  0  0  0  0  0  0  0  0  0  0  0
   41.1676   23.0491   37.2853 H   0  0  0  0  0  0  0  0  0  0  0  0
   39.6906   23.3751   39.2892 H   0  0  0  0  0  0  0  0  0  0  0  0
   37.1896   23.3577   38.9187 H   0  0  0  0  0  0  0  0  0  0  0  0
   38.8700   24.2711   33.5138 H   0  0  0  0  0  0  0  0  0  0  0  0
   37.2834   23.7550   30.1836 H   0  0  0  0  0  0  0  0  0  0  0  0
   38.1104   24.9570   31.3599 H   0  0  0  0  0  0  0  0  0  0  0  0
   40.1057   23.7836   31.1597 H   0  0  0  0  0  0  0  0  0  0  0  0
   38.6155   25.3287   29.1685 H   0  0  0  0  0  0  0  0  0  0  0  0
   40.4128   25.3150   29.4422 H   0  0  0  0  0  0  0  0  0  0  0  0
   39.8297   24.8102   27.1045 H   0  0  0  0  0  0  0  0  0  0  0  0
   38.8791   23.3948   27.6517 H   0  0  0  0  0  0  0  0  0  0  0  0
   41.1495   22.7273   26.9864 H   0  0  0  0  0  0  0  0  0  0  0  0
   41.8447   23.8882   28.1650 H   0  0  0  0  0  0  0  0  0  0  0  0
   40.9308   21.1962   28.5992 H   0  0  0  0  0  0  0  0  0  0  0  0
   41.6649   22.3552   29.7726 H   0  0  0  0  0  0  0  0  0  0  0  0
   38.6954   22.1773   29.0334 H   0  0  0  0  0  0  0  0  0  0  0  0
   39.4594   21.5923   30.5644 H   0  0  0  0  0  0  0  0  0  0  0  0
  1  2  2  0
  3  2  1  0
  4  3  2  0
  5  6  2  0
  5  4  1  0
  6  1  1  0
  7  5  1  0
  8  7  1  0
  9  8  2  0
 10  9  1  0
 10 12  1  0
 11 10  2  0
 12 13  1  0
 13  7  1  0
 13 14  2  0
 15 12  1  0
 15 18  1  0
 16 15  1  0
 17 15  1  0
 19  9  1  0
 20 19  1  0
 21 20  1  0
 22 23  1  0
 22 21  1  0
 23 24  1  0
 24 25  1  0
 25 20  1  0
  1 26  1  0
  2 27  1  0
  3 28  1  0
  8 29  1  0
 19 30  1  0
 19 31  1  0
 20 32  1  0
 21 33  1  0
 21 34  1  0
 22 35  1  0
 22 36  1  0
 23 37  1  0
 23 38  1  0
 24 39  1  0
 24 40  1  0
 25 41  1  0
 25 42  1  0
M  ISO  8  26  14  27  14  28  14  29  14  30   8  31   8  32  13  33  13
M  ISO  8  34  13  35  13  36  13  37  13  38  13  39  13  40  13  41  13
M  ISO  1  42  13
M  END
>  <minimizedAffinity>  (1) 
-5.21212435

>  <minimizedRMSD>  (1) 
1.05381536

$$$$
