
     RDKit          3D

 33 35  0  0  0  0  0  0  0  0999 V2000
   39.9670   22.9230   37.7070 C   0  0  0  0  0  0  0  0  0  0  0  0
   39.0330   23.2470   38.7010 C   0  0  0  0  0  0  0  0  0  0  0  0
   37.7040   23.3880   38.3110 C   0  0  0  0  0  0  0  0  0  0  0  0
   37.3610   23.2110   37.0060 N   0  0  0  0  0  0  0  0  0  0  0  0
   38.2750   22.9020   36.0820 C   0  0  0  0  0  0  0  0  0  0  0  0
   39.5650   22.7590   36.4310 N   0  0  0  0  0  0  0  0  0  0  0  0
   37.9770   22.6970   34.6940 N   0  0  0  0  0  0  0  0  0  0  0  0
   38.5700   23.3480   33.6770 C   0  0  0  0  0  0  0  0  0  0  0  0
   38.1790   23.0400   32.4030 C   0  0  0  0  0  0  0  0  0  0  0  0
   37.2080   22.0900   32.2010 C   0  0  0  0  0  0  0  0  0  0  0  0
   36.8530   21.8110   31.0180 O   0  0  0  0  0  0  0  0  0  0  0  0
   36.6060   21.4330   33.1840 N   0  0  0  0  0  0  0  0  0  0  0  0
   37.0250   21.7710   34.4240 C   0  0  0  0  0  0  0  0  0  0  0  0
   36.4490   21.1420   35.3790 O   0  0  0  0  0  0  0  0  0  0  0  0
   35.5720   20.4300   32.9760 C   0  0  0  0  0  0  0  0  0  0  0  0
   36.0540   19.4120   32.1640 F   0  0  0  0  0  0  0  0  0  0  0  0
   34.4400   20.9650   32.4200 F   0  0  0  0  0  0  0  0  0  0  0  0
   35.2860   19.8660   34.2320 F   0  0  0  0  0  0  0  0  0  0  0  0
   38.7830   23.7280   31.2670 C   0  0  0  0  0  0  0  0  0  0  0  0
   39.0620   25.1880   31.4900 C   0  0  0  0  0  0  0  0  0  0  0  0
   38.0220   26.2110   31.2360 C   0  0  0  0  0  0  0  0  0  0  0  0
   39.0460   26.0210   30.1730 C   0  0  0  0  0  0  0  0  0  0  0  0
   41.0286   22.8025   37.9686 H   0  0  0  0  0  0  0  0  0  0  0  0
   39.3385   23.3845   39.7488 H   0  0  0  0  0  0  0  0  0  0  0  0
   36.9342   23.6415   39.0548 H   0  0  0  0  0  0  0  0  0  0  0  0
   39.3458   24.1050   33.8643 H   0  0  0  0  0  0  0  0  0  0  0  0
   38.1001   23.6372   30.4094 H   0  0  0  0  0  0  0  0  0  0  0  0
   39.7585   23.2487   31.0977 H   0  0  0  0  0  0  0  0  0  0  0  0
   39.7239   25.0008   32.3484 H   0  0  0  0  0  0  0  0  0  0  0  0
   36.9852   25.8935   31.0508 H   0  0  0  0  0  0  0  0  0  0  0  0
   37.6675   27.0872   31.7987 H   0  0  0  0  0  0  0  0  0  0  0  0
   38.7742   25.5459   29.2189 H   0  0  0  0  0  0  0  0  0  0  0  0
   39.7587   26.6673   29.6398 H   0  0  0  0  0  0  0  0  0  0  0  0
  1  2  2  0
  3  2  1  0
  4  3  2  0
  5  6  2  0
  5  4  1  0
  6  1  1  0
  7  5  1  0
  8  7  1  0
  9  8  2  0
 10  9  1  0
 10 12  1  0
 11 10  2  0
 12 13  1  0
 13  7  1  0
 13 14  2  0
 15 12  1  0
 15 18  1  0
 16 15  1  0
 17 15  1  0
 19 20  1  0
 19  9  1  0
 21 20  1  0
 22 21  1  0
 22 20  1  0
  1 23  1  0
  2 24  1  0
  3 25  1  0
  8 26  1  0
 19 27  1  0
 19 28  1  0
 20 29  1  0
 21 30  1  0
 21 31  1  0
 22 32  1  0
 22 33  1  0
M  ISO  8  23  14  24  14  25  14  26  14  27   8  28   8  29  13  30  13
M  ISO  3  31  13  32  13  33  13
M  END
>  <minimizedAffinity>  (1) 
-5.21141148

>  <minimizedRMSD>  (1) 
1.78666961

$$$$
