
     RDKit          3D

 27 28  0  0  0  0  0  0  0  0999 V2000
   40.0520   22.7900   37.7350 C   0  0  0  0  0  0  0  0  0  0  0  0
   39.1210   23.2730   38.6690 C   0  0  0  0  0  0  0  0  0  0  0  0
   37.8190   23.5180   38.2140 C   0  0  0  0  0  0  0  0  0  0  0  0
   37.5160   23.2820   36.9090 N   0  0  0  0  0  0  0  0  0  0  0  0
   38.4370   22.8200   36.0440 C   0  0  0  0  0  0  0  0  0  0  0  0
   39.6920   22.5760   36.4550 N   0  0  0  0  0  0  0  0  0  0  0  0
   38.1650   22.5560   34.6580 N   0  0  0  0  0  0  0  0  0  0  0  0
   38.8710   23.0900   33.6320 C   0  0  0  0  0  0  0  0  0  0  0  0
   38.4890   22.7420   32.3580 C   0  0  0  0  0  0  0  0  0  0  0  0
   37.4320   21.8900   32.1640 C   0  0  0  0  0  0  0  0  0  0  0  0
   37.0850   21.5740   30.9940 O   0  0  0  0  0  0  0  0  0  0  0  0
   36.7240   21.3530   33.1570 N   0  0  0  0  0  0  0  0  0  0  0  0
   37.1390   21.7270   34.4070 C   0  0  0  0  0  0  0  0  0  0  0  0
   36.4630   21.2160   35.3650 O   0  0  0  0  0  0  0  0  0  0  0  0
   35.5960   20.4450   32.9860 C   0  0  0  0  0  0  0  0  0  0  0  0
   36.0170   19.3650   32.1860 F   0  0  0  0  0  0  0  0  0  0  0  0
   34.5260   21.0580   32.4310 F   0  0  0  0  0  0  0  0  0  0  0  0
   35.2780   19.9320   34.2430 F   0  0  0  0  0  0  0  0  0  0  0  0
   39.2070   23.2890   31.2160 C   0  0  0  0  0  0  0  0  0  0  0  0
   40.6920   22.3570   30.7550 S   0  0  0  0  0  0  0  0  0  0  0  0
   41.0851   22.5845   38.0519 H   0  0  0  0  0  0  0  0  0  0  0  0
   39.4032   23.4519   39.7170 H   0  0  0  0  0  0  0  0  0  0  0  0
   37.0506   23.8968   38.9039 H   0  0  0  0  0  0  0  0  0  0  0  0
   39.7143   23.7732   33.8110 H   0  0  0  0  0  0  0  0  0  0  0  0
   38.5250   23.3000   30.3530 H   0  0  0  0  0  0  0  0  0  0  0  0
   39.5433   24.2952   31.5068 H   0  0  0  0  0  0  0  0  0  0  0  0
   41.3443   21.9476   31.8881 H   0  0  0  0  0  0  0  0  0  0  0  0
  1  2  2  0
  3  2  1  0
  4  3  2  0
  5  6  2  0
  5  4  1  0
  6  1  1  0
  7  5  1  0
  8  7  1  0
  9  8  2  0
 10  9  1  0
 10 12  1  0
 11 10  2  0
 12 13  1  0
 13  7  1  0
 13 14  2  0
 15 12  1  0
 15 18  1  0
 16 15  1  0
 17 15  1  0
 19  9  1  0
 20 19  1  0
  1 21  1  0
  2 22  1  0
  3 23  1  0
  8 24  1  0
 19 25  1  0
 19 26  1  0
 20 27  1  0
M  ISO  7  21  14  22  14  23  14  24  14  25   8  26   8  27  11
M  END
>  <minimizedAffinity>  (1) 
-5.05024672

>  <minimizedRMSD>  (1) 
0.124622606

$$$$
