
     RDKit          3D

 39 42  0  0  0  0  0  0  0  0999 V2000
   38.3460   24.0510   34.4650 C   0  0  0  0  0  0  0  0  0  0  0  0
   38.3940   25.0710   33.5180 C   0  0  0  0  0  0  0  0  0  0  0  0
   37.8540   24.8230   32.2630 C   0  0  0  0  0  0  0  0  0  0  0  0
   37.3070   23.6080   32.0180 N   0  0  0  0  0  0  0  0  0  0  0  0
   37.2780   22.6460   32.9540 C   0  0  0  0  0  0  0  0  0  0  0  0
   37.7970   22.8790   34.1690 N   0  0  0  0  0  0  0  0  0  0  0  0
   37.9370   25.9050   31.3490 N   0  0  0  0  0  0  0  0  0  0  0  0
   38.8230   26.0730   30.3430 C   0  0  0  0  0  0  0  0  0  0  0  0
   38.5620   27.2310   29.7090 N   0  0  0  0  0  0  0  0  0  0  0  0
   37.5110   27.7680   30.3360 C   0  0  0  0  0  0  0  0  0  0  0  0
   36.8600   28.9440   30.0740 C   0  0  0  0  0  0  0  0  0  0  0  0
   37.2480   29.6900   29.1160 O   0  0  0  0  0  0  0  0  0  0  0  0
   35.7950   29.3640   30.8040 N   0  0  0  0  0  0  0  0  0  0  0  0
   35.4290   28.5370   31.8030 C   0  0  0  0  0  0  0  0  0  0  0  0
   34.3080   28.9710   32.5760 N   0  0  0  0  0  0  0  0  0  0  0  0
   36.0200   27.3730   32.1140 N   0  0  0  0  0  0  0  0  0  0  0  0
   37.0800   26.9640   31.3820 C   0  0  0  0  0  0  0  0  0  0  0  0
   38.8540   24.1480   35.7890 N   0  0  0  0  0  0  0  0  0  0  0  0
   39.9980   23.4560   36.3140 C   0  0  0  0  0  0  0  0  0  0  0  0
   39.8540   22.7550   37.6000 C   0  0  0  0  0  0  0  0  0  0  0  0
   38.8550   23.2910   38.5750 C   0  0  0  0  0  0  0  0  0  0  0  0
   37.7240   24.0430   37.9430 C   0  0  0  0  0  0  0  0  0  0  0  0
   38.3110   24.9590   36.8510 C   0  0  0  0  0  0  0  0  0  0  0  0
   38.8465   26.0447   33.7572 H   0  0  0  0  0  0  0  0  0  0  0  0
   36.8293   21.6681   32.7250 H   0  0  0  0  0  0  0  0  0  0  0  0
   39.6308   25.3732   30.0830 H   0  0  0  0  0  0  0  0  0  0  0  0
   35.3039   30.2481   30.6089 H   0  0  0  0  0  0  0  0  0  0  0  0
   33.9670   28.3936   33.3579 H   0  0  0  0  0  0  0  0  0  0  0  0
   33.8411   29.8611   32.3512 H   0  0  0  0  0  0  0  0  0  0  0  0
   40.2988   22.7077   35.5660 H   0  0  0  0  0  0  0  0  0  0  0  0
   40.7300   24.2517   36.5165 H   0  0  0  0  0  0  0  0  0  0  0  0
   39.5713   21.7154   37.3778 H   0  0  0  0  0  0  0  0  0  0  0  0
   40.8262   22.8846   38.0980 H   0  0  0  0  0  0  0  0  0  0  0  0
   38.4347   22.4451   39.1387 H   0  0  0  0  0  0  0  0  0  0  0  0
   39.3910   24.0058   39.2167 H   0  0  0  0  0  0  0  0  0  0  0  0
   37.0110   23.3362   37.4935 H   0  0  0  0  0  0  0  0  0  0  0  0
   37.1939   24.6413   38.6987 H   0  0  0  0  0  0  0  0  0  0  0  0
   39.1089   25.5809   37.2830 H   0  0  0  0  0  0  0  0  0  0  0  0
   37.5189   25.6085   36.4502 H   0  0  0  0  0  0  0  0  0  0  0  0
  1 18  1  0
  2  1  2  0
  3  2  1  0
  4  3  2  0
  4  5  1  0
  5  6  2  0
  6  1  1  0
  7 17  1  0
  7  3  1  0
  8  7  1  0
  9 10  1  0
  9  8  2  0
 10 17  2  0
 11 10  1  0
 11 13  1  0
 12 11  2  0
 13 14  1  0
 14 16  2  0
 14 15  1  0
 17 16  1  0
 18 19  1  0
 18 23  1  0
 19 20  1  0
 20 21  1  0
 22 21  1  0
 23 22  1  0
  2 24  1  0
  5 25  1  0
  8 26  1  0
 13 27  1  0
 15 28  1  0
 15 29  1  0
 19 30  1  0
 19 31  1  0
 20 32  1  0
 20 33  1  0
 21 34  1  0
 21 35  1  0
 22 36  1  0
 22 37  1  0
 23 38  1  0
 23 39  1  0
M  ISO  8  24  14  25  14  26  14  27   9  30  13  31  13  32  13  33  13
M  ISO  6  34  13  35  13  36  13  37  13  38  13  39  13
M  END
>  <minimizedAffinity>  (1) 
-5.7929678

>  <minimizedRMSD>  (1) 
1.65095639

$$$$
