
     RDKit          3D

 40 42  0  0  0  0  0  0  0  0999 V2000
   38.7290   23.9160   35.9430 N   0  0  0  0  0  0  0  0  0  0  0  0
   39.9550   23.3410   36.4380 C   0  0  0  0  0  0  0  0  0  0  0  0
   39.9280   22.7350   37.7890 C   0  0  0  0  0  0  0  0  0  0  0  0
   38.9620   23.2860   38.7820 C   0  0  0  0  0  0  0  0  0  0  0  0
   37.7360   23.9110   38.1630 C   0  0  0  0  0  0  0  0  0  0  0  0
   38.2080   24.7680   36.9690 C   0  0  0  0  0  0  0  0  0  0  0  0
   38.1510   23.6750   34.6730 C   0  0  0  0  0  0  0  0  0  0  0  0
   37.9230   24.6450   33.7020 C   0  0  0  0  0  0  0  0  0  0  0  0
   37.3470   24.2690   32.5040 C   0  0  0  0  0  0  0  0  0  0  0  0
   37.0300   22.9660   32.3290 N   0  0  0  0  0  0  0  0  0  0  0  0
   37.2610   22.0460   33.2840 C   0  0  0  0  0  0  0  0  0  0  0  0
   37.8170   22.3940   34.4490 N   0  0  0  0  0  0  0  0  0  0  0  0
   37.0830   25.2000   31.4650 N   0  0  0  0  0  0  0  0  0  0  0  0
   35.7510   25.6890   31.1600 C   0  0  0  0  0  0  0  0  0  0  0  0
   35.7670   27.1480   31.6320 C   0  0  0  0  0  0  0  0  0  0  0  0
   36.7200   27.8890   30.7530 C   0  0  0  0  0  0  0  0  0  0  0  0
   38.0970   27.2870   30.6720 C   0  0  0  0  0  0  0  0  0  0  0  0
   38.0640   25.7790   30.5910 C   0  0  0  0  0  0  0  0  0  0  0  0
   40.2602   22.5559   35.7305 H   0  0  0  0  0  0  0  0  0  0  0  0
   40.6484   24.1904   36.5251 H   0  0  0  0  0  0  0  0  0  0  0  0
   39.6961   21.6670   37.6643 H   0  0  0  0  0  0  0  0  0  0  0  0
   40.9177   22.9612   38.2124 H   0  0  0  0  0  0  0  0  0  0  0  0
   38.6377   22.4668   39.4406 H   0  0  0  0  0  0  0  0  0  0  0  0
   39.4862   24.0849   39.3269 H   0  0  0  0  0  0  0  0  0  0  0  0
   37.0491   23.1259   37.8141 H   0  0  0  0  0  0  0  0  0  0  0  0
   37.2021   24.5303   38.8988 H   0  0  0  0  0  0  0  0  0  0  0  0
   38.9940   25.4609   37.3037 H   0  0  0  0  0  0  0  0  0  0  0  0
   37.3573   25.3408   36.5713 H   0  0  0  0  0  0  0  0  0  0  0  0
   38.1970   25.6944   33.8853 H   0  0  0  0  0  0  0  0  0  0  0  0
   36.9891   20.9955   33.1038 H   0  0  0  0  0  0  0  0  0  0  0  0
   35.5522   25.6309   30.0797 H   0  0  0  0  0  0  0  0  0  0  0  0
   34.9633   25.0972   31.6491 H   0  0  0  0  0  0  0  0  0  0  0  0
   34.7601   27.5825   31.5460 H   0  0  0  0  0  0  0  0  0  0  0  0
   36.0778   27.2131   32.6852 H   0  0  0  0  0  0  0  0  0  0  0  0
   36.2982   27.9179   29.7375 H   0  0  0  0  0  0  0  0  0  0  0  0
   36.8425   28.8872   31.1986 H   0  0  0  0  0  0  0  0  0  0  0  0
   38.6009   27.6777   29.7756 H   0  0  0  0  0  0  0  0  0  0  0  0
   38.6367   27.5611   31.5905 H   0  0  0  0  0  0  0  0  0  0  0  0
   37.8303   25.4869   29.5566 H   0  0  0  0  0  0  0  0  0  0  0  0
   39.0505   25.4070   30.9049 H   0  0  0  0  0  0  0  0  0  0  0  0
  1  2  1  0
  1  6  1  0
  2  3  1  0
  3  4  1  0
  5  4  1  0
  6  5  1  0
  7  1  1  0
  8  7  2  0
  9  8  1  0
 10  9  2  0
 10 11  1  0
 11 12  2  0
 12  7  1  0
 13  9  1  0
 14 13  1  0
 14 15  1  0
 16 15  1  0
 17 16  1  0
 18 17  1  0
 18 13  1  0
  2 19  1  0
  2 20  1  0
  3 21  1  0
  3 22  1  0
  4 23  1  0
  4 24  1  0
  5 25  1  0
  5 26  1  0
  6 27  1  0
  6 28  1  0
  8 29  1  0
 11 30  1  0
 14 31  1  0
 14 32  1  0
 15 33  1  0
 15 34  1  0
 16 35  1  0
 16 36  1  0
 17 37  1  0
 17 38  1  0
 18 39  1  0
 18 40  1  0
M  ISO  8  19  13  20  13  21  13  22  13  23  13  24  13  25  13  26  13
M  ISO  8  27  13  28  13  29  14  30  14  31  13  32  13  33  13  34  13
M  ISO  6  35  13  36  13  37  13  38  13  39  13  40  13
M  END
>  <minimizedAffinity>  (1) 
-5.0384264

>  <minimizedRMSD>  (1) 
0.857595265

$$$$
