
     RDKit          3D

 30 32  0  0  0  0  0  0  0  0999 V2000
   38.9570   23.6790   35.8150 N   0  0  0  0  0  0  0  0  0  0  0  0
   40.1360   23.1460   36.4480 C   0  0  0  0  0  0  0  0  0  0  0  0
   40.0010   22.7060   37.8470 C   0  0  0  0  0  0  0  0  0  0  0  0
   39.0100   23.4010   38.7030 C   0  0  0  0  0  0  0  0  0  0  0  0
   37.8420   23.9490   37.9420 C   0  0  0  0  0  0  0  0  0  0  0  0
   38.3680   24.6560   36.6920 C   0  0  0  0  0  0  0  0  0  0  0  0
   38.4610   23.2960   34.5310 C   0  0  0  0  0  0  0  0  0  0  0  0
   37.6250   24.1000   33.7440 C   0  0  0  0  0  0  0  0  0  0  0  0
   37.2190   23.5970   32.5130 C   0  0  0  0  0  0  0  0  0  0  0  0
   37.6540   22.3590   32.1450 N   0  0  0  0  0  0  0  0  0  0  0  0
   38.4510   21.6290   32.9300 C   0  0  0  0  0  0  0  0  0  0  0  0
   38.8590   22.0920   34.1250 N   0  0  0  0  0  0  0  0  0  0  0  0
   36.3640   24.4890   31.7740 C   0  0  0  0  0  0  0  0  0  0  0  0
   35.2970   24.1690   30.9840 N   0  0  0  0  0  0  0  0  0  0  0  0
   34.7940   25.2630   30.4970 O   0  0  0  0  0  0  0  0  0  0  0  0
   35.4890   26.2870   30.9370 C   0  0  0  0  0  0  0  0  0  0  0  0
   36.4770   25.8170   31.7390 N   0  0  0  0  0  0  0  0  0  0  0  0
   40.4668   22.2789   35.8575 H   0  0  0  0  0  0  0  0  0  0  0  0
   40.8481   23.9838   36.4788 H   0  0  0  0  0  0  0  0  0  0  0  0
   39.7282   21.6405   37.8298 H   0  0  0  0  0  0  0  0  0  0  0  0
   40.9730   22.9429   38.3044 H   0  0  0  0  0  0  0  0  0  0  0  0
   38.6342   22.6869   39.4505 H   0  0  0  0  0  0  0  0  0  0  0  0
   39.5251   24.2564   39.1646 H   0  0  0  0  0  0  0  0  0  0  0  0
   37.1710   23.1279   37.6496 H   0  0  0  0  0  0  0  0  0  0  0  0
   37.2817   24.6580   38.5692 H   0  0  0  0  0  0  0  0  0  0  0  0
   39.1269   25.3985   36.9799 H   0  0  0  0  0  0  0  0  0  0  0  0
   37.5406   25.1668   36.1776 H   0  0  0  0  0  0  0  0  0  0  0  0
   37.3016   25.0935   34.0880 H   0  0  0  0  0  0  0  0  0  0  0  0
   38.7786   20.6341   32.5940 H   0  0  0  0  0  0  0  0  0  0  0  0
   35.3020   27.3440   30.6965 H   0  0  0  0  0  0  0  0  0  0  0  0
  1  2  1  0
  1  6  1  0
  2  3  1  0
  3  4  1  0
  5  4  1  0
  6  5  1  0
  7  1  1  0
  8  7  2  0
  9  8  1  0
 10  9  2  0
 10 11  1  0
 11 12  2  0
 12  7  1  0
 13  9  1  0
 14 13  2  0
 15 16  1  0
 15 14  1  0
 16 17  2  0
 17 13  1  0
  2 18  1  0
  2 19  1  0
  3 20  1  0
  3 21  1  0
  4 22  1  0
  4 23  1  0
  5 24  1  0
  5 25  1  0
  6 26  1  0
  6 27  1  0
  8 28  1  0
 11 29  1  0
 16 30  1  0
M  ISO  8  18  13  19  13  20  13  21  13  22  13  23  13  24  13  25  13
M  ISO  5  26  13  27  13  28  14  29  14  30  14
M  END
>  <minimizedAffinity>  (1) 
-4.58549643

>  <minimizedRMSD>  (1) 
1.13325703

$$$$
