
     RDKit          3D

 31 33  0  0  0  0  0  0  0  0999 V2000
   38.7290   24.4720   35.7600 N   0  0  0  0  0  0  0  0  0  0  0  0
   39.8780   23.7030   36.0950 C   0  0  0  0  0  0  0  0  0  0  0  0
   39.7850   22.7800   37.2490 C   0  0  0  0  0  0  0  0  0  0  0  0
   38.8940   23.1860   38.3680 C   0  0  0  0  0  0  0  0  0  0  0  0
   37.7370   24.0590   37.9370 C   0  0  0  0  0  0  0  0  0  0  0  0
   38.2700   25.1280   36.9630 C   0  0  0  0  0  0  0  0  0  0  0  0
   38.1280   24.5830   34.4770 C   0  0  0  0  0  0  0  0  0  0  0  0
   37.7850   25.7840   33.8670 C   0  0  0  0  0  0  0  0  0  0  0  0
   37.2010   25.7800   32.6180 C   0  0  0  0  0  0  0  0  0  0  0  0
   36.9910   24.5720   32.0460 N   0  0  0  0  0  0  0  0  0  0  0  0
   37.3270   23.4150   32.6460 C   0  0  0  0  0  0  0  0  0  0  0  0
   37.8930   23.4380   33.8580 N   0  0  0  0  0  0  0  0  0  0  0  0
   36.8290   27.0400   31.9520 C   0  0  0  0  0  0  0  0  0  0  0  0
   36.1770   28.0820   32.7100 C   0  0  0  0  0  0  0  0  0  0  0  0
   35.9500   29.3710   31.4410 S   0  0  0  0  0  0  0  0  0  0  0  0
   36.7560   28.3170   30.1170 C   0  0  0  0  0  0  0  0  0  0  0  0
   37.0640   27.2780   30.6610 N   0  0  0  0  0  0  0  0  0  0  0  0
   40.1356   23.0986   35.2128 H   0  0  0  0  0  0  0  0  0  0  0  0
   40.6279   24.4481   36.3992 H   0  0  0  0  0  0  0  0  0  0  0  0
   39.4236   21.8121   36.8715 H   0  0  0  0  0  0  0  0  0  0  0  0
   40.7962   22.7607   37.6816 H   0  0  0  0  0  0  0  0  0  0  0  0
   38.4879   22.2771   38.8360 H   0  0  0  0  0  0  0  0  0  0  0  0
   39.5032   23.7803   39.0649 H   0  0  0  0  0  0  0  0  0  0  0  0
   36.9756   23.4448   37.4340 H   0  0  0  0  0  0  0  0  0  0  0  0
   37.2804   24.5411   38.8140 H   0  0  0  0  0  0  0  0  0  0  0  0
   39.1050   25.6708   37.4301 H   0  0  0  0  0  0  0  0  0  0  0  0
   37.4709   25.8431   36.7180 H   0  0  0  0  0  0  0  0  0  0  0  0
   37.9794   26.7372   34.3805 H   0  0  0  0  0  0  0  0  0  0  0  0
   37.1372   22.4556   32.1425 H   0  0  0  0  0  0  0  0  0  0  0  0
   35.8925   28.0946   33.7725 H   0  0  0  0  0  0  0  0  0  0  0  0
   36.9167   28.5859   29.0625 H   0  0  0  0  0  0  0  0  0  0  0  0
  1  2  1  0
  1  6  1  0
  2  3  1  0
  3  4  1  0
  5  4  1  0
  6  5  1  0
  7  1  1  0
  8  7  2  0
  9  8  1  0
 10  9  2  0
 10 11  1  0
 11 12  2  0
 12  7  1  0
 13  9  1  0
 13 14  2  0
 15 14  1  0
 16 17  2  0
 16 15  1  0
 17 13  1  0
  2 18  1  0
  2 19  1  0
  3 20  1  0
  3 21  1  0
  4 22  1  0
  4 23  1  0
  5 24  1  0
  5 25  1  0
  6 26  1  0
  6 27  1  0
  8 28  1  0
 11 29  1  0
 14 30  1  0
 16 31  1  0
M  ISO  8  18  13  19  13  20  13  21  13  22  13  23  13  24  13  25  13
M  ISO  6  26  13  27  13  28  14  29  14  30  14  31  14
M  END
>  <minimizedAffinity>  (1) 
-4.45153379

>  <minimizedRMSD>  (1) 
2.2740767

$$$$
