
     RDKit          3D

 31 32  0  0  0  0  0  0  0  0999 V2000
   38.6620   23.6700   35.7350 N   0  0  0  0  0  0  0  0  0  0  0  0
   39.8870   23.1410   36.2700 C   0  0  0  0  0  0  0  0  0  0  0  0
   39.9010   22.7400   37.6930 C   0  0  0  0  0  0  0  0  0  0  0  0
   39.0100   23.4810   38.6240 C   0  0  0  0  0  0  0  0  0  0  0  0
   37.7700   24.0260   37.9600 C   0  0  0  0  0  0  0  0  0  0  0  0
   38.1900   24.6900   36.6300 C   0  0  0  0  0  0  0  0  0  0  0  0
   38.0330   23.2570   34.5320 C   0  0  0  0  0  0  0  0  0  0  0  0
   37.7660   24.0870   33.4440 C   0  0  0  0  0  0  0  0  0  0  0  0
   37.1430   23.5360   32.3340 C   0  0  0  0  0  0  0  0  0  0  0  0
   36.8210   22.2190   32.3590 N   0  0  0  0  0  0  0  0  0  0  0  0
   37.0900   21.4440   33.4230 C   0  0  0  0  0  0  0  0  0  0  0  0
   37.6910   21.9570   34.5010 N   0  0  0  0  0  0  0  0  0  0  0  0
   36.8490   24.3910   31.1660 C   0  0  0  0  0  0  0  0  0  0  0  0
   35.3460   24.6670   31.0930 C   0  0  0  0  0  0  0  0  0  0  0  0
   40.1478   22.2526   35.6761 H   0  0  0  0  0  0  0  0  0  0  0  0
   40.5992   23.9772   36.2107 H   0  0  0  0  0  0  0  0  0  0  0  0
   39.6159   21.6786   37.7390 H   0  0  0  0  0  0  0  0  0  0  0  0
   40.9199   22.9691   38.0385 H   0  0  0  0  0  0  0  0  0  0  0  0
   38.7026   22.7983   39.4299 H   0  0  0  0  0  0  0  0  0  0  0  0
   39.5803   24.3418   39.0032 H   0  0  0  0  0  0  0  0  0  0  0  0
   37.0631   23.2070   37.7609 H   0  0  0  0  0  0  0  0  0  0  0  0
   37.2791   24.7612   38.6146 H   0  0  0  0  0  0  0  0  0  0  0  0
   38.9926   25.4185   36.8172 H   0  0  0  0  0  0  0  0  0  0  0  0
   37.3306   25.2119   36.1838 H   0  0  0  0  0  0  0  0  0  0  0  0
   38.0423   25.1515   33.4654 H   0  0  0  0  0  0  0  0  0  0  0  0
   36.8136   20.3794   33.4068 H   0  0  0  0  0  0  0  0  0  0  0  0
   37.3911   25.3431   31.2644 H   0  0  0  0  0  0  0  0  0  0  0  0
   37.1694   23.8761   30.2483 H   0  0  0  0  0  0  0  0  0  0  0  0
   34.9371   24.7421   32.1114 H   0  0  0  0  0  0  0  0  0  0  0  0
   35.1723   25.6121   30.5575 H   0  0  0  0  0  0  0  0  0  0  0  0
   34.8479   23.8453   30.5575 H   0  0  0  0  0  0  0  0  0  0  0  0
  1  2  1  0
  1  6  1  0
  2  3  1  0
  3  4  1  0
  5  4  1  0
  6  5  1  0
  7  1  1  0
  8  7  2  0
  9 10  2  0
  9  8  1  0
 10 11  1  0
 11 12  2  0
 12  7  1  0
 13  9  1  0
 14 13  1  0
  2 15  1  0
  2 16  1  0
  3 17  1  0
  3 18  1  0
  4 19  1  0
  4 20  1  0
  5 21  1  0
  5 22  1  0
  6 23  1  0
  6 24  1  0
  8 25  1  0
 11 26  1  0
 13 27  1  0
 13 28  1  0
 14 29  1  0
 14 30  1  0
 14 31  1  0
M  ISO  8  15  13  16  13  17  13  18  13  19  13  20  13  21  13  22  13
M  ISO  8  23  13  24  13  25  14  26  14  27   8  28   8  29   8  30   8
M  ISO  1  31   8
M  END
>  <minimizedAffinity>  (1) 
-4.27217627

>  <minimizedRMSD>  (1) 
0.461480319

$$$$
