
     RDKit          3D

 43 47  0  0  0  0  0  0  0  0999 V2000
   40.7280   26.7090   34.6460 C   0  0  0  0  0  0  0  0  0  0  0  0
   43.2570   24.0420   35.3280 C   0  0  0  0  0  0  0  0  0  0  0  0
   42.6750   22.9540   34.6740 C   0  0  0  0  0  0  0  0  0  0  0  0
   41.4620   23.1220   34.0220 C   0  0  0  0  0  0  0  0  0  0  0  0
   40.9060   24.3670   34.0660 N   0  0  0  0  0  0  0  0  0  0  0  0
   41.4850   25.4080   34.7030 C   0  0  0  0  0  0  0  0  0  0  0  0
   42.6440   25.2500   35.3270 N   0  0  0  0  0  0  0  0  0  0  0  0
   40.7690   22.0190   33.3000 C   0  0  0  0  0  0  0  0  0  0  0  0
   41.5070   21.0020   32.6600 C   0  0  0  0  0  0  0  0  0  0  0  0
   40.1620   19.9790   31.9710 S   0  0  0  0  0  0  0  0  0  0  0  0
   38.8260   21.1140   32.6750 C   0  0  0  0  0  0  0  0  0  0  0  0
   39.4560   22.0290   33.2800 N   0  0  0  0  0  0  0  0  0  0  0  0
   37.3720   20.9960   32.5680 N   0  0  0  0  0  0  0  0  0  0  0  0
   36.4390   21.2920   33.4920 C   0  0  0  0  0  0  0  0  0  0  0  0
   35.2370   21.0410   32.9970 N   0  0  0  0  0  0  0  0  0  0  0  0
   35.3890   20.5810   31.7440 C   0  0  0  0  0  0  0  0  0  0  0  0
   36.7200   20.5620   31.5050 N   0  0  0  0  0  0  0  0  0  0  0  0
   39.3490   26.5190   35.2280 C   0  0  0  0  0  0  0  0  0  0  0  0
   38.2980   27.2040   34.4230 C   0  0  0  0  0  0  0  0  0  0  0  0
   37.2010   27.7490   35.0620 C   0  0  0  0  0  0  0  0  0  0  0  0
   36.1600   28.4120   34.4090 C   0  0  0  0  0  0  0  0  0  0  0  0
   36.2580   28.5100   33.0480 N   0  0  0  0  0  0  0  0  0  0  0  0
   37.3480   27.9680   32.4170 C   0  0  0  0  0  0  0  0  0  0  0  0
   38.3450   27.3270   33.1080 N   0  0  0  0  0  0  0  0  0  0  0  0
   37.4920   28.0500   30.9680 C   0  0  0  0  0  0  0  0  0  0  0  0
   38.7630   28.0250   30.3960 C   0  0  0  0  0  0  0  0  0  0  0  0
   38.5610   28.1210   29.0030 C   0  0  0  0  0  0  0  0  0  0  0  0
   37.2100   28.1980   28.7940 N   0  0  0  0  0  0  0  0  0  0  0  0
   36.5870   28.1550   29.9630 N   0  0  0  0  0  0  0  0  0  0  0  0
   41.2679   27.4722   35.2257 H   0  0  0  0  0  0  0  0  0  0  0  0
   40.6406   27.0348   33.5990 H   0  0  0  0  0  0  0  0  0  0  0  0
   44.2188   23.9173   35.8470 H   0  0  0  0  0  0  0  0  0  0  0  0
   43.1734   21.9734   34.6758 H   0  0  0  0  0  0  0  0  0  0  0  0
   42.5962   20.8632   32.5941 H   0  0  0  0  0  0  0  0  0  0  0  0
   36.6432   21.6814   34.5003 H   0  0  0  0  0  0  0  0  0  0  0  0
   34.5900   20.2798   31.0505 H   0  0  0  0  0  0  0  0  0  0  0  0
   39.1240   25.4428   35.2616 H   0  0  0  0  0  0  0  0  0  0  0  0
   39.3441   26.9611   36.2353 H   0  0  0  0  0  0  0  0  0  0  0  0
   37.1440   27.6545   36.1564 H   0  0  0  0  0  0  0  0  0  0  0  0
   35.3061   28.8333   34.9599 H   0  0  0  0  0  0  0  0  0  0  0  0
   39.7256   27.9465   30.9225 H   0  0  0  0  0  0  0  0  0  0  0  0
   39.3428   28.1319   28.2293 H   0  0  0  0  0  0  0  0  0  0  0  0
   36.7512   28.2768   27.8752 H   0  0  0  0  0  0  0  0  0  0  0  0
  1  6  1  0
  1 18  1  0
  3  2  2  0
  4  5  2  0
  4  3  1  0
  5  6  1  0
  6  7  2  0
  7  2  1  0
  8  4  1  0
  9  8  2  0
 10  9  1  0
 10 11  1  0
 11 12  2  0
 12  8  1  0
 13 11  1  0
 13 14  1  0
 15 14  2  0
 16 15  1  0
 17 16  2  0
 17 13  1  0
 19 20  2  0
 19 18  1  0
 21 20  1  0
 22 21  2  0
 23 22  1  0
 23 24  2  0
 24 19  1  0
 25 23  1  0
 26 25  1  0
 27 26  2  0
 28 27  1  0
 28 29  1  0
 29 25  2  0
  1 30  1  0
  1 31  1  0
  2 32  1  0
  3 33  1  0
  9 34  1  0
 14 35  1  0
 16 36  1  0
 18 37  1  0
 18 38  1  0
 20 39  1  0
 21 40  1  0
 26 41  1  0
 27 42  1  0
 28 43  1  0
M  ISO  8  30   8  31   8  32  14  33  14  34  14  35  14  36  14  37   8
M  ISO  6  38   8  39  14  40  14  41  14  42  14  43   9
M  END
>  <minimizedAffinity>  (1) 
-5.37134266

>  <minimizedRMSD>  (1) 
3.16211247

$$$$
