
     RDKit          3D

 44 48  0  0  0  0  0  0  0  0999 V2000
   42.2390   25.9110   33.4760 C   0  0  0  0  0  0  0  0  0  0  0  0
   42.2290   23.1990   36.0330 C   0  0  0  0  0  0  0  0  0  0  0  0
   41.5800   22.1720   35.3390 C   0  0  0  0  0  0  0  0  0  0  0  0
   41.1640   22.4120   34.0380 C   0  0  0  0  0  0  0  0  0  0  0  0
   41.4180   23.6460   33.5180 N   0  0  0  0  0  0  0  0  0  0  0  0
   42.0470   24.6220   34.2080 C   0  0  0  0  0  0  0  0  0  0  0  0
   42.4420   24.3960   35.4440 N   0  0  0  0  0  0  0  0  0  0  0  0
   40.4660   21.3780   33.2240 C   0  0  0  0  0  0  0  0  0  0  0  0
   41.1960   20.3670   32.5760 C   0  0  0  0  0  0  0  0  0  0  0  0
   39.8660   19.4320   31.7550 S   0  0  0  0  0  0  0  0  0  0  0  0
   38.5260   20.5800   32.4370 C   0  0  0  0  0  0  0  0  0  0  0  0
   39.1590   21.4360   33.1230 N   0  0  0  0  0  0  0  0  0  0  0  0
   37.0880   20.5310   32.2430 N   0  0  0  0  0  0  0  0  0  0  0  0
   36.4560   20.0170   31.1980 N   0  0  0  0  0  0  0  0  0  0  0  0
   35.1570   20.1600   31.3910 C   0  0  0  0  0  0  0  0  0  0  0  0
   34.9320   20.7880   32.6040 C   0  0  0  0  0  0  0  0  0  0  0  0
   36.1970   21.0070   33.1160 C   0  0  0  0  0  0  0  0  0  0  0  0
   41.6480   27.0540   34.2710 C   0  0  0  0  0  0  0  0  0  0  0  0
   40.1630   27.0540   34.2470 C   0  0  0  0  0  0  0  0  0  0  0  0
   39.4600   26.9230   35.4240 C   0  0  0  0  0  0  0  0  0  0  0  0
   38.0630   26.9100   35.5170 C   0  0  0  0  0  0  0  0  0  0  0  0
   37.3800   27.0370   34.3370 N   0  0  0  0  0  0  0  0  0  0  0  0
   38.0730   27.1670   33.1760 C   0  0  0  0  0  0  0  0  0  0  0  0
   39.4450   27.1740   33.1410 N   0  0  0  0  0  0  0  0  0  0  0  0
   37.3780   27.3040   31.8930 C   0  0  0  0  0  0  0  0  0  0  0  0
   37.6080   28.4250   31.0920 C   0  0  0  0  0  0  0  0  0  0  0  0
   36.7960   28.2520   29.9440 C   0  0  0  0  0  0  0  0  0  0  0  0
   36.1330   27.0660   30.1080 N   0  0  0  0  0  0  0  0  0  0  0  0
   36.4800   26.5190   31.2510 N   0  0  0  0  0  0  0  0  0  0  0  0
   43.3145   26.0886   33.3282 H   0  0  0  0  0  0  0  0  0  0  0  0
   41.7319   25.8504   32.5017 H   0  0  0  0  0  0  0  0  0  0  0  0
   42.5683   23.0306   37.0657 H   0  0  0  0  0  0  0  0  0  0  0  0
   41.4037   21.1960   35.8147 H   0  0  0  0  0  0  0  0  0  0  0  0
   42.2813   20.1881   32.5670 H   0  0  0  0  0  0  0  0  0  0  0  0
   34.3730   19.8301   30.6936 H   0  0  0  0  0  0  0  0  0  0  0  0
   33.9655   21.0527   33.0576 H   0  0  0  0  0  0  0  0  0  0  0  0
   36.4295   21.4899   34.0766 H   0  0  0  0  0  0  0  0  0  0  0  0
   41.9842   26.9688   35.3149 H   0  0  0  0  0  0  0  0  0  0  0  0
   41.9902   27.9932   33.8119 H   0  0  0  0  0  0  0  0  0  0  0  0
   40.0360   26.8215   36.3556 H   0  0  0  0  0  0  0  0  0  0  0  0
   37.5446   26.8040   36.4814 H   0  0  0  0  0  0  0  0  0  0  0  0
   38.2807   29.2681   31.3080 H   0  0  0  0  0  0  0  0  0  0  0  0
   36.7143   28.9375   29.0876 H   0  0  0  0  0  0  0  0  0  0  0  0
   35.4634   26.6633   29.4369 H   0  0  0  0  0  0  0  0  0  0  0  0
  1  6  1  0
  1 18  1  0
  3  2  2  0
  4  3  1  0
  5  4  2  0
  5  6  1  0
  6  7  2  0
  7  2  1  0
  8  4  1  0
  9  8  2  0
 10 11  1  0
 10  9  1  0
 11 12  2  0
 12  8  1  0
 13 11  1  0
 13 17  1  0
 14 15  2  0
 14 13  1  0
 15 16  1  0
 16 17  2  0
 19 18  1  0
 19 20  2  0
 20 21  1  0
 22 21  2  0
 23 22  1  0
 24 23  2  0
 24 19  1  0
 25 23  1  0
 26 25  1  0
 27 28  1  0
 27 26  2  0
 28 29  1  0
 29 25  2  0
  1 30  1  0
  1 31  1  0
  2 32  1  0
  3 33  1  0
  9 34  1  0
 15 35  1  0
 16 36  1  0
 17 37  1  0
 18 38  1  0
 18 39  1  0
 20 40  1  0
 21 41  1  0
 26 42  1  0
 27 43  1  0
 28 44  1  0
M  ISO  8  30   8  31   8  32  14  33  14  34  14  35  14  36  14  37  14
M  ISO  7  38   8  39   8  40  14  41  14  42  14  43  14  44   9
M  END
>  <minimizedAffinity>  (1) 
-5.29483747

>  <minimizedRMSD>  (1) 
3.18370628

$$$$
