
     RDKit          3D

 38 40  0  0  1  0  0  0  0  0999 V2000
   38.2620   22.8920   36.0460 N   0  0  0  0  0  0  0  0  0  0  0  0
   39.6290   22.6130   36.3250 C   0  0  0  0  0  0  0  0  0  0  0  0
   40.0470   22.5710   37.7360 C   0  0  0  0  0  0  0  0  0  0  0  0
   39.2970   23.3980   38.7140 C   0  0  0  0  0  0  0  0  0  0  0  0
   37.8710   23.7020   38.3100 C   0  0  0  0  0  0  0  0  0  0  0  0
   37.8710   24.0590   36.8160 C   0  0  0  0  0  0  0  0  0  0  0  0
   37.4070   22.1650   35.1780 C   0  0  0  0  0  0  0  0  0  0  0  0
   37.4640   22.2200   33.7740 C   0  0  0  0  0  0  0  0  0  0  0  0
   36.5570   21.4650   33.0530 C   0  0  0  0  0  0  0  0  0  0  0  0
   35.6720   20.6870   33.7300 N   0  0  0  0  0  0  0  0  0  0  0  0
   35.6630   20.6410   35.0750 C   0  0  0  0  0  0  0  0  0  0  0  0
   36.5080   21.3860   35.7890 N   0  0  0  0  0  0  0  0  0  0  0  0
   36.7090   21.5750   31.2910 S   0  0  0  0  0  0  0  0  0  0  0  0
   37.6950   19.1010   31.8160 N   0  0  0  0  0  0  0  0  0  0  0  0
   37.9490   17.8400   31.1310 C   0  0  0  0  0  0  0  0  0  0  0  0
   37.1270   17.8500   29.8750 C   0  0  0  0  0  0  0  0  0  0  0  0
   36.4870   19.2160   29.8710 C   0  0  0  0  0  0  0  0  0  0  0  0
   37.4410   20.0100   30.7200 C   0  0  1  0  0  0  0  0  0  0  0  0
   39.8599   21.6316   35.8851 H   0  0  0  0  0  0  0  0  0  0  0  0
   40.1782   23.4654   35.8987 H   0  0  0  0  0  0  0  0  0  0  0  0
   39.9716   21.5249   38.0676 H   0  0  0  0  0  0  0  0  0  0  0  0
   41.0591   23.0020   37.7337 H   0  0  0  0  0  0  0  0  0  0  0  0
   39.2759   22.8614   39.6740 H   0  0  0  0  0  0  0  0  0  0  0  0
   39.8194   24.3641   38.7749 H   0  0  0  0  0  0  0  0  0  0  0  0
   37.2369   22.8201   38.4838 H   0  0  0  0  0  0  0  0  0  0  0  0
   37.4737   24.5380   38.9043 H   0  0  0  0  0  0  0  0  0  0  0  0
   38.5842   24.8763   36.6331 H   0  0  0  0  0  0  0  0  0  0  0  0
   36.8637   24.3809   36.5131 H   0  0  0  0  0  0  0  0  0  0  0  0
   38.2099   22.8466   33.2631 H   0  0  0  0  0  0  0  0  0  0  0  0
   34.9504   19.9812   35.5915 H   0  0  0  0  0  0  0  0  0  0  0  0
   36.8760   19.0287   32.4365 H   0  0  0  0  0  0  0  0  0  0  0  0
   39.0171   17.7533   30.8828 H   0  0  0  0  0  0  0  0  0  0  0  0
   37.6805   16.9853   31.7693 H   0  0  0  0  0  0  0  0  0  0  0  0
   37.7645   17.7139   28.9890 H   0  0  0  0  0  0  0  0  0  0  0  0
   36.3884   17.0354   29.8450 H   0  0  0  0  0  0  0  0  0  0  0  0
   36.4236   19.6248   28.8518 H   0  0  0  0  0  0  0  0  0  0  0  0
   35.4517   19.2221   30.2426 H   0  0  0  0  0  0  0  0  0  0  0  0
   38.3498   20.3228   30.1849 H   0  0  0  0  0  0  0  0  0  0  0  0
  1  2  1  0
  1  6  1  0
  2  3  1  0
  3  4  1  0
  5  4  1  0
  6  5  1  0
  7 12  1  0
  7  1  1  0
  8  7  2  0
  9 10  2  0
  9  8  1  0
 10 11  1  0
 11 12  2  0
 13  9  1  0
 15 14  1  0
 16 15  1  0
 17 16  1  0
 17 18  1  0
 18 13  1  0
 18 14  1  0
  2 19  1  0
  2 20  1  0
  3 21  1  0
  3 22  1  0
  4 23  1  0
  4 24  1  0
  5 25  1  0
  5 26  1  0
  6 27  1  0
  6 28  1  0
  8 29  1  0
 11 30  1  0
 14 31  1  0
 15 32  1  0
 15 33  1  0
 16 34  1  0
 16 35  1  0
 17 36  1  0
 17 37  1  0
 18 38  1  6
M  ISO  8  19  13  20  13  21  13  22  13  23  13  24  13  25  13  26  13
M  ISO  8  27  13  28  13  29  14  30  14  31   5  32  13  33  13  34  13
M  ISO  4  35  13  36  13  37  13  38  13
M  END
>  <minimizedAffinity>  (1) 
-4.55308151

>  <minimizedRMSD>  (1) 
2.74713349

$$$$
