
     RDKit          3D

 34 36  0  0  0  0  0  0  0  0999 V2000
   38.7390   23.6590   35.7580 N   0  0  0  0  0  0  0  0  0  0  0  0
   39.9500   23.1560   36.3310 C   0  0  0  0  0  0  0  0  0  0  0  0
   39.9180   22.7530   37.7430 C   0  0  0  0  0  0  0  0  0  0  0  0
   38.9620   23.4480   38.6380 C   0  0  0  0  0  0  0  0  0  0  0  0
   37.7600   24.0370   37.9480 C   0  0  0  0  0  0  0  0  0  0  0  0
   38.2110   24.6840   36.6470 C   0  0  0  0  0  0  0  0  0  0  0  0
   38.1380   23.2480   34.5410 C   0  0  0  0  0  0  0  0  0  0  0  0
   37.6670   24.1400   33.5510 C   0  0  0  0  0  0  0  0  0  0  0  0
   37.1010   23.5800   32.4090 C   0  0  0  0  0  0  0  0  0  0  0  0
   37.0260   22.2310   32.2960 N   0  0  0  0  0  0  0  0  0  0  0  0
   37.4900   21.4200   33.2690 C   0  0  0  0  0  0  0  0  0  0  0  0
   38.0400   21.9220   34.3790 N   0  0  0  0  0  0  0  0  0  0  0  0
   36.5310   24.7490   31.2080 S   0  0  0  0  0  0  0  0  0  0  0  0
   37.9040   25.8270   30.8040 C   0  0  0  0  0  0  0  0  0  0  0  0
   37.9080   27.2120   30.9670 C   0  0  0  0  0  0  0  0  0  0  0  0
   39.0360   27.9270   30.6150 C   0  0  0  0  0  0  0  0  0  0  0  0
   40.1060   27.2750   30.1230 N   0  0  0  0  0  0  0  0  0  0  0  0
   40.0610   25.9230   29.9800 C   0  0  0  0  0  0  0  0  0  0  0  0
   38.9760   25.1680   30.3100 N   0  0  0  0  0  0  0  0  0  0  0  0
   40.2508   22.2756   35.7442 H   0  0  0  0  0  0  0  0  0  0  0  0
   40.6482   24.0054   36.2987 H   0  0  0  0  0  0  0  0  0  0  0  0
   39.6753   21.6805   37.7728 H   0  0  0  0  0  0  0  0  0  0  0  0
   40.9102   23.0256   38.1318 H   0  0  0  0  0  0  0  0  0  0  0  0
   38.6060   22.7240   39.3857 H   0  0  0  0  0  0  0  0  0  0  0  0
   39.5105   24.2942   39.0774 H   0  0  0  0  0  0  0  0  0  0  0  0
   37.0308   23.2421   37.7325 H   0  0  0  0  0  0  0  0  0  0  0  0
   37.2879   24.7899   38.5963 H   0  0  0  0  0  0  0  0  0  0  0  0
   38.9946   25.4265   36.8582 H   0  0  0  0  0  0  0  0  0  0  0  0
   37.3559   25.1829   36.1676 H   0  0  0  0  0  0  0  0  0  0  0  0
   37.7443   25.2300   33.6774 H   0  0  0  0  0  0  0  0  0  0  0  0
   37.4146   20.3294   33.1471 H   0  0  0  0  0  0  0  0  0  0  0  0
   37.0244   27.7282   31.3706 H   0  0  0  0  0  0  0  0  0  0  0  0
   39.0598   29.0201   30.7357 H   0  0  0  0  0  0  0  0  0  0  0  0
   40.9477   25.4122   29.5765 H   0  0  0  0  0  0  0  0  0  0  0  0
  1  2  1  0
  1  6  1  0
  2  3  1  0
  3  4  1  0
  5  4  1  0
  6  5  1  0
  7  1  1  0
  8  7  2  0
  9  8  1  0
 10  9  2  0
 10 11  1  0
 11 12  2  0
 12  7  1  0
 13  9  1  0
 14 15  2  0
 14 13  1  0
 16 15  1  0
 17 16  2  0
 18 17  1  0
 18 19  2  0
 19 14  1  0
  2 20  1  0
  2 21  1  0
  3 22  1  0
  3 23  1  0
  4 24  1  0
  4 25  1  0
  5 26  1  0
  5 27  1  0
  6 28  1  0
  6 29  1  0
  8 30  1  0
 11 31  1  0
 15 32  1  0
 16 33  1  0
 18 34  1  0
M  ISO  8  20  13  21  13  22  13  23  13  24  13  25  13  26  13  27  13
M  ISO  7  28  13  29  13  30  14  31  14  32  14  33  14  34  14
M  END
>  <minimizedAffinity>  (1) 
-4.41331148

>  <minimizedRMSD>  (1) 
2.00072694

$$$$
