
     RDKit          3D

 35 36  0  0  0  0  0  0  0  0999 V2000
   38.2720   22.9420   36.3640 N   0  0  0  0  0  0  0  0  0  0  0  0
   39.6220   22.6780   36.6920 C   0  0  0  0  0  0  0  0  0  0  0  0
   40.0120   22.7990   38.1060 C   0  0  0  0  0  0  0  0  0  0  0  0
   39.2890   23.7960   38.9410 C   0  0  0  0  0  0  0  0  0  0  0  0
   37.8740   24.0900   38.4870 C   0  0  0  0  0  0  0  0  0  0  0  0
   37.8970   24.2200   36.9600 C   0  0  0  0  0  0  0  0  0  0  0  0
   37.3960   22.1370   35.5950 C   0  0  0  0  0  0  0  0  0  0  0  0
   37.4750   21.9410   34.2150 C   0  0  0  0  0  0  0  0  0  0  0  0
   36.5480   21.1260   33.5910 C   0  0  0  0  0  0  0  0  0  0  0  0
   35.5920   20.5460   34.3570 N   0  0  0  0  0  0  0  0  0  0  0  0
   35.5330   20.7490   35.6920 C   0  0  0  0  0  0  0  0  0  0  0  0
   36.4210   21.5330   36.3040 N   0  0  0  0  0  0  0  0  0  0  0  0
   36.7480   20.9530   31.8390 S   0  0  0  0  0  0  0  0  0  0  0  0
   35.7970   19.4890   31.3100 C   0  0  0  0  0  0  0  0  0  0  0  0
   34.3760   19.6220   31.8450 C   0  0  0  0  0  0  0  0  0  0  0  0
   36.4120   18.2220   31.8630 C   0  0  0  0  0  0  0  0  0  0  0  0
   39.8429   21.6478   36.3759 H   0  0  0  0  0  0  0  0  0  0  0  0
   40.1954   23.4611   36.1743 H   0  0  0  0  0  0  0  0  0  0  0  0
   39.8668   21.8133   38.5721 H   0  0  0  0  0  0  0  0  0  0  0  0
   41.0502   23.1615   38.0775 H   0  0  0  0  0  0  0  0  0  0  0  0
   39.2464   23.4142   39.9717 H   0  0  0  0  0  0  0  0  0  0  0  0
   39.8473   24.7398   38.8537 H   0  0  0  0  0  0  0  0  0  0  0  0
   37.2060   23.2680   38.7838 H   0  0  0  0  0  0  0  0  0  0  0  0
   37.5040   25.0172   38.9490 H   0  0  0  0  0  0  0  0  0  0  0  0
   38.6289   24.9880   36.6692 H   0  0  0  0  0  0  0  0  0  0  0  0
   36.8973   24.5092   36.6036 H   0  0  0  0  0  0  0  0  0  0  0  0
   38.2672   22.4303   33.6293 H   0  0  0  0  0  0  0  0  0  0  0  0
   34.7424   20.2612   36.2810 H   0  0  0  0  0  0  0  0  0  0  0  0
   35.8019   19.4318   30.2115 H   0  0  0  0  0  0  0  0  0  0  0  0
   34.3966   19.6201   32.9448 H   0  0  0  0  0  0  0  0  0  0  0  0
   33.9366   20.5652   31.4882 H   0  0  0  0  0  0  0  0  0  0  0  0
   33.7692   18.7767   31.4882 H   0  0  0  0  0  0  0  0  0  0  0  0
   36.3955   18.2560   32.9624 H   0  0  0  0  0  0  0  0  0  0  0  0
   35.8358   17.3523   31.5143 H   0  0  0  0  0  0  0  0  0  0  0  0
   37.4518   18.1367   31.5143 H   0  0  0  0  0  0  0  0  0  0  0  0
  1  2  1  0
  1  6  1  0
  2  3  1  0
  3  4  1  0
  5  4  1  0
  6  5  1  0
  7 12  1  0
  7  1  1  0
  8  7  2  0
  9  8  1  0
  9 10  2  0
 10 11  1  0
 11 12  2  0
 13  9  1  0
 14 13  1  0
 14 15  1  0
 14 16  1  0
  2 17  1  0
  2 18  1  0
  3 19  1  0
  3 20  1  0
  4 21  1  0
  4 22  1  0
  5 23  1  0
  5 24  1  0
  6 25  1  0
  6 26  1  0
  8 27  1  0
 11 28  1  0
 14 29  1  0
 15 30  1  0
 15 31  1  0
 15 32  1  0
 16 33  1  0
 16 34  1  0
 16 35  1  0
M  ISO  8  17  13  18  13  19  13  20  13  21  13  22  13  23  13  24  13
M  ISO  8  25  13  26  13  27  14  28  14  29   8  30   8  31   8  32   8
M  ISO  3  33   8  34   8  35   8
M  END
>  <minimizedAffinity>  (1) 
-4.36422729

>  <minimizedRMSD>  (1) 
2.5123167

$$$$
