
     RDKit          3D

 32 34  0  0  0  0  0  0  0  0999 V2000
   38.6610   23.5880   35.7920 N   0  0  0  0  0  0  0  0  0  0  0  0
   39.8850   23.0770   36.3320 C   0  0  0  0  0  0  0  0  0  0  0  0
   39.9160   22.7350   37.7640 C   0  0  0  0  0  0  0  0  0  0  0  0
   39.0170   23.4880   38.6700 C   0  0  0  0  0  0  0  0  0  0  0  0
   37.7850   24.0530   38.0040 C   0  0  0  0  0  0  0  0  0  0  0  0
   38.2050   24.6500   36.6550 C   0  0  0  0  0  0  0  0  0  0  0  0
   38.0010   23.1370   34.6140 C   0  0  0  0  0  0  0  0  0  0  0  0
   37.7930   23.9340   33.4690 C   0  0  0  0  0  0  0  0  0  0  0  0
   37.1390   23.3590   32.4020 C   0  0  0  0  0  0  0  0  0  0  0  0
   36.7270   22.0660   32.4940 N   0  0  0  0  0  0  0  0  0  0  0  0
   36.9490   21.3490   33.6030 C   0  0  0  0  0  0  0  0  0  0  0  0
   37.5780   21.8740   34.6550 N   0  0  0  0  0  0  0  0  0  0  0  0
   36.9210   24.4170   31.0020 S   0  0  0  0  0  0  0  0  0  0  0  0
   38.5240   24.6890   30.1990 C   0  0  0  0  0  0  0  0  0  0  0  0
   39.2680   23.7430   29.2200 C   0  0  0  0  0  0  0  0  0  0  0  0
   40.7000   24.7730   28.9460 S   0  0  0  0  0  0  0  0  0  0  0  0
   40.1650   26.1900   30.0650 C   0  0  0  0  0  0  0  0  0  0  0  0
   38.9500   25.8850   30.6180 N   0  0  0  0  0  0  0  0  0  0  0  0
   40.1345   22.1639   35.7716 H   0  0  0  0  0  0  0  0  0  0  0  0
   40.5993   23.9074   36.2309 H   0  0  0  0  0  0  0  0  0  0  0  0
   39.6561   21.6699   37.8534 H   0  0  0  0  0  0  0  0  0  0  0  0
   40.9310   23.0027   38.0927 H   0  0  0  0  0  0  0  0  0  0  0  0
   38.6927   22.8101   39.4733 H   0  0  0  0  0  0  0  0  0  0  0  0
   39.5947   24.3482   39.0393 H   0  0  0  0  0  0  0  0  0  0  0  0
   37.0472   23.2529   37.8443 H   0  0  0  0  0  0  0  0  0  0  0  0
   37.3295   24.8275   38.6386 H   0  0  0  0  0  0  0  0  0  0  0  0
   39.0184   25.3743   36.8096 H   0  0  0  0  0  0  0  0  0  0  0  0
   37.3482   25.1620   36.1927 H   0  0  0  0  0  0  0  0  0  0  0  0
   38.1405   24.9769   33.4297 H   0  0  0  0  0  0  0  0  0  0  0  0
   36.6052   20.3050   33.6470 H   0  0  0  0  0  0  0  0  0  0  0  0
   38.9990   22.7535   28.8218 H   0  0  0  0  0  0  0  0  0  0  0  0
   40.7358   27.1129   30.2452 H   0  0  0  0  0  0  0  0  0  0  0  0
  1  2  1  0
  1  6  1  0
  2  3  1  0
  3  4  1  0
  5  4  1  0
  6  5  1  0
  7 12  1  0
  7  1  1  0
  8  7  2  0
  9 10  2  0
  9  8  1  0
 10 11  1  0
 11 12  2  0
 13  9  1  0
 14 18  1  0
 14 13  1  0
 15 14  2  0
 16 15  1  0
 16 17  1  0
 17 18  2  0
  2 19  1  0
  2 20  1  0
  3 21  1  0
  3 22  1  0
  4 23  1  0
  4 24  1  0
  5 25  1  0
  5 26  1  0
  6 27  1  0
  6 28  1  0
  8 29  1  0
 11 30  1  0
 15 31  1  0
 17 32  1  0
M  ISO  8  19  13  20  13  21  13  22  13  23  13  24  13  25  13  26  13
M  ISO  6  27  13  28  13  29  14  30  14  31  14  32  14
M  END
>  <minimizedAffinity>  (1) 
-4.22484493

>  <minimizedRMSD>  (1) 
0.665746689

$$$$
