
     RDKit          3D

 43 47  0  0  0  0  0  0  0  0999 V2000
   40.7550   26.7810   34.6630 C   0  0  0  0  0  0  0  0  0  0  0  0
   43.3530   24.1400   35.1210 C   0  0  0  0  0  0  0  0  0  0  0  0
   42.7340   23.0430   34.5050 C   0  0  0  0  0  0  0  0  0  0  0  0
   41.4660   23.2040   33.9520 C   0  0  0  0  0  0  0  0  0  0  0  0
   40.9030   24.4490   34.0500 N   0  0  0  0  0  0  0  0  0  0  0  0
   41.5190   25.4940   34.6480 C   0  0  0  0  0  0  0  0  0  0  0  0
   42.7280   25.3410   35.1760 N   0  0  0  0  0  0  0  0  0  0  0  0
   40.7300   22.1000   33.2800 C   0  0  0  0  0  0  0  0  0  0  0  0
   41.4330   21.1090   32.5790 C   0  0  0  0  0  0  0  0  0  0  0  0
   40.0360   20.0800   31.9890 S   0  0  0  0  0  0  0  0  0  0  0  0
   38.7570   21.1910   32.8060 C   0  0  0  0  0  0  0  0  0  0  0  0
   39.4270   22.1020   33.3640 N   0  0  0  0  0  0  0  0  0  0  0  0
   37.3250   20.8350   32.6620 C   0  0  0  0  0  0  0  0  0  0  0  0
   36.7770   20.4130   31.4830 C   0  0  0  0  0  0  0  0  0  0  0  0
   34.9690   20.1300   31.9630 S   0  0  0  0  0  0  0  0  0  0  0  0
   35.3990   20.6740   33.7280 C   0  0  0  0  0  0  0  0  0  0  0  0
   36.5170   20.9170   33.6990 N   0  0  0  0  0  0  0  0  0  0  0  0
   39.3860   26.5610   35.2440 C   0  0  0  0  0  0  0  0  0  0  0  0
   38.3240   27.2260   34.4420 C   0  0  0  0  0  0  0  0  0  0  0  0
   37.2210   27.7590   35.0710 C   0  0  0  0  0  0  0  0  0  0  0  0
   36.1650   28.4050   34.4170 C   0  0  0  0  0  0  0  0  0  0  0  0
   36.2690   28.4940   33.0510 N   0  0  0  0  0  0  0  0  0  0  0  0
   37.3530   27.9690   32.4330 C   0  0  0  0  0  0  0  0  0  0  0  0
   38.3660   27.3450   33.1190 N   0  0  0  0  0  0  0  0  0  0  0  0
   37.4990   28.0440   30.9780 C   0  0  0  0  0  0  0  0  0  0  0  0
   38.7660   27.9950   30.3990 C   0  0  0  0  0  0  0  0  0  0  0  0
   38.5590   28.0900   29.0020 C   0  0  0  0  0  0  0  0  0  0  0  0
   37.2100   28.1900   28.8030 N   0  0  0  0  0  0  0  0  0  0  0  0
   36.5900   28.1620   29.9750 N   0  0  0  0  0  0  0  0  0  0  0  0
   40.6576   27.1585   33.6344 H   0  0  0  0  0  0  0  0  0  0  0  0
   41.2952   27.5138   35.2804 H   0  0  0  0  0  0  0  0  0  0  0  0
   44.3537   24.0247   35.5630 H   0  0  0  0  0  0  0  0  0  0  0  0
   43.2428   22.0688   34.4592 H   0  0  0  0  0  0  0  0  0  0  0  0
   42.5153   20.9848   32.4267 H   0  0  0  0  0  0  0  0  0  0  0  0
   37.2626   20.2737   30.5059 H   0  0  0  0  0  0  0  0  0  0  0  0
   34.7213   20.7414   34.5918 H   0  0  0  0  0  0  0  0  0  0  0  0
   39.1831   25.4803   35.2744 H   0  0  0  0  0  0  0  0  0  0  0  0
   39.3721   26.9984   36.2532 H   0  0  0  0  0  0  0  0  0  0  0  0
   37.1656   27.6709   36.1661 H   0  0  0  0  0  0  0  0  0  0  0  0
   35.3042   28.8163   34.9645 H   0  0  0  0  0  0  0  0  0  0  0  0
   39.7297   27.9016   30.9210 H   0  0  0  0  0  0  0  0  0  0  0  0
   39.3363   28.0844   28.2237 H   0  0  0  0  0  0  0  0  0  0  0  0
   36.7477   28.2739   27.8864 H   0  0  0  0  0  0  0  0  0  0  0  0
  1 18  1  0
  2  7  2  0
  3  2  1  0
  4  5  1  0
  4  3  2  0
  5  6  2  0
  6  1  1  0
  6  7  1  0
  8 12  1  0
  8  4  1  0
  9  8  2  0
 10  9  1  0
 10 11  1  0
 11 12  2  0
 13 11  1  0
 13 17  1  0
 14 15  1  0
 14 13  2  0
 15 16  1  0
 17 16  2  0
 19 20  2  0
 19 18  1  0
 21 20  1  0
 22 21  2  0
 23 22  1  0
 23 24  2  0
 24 19  1  0
 25 23  1  0
 26 25  1  0
 27 26  2  0
 28 27  1  0
 28 29  1  0
 29 25  2  0
  1 30  1  0
  1 31  1  0
  2 32  1  0
  3 33  1  0
  9 34  1  0
 14 35  1  0
 16 36  1  0
 18 37  1  0
 18 38  1  0
 20 39  1  0
 21 40  1  0
 26 41  1  0
 27 42  1  0
 28 43  1  0
M  ISO  8  30   8  31   8  32  14  33  14  34  14  35  14  36  14  37   8
M  ISO  6  38   8  39  14  40  14  41  14  42  14  43   9
M  END
>  <minimizedAffinity>  (1) 
-5.19168329

>  <minimizedRMSD>  (1) 
3.03856158

$$$$
