
     RDKit          3D

 46 49  0  0  0  0  0  0  0  0999 V2000
   38.0490   23.1240   34.6140 C   0  0  0  0  0  0  0  0  0  0  0  0
   38.0060   23.8620   33.4070 C   0  0  0  0  0  0  0  0  0  0  0  0
   37.3470   23.2680   32.3230 C   0  0  0  0  0  0  0  0  0  0  0  0
   36.7970   22.0520   32.4760 N   0  0  0  0  0  0  0  0  0  0  0  0
   36.8620   21.3810   33.6470 C   0  0  0  0  0  0  0  0  0  0  0  0
   37.4830   21.9140   34.7080 N   0  0  0  0  0  0  0  0  0  0  0  0
   38.6750   23.5850   35.8020 N   0  0  0  0  0  0  0  0  0  0  0  0
   39.8890   23.0900   36.3730 C   0  0  0  0  0  0  0  0  0  0  0  0
   39.9000   22.7460   37.7960 C   0  0  0  0  0  0  0  0  0  0  0  0
   38.9860   23.5070   38.6930 C   0  0  0  0  0  0  0  0  0  0  0  0
   37.7600   24.0400   37.9980 C   0  0  0  0  0  0  0  0  0  0  0  0
   38.1800   24.6550   36.6540 C   0  0  0  0  0  0  0  0  0  0  0  0
   37.3410   24.2540   30.8550 S   0  0  0  0  0  0  0  0  0  0  0  0
   37.4750   26.0180   31.1940 C   0  0  0  0  0  0  0  0  0  0  0  0
   36.2050   26.5700   31.7840 C   0  0  0  0  0  0  0  0  0  0  0  0
   36.1870   28.0500   31.6740 C   0  0  0  0  0  0  0  0  0  0  0  0
   36.4340   28.7130   30.4660 C   0  0  0  0  0  0  0  0  0  0  0  0
   36.3610   30.0450   30.6440 N   0  0  0  0  0  0  0  0  0  0  0  0
   36.0700   30.2640   31.9450 C   0  0  0  0  0  0  0  0  0  0  0  0
   35.8840   31.4240   32.6770 C   0  0  0  0  0  0  0  0  0  0  0  0
   35.5920   31.3750   34.0420 C   0  0  0  0  0  0  0  0  0  0  0  0
   35.4920   30.1210   34.6410 C   0  0  0  0  0  0  0  0  0  0  0  0
   35.6720   28.9340   33.9410 C   0  0  0  0  0  0  0  0  0  0  0  0
   35.9570   29.0380   32.6080 C   0  0  0  0  0  0  0  0  0  0  0  0
   38.4689   24.8564   33.3240 H   0  0  0  0  0  0  0  0  0  0  0  0
   36.4000   20.3862   33.7302 H   0  0  0  0  0  0  0  0  0  0  0  0
   40.1632   22.1815   35.8167 H   0  0  0  0  0  0  0  0  0  0  0  0
   40.5890   23.9348   36.2938 H   0  0  0  0  0  0  0  0  0  0  0  0
   39.6342   21.6819   37.8801 H   0  0  0  0  0  0  0  0  0  0  0  0
   40.9120   23.0058   38.1401 H   0  0  0  0  0  0  0  0  0  0  0  0
   38.6621   22.8400   39.5055 H   0  0  0  0  0  0  0  0  0  0  0  0
   39.5492   24.3765   39.0629 H   0  0  0  0  0  0  0  0  0  0  0  0
   37.0484   23.2196   37.8228 H   0  0  0  0  0  0  0  0  0  0  0  0
   37.2784   24.8051   38.6246 H   0  0  0  0  0  0  0  0  0  0  0  0
   38.9733   25.3995   36.8164 H   0  0  0  0  0  0  0  0  0  0  0  0
   37.3226   25.1544   36.1791 H   0  0  0  0  0  0  0  0  0  0  0  0
   38.2989   26.1829   31.9039 H   0  0  0  0  0  0  0  0  0  0  0  0
   37.6645   26.5364   30.2425 H   0  0  0  0  0  0  0  0  0  0  0  0
   35.3426   26.1552   31.2416 H   0  0  0  0  0  0  0  0  0  0  0  0
   36.1523   26.2894   32.8463 H   0  0  0  0  0  0  0  0  0  0  0  0
   36.6557   28.2169   29.5096 H   0  0  0  0  0  0  0  0  0  0  0  0
   36.5012   30.7652   29.9211 H   0  0  0  0  0  0  0  0  0  0  0  0
   35.9675   32.3997   32.1759 H   0  0  0  0  0  0  0  0  0  0  0  0
   35.4458   32.2963   34.6250 H   0  0  0  0  0  0  0  0  0  0  0  0
   35.2604   30.0682   35.7151 H   0  0  0  0  0  0  0  0  0  0  0  0
   35.5890   27.9556   34.4368 H   0  0  0  0  0  0  0  0  0  0  0  0
  1  6  1  0
  1  7  1  0
  2  1  2  0
  3  4  2  0
  3  2  1  0
  4  5  1  0
  5  6  2  0
  7  8  1  0
  7 12  1  0
  8  9  1  0
  9 10  1  0
 11 10  1  0
 12 11  1  0
 13 14  1  0
 13  3  1  0
 14 15  1  0
 16 15  1  0
 16 24  1  0
 17 18  1  0
 17 16  2  0
 18 19  1  0
 19 24  2  0
 19 20  1  0
 20 21  2  0
 21 22  1  0
 23 22  2  0
 24 23  1  0
  2 25  1  0
  5 26  1  0
  8 27  1  0
  8 28  1  0
  9 29  1  0
  9 30  1  0
 10 31  1  0
 10 32  1  0
 11 33  1  0
 11 34  1  0
 12 35  1  0
 12 36  1  0
 14 37  1  0
 14 38  1  0
 15 39  1  0
 15 40  1  0
 17 41  1  0
 18 42  1  0
 20 43  1  0
 21 44  1  0
 22 45  1  0
 23 46  1  0
M  ISO  8  25  14  26  14  27  13  28  13  29  13  30  13  31  13  32  13
M  ISO  8  33  13  34  13  35  13  36  13  37   8  38   8  39   8  40   8
M  ISO  6  41  14  42   9  43  14  44  14  45  14  46  14
M  END
>  <minimizedAffinity>  (1) 
-5.70111513

>  <minimizedRMSD>  (1) 
2.84116435

$$$$
