
     RDKit          3D

 45 48  0  0  0  0  0  0  0  0999 V2000
   38.0300   23.1200   34.5920 C   0  0  0  0  0  0  0  0  0  0  0  0
   37.9620   23.8280   33.3840 C   0  0  0  0  0  0  0  0  0  0  0  0
   37.3110   23.2480   32.3120 C   0  0  0  0  0  0  0  0  0  0  0  0
   36.7590   22.0100   32.4710 N   0  0  0  0  0  0  0  0  0  0  0  0
   36.8410   21.3620   33.6370 C   0  0  0  0  0  0  0  0  0  0  0  0
   37.4610   21.8940   34.6860 N   0  0  0  0  0  0  0  0  0  0  0  0
   38.6530   23.5690   35.7700 N   0  0  0  0  0  0  0  0  0  0  0  0
   39.8810   23.1160   36.3460 C   0  0  0  0  0  0  0  0  0  0  0  0
   39.8860   22.7390   37.7580 C   0  0  0  0  0  0  0  0  0  0  0  0
   38.9710   23.4900   38.6580 C   0  0  0  0  0  0  0  0  0  0  0  0
   37.7170   24.0090   37.9740 C   0  0  0  0  0  0  0  0  0  0  0  0
   38.1230   24.6230   36.6420 C   0  0  0  0  0  0  0  0  0  0  0  0
   37.2890   24.2270   30.8460 S   0  0  0  0  0  0  0  0  0  0  0  0
   37.4330   25.9870   31.1520 C   0  0  0  0  0  0  0  0  0  0  0  0
   36.0940   26.5760   31.5450 C   0  0  0  0  0  0  0  0  0  0  0  0
   36.1680   27.4940   32.6400 N   0  0  0  0  0  0  0  0  0  0  0  0
   36.9050   27.2400   33.7440 C   0  0  0  0  0  0  0  0  0  0  0  0
   36.8150   28.2610   34.6410 N   0  0  0  0  0  0  0  0  0  0  0  0
   35.9950   29.2050   34.1020 C   0  0  0  0  0  0  0  0  0  0  0  0
   35.5180   30.4490   34.5150 C   0  0  0  0  0  0  0  0  0  0  0  0
   34.6900   31.1580   33.7150 N   0  0  0  0  0  0  0  0  0  0  0  0
   34.3420   30.6220   32.5110 C   0  0  0  0  0  0  0  0  0  0  0  0
   34.7960   29.4070   32.0880 N   0  0  0  0  0  0  0  0  0  0  0  0
   35.6130   28.6910   32.8580 C   0  0  0  0  0  0  0  0  0  0  0  0
   35.9950   30.8340   35.8030 N   0  0  0  0  0  0  0  0  0  0  0  0
   38.4176   24.8249   33.2914 H   0  0  0  0  0  0  0  0  0  0  0  0
   36.3850   20.3654   33.7310 H   0  0  0  0  0  0  0  0  0  0  0  0
   40.2043   22.2348   35.7724 H   0  0  0  0  0  0  0  0  0  0  0  0
   40.5439   23.9924   36.2965 H   0  0  0  0  0  0  0  0  0  0  0  0
   39.6129   21.6752   37.8189 H   0  0  0  0  0  0  0  0  0  0  0  0
   40.8988   22.9774   38.1149 H   0  0  0  0  0  0  0  0  0  0  0  0
   38.6665   22.8218   39.4770 H   0  0  0  0  0  0  0  0  0  0  0  0
   39.5267   24.3705   39.0129 H   0  0  0  0  0  0  0  0  0  0  0  0
   37.0151   23.1794   37.8034 H   0  0  0  0  0  0  0  0  0  0  0  0
   37.2232   24.7623   38.6055 H   0  0  0  0  0  0  0  0  0  0  0  0
   38.8968   25.3868   36.8089 H   0  0  0  0  0  0  0  0  0  0  0  0
   37.2482   25.0917   36.1677 H   0  0  0  0  0  0  0  0  0  0  0  0
   38.1533   26.1537   31.9665 H   0  0  0  0  0  0  0  0  0  0  0  0
   37.7772   26.4782   30.2299 H   0  0  0  0  0  0  0  0  0  0  0  0
   35.6791   27.1061   30.6750 H   0  0  0  0  0  0  0  0  0  0  0  0
   35.4579   25.7394   31.8696 H   0  0  0  0  0  0  0  0  0  0  0  0
   37.4999   26.3277   33.8980 H   0  0  0  0  0  0  0  0  0  0  0  0
   33.6682   31.1918   31.8542 H   0  0  0  0  0  0  0  0  0  0  0  0
   35.7076   31.7353   36.2104 H   0  0  0  0  0  0  0  0  0  0  0  0
   36.6268   30.2107   36.3257 H   0  0  0  0  0  0  0  0  0  0  0  0
  1  6  1  0
  1  7  1  0
  2  1  2  0
  3  4  2  0
  3  2  1  0
  4  5  1  0
  5  6  2  0
  7  8  1  0
  7 12  1  0
  8  9  1  0
  9 10  1  0
 11 10  1  0
 12 11  1  0
 13 14  1  0
 13  3  1  0
 14 15  1  0
 15 16  1  0
 16 24  1  0
 16 17  1  0
 17 18  2  0
 19 20  2  0
 19 18  1  0
 20 25  1  0
 21 20  1  0
 22 21  2  0
 23 22  1  0
 23 24  2  0
 24 19  1  0
  2 26  1  0
  5 27  1  0
  8 28  1  0
  8 29  1  0
  9 30  1  0
  9 31  1  0
 10 32  1  0
 10 33  1  0
 11 34  1  0
 11 35  1  0
 12 36  1  0
 12 37  1  0
 14 38  1  0
 14 39  1  0
 15 40  1  0
 15 41  1  0
 17 42  1  0
 22 43  1  0
 25 44  1  0
 25 45  1  0
M  ISO  8  26  14  27  14  28  13  29  13  30  13  31  13  32  13  33  13
M  ISO  8  34  13  35  13  36  13  37  13  38   8  39   8  40   8  41   8
M  ISO  2  42  14  43  14
M  END
>  <minimizedAffinity>  (1) 
-5.50357533

>  <minimizedRMSD>  (1) 
4.23326826

$$$$
