
     RDKit          3D

 48 50  0  0  0  0  0  0  0  0999 V2000
   38.1460   23.4420   34.6040 C   0  0  0  0  0  0  0  0  0  0  0  0
   38.0430   24.3100   33.5070 C   0  0  0  0  0  0  0  0  0  0  0  0
   37.4410   23.8390   32.3480 C   0  0  0  0  0  0  0  0  0  0  0  0
   36.9800   22.5680   32.3240 N   0  0  0  0  0  0  0  0  0  0  0  0
   37.0930   21.7580   33.3930 C   0  0  0  0  0  0  0  0  0  0  0  0
   37.6730   22.1920   34.5260 N   0  0  0  0  0  0  0  0  0  0  0  0
   38.7310   23.7750   35.8480 N   0  0  0  0  0  0  0  0  0  0  0  0
   39.9300   23.2380   36.4160 C   0  0  0  0  0  0  0  0  0  0  0  0
   39.8900   22.7640   37.7990 C   0  0  0  0  0  0  0  0  0  0  0  0
   38.9410   23.4230   38.7220 C   0  0  0  0  0  0  0  0  0  0  0  0
   37.7340   24.0200   38.0430 C   0  0  0  0  0  0  0  0  0  0  0  0
   38.1860   24.7550   36.7840 C   0  0  0  0  0  0  0  0  0  0  0  0
   37.3570   24.9980   31.0300 S   0  0  0  0  0  0  0  0  0  0  0  0
   38.4940   26.3620   31.2030 C   0  0  0  0  0  0  0  0  0  0  0  0
   37.8000   27.6270   31.7040 C   0  0  0  0  0  0  0  0  0  0  0  0
   36.4940   27.9010   31.0600 C   0  0  0  0  0  0  0  0  0  0  0  0
   35.4330   28.0790   32.1080 C   0  0  0  0  0  0  0  0  0  0  0  0
   35.8610   29.1000   33.1200 C   0  0  0  0  0  0  0  0  0  0  0  0
   36.1190   30.4050   32.4010 C   0  0  0  0  0  0  0  0  0  0  0  0
   35.7420   30.2850   30.9250 C   0  0  0  0  0  0  0  0  0  0  0  0
   36.5840   29.1990   30.2750 C   0  0  0  0  0  0  0  0  0  0  0  0
   38.4296   25.3383   33.5636 H   0  0  0  0  0  0  0  0  0  0  0  0
   36.7066   20.7295   33.3393 H   0  0  0  0  0  0  0  0  0  0  0  0
   40.2349   22.3873   35.7888 H   0  0  0  0  0  0  0  0  0  0  0  0
   40.6242   24.0909   36.4412 H   0  0  0  0  0  0  0  0  0  0  0  0
   39.6345   21.6944   37.7729 H   0  0  0  0  0  0  0  0  0  0  0  0
   40.8845   23.0020   38.2044 H   0  0  0  0  0  0  0  0  0  0  0  0
   38.5930   22.6760   39.4506 H   0  0  0  0  0  0  0  0  0  0  0  0
   39.4838   24.2559   39.1928 H   0  0  0  0  0  0  0  0  0  0  0  0
   37.0305   23.2196   37.7704 H   0  0  0  0  0  0  0  0  0  0  0  0
   37.2335   24.7233   38.7248 H   0  0  0  0  0  0  0  0  0  0  0  0
   38.9602   25.4925   37.0422 H   0  0  0  0  0  0  0  0  0  0  0  0
   37.3345   25.2807   36.3273 H   0  0  0  0  0  0  0  0  0  0  0  0
   39.2795   26.0805   31.9198 H   0  0  0  0  0  0  0  0  0  0  0  0
   38.9182   26.5779   30.2113 H   0  0  0  0  0  0  0  0  0  0  0  0
   37.6355   27.5240   32.7867 H   0  0  0  0  0  0  0  0  0  0  0  0
   38.4596   28.4700   31.4504 H   0  0  0  0  0  0  0  0  0  0  0  0
   36.2431   27.0572   30.4004 H   0  0  0  0  0  0  0  0  0  0  0  0
   34.5019   28.4138   31.6274 H   0  0  0  0  0  0  0  0  0  0  0  0
   35.2718   27.1179   32.6182 H   0  0  0  0  0  0  0  0  0  0  0  0
   35.0659   29.2384   33.8674 H   0  0  0  0  0  0  0  0  0  0  0  0
   36.7741   28.7641   33.6332 H   0  0  0  0  0  0  0  0  0  0  0  0
   35.5165   31.1996   32.8653 H   0  0  0  0  0  0  0  0  0  0  0  0
   37.1891   30.6480   32.4768 H   0  0  0  0  0  0  0  0  0  0  0  0
   34.6768   30.0245   30.8384 H   0  0  0  0  0  0  0  0  0  0  0  0
   35.9265   31.2445   30.4197 H   0  0  0  0  0  0  0  0  0  0  0  0
   36.2214   29.0265   29.2509 H   0  0  0  0  0  0  0  0  0  0  0  0
   37.6332   29.5290   30.2603 H   0  0  0  0  0  0  0  0  0  0  0  0
  1  7  1  0
  2  1  2  0
  3  2  1  0
  4  3  2  0
  4  5  1  0
  5  6  2  0
  6  1  1  0
  7  8  1  0
  7 12  1  0
  8  9  1  0
  9 10  1  0
 11 10  1  0
 12 11  1  0
 13 14  1  0
 13  3  1  0
 14 15  1  0
 16 15  1  0
 16 17  1  0
 17 18  1  0
 19 18  1  0
 20 19  1  0
 21 20  1  0
 21 16  1  0
  2 22  1  0
  5 23  1  0
  8 24  1  0
  8 25  1  0
  9 26  1  0
  9 27  1  0
 10 28  1  0
 10 29  1  0
 11 30  1  0
 11 31  1  0
 12 32  1  0
 12 33  1  0
 14 34  1  0
 14 35  1  0
 15 36  1  0
 15 37  1  0
 16 38  1  0
 17 39  1  0
 17 40  1  0
 18 41  1  0
 18 42  1  0
 19 43  1  0
 19 44  1  0
 20 45  1  0
 20 46  1  0
 21 47  1  0
 21 48  1  0
M  ISO  8  22  14  23  14  24  13  25  13  26  13  27  13  28  13  29  13
M  ISO  8  30  13  31  13  32  13  33  13  34   8  35   8  36   8  37   8
M  ISO  8  38  13  39  13  40  13  41  13  42  13  43  13  44  13  45  13
M  ISO  3  46  13  47  13  48  13
M  END
>  <minimizedAffinity>  (1) 
-4.9582901

>  <minimizedRMSD>  (1) 
3.78429174

$$$$
