
     RDKit          3D

 40 42  0  0  0  0  0  0  0  0999 V2000
   38.0020   23.0700   34.5760 C   0  0  0  0  0  0  0  0  0  0  0  0
   37.9670   23.7830   33.3640 C   0  0  0  0  0  0  0  0  0  0  0  0
   37.2980   23.1930   32.2880 C   0  0  0  0  0  0  0  0  0  0  0  0
   36.7250   21.9740   32.4710 N   0  0  0  0  0  0  0  0  0  0  0  0
   36.7840   21.3300   33.6440 C   0  0  0  0  0  0  0  0  0  0  0  0
   37.4170   21.8700   34.6930 N   0  0  0  0  0  0  0  0  0  0  0  0
   38.6370   23.5310   35.7500 N   0  0  0  0  0  0  0  0  0  0  0  0
   39.8580   23.0690   36.3160 C   0  0  0  0  0  0  0  0  0  0  0  0
   39.8830   22.7390   37.7500 C   0  0  0  0  0  0  0  0  0  0  0  0
   38.9670   23.4950   38.6440 C   0  0  0  0  0  0  0  0  0  0  0  0
   37.7220   24.0000   37.9620 C   0  0  0  0  0  0  0  0  0  0  0  0
   38.1300   24.6000   36.6150 C   0  0  0  0  0  0  0  0  0  0  0  0
   37.2950   24.1440   30.8040 S   0  0  0  0  0  0  0  0  0  0  0  0
   37.6400   25.8820   31.0920 C   0  0  0  0  0  0  0  0  0  0  0  0
   36.3690   26.7130   30.9960 C   0  0  0  0  0  0  0  0  0  0  0  0
   36.1540   27.5400   32.1890 C   0  0  0  0  0  0  0  0  0  0  0  0
   36.8770   27.2660   33.3420 C   0  0  0  0  0  0  0  0  0  0  0  0
   36.7730   27.9700   34.5440 C   0  0  0  0  0  0  0  0  0  0  0  0
   35.8740   28.9810   34.4920 N   0  0  0  0  0  0  0  0  0  0  0  0
   35.1570   29.2850   33.4140 C   0  0  0  0  0  0  0  0  0  0  0  0
   35.2870   28.5800   32.2720 N   0  0  0  0  0  0  0  0  0  0  0  0
   38.4479   24.7675   33.2667 H   0  0  0  0  0  0  0  0  0  0  0  0
   36.3061   20.3446   33.7468 H   0  0  0  0  0  0  0  0  0  0  0  0
   40.1474   22.1603   35.7679 H   0  0  0  0  0  0  0  0  0  0  0  0
   40.5409   23.9264   36.2235 H   0  0  0  0  0  0  0  0  0  0  0  0
   39.6323   21.6724   37.8471 H   0  0  0  0  0  0  0  0  0  0  0  0
   40.8935   23.0170   38.0841 H   0  0  0  0  0  0  0  0  0  0  0  0
   38.6649   22.8331   39.4690 H   0  0  0  0  0  0  0  0  0  0  0  0
   39.5204   24.3800   38.9911 H   0  0  0  0  0  0  0  0  0  0  0  0
   37.0202   23.1680   37.8027 H   0  0  0  0  0  0  0  0  0  0  0  0
   37.2274   24.7602   38.5844 H   0  0  0  0  0  0  0  0  0  0  0  0
   38.9166   25.3532   36.7699 H   0  0  0  0  0  0  0  0  0  0  0  0
   37.2595   25.0787   36.1426 H   0  0  0  0  0  0  0  0  0  0  0  0
   38.0729   26.0013   32.0962 H   0  0  0  0  0  0  0  0  0  0  0  0
   38.3461   26.2312   30.3242 H   0  0  0  0  0  0  0  0  0  0  0  0
   36.4419   27.3711   30.1176 H   0  0  0  0  0  0  0  0  0  0  0  0
   35.5192   26.0201   30.9088 H   0  0  0  0  0  0  0  0  0  0  0  0
   37.5884   26.4278   33.3062 H   0  0  0  0  0  0  0  0  0  0  0  0
   37.3615   27.7277   35.4412 H   0  0  0  0  0  0  0  0  0  0  0  0
   34.4471   30.1243   33.4546 H   0  0  0  0  0  0  0  0  0  0  0  0
  1  6  1  0
  1  7  1  0
  2  1  2  0
  3  4  2  0
  3  2  1  0
  4  5  1  0
  5  6  2  0
  7  8  1  0
  7 12  1  0
  8  9  1  0
  9 10  1  0
 11 10  1  0
 12 11  1  0
 13 14  1  0
 13  3  1  0
 15 14  1  0
 15 16  1  0
 16 21  1  0
 16 17  2  0
 17 18  1  0
 19 18  2  0
 20 19  1  0
 21 20  2  0
  2 22  1  0
  5 23  1  0
  8 24  1  0
  8 25  1  0
  9 26  1  0
  9 27  1  0
 10 28  1  0
 10 29  1  0
 11 30  1  0
 11 31  1  0
 12 32  1  0
 12 33  1  0
 14 34  1  0
 14 35  1  0
 15 36  1  0
 15 37  1  0
 17 38  1  0
 18 39  1  0
 20 40  1  0
M  ISO  8  22  14  23  14  24  13  25  13  26  13  27  13  28  13  29  13
M  ISO  8  30  13  31  13  32  13  33  13  34   8  35   8  36   8  37   8
M  ISO  3  38  14  39  14  40  14
M  END
>  <minimizedAffinity>  (1) 
-4.94639969

>  <minimizedRMSD>  (1) 
2.76101995

$$$$
