
     RDKit          3D

 37 39  0  0  0  0  0  0  0  0999 V2000
   37.9870   23.1050   34.5860 C   0  0  0  0  0  0  0  0  0  0  0  0
   37.8520   23.8540   33.4130 C   0  0  0  0  0  0  0  0  0  0  0  0
   37.1920   23.2910   32.3320 C   0  0  0  0  0  0  0  0  0  0  0  0
   36.7040   22.0370   32.4630 N   0  0  0  0  0  0  0  0  0  0  0  0
   36.8450   21.3370   33.6000 C   0  0  0  0  0  0  0  0  0  0  0  0
   37.4800   21.8620   34.6560 N   0  0  0  0  0  0  0  0  0  0  0  0
   38.6380   23.5590   35.7610 N   0  0  0  0  0  0  0  0  0  0  0  0
   39.8610   23.0560   36.3120 C   0  0  0  0  0  0  0  0  0  0  0  0
   39.8940   22.7260   37.7340 C   0  0  0  0  0  0  0  0  0  0  0  0
   38.9840   23.4830   38.6370 C   0  0  0  0  0  0  0  0  0  0  0  0
   37.7360   24.0240   37.9650 C   0  0  0  0  0  0  0  0  0  0  0  0
   38.1710   24.6290   36.6220 C   0  0  0  0  0  0  0  0  0  0  0  0
   37.0700   24.3070   30.8950 S   0  0  0  0  0  0  0  0  0  0  0  0
   37.5100   26.0130   31.2060 C   0  0  0  0  0  0  0  0  0  0  0  0
   36.2900   26.9270   31.1610 C   0  0  0  0  0  0  0  0  0  0  0  0
   36.1930   27.6330   32.4810 C   0  0  0  0  0  0  0  0  0  0  0  0
   36.8790   27.3100   33.5940 N   0  0  0  0  0  0  0  0  0  0  0  0
   36.5530   28.1330   34.5630 O   0  0  0  0  0  0  0  0  0  0  0  0
   35.6750   28.9750   34.0970 C   0  0  0  0  0  0  0  0  0  0  0  0
   35.4280   28.6880   32.7900 N   0  0  0  0  0  0  0  0  0  0  0  0
   38.2625   24.8725   33.3492 H   0  0  0  0  0  0  0  0  0  0  0  0
   36.4336   20.3189   33.6651 H   0  0  0  0  0  0  0  0  0  0  0  0
   40.1152   22.1398   35.7588 H   0  0  0  0  0  0  0  0  0  0  0  0
   40.5692   23.8915   36.2101 H   0  0  0  0  0  0  0  0  0  0  0  0
   39.6418   21.6597   37.8306 H   0  0  0  0  0  0  0  0  0  0  0  0
   40.9071   23.0017   38.0620 H   0  0  0  0  0  0  0  0  0  0  0  0
   38.6722   22.8123   39.4512 H   0  0  0  0  0  0  0  0  0  0  0  0
   39.5513   24.3562   38.9916 H   0  0  0  0  0  0  0  0  0  0  0  0
   37.0156   23.2101   37.7963 H   0  0  0  0  0  0  0  0  0  0  0  0
   37.2494   24.7822   38.5962 H   0  0  0  0  0  0  0  0  0  0  0  0
   38.9829   25.3525   36.7873 H   0  0  0  0  0  0  0  0  0  0  0  0
   37.3223   25.1466   36.1510 H   0  0  0  0  0  0  0  0  0  0  0  0
   37.9737   26.0860   32.2008 H   0  0  0  0  0  0  0  0  0  0  0  0
   38.2094   26.3355   30.4207 H   0  0  0  0  0  0  0  0  0  0  0  0
   36.4040   27.6628   30.3513 H   0  0  0  0  0  0  0  0  0  0  0  0
   35.3788   26.3403   30.9727 H   0  0  0  0  0  0  0  0  0  0  0  0
   35.2072   29.7894   34.6696 H   0  0  0  0  0  0  0  0  0  0  0  0
  1  6  1  0
  1  7  1  0
  2  1  2  0
  3  4  2  0
  3  2  1  0
  4  5  1  0
  5  6  2  0
  7  8  1  0
  7 12  1  0
  8  9  1  0
  9 10  1  0
 11 10  1  0
 12 11  1  0
 13 14  1  0
 13  3  1  0
 15 14  1  0
 15 16  1  0
 16 20  1  0
 16 17  2  0
 17 18  1  0
 19 18  1  0
 20 19  2  0
  2 21  1  0
  5 22  1  0
  8 23  1  0
  8 24  1  0
  9 25  1  0
  9 26  1  0
 10 27  1  0
 10 28  1  0
 11 29  1  0
 11 30  1  0
 12 31  1  0
 12 32  1  0
 14 33  1  0
 14 34  1  0
 15 35  1  0
 15 36  1  0
 19 37  1  0
M  ISO  8  21  14  22  14  23  13  24  13  25  13  26  13  27  13  28  13
M  ISO  8  29  13  30  13  31  13  32  13  33   8  34   8  35   8  36   8
M  ISO  1  37  14
M  END
>  <minimizedAffinity>  (1) 
-4.70941257

>  <minimizedRMSD>  (1) 
2.51614738

$$$$
