
     RDKit          3D

 33 34  0  0  0  0  0  0  0  0999 V2000
   38.0780   23.1140   34.6410 C   0  0  0  0  0  0  0  0  0  0  0  0
   38.0420   23.8380   33.4430 C   0  0  0  0  0  0  0  0  0  0  0  0
   37.3830   23.2370   32.3630 C   0  0  0  0  0  0  0  0  0  0  0  0
   36.8230   22.0160   32.5140 N   0  0  0  0  0  0  0  0  0  0  0  0
   36.8850   21.3570   33.6910 C   0  0  0  0  0  0  0  0  0  0  0  0
   37.5070   21.8990   34.7460 N   0  0  0  0  0  0  0  0  0  0  0  0
   38.7030   23.5780   35.8270 N   0  0  0  0  0  0  0  0  0  0  0  0
   39.9260   23.1080   36.4010 C   0  0  0  0  0  0  0  0  0  0  0  0
   39.9240   22.7610   37.8310 C   0  0  0  0  0  0  0  0  0  0  0  0
   38.9920   23.4990   38.7210 C   0  0  0  0  0  0  0  0  0  0  0  0
   37.7620   24.0420   38.0180 C   0  0  0  0  0  0  0  0  0  0  0  0
   38.1910   24.6340   36.6820 C   0  0  0  0  0  0  0  0  0  0  0  0
   37.3680   24.1910   30.8840 S   0  0  0  0  0  0  0  0  0  0  0  0
   36.3540   25.6570   30.9720 C   0  0  0  0  0  0  0  0  0  0  0  0
   34.8810   25.2850   31.1040 C   0  0  0  0  0  0  0  0  0  0  0  0
   34.2790   25.4080   29.8330 O   0  0  0  0  0  0  0  0  0  0  0  0
   38.5085   24.8303   33.3544 H   0  0  0  0  0  0  0  0  0  0  0  0
   36.4198   20.3646   33.7843 H   0  0  0  0  0  0  0  0  0  0  0  0
   40.2243   22.2069   35.8452 H   0  0  0  0  0  0  0  0  0  0  0  0
   40.6144   23.9626   36.3243 H   0  0  0  0  0  0  0  0  0  0  0  0
   39.6752   21.6924   37.9090 H   0  0  0  0  0  0  0  0  0  0  0  0
   40.9267   23.0418   38.1857 H   0  0  0  0  0  0  0  0  0  0  0  0
   38.6612   22.8158   39.5172 H   0  0  0  0  0  0  0  0  0  0  0  0
   39.5448   24.3676   39.1082 H   0  0  0  0  0  0  0  0  0  0  0  0
   37.0416   23.2281   37.8490 H   0  0  0  0  0  0  0  0  0  0  0  0
   37.2847   24.8157   38.6373 H   0  0  0  0  0  0  0  0  0  0  0  0
   38.9778   25.3844   36.8491 H   0  0  0  0  0  0  0  0  0  0  0  0
   37.3263   25.1112   36.1977 H   0  0  0  0  0  0  0  0  0  0  0  0
   36.6558   26.2531   31.8458 H   0  0  0  0  0  0  0  0  0  0  0  0
   36.4910   26.2384   30.0483 H   0  0  0  0  0  0  0  0  0  0  0  0
   34.7893   24.2485   31.4606 H   0  0  0  0  0  0  0  0  0  0  0  0
   34.3844   25.9505   31.8255 H   0  0  0  0  0  0  0  0  0  0  0  0
   33.3150   25.6050   29.9421 H   0  0  0  0  0  0  0  0  0  0  0  0
  1  6  1  0
  1  7  1  0
  2  1  2  0
  3  4  2  0
  3  2  1  0
  4  5  1  0
  5  6  2  0
  7  8  1  0
  7 12  1  0
  8  9  1  0
  9 10  1  0
 11 10  1  0
 12 11  1  0
 13 14  1  0
 13  3  1  0
 14 15  1  0
 16 15  1  0
  2 17  1  0
  5 18  1  0
  8 19  1  0
  8 20  1  0
  9 21  1  0
  9 22  1  0
 10 23  1  0
 10 24  1  0
 11 25  1  0
 11 26  1  0
 12 27  1  0
 12 28  1  0
 14 29  1  0
 14 30  1  0
 15 31  1  0
 15 32  1  0
 16 33  1  0
M  ISO  8  17  14  18  14  19  13  20  13  21  13  22  13  23  13  24  13
M  ISO  8  25  13  26  13  27  13  28  13  29   8  30   8  31   8  32   8
M  ISO  1  33   3
M  END
>  <minimizedAffinity>  (1) 
-4.36196327

>  <minimizedRMSD>  (1) 
0.585300267

$$$$
