
     RDKit          3D

 38 41  0  0  0  0  0  0  0  0999 V2000
   40.8230   26.7760   34.6170 C   0  0  0  0  0  0  0  0  0  0  0  0
   39.4580   27.0900   34.1130 C   0  0  0  0  0  0  0  0  0  0  0  0
   38.4010   27.1340   34.9970 C   0  0  0  0  0  0  0  0  0  0  0  0
   37.0860   27.4180   34.6350 C   0  0  0  0  0  0  0  0  0  0  0  0
   36.8560   27.6650   33.3040 N   0  0  0  0  0  0  0  0  0  0  0  0
   37.8960   27.6220   32.4350 C   0  0  0  0  0  0  0  0  0  0  0  0
   39.1720   27.3370   32.8470 N   0  0  0  0  0  0  0  0  0  0  0  0
   37.7040   27.8760   31.0190 C   0  0  0  0  0  0  0  0  0  0  0  0
   38.7890   28.1990   30.2030 C   0  0  0  0  0  0  0  0  0  0  0  0
   38.2680   28.3820   28.8970 C   0  0  0  0  0  0  0  0  0  0  0  0
   36.9220   28.1660   28.9810 N   0  0  0  0  0  0  0  0  0  0  0  0
   36.5980   27.8700   30.2230 N   0  0  0  0  0  0  0  0  0  0  0  0
   41.4170   25.5610   33.9360 C   0  0  0  0  0  0  0  0  0  0  0  0
   41.7230   22.7050   36.3200 C   0  0  0  0  0  0  0  0  0  0  0  0
   40.4820   22.0850   36.1410 C   0  0  0  0  0  0  0  0  0  0  0  0
   39.5780   22.6250   35.2390 C   0  0  0  0  0  0  0  0  0  0  0  0
   39.9520   23.7550   34.5600 N   0  0  0  0  0  0  0  0  0  0  0  0
   41.1580   24.3350   34.7530 C   0  0  0  0  0  0  0  0  0  0  0  0
   42.0230   23.8230   35.6110 N   0  0  0  0  0  0  0  0  0  0  0  0
   38.2380   22.0270   34.9880 C   0  0  0  0  0  0  0  0  0  0  0  0
   37.8360   21.6780   33.6890 C   0  0  0  0  0  0  0  0  0  0  0  0
   36.1660   21.0220   33.9870 S   0  0  0  0  0  0  0  0  0  0  0  0
   36.2880   21.3320   35.8530 C   0  0  0  0  0  0  0  0  0  0  0  0
   37.4390   21.8360   36.0130 N   0  0  0  0  0  0  0  0  0  0  0  0
   34.9900   20.9520   37.0110 S   0  0  0  0  0  0  0  0  0  0  0  0
   41.4769   27.6411   34.4322 H   0  0  0  0  0  0  0  0  0  0  0  0
   40.7446   26.5568   35.6921 H   0  0  0  0  0  0  0  0  0  0  0  0
   38.6096   26.9316   36.0579 H   0  0  0  0  0  0  0  0  0  0  0  0
   36.2742   27.4431   35.3768 H   0  0  0  0  0  0  0  0  0  0  0  0
   39.8405   28.2930   30.5119 H   0  0  0  0  0  0  0  0  0  0  0  0
   38.8366   28.6462   27.9932 H   0  0  0  0  0  0  0  0  0  0  0  0
   36.2610   28.2255   28.1933 H   0  0  0  0  0  0  0  0  0  0  0  0
   40.9587   25.4401   32.9433 H   0  0  0  0  0  0  0  0  0  0  0  0
   42.5031   25.7016   33.8326 H   0  0  0  0  0  0  0  0  0  0  0  0
   42.4517   22.2890   37.0313 H   0  0  0  0  0  0  0  0  0  0  0  0
   40.2260   21.1789   36.7097 H   0  0  0  0  0  0  0  0  0  0  0  0
   38.3858   21.7755   32.7413 H   0  0  0  0  0  0  0  0  0  0  0  0
   35.4633   21.0906   38.2892 H   0  0  0  0  0  0  0  0  0  0  0  0
  2  1  1  0
  2  3  2  0
  4  3  1  0
  5  4  2  0
  6  7  2  0
  6  5  1  0
  7  2  1  0
  8  6  1  0
  9  8  1  0
 10 11  1  0
 10  9  2  0
 11 12  1  0
 12  8  2  0
 13  1  1  0
 13 18  1  0
 15 14  2  0
 16 15  1  0
 17 18  1  0
 17 16  2  0
 18 19  2  0
 19 14  1  0
 20 16  1  0
 20 24  1  0
 21 22  1  0
 21 20  2  0
 22 23  1  0
 23 24  2  0
 23 25  1  0
  1 26  1  0
  1 27  1  0
  3 28  1  0
  4 29  1  0
  9 30  1  0
 10 31  1  0
 11 32  1  0
 13 33  1  0
 13 34  1  0
 14 35  1  0
 15 36  1  0
 21 37  1  0
 25 38  1  0
M  ISO  8  26   8  27   8  28  14  29  14  30  14  31  14  32   9  33   8
M  ISO  5  34   8  35  14  36  14  37  14  38  11
M  END
>  <minimizedAffinity>  (1) 
-5.04484034

>  <minimizedRMSD>  (1) 
0.55051446

$$$$
