
     RDKit          3D

 52 56  0  0  0  0  0  0  0  0999 V2000
   42.7160   27.0490   32.2150 C   0  0  0  0  0  0  0  0  0  0  0  0
   43.8300   23.7290   30.9490 C   0  0  0  0  0  0  0  0  0  0  0  0
   42.7870   22.9080   31.3960 C   0  0  0  0  0  0  0  0  0  0  0  0
   41.7430   23.4870   32.1070 C   0  0  0  0  0  0  0  0  0  0  0  0
   41.8060   24.8300   32.3230 N   0  0  0  0  0  0  0  0  0  0  0  0
   42.8240   25.5980   31.8800 C   0  0  0  0  0  0  0  0  0  0  0  0
   43.8200   25.0570   31.2030 N   0  0  0  0  0  0  0  0  0  0  0  0
   40.5970   22.6790   32.6160 C   0  0  0  0  0  0  0  0  0  0  0  0
   39.8460   21.8860   31.7160 C   0  0  0  0  0  0  0  0  0  0  0  0
   38.6060   21.1570   32.8430 S   0  0  0  0  0  0  0  0  0  0  0  0
   39.3260   22.0620   34.3520 C   0  0  0  0  0  0  0  0  0  0  0  0
   40.3110   22.7380   33.9030 N   0  0  0  0  0  0  0  0  0  0  0  0
   38.8400   22.0040   35.6560 N   0  0  0  0  0  0  0  0  0  0  0  0
   39.8850   21.8540   36.6690 C   0  0  0  0  0  0  0  0  0  0  0  0
   39.7260   23.0110   37.6110 C   0  0  0  0  0  0  0  0  0  0  0  0
   38.7420   24.0390   37.0680 C   0  0  0  0  0  0  0  0  0  0  0  0
   37.3760   23.3910   36.9020 C   0  0  0  0  0  0  0  0  0  0  0  0
   37.4930   22.0790   36.1220 C   0  0  0  0  0  0  0  0  0  0  0  0
   42.1610   27.2200   33.6030 C   0  0  0  0  0  0  0  0  0  0  0  0
   40.6740   27.2150   33.6140 C   0  0  0  0  0  0  0  0  0  0  0  0
   40.0080   26.9900   34.7910 C   0  0  0  0  0  0  0  0  0  0  0  0
   38.6060   26.9620   34.9120 C   0  0  0  0  0  0  0  0  0  0  0  0
   37.8870   27.1750   33.7670 N   0  0  0  0  0  0  0  0  0  0  0  0
   38.5510   27.4010   32.5950 C   0  0  0  0  0  0  0  0  0  0  0  0
   39.9230   27.4170   32.5340 N   0  0  0  0  0  0  0  0  0  0  0  0
   37.8180   27.6340   31.3590 C   0  0  0  0  0  0  0  0  0  0  0  0
   38.3330   28.5270   30.4210 C   0  0  0  0  0  0  0  0  0  0  0  0
   37.3920   28.5230   29.3530 C   0  0  0  0  0  0  0  0  0  0  0  0
   36.3950   27.6580   29.6910 N   0  0  0  0  0  0  0  0  0  0  0  0
   36.6550   27.1390   30.8760 N   0  0  0  0  0  0  0  0  0  0  0  0
   42.0473   27.5402   31.4928 H   0  0  0  0  0  0  0  0  0  0  0  0
   43.7163   27.5042   32.1690 H   0  0  0  0  0  0  0  0  0  0  0  0
   44.6659   23.2889   30.3855 H   0  0  0  0  0  0  0  0  0  0  0  0
   42.7942   21.8278   31.1886 H   0  0  0  0  0  0  0  0  0  0  0  0
   39.9740   21.7464   30.6324 H   0  0  0  0  0  0  0  0  0  0  0  0
   39.7594   20.9035   37.2082 H   0  0  0  0  0  0  0  0  0  0  0  0
   40.8860   21.8438   36.2130 H   0  0  0  0  0  0  0  0  0  0  0  0
   39.3564   22.6375   38.5774 H   0  0  0  0  0  0  0  0  0  0  0  0
   40.7052   23.4980   37.7293 H   0  0  0  0  0  0  0  0  0  0  0  0
   38.6657   24.8814   37.7712 H   0  0  0  0  0  0  0  0  0  0  0  0
   39.0952   24.4073   36.0935 H   0  0  0  0  0  0  0  0  0  0  0  0
   36.9508   23.1843   37.8952 H   0  0  0  0  0  0  0  0  0  0  0  0
   36.7231   24.0782   36.3440 H   0  0  0  0  0  0  0  0  0  0  0  0
   36.7959   22.0792   35.2711 H   0  0  0  0  0  0  0  0  0  0  0  0
   37.2424   21.2155   36.7557 H   0  0  0  0  0  0  0  0  0  0  0  0
   42.5234   26.3953   34.2343 H   0  0  0  0  0  0  0  0  0  0  0  0
   42.4999   28.1938   33.9864 H   0  0  0  0  0  0  0  0  0  0  0  0
   40.6070   26.8207   35.6979 H   0  0  0  0  0  0  0  0  0  0  0  0
   38.1130   26.7782   35.8780 H   0  0  0  0  0  0  0  0  0  0  0  0
   39.2642   29.1084   30.4908 H   0  0  0  0  0  0  0  0  0  0  0  0
   37.4576   29.1103   28.4252 H   0  0  0  0  0  0  0  0  0  0  0  0
   35.5696   27.4434   29.1134 H   0  0  0  0  0  0  0  0  0  0  0  0
  1 19  1  0
  2  7  2  0
  2  3  1  0
  3  4  2  0
  4  5  1  0
  4  8  1  0
  6  1  1  0
  6  5  2  0
  7  6  1  0
  8 12  1  0
  9  8  2  0
  9 10  1  0
 10 11  1  0
 11 13  1  0
 12 11  2  0
 13 18  1  0
 13 14  1  0
 14 15  1  0
 16 15  1  0
 17 16  1  0
 18 17  1  0
 19 20  1  0
 20 21  2  0
 21 22  1  0
 23 22  2  0
 24 23  1  0
 25 24  2  0
 25 20  1  0
 26 24  1  0
 27 26  1  0
 28 29  1  0
 28 27  2  0
 29 30  1  0
 30 26  2  0
  1 31  1  0
  1 32  1  0
  2 33  1  0
  3 34  1  0
  9 35  1  0
 14 36  1  0
 14 37  1  0
 15 38  1  0
 15 39  1  0
 16 40  1  0
 16 41  1  0
 17 42  1  0
 17 43  1  0
 18 44  1  0
 18 45  1  0
 19 46  1  0
 19 47  1  0
 21 48  1  0
 22 49  1  0
 27 50  1  0
 28 51  1  0
 29 52  1  0
M  ISO  8  31   8  32   8  33  14  34  14  35  14  36  13  37  13  38  13
M  ISO  8  39  13  40  13  41  13  42  13  43  13  44  13  45  13  46   8
M  ISO  6  47   8  48  14  49  14  50  14  51  14  52   9
M  END
>  <minimizedAffinity>  (1) 
-5.01231003

>  <minimizedRMSD>  (1) 
3.731354

$$$$
