
     RDKit          3D

 31 34  0  0  1  0  0  0  0  0999 V2000
   38.1600   25.8620   36.3130 C   0  0  1  0  0  0  0  0  0  0  0  0
   38.7200   27.1480   35.8840 C   0  0  0  0  0  0  0  0  0  0  0  0
   37.4270   26.7170   35.3270 C   0  0  1  0  0  0  0  0  0  0  0  0
   37.2550   26.3080   33.9180 C   0  0  0  0  0  0  0  0  0  0  0  0
   37.3170   25.1670   33.1480 C   0  0  0  0  0  0  0  0  0  0  0  0
   37.0380   25.4180   31.8680 N   0  0  0  0  0  0  0  0  0  0  0  0
   36.7850   26.7300   31.7710 C   0  0  0  0  0  0  0  0  0  0  0  0
   36.4530   27.4010   30.6110 C   0  0  0  0  0  0  0  0  0  0  0  0
   36.2200   28.7600   30.6700 C   0  0  0  0  0  0  0  0  0  0  0  0
   36.3350   29.3800   31.8950 C   0  0  0  0  0  0  0  0  0  0  0  0
   36.6680   28.6830   33.0340 C   0  0  0  0  0  0  0  0  0  0  0  0
   36.9080   27.3200   33.0160 C   0  0  0  0  0  0  0  0  0  0  0  0
   40.0610   24.5620   35.2850 C   0  0  0  0  0  0  0  0  0  0  0  0
   38.7850   24.5970   35.8900 C   0  0  0  0  0  0  0  0  0  0  0  0
   38.1560   23.3630   36.0560 C   0  0  0  0  0  0  0  0  0  0  0  0
   38.7880   22.2340   35.6390 N   0  0  0  0  0  0  0  0  0  0  0  0
   40.0220   22.2620   35.0610 C   0  0  0  0  0  0  0  0  0  0  0  0
   40.6340   23.4320   34.8960 N   0  0  0  0  0  0  0  0  0  0  0  0
   37.9127   25.4015   37.2809 H   0  0  0  0  0  0  0  0  0  0  0  0
   38.7573   27.9907   36.5901 H   0  0  0  0  0  0  0  0  0  0  0  0
   39.6796   27.4638   35.4488 H   0  0  0  0  0  0  0  0  0  0  0  0
   36.4234   27.1624   35.2603 H   0  0  0  0  0  0  0  0  0  0  0  0
   37.5663   24.1703   33.5411 H   0  0  0  0  0  0  0  0  0  0  0  0
   37.0204   24.7326   31.0994 H   0  0  0  0  0  0  0  0  0  0  0  0
   36.3755   26.8614   29.6556 H   0  0  0  0  0  0  0  0  0  0  0  0
   35.9512   29.3297   29.7682 H   0  0  0  0  0  0  0  0  0  0  0  0
   36.1555   30.4630   31.9646 H   0  0  0  0  0  0  0  0  0  0  0  0
   36.7458   29.2256   33.9877 H   0  0  0  0  0  0  0  0  0  0  0  0
   40.5996   25.5087   35.1309 H   0  0  0  0  0  0  0  0  0  0  0  0
   37.1599   23.3042   36.5191 H   0  0  0  0  0  0  0  0  0  0  0  0
   40.5058   21.3294   34.7351 H   0  0  0  0  0  0  0  0  0  0  0  0
  2  1  1  0
  3  2  1  0
  3  1  1  0
  4  3  1  0
  5  4  2  0
  6  5  1  0
  7  6  1  0
  7 12  2  0
  8  9  2  0
  8  7  1  0
  9 10  1  0
 10 11  2  0
 12 11  1  0
 12  4  1  0
 13 14  2  0
 14 15  1  0
 14  1  1  0
 16 15  2  0
 17 16  1  0
 18 17  2  0
 18 13  1  0
  1 19  1  1
  2 20  1  0
  2 21  1  0
  3 22  1  1
  5 23  1  0
  6 24  1  0
  8 25  1  0
  9 26  1  0
 10 27  1  0
 11 28  1  0
 13 29  1  0
 15 30  1  0
 17 31  1  0
M  ISO  8  19  13  20  13  21  13  22  13  23  14  24   9  25  14  26  14
M  ISO  5  27  14  28  14  29  14  30  14  31  14
M  END
>  <minimizedAffinity>  (1) 
-4.84480381

>  <minimizedRMSD>  (1) 
1.50064397

$$$$
