
     RDKit          3D

 22 24  0  0  1  0  0  0  0  0999 V2000
   37.6410   25.8550   35.8010 C   0  0  1  0  0  0  0  0  0  0  0  0
   38.1740   27.2130   35.7440 C   0  0  0  0  0  0  0  0  0  0  0  0
   38.2450   26.3800   34.5160 C   0  0  2  0  0  0  0  0  0  0  0  0
   39.4370   24.0700   35.8930 C   0  0  0  0  0  0  0  0  0  0  0  0
   38.3620   24.7780   36.5070 C   0  0  0  0  0  0  0  0  0  0  0  0
   38.0340   24.3980   37.8090 C   0  0  0  0  0  0  0  0  0  0  0  0
   38.7320   23.3970   38.4200 N   0  0  0  0  0  0  0  0  0  0  0  0
   39.7550   22.7480   37.7870 C   0  0  0  0  0  0  0  0  0  0  0  0
   40.0950   23.0950   36.5270 N   0  0  0  0  0  0  0  0  0  0  0  0
   37.3120   26.5110   33.4020 C   0  0  0  0  0  0  0  0  0  0  0  0
   36.8510   25.5090   32.6460 N   0  0  0  0  0  0  0  0  0  0  0  0
   36.0410   26.0070   31.7540 O   0  0  0  0  0  0  0  0  0  0  0  0
   35.9370   27.3020   31.8770 C   0  0  0  0  0  0  0  0  0  0  0  0
   36.7400   27.6290   32.9200 N   0  0  0  0  0  0  0  0  0  0  0  0
   36.6754   25.4332   36.1167 H   0  0  0  0  0  0  0  0  0  0  0  0
   37.4859   28.0704   35.7817 H   0  0  0  0  0  0  0  0  0  0  0  0
   38.9143   27.7716   36.3355 H   0  0  0  0  0  0  0  0  0  0  0  0
   39.0688   26.1497   33.8244 H   0  0  0  0  0  0  0  0  0  0  0  0
   39.7333   24.3344   34.8672 H   0  0  0  0  0  0  0  0  0  0  0  0
   37.2151   24.9039   38.3414 H   0  0  0  0  0  0  0  0  0  0  0  0
   40.3005   21.9443   38.3032 H   0  0  0  0  0  0  0  0  0  0  0  0
   35.3277   27.9834   31.2650 H   0  0  0  0  0  0  0  0  0  0  0  0
  1  5  1  0
  2  1  1  0
  3  2  1  0
  3  1  1  0
  4  5  2  0
  4  9  1  0
  5  6  1  0
  6  7  2  0
  8  7  1  0
  9  8  2  0
 10  3  1  0
 11 10  2  0
 12 13  1  0
 12 11  1  0
 13 14  2  0
 14 10  1  0
  1 15  1  6
  2 16  1  0
  2 17  1  0
  3 18  1  6
  4 19  1  0
  6 20  1  0
  8 21  1  0
 13 22  1  0
M  ISO  8  15  13  16  13  17  13  18  13  19  14  20  14  21  14  22  14
M  END
>  <minimizedAffinity>  (1) 
-4.26996994

>  <minimizedRMSD>  (1) 
3.33098006

$$$$
