
     RDKit          3D

 20 21  0  0  1  0  0  0  0  0999 V2000
   37.5370   26.9030   33.6040 C   0  0  1  0  0  0  0  0  0  0  0  0
   36.8190   27.9280   34.3640 C   0  0  0  0  0  0  0  0  0  0  0  0
   37.2670   26.7030   35.0790 C   0  0  2  0  0  0  0  0  0  0  0  0
   35.8580   26.5390   31.7590 C   0  0  0  0  0  0  0  0  0  0  0  0
   36.8260   26.0250   32.6410 C   0  0  0  0  0  0  0  0  0  0  0  0
   37.0810   24.6560   32.5670 C   0  0  0  0  0  0  0  0  0  0  0  0
   36.3990   23.9060   31.6720 N   0  0  0  0  0  0  0  0  0  0  0  0
   35.4620   24.4530   30.8300 C   0  0  0  0  0  0  0  0  0  0  0  0
   35.1930   25.7770   30.8780 N   0  0  0  0  0  0  0  0  0  0  0  0
   38.4930   26.6840   35.9310 C   0  0  0  0  0  0  0  0  0  0  0  0
   38.9930   25.3790   35.8820 F   0  0  0  0  0  0  0  0  0  0  0  0
   39.4860   27.4950   35.4190 F   0  0  0  0  0  0  0  0  0  0  0  0
   38.2470   27.0090   37.2460 F   0  0  0  0  0  0  0  0  0  0  0  0
   38.4226   26.9212   32.9518 H   0  0  0  0  0  0  0  0  0  0  0  0
   37.3059   28.8915   34.5752 H   0  0  0  0  0  0  0  0  0  0  0  0
   35.8508   28.4361   34.2435 H   0  0  0  0  0  0  0  0  0  0  0  0
   36.7443   25.9973   35.7414 H   0  0  0  0  0  0  0  0  0  0  0  0
   35.6362   27.6159   31.7935 H   0  0  0  0  0  0  0  0  0  0  0  0
   37.8275   24.1920   33.2284 H   0  0  0  0  0  0  0  0  0  0  0  0
   34.9282   23.8112   30.1136 H   0  0  0  0  0  0  0  0  0  0  0  0
  1  2  1  0
  1  3  1  0
  2  3  1  0
  3 10  1  0
  4  5  2  0
  5  1  1  0
  6  5  1  0
  7  6  2  0
  8  9  2  0
  8  7  1  0
  9  4  1  0
 10 13  1  0
 11 10  1  0
 12 10  1  0
  1 14  1  1
  2 15  1  0
  2 16  1  0
  3 17  1  6
  4 18  1  0
  6 19  1  0
  8 20  1  0
M  ISO  7  14  13  15  13  16  13  17  13  18  14  19  14  20  14
M  END
>  <minimizedAffinity>  (1) 
-4.00665712

>  <minimizedRMSD>  (1) 
4.08115101

$$$$
