
     RDKit          3D

 29 31  0  0  1  0  0  0  0  0999 V2000
   39.3250   26.3920   35.8490 C   0  0  1  0  0  0  0  0  0  0  0  0
   39.9410   26.9000   34.6240 C   0  0  0  0  0  0  0  0  0  0  0  0
   38.6000   27.4240   35.0110 C   0  0  1  0  0  0  0  0  0  0  0  0
   39.0400   24.0600   34.8820 C   0  0  0  0  0  0  0  0  0  0  0  0
   38.7550   25.0200   35.8980 C   0  0  0  0  0  0  0  0  0  0  0  0
   37.9090   24.6250   36.9420 C   0  0  0  0  0  0  0  0  0  0  0  0
   37.4070   23.3700   36.9420 N   0  0  0  0  0  0  0  0  0  0  0  0
   37.7000   22.4660   35.9500 C   0  0  0  0  0  0  0  0  0  0  0  0
   38.5140   22.8310   34.9350 N   0  0  0  0  0  0  0  0  0  0  0  0
   37.3940   27.0450   34.3270 N   0  0  0  0  0  0  0  0  0  0  0  0
   36.4130   28.0730   34.4970 C   0  0  0  0  0  0  0  0  0  0  0  0
   35.9820   28.5280   33.1190 C   0  0  0  0  0  0  0  0  0  0  0  0
   36.4340   27.3890   32.2060 C   0  0  0  0  0  0  0  0  0  0  0  0
   37.7070   26.9690   32.9130 C   0  0  0  0  0  0  0  0  0  0  0  0
   39.6638   26.3106   36.8924 H   0  0  0  0  0  0  0  0  0  0  0  0
   40.0371   26.2413   33.7483 H   0  0  0  0  0  0  0  0  0  0  0  0
   40.9087   27.3666   34.3877 H   0  0  0  0  0  0  0  0  0  0  0  0
   38.1811   28.4313   35.1524 H   0  0  0  0  0  0  0  0  0  0  0  0
   39.6998   24.3334   34.0454 H   0  0  0  0  0  0  0  0  0  0  0  0
   37.6566   25.3265   37.7508 H   0  0  0  0  0  0  0  0  0  0  0  0
   37.2749   21.4520   35.9817 H   0  0  0  0  0  0  0  0  0  0  0  0
   35.5475   27.6778   35.0491 H   0  0  0  0  0  0  0  0  0  0  0  0
   36.8312   28.9149   35.0682 H   0  0  0  0  0  0  0  0  0  0  0  0
   34.8909   28.6592   33.0723 H   0  0  0  0  0  0  0  0  0  0  0  0
   36.4133   29.4994   32.8356 H   0  0  0  0  0  0  0  0  0  0  0  0
   36.6331   27.7411   31.1831 H   0  0  0  0  0  0  0  0  0  0  0  0
   35.6951   26.5857   32.0694 H   0  0  0  0  0  0  0  0  0  0  0  0
   37.9838   25.9419   32.6330 H   0  0  0  0  0  0  0  0  0  0  0  0
   38.5597   27.6097   32.6437 H   0  0  0  0  0  0  0  0  0  0  0  0
  1  5  1  0
  2  3  1  0
  2  1  1  0
  3  1  1  0
  4  9  2  0
  4  5  1  0
  5  6  2  0
  6  7  1  0
  8  7  2  0
  9  8  1  0
 10 11  1  0
 10  3  1  0
 12 11  1  0
 13 14  1  0
 13 12  1  0
 14 10  1  0
  1 15  1  1
  2 16  1  0
  2 17  1  0
  3 18  1  1
  4 19  1  0
  6 20  1  0
  8 21  1  0
 11 22  1  0
 11 23  1  0
 12 24  1  0
 12 25  1  0
 13 26  1  0
 13 27  1  0
 14 28  1  0
 14 29  1  0
M  ISO  8  15  13  16  13  17  13  18  13  19  14  20  14  21  14  22  13
M  ISO  7  23  13  24  13  25  13  26  13  27  13  28  13  29  13
M  END
>  <minimizedAffinity>  (1) 
-3.70547533

>  <minimizedRMSD>  (1) 
1.02803373

$$$$
