
     RDKit          3D

 20 21  0  0  1  0  0  0  0  0999 V2000
   38.3180   26.3860   36.2400 C   0  0  1  0  0  0  0  0  0  0  0  0
   39.1510   27.2830   35.4340 C   0  0  0  0  0  0  0  0  0  0  0  0
   37.7180   27.1540   35.0980 C   0  0  1  0  0  0  0  0  0  0  0  0
   39.6140   24.3550   35.5820 C   0  0  0  0  0  0  0  0  0  0  0  0
   38.4690   24.9240   36.1620 C   0  0  0  0  0  0  0  0  0  0  0  0
   37.5010   24.0460   36.6470 C   0  0  0  0  0  0  0  0  0  0  0  0
   37.7130   22.7050   36.5360 N   0  0  0  0  0  0  0  0  0  0  0  0
   38.8350   22.1970   35.9670 C   0  0  0  0  0  0  0  0  0  0  0  0
   39.7900   23.0240   35.4870 N   0  0  0  0  0  0  0  0  0  0  0  0
   37.2080   26.5200   33.8880 C   0  0  0  0  0  0  0  0  0  0  0  0
   37.2840   25.3410   33.3930 O   0  0  0  0  0  0  0  0  0  0  0  0
   36.4470   27.1910   32.9400 O   0  0  0  0  0  0  0  0  0  0  0  0
   38.1043   26.2834   37.3142 H   0  0  0  0  0  0  0  0  0  0  0  0
   39.5273   28.2194   35.8717 H   0  0  0  0  0  0  0  0  0  0  0  0
   40.0878   27.1640   34.8698 H   0  0  0  0  0  0  0  0  0  0  0  0
   36.8826   27.8578   34.9684 H   0  0  0  0  0  0  0  0  0  0  0  0
   40.3964   25.0218   35.1906 H   0  0  0  0  0  0  0  0  0  0  0  0
   36.5809   24.4298   37.1118 H   0  0  0  0  0  0  0  0  0  0  0  0
   38.9679   21.1074   35.8961 H   0  0  0  0  0  0  0  0  0  0  0  0
   36.1251   26.7130   32.1350 H   0  0  0  0  0  0  0  0  0  0  0  0
  2  1  1  0
  3  2  1  0
  3  1  1  0
  4  5  2  0
  5  1  1  0
  5  6  1  0
  7  6  2  0
  8  7  1  0
  9  4  1  0
  9  8  2  0
 10  3  1  0
 11 10  2  0
 12 10  1  0
  1 13  1  1
  2 14  1  0
  2 15  1  0
  3 16  1  1
  4 17  1  0
  6 18  1  0
  8 19  1  0
 12 20  1  0
M  ISO  8  13  13  14  13  15  13  16  13  17  14  18  14  19  14  20   3
M  END
>  <minimizedAffinity>  (1) 
-3.58466935

>  <minimizedRMSD>  (1) 
0.96202004

$$$$
