
     RDKit          3D

 20 21  0  0  1  0  0  0  0  0999 V2000
   38.7500   24.1930   34.9340 C   0  0  0  0  0  0  0  0  0  0  0  0
   38.4780   25.0210   36.0360 C   0  0  0  0  0  0  0  0  0  0  0  0
   37.7680   24.4300   37.0840 C   0  0  0  0  0  0  0  0  0  0  0  0
   37.3890   23.1340   36.9970 N   0  0  0  0  0  0  0  0  0  0  0  0
   37.6860   22.3740   35.8910 C   0  0  0  0  0  0  0  0  0  0  0  0
   38.3690   22.9100   34.8570 N   0  0  0  0  0  0  0  0  0  0  0  0
   38.9270   26.4210   36.0780 C   0  0  1  0  0  0  0  0  0  0  0  0
   39.4230   27.0760   34.8610 C   0  0  0  0  0  0  0  0  0  0  0  0
   38.0970   27.4870   35.4100 C   0  0  1  0  0  0  0  0  0  0  0  0
   36.8110   27.1530   34.7230 C   0  0  0  0  0  0  0  0  0  0  0  0
   39.3065   24.6213   34.0873 H   0  0  0  0  0  0  0  0  0  0  0  0
   37.5172   25.0178   37.9793 H   0  0  0  0  0  0  0  0  0  0  0  0
   37.3653   21.3227   35.8480 H   0  0  0  0  0  0  0  0  0  0  0  0
   39.3300   26.2643   37.0895 H   0  0  0  0  0  0  0  0  0  0  0  0
   39.4732   26.5117   33.9181 H   0  0  0  0  0  0  0  0  0  0  0  0
   40.3467   27.6111   34.5954 H   0  0  0  0  0  0  0  0  0  0  0  0
   37.6392   28.4401   35.7134 H   0  0  0  0  0  0  0  0  0  0  0  0
   36.0347   26.9514   35.4758 H   0  0  0  0  0  0  0  0  0  0  0  0
   36.5005   28.0003   34.0940 H   0  0  0  0  0  0  0  0  0  0  0  0
   36.9520   26.2617   34.0940 H   0  0  0  0  0  0  0  0  0  0  0  0
  1  2  2  0
  2  7  1  0
  2  3  1  0
  4  3  2  0
  5  4  1  0
  6  1  1  0
  6  5  2  0
  8  9  1  0
  8  7  1  0
  9  7  1  0
 10  9  1  0
  1 11  1  0
  3 12  1  0
  5 13  1  0
  7 14  1  1
  8 15  1  0
  8 16  1  0
  9 17  1  1
 10 18  1  0
 10 19  1  0
 10 20  1  0
M  ISO  8  11  14  12  14  13  14  14  13  15  13  16  13  17  13  18   8
M  ISO  2  19   8  20   8
M  END
>  <minimizedAffinity>  (1) 
-3.41575575

>  <minimizedRMSD>  (1) 
0.361036599

$$$$
