
     RDKit          3D

 34 36  0  0  1  0  0  0  0  0999 V2000
   38.3170   26.3040   36.3850 C   0  0  1  0  0  0  0  0  0  0  0  0
   39.0540   27.3100   35.6620 C   0  0  0  0  0  0  0  0  0  0  0  0
   37.6490   27.1490   35.2960 C   0  0  1  0  0  0  0  0  0  0  0  0
   39.5920   24.3730   35.5120 C   0  0  0  0  0  0  0  0  0  0  0  0
   38.4700   24.8690   36.1660 C   0  0  0  0  0  0  0  0  0  0  0  0
   37.5080   23.9560   36.6200 C   0  0  0  0  0  0  0  0  0  0  0  0
   37.7210   22.6290   36.4000 N   0  0  0  0  0  0  0  0  0  0  0  0
   38.8530   22.1730   35.7460 C   0  0  0  0  0  0  0  0  0  0  0  0
   39.7860   23.0630   35.3040 N   0  0  0  0  0  0  0  0  0  0  0  0
   37.2260   26.5660   34.0230 C   0  0  0  0  0  0  0  0  0  0  0  0
   37.0820   25.4830   33.4040 O   0  0  0  0  0  0  0  0  0  0  0  0
   36.7780   27.4550   32.9830 N   0  0  0  0  0  0  0  0  0  0  0  0
   36.9520   27.1240   31.5690 C   0  0  0  0  0  0  0  0  0  0  0  0
   37.3260   28.4000   30.8050 C   0  0  0  0  0  0  0  0  0  0  0  0
   36.2020   29.3980   30.8440 C   0  0  0  0  0  0  0  0  0  0  0  0
   35.3140   29.1360   32.0430 C   0  0  0  0  0  0  0  0  0  0  0  0
   36.1250   28.7370   33.2370 C   0  0  0  0  0  0  0  0  0  0  0  0
   38.1756   26.0947   37.4556 H   0  0  0  0  0  0  0  0  0  0  0  0
   39.3741   28.2237   36.1842 H   0  0  0  0  0  0  0  0  0  0  0  0
   39.9913   27.2921   35.0866 H   0  0  0  0  0  0  0  0  0  0  0  0
   36.7741   27.8119   35.2241 H   0  0  0  0  0  0  0  0  0  0  0  0
   40.3504   25.0834   35.1510 H   0  0  0  0  0  0  0  0  0  0  0  0
   36.6035   24.3028   37.1411 H   0  0  0  0  0  0  0  0  0  0  0  0
   38.9991   21.0949   35.5835 H   0  0  0  0  0  0  0  0  0  0  0  0
   37.7540   26.3792   31.4597 H   0  0  0  0  0  0  0  0  0  0  0  0
   36.0177   26.7069   31.1651 H   0  0  0  0  0  0  0  0  0  0  0  0
   37.5425   28.1423   29.7578 H   0  0  0  0  0  0  0  0  0  0  0  0
   38.2105   28.8482   31.2813 H   0  0  0  0  0  0  0  0  0  0  0  0
   36.6193   30.4133   30.9154 H   0  0  0  0  0  0  0  0  0  0  0  0
   35.6040   29.3026   29.9257 H   0  0  0  0  0  0  0  0  0  0  0  0
   34.7513   30.0510   32.2802 H   0  0  0  0  0  0  0  0  0  0  0  0
   34.6271   28.3131   31.7961 H   0  0  0  0  0  0  0  0  0  0  0  0
   35.4655   28.6443   34.1125 H   0  0  0  0  0  0  0  0  0  0  0  0
   36.8901   29.5034   33.4302 H   0  0  0  0  0  0  0  0  0  0  0  0
  2  1  1  0
  3  2  1  0
  3  1  1  0
  4  5  2  0
  5  1  1  0
  5  6  1  0
  7  6  2  0
  8  7  1  0
  9  4  1  0
  9  8  2  0
 10  3  1  0
 11 10  2  0
 12 17  1  0
 12 10  1  0
 13 12  1  0
 14 15  1  0
 14 13  1  0
 15 16  1  0
 16 17  1  0
  1 18  1  1
  2 19  1  0
  2 20  1  0
  3 21  1  1
  4 22  1  0
  6 23  1  0
  8 24  1  0
 13 25  1  0
 13 26  1  0
 14 27  1  0
 14 28  1  0
 15 29  1  0
 15 30  1  0
 16 31  1  0
 16 32  1  0
 17 33  1  0
 17 34  1  0
M  ISO  8  18  13  19  13  20  13  21  13  22  14  23  14  24  14  25  13
M  ISO  8  26  13  27  13  28  13  29  13  30  13  31  13  32  13  33  13
M  ISO  1  34  13
M  END
>  <minimizedAffinity>  (1) 
-4.81796455

>  <minimizedRMSD>  (1) 
2.62321615

$$$$
