
     RDKit          3D

 32 34  0  0  1  0  0  0  0  0999 V2000
   38.3190   26.3760   36.2760 C   0  0  1  0  0  0  0  0  0  0  0  0
   39.0490   27.3290   35.4790 C   0  0  0  0  0  0  0  0  0  0  0  0
   37.6620   27.1230   35.1090 C   0  0  1  0  0  0  0  0  0  0  0  0
   39.6110   24.3850   35.5980 C   0  0  0  0  0  0  0  0  0  0  0  0
   38.4720   24.9280   36.1780 C   0  0  0  0  0  0  0  0  0  0  0  0
   37.4960   24.0500   36.6720 C   0  0  0  0  0  0  0  0  0  0  0  0
   37.7130   22.7090   36.5600 N   0  0  0  0  0  0  0  0  0  0  0  0
   38.8660   22.2100   35.9750 C   0  0  0  0  0  0  0  0  0  0  0  0
   39.8160   23.0590   35.4930 N   0  0  0  0  0  0  0  0  0  0  0  0
   37.2320   26.4290   33.8950 C   0  0  0  0  0  0  0  0  0  0  0  0
   37.2700   25.3060   33.3240 O   0  0  0  0  0  0  0  0  0  0  0  0
   36.4570   27.1960   32.8640 C   0  0  0  0  0  0  0  0  0  0  0  0
   37.1900   27.4010   31.5770 C   0  0  0  0  0  0  0  0  0  0  0  0
   37.2000   28.9200   31.3420 C   0  0  0  0  0  0  0  0  0  0  0  0
   35.9430   29.3250   32.0820 C   0  0  0  0  0  0  0  0  0  0  0  0
   36.1770   28.6090   33.3970 C   0  0  0  0  0  0  0  0  0  0  0  0
   38.1754   26.2534   37.3597 H   0  0  0  0  0  0  0  0  0  0  0  0
   39.3500   28.2874   35.9273 H   0  0  0  0  0  0  0  0  0  0  0  0
   39.9940   27.2751   34.9185 H   0  0  0  0  0  0  0  0  0  0  0  0
   36.7906   27.7776   34.9602 H   0  0  0  0  0  0  0  0  0  0  0  0
   40.3792   25.0685   35.2073 H   0  0  0  0  0  0  0  0  0  0  0  0
   36.5772   24.4346   37.1388 H   0  0  0  0  0  0  0  0  0  0  0  0
   39.0148   21.1227   35.8995 H   0  0  0  0  0  0  0  0  0  0  0  0
   35.5537   26.5978   32.6741 H   0  0  0  0  0  0  0  0  0  0  0  0
   38.2182   27.0183   31.6560 H   0  0  0  0  0  0  0  0  0  0  0  0
   36.7091   26.8645   30.7458 H   0  0  0  0  0  0  0  0  0  0  0  0
   38.0949   29.3914   31.7743 H   0  0  0  0  0  0  0  0  0  0  0  0
   37.2238   29.2188   30.2836 H   0  0  0  0  0  0  0  0  0  0  0  0
   35.8798   30.4151   32.2152 H   0  0  0  0  0  0  0  0  0  0  0  0
   35.0011   29.0701   31.5742 H   0  0  0  0  0  0  0  0  0  0  0  0
   35.2876   28.6358   34.0437 H   0  0  0  0  0  0  0  0  0  0  0  0
   36.9670   29.0373   34.0314 H   0  0  0  0  0  0  0  0  0  0  0  0
  2  1  1  0
  3  2  1  0
  3  1  1  0
  4  5  2  0
  5  1  1  0
  5  6  1  0
  7  6  2  0
  8  7  1  0
  9  4  1  0
  9  8  2  0
 10  3  1  0
 11 10  2  0
 12 16  1  0
 12 10  1  0
 13 12  1  0
 14 13  1  0
 14 15  1  0
 15 16  1  0
  1 17  1  1
  2 18  1  0
  2 19  1  0
  3 20  1  1
  4 21  1  0
  6 22  1  0
  8 23  1  0
 12 24  1  0
 13 25  1  0
 13 26  1  0
 14 27  1  0
 14 28  1  0
 15 29  1  0
 15 30  1  0
 16 31  1  0
 16 32  1  0
M  ISO  8  17  13  18  13  19  13  20  13  21  14  22  14  23  14  24  13
M  ISO  8  25  13  26  13  27  13  28  13  29  13  30  13  31  13  32  13
M  END
>  <minimizedAffinity>  (1) 
-4.44693232

>  <minimizedRMSD>  (1) 
2.25251174

$$$$
