
     RDKit          3D

 26 28  0  0  1  0  0  0  0  0999 V2000
   38.2550   26.3660   36.2540 C   0  0  1  0  0  0  0  0  0  0  0  0
   38.9970   27.3460   35.5020 C   0  0  0  0  0  0  0  0  0  0  0  0
   37.6280   27.1040   35.0630 C   0  0  1  0  0  0  0  0  0  0  0  0
   39.6140   24.4180   35.5890 C   0  0  0  0  0  0  0  0  0  0  0  0
   38.4520   24.9240   36.1620 C   0  0  0  0  0  0  0  0  0  0  0  0
   37.5110   24.0190   36.6470 C   0  0  0  0  0  0  0  0  0  0  0  0
   37.7690   22.6820   36.5420 N   0  0  0  0  0  0  0  0  0  0  0  0
   38.9410   22.2210   35.9660 C   0  0  0  0  0  0  0  0  0  0  0  0
   39.8640   23.1010   35.4890 N   0  0  0  0  0  0  0  0  0  0  0  0
   37.2680   26.3970   33.8310 C   0  0  0  0  0  0  0  0  0  0  0  0
   37.1710   25.2160   33.3710 O   0  0  0  0  0  0  0  0  0  0  0  0
   36.8720   27.2800   32.6830 C   0  0  0  0  0  0  0  0  0  0  0  0
   36.4410   28.5890   32.6680 C   0  0  0  0  0  0  0  0  0  0  0  0
   36.1810   29.0180   31.3630 C   0  0  0  0  0  0  0  0  0  0  0  0
   36.4830   27.8920   30.6290 C   0  0  0  0  0  0  0  0  0  0  0  0
   36.8720   26.9310   31.4200 O   0  0  0  0  0  0  0  0  0  0  0  0
   38.0642   26.2301   37.3288 H   0  0  0  0  0  0  0  0  0  0  0  0
   39.2499   28.3077   35.9724 H   0  0  0  0  0  0  0  0  0  0  0  0
   39.9689   27.3236   34.9872 H   0  0  0  0  0  0  0  0  0  0  0  0
   36.7500   27.7393   34.8747 H   0  0  0  0  0  0  0  0  0  0  0  0
   40.3608   25.1263   35.2008 H   0  0  0  0  0  0  0  0  0  0  0  0
   36.5769   24.3747   37.1063 H   0  0  0  0  0  0  0  0  0  0  0  0
   39.1270   21.1393   35.8935 H   0  0  0  0  0  0  0  0  0  0  0  0
   36.3178   29.2140   33.5648 H   0  0  0  0  0  0  0  0  0  0  0  0
   35.8274   29.9992   31.0134 H   0  0  0  0  0  0  0  0  0  0  0  0
   36.4070   27.8147   29.5343 H   0  0  0  0  0  0  0  0  0  0  0  0
  2  1  1  0
  3  2  1  0
  3  1  1  0
  4  5  2  0
  5  1  1  0
  5  6  1  0
  7  6  2  0
  8  7  1  0
  9  4  1  0
  9  8  2  0
 10  3  1  0
 11 10  2  0
 12 10  1  0
 13 12  2  0
 14 13  1  0
 15 14  2  0
 15 16  1  0
 16 12  1  0
  1 17  1  1
  2 18  1  0
  2 19  1  0
  3 20  1  1
  4 21  1  0
  6 22  1  0
  8 23  1  0
 13 24  1  0
 14 25  1  0
 15 26  1  0
M  ISO  8  17  13  18  13  19  13  20  13  21  14  22  14  23  14  24  14
M  ISO  2  25  14  26  14
M  END
>  <minimizedAffinity>  (1) 
-4.37807703

>  <minimizedRMSD>  (1) 
2.56529951

$$$$
