
     RDKit          3D

 31 33  0  0  1  0  0  0  0  0999 V2000
   38.8180   26.4830   35.7950 C   0  0  1  0  0  0  0  0  0  0  0  0
   39.5540   27.1710   34.7620 C   0  0  0  0  0  0  0  0  0  0  0  0
   38.0970   27.2150   34.6620 C   0  0  1  0  0  0  0  0  0  0  0  0
   39.5960   24.2100   35.1990 C   0  0  0  0  0  0  0  0  0  0  0  0
   38.7010   25.0290   35.8750 C   0  0  0  0  0  0  0  0  0  0  0  0
   37.6990   24.4240   36.6510 C   0  0  0  0  0  0  0  0  0  0  0  0
   37.6530   23.0650   36.7040 N   0  0  0  0  0  0  0  0  0  0  0  0
   38.5660   22.2820   36.0160 C   0  0  0  0  0  0  0  0  0  0  0  0
   39.5380   22.8700   35.2620 N   0  0  0  0  0  0  0  0  0  0  0  0
   37.3590   26.4950   33.6250 C   0  0  0  0  0  0  0  0  0  0  0  0
   36.9690   25.3630   33.2510 O   0  0  0  0  0  0  0  0  0  0  0  0
   36.7950   27.2570   32.5270 N   0  0  0  0  0  0  0  0  0  0  0  0
   35.8220   28.3190   32.6310 C   0  0  0  0  0  0  0  0  0  0  0  0
   36.3260   29.4400   31.7360 C   0  0  0  0  0  0  0  0  0  0  0  0
   37.2990   28.7350   30.8470 C   0  0  0  0  0  0  0  0  0  0  0  0
   36.9440   27.2770   31.0840 C   0  0  0  0  0  0  0  0  0  0  0  0
   38.8505   26.5143   36.8941 H   0  0  0  0  0  0  0  0  0  0  0  0
   40.1059   28.0890   35.0125 H   0  0  0  0  0  0  0  0  0  0  0  0
   40.3507   26.8637   34.0686 H   0  0  0  0  0  0  0  0  0  0  0  0
   37.3360   28.0053   34.5830 H   0  0  0  0  0  0  0  0  0  0  0  0
   40.3828   24.6771   34.5884 H   0  0  0  0  0  0  0  0  0  0  0  0
   36.9688   25.0341   37.2028 H   0  0  0  0  0  0  0  0  0  0  0  0
   38.5066   21.1854   36.0782 H   0  0  0  0  0  0  0  0  0  0  0  0
   34.8371   27.9696   32.2877 H   0  0  0  0  0  0  0  0  0  0  0  0
   35.7045   28.6566   33.6713 H   0  0  0  0  0  0  0  0  0  0  0  0
   35.5046   29.8828   31.1535 H   0  0  0  0  0  0  0  0  0  0  0  0
   36.7701   30.2783   32.2928 H   0  0  0  0  0  0  0  0  0  0  0  0
   38.3370   28.9469   31.1430 H   0  0  0  0  0  0  0  0  0  0  0  0
   37.2380   29.0406   29.7921 H   0  0  0  0  0  0  0  0  0  0  0  0
   36.0069   27.0024   30.5777 H   0  0  0  0  0  0  0  0  0  0  0  0
   37.6843   26.5621   30.6955 H   0  0  0  0  0  0  0  0  0  0  0  0
  1  5  1  0
  2  1  1  0
  3  2  1  0
  3  1  1  0
  4  9  2  0
  4  5  1  0
  5  6  2  0
  6  7  1  0
  8  7  2  0
  9  8  1  0
 10  3  1  0
 11 10  2  0
 12 13  1  0
 12 10  1  0
 14 13  1  0
 15 16  1  0
 15 14  1  0
 16 12  1  0
  1 17  1  1
  2 18  1  0
  2 19  1  0
  3 20  1  1
  4 21  1  0
  6 22  1  0
  8 23  1  0
 13 24  1  0
 13 25  1  0
 14 26  1  0
 14 27  1  0
 15 28  1  0
 15 29  1  0
 16 30  1  0
 16 31  1  0
M  ISO  8  17  13  18  13  19  13  20  13  21  14  22  14  23  14  24  13
M  ISO  7  25  13  26  13  27  13  28  13  29  13  30  13  31  13
M  END
>  <minimizedAffinity>  (1) 
-4.35156107

>  <minimizedRMSD>  (1) 
2.54223847

$$$$
