
     RDKit          3D

 25 27  0  0  1  0  0  0  0  0999 V2000
   38.2720   26.3500   36.3680 C   0  0  1  0  0  0  0  0  0  0  0  0
   39.0540   27.3360   35.6620 C   0  0  0  0  0  0  0  0  0  0  0  0
   37.6770   27.1700   35.2120 C   0  0  1  0  0  0  0  0  0  0  0  0
   39.5770   24.4030   35.5940 C   0  0  0  0  0  0  0  0  0  0  0  0
   38.4370   24.9110   36.2050 C   0  0  0  0  0  0  0  0  0  0  0  0
   37.4850   24.0000   36.6610 C   0  0  0  0  0  0  0  0  0  0  0  0
   37.7260   22.6660   36.4820 N   0  0  0  0  0  0  0  0  0  0  0  0
   38.8640   22.2040   35.8750 C   0  0  0  0  0  0  0  0  0  0  0  0
   39.7950   23.0890   35.4290 N   0  0  0  0  0  0  0  0  0  0  0  0
   37.2470   26.5210   33.9650 C   0  0  0  0  0  0  0  0  0  0  0  0
   37.1860   25.3290   33.5170 O   0  0  0  0  0  0  0  0  0  0  0  0
   36.7390   27.4920   32.9170 C   0  0  0  0  0  0  0  0  0  0  0  0
   36.1160   28.6000   33.4520 C   0  0  0  0  0  0  0  0  0  0  0  0
   35.6310   29.5540   31.8590 S   0  0  0  0  0  0  0  0  0  0  0  0
   36.4050   28.1990   30.7990 C   0  0  0  0  0  0  0  0  0  0  0  0
   36.8090   27.4280   31.6090 N   0  0  0  0  0  0  0  0  0  0  0  0
   38.0611   26.1695   37.4324 H   0  0  0  0  0  0  0  0  0  0  0  0
   39.3441   28.2634   36.1776 H   0  0  0  0  0  0  0  0  0  0  0  0
   40.0249   27.2995   35.1463 H   0  0  0  0  0  0  0  0  0  0  0  0
   36.8404   27.8634   35.0410 H   0  0  0  0  0  0  0  0  0  0  0  0
   40.3359   25.1106   35.2287 H   0  0  0  0  0  0  0  0  0  0  0  0
   36.5635   24.3457   37.1523 H   0  0  0  0  0  0  0  0  0  0  0  0
   39.0237   21.1230   35.7491 H   0  0  0  0  0  0  0  0  0  0  0  0
   35.9438   28.8650   34.5056 H   0  0  0  0  0  0  0  0  0  0  0  0
   36.4672   28.1374   29.7025 H   0  0  0  0  0  0  0  0  0  0  0  0
  2  1  1  0
  3  2  1  0
  3  1  1  0
  4  5  2  0
  5  1  1  0
  5  6  1  0
  7  6  2  0
  8  7  1  0
  9  4  1  0
  9  8  2  0
 10  3  1  0
 11 10  2  0
 12 13  2  0
 12 10  1  0
 14 13  1  0
 15 16  2  0
 15 14  1  0
 16 12  1  0
  1 17  1  1
  2 18  1  0
  2 19  1  0
  3 20  1  1
  4 21  1  0
  6 22  1  0
  8 23  1  0
 13 24  1  0
 15 25  1  0
M  ISO  8  17  13  18  13  19  13  20  13  21  14  22  14  23  14  24  14
M  ISO  1  25  14
M  END
>  <minimizedAffinity>  (1) 
-4.264853

>  <minimizedRMSD>  (1) 
2.43979526

$$$$
