
     RDKit          3D

 40 43  0  0  1  0  0  0  0  0999 V2000
   38.2240   26.2380   36.3090 C   0  0  1  0  0  0  0  0  0  0  0  0
   38.8920   27.3530   35.7070 C   0  0  0  0  0  0  0  0  0  0  0  0
   37.5160   27.0390   35.2330 C   0  0  1  0  0  0  0  0  0  0  0  0
   39.8070   24.5540   35.4010 C   0  0  0  0  0  0  0  0  0  0  0  0
   38.5940   24.8460   36.0370 C   0  0  0  0  0  0  0  0  0  0  0  0
   37.8080   23.7600   36.3770 C   0  0  0  0  0  0  0  0  0  0  0  0
   38.2400   22.5020   36.0850 N   0  0  0  0  0  0  0  0  0  0  0  0
   39.4270   22.2650   35.4670 C   0  0  0  0  0  0  0  0  0  0  0  0
   40.2170   23.3070   35.1210 N   0  0  0  0  0  0  0  0  0  0  0  0
   37.2440   26.4730   33.8900 C   0  0  0  0  0  0  0  0  0  0  0  0
   37.1620   25.2880   33.3870 O   0  0  0  0  0  0  0  0  0  0  0  0
   37.0120   27.5070   32.8160 C   0  0  0  0  0  0  0  0  0  0  0  0
   36.0020   28.3780   33.0980 C   0  0  0  0  0  0  0  0  0  0  0  0
   36.0680   29.5170   31.5550 S   0  0  0  0  0  0  0  0  0  0  0  0
   37.4990   28.5160   30.8580 C   0  0  0  0  0  0  0  0  0  0  0  0
   37.6530   27.6960   31.6910 N   0  0  0  0  0  0  0  0  0  0  0  0
   38.2970   28.5850   29.6700 N   0  0  0  0  0  0  0  0  0  0  0  0
   38.0150   29.0510   28.3230 C   0  0  0  0  0  0  0  0  0  0  0  0
   38.9750   30.2290   28.1160 C   0  0  0  0  0  0  0  0  0  0  0  0
   40.2440   29.6880   28.0030 O   0  0  0  0  0  0  0  0  0  0  0  0
   40.6400   29.1500   29.2140 C   0  0  0  0  0  0  0  0  0  0  0  0
   39.6690   28.1190   29.7360 C   0  0  0  0  0  0  0  0  0  0  0  0
   38.0240   25.9548   37.3529 H   0  0  0  0  0  0  0  0  0  0  0  0
   39.0680   28.2640   36.2979 H   0  0  0  0  0  0  0  0  0  0  0  0
   39.8617   27.4800   35.2034 H   0  0  0  0  0  0  0  0  0  0  0  0
   36.5676   27.5880   35.1373 H   0  0  0  0  0  0  0  0  0  0  0  0
   40.4594   25.3923   35.1153 H   0  0  0  0  0  0  0  0  0  0  0  0
   36.8412   23.9113   36.8795 H   0  0  0  0  0  0  0  0  0  0  0  0
   39.7428   21.2339   35.2499 H   0  0  0  0  0  0  0  0  0  0  0  0
   36.1679   26.4510   34.1172 H   0  0  0  0  0  0  0  0  0  0  0  0
   37.1159   24.6218   34.1178 H   0  0  0  0  0  0  0  0  0  0  0  0
   35.3330   28.4172   33.9703 H   0  0  0  0  0  0  0  0  0  0  0  0
   38.2101   28.2564   27.5878 H   0  0  0  0  0  0  0  0  0  0  0  0
   36.9621   29.3413   28.1924 H   0  0  0  0  0  0  0  0  0  0  0  0
   38.7124   30.7763   27.1987 H   0  0  0  0  0  0  0  0  0  0  0  0
   38.9190   30.9392   28.9542 H   0  0  0  0  0  0  0  0  0  0  0  0
   41.6230   28.6740   29.0835 H   0  0  0  0  0  0  0  0  0  0  0  0
   40.6806   29.9703   29.9458 H   0  0  0  0  0  0  0  0  0  0  0  0
   39.9181   27.8943   30.7836 H   0  0  0  0  0  0  0  0  0  0  0  0
   39.7544   27.2211   29.1064 H   0  0  0  0  0  0  0  0  0  0  0  0
  2  1  1  0
  3  2  1  0
  3  1  1  0
  4  5  2  0
  5  1  1  0
  5  6  1  0
  7  6  2  0
  8  7  1  0
  9  4  1  0
  9  8  2  0
 10 11  1  0
 10  3  1  0
 12 13  2  0
 12 10  1  0
 14 13  1  0
 15 14  1  0
 15 16  2  0
 16 12  1  0
 17 22  1  0
 17 15  1  0
 18 17  1  0
 19 18  1  0
 20 19  1  0
 20 21  1  0
 21 22  1  0
  1 23  1  1
  2 24  1  0
  2 25  1  0
  3 26  1  1
  4 27  1  0
  6 28  1  0
  8 29  1  0
 10 30  1  0
 11 31  1  0
 13 32  1  0
 18 33  1  0
 18 34  1  0
 19 35  1  0
 19 36  1  0
 21 37  1  0
 21 38  1  0
 22 39  1  0
 22 40  1  0
M  ISO  8  23  13  24  13  25  13  26  13  27  14  28  14  29  14  30   8
M  ISO  8  31   3  32  14  33  13  34  13  35  13  36  13  37  13  38  13
M  ISO  2  39  13  40  13
M  END
>  <minimizedAffinity>  (1) 
-5.04772568

>  <minimizedRMSD>  (1) 
1.37733698

$$$$
