
     RDKit          3D

 32 35  0  0  1  0  0  0  0  0999 V2000
   38.3060   26.3350   36.3760 C   0  0  1  0  0  0  0  0  0  0  0  0
   39.1040   27.3030   35.6830 C   0  0  0  0  0  0  0  0  0  0  0  0
   37.6660   27.1970   35.3030 C   0  0  1  0  0  0  0  0  0  0  0  0
   39.5420   24.3840   35.4690 C   0  0  0  0  0  0  0  0  0  0  0  0
   38.4320   24.8920   36.1520 C   0  0  0  0  0  0  0  0  0  0  0  0
   37.5040   23.9640   36.5850 C   0  0  0  0  0  0  0  0  0  0  0  0
   37.7110   22.6410   36.3340 N   0  0  0  0  0  0  0  0  0  0  0  0
   38.8060   22.1890   35.6670 C   0  0  0  0  0  0  0  0  0  0  0  0
   39.7290   23.0720   35.2320 N   0  0  0  0  0  0  0  0  0  0  0  0
   37.2230   26.6280   34.0080 C   0  0  0  0  0  0  0  0  0  0  0  0
   37.0670   25.4430   33.5240 O   0  0  0  0  0  0  0  0  0  0  0  0
   36.8670   27.6620   32.9690 C   0  0  0  0  0  0  0  0  0  0  0  0
   35.8940   28.5340   33.3660 C   0  0  0  0  0  0  0  0  0  0  0  0
   35.7930   29.6800   31.8310 S   0  0  0  0  0  0  0  0  0  0  0  0
   37.1410   28.6770   30.9710 C   0  0  0  0  0  0  0  0  0  0  0  0
   37.3900   27.8510   31.7720 N   0  0  0  0  0  0  0  0  0  0  0  0
   37.7420   28.8680   29.6360 C   0  0  0  0  0  0  0  0  0  0  0  0
   37.5100   29.8310   28.7140 N   0  0  0  0  0  0  0  0  0  0  0  0
   38.2760   29.5990   27.6690 O   0  0  0  0  0  0  0  0  0  0  0  0
   39.0050   28.5230   27.8630 C   0  0  0  0  0  0  0  0  0  0  0  0
   38.6680   28.0670   29.0970 N   0  0  0  0  0  0  0  0  0  0  0  0
   38.1305   26.1296   37.4423 H   0  0  0  0  0  0  0  0  0  0  0  0
   39.4599   28.1961   36.2175 H   0  0  0  0  0  0  0  0  0  0  0  0
   40.0476   27.2515   35.1200 H   0  0  0  0  0  0  0  0  0  0  0  0
   36.8130   27.8880   35.2339 H   0  0  0  0  0  0  0  0  0  0  0  0
   40.3011   25.0930   35.1069 H   0  0  0  0  0  0  0  0  0  0  0  0
   36.6051   24.2910   37.1282 H   0  0  0  0  0  0  0  0  0  0  0  0
   38.9385   21.1125   35.4835 H   0  0  0  0  0  0  0  0  0  0  0  0
   36.1836   26.6178   34.3680 H   0  0  0  0  0  0  0  0  0  0  0  0
   36.9814   24.7924   34.2653 H   0  0  0  0  0  0  0  0  0  0  0  0
   35.3250   28.5695   34.3067 H   0  0  0  0  0  0  0  0  0  0  0  0
   39.7367   28.0828   27.1695 H   0  0  0  0  0  0  0  0  0  0  0  0
  2  1  1  0
  3  2  1  0
  3  1  1  0
  4  5  2  0
  5  1  1  0
  5  6  1  0
  7  6  2  0
  8  7  1  0
  9  4  1  0
  9  8  2  0
 10 11  1  0
 10  3  1  0
 12 13  2  0
 12 10  1  0
 14 13  1  0
 15 16  2  0
 15 14  1  0
 16 12  1  0
 17 15  1  0
 18 17  2  0
 19 20  1  0
 19 18  1  0
 20 21  2  0
 21 17  1  0
  1 22  1  1
  2 23  1  0
  2 24  1  0
  3 25  1  1
  4 26  1  0
  6 27  1  0
  8 28  1  0
 10 29  1  0
 11 30  1  0
 13 31  1  0
 20 32  1  0
M  ISO  8  22  13  23  13  24  13  25  13  26  14  27  14  28  14  29   8
M  ISO  3  30   3  31  14  32  14
M  END
>  <minimizedAffinity>  (1) 
-4.8608551

>  <minimizedRMSD>  (1) 
0.994923174

$$$$
