
     RDKit          3D

 34 37  0  0  1  0  0  0  0  0999 V2000
   38.2960   26.0160   36.2900 C   0  0  1  0  0  0  0  0  0  0  0  0
   38.8730   27.2510   35.8430 C   0  0  0  0  0  0  0  0  0  0  0  0
   37.4930   26.9280   35.3830 C   0  0  1  0  0  0  0  0  0  0  0  0
   39.9370   24.5920   35.0880 C   0  0  0  0  0  0  0  0  0  0  0  0
   38.7290   24.7090   35.7860 C   0  0  0  0  0  0  0  0  0  0  0  0
   38.0110   23.5420   35.9620 C   0  0  0  0  0  0  0  0  0  0  0  0
   38.4990   22.3700   35.4620 N   0  0  0  0  0  0  0  0  0  0  0  0
   39.6790   22.3040   34.7900 C   0  0  0  0  0  0  0  0  0  0  0  0
   40.4010   23.4280   34.6030 N   0  0  0  0  0  0  0  0  0  0  0  0
   37.1920   26.5610   33.9790 C   0  0  0  0  0  0  0  0  0  0  0  0
   37.1730   25.4680   33.2900 O   0  0  0  0  0  0  0  0  0  0  0  0
   36.8210   27.7290   33.0900 C   0  0  0  0  0  0  0  0  0  0  0  0
   35.8950   28.5640   33.6450 C   0  0  0  0  0  0  0  0  0  0  0  0
   35.7340   29.8900   32.2710 S   0  0  0  0  0  0  0  0  0  0  0  0
   36.9960   28.9770   31.2280 C   0  0  0  0  0  0  0  0  0  0  0  0
   37.2700   28.0490   31.9130 N   0  0  0  0  0  0  0  0  0  0  0  0
   37.3980   29.4790   29.9080 C   0  0  0  0  0  0  0  0  0  0  0  0
   38.0610   28.8890   28.8010 C   0  0  0  0  0  0  0  0  0  0  0  0
   38.2340   29.7390   27.7550 C   0  0  0  0  0  0  0  0  0  0  0  0
   37.7900   31.1000   27.7670 C   0  0  0  0  0  0  0  0  0  0  0  0
   37.0340   31.2670   29.4090 S   0  0  0  0  0  0  0  0  0  0  0  0
   38.1629   25.5634   37.2837 H   0  0  0  0  0  0  0  0  0  0  0  0
   39.0285   28.0693   36.5614 H   0  0  0  0  0  0  0  0  0  0  0  0
   39.8079   27.5138   35.3263 H   0  0  0  0  0  0  0  0  0  0  0  0
   36.5114   27.4235   35.4147 H   0  0  0  0  0  0  0  0  0  0  0  0
   40.5372   25.4999   34.9284 H   0  0  0  0  0  0  0  0  0  0  0  0
   37.0525   23.5575   36.5015 H   0  0  0  0  0  0  0  0  0  0  0  0
   40.0423   21.3411   34.4016 H   0  0  0  0  0  0  0  0  0  0  0  0
   36.1350   26.4120   34.2446 H   0  0  0  0  0  0  0  0  0  0  0  0
   37.1595   24.6913   33.9037 H   0  0  0  0  0  0  0  0  0  0  0  0
   35.3816   28.4948   34.6154 H   0  0  0  0  0  0  0  0  0  0  0  0
   38.4024   27.8434   28.7905 H   0  0  0  0  0  0  0  0  0  0  0  0
   38.7405   29.3625   26.8540 H   0  0  0  0  0  0  0  0  0  0  0  0
   37.8839   31.8583   26.9757 H   0  0  0  0  0  0  0  0  0  0  0  0
  2  1  1  0
  3  2  1  0
  3  1  1  0
  4  5  2  0
  5  6  1  0
  5  1  1  0
  7  6  2  0
  8  7  1  0
  9  8  2  0
  9  4  1  0
 10 11  1  0
 10  3  1  0
 12 13  2  0
 12 10  1  0
 14 13  1  0
 15 16  2  0
 15 14  1  0
 16 12  1  0
 17 15  1  0
 18 17  2  0
 19 20  2  0
 19 18  1  0
 20 21  1  0
 21 17  1  0
  1 22  1  1
  2 23  1  0
  2 24  1  0
  3 25  1  1
  4 26  1  0
  6 27  1  0
  8 28  1  0
 10 29  1  0
 11 30  1  0
 13 31  1  0
 18 32  1  0
 19 33  1  0
 20 34  1  0
M  ISO  8  22  13  23  13  24  13  25  13  26  14  27  14  28  14  29   8
M  ISO  5  30   3  31  14  32  14  33  14  34  14
M  END
>  <minimizedAffinity>  (1) 
-4.73960018

>  <minimizedRMSD>  (1) 
1.28347206

$$$$
