
     RDKit          3D

 35 38  0  0  1  0  0  0  0  0999 V2000
   38.2210   26.2350   36.3070 C   0  0  1  0  0  0  0  0  0  0  0  0
   38.8910   27.3480   35.7030 C   0  0  0  0  0  0  0  0  0  0  0  0
   37.5110   27.0380   35.2340 C   0  0  1  0  0  0  0  0  0  0  0  0
   39.8080   24.5540   35.3910 C   0  0  0  0  0  0  0  0  0  0  0  0
   38.5950   24.8430   36.0290 C   0  0  0  0  0  0  0  0  0  0  0  0
   37.8090   23.7580   36.3680 C   0  0  0  0  0  0  0  0  0  0  0  0
   38.2390   22.4990   36.0750 N   0  0  0  0  0  0  0  0  0  0  0  0
   39.4270   22.2640   35.4550 C   0  0  0  0  0  0  0  0  0  0  0  0
   40.2200   23.3090   35.1100 N   0  0  0  0  0  0  0  0  0  0  0  0
   37.2400   26.4740   33.8910 C   0  0  0  0  0  0  0  0  0  0  0  0
   37.1600   25.2900   33.3820 O   0  0  0  0  0  0  0  0  0  0  0  0
   36.9990   27.5130   32.8170 C   0  0  0  0  0  0  0  0  0  0  0  0
   36.0000   28.3840   33.1120 C   0  0  0  0  0  0  0  0  0  0  0  0
   36.0560   29.5260   31.5690 S   0  0  0  0  0  0  0  0  0  0  0  0
   37.4600   28.5240   30.8620 C   0  0  0  0  0  0  0  0  0  0  0  0
   37.6160   27.7050   31.6930 N   0  0  0  0  0  0  0  0  0  0  0  0
   37.9950   28.9420   29.5670 C   0  0  0  0  0  0  0  0  0  0  0  0
   37.5950   30.0660   28.9170 C   0  0  0  0  0  0  0  0  0  0  0  0
   38.2090   30.3200   27.6860 C   0  0  0  0  0  0  0  0  0  0  0  0
   39.1350   29.4650   27.2210 N   0  0  0  0  0  0  0  0  0  0  0  0
   39.5250   28.3520   27.8730 C   0  0  0  0  0  0  0  0  0  0  0  0
   38.9120   28.1290   29.0690 N   0  0  0  0  0  0  0  0  0  0  0  0
   38.0197   25.9516   37.3506 H   0  0  0  0  0  0  0  0  0  0  0  0
   39.0722   28.2583   36.2934 H   0  0  0  0  0  0  0  0  0  0  0  0
   39.8593   27.4720   35.1960 H   0  0  0  0  0  0  0  0  0  0  0  0
   36.5625   27.5877   35.1433 H   0  0  0  0  0  0  0  0  0  0  0  0
   40.4581   25.3939   35.1048 H   0  0  0  0  0  0  0  0  0  0  0  0
   36.8426   23.9100   36.8710 H   0  0  0  0  0  0  0  0  0  0  0  0
   39.7423   21.2334   35.2350 H   0  0  0  0  0  0  0  0  0  0  0  0
   36.1641   26.4488   34.1187 H   0  0  0  0  0  0  0  0  0  0  0  0
   37.1148   24.6203   34.1097 H   0  0  0  0  0  0  0  0  0  0  0  0
   35.3408   28.4244   33.9917 H   0  0  0  0  0  0  0  0  0  0  0  0
   36.8314   30.7384   29.3351 H   0  0  0  0  0  0  0  0  0  0  0  0
   37.9359   31.2123   27.1036 H   0  0  0  0  0  0  0  0  0  0  0  0
   40.2866   27.6699   27.4671 H   0  0  0  0  0  0  0  0  0  0  0  0
  2  1  1  0
  3  2  1  0
  3  1  1  0
  4  5  2  0
  5  1  1  0
  5  6  1  0
  7  6  2  0
  8  7  1  0
  9  4  1  0
  9  8  2  0
 10 11  1  0
 10  3  1  0
 12 13  2  0
 12 10  1  0
 14 13  1  0
 15 14  1  0
 15 16  2  0
 16 12  1  0
 17 15  1  0
 18 17  2  0
 19 18  1  0
 20 19  2  0
 20 21  1  0
 21 22  2  0
 22 17  1  0
  1 23  1  1
  2 24  1  0
  2 25  1  0
  3 26  1  1
  4 27  1  0
  6 28  1  0
  8 29  1  0
 10 30  1  0
 11 31  1  0
 13 32  1  0
 18 33  1  0
 19 34  1  0
 21 35  1  0
M  ISO  8  23  13  24  13  25  13  26  13  27  14  28  14  29  14  30   8
M  ISO  5  31   3  32  14  33  14  34  14  35  14
M  END
>  <minimizedAffinity>  (1) 
-4.89022207

>  <minimizedRMSD>  (1) 
1.3359412

$$$$
