
     RDKit          3D

 48 52  0  0  1  0  0  0  0  0999 V2000
   37.0880   27.5140   32.7730 C   0  0  0  0  0  0  0  0  0  0  0  0
   35.9730   28.2730   32.8390 C   0  0  0  0  0  0  0  0  0  0  0  0
   36.1420   29.3350   31.2520 S   0  0  0  0  0  0  0  0  0  0  0  0
   37.7510   28.4750   30.8470 C   0  0  0  0  0  0  0  0  0  0  0  0
   37.8600   27.7230   31.7470 N   0  0  0  0  0  0  0  0  0  0  0  0
   38.4310   28.8890   29.6290 C   0  0  0  0  0  0  0  0  0  0  0  0
   38.6400   30.1980   29.2870 C   0  0  0  0  0  0  0  0  0  0  0  0
   39.3090   30.4090   28.0790 C   0  0  0  0  0  0  0  0  0  0  0  0
   39.7020   29.3590   27.3380 N   0  0  0  0  0  0  0  0  0  0  0  0
   39.4920   28.0810   27.6830 C   0  0  0  0  0  0  0  0  0  0  0  0
   38.8370   27.8880   28.8660 N   0  0  0  0  0  0  0  0  0  0  0  0
   39.9060   26.9690   26.8980 N   0  0  0  0  0  0  0  0  0  0  0  0
   39.7780   25.6790   27.3100 C   0  0  0  0  0  0  0  0  0  0  0  0
   40.2180   24.6810   26.4600 C   0  0  0  0  0  0  0  0  0  0  0  0
   40.0760   23.2790   26.9140 C   0  0  0  0  0  0  0  0  0  0  0  0
   40.7700   24.9690   25.2340 C   0  0  0  0  0  0  0  0  0  0  0  0
   41.1640   24.0500   24.4760 O   0  0  0  0  0  0  0  0  0  0  0  0
   40.8590   26.2770   24.9050 N   0  0  0  0  0  0  0  0  0  0  0  0
   40.4470   27.2900   25.6930 C   0  0  0  0  0  0  0  0  0  0  0  0
   40.5690   28.4810   25.3050 O   0  0  0  0  0  0  0  0  0  0  0  0
   37.1930   26.5220   33.9290 C   0  0  2  0  0  0  0  0  0  0  0  0
   38.3140   26.4110   36.3190 C   0  0  1  0  0  0  0  0  0  0  0  0
   39.1240   27.3010   35.5630 C   0  0  0  0  0  0  0  0  0  0  0  0
   37.7230   27.1930   35.1530 C   0  0  1  0  0  0  0  0  0  0  0  0
   39.5680   24.3930   35.5870 C   0  0  0  0  0  0  0  0  0  0  0  0
   38.4360   24.9440   36.1950 C   0  0  0  0  0  0  0  0  0  0  0  0
   37.4890   24.0640   36.6470 C   0  0  0  0  0  0  0  0  0  0  0  0
   37.6910   22.7160   36.4860 N   0  0  0  0  0  0  0  0  0  0  0  0
   38.8020   22.2130   35.8930 C   0  0  0  0  0  0  0  0  0  0  0  0
   39.7550   23.0680   35.4360 N   0  0  0  0  0  0  0  0  0  0  0  0
   37.2680   25.3350   33.4400 O   0  0  0  0  0  0  0  0  0  0  0  0
   35.1793   28.2800   33.6005 H   0  0  0  0  0  0  0  0  0  0  0  0
   38.3028   31.0301   29.9225 H   0  0  0  0  0  0  0  0  0  0  0  0
   39.5139   31.4334   27.7347 H   0  0  0  0  0  0  0  0  0  0  0  0
   39.3382   25.4372   28.2888 H   0  0  0  0  0  0  0  0  0  0  0  0
   40.0729   23.2482   28.0136 H   0  0  0  0  0  0  0  0  0  0  0  0
   39.1312   22.8641   26.5329 H   0  0  0  0  0  0  0  0  0  0  0  0
   40.9184   22.6831   26.5329 H   0  0  0  0  0  0  0  0  0  0  0  0
   41.2692   26.5156   23.9908 H   0  0  0  0  0  0  0  0  0  0  0  0
   36.4359   26.1351   34.6269 H   0  0  0  0  0  0  0  0  0  0  0  0
   38.1082   26.2970   37.3935 H   0  0  0  0  0  0  0  0  0  0  0  0
   39.4799   28.2326   36.0271 H   0  0  0  0  0  0  0  0  0  0  0  0
   40.0784   27.1845   35.0287 H   0  0  0  0  0  0  0  0  0  0  0  0
   36.9160   27.9175   34.9690 H   0  0  0  0  0  0  0  0  0  0  0  0
   40.3449   25.0761   35.2132 H   0  0  0  0  0  0  0  0  0  0  0  0
   36.5750   24.4341   37.1345 H   0  0  0  0  0  0  0  0  0  0  0  0
   38.9305   21.1261   35.7831 H   0  0  0  0  0  0  0  0  0  0  0  0
   37.3096   24.6762   34.1778 H   0  0  0  0  0  0  0  0  0  0  0  0
  1  2  2  0
  1 21  1  0
  3  2  1  0
  4  3  1  0
  4  5  2  0
  5  1  1  0
  6  4  1  0
  7  6  2  0
  8  7  1  0
  9 10  1  0
  9  8  2  0
 10 11  2  0
 11  6  1  0
 12 13  1  0
 12 10  1  0
 14 15  1  0
 14 13  2  0
 16 14  1  0
 17 16  2  0
 18 16  1  0
 18 19  1  0
 19 12  1  0
 20 19  2  0
 21 24  1  0
 23 22  1  0
 24 23  1  0
 24 22  1  0
 25 26  2  0
 26 22  1  0
 26 27  1  0
 28 27  2  0
 29 28  1  0
 30 25  1  0
 30 29  2  0
 31 21  1  0
  2 32  1  0
  7 33  1  0
  8 34  1  0
 13 35  1  0
 15 36  1  0
 15 37  1  0
 15 38  1  0
 18 39  1  0
 21 40  1  1
 22 41  1  1
 23 42  1  0
 23 43  1  0
 24 44  1  1
 25 45  1  0
 27 46  1  0
 29 47  1  0
 31 48  1  0
M  ISO  8  32  14  33  14  34  14  35  14  36   8  37   8  38   8  39   9
M  ISO  8  40   8  41  13  42  13  43  13  44  13  45  14  46  14  47  14
M  ISO  1  48   3
M  END
>  <minimizedAffinity>  (1) 
-5.93369341

>  <minimizedRMSD>  (1) 
1.0200057

$$$$
