
     RDKit          3D

 47 51  0  0  1  0  0  0  0  0999 V2000
   37.1160   26.6800   34.1090 C   0  0  1  0  0  0  0  0  0  0  0  0
   38.3790   26.3830   36.4120 C   0  0  1  0  0  0  0  0  0  0  0  0
   39.1980   27.2560   35.6510 C   0  0  0  0  0  0  0  0  0  0  0  0
   37.7740   27.2610   35.3240 C   0  0  1  0  0  0  0  0  0  0  0  0
   39.4480   24.3310   35.5470 C   0  0  0  0  0  0  0  0  0  0  0  0
   38.3880   24.9330   36.2300 C   0  0  0  0  0  0  0  0  0  0  0  0
   37.4180   24.0810   36.6800 C   0  0  0  0  0  0  0  0  0  0  0  0
   37.5240   22.7320   36.4520 N   0  0  0  0  0  0  0  0  0  0  0  0
   38.5770   22.1910   35.7800 C   0  0  0  0  0  0  0  0  0  0  0  0
   39.5580   23.0110   35.3190 N   0  0  0  0  0  0  0  0  0  0  0  0
   36.8000   27.7740   33.0930 C   0  0  0  0  0  0  0  0  0  0  0  0
   35.7500   28.5340   33.4690 C   0  0  0  0  0  0  0  0  0  0  0  0
   35.6100   29.7430   31.9860 S   0  0  0  0  0  0  0  0  0  0  0  0
   37.0660   28.9070   31.1670 C   0  0  0  0  0  0  0  0  0  0  0  0
   37.3310   28.0770   31.9540 N   0  0  0  0  0  0  0  0  0  0  0  0
   37.4790   29.4360   29.8690 C   0  0  0  0  0  0  0  0  0  0  0  0
   37.0830   30.6320   29.3800 C   0  0  0  0  0  0  0  0  0  0  0  0
   37.5690   30.9850   28.1190 C   0  0  0  0  0  0  0  0  0  0  0  0
   38.3890   30.1330   27.4690 N   0  0  0  0  0  0  0  0  0  0  0  0
   38.7780   28.9440   27.9630 C   0  0  0  0  0  0  0  0  0  0  0  0
   38.2880   28.6270   29.1980 N   0  0  0  0  0  0  0  0  0  0  0  0
   39.6400   28.1020   27.2280 N   0  0  0  0  0  0  0  0  0  0  0  0
   39.8210   26.7110   27.5690 C   0  0  0  0  0  0  0  0  0  0  0  0
   40.7610   26.1730   26.4980 C   0  0  0  0  0  0  0  0  0  0  0  0
   40.5460   27.1270   25.3660 C   0  0  0  0  0  0  0  0  0  0  0  0
   40.4370   28.4690   26.0770 C   0  0  0  0  0  0  0  0  0  0  0  0
   37.2140   25.5610   33.4800 O   0  0  0  0  0  0  0  0  0  0  0  0
   36.4620   26.1804   34.8388 H   0  0  0  0  0  0  0  0  0  0  0  0
   38.2328   26.2264   37.4909 H   0  0  0  0  0  0  0  0  0  0  0  0
   39.6427   28.1374   36.1361 H   0  0  0  0  0  0  0  0  0  0  0  0
   40.1089   27.1058   35.0529 H   0  0  0  0  0  0  0  0  0  0  0  0
   37.0139   28.0493   35.2202 H   0  0  0  0  0  0  0  0  0  0  0  0
   40.2490   24.9835   35.1693 H   0  0  0  0  0  0  0  0  0  0  0  0
   36.5499   24.4781   37.2265 H   0  0  0  0  0  0  0  0  0  0  0  0
   38.6332   21.1053   35.6124 H   0  0  0  0  0  0  0  0  0  0  0  0
   35.1383   28.4758   34.3814 H   0  0  0  0  0  0  0  0  0  0  0  0
   36.4117   31.2941   29.9465 H   0  0  0  0  0  0  0  0  0  0  0  0
   37.2870   31.9449   27.6618 H   0  0  0  0  0  0  0  0  0  0  0  0
   40.2719   26.6112   28.5674 H   0  0  0  0  0  0  0  0  0  0  0  0
   38.8684   26.1620   27.6025 H   0  0  0  0  0  0  0  0  0  0  0  0
   41.8061   26.1925   26.8407 H   0  0  0  0  0  0  0  0  0  0  0  0
   40.5643   25.1245   26.2299 H   0  0  0  0  0  0  0  0  0  0  0  0
   39.6213   26.8916   24.8188 H   0  0  0  0  0  0  0  0  0  0  0  0
   41.3452   27.0962   24.6108 H   0  0  0  0  0  0  0  0  0  0  0  0
   41.4248   28.8513   26.3738 H   0  0  0  0  0  0  0  0  0  0  0  0
   40.0079   29.2755   25.4643 H   0  0  0  0  0  0  0  0  0  0  0  0
   37.2789   24.8199   34.1332 H   0  0  0  0  0  0  0  0  0  0  0  0
  1  4  1  0
  3  2  1  0
  4  3  1  0
  4  2  1  0
  5  6  2  0
  6  2  1  0
  6  7  1  0
  8  7  2  0
  9  8  1  0
 10  5  1  0
 10  9  2  0
 11 12  2  0
 11  1  1  0
 13 12  1  0
 14 15  2  0
 14 13  1  0
 15 11  1  0
 16 14  1  0
 17 16  2  0
 18 17  1  0
 19 20  1  0
 19 18  2  0
 20 21  2  0
 21 16  1  0
 22 23  1  0
 22 20  1  0
 24 23  1  0
 25 26  1  0
 25 24  1  0
 26 22  1  0
 27  1  1  0
  1 28  1  1
  2 29  1  1
  3 30  1  0
  3 31  1  0
  4 32  1  1
  5 33  1  0
  7 34  1  0
  9 35  1  0
 12 36  1  0
 17 37  1  0
 18 38  1  0
 23 39  1  0
 23 40  1  0
 24 41  1  0
 24 42  1  0
 25 43  1  0
 25 44  1  0
 26 45  1  0
 26 46  1  0
 27 47  1  0
M  ISO  8  28   8  29  13  30  13  31  13  32  13  33  14  34  14  35  14
M  ISO  8  36  14  37  14  38  14  39  13  40  13  41  13  42  13  43  13
M  ISO  4  44  13  45  13  46  13  47   3
M  END
>  <minimizedAffinity>  (1) 
-5.77135181

>  <minimizedRMSD>  (1) 
0.772901654

$$$$
