
     RDKit          3D

 41 45  0  0  1  0  0  0  0  0999 V2000
   37.0810   26.7010   34.2260 C   0  0  1  0  0  0  0  0  0  0  0  0
   38.4110   26.3630   36.4840 C   0  0  1  0  0  0  0  0  0  0  0  0
   39.2180   27.2330   35.7030 C   0  0  0  0  0  0  0  0  0  0  0  0
   37.7780   27.2640   35.4280 C   0  0  1  0  0  0  0  0  0  0  0  0
   39.4260   24.2940   35.5710 C   0  0  0  0  0  0  0  0  0  0  0  0
   38.3890   24.9170   36.2860 C   0  0  0  0  0  0  0  0  0  0  0  0
   37.4160   24.0710   36.7460 C   0  0  0  0  0  0  0  0  0  0  0  0
   37.4800   22.7280   36.5110 N   0  0  0  0  0  0  0  0  0  0  0  0
   38.4980   22.1710   35.8180 C   0  0  0  0  0  0  0  0  0  0  0  0
   39.4890   22.9660   35.3390 N   0  0  0  0  0  0  0  0  0  0  0  0
   36.7740   27.8020   33.2180 C   0  0  0  0  0  0  0  0  0  0  0  0
   35.7700   28.6050   33.6050 C   0  0  0  0  0  0  0  0  0  0  0  0
   35.6410   29.8070   32.1290 S   0  0  0  0  0  0  0  0  0  0  0  0
   37.0440   28.9160   31.2660 C   0  0  0  0  0  0  0  0  0  0  0  0
   37.2870   28.0810   32.0630 N   0  0  0  0  0  0  0  0  0  0  0  0
   37.4440   29.4200   29.9580 C   0  0  0  0  0  0  0  0  0  0  0  0
   37.0710   30.6290   29.4790 C   0  0  0  0  0  0  0  0  0  0  0  0
   37.5440   30.9500   28.1950 C   0  0  0  0  0  0  0  0  0  0  0  0
   38.3120   30.0750   27.5320 N   0  0  0  0  0  0  0  0  0  0  0  0
   38.6730   28.8750   28.0270 C   0  0  0  0  0  0  0  0  0  0  0  0
   38.2020   28.5820   29.2790 N   0  0  0  0  0  0  0  0  0  0  0  0
   39.4920   27.9440   27.3210 N   0  0  0  0  0  0  0  0  0  0  0  0
   40.1900   28.4740   26.2760 C   0  0  0  0  0  0  0  0  0  0  0  0
   40.9190   27.4950   25.6990 N   0  0  0  0  0  0  0  0  0  0  0  0
   40.6520   26.3680   26.4080 C   0  0  0  0  0  0  0  0  0  0  0  0
   39.7790   26.6560   27.3960 N   0  0  0  0  0  0  0  0  0  0  0  0
   37.1250   25.5810   33.5930 O   0  0  0  0  0  0  0  0  0  0  0  0
   36.4438   26.2131   34.9783 H   0  0  0  0  0  0  0  0  0  0  0  0
   38.3025   26.1962   37.5659 H   0  0  0  0  0  0  0  0  0  0  0  0
   39.6944   28.1013   36.1817 H   0  0  0  0  0  0  0  0  0  0  0  0
   40.1041   27.0759   35.0705 H   0  0  0  0  0  0  0  0  0  0  0  0
   37.0241   28.0626   35.3650 H   0  0  0  0  0  0  0  0  0  0  0  0
   40.2349   24.9267   35.1768 H   0  0  0  0  0  0  0  0  0  0  0  0
   36.5681   24.4805   37.3147 H   0  0  0  0  0  0  0  0  0  0  0  0
   38.5234   21.0852   35.6439 H   0  0  0  0  0  0  0  0  0  0  0  0
   35.1769   28.5772   34.5310 H   0  0  0  0  0  0  0  0  0  0  0  0
   36.4376   31.3173   30.0578 H   0  0  0  0  0  0  0  0  0  0  0  0
   37.2847   31.9156   27.7363 H   0  0  0  0  0  0  0  0  0  0  0  0
   40.1634   29.5261   25.9559 H   0  0  0  0  0  0  0  0  0  0  0  0
   41.0806   25.3749   26.2081 H   0  0  0  0  0  0  0  0  0  0  0  0
   37.1543   24.8352   34.2435 H   0  0  0  0  0  0  0  0  0  0  0  0
  1  4  1  0
  3  2  1  0
  4  3  1  0
  4  2  1  0
  5  6  2  0
  6  2  1  0
  6  7  1  0
  8  7  2  0
  9  8  1  0
 10  5  1  0
 10  9  2  0
 11 12  2  0
 11  1  1  0
 13 12  1  0
 14 15  2  0
 14 13  1  0
 15 11  1  0
 16 14  1  0
 17 16  2  0
 18 17  1  0
 19 20  1  0
 19 18  2  0
 20 21  2  0
 21 16  1  0
 22 26  1  0
 22 20  1  0
 23 22  1  0
 24 23  2  0
 24 25  1  0
 25 26  2  0
 27  1  1  0
  1 28  1  1
  2 29  1  1
  3 30  1  0
  3 31  1  0
  4 32  1  1
  5 33  1  0
  7 34  1  0
  9 35  1  0
 12 36  1  0
 17 37  1  0
 18 38  1  0
 23 39  1  0
 25 40  1  0
 27 41  1  0
M  ISO  8  28   8  29  13  30  13  31  13  32  13  33  14  34  14  35  14
M  ISO  6  36  14  37  14  38  14  39  14  40  14  41   3
M  END
>  <minimizedAffinity>  (1) 
-5.70421696

>  <minimizedRMSD>  (1) 
0.842654109

$$$$
