
     RDKit          3D

 42 46  0  0  1  0  0  0  0  0999 V2000
   36.7890   27.7880   33.1890 C   0  0  0  0  0  0  0  0  0  0  0  0
   35.7960   28.6060   33.5730 C   0  0  0  0  0  0  0  0  0  0  0  0
   35.6750   29.7970   32.0800 S   0  0  0  0  0  0  0  0  0  0  0  0
   37.0670   28.8760   31.2280 C   0  0  0  0  0  0  0  0  0  0  0  0
   37.3170   28.0390   32.0200 N   0  0  0  0  0  0  0  0  0  0  0  0
   37.4760   29.3650   29.9150 C   0  0  0  0  0  0  0  0  0  0  0  0
   37.0950   30.5700   29.4080 C   0  0  0  0  0  0  0  0  0  0  0  0
   37.5870   30.8760   28.1410 C   0  0  0  0  0  0  0  0  0  0  0  0
   38.3820   30.0020   27.5040 N   0  0  0  0  0  0  0  0  0  0  0  0
   38.7510   28.8140   28.0130 C   0  0  0  0  0  0  0  0  0  0  0  0
   38.2580   28.5310   29.2590 N   0  0  0  0  0  0  0  0  0  0  0  0
   39.6160   27.8770   27.3050 C   0  0  0  0  0  0  0  0  0  0  0  0
   40.3680   27.9920   26.1600 C   0  0  0  0  0  0  0  0  0  0  0  0
   40.9640   26.7590   26.0060 C   0  0  0  0  0  0  0  0  0  0  0  0
   40.6000   25.9310   26.9990 N   0  0  0  0  0  0  0  0  0  0  0  0
   39.7810   26.6330   27.7750 N   0  0  0  0  0  0  0  0  0  0  0  0
   37.0870   26.6900   34.2090 C   0  0  2  0  0  0  0  0  0  0  0  0
   38.4100   26.3710   36.4750 C   0  0  1  0  0  0  0  0  0  0  0  0
   39.2170   27.2340   35.6860 C   0  0  0  0  0  0  0  0  0  0  0  0
   37.7790   27.2580   35.4070 C   0  0  1  0  0  0  0  0  0  0  0  0
   39.4360   24.3030   35.5720 C   0  0  0  0  0  0  0  0  0  0  0  0
   38.3910   24.9260   36.2840 C   0  0  0  0  0  0  0  0  0  0  0  0
   37.4170   24.0820   36.7470 C   0  0  0  0  0  0  0  0  0  0  0  0
   37.4920   22.7320   36.5140 N   0  0  0  0  0  0  0  0  0  0  0  0
   38.5250   22.1780   35.8190 C   0  0  0  0  0  0  0  0  0  0  0  0
   39.5140   22.9800   35.3390 N   0  0  0  0  0  0  0  0  0  0  0  0
   37.1280   25.5650   33.5860 O   0  0  0  0  0  0  0  0  0  0  0  0
   35.2068   28.5946   34.5018 H   0  0  0  0  0  0  0  0  0  0  0  0
   36.4405   31.2579   29.9634 H   0  0  0  0  0  0  0  0  0  0  0  0
   37.3245   31.8317   27.6637 H   0  0  0  0  0  0  0  0  0  0  0  0
   40.4712   28.8735   25.5102 H   0  0  0  0  0  0  0  0  0  0  0  0
   41.6436   26.4902   25.1839 H   0  0  0  0  0  0  0  0  0  0  0  0
   40.8950   24.9531   27.1317 H   0  0  0  0  0  0  0  0  0  0  0  0
   36.4444   26.2094   34.9614 H   0  0  0  0  0  0  0  0  0  0  0  0
   38.2997   26.2165   37.5585 H   0  0  0  0  0  0  0  0  0  0  0  0
   39.6898   28.1091   36.1558 H   0  0  0  0  0  0  0  0  0  0  0  0
   40.1053   27.0718   35.0578 H   0  0  0  0  0  0  0  0  0  0  0  0
   37.0215   28.0522   35.3341 H   0  0  0  0  0  0  0  0  0  0  0  0
   40.2419   24.9413   35.1806 H   0  0  0  0  0  0  0  0  0  0  0  0
   36.5658   24.4906   37.3115 H   0  0  0  0  0  0  0  0  0  0  0  0
   38.5591   21.0920   35.6475 H   0  0  0  0  0  0  0  0  0  0  0  0
   37.1550   24.8248   34.2429 H   0  0  0  0  0  0  0  0  0  0  0  0
  1  2  2  0
  1 17  1  0
  3  2  1  0
  4  5  2  0
  4  3  1  0
  5  1  1  0
  6  4  1  0
  7  6  2  0
  8  7  1  0
  9 10  1  0
  9  8  2  0
 10 11  2  0
 11  6  1  0
 12 16  2  0
 12 10  1  0
 13 12  1  0
 14 13  2  0
 14 15  1  0
 15 16  1  0
 17 20  1  0
 19 18  1  0
 20 19  1  0
 20 18  1  0
 21 22  2  0
 22 18  1  0
 22 23  1  0
 24 23  2  0
 25 24  1  0
 26 21  1  0
 26 25  2  0
 27 17  1  0
  2 28  1  0
  7 29  1  0
  8 30  1  0
 13 31  1  0
 14 32  1  0
 15 33  1  0
 17 34  1  1
 18 35  1  1
 19 36  1  0
 19 37  1  0
 20 38  1  1
 21 39  1  0
 23 40  1  0
 25 41  1  0
 27 42  1  0
M  ISO  8  28  14  29  14  30  14  31  14  32  14  33   9  34   8  35  13
M  ISO  7  36  13  37  13  38  13  39  14  40  14  41  14  42   3
M  END
>  <minimizedAffinity>  (1) 
-5.45352125

>  <minimizedRMSD>  (1) 
0.800610185

$$$$
