
     RDKit          3D

 41 45  0  0  1  0  0  0  0  0999 V2000
   37.0950   26.6960   34.2020 C   0  0  1  0  0  0  0  0  0  0  0  0
   38.4060   26.3700   36.4710 C   0  0  1  0  0  0  0  0  0  0  0  0
   39.2200   27.2300   35.6900 C   0  0  0  0  0  0  0  0  0  0  0  0
   37.7820   27.2690   35.4090 C   0  0  1  0  0  0  0  0  0  0  0  0
   39.4330   24.3060   35.5710 C   0  0  0  0  0  0  0  0  0  0  0  0
   38.3900   24.9230   36.2760 C   0  0  0  0  0  0  0  0  0  0  0  0
   37.4160   24.0760   36.7310 C   0  0  0  0  0  0  0  0  0  0  0  0
   37.4960   22.7290   36.4940 N   0  0  0  0  0  0  0  0  0  0  0  0
   38.5220   22.1770   35.8100 C   0  0  0  0  0  0  0  0  0  0  0  0
   39.5130   22.9820   35.3360 N   0  0  0  0  0  0  0  0  0  0  0  0
   36.7910   27.8020   33.1900 C   0  0  0  0  0  0  0  0  0  0  0  0
   35.7860   28.6010   33.5740 C   0  0  0  0  0  0  0  0  0  0  0  0
   35.6540   29.8080   32.0930 S   0  0  0  0  0  0  0  0  0  0  0  0
   37.0660   28.9120   31.2430 C   0  0  0  0  0  0  0  0  0  0  0  0
   37.3200   28.0710   32.0340 N   0  0  0  0  0  0  0  0  0  0  0  0
   37.4720   29.4140   29.9330 C   0  0  0  0  0  0  0  0  0  0  0  0
   37.0840   30.6040   29.4290 C   0  0  0  0  0  0  0  0  0  0  0  0
   37.5560   30.9240   28.1600 C   0  0  0  0  0  0  0  0  0  0  0  0
   38.3490   30.0650   27.5150 N   0  0  0  0  0  0  0  0  0  0  0  0
   38.7350   28.8790   28.0190 C   0  0  0  0  0  0  0  0  0  0  0  0
   38.2530   28.5900   29.2740 N   0  0  0  0  0  0  0  0  0  0  0  0
   39.6030   27.9750   27.2760 C   0  0  0  0  0  0  0  0  0  0  0  0
   40.4340   28.4280   26.2390 C   0  0  0  0  0  0  0  0  0  0  0  0
   41.2910   26.8320   25.6760 S   0  0  0  0  0  0  0  0  0  0  0  0
   40.3080   25.8910   27.0020 C   0  0  0  0  0  0  0  0  0  0  0  0
   39.6860   26.6790   27.5030 N   0  0  0  0  0  0  0  0  0  0  0  0
   37.1510   25.5780   33.5680 O   0  0  0  0  0  0  0  0  0  0  0  0
   36.4554   26.1976   34.9453 H   0  0  0  0  0  0  0  0  0  0  0  0
   38.2856   26.2095   37.5526 H   0  0  0  0  0  0  0  0  0  0  0  0
   39.7000   28.0976   36.1664 H   0  0  0  0  0  0  0  0  0  0  0  0
   40.1075   27.0641   35.0617 H   0  0  0  0  0  0  0  0  0  0  0  0
   37.0320   28.0708   35.3409 H   0  0  0  0  0  0  0  0  0  0  0  0
   40.2398   24.9457   35.1839 H   0  0  0  0  0  0  0  0  0  0  0  0
   36.5609   24.4806   37.2923 H   0  0  0  0  0  0  0  0  0  0  0  0
   38.5565   21.0911   35.6381 H   0  0  0  0  0  0  0  0  0  0  0  0
   35.1916   28.5713   34.4991 H   0  0  0  0  0  0  0  0  0  0  0  0
   36.4290   31.2853   29.9919 H   0  0  0  0  0  0  0  0  0  0  0  0
   37.2775   31.8791   27.6908 H   0  0  0  0  0  0  0  0  0  0  0  0
   40.5570   29.4499   25.8511 H   0  0  0  0  0  0  0  0  0  0  0  0
   40.3413   24.8149   27.2278 H   0  0  0  0  0  0  0  0  0  0  0  0
   37.1884   24.8318   34.2175 H   0  0  0  0  0  0  0  0  0  0  0  0
  1  4  1  0
  3  2  1  0
  4  3  1  0
  4  2  1  0
  5  6  2  0
  6  2  1  0
  6  7  1  0
  8  7  2  0
  9  8  1  0
 10  5  1  0
 10  9  2  0
 11 12  2  0
 11  1  1  0
 13 12  1  0
 14 15  2  0
 14 13  1  0
 15 11  1  0
 16 14  1  0
 17 16  2  0
 18 17  1  0
 19 20  1  0
 19 18  2  0
 20 21  2  0
 21 16  1  0
 22 26  1  0
 22 20  1  0
 23 22  2  0
 24 23  1  0
 24 25  1  0
 25 26  2  0
 27  1  1  0
  1 28  1  1
  2 29  1  1
  3 30  1  0
  3 31  1  0
  4 32  1  1
  5 33  1  0
  7 34  1  0
  9 35  1  0
 12 36  1  0
 17 37  1  0
 18 38  1  0
 23 39  1  0
 25 40  1  0
 27 41  1  0
M  ISO  8  28   8  29  13  30  13  31  13  32  13  33  14  34  14  35  14
M  ISO  6  36  14  37  14  38  14  39  14  40  14  41   3
M  END
>  <minimizedAffinity>  (1) 
-5.44853497

>  <minimizedRMSD>  (1) 
0.816974401

$$$$
