
     RDKit          3D

 28 30  0  0  0  0  0  0  0  0999 V2000
   40.2700   22.0860   36.6760 C   0  0  0  0  0  0  0  0  0  0  0  0
   39.6990   22.8010   37.7260 C   0  0  0  0  0  0  0  0  0  0  0  0
   38.5910   23.5760   37.4360 C   0  0  0  0  0  0  0  0  0  0  0  0
   38.1620   23.5720   36.1580 N   0  0  0  0  0  0  0  0  0  0  0  0
   38.7000   22.8890   35.1360 C   0  0  0  0  0  0  0  0  0  0  0  0
   39.7550   22.1610   35.4530 N   0  0  0  0  0  0  0  0  0  0  0  0
   37.8500   24.3860   38.3540 N   0  0  0  0  0  0  0  0  0  0  0  0
   37.9990   23.0970   33.8710 C   0  0  0  0  0  0  0  0  0  0  0  0
   38.2860   24.1720   33.0240 C   0  0  0  0  0  0  0  0  0  0  0  0
   37.6390   24.3830   31.8340 C   0  0  0  0  0  0  0  0  0  0  0  0
   36.6520   23.5270   31.4050 C   0  0  0  0  0  0  0  0  0  0  0  0
   36.3320   22.4540   32.2000 C   0  0  0  0  0  0  0  0  0  0  0  0
   35.3410   21.6090   31.7520 C   0  0  0  0  0  0  0  0  0  0  0  0
   34.9670   20.5130   32.4970 C   0  0  0  0  0  0  0  0  0  0  0  0
   35.6340   20.3100   33.7080 C   0  0  0  0  0  0  0  0  0  0  0  0
   36.6160   21.1880   34.1040 C   0  0  0  0  0  0  0  0  0  0  0  0
   37.0060   22.2860   33.3800 C   0  0  0  0  0  0  0  0  0  0  0  0
   41.1524   21.4555   36.8600 H   0  0  0  0  0  0  0  0  0  0  0  0
   40.1124   22.7513   38.7442 H   0  0  0  0  0  0  0  0  0  0  0  0
   37.0362   24.9247   38.0246 H   0  0  0  0  0  0  0  0  0  0  0  0
   38.1304   24.4303   39.3441 H   0  0  0  0  0  0  0  0  0  0  0  0
   39.0688   24.8827   33.3273 H   0  0  0  0  0  0  0  0  0  0  0  0
   37.9132   25.2491   31.2137 H   0  0  0  0  0  0  0  0  0  0  0  0
   36.1326   23.6972   30.4504 H   0  0  0  0  0  0  0  0  0  0  0  0
   34.8444   21.8112   30.7915 H   0  0  0  0  0  0  0  0  0  0  0  0
   34.1780   19.8275   32.1540 H   0  0  0  0  0  0  0  0  0  0  0  0
   35.3744   19.4502   34.3431 H   0  0  0  0  0  0  0  0  0  0  0  0
   37.1209   20.9975   35.0625 H   0  0  0  0  0  0  0  0  0  0  0  0
  1  2  2  0
  3  2  1  0
  3  7  1  0
  4  3  2  0
  5  6  2  0
  5  4  1  0
  6  1  1  0
  8  5  1  0
  9  8  2  0
 10  9  1  0
 11 10  2  0
 11 12  1  0
 12 17  2  0
 13 12  1  0
 13 14  2  0
 14 15  1  0
 15 16  2  0
 17  8  1  0
 17 16  1  0
  1 18  1  0
  2 19  1  0
  7 20  1  0
  7 21  1  0
  9 22  1  0
 10 23  1  0
 11 24  1  0
 13 25  1  0
 14 26  1  0
 15 27  1  0
 16 28  1  0
M  ISO  8  18  14  19  14  22  14  23  14  24  14  25  14  26  14  27  14
M  ISO  1  28  14
M  END
>  <minimizedAffinity>  (1) 
-5.16103506

>  <minimizedRMSD>  (1) 
1.4428426

$$$$
