
     RDKit          3D

 22 23  0  0  0  0  0  0  0  0999 V2000
   41.1740   23.0280   36.3090 C   0  0  0  0  0  0  0  0  0  0  0  0
   40.5340   22.5290   37.4510 C   0  0  0  0  0  0  0  0  0  0  0  0
   39.2770   23.0490   37.7600 C   0  0  0  0  0  0  0  0  0  0  0  0
   38.7300   24.0090   36.9470 N   0  0  0  0  0  0  0  0  0  0  0  0
   39.3930   24.4590   35.8490 C   0  0  0  0  0  0  0  0  0  0  0  0
   40.6080   23.9660   35.5410 N   0  0  0  0  0  0  0  0  0  0  0  0
   38.4780   22.6720   38.8680 N   0  0  0  0  0  0  0  0  0  0  0  0
   38.7560   25.4810   35.0240 C   0  0  0  0  0  0  0  0  0  0  0  0
   39.3060   25.8110   33.8000 C   0  0  0  0  0  0  0  0  0  0  0  0
   38.6550   26.7840   33.0720 C   0  0  0  0  0  0  0  0  0  0  0  0
   37.5010   27.4470   33.4810 C   0  0  0  0  0  0  0  0  0  0  0  0
   37.0440   27.0390   34.7140 C   0  0  0  0  0  0  0  0  0  0  0  0
   37.6140   26.0790   35.5230 C   0  0  0  0  0  0  0  0  0  0  0  0
   42.1663   22.6390   36.0371 H   0  0  0  0  0  0  0  0  0  0  0  0
   41.0040   21.7578   38.0790 H   0  0  0  0  0  0  0  0  0  0  0  0
   37.5592   23.1138   39.0144 H   0  0  0  0  0  0  0  0  0  0  0  0
   38.8161   21.9562   39.5269 H   0  0  0  0  0  0  0  0  0  0  0  0
   40.2173   25.3220   33.4254 H   0  0  0  0  0  0  0  0  0  0  0  0
   39.0792   27.0571   32.0945 H   0  0  0  0  0  0  0  0  0  0  0  0
   37.0032   28.2208   32.8782 H   0  0  0  0  0  0  0  0  0  0  0  0
   36.1335   27.5276   35.0912 H   0  0  0  0  0  0  0  0  0  0  0  0
   37.1884   25.8071   36.5002 H   0  0  0  0  0  0  0  0  0  0  0  0
  1  2  2  0
  2  3  1  0
  3  7  1  0
  4  3  2  0
  5  4  1  0
  6  5  2  0
  6  1  1  0
  8 13  1  0
  8  5  1  0
  9  8  2  0
 10 11  2  0
 10  9  1  0
 11 12  1  0
 12 13  2  0
  1 14  1  0
  2 15  1  0
  7 16  1  0
  7 17  1  0
  9 18  1  0
 10 19  1  0
 11 20  1  0
 12 21  1  0
 13 22  1  0
M  ISO  7  14  14  15  14  18  14  19  14  20  14  21  14  22  14
M  END
>  <minimizedAffinity>  (1) 
-4.40474176

>  <minimizedRMSD>  (1) 
3.3749516

$$$$
