
     RDKit          3D

 20 21  0  0  0  0  0  0  0  0999 V2000
   40.9210   23.1090   36.1870 C   0  0  0  0  0  0  0  0  0  0  0  0
   40.4270   22.5610   37.3710 C   0  0  0  0  0  0  0  0  0  0  0  0
   39.2060   23.0600   37.8380 C   0  0  0  0  0  0  0  0  0  0  0  0
   38.5670   24.0380   37.1300 N   0  0  0  0  0  0  0  0  0  0  0  0
   39.0950   24.5360   35.9820 C   0  0  0  0  0  0  0  0  0  0  0  0
   40.2700   24.0680   35.5170 N   0  0  0  0  0  0  0  0  0  0  0  0
   38.5420   22.6300   39.0230 N   0  0  0  0  0  0  0  0  0  0  0  0
   38.3520   25.5830   35.2800 C   0  0  0  0  0  0  0  0  0  0  0  0
   38.2380   26.8240   35.8700 C   0  0  0  0  0  0  0  0  0  0  0  0
   37.5190   27.7370   35.1260 C   0  0  0  0  0  0  0  0  0  0  0  0
   36.9740   27.4360   33.9170 N   0  0  0  0  0  0  0  0  0  0  0  0
   37.1240   26.1890   33.3890 C   0  0  0  0  0  0  0  0  0  0  0  0
   37.8160   25.2800   34.0860 N   0  0  0  0  0  0  0  0  0  0  0  0
   41.8785   22.7404   35.7902 H   0  0  0  0  0  0  0  0  0  0  0  0
   40.9719   21.7734   37.9122 H   0  0  0  0  0  0  0  0  0  0  0  0
   37.6427   23.0539   39.2921 H   0  0  0  0  0  0  0  0  0  0  0  0
   38.9613   21.8952   39.6105 H   0  0  0  0  0  0  0  0  0  0  0  0
   38.6811   27.0650   36.8475 H   0  0  0  0  0  0  0  0  0  0  0  0
   37.3808   28.7515   35.5280 H   0  0  0  0  0  0  0  0  0  0  0  0
   36.6864   25.9352   32.4122 H   0  0  0  0  0  0  0  0  0  0  0  0
  1  2  2  0
  2  3  1  0
  3  7  1  0
  4  3  2  0
  5  4  1  0
  6  5  2  0
  6  1  1  0
  8  9  2  0
  8  5  1  0
 10  9  1  0
 11 10  2  0
 12 11  1  0
 12 13  2  0
 13  8  1  0
  1 14  1  0
  2 15  1  0
  7 16  1  0
  7 17  1  0
  9 18  1  0
 10 19  1  0
 12 20  1  0
M  ISO  5  14  14  15  14  18  14  19  14  20  14
M  END
>  <minimizedAffinity>  (1) 
-4.37192822

>  <minimizedRMSD>  (1) 
3.50102401

$$$$
