
     RDKit          3D

 24 24  0  0  0  0  0  0  0  0999 V2000
   41.1900   22.9110   36.3630 C   0  0  0  0  0  0  0  0  0  0  0  0
   40.4800   22.4410   37.4830 C   0  0  0  0  0  0  0  0  0  0  0  0
   39.2560   23.0350   37.7550 C   0  0  0  0  0  0  0  0  0  0  0  0
   38.7910   24.0410   36.9390 N   0  0  0  0  0  0  0  0  0  0  0  0
   39.5120   24.4580   35.8730 C   0  0  0  0  0  0  0  0  0  0  0  0
   40.7010   23.8930   35.5960 N   0  0  0  0  0  0  0  0  0  0  0  0
   38.4030   22.6860   38.8450 N   0  0  0  0  0  0  0  0  0  0  0  0
   38.9870   25.5390   35.0170 C   0  0  0  0  0  0  0  0  0  0  0  0
   37.5870   25.9240   35.4800 C   0  0  0  0  0  0  0  0  0  0  0  0
   38.7950   24.9420   33.6350 C   0  0  0  0  0  0  0  0  0  0  0  0
   39.8810   26.7370   34.9090 C   0  0  0  0  0  0  0  0  0  0  0  0
   42.1635   22.4639   36.1134 H   0  0  0  0  0  0  0  0  0  0  0  0
   40.8790   21.6355   38.1171 H   0  0  0  0  0  0  0  0  0  0  0  0
   37.5076   23.1779   38.9762 H   0  0  0  0  0  0  0  0  0  0  0  0
   38.6829   21.9422   39.5003 H   0  0  0  0  0  0  0  0  0  0  0  0
   37.5540   25.9331   36.5795 H   0  0  0  0  0  0  0  0  0  0  0  0
   37.3364   26.9244   35.0974 H   0  0  0  0  0  0  0  0  0  0  0  0
   36.8601   25.1924   35.0974 H   0  0  0  0  0  0  0  0  0  0  0  0
   38.4595   23.8987   33.7297 H   0  0  0  0  0  0  0  0  0  0  0  0
   38.0382   25.5223   33.0868 H   0  0  0  0  0  0  0  0  0  0  0  0
   39.7482   24.9723   33.0868 H   0  0  0  0  0  0  0  0  0  0  0  0
   40.1444   27.0900   35.9170 H   0  0  0  0  0  0  0  0  0  0  0  0
   40.7972   26.4630   34.3654 H   0  0  0  0  0  0  0  0  0  0  0  0
   39.3576   27.5373   34.3654 H   0  0  0  0  0  0  0  0  0  0  0  0
  1  2  2  0
  2  3  1  0
  3  7  1  0
  4  3  2  0
  5  4  1  0
  6  5  2  0
  6  1  1  0
  8  9  1  0
  8  5  1  0
 10  8  1  0
 11  8  1  0
  1 12  1  0
  2 13  1  0
  7 14  1  0
  7 15  1  0
  9 16  1  0
  9 17  1  0
  9 18  1  0
 10 19  1  0
 10 20  1  0
 10 21  1  0
 11 22  1  0
 11 23  1  0
 11 24  1  0
M  ISO  8  12  14  13  14  16   8  17   8  18   8  19   8  20   8  21   8
M  ISO  3  22   8  23   8  24   8
M  END
>  <minimizedAffinity>  (1) 
-3.83660412

>  <minimizedRMSD>  (1) 
2.82633352

$$$$
