
     RDKit          3D

 17 18  0  0  0  0  0  0  0  0999 V2000
   40.2230   22.3380   36.9060 C   0  0  0  0  0  0  0  0  0  0  0  0
   39.7990   23.2170   37.9120 C   0  0  0  0  0  0  0  0  0  0  0  0
   38.4480   23.5590   37.9380 C   0  0  0  0  0  0  0  0  0  0  0  0
   37.6090   23.0300   36.9980 N   0  0  0  0  0  0  0  0  0  0  0  0
   38.0630   22.1850   36.0440 C   0  0  0  0  0  0  0  0  0  0  0  0
   39.3480   21.8450   35.9990 N   0  0  0  0  0  0  0  0  0  0  0  0
   37.8270   24.4300   38.8740 N   0  0  0  0  0  0  0  0  0  0  0  0
   37.1100   21.6590   35.0720 C   0  0  0  0  0  0  0  0  0  0  0  0
   35.9980   20.9440   35.3110 N   0  0  0  0  0  0  0  0  0  0  0  0
   35.4060   20.6560   34.1800 O   0  0  0  0  0  0  0  0  0  0  0  0
   36.1050   21.1680   33.1840 C   0  0  0  0  0  0  0  0  0  0  0  0
   37.1610   21.7880   33.7340 N   0  0  0  0  0  0  0  0  0  0  0  0
   41.2819   22.0448   36.8530 H   0  0  0  0  0  0  0  0  0  0  0  0
   40.5050   23.6213   38.6523 H   0  0  0  0  0  0  0  0  0  0  0  0
   36.8168   24.6203   38.8088 H   0  0  0  0  0  0  0  0  0  0  0  0
   38.3872   24.8708   39.6175 H   0  0  0  0  0  0  0  0  0  0  0  0
   35.8682   21.0998   32.1120 H   0  0  0  0  0  0  0  0  0  0  0  0
  1  2  2  0
  2  3  1  0
  3  7  1  0
  4  3  2  0
  5  4  1  0
  6  5  2  0
  6  1  1  0
  8  9  2  0
  8  5  1  0
 10  9  1  0
 11 12  2  0
 11 10  1  0
 12  8  1  0
  1 13  1  0
  2 14  1  0
  7 15  1  0
  7 16  1  0
 11 17  1  0
M  ISO  3  13  14  14  14  17  14
M  END
>  <minimizedAffinity>  (1) 
-3.63885903

>  <minimizedRMSD>  (1) 
0.934833407

$$$$
