
     RDKit          3D

 15 15  0  0  0  0  0  0  0  0999 V2000
   40.3980   22.1790   37.0340 C   0  0  0  0  0  0  0  0  0  0  0  0
   39.8360   22.9890   38.0430 C   0  0  0  0  0  0  0  0  0  0  0  0
   38.5570   23.4780   37.8290 C   0  0  0  0  0  0  0  0  0  0  0  0
   37.8920   23.1640   36.6640 N   0  0  0  0  0  0  0  0  0  0  0  0
   38.4820   22.3820   35.7300 C   0  0  0  0  0  0  0  0  0  0  0  0
   39.7100   21.8980   35.9120 N   0  0  0  0  0  0  0  0  0  0  0  0
   37.8230   24.3040   38.7160 N   0  0  0  0  0  0  0  0  0  0  0  0
   37.6910   22.1010   34.5170 C   0  0  0  0  0  0  0  0  0  0  0  0
   38.0590   22.6400   33.4440 O   0  0  0  0  0  0  0  0  0  0  0  0
   36.5880   21.2940   34.4860 O   0  0  0  0  0  0  0  0  0  0  0  0
   41.4114   21.7719   37.1660 H   0  0  0  0  0  0  0  0  0  0  0  0
   40.3910   23.2233   38.9634 H   0  0  0  0  0  0  0  0  0  0  0  0
   36.8744   24.6159   38.4633 H   0  0  0  0  0  0  0  0  0  0  0  0
   38.2380   24.5925   39.6135 H   0  0  0  0  0  0  0  0  0  0  0  0
   36.1042   21.1495   33.6345 H   0  0  0  0  0  0  0  0  0  0  0  0
  1  2  2  0
  3  2  1  0
  3  7  1  0
  4  3  2  0
  5  6  2  0
  5  4  1  0
  6  1  1  0
  8  5  1  0
  9  8  2  0
 10  8  1  0
  1 11  1  0
  2 12  1  0
  7 13  1  0
  7 14  1  0
 10 15  1  0
M  ISO  3  11  14  12  14  15   3
M  END
>  <minimizedAffinity>  (1) 
-3.13320637

>  <minimizedRMSD>  (1) 
0.618834555

$$$$
