
     RDKit          3D

 23 24  0  0  0  0  0  0  0  0999 V2000
   37.7700   24.6940   37.3560 C   0  0  0  0  0  0  0  0  0  0  0  0
   38.3460   24.3900   36.1120 C   0  0  0  0  0  0  0  0  0  0  0  0
   39.3480   23.4120   36.0810 C   0  0  0  0  0  0  0  0  0  0  0  0
   39.6950   22.8240   37.2560 N   0  0  0  0  0  0  0  0  0  0  0  0
   39.1170   23.1430   38.4350 C   0  0  0  0  0  0  0  0  0  0  0  0
   38.1580   24.0760   38.4760 N   0  0  0  0  0  0  0  0  0  0  0  0
   37.9180   25.0590   34.9300 N   0  0  0  0  0  0  0  0  0  0  0  0
   37.4140   26.4030   35.0870 C   0  0  0  0  0  0  0  0  0  0  0  0
   37.0290   27.0410   33.7940 C   0  0  0  0  0  0  0  0  0  0  0  0
   37.8200   26.5420   32.7580 O   0  0  0  0  0  0  0  0  0  0  0  0
   37.4050   25.2020   32.5810 C   0  0  0  0  0  0  0  0  0  0  0  0
   38.0150   24.3600   33.6810 C   0  0  0  0  0  0  0  0  0  0  0  0
   36.9810   25.4586   37.4101 H   0  0  0  0  0  0  0  0  0  0  0  0
   39.8376   23.1293   35.1374 H   0  0  0  0  0  0  0  0  0  0  0  0
   39.4338   22.6371   39.3590 H   0  0  0  0  0  0  0  0  0  0  0  0
   36.5281   26.3704   35.7382 H   0  0  0  0  0  0  0  0  0  0  0  0
   38.2240   27.0073   35.5214 H   0  0  0  0  0  0  0  0  0  0  0  0
   35.9719   26.8234   33.5816 H   0  0  0  0  0  0  0  0  0  0  0  0
   37.1798   28.1280   33.8702 H   0  0  0  0  0  0  0  0  0  0  0  0
   36.3079   25.1434   32.6342 H   0  0  0  0  0  0  0  0  0  0  0  0
   37.7334   24.8328   31.5982 H   0  0  0  0  0  0  0  0  0  0  0  0
   37.4750   23.4044   33.7531 H   0  0  0  0  0  0  0  0  0  0  0  0
   39.0732   24.1676   33.4505 H   0  0  0  0  0  0  0  0  0  0  0  0
  1  6  2  0
  2  1  1  0
  3  2  2  0
  3  4  1  0
  4  5  2  0
  5  6  1  0
  7  8  1  0
  7  2  1  0
  9  8  1  0
 10  9  1  0
 11 10  1  0
 11 12  1  0
 12  7  1  0
  1 13  1  0
  3 14  1  0
  5 15  1  0
  8 16  1  0
  8 17  1  0
  9 18  1  0
  9 19  1  0
 11 20  1  0
 11 21  1  0
 12 22  1  0
 12 23  1  0
M  ISO  8  13  14  14  14  15  14  16  13  17  13  18  13  19  13  20  13
M  ISO  3  21  13  22  13  23  13
M  END
>  <minimizedAffinity>  (1) 
-3.34941626

>  <minimizedRMSD>  (1) 
5.87033176

$$$$
