
     RDKit          3D

 14 14  0  0  0  0  0  0  0  0999 V2000
   40.4030   22.1850   37.0520 C   0  0  0  0  0  0  0  0  0  0  0  0
   39.8270   22.9920   38.0380 C   0  0  0  0  0  0  0  0  0  0  0  0
   38.5450   23.4770   37.8270 C   0  0  0  0  0  0  0  0  0  0  0  0
   37.8950   23.1490   36.6670 N   0  0  0  0  0  0  0  0  0  0  0  0
   38.4900   22.3550   35.7210 C   0  0  0  0  0  0  0  0  0  0  0  0
   39.7240   21.8850   35.9190 N   0  0  0  0  0  0  0  0  0  0  0  0
   37.8110   24.3030   38.7110 N   0  0  0  0  0  0  0  0  0  0  0  0
   37.7060   22.0800   34.5450 N   0  0  0  0  0  0  0  0  0  0  0  0
   41.4189   21.7893   37.1981 H   0  0  0  0  0  0  0  0  0  0  0  0
   40.3773   23.2362   38.9586 H   0  0  0  0  0  0  0  0  0  0  0  0
   36.8608   24.6104   38.4592 H   0  0  0  0  0  0  0  0  0  0  0  0
   38.2270   24.5968   39.6063 H   0  0  0  0  0  0  0  0  0  0  0  0
   36.7587   22.4740   34.4538 H   0  0  0  0  0  0  0  0  0  0  0  0
   38.0925   21.4893   33.7949 H   0  0  0  0  0  0  0  0  0  0  0  0
  1  2  2  0
  3  2  1  0
  3  7  1  0
  4  3  2  0
  5  6  2  0
  5  4  1  0
  6  1  1  0
  8  5  1  0
  1  9  1  0
  2 10  1  0
  7 11  1  0
  7 12  1  0
  8 13  1  0
  8 14  1  0
M  ISO  2   9  14  10  14
M  END
>  <minimizedAffinity>  (1) 
-2.88126636

>  <minimizedRMSD>  (1) 
0.470953673

$$$$
