
     RDKit          3D

 24 26  0  0  0  0  0  0  0  0999 V2000
   39.8400   23.1910   35.5960 C   0  0  0  0  0  0  0  0  0  0  0  0
   38.9600   23.3510   36.6600 C   0  0  0  0  0  0  0  0  0  0  0  0
   37.7340   22.7870   36.2720 C   0  0  0  0  0  0  0  0  0  0  0  0
   37.9320   22.3180   34.9990 N   0  0  0  0  0  0  0  0  0  0  0  0
   39.1710   22.5550   34.6010 N   0  0  0  0  0  0  0  0  0  0  0  0
   36.9530   21.6640   34.2010 C   0  0  0  0  0  0  0  0  0  0  0  0
   36.0640   20.8020   34.7690 N   0  0  0  0  0  0  0  0  0  0  0  0
   35.2680   20.3260   33.8600 O   0  0  0  0  0  0  0  0  0  0  0  0
   35.5840   20.8290   32.6990 C   0  0  0  0  0  0  0  0  0  0  0  0
   36.6230   21.6580   32.8960 N   0  0  0  0  0  0  0  0  0  0  0  0
   43.4080   23.5050   36.5060 C   0  0  0  0  0  0  0  0  0  0  0  0
   43.7690   24.7010   35.9000 C   0  0  0  0  0  0  0  0  0  0  0  0
   42.7730   25.3970   35.1770 C   0  0  0  0  0  0  0  0  0  0  0  0
   41.5300   24.8660   35.1130 N   0  0  0  0  0  0  0  0  0  0  0  0
   41.2080   23.6890   35.7190 C   0  0  0  0  0  0  0  0  0  0  0  0
   42.1590   23.0330   36.4040 N   0  0  0  0  0  0  0  0  0  0  0  0
   42.9520   26.6300   34.4950 N   0  0  0  0  0  0  0  0  0  0  0  0
   39.1823   23.8297   37.6251 H   0  0  0  0  0  0  0  0  0  0  0  0
   36.8090   22.7328   36.8649 H   0  0  0  0  0  0  0  0  0  0  0  0
   35.0922   20.6148   31.7386 H   0  0  0  0  0  0  0  0  0  0  0  0
   44.1577   22.9379   37.0773 H   0  0  0  0  0  0  0  0  0  0  0  0
   44.7936   25.0932   35.9796 H   0  0  0  0  0  0  0  0  0  0  0  0
   42.1619   27.0608   33.9940 H   0  0  0  0  0  0  0  0  0  0  0  0
   43.8719   27.0933   34.5015 H   0  0  0  0  0  0  0  0  0  0  0  0
  1 15  1  0
  1  2  1  0
  3  2  2  0
  4  3  1  0
  5  4  1  0
  5  1  2  0
  6  7  2  0
  6  4  1  0
  8  7  1  0
  9 10  2  0
  9  8  1  0
 10  6  1  0
 12 11  2  0
 13 12  1  0
 14 13  2  0
 14 15  1  0
 15 16  2  0
 16 11  1  0
 17 13  1  0
  2 18  1  0
  3 19  1  0
  9 20  1  0
 11 21  1  0
 12 22  1  0
 17 23  1  0
 17 24  1  0
M  ISO  5  18  14  19  14  20  14  21  14  22  14
M  END
>  <minimizedAffinity>  (1) 
-4.34112883

>  <minimizedRMSD>  (1) 
5.1518693

$$$$
