
     RDKit          3D

 26 28  0  0  0  0  0  0  0  0999 V2000
   39.0100   24.7070   34.3390 C   0  0  0  0  0  0  0  0  0  0  0  0
   38.3060   23.9260   33.4560 C   0  0  0  0  0  0  0  0  0  0  0  0
   37.3370   24.7530   32.8570 C   0  0  0  0  0  0  0  0  0  0  0  0
   37.5000   25.9840   33.4020 N   0  0  0  0  0  0  0  0  0  0  0  0
   38.4970   25.9760   34.2910 N   0  0  0  0  0  0  0  0  0  0  0  0
   42.4020   23.9680   35.6020 C   0  0  0  0  0  0  0  0  0  0  0  0
   42.1540   23.0720   36.6430 C   0  0  0  0  0  0  0  0  0  0  0  0
   40.8230   22.7350   36.8970 C   0  0  0  0  0  0  0  0  0  0  0  0
   39.8440   23.2830   36.1330 N   0  0  0  0  0  0  0  0  0  0  0  0
   40.1040   24.1440   35.1350 C   0  0  0  0  0  0  0  0  0  0  0  0
   41.3950   24.4790   34.8790 N   0  0  0  0  0  0  0  0  0  0  0  0
   40.3680   21.8420   37.9110 N   0  0  0  0  0  0  0  0  0  0  0  0
   36.7130   27.1220   33.0680 C   0  0  0  0  0  0  0  0  0  0  0  0
   36.0570   27.3590   31.8920 C   0  0  0  0  0  0  0  0  0  0  0  0
   35.4270   28.5510   31.9800 N   0  0  0  0  0  0  0  0  0  0  0  0
   35.6920   29.0420   33.1960 C   0  0  0  0  0  0  0  0  0  0  0  0
   36.4710   28.1840   33.8650 N   0  0  0  0  0  0  0  0  0  0  0  0
   38.4684   22.8568   33.2548 H   0  0  0  0  0  0  0  0  0  0  0  0
   36.5961   24.4595   32.0988 H   0  0  0  0  0  0  0  0  0  0  0  0
   43.4375   24.2589   35.3716 H   0  0  0  0  0  0  0  0  0  0  0  0
   42.9749   22.6480   37.2399 H   0  0  0  0  0  0  0  0  0  0  0  0
   39.3607   21.6568   38.0200 H   0  0  0  0  0  0  0  0  0  0  0  0
   41.0466   21.3821   38.5346 H   0  0  0  0  0  0  0  0  0  0  0  0
   36.0443   26.6900   31.0189 H   0  0  0  0  0  0  0  0  0  0  0  0
   35.3258   30.0032   33.5859 H   0  0  0  0  0  0  0  0  0  0  0  0
   36.8252   28.3121   34.8237 H   0  0  0  0  0  0  0  0  0  0  0  0
  1 10  1  0
  2  1  1  0
  3  4  1  0
  3  2  2  0
  4  5  1  0
  5  1  2  0
  6  7  2  0
  7  8  1  0
  8 12  1  0
  9  8  2  0
 10  9  1  0
 11 10  2  0
 11  6  1  0
 13  4  1  0
 13 17  1  0
 14 15  1  0
 14 13  2  0
 15 16  2  0
 16 17  1  0
  2 18  1  0
  3 19  1  0
  6 20  1  0
  7 21  1  0
 12 22  1  0
 12 23  1  0
 14 24  1  0
 16 25  1  0
 17 26  1  0
M  ISO  7  18  14  19  14  20  14  21  14  24  14  25  14  26   9
M  END
>  <minimizedAffinity>  (1) 
-4.25943613

>  <minimizedRMSD>  (1) 
5.38885927

$$$$
