
     RDKit          3D

 22 22  0  0  0  0  0  0  0  0999 V2000
   38.3510   24.1230   34.4050 C   0  0  0  0  0  0  0  0  0  0  0  0
   38.3960   25.1510   35.3740 C   0  0  0  0  0  0  0  0  0  0  0  0
   38.0990   24.8090   36.6930 C   0  0  0  0  0  0  0  0  0  0  0  0
   37.7840   23.5200   36.9830 N   0  0  0  0  0  0  0  0  0  0  0  0
   37.7500   22.5570   36.0210 C   0  0  0  0  0  0  0  0  0  0  0  0
   38.0310   22.8540   34.7460 N   0  0  0  0  0  0  0  0  0  0  0  0
   38.7600   26.5160   34.8990 C   0  0  0  0  0  0  0  0  0  0  0  0
   38.2490   26.7000   33.4900 C   0  0  0  0  0  0  0  0  0  0  0  0
   40.2680   26.6460   34.9300 C   0  0  0  0  0  0  0  0  0  0  0  0
   38.1840   27.5420   35.8380 C   0  0  0  0  0  0  0  0  0  0  0  0
   38.5802   24.3592   33.3554 H   0  0  0  0  0  0  0  0  0  0  0  0
   38.1195   25.5711   37.4860 H   0  0  0  0  0  0  0  0  0  0  0  0
   37.4889   21.5240   36.2942 H   0  0  0  0  0  0  0  0  0  0  0  0
   37.2145   27.0725   33.5209 H   0  0  0  0  0  0  0  0  0  0  0  0
   38.8844   27.4258   32.9614 H   0  0  0  0  0  0  0  0  0  0  0  0
   38.2759   25.7357   32.9614 H   0  0  0  0  0  0  0  0  0  0  0  0
   40.6121   26.6757   35.9744 H   0  0  0  0  0  0  0  0  0  0  0  0
   40.7210   25.7836   34.4191 H   0  0  0  0  0  0  0  0  0  0  0  0
   40.5667   27.5732   34.4191 H   0  0  0  0  0  0  0  0  0  0  0  0
   38.3604   27.2278   36.8773 H   0  0  0  0  0  0  0  0  0  0  0  0
   38.6685   28.5136   35.6614 H   0  0  0  0  0  0  0  0  0  0  0  0
   37.1022   27.6343   35.6614 H   0  0  0  0  0  0  0  0  0  0  0  0
  1  6  2  0
  1  2  1  0
  2  3  2  0
  3  4  1  0
  5  4  2  0
  6  5  1  0
  7  9  1  0
  7  2  1  0
  7 10  1  0
  8  7  1  0
  1 11  1  0
  3 12  1  0
  5 13  1  0
  8 14  1  0
  8 15  1  0
  8 16  1  0
  9 17  1  0
  9 18  1  0
  9 19  1  0
 10 20  1  0
 10 21  1  0
 10 22  1  0
M  ISO  8  11  14  12  14  13  14  14   8  15   8  16   8  17   8  18   8
M  ISO  4  19   8  20   8  21   8  22   8
M  END
>  <minimizedAffinity>  (1) 
-3.3424921

>  <minimizedRMSD>  (1) 
4.47863436

$$$$
