
     RDKit          3D

 36 39  0  0  0  0  0  0  0  0999 V2000
   40.6730   22.1100   34.3410 C   0  0  0  0  0  0  0  0  0  0  0  0
   41.1770   22.8000   33.2500 C   0  0  0  0  0  0  0  0  0  0  0  0
   40.0480   23.3410   32.5760 C   0  0  0  0  0  0  0  0  0  0  0  0
   38.9550   22.9650   33.2740 N   0  0  0  0  0  0  0  0  0  0  0  0
   39.3400   22.2490   34.2970 N   0  0  0  0  0  0  0  0  0  0  0  0
   42.2970   20.8570   37.4050 C   0  0  0  0  0  0  0  0  0  0  0  0
   43.3590   20.1280   36.8980 C   0  0  0  0  0  0  0  0  0  0  0  0
   43.5170   20.0670   35.4890 C   0  0  0  0  0  0  0  0  0  0  0  0
   42.6280   20.7210   34.6860 N   0  0  0  0  0  0  0  0  0  0  0  0
   41.5930   21.4310   35.2440 C   0  0  0  0  0  0  0  0  0  0  0  0
   41.4450   21.4860   36.5830 N   0  0  0  0  0  0  0  0  0  0  0  0
   44.5400   19.3730   34.8360 N   0  0  0  0  0  0  0  0  0  0  0  0
   37.5790   23.2910   32.9290 C   0  0  0  0  0  0  0  0  0  0  0  0
   37.3170   24.7280   32.9140 C   0  0  0  0  0  0  0  0  0  0  0  0
   36.8000   25.2550   31.7730 N   0  0  0  0  0  0  0  0  0  0  0  0
   36.5410   26.5630   31.6150 C   0  0  0  0  0  0  0  0  0  0  0  0
   36.7970   27.4390   32.6270 N   0  0  0  0  0  0  0  0  0  0  0  0
   37.3110   27.0100   33.8000 C   0  0  0  0  0  0  0  0  0  0  0  0
   37.5690   27.8620   34.8460 C   0  0  0  0  0  0  0  0  0  0  0  0
   38.0840   27.3550   36.0290 C   0  0  0  0  0  0  0  0  0  0  0  0
   38.3340   26.0030   36.1490 C   0  0  0  0  0  0  0  0  0  0  0  0
   38.0610   25.1820   35.0790 C   0  0  0  0  0  0  0  0  0  0  0  0
   37.5500   25.6590   33.8940 C   0  0  0  0  0  0  0  0  0  0  0  0
   42.2338   22.9072   32.9641 H   0  0  0  0  0  0  0  0  0  0  0  0
   40.0623   23.9500   31.6601 H   0  0  0  0  0  0  0  0  0  0  0  0
   42.1507   20.9208   38.4934 H   0  0  0  0  0  0  0  0  0  0  0  0
   44.0608   19.6105   37.5685 H   0  0  0  0  0  0  0  0  0  0  0  0
   44.5886   19.3753   33.8072 H   0  0  0  0  0  0  0  0  0  0  0  0
   45.2451   18.8595   35.3838 H   0  0  0  0  0  0  0  0  0  0  0  0
   37.3632   22.8854   31.9296 H   0  0  0  0  0  0  0  0  0  0  0  0
   36.9334   22.8480   33.7016 H   0  0  0  0  0  0  0  0  0  0  0  0
   36.1211   26.9284   30.6662 H   0  0  0  0  0  0  0  0  0  0  0  0
   37.3684   28.9389   34.7457 H   0  0  0  0  0  0  0  0  0  0  0  0
   38.2933   28.0301   36.8719 H   0  0  0  0  0  0  0  0  0  0  0  0
   38.7437   25.5896   37.0824 H   0  0  0  0  0  0  0  0  0  0  0  0
   38.2587   24.1041   35.1746 H   0  0  0  0  0  0  0  0  0  0  0  0
  1 10  1  0
  2  1  1  0
  3  2  2  0
  3  4  1  0
  4  5  1  0
  5  1  2  0
  7  6  2  0
  8  7  1  0
  9 10  1  0
  9  8  2  0
 10 11  2  0
 11  6  1  0
 12  8  1  0
 13  4  1  0
 14 13  1  0
 14 23  1  0
 15 14  2  0
 16 15  1  0
 16 17  2  0
 17 18  1  0
 18 23  2  0
 18 19  1  0
 19 20  2  0
 20 21  1  0
 22 21  2  0
 23 22  1  0
  2 24  1  0
  3 25  1  0
  6 26  1  0
  7 27  1  0
 12 28  1  0
 12 29  1  0
 13 30  1  0
 13 31  1  0
 16 32  1  0
 19 33  1  0
 20 34  1  0
 21 35  1  0
 22 36  1  0
M  ISO  8  24  14  25  14  26  14  27  14  30   8  31   8  32  14  33  14
M  ISO  3  34  14  35  14  36  14
M  END
>  <minimizedAffinity>  (1) 
-4.28002691

>  <minimizedRMSD>  (1) 
5.25272846

$$$$
