
     RDKit          3D

 29 31  0  0  0  0  0  0  0  0999 V2000
   39.0620   24.7690   34.3230 C   0  0  0  0  0  0  0  0  0  0  0  0
   38.9520   24.1150   33.1080 C   0  0  0  0  0  0  0  0  0  0  0  0
   38.5030   25.0610   32.1640 C   0  0  0  0  0  0  0  0  0  0  0  0
   38.3700   26.2290   32.8650 N   0  0  0  0  0  0  0  0  0  0  0  0
   38.6980   26.0620   34.1340 N   0  0  0  0  0  0  0  0  0  0  0  0
   41.1930   22.8970   36.6870 C   0  0  0  0  0  0  0  0  0  0  0  0
   40.3230   22.6200   37.7300 C   0  0  0  0  0  0  0  0  0  0  0  0
   39.0050   23.0820   37.6130 C   0  0  0  0  0  0  0  0  0  0  0  0
   38.6380   23.7720   36.4960 N   0  0  0  0  0  0  0  0  0  0  0  0
   39.5110   24.0280   35.4910 C   0  0  0  0  0  0  0  0  0  0  0  0
   40.7690   23.5750   35.6260 N   0  0  0  0  0  0  0  0  0  0  0  0
   37.9790   22.8950   38.5760 N   0  0  0  0  0  0  0  0  0  0  0  0
   37.9270   27.5050   32.3080 C   0  0  0  0  0  0  0  0  0  0  0  0
   36.4770   27.7740   32.6100 C   0  0  0  0  0  0  0  0  0  0  0  0
   36.0560   29.2090   32.3290 C   0  0  0  0  0  0  0  0  0  0  0  0
   36.0720   28.6590   33.7320 C   0  0  0  0  0  0  0  0  0  0  0  0
   39.1736   23.0550   32.9150 H   0  0  0  0  0  0  0  0  0  0  0  0
   38.3028   24.8960   31.0950 H   0  0  0  0  0  0  0  0  0  0  0  0
   42.2371   22.5546   36.7379 H   0  0  0  0  0  0  0  0  0  0  0  0
   40.6545   22.0588   38.6161 H   0  0  0  0  0  0  0  0  0  0  0  0
   37.0360   23.2716   38.4035 H   0  0  0  0  0  0  0  0  0  0  0  0
   38.1776   22.3827   39.4472 H   0  0  0  0  0  0  0  0  0  0  0  0
   38.0655   27.4844   31.2169 H   0  0  0  0  0  0  0  0  0  0  0  0
   38.5259   28.3049   32.7678 H   0  0  0  0  0  0  0  0  0  0  0  0
   36.1671   26.7556   32.3329 H   0  0  0  0  0  0  0  0  0  0  0  0
   36.8030   29.9542   32.0181 H   0  0  0  0  0  0  0  0  0  0  0  0
   35.3090   29.6964   31.6852 H   0  0  0  0  0  0  0  0  0  0  0  0
   35.1237   28.4756   34.2583 H   0  0  0  0  0  0  0  0  0  0  0  0
   36.5414   28.9701   34.6769 H   0  0  0  0  0  0  0  0  0  0  0  0
  1 10  1  0
  2  1  1  0
  3  4  1  0
  3  2  2  0
  4  5  1  0
  5  1  2  0
  6  7  2  0
  8  7  1  0
  8 12  1  0
  9  8  2  0
 10 11  2  0
 10  9  1  0
 11  6  1  0
 13 14  1  0
 13  4  1  0
 14 16  1  0
 15 14  1  0
 15 16  1  0
  2 17  1  0
  3 18  1  0
  6 19  1  0
  7 20  1  0
 12 21  1  0
 12 22  1  0
 13 23  1  0
 13 24  1  0
 14 25  1  0
 15 26  1  0
 15 27  1  0
 16 28  1  0
 16 29  1  0
M  ISO  8  17  14  18  14  19  14  20  14  23   8  24   8  25  13  26  13
M  ISO  3  27  13  28  13  29  13
M  END
>  <minimizedAffinity>  (1) 
-4.08180523

>  <minimizedRMSD>  (1) 
5.68942642

$$$$
