
     RDKit          3D

 29 30  0  0  0  0  0  0  0  0999 V2000
   41.1110   22.5370   36.2260 C   0  0  0  0  0  0  0  0  0  0  0  0
   41.1910   23.6700   35.4040 C   0  0  0  0  0  0  0  0  0  0  0  0
   39.9350   24.3120   35.5210 C   0  0  0  0  0  0  0  0  0  0  0  0
   39.1920   23.5530   36.3800 N   0  0  0  0  0  0  0  0  0  0  0  0
   39.8910   22.5140   36.7890 N   0  0  0  0  0  0  0  0  0  0  0  0
   44.5300   21.1970   35.8160 C   0  0  0  0  0  0  0  0  0  0  0  0
   44.4550   19.9880   36.4760 C   0  0  0  0  0  0  0  0  0  0  0  0
   43.2210   19.6270   37.0670 C   0  0  0  0  0  0  0  0  0  0  0  0
   42.1500   20.4780   36.9710 N   0  0  0  0  0  0  0  0  0  0  0  0
   42.2880   21.6720   36.3000 C   0  0  0  0  0  0  0  0  0  0  0  0
   43.4740   21.9930   35.7440 N   0  0  0  0  0  0  0  0  0  0  0  0
   42.9880   18.4390   37.7660 N   0  0  0  0  0  0  0  0  0  0  0  0
   37.8190   23.8270   36.8040 C   0  0  0  0  0  0  0  0  0  0  0  0
   37.1040   22.6250   37.1500 N   0  0  0  0  0  0  0  0  0  0  0  0
   36.7650   21.7510   36.0770 C   0  0  0  0  0  0  0  0  0  0  0  0
   37.1330   21.8690   34.8420 N   0  0  0  0  0  0  0  0  0  0  0  0
   35.9360   20.6340   36.3950 N   0  0  0  0  0  0  0  0  0  0  0  0
   36.8580   21.2030   34.0920 H   0  0  0  0  0  0  0  0  0  0  0  0
   42.0493   23.9922   34.7961 H   0  0  0  0  0  0  0  0  0  0  0  0
   39.6196   25.2388   35.0194 H   0  0  0  0  0  0  0  0  0  0  0  0
   45.4759   21.5028   35.3450 H   0  0  0  0  0  0  0  0  0  0  0  0
   45.3293   19.3237   36.5410 H   0  0  0  0  0  0  0  0  0  0  0  0
   42.0580   18.2514   38.1671 H   0  0  0  0  0  0  0  0  0  0  0  0
   43.7463   17.7513   37.8799 H   0  0  0  0  0  0  0  0  0  0  0  0
   37.8453   24.4884   37.6826 H   0  0  0  0  0  0  0  0  0  0  0  0
   37.2942   24.3001   35.9609 H   0  0  0  0  0  0  0  0  0  0  0  0
   36.8505   22.4083   38.1245 H   0  0  0  0  0  0  0  0  0  0  0  0
   35.6606   19.9704   35.6570 H   0  0  0  0  0  0  0  0  0  0  0  0
   35.6130   20.4913   37.3626 H   0  0  0  0  0  0  0  0  0  0  0  0
  1 10  1  0
  1  5  2  0
  2  3  2  0
  2  1  1  0
  3  4  1  0
  4  5  1  0
  4 13  1  0
  6  7  2  0
  7  8  1  0
  8 12  1  0
  9  8  2  0
 10  9  1  0
 11  6  1  0
 11 10  2  0
 13 14  1  0
 15 17  1  0
 15 14  1  0
 16 15  2  0
 18 16  1  0
  2 19  1  0
  3 20  1  0
  6 21  1  0
  7 22  1  0
 12 23  1  0
 12 24  1  0
 13 25  1  0
 13 26  1  0
 14 27  1  0
 17 28  1  0
 17 29  1  0
M  ISO  6  19  14  20  14  21  14  22  14  25   8  26   8
M  END
>  <minimizedAffinity>  (1) 
-4.05678272

>  <minimizedRMSD>  (1) 
1.14841366

$$$$
