
     RDKit          3D

 23 24  0  0  0  0  0  0  0  0999 V2000
   41.6840   21.6580   36.7220 C   0  0  0  0  0  0  0  0  0  0  0  0
   41.0260   22.0460   35.5460 C   0  0  0  0  0  0  0  0  0  0  0  0
   39.8400   22.7020   35.9360 C   0  0  0  0  0  0  0  0  0  0  0  0
   39.8340   22.6800   37.3010 N   0  0  0  0  0  0  0  0  0  0  0  0
   40.9140   22.0700   37.7430 N   0  0  0  0  0  0  0  0  0  0  0  0
   45.1470   20.7860   35.8380 C   0  0  0  0  0  0  0  0  0  0  0  0
   45.2980   19.5370   36.4330 C   0  0  0  0  0  0  0  0  0  0  0  0
   44.1940   18.9950   37.1460 C   0  0  0  0  0  0  0  0  0  0  0  0
   43.0440   19.7250   37.2100 N   0  0  0  0  0  0  0  0  0  0  0  0
   42.9440   20.9550   36.6030 C   0  0  0  0  0  0  0  0  0  0  0  0
   43.9990   21.4370   35.9410 N   0  0  0  0  0  0  0  0  0  0  0  0
   44.1960   17.7560   37.7950 N   0  0  0  0  0  0  0  0  0  0  0  0
   38.8020   23.2400   38.1900 C   0  0  0  0  0  0  0  0  0  0  0  0
   37.6250   24.1930   37.2090 S   0  0  0  0  0  0  0  0  0  0  0  0
   41.3695   21.8719   34.5156 H   0  0  0  0  0  0  0  0  0  0  0  0
   39.0770   23.1409   35.2763 H   0  0  0  0  0  0  0  0  0  0  0  0
   45.9834   21.2332   35.2809 H   0  0  0  0  0  0  0  0  0  0  0  0
   46.2457   18.9843   36.3537 H   0  0  0  0  0  0  0  0  0  0  0  0
   43.3532   17.4333   38.2915 H   0  0  0  0  0  0  0  0  0  0  0  0
   45.0402   17.1663   37.7764 H   0  0  0  0  0  0  0  0  0  0  0  0
   38.2755   22.4218   38.7032 H   0  0  0  0  0  0  0  0  0  0  0  0
   39.2744   23.8943   38.9375 H   0  0  0  0  0  0  0  0  0  0  0  0
   36.7814   24.8761   38.0448 H   0  0  0  0  0  0  0  0  0  0  0  0
  1  5  2  0
  2  3  2  0
  2  1  1  0
  3  4  1  0
  4  5  1  0
  4 13  1  0
  6 11  2  0
  6  7  1  0
  7  8  2  0
  8  9  1  0
  8 12  1  0
 10  1  1  0
 10  9  2  0
 11 10  1  0
 14 13  1  0
  2 15  1  0
  3 16  1  0
  6 17  1  0
  7 18  1  0
 12 19  1  0
 12 20  1  0
 13 21  1  0
 13 22  1  0
 14 23  1  0
M  ISO  7  15  14  16  14  17  14  18  14  21   8  22   8  23  11
M  END
>  <minimizedAffinity>  (1) 
-3.36888075

>  <minimizedRMSD>  (1) 
1.55351484

$$$$
