
     RDKit          3D

 43 47  0  0  0  0  0  0  0  0999 V2000
   42.4790   22.8840   36.6660 C   0  0  0  0  0  0  0  0  0  0  0  0
   39.1120   22.5280   35.5200 C   0  0  0  0  0  0  0  0  0  0  0  0
   39.2430   23.9240   35.3760 C   0  0  0  0  0  0  0  0  0  0  0  0
   40.5620   24.2370   35.8020 C   0  0  0  0  0  0  0  0  0  0  0  0
   41.1230   23.0550   36.1620 N   0  0  0  0  0  0  0  0  0  0  0  0
   40.2830   22.0300   36.0030 N   0  0  0  0  0  0  0  0  0  0  0  0
   36.3740   21.0120   33.5740 C   0  0  0  0  0  0  0  0  0  0  0  0
   35.4400   20.7130   34.5330 C   0  0  0  0  0  0  0  0  0  0  0  0
   35.7480   21.0320   35.8630 C   0  0  0  0  0  0  0  0  0  0  0  0
   36.9470   21.6160   36.1270 N   0  0  0  0  0  0  0  0  0  0  0  0
   37.8510   21.9000   35.1580 C   0  0  0  0  0  0  0  0  0  0  0  0
   37.5310   21.5850   33.9000 N   0  0  0  0  0  0  0  0  0  0  0  0
   34.9140   20.8000   36.9760 N   0  0  0  0  0  0  0  0  0  0  0  0
   43.2770   24.0590   36.2270 C   0  0  0  0  0  0  0  0  0  0  0  0
   44.2940   24.6300   36.9440 C   0  0  0  0  0  0  0  0  0  0  0  0
   44.7690   25.6900   36.1810 C   0  0  0  0  0  0  0  0  0  0  0  0
   44.0240   25.7270   35.0310 C   0  0  0  0  0  0  0  0  0  0  0  0
   43.1790   24.7380   35.1450 O   0  0  0  0  0  0  0  0  0  0  0  0
   43.9730   26.5370   33.8240 C   0  0  0  0  0  0  0  0  0  0  0  0
   43.0740   26.2380   32.8690 N   0  0  0  0  0  0  0  0  0  0  0  0
   43.0310   26.8600   31.6920 C   0  0  0  0  0  0  0  0  0  0  0  0
   43.8520   27.8340   31.3220 N   0  0  0  0  0  0  0  0  0  0  0  0
   44.7900   28.1990   32.2330 C   0  0  0  0  0  0  0  0  0  0  0  0
   45.6590   29.2210   31.9350 C   0  0  0  0  0  0  0  0  0  0  0  0
   46.6150   29.6600   32.8280 C   0  0  0  0  0  0  0  0  0  0  0  0
   46.6390   28.9990   34.0540 C   0  0  0  0  0  0  0  0  0  0  0  0
   45.7630   27.9950   34.3080 C   0  0  0  0  0  0  0  0  0  0  0  0
   44.8100   27.5380   33.4410 C   0  0  0  0  0  0  0  0  0  0  0  0
   42.4661   22.8295   37.7646 H   0  0  0  0  0  0  0  0  0  0  0  0
   42.9191   21.9534   36.2784 H   0  0  0  0  0  0  0  0  0  0  0  0
   38.4806   24.6269   35.0091 H   0  0  0  0  0  0  0  0  0  0  0  0
   41.0311   25.2315   35.8334 H   0  0  0  0  0  0  0  0  0  0  0  0
   36.1643   20.7751   32.5205 H   0  0  0  0  0  0  0  0  0  0  0  0
   34.4831   20.2396   34.2679 H   0  0  0  0  0  0  0  0  0  0  0  0
   35.2273   21.0696   37.9194 H   0  0  0  0  0  0  0  0  0  0  0  0
   33.9915   20.3609   36.8456 H   0  0  0  0  0  0  0  0  0  0  0  0
   44.6628   24.3122   37.9304 H   0  0  0  0  0  0  0  0  0  0  0  0
   45.5894   26.3718   36.4497 H   0  0  0  0  0  0  0  0  0  0  0  0
   42.2591   26.5432   30.9752 H   0  0  0  0  0  0  0  0  0  0  0  0
   45.5901   29.7061   30.9501 H   0  0  0  0  0  0  0  0  0  0  0  0
   47.3113   30.4770   32.5879 H   0  0  0  0  0  0  0  0  0  0  0  0
   47.3719   29.2927   34.8199 H   0  0  0  0  0  0  0  0  0  0  0  0
   45.8245   27.5085   35.2927 H   0  0  0  0  0  0  0  0  0  0  0  0
  2  6  2  0
  3  2  1  0
  3  4  2  0
  4  5  1  0
  5  1  1  0
  6  5  1  0
  7 12  2  0
  7  8  1  0
  8  9  2  0
  9 10  1  0
  9 13  1  0
 11  2  1  0
 11 10  2  0
 12 11  1  0
 14  1  1  0
 14 15  2  0
 16 15  1  0
 17 18  1  0
 17 16  2  0
 18 14  1  0
 19 17  1  0
 20 19  2  0
 21 20  1  0
 22 21  2  0
 22 23  1  0
 23 28  2  0
 24 23  1  0
 24 25  2  0
 25 26  1  0
 26 27  2  0
 28 19  1  0
 28 27  1  0
  1 29  1  0
  1 30  1  0
  3 31  1  0
  4 32  1  0
  7 33  1  0
  8 34  1  0
 13 35  1  0
 13 36  1  0
 15 37  1  0
 16 38  1  0
 21 39  1  0
 24 40  1  0
 25 41  1  0
 26 42  1  0
 27 43  1  0
M  ISO  8  29   8  30   8  31  14  32  14  33  14  34  14  37  14  38  14
M  ISO  5  39  14  40  14  41  14  42  14  43  14
M  END
>  <minimizedAffinity>  (1) 
-5.53091097

>  <minimizedRMSD>  (1) 
1.48184872

$$$$
