
     RDKit          3D

 36 38  0  0  0  0  0  0  0  0999 V2000
   39.1750   22.4370   35.5440 C   0  0  0  0  0  0  0  0  0  0  0  0
   39.3790   23.8130   35.3280 C   0  0  0  0  0  0  0  0  0  0  0  0
   40.6910   24.0990   35.7780 C   0  0  0  0  0  0  0  0  0  0  0  0
   41.1870   22.9010   36.2290 N   0  0  0  0  0  0  0  0  0  0  0  0
   40.2970   21.9220   36.0930 N   0  0  0  0  0  0  0  0  0  0  0  0
   36.3910   21.0530   33.5550 C   0  0  0  0  0  0  0  0  0  0  0  0
   35.4420   20.7630   34.5200 C   0  0  0  0  0  0  0  0  0  0  0  0
   35.7650   21.0480   35.8680 C   0  0  0  0  0  0  0  0  0  0  0  0
   36.9790   21.5840   36.1210 N   0  0  0  0  0  0  0  0  0  0  0  0
   37.8920   21.8600   35.1680 C   0  0  0  0  0  0  0  0  0  0  0  0
   37.5610   21.5810   33.9080 N   0  0  0  0  0  0  0  0  0  0  0  0
   34.9160   20.8160   36.9710 N   0  0  0  0  0  0  0  0  0  0  0  0
   42.5190   22.6840   36.7950 C   0  0  0  0  0  0  0  0  0  0  0  0
   43.3780   23.7990   36.3250 C   0  0  0  0  0  0  0  0  0  0  0  0
   44.2430   24.5150   37.1230 C   0  0  0  0  0  0  0  0  0  0  0  0
   44.8550   25.4640   36.3040 C   0  0  0  0  0  0  0  0  0  0  0  0
   44.3320   25.2780   35.0460 C   0  0  0  0  0  0  0  0  0  0  0  0
   43.4850   24.2970   35.1370 O   0  0  0  0  0  0  0  0  0  0  0  0
   44.6610   26.0200   33.8760 N   0  0  0  0  0  0  0  0  0  0  0  0
   44.4610   27.4170   33.7950 C   0  0  0  0  0  0  0  0  0  0  0  0
   44.6820   28.1040   34.8870 N   0  0  0  0  0  0  0  0  0  0  0  0
   44.0350   27.9820   32.5370 N   0  0  0  0  0  0  0  0  0  0  0  0
   44.5360   29.1360   34.8320 H   0  0  0  0  0  0  0  0  0  0  0  0
   38.6612   24.5253   34.8952 H   0  0  0  0  0  0  0  0  0  0  0  0
   41.2030   25.0725   35.7682 H   0  0  0  0  0  0  0  0  0  0  0  0
   36.1783   20.8470   32.4956 H   0  0  0  0  0  0  0  0  0  0  0  0
   34.4698   20.3259   34.2483 H   0  0  0  0  0  0  0  0  0  0  0  0
   35.2311   21.0536   37.9224 H   0  0  0  0  0  0  0  0  0  0  0  0
   33.9812   20.4091   36.8247 H   0  0  0  0  0  0  0  0  0  0  0  0
   42.4671   22.6846   37.8938 H   0  0  0  0  0  0  0  0  0  0  0  0
   42.9271   21.7134   36.4765 H   0  0  0  0  0  0  0  0  0  0  0  0
   44.4175   24.3669   38.1989 H   0  0  0  0  0  0  0  0  0  0  0  0
   45.6049   26.2107   36.6041 H   0  0  0  0  0  0  0  0  0  0  0  0
   45.0565   25.5240   33.0645 H   0  0  0  0  0  0  0  0  0  0  0  0
   43.8828   28.9973   32.4537 H   0  0  0  0  0  0  0  0  0  0  0  0
   43.8832   27.3699   31.7226 H   0  0  0  0  0  0  0  0  0  0  0  0
  1  5  2  0
  2  1  1  0
  2  3  2  0
  3  4  1  0
  4 13  1  0
  5  4  1  0
  6 11  2  0
  6  7  1  0
  7  8  2  0
  8  9  1  0
  8 12  1  0
 10  1  1  0
 10  9  2  0
 11 10  1  0
 14 13  1  0
 14 15  2  0
 16 15  1  0
 17 18  1  0
 17 16  2  0
 18 14  1  0
 19 17  1  0
 20 19  1  0
 20 21  2  0
 22 20  1  0
 23 21  1  0
  2 24  1  0
  3 25  1  0
  6 26  1  0
  7 27  1  0
 12 28  1  0
 12 29  1  0
 13 30  1  0
 13 31  1  0
 15 32  1  0
 16 33  1  0
 19 34  1  0
 22 35  1  0
 22 36  1  0
M  ISO  8  24  14  25  14  26  14  27  14  30   8  31   8  32  14  33  14
M  END
>  <minimizedAffinity>  (1) 
-5.34646225

>  <minimizedRMSD>  (1) 
0.696432292

$$$$
