
     RDKit          3D

 39 42  0  0  0  0  0  0  0  0999 V2000
   42.5470   22.8010   36.6320 C   0  0  0  0  0  0  0  0  0  0  0  0
   39.1440   22.5030   35.5280 C   0  0  0  0  0  0  0  0  0  0  0  0
   39.2830   23.9010   35.4300 C   0  0  0  0  0  0  0  0  0  0  0  0
   40.5970   24.2050   35.8370 C   0  0  0  0  0  0  0  0  0  0  0  0
   41.1750   22.9970   36.1540 N   0  0  0  0  0  0  0  0  0  0  0  0
   40.3220   21.9970   35.9720 N   0  0  0  0  0  0  0  0  0  0  0  0
   36.3930   21.0350   33.5710 C   0  0  0  0  0  0  0  0  0  0  0  0
   35.4560   20.7410   34.5340 C   0  0  0  0  0  0  0  0  0  0  0  0
   35.7630   21.0460   35.8750 C   0  0  0  0  0  0  0  0  0  0  0  0
   36.9740   21.6160   36.1320 N   0  0  0  0  0  0  0  0  0  0  0  0
   37.8780   21.8950   35.1670 C   0  0  0  0  0  0  0  0  0  0  0  0
   37.5530   21.5920   33.9010 N   0  0  0  0  0  0  0  0  0  0  0  0
   34.9290   20.8150   36.9720 N   0  0  0  0  0  0  0  0  0  0  0  0
   43.3130   24.0210   36.2560 C   0  0  0  0  0  0  0  0  0  0  0  0
   44.2620   24.6360   37.0490 C   0  0  0  0  0  0  0  0  0  0  0  0
   44.7470   25.7400   36.3420 C   0  0  0  0  0  0  0  0  0  0  0  0
   44.0530   25.7240   35.1510 C   0  0  0  0  0  0  0  0  0  0  0  0
   43.2390   24.7130   35.1540 O   0  0  0  0  0  0  0  0  0  0  0  0
   44.1690   26.6620   34.0340 C   0  0  0  0  0  0  0  0  0  0  0  0
   45.3980   27.2450   33.8020 C   0  0  0  0  0  0  0  0  0  0  0  0
   45.5960   28.1460   32.7620 C   0  0  0  0  0  0  0  0  0  0  0  0
   44.4680   28.3910   32.0060 C   0  0  0  0  0  0  0  0  0  0  0  0
   43.2070   27.8560   32.1640 C   0  0  0  0  0  0  0  0  0  0  0  0
   43.0890   26.9610   33.2270 C   0  0  0  0  0  0  0  0  0  0  0  0
   42.5525   22.6724   37.7244 H   0  0  0  0  0  0  0  0  0  0  0  0
   42.9952   21.9010   36.1858 H   0  0  0  0  0  0  0  0  0  0  0  0
   38.5152   24.6162   35.1000 H   0  0  0  0  0  0  0  0  0  0  0  0
   41.0634   25.1998   35.8903 H   0  0  0  0  0  0  0  0  0  0  0  0
   36.1796   20.8065   32.5164 H   0  0  0  0  0  0  0  0  0  0  0  0
   34.4939   20.2807   34.2649 H   0  0  0  0  0  0  0  0  0  0  0  0
   35.2409   21.0725   37.9193 H   0  0  0  0  0  0  0  0  0  0  0  0
   34.0024   20.3872   36.8334 H   0  0  0  0  0  0  0  0  0  0  0  0
   44.5781   24.3158   38.0528 H   0  0  0  0  0  0  0  0  0  0  0  0
   45.5124   26.4613   36.6644 H   0  0  0  0  0  0  0  0  0  0  0  0
   46.2437   26.9900   34.4576 H   0  0  0  0  0  0  0  0  0  0  0  0
   46.5668   28.6219   32.5595 H   0  0  0  0  0  0  0  0  0  0  0  0
   44.5898   29.1008   31.1745 H   0  0  0  0  0  0  0  0  0  0  0  0
   42.3640   28.1138   31.5061 H   0  0  0  0  0  0  0  0  0  0  0  0
   42.1178   26.4845   33.4263 H   0  0  0  0  0  0  0  0  0  0  0  0
  2  6  2  0
  3  2  1  0
  3  4  2  0
  4  5  1  0
  5  1  1  0
  6  5  1  0
  7 12  2  0
  7  8  1  0
  8  9  2  0
  9 10  1  0
  9 13  1  0
 11  2  1  0
 11 10  2  0
 12 11  1  0
 14  1  1  0
 14 15  2  0
 16 15  1  0
 17 18  1  0
 17 16  2  0
 18 14  1  0
 19 17  1  0
 20 19  2  0
 21 20  1  0
 22 23  1  0
 22 21  2  0
 23 24  2  0
 24 19  1  0
  1 25  1  0
  1 26  1  0
  3 27  1  0
  4 28  1  0
  7 29  1  0
  8 30  1  0
 13 31  1  0
 13 32  1  0
 15 33  1  0
 16 34  1  0
 20 35  1  0
 21 36  1  0
 22 37  1  0
 23 38  1  0
 24 39  1  0
M  ISO  8  25   8  26   8  27  14  28  14  29  14  30  14  33  14  34  14
M  ISO  5  35  14  36  14  37  14  38  14  39  14
M  END
>  <minimizedAffinity>  (1) 
-5.03383112

>  <minimizedRMSD>  (1) 
1.37176251

$$$$
