
     RDKit          3D

 36 39  0  0  0  0  0  0  0  0999 V2000
   39.2120   22.4170   35.4850 C   0  0  0  0  0  0  0  0  0  0  0  0
   39.3640   23.8100   35.4420 C   0  0  0  0  0  0  0  0  0  0  0  0
   40.6910   24.0870   35.8320 C   0  0  0  0  0  0  0  0  0  0  0  0
   41.2640   22.8640   36.0870 N   0  0  0  0  0  0  0  0  0  0  0  0
   40.3930   21.8780   35.8830 N   0  0  0  0  0  0  0  0  0  0  0  0
   36.3970   21.0480   33.5410 C   0  0  0  0  0  0  0  0  0  0  0  0
   35.4600   20.7750   34.5130 C   0  0  0  0  0  0  0  0  0  0  0  0
   35.7910   21.0620   35.8600 C   0  0  0  0  0  0  0  0  0  0  0  0
   37.0160   21.5880   36.0940 N   0  0  0  0  0  0  0  0  0  0  0  0
   37.9230   21.8490   35.1260 C   0  0  0  0  0  0  0  0  0  0  0  0
   37.5780   21.5670   33.8660 N   0  0  0  0  0  0  0  0  0  0  0  0
   34.9580   20.8460   36.9590 N   0  0  0  0  0  0  0  0  0  0  0  0
   42.6430   22.6120   36.5270 C   0  0  0  0  0  0  0  0  0  0  0  0
   43.3900   23.8810   36.2790 C   0  0  0  0  0  0  0  0  0  0  0  0
   44.2140   24.5110   37.2100 C   0  0  0  0  0  0  0  0  0  0  0  0
   44.7260   25.6460   36.6210 C   0  0  0  0  0  0  0  0  0  0  0  0
   44.1770   25.6520   35.3350 C   0  0  0  0  0  0  0  0  0  0  0  0
   43.4160   24.6100   35.1940 O   0  0  0  0  0  0  0  0  0  0  0  0
   44.4480   26.6910   34.3350 C   0  0  0  0  0  0  0  0  0  0  0  0
   45.6500   27.3180   34.0630 C   0  0  0  0  0  0  0  0  0  0  0  0
   45.3760   28.2090   33.0450 C   0  0  0  0  0  0  0  0  0  0  0  0
   44.0760   28.1390   32.7040 N   0  0  0  0  0  0  0  0  0  0  0  0
   43.5340   27.2130   33.4990 N   0  0  0  0  0  0  0  0  0  0  0  0
   38.5964   24.5452   35.1587 H   0  0  0  0  0  0  0  0  0  0  0  0
   41.1675   25.0750   35.9147 H   0  0  0  0  0  0  0  0  0  0  0  0
   36.1667   20.8350   32.4867 H   0  0  0  0  0  0  0  0  0  0  0  0
   34.4817   20.3460   34.2504 H   0  0  0  0  0  0  0  0  0  0  0  0
   35.2831   21.0855   37.9066 H   0  0  0  0  0  0  0  0  0  0  0  0
   34.0183   20.4471   36.8224 H   0  0  0  0  0  0  0  0  0  0  0  0
   42.6630   22.3592   37.5974 H   0  0  0  0  0  0  0  0  0  0  0  0
   43.0918   21.7666   35.9849 H   0  0  0  0  0  0  0  0  0  0  0  0
   44.4190   24.1635   38.2333 H   0  0  0  0  0  0  0  0  0  0  0  0
   45.4129   26.3826   37.0632 H   0  0  0  0  0  0  0  0  0  0  0  0
   46.6189   27.1437   34.5537 H   0  0  0  0  0  0  0  0  0  0  0  0
   46.1136   28.8794   32.5797 H   0  0  0  0  0  0  0  0  0  0  0  0
   43.5962   28.6885   31.9769 H   0  0  0  0  0  0  0  0  0  0  0  0
  1  5  2  0
  2  1  1  0
  2  3  2  0
  3  4  1  0
  4 13  1  0
  5  4  1  0
  6 11  2  0
  6  7  1  0
  7  8  2  0
  8  9  1  0
  8 12  1  0
 10  1  1  0
 10  9  2  0
 11 10  1  0
 14 13  1  0
 14 15  2  0
 16 15  1  0
 17 16  2  0
 18 17  1  0
 18 14  1  0
 19 17  1  0
 20 19  1  0
 21 20  2  0
 22 21  1  0
 22 23  1  0
 23 19  2  0
  2 24  1  0
  3 25  1  0
  6 26  1  0
  7 27  1  0
 12 28  1  0
 12 29  1  0
 13 30  1  0
 13 31  1  0
 15 32  1  0
 16 33  1  0
 20 34  1  0
 21 35  1  0
 22 36  1  0
M  ISO  8  24  14  25  14  26  14  27  14  30   8  31   8  32  14  33  14
M  ISO  3  34  14  35  14  36   9
M  END
>  <minimizedAffinity>  (1) 
-5.01790905

>  <minimizedRMSD>  (1) 
1.31115258

$$$$
