
     RDKit          3D

 35 38  0  0  0  0  0  0  0  0999 V2000
   39.2000   22.4800   35.5000 C   0  0  0  0  0  0  0  0  0  0  0  0
   39.3650   23.8590   35.3740 C   0  0  0  0  0  0  0  0  0  0  0  0
   40.6960   24.1240   35.7870 C   0  0  0  0  0  0  0  0  0  0  0  0
   41.2370   22.9220   36.1290 N   0  0  0  0  0  0  0  0  0  0  0  0
   40.3610   21.9440   35.9620 N   0  0  0  0  0  0  0  0  0  0  0  0
   36.4170   21.0460   33.5580 C   0  0  0  0  0  0  0  0  0  0  0  0
   35.4790   20.7620   34.5120 C   0  0  0  0  0  0  0  0  0  0  0  0
   35.7980   21.0660   35.8620 C   0  0  0  0  0  0  0  0  0  0  0  0
   37.0120   21.6160   36.1030 N   0  0  0  0  0  0  0  0  0  0  0  0
   37.9200   21.8880   35.1470 C   0  0  0  0  0  0  0  0  0  0  0  0
   37.5890   21.5880   33.8750 N   0  0  0  0  0  0  0  0  0  0  0  0
   34.9600   20.8430   36.9640 N   0  0  0  0  0  0  0  0  0  0  0  0
   42.5880   22.7060   36.6130 C   0  0  0  0  0  0  0  0  0  0  0  0
   43.3860   23.9270   36.2860 C   0  0  0  0  0  0  0  0  0  0  0  0
   44.1300   24.6530   37.1960 C   0  0  0  0  0  0  0  0  0  0  0  0
   44.7070   25.6890   36.4990 C   0  0  0  0  0  0  0  0  0  0  0  0
   44.2880   25.5480   35.1940 C   0  0  0  0  0  0  0  0  0  0  0  0
   43.5210   24.5080   35.1180 O   0  0  0  0  0  0  0  0  0  0  0  0
   44.6730   26.4490   34.1090 C   0  0  0  0  0  0  0  0  0  0  0  0
   45.4390   27.6440   34.4680 C   0  0  0  0  0  0  0  0  0  0  0  0
   45.7250   28.4920   32.9060 S   0  0  0  0  0  0  0  0  0  0  0  0
   44.7750   27.1300   31.9760 C   0  0  0  0  0  0  0  0  0  0  0  0
   44.4680   26.4170   32.8080 N   0  0  0  0  0  0  0  0  0  0  0  0
   38.6188   24.5889   35.0268 H   0  0  0  0  0  0  0  0  0  0  0  0
   41.1922   25.1050   35.8237 H   0  0  0  0  0  0  0  0  0  0  0  0
   36.1967   20.8208   32.5041 H   0  0  0  0  0  0  0  0  0  0  0  0
   34.5112   20.3137   34.2429 H   0  0  0  0  0  0  0  0  0  0  0  0
   35.2763   21.0959   37.9110 H   0  0  0  0  0  0  0  0  0  0  0  0
   34.0282   20.4263   36.8264 H   0  0  0  0  0  0  0  0  0  0  0  0
   42.5755   22.5464   37.7013 H   0  0  0  0  0  0  0  0  0  0  0  0
   43.0304   21.8171   36.1395 H   0  0  0  0  0  0  0  0  0  0  0  0
   44.2397   24.4431   38.2702 H   0  0  0  0  0  0  0  0  0  0  0  0
   45.3681   26.4707   36.9014 H   0  0  0  0  0  0  0  0  0  0  0  0
   45.7673   27.9550   35.4708 H   0  0  0  0  0  0  0  0  0  0  0  0
   44.5723   27.0513   30.8977 H   0  0  0  0  0  0  0  0  0  0  0  0
  1  5  2  0
  2  1  1  0
  2  3  2  0
  3  4  1  0
  4 13  1  0
  5  4  1  0
  6 11  2  0
  6  7  1  0
  7  8  2  0
  8  9  1  0
  8 12  1  0
 10  1  1  0
 10  9  2  0
 11 10  1  0
 14 13  1  0
 14 15  2  0
 16 15  1  0
 17 16  2  0
 18 17  1  0
 18 14  1  0
 19 20  2  0
 19 17  1  0
 21 20  1  0
 22 23  2  0
 22 21  1  0
 23 19  1  0
  2 24  1  0
  3 25  1  0
  6 26  1  0
  7 27  1  0
 12 28  1  0
 12 29  1  0
 13 30  1  0
 13 31  1  0
 15 32  1  0
 16 33  1  0
 20 34  1  0
 22 35  1  0
M  ISO  8  24  14  25  14  26  14  27  14  30   8  31   8  32  14  33  14
M  ISO  2  34  14  35  14
M  END
>  <minimizedAffinity>  (1) 
-4.87434292

>  <minimizedRMSD>  (1) 
0.991868734

$$$$
