
     RDKit          3D

 35 38  0  0  0  0  0  0  0  0999 V2000
   39.1660   22.4750   35.5190 C   0  0  0  0  0  0  0  0  0  0  0  0
   39.3500   23.8450   35.3370 C   0  0  0  0  0  0  0  0  0  0  0  0
   40.6670   24.1350   35.7720 C   0  0  0  0  0  0  0  0  0  0  0  0
   41.1960   22.9420   36.1850 N   0  0  0  0  0  0  0  0  0  0  0  0
   40.3150   21.9650   36.0390 N   0  0  0  0  0  0  0  0  0  0  0  0
   36.3980   21.0370   33.5620 C   0  0  0  0  0  0  0  0  0  0  0  0
   35.4560   20.7470   34.5230 C   0  0  0  0  0  0  0  0  0  0  0  0
   35.7780   21.0510   35.8660 C   0  0  0  0  0  0  0  0  0  0  0  0
   36.9830   21.6030   36.1160 N   0  0  0  0  0  0  0  0  0  0  0  0
   37.8980   21.8820   35.1590 C   0  0  0  0  0  0  0  0  0  0  0  0
   37.5650   21.5830   33.8910 N   0  0  0  0  0  0  0  0  0  0  0  0
   34.9370   20.8230   36.9700 N   0  0  0  0  0  0  0  0  0  0  0  0
   42.5350   22.7460   36.7170 C   0  0  0  0  0  0  0  0  0  0  0  0
   43.3670   23.8830   36.2500 C   0  0  0  0  0  0  0  0  0  0  0  0
   44.1470   24.6880   37.0750 C   0  0  0  0  0  0  0  0  0  0  0  0
   44.7680   25.6280   36.2830 C   0  0  0  0  0  0  0  0  0  0  0  0
   44.3360   25.3520   35.0040 C   0  0  0  0  0  0  0  0  0  0  0  0
   43.5230   24.3280   35.0330 O   0  0  0  0  0  0  0  0  0  0  0  0
   44.7190   26.0720   33.8360 N   0  0  0  0  0  0  0  0  0  0  0  0
   44.3150   27.3050   33.4800 C   0  0  0  0  0  0  0  0  0  0  0  0
   44.8800   27.6830   32.3040 N   0  0  0  0  0  0  0  0  0  0  0  0
   45.6520   26.6430   31.9390 C   0  0  0  0  0  0  0  0  0  0  0  0
   45.5430   25.6680   32.8850 N   0  0  0  0  0  0  0  0  0  0  0  0
   38.6171   24.5600   34.9349 H   0  0  0  0  0  0  0  0  0  0  0  0
   41.1625   25.1171   35.7768 H   0  0  0  0  0  0  0  0  0  0  0  0
   36.1823   20.8139   32.5067 H   0  0  0  0  0  0  0  0  0  0  0  0
   34.4890   20.2957   34.2562 H   0  0  0  0  0  0  0  0  0  0  0  0
   35.2515   21.0753   37.9178 H   0  0  0  0  0  0  0  0  0  0  0  0
   34.0066   20.4038   36.8307 H   0  0  0  0  0  0  0  0  0  0  0  0
   42.5043   22.7288   37.8164 H   0  0  0  0  0  0  0  0  0  0  0  0
   42.9545   21.7894   36.3723 H   0  0  0  0  0  0  0  0  0  0  0  0
   44.2493   24.5907   38.1659 H   0  0  0  0  0  0  0  0  0  0  0  0
   45.4572   26.4240   36.6014 H   0  0  0  0  0  0  0  0  0  0  0  0
   43.6191   27.9251   34.0641 H   0  0  0  0  0  0  0  0  0  0  0  0
   46.2680   26.5889   31.0293 H   0  0  0  0  0  0  0  0  0  0  0  0
  1  5  2  0
  2  1  1  0
  2  3  2  0
  3  4  1  0
  4 13  1  0
  5  4  1  0
  6 11  2  0
  6  7  1  0
  7  8  2  0
  8  9  1  0
  8 12  1  0
 10  1  1  0
 10  9  2  0
 11 10  1  0
 14 13  1  0
 14 15  2  0
 16 15  1  0
 17 18  1  0
 17 16  2  0
 18 14  1  0
 19 17  1  0
 20 19  1  0
 21 20  2  0
 22 21  1  0
 22 23  2  0
 23 19  1  0
  2 24  1  0
  3 25  1  0
  6 26  1  0
  7 27  1  0
 12 28  1  0
 12 29  1  0
 13 30  1  0
 13 31  1  0
 15 32  1  0
 16 33  1  0
 20 34  1  0
 22 35  1  0
M  ISO  8  24  14  25  14  26  14  27  14  30   8  31   8  32  14  33  14
M  ISO  2  34  14  35  14
M  END
>  <minimizedAffinity>  (1) 
-4.7283144

>  <minimizedRMSD>  (1) 
0.680562437

$$$$
