
     RDKit          3D

 32 34  0  0  0  0  0  0  0  0999 V2000
   39.1180   22.5720   35.4770 C   0  0  0  0  0  0  0  0  0  0  0  0
   39.2700   23.9340   35.2370 C   0  0  0  0  0  0  0  0  0  0  0  0
   40.5780   24.2630   35.6640 C   0  0  0  0  0  0  0  0  0  0  0  0
   41.1340   23.1000   36.1290 N   0  0  0  0  0  0  0  0  0  0  0  0
   40.2770   22.0910   36.0220 N   0  0  0  0  0  0  0  0  0  0  0  0
   36.3940   20.9960   33.5530 C   0  0  0  0  0  0  0  0  0  0  0  0
   35.4650   20.6990   34.5260 C   0  0  0  0  0  0  0  0  0  0  0  0
   35.7760   21.0440   35.8620 C   0  0  0  0  0  0  0  0  0  0  0  0
   36.9600   21.6410   36.1020 N   0  0  0  0  0  0  0  0  0  0  0  0
   37.8610   21.9250   35.1370 C   0  0  0  0  0  0  0  0  0  0  0  0
   37.5450   21.5890   33.8720 N   0  0  0  0  0  0  0  0  0  0  0  0
   34.9390   20.8110   36.9680 N   0  0  0  0  0  0  0  0  0  0  0  0
   42.4800   22.9370   36.6770 C   0  0  0  0  0  0  0  0  0  0  0  0
   43.3310   23.9670   36.0190 C   0  0  0  0  0  0  0  0  0  0  0  0
   44.0720   24.9170   36.6840 C   0  0  0  0  0  0  0  0  0  0  0  0
   44.7350   25.7010   35.7680 C   0  0  0  0  0  0  0  0  0  0  0  0
   44.3520   25.1740   34.5540 C   0  0  0  0  0  0  0  0  0  0  0  0
   43.5430   24.1770   34.7590 O   0  0  0  0  0  0  0  0  0  0  0  0
   44.7660   25.6310   33.1910 C   0  0  0  0  0  0  0  0  0  0  0  0
   38.5244   24.6166   34.8032 H   0  0  0  0  0  0  0  0  0  0  0  0
   41.0537   25.2542   35.6296 H   0  0  0  0  0  0  0  0  0  0  0  0
   36.1844   20.7417   32.5035 H   0  0  0  0  0  0  0  0  0  0  0  0
   34.5130   20.2098   34.2723 H   0  0  0  0  0  0  0  0  0  0  0  0
   35.2412   21.0937   37.9112 H   0  0  0  0  0  0  0  0  0  0  0  0
   34.0238   20.3576   36.8348 H   0  0  0  0  0  0  0  0  0  0  0  0
   42.4685   23.0924   37.7659 H   0  0  0  0  0  0  0  0  0  0  0  0
   42.8657   21.9238   36.4910 H   0  0  0  0  0  0  0  0  0  0  0  0
   44.1258   25.0316   37.7767 H   0  0  0  0  0  0  0  0  0  0  0  0
   45.4106   26.5477   35.9595 H   0  0  0  0  0  0  0  0  0  0  0  0
   45.5019   26.4433   33.2844 H   0  0  0  0  0  0  0  0  0  0  0  0
   45.2159   24.7899   32.6432 H   0  0  0  0  0  0  0  0  0  0  0  0
   43.8847   25.9959   32.6432 H   0  0  0  0  0  0  0  0  0  0  0  0
  1  5  2  0
  2  1  1  0
  2  3  2  0
  3  4  1  0
  4 13  1  0
  5  4  1  0
  6 11  2  0
  6  7  1  0
  7  8  2  0
  8  9  1  0
  8 12  1  0
 10  1  1  0
 10  9  2  0
 11 10  1  0
 14 13  1  0
 14 15  2  0
 16 15  1  0
 17 18  1  0
 17 16  2  0
 18 14  1  0
 19 17  1  0
  2 20  1  0
  3 21  1  0
  6 22  1  0
  7 23  1  0
 12 24  1  0
 12 25  1  0
 13 26  1  0
 13 27  1  0
 15 28  1  0
 16 29  1  0
 19 30  1  0
 19 31  1  0
 19 32  1  0
M  ISO  8  20  14  21  14  22  14  23  14  26   8  27   8  28  14  29  14
M  ISO  3  30   8  31   8  32   8
M  END
>  <minimizedAffinity>  (1) 
-4.54293299

>  <minimizedRMSD>  (1) 
0.105359137

$$$$
