
     RDKit          3D

 34 36  0  0  1  0  0  0  0  0999 V2000
   38.6500   22.6050   36.1460 N   0  0  0  0  0  0  0  0  0  0  0  0
   38.5500   23.5360   37.2550 C   0  0  0  0  0  0  0  0  0  0  0  0
   39.6640   23.0530   38.1790 C   0  0  0  0  0  0  0  0  0  0  0  0
   40.4590   22.0370   37.3580 C   0  0  0  0  0  0  0  0  0  0  0  0
   40.0810   22.5220   35.9680 C   0  0  2  0  0  0  0  0  0  0  0  0
   37.6090   21.9530   35.4340 C   0  0  0  0  0  0  0  0  0  0  0  0
   36.5020   21.3590   36.0780 C   0  0  0  0  0  0  0  0  0  0  0  0
   35.5210   20.7400   35.3230 C   0  0  0  0  0  0  0  0  0  0  0  0
   35.6860   20.7370   33.9570 N   0  0  0  0  0  0  0  0  0  0  0  0
   36.7470   21.3080   33.3700 C   0  0  0  0  0  0  0  0  0  0  0  0
   37.7090   21.9140   34.0850 N   0  0  0  0  0  0  0  0  0  0  0  0
   40.7000   23.8190   35.8140 N   0  0  0  0  0  0  0  0  0  0  0  0
   40.4040   24.4590   34.5710 C   0  0  0  0  0  0  0  0  0  0  0  0
   41.5900   24.1650   33.6890 C   0  0  0  0  0  0  0  0  0  0  0  0
   42.7240   24.3800   34.6770 C   0  0  0  0  0  0  0  0  0  0  0  0
   42.1350   23.6710   35.8960 C   0  0  0  0  0  0  0  0  0  0  0  0
   38.7254   24.5705   36.9249 H   0  0  0  0  0  0  0  0  0  0  0  0
   37.5579   23.5541   37.7297 H   0  0  0  0  0  0  0  0  0  0  0  0
   40.3071   23.8935   38.4788 H   0  0  0  0  0  0  0  0  0  0  0  0
   39.2658   22.6104   39.1040 H   0  0  0  0  0  0  0  0  0  0  0  0
   41.5409   22.1112   37.5425 H   0  0  0  0  0  0  0  0  0  0  0  0
   40.2427   20.9794   37.5692 H   0  0  0  0  0  0  0  0  0  0  0  0
   40.3759   21.9245   35.0928 H   0  0  0  0  0  0  0  0  0  0  0  0
   36.4195   21.3880   37.1745 H   0  0  0  0  0  0  0  0  0  0  0  0
   34.6458   20.2700   35.7954 H   0  0  0  0  0  0  0  0  0  0  0  0
   36.8322   21.2796   32.2737 H   0  0  0  0  0  0  0  0  0  0  0  0
   39.4840   24.0451   34.1325 H   0  0  0  0  0  0  0  0  0  0  0  0
   40.2367   25.5395   34.6920 H   0  0  0  0  0  0  0  0  0  0  0  0
   41.5699   23.1321   33.3112 H   0  0  0  0  0  0  0  0  0  0  0  0
   41.6501   24.7797   32.7787 H   0  0  0  0  0  0  0  0  0  0  0  0
   43.6579   23.9072   34.3389 H   0  0  0  0  0  0  0  0  0  0  0  0
   43.0107   25.4295   34.8392 H   0  0  0  0  0  0  0  0  0  0  0  0
   42.5108   24.1331   36.8208 H   0  0  0  0  0  0  0  0  0  0  0  0
   42.4214   22.6090   35.9107 H   0  0  0  0  0  0  0  0  0  0  0  0
  1  2  1  0
  2  3  1  0
  4  3  1  0
  5  1  1  0
  5  4  1  0
  6  7  2  0
  6  1  1  0
  8  7  1  0
  9  8  2  0
 10  9  1  0
 10 11  2  0
 11  6  1  0
 12 13  1  0
 12 16  1  0
 12  5  1  0
 14 13  1  0
 14 15  1  0
 15 16  1  0
  2 17  1  0
  2 18  1  0
  3 19  1  0
  3 20  1  0
  4 21  1  0
  4 22  1  0
  5 23  1  6
  7 24  1  0
  8 25  1  0
 10 26  1  0
 13 27  1  0
 13 28  1  0
 14 29  1  0
 14 30  1  0
 15 31  1  0
 15 32  1  0
 16 33  1  0
 16 34  1  0
M  ISO  8  17  13  18  13  19  13  20  13  21  13  22  13  23  13  24  14
M  ISO  8  25  14  26  14  27  13  28  13  29  13  30  13  31  13  32  13
M  ISO  2  33  13  34  13
M  END
>  <minimizedAffinity>  (1) 
-4.03052998

>  <minimizedRMSD>  (1) 
1.46390975

$$$$
