
     RDKit          3D

 41 44  0  0  1  0  0  0  0  0999 V2000
   38.7050   23.6310   36.3480 N   0  0  0  0  0  0  0  0  0  0  0  0
   38.0330   24.7940   36.9520 C   0  0  0  0  0  0  0  0  0  0  0  0
   37.8970   24.3400   38.4080 C   0  0  0  0  0  0  0  0  0  0  0  0
   38.7890   23.1080   38.5260 C   0  0  0  0  0  0  0  0  0  0  0  0
   39.6840   23.3010   37.3440 C   0  0  1  0  0  0  0  0  0  0  0  0
   38.4170   23.0170   35.0790 C   0  0  0  0  0  0  0  0  0  0  0  0
   37.5030   21.9700   34.9540 C   0  0  0  0  0  0  0  0  0  0  0  0
   37.2850   21.4340   33.6890 C   0  0  0  0  0  0  0  0  0  0  0  0
   37.9960   21.9810   32.6340 N   0  0  0  0  0  0  0  0  0  0  0  0
   38.8600   22.9840   32.8100 C   0  0  0  0  0  0  0  0  0  0  0  0
   39.1030   23.5340   34.0140 N   0  0  0  0  0  0  0  0  0  0  0  0
   40.5180   22.1190   36.9650 C   0  0  0  0  0  0  0  0  0  0  0  0
   41.8690   22.3770   36.4970 C   0  0  0  0  0  0  0  0  0  0  0  0
   42.2040   23.6440   36.0020 C   0  0  0  0  0  0  0  0  0  0  0  0
   43.4450   24.0160   35.5240 C   0  0  0  0  0  0  0  0  0  0  0  0
   44.4540   23.0770   35.5240 C   0  0  0  0  0  0  0  0  0  0  0  0
   44.1840   21.8110   36.0000 C   0  0  0  0  0  0  0  0  0  0  0  0
   45.2130   20.8630   36.0030 C   0  0  0  0  0  0  0  0  0  0  0  0
   44.9520   19.5820   36.4870 C   0  0  0  0  0  0  0  0  0  0  0  0
   43.6820   19.2640   36.9600 C   0  0  0  0  0  0  0  0  0  0  0  0
   42.6520   20.2040   36.9590 C   0  0  0  0  0  0  0  0  0  0  0  0
   42.9290   21.4810   36.4700 C   0  0  0  0  0  0  0  0  0  0  0  0
   38.6481   25.7022   36.8693 H   0  0  0  0  0  0  0  0  0  0  0  0
   37.0797   25.0621   36.4731 H   0  0  0  0  0  0  0  0  0  0  0  0
   38.2383   25.1307   39.0924 H   0  0  0  0  0  0  0  0  0  0  0  0
   36.8529   24.1195   38.6748 H   0  0  0  0  0  0  0  0  0  0  0  0
   39.3564   23.1069   39.4684 H   0  0  0  0  0  0  0  0  0  0  0  0
   38.2471   22.1508   38.5375 H   0  0  0  0  0  0  0  0  0  0  0  0
   40.4704   24.0509   37.5147 H   0  0  0  0  0  0  0  0  0  0  0  0
   36.9690   21.5789   35.8326 H   0  0  0  0  0  0  0  0  0  0  0  0
   36.5756   20.6080   33.5328 H   0  0  0  0  0  0  0  0  0  0  0  0
   39.3958   23.3773   31.9336 H   0  0  0  0  0  0  0  0  0  0  0  0
   40.5936   21.4709   37.8505 H   0  0  0  0  0  0  0  0  0  0  0  0
   40.0010   21.6749   36.1016 H   0  0  0  0  0  0  0  0  0  0  0  0
   41.4116   24.4069   35.9934 H   0  0  0  0  0  0  0  0  0  0  0  0
   43.6238   25.0359   35.1526 H   0  0  0  0  0  0  0  0  0  0  0  0
   45.4567   23.3328   35.1510 H   0  0  0  0  0  0  0  0  0  0  0  0
   46.2137   21.1248   35.6288 H   0  0  0  0  0  0  0  0  0  0  0  0
   45.7486   18.8235   36.4951 H   0  0  0  0  0  0  0  0  0  0  0  0
   43.4871   18.2511   37.3421 H   0  0  0  0  0  0  0  0  0  0  0  0
   41.6501   19.9462   37.3329 H   0  0  0  0  0  0  0  0  0  0  0  0
  1  2  1  0
  1  5  1  0
  2  3  1  0
  3  4  1  0
  5  4  1  0
  6  1  1  0
  7  6  2  0
  8  7  1  0
  9 10  1  0
  9  8  2  0
 10 11  2  0
 11  6  1  0
 12  5  1  0
 13 12  1  0
 14 13  2  0
 15 14  1  0
 16 15  2  0
 16 17  1  0
 17 18  1  0
 17 22  2  0
 18 19  2  0
 19 20  1  0
 21 20  2  0
 22 13  1  0
 22 21  1  0
  2 23  1  0
  2 24  1  0
  3 25  1  0
  3 26  1  0
  4 27  1  0
  4 28  1  0
  5 29  1  1
  7 30  1  0
  8 31  1  0
 10 32  1  0
 12 33  1  0
 12 34  1  0
 14 35  1  0
 15 36  1  0
 16 37  1  0
 18 38  1  0
 19 39  1  0
 20 40  1  0
 21 41  1  0
M  ISO  8  23  13  24  13  25  13  26  13  27  13  28  13  29  13  30  14
M  ISO  8  31  14  32  14  33   8  34   8  35  14  36  14  37  14  38  14
M  ISO  3  39  14  40  14  41  14
M  END
>  <minimizedAffinity>  (1) 
-5.22366285

>  <minimizedRMSD>  (1) 
2.07450271

$$$$
