
     RDKit          3D

 38 40  0  0  1  0  0  0  0  0999 V2000
   38.7350   23.4980   36.0600 N   0  0  0  0  0  0  0  0  0  0  0  0
   38.1300   24.1380   37.2410 C   0  0  0  0  0  0  0  0  0  0  0  0
   38.8180   23.3780   38.3810 C   0  0  0  0  0  0  0  0  0  0  0  0
   39.9580   22.6080   37.7200 C   0  0  0  0  0  0  0  0  0  0  0  0
   40.1240   23.4140   36.4430 C   0  0  1  0  0  0  0  0  0  0  0  0
   38.0800   23.0840   34.8680 C   0  0  0  0  0  0  0  0  0  0  0  0
   37.5000   21.8260   34.7150 C   0  0  0  0  0  0  0  0  0  0  0  0
   36.8840   21.5250   33.5060 C   0  0  0  0  0  0  0  0  0  0  0  0
   36.8790   22.4760   32.5290 N   0  0  0  0  0  0  0  0  0  0  0  0
   37.4460   23.6790   32.7030 C   0  0  0  0  0  0  0  0  0  0  0  0
   38.0490   24.0010   33.8610 N   0  0  0  0  0  0  0  0  0  0  0  0
   40.9720   22.7230   35.4220 C   0  0  0  0  0  0  0  0  0  0  0  0
   42.3740   22.8010   35.6660 N   0  0  0  0  0  0  0  0  0  0  0  0
   42.8950   23.8820   36.2750 C   0  0  0  0  0  0  0  0  0  0  0  0
   44.2090   24.1130   36.5810 C   0  0  0  0  0  0  0  0  0  0  0  0
   44.6460   25.3600   37.2590 C   0  0  0  0  0  0  0  0  0  0  0  0
   45.0780   23.0910   36.2060 C   0  0  0  0  0  0  0  0  0  0  0  0
   46.3040   23.2280   36.4550 O   0  0  0  0  0  0  0  0  0  0  0  0
   44.6040   21.9730   35.5870 N   0  0  0  0  0  0  0  0  0  0  0  0
   43.2750   21.8530   35.3330 C   0  0  0  0  0  0  0  0  0  0  0  0
   42.8590   20.8160   34.7610 O   0  0  0  0  0  0  0  0  0  0  0  0
   38.3593   25.2132   37.2780 H   0  0  0  0  0  0  0  0  0  0  0  0
   37.0314   24.0893   37.2661 H   0  0  0  0  0  0  0  0  0  0  0  0
   39.2111   24.0806   39.1305 H   0  0  0  0  0  0  0  0  0  0  0  0
   38.1215   22.7087   38.9072 H   0  0  0  0  0  0  0  0  0  0  0  0
   40.8706   22.6252   38.3338 H   0  0  0  0  0  0  0  0  0  0  0  0
   39.7622   21.5365   37.5665 H   0  0  0  0  0  0  0  0  0  0  0  0
   40.6444   24.3768   36.5534 H   0  0  0  0  0  0  0  0  0  0  0  0
   37.5290   21.0892   35.5313 H   0  0  0  0  0  0  0  0  0  0  0  0
   36.4127   20.5448   33.3416 H   0  0  0  0  0  0  0  0  0  0  0  0
   37.4173   24.4141   31.8852 H   0  0  0  0  0  0  0  0  0  0  0  0
   40.7683   23.1782   34.4415 H   0  0  0  0  0  0  0  0  0  0  0  0
   40.7063   21.6565   35.4653 H   0  0  0  0  0  0  0  0  0  0  0  0
   42.1830   24.6707   36.5596 H   0  0  0  0  0  0  0  0  0  0  0  0
   44.5973   25.2211   38.3491 H   0  0  0  0  0  0  0  0  0  0  0  0
   45.6798   25.5942   36.9650 H   0  0  0  0  0  0  0  0  0  0  0  0
   43.9846   26.1883   36.9650 H   0  0  0  0  0  0  0  0  0  0  0  0
   45.2520   21.2209   35.3125 H   0  0  0  0  0  0  0  0  0  0  0  0
  1  5  1  0
  1  2  1  0
  2  3  1  0
  4  3  1  0
  5  4  1  0
  6  1  1  0
  7  6  2  0
  8  7  1  0
  9 10  1  0
  9  8  2  0
 10 11  2  0
 11  6  1  0
 12 13  1  0
 12  5  1  0
 13 14  1  0
 14 15  2  0
 15 16  1  0
 17 18  2  0
 17 15  1  0
 19 17  1  0
 20 19  1  0
 20 13  1  0
 21 20  2  0
  2 22  1  0
  2 23  1  0
  3 24  1  0
  3 25  1  0
  4 26  1  0
  4 27  1  0
  5 28  1  1
  7 29  1  0
  8 30  1  0
 10 31  1  0
 12 32  1  0
 12 33  1  0
 14 34  1  0
 16 35  1  0
 16 36  1  0
 16 37  1  0
 19 38  1  0
M  ISO  8  22  13  23  13  24  13  25  13  26  13  27  13  28  13  29  14
M  ISO  8  30  14  31  14  32   8  33   8  34  14  35   8  36   8  37   8
M  ISO  1  38   9
M  END
>  <minimizedAffinity>  (1) 
-4.67886877

>  <minimizedRMSD>  (1) 
0.638354778

$$$$
