
     RDKit          3D

 36 39  0  0  1  0  0  0  0  0999 V2000
   38.4740   23.6180   36.1140 N   0  0  0  0  0  0  0  0  0  0  0  0
   37.7130   24.1730   37.2250 C   0  0  0  0  0  0  0  0  0  0  0  0
   38.3750   23.4770   38.4240 C   0  0  0  0  0  0  0  0  0  0  0  0
   39.6590   22.8450   37.8690 C   0  0  0  0  0  0  0  0  0  0  0  0
   39.8260   23.6650   36.6220 C   0  0  1  0  0  0  0  0  0  0  0  0
   37.9940   23.1550   34.8620 C   0  0  0  0  0  0  0  0  0  0  0  0
   37.5420   21.8380   34.6590 C   0  0  0  0  0  0  0  0  0  0  0  0
   37.0860   21.4460   33.4170 C   0  0  0  0  0  0  0  0  0  0  0  0
   37.1030   22.3920   32.4310 N   0  0  0  0  0  0  0  0  0  0  0  0
   37.5340   23.6330   32.6410 C   0  0  0  0  0  0  0  0  0  0  0  0
   37.9910   24.0680   33.8450 N   0  0  0  0  0  0  0  0  0  0  0  0
   40.8370   23.1280   35.6710 C   0  0  0  0  0  0  0  0  0  0  0  0
   42.1650   23.6670   35.8320 N   0  0  0  0  0  0  0  0  0  0  0  0
   43.1780   23.1840   36.6000 C   0  0  0  0  0  0  0  0  0  0  0  0
   44.2850   23.9670   36.4940 N   0  0  0  0  0  0  0  0  0  0  0  0
   43.9740   24.9550   35.6550 C   0  0  0  0  0  0  0  0  0  0  0  0
   44.6550   26.0580   35.1460 C   0  0  0  0  0  0  0  0  0  0  0  0
   44.0550   26.8980   34.2950 N   0  0  0  0  0  0  0  0  0  0  0  0
   42.7860   26.7070   33.9060 C   0  0  0  0  0  0  0  0  0  0  0  0
   42.1310   25.6570   34.3900 N   0  0  0  0  0  0  0  0  0  0  0  0
   42.6890   24.7680   35.2590 C   0  0  0  0  0  0  0  0  0  0  0  0
   37.8241   25.2659   37.2826 H   0  0  0  0  0  0  0  0  0  0  0  0
   36.6277   24.0089   37.1529 H   0  0  0  0  0  0  0  0  0  0  0  0
   38.6144   24.2085   39.2098 H   0  0  0  0  0  0  0  0  0  0  0  0
   37.7123   22.7260   38.8787 H   0  0  0  0  0  0  0  0  0  0  0  0
   40.5076   22.9696   38.5578 H   0  0  0  0  0  0  0  0  0  0  0  0
   39.6122   21.7577   37.7093 H   0  0  0  0  0  0  0  0  0  0  0  0
   40.2218   24.6767   36.7945 H   0  0  0  0  0  0  0  0  0  0  0  0
   37.5522   21.1196   35.4919 H   0  0  0  0  0  0  0  0  0  0  0  0
   36.7268   20.4233   33.2300 H   0  0  0  0  0  0  0  0  0  0  0  0
   37.5199   24.3414   31.7996 H   0  0  0  0  0  0  0  0  0  0  0  0
   40.4983   23.3522   34.6488 H   0  0  0  0  0  0  0  0  0  0  0  0
   40.9133   22.0500   35.8762 H   0  0  0  0  0  0  0  0  0  0  0  0
   43.1110   22.2805   37.2238 H   0  0  0  0  0  0  0  0  0  0  0  0
   45.6972   26.2405   35.4468 H   0  0  0  0  0  0  0  0  0  0  0  0
   42.3000   27.4012   33.2047 H   0  0  0  0  0  0  0  0  0  0  0  0
  1  5  1  0
  1  2  1  0
  2  3  1  0
  4  3  1  0
  5  4  1  0
  6  1  1  0
  7  6  2  0
  8  7  1  0
  9 10  1  0
  9  8  2  0
 10 11  2  0
 11  6  1  0
 12 13  1  0
 12  5  1  0
 13 14  1  0
 15 14  2  0
 16 15  1  0
 17 16  2  0
 18 17  1  0
 19 18  2  0
 19 20  1  0
 20 21  2  0
 21 16  1  0
 21 13  1  0
  2 22  1  0
  2 23  1  0
  3 24  1  0
  3 25  1  0
  4 26  1  0
  4 27  1  0
  5 28  1  1
  7 29  1  0
  8 30  1  0
 10 31  1  0
 12 32  1  0
 12 33  1  0
 14 34  1  0
 17 35  1  0
 19 36  1  0
M  ISO  8  22  13  23  13  24  13  25  13  26  13  27  13  28  13  29  14
M  ISO  7  30  14  31  14  32   8  33   8  34  14  35  14  36  14
M  END
>  <minimizedAffinity>  (1) 
-4.61952591

>  <minimizedRMSD>  (1) 
1.17528689

$$$$
