
     RDKit          3D

 34 36  0  0  1  0  0  0  0  0999 V2000
   38.4200   23.5960   36.1080 N   0  0  0  0  0  0  0  0  0  0  0  0
   37.6240   24.1330   37.2030 C   0  0  0  0  0  0  0  0  0  0  0  0
   38.2830   23.4540   38.4170 C   0  0  0  0  0  0  0  0  0  0  0  0
   39.5790   22.8430   37.8770 C   0  0  0  0  0  0  0  0  0  0  0  0
   39.7580   23.6870   36.6380 C   0  0  1  0  0  0  0  0  0  0  0  0
   37.9550   23.1120   34.8440 C   0  0  0  0  0  0  0  0  0  0  0  0
   37.5150   21.8020   34.6530 C   0  0  0  0  0  0  0  0  0  0  0  0
   37.0820   21.4320   33.3810 C   0  0  0  0  0  0  0  0  0  0  0  0
   37.1110   22.3670   32.3930 N   0  0  0  0  0  0  0  0  0  0  0  0
   37.5390   23.6180   32.6050 C   0  0  0  0  0  0  0  0  0  0  0  0
   37.9660   24.0150   33.8180 N   0  0  0  0  0  0  0  0  0  0  0  0
   40.7920   23.1460   35.6910 C   0  0  0  0  0  0  0  0  0  0  0  0
   42.0610   23.8920   35.7020 C   0  0  0  0  0  0  0  0  0  0  0  0
   43.0260   23.4520   36.5830 C   0  0  0  0  0  0  0  0  0  0  0  0
   44.2730   24.0510   36.7100 C   0  0  0  0  0  0  0  0  0  0  0  0
   44.4830   25.1440   35.8720 C   0  0  0  0  0  0  0  0  0  0  0  0
   43.5270   25.6110   34.9710 C   0  0  0  0  0  0  0  0  0  0  0  0
   42.3600   24.9570   34.9350 N   0  0  0  0  0  0  0  0  0  0  0  0
   37.7059   25.2284   37.2608 H   0  0  0  0  0  0  0  0  0  0  0  0
   36.5447   23.9417   37.1110 H   0  0  0  0  0  0  0  0  0  0  0  0
   38.5021   24.1935   39.2014 H   0  0  0  0  0  0  0  0  0  0  0  0
   37.6279   22.6961   38.8715 H   0  0  0  0  0  0  0  0  0  0  0  0
   40.4149   22.9663   38.5813 H   0  0  0  0  0  0  0  0  0  0  0  0
   39.5465   21.7575   37.7022 H   0  0  0  0  0  0  0  0  0  0  0  0
   40.1298   24.7058   36.8216 H   0  0  0  0  0  0  0  0  0  0  0  0
   37.5100   21.0808   35.4836 H   0  0  0  0  0  0  0  0  0  0  0  0
   36.7260   20.4106   33.1810 H   0  0  0  0  0  0  0  0  0  0  0  0
   37.5416   24.3354   31.7712 H   0  0  0  0  0  0  0  0  0  0  0  0
   40.3794   23.1799   34.6719 H   0  0  0  0  0  0  0  0  0  0  0  0
   41.0214   22.1219   36.0206 H   0  0  0  0  0  0  0  0  0  0  0  0
   42.7970   22.5829   37.2172 H   0  0  0  0  0  0  0  0  0  0  0  0
   45.0349   23.6906   37.4168 H   0  0  0  0  0  0  0  0  0  0  0  0
   45.4508   25.6642   35.9238 H   0  0  0  0  0  0  0  0  0  0  0  0
   43.7227   26.4761   34.3205 H   0  0  0  0  0  0  0  0  0  0  0  0
  1  5  1  0
  1  2  1  0
  2  3  1  0
  4  3  1  0
  5  4  1  0
  6  1  1  0
  7  6  2  0
  8  7  1  0
  9 10  1  0
  9  8  2  0
 10 11  2  0
 11  6  1  0
 12 13  1  0
 12  5  1  0
 13 14  2  0
 14 15  1  0
 16 15  2  0
 17 16  1  0
 18 17  2  0
 18 13  1  0
  2 19  1  0
  2 20  1  0
  3 21  1  0
  3 22  1  0
  4 23  1  0
  4 24  1  0
  5 25  1  1
  7 26  1  0
  8 27  1  0
 10 28  1  0
 12 29  1  0
 12 30  1  0
 14 31  1  0
 15 32  1  0
 16 33  1  0
 17 34  1  0
M  ISO  8  19  13  20  13  21  13  22  13  23  13  24  13  25  13  26  14
M  ISO  8  27  14  28  14  29   8  30   8  31  14  32  14  33  14  34  14
M  END
>  <minimizedAffinity>  (1) 
-4.44394541

>  <minimizedRMSD>  (1) 
1.46141148

$$$$
