
     RDKit          3D

 32 34  0  0  1  0  0  0  0  0999 V2000
   38.4270   23.6020   36.1170 N   0  0  0  0  0  0  0  0  0  0  0  0
   37.6330   24.1240   37.2170 C   0  0  0  0  0  0  0  0  0  0  0  0
   38.3080   23.4600   38.4270 C   0  0  0  0  0  0  0  0  0  0  0  0
   39.5930   22.8610   37.8790 C   0  0  0  0  0  0  0  0  0  0  0  0
   39.7720   23.6890   36.6260 C   0  0  1  0  0  0  0  0  0  0  0  0
   37.9570   23.1230   34.8450 C   0  0  0  0  0  0  0  0  0  0  0  0
   37.5150   21.7950   34.6640 C   0  0  0  0  0  0  0  0  0  0  0  0
   37.0810   21.4340   33.3920 C   0  0  0  0  0  0  0  0  0  0  0  0
   37.1050   22.3730   32.3990 N   0  0  0  0  0  0  0  0  0  0  0  0
   37.5340   23.6230   32.6170 C   0  0  0  0  0  0  0  0  0  0  0  0
   37.9660   24.0220   33.8380 N   0  0  0  0  0  0  0  0  0  0  0  0
   40.8000   23.1250   35.6890 C   0  0  0  0  0  0  0  0  0  0  0  0
   42.1360   23.7250   35.8480 C   0  0  0  0  0  0  0  0  0  0  0  0
   43.1250   23.0630   36.5460 C   0  0  0  0  0  0  0  0  0  0  0  0
   44.2480   23.8270   36.5430 C   0  0  0  0  0  0  0  0  0  0  0  0
   43.9030   24.9610   35.8260 C   0  0  0  0  0  0  0  0  0  0  0  0
   42.6560   24.8450   35.4440 O   0  0  0  0  0  0  0  0  0  0  0  0
   37.6971   25.2207   37.2733 H   0  0  0  0  0  0  0  0  0  0  0  0
   36.5569   23.9119   37.1325 H   0  0  0  0  0  0  0  0  0  0  0  0
   38.5297   24.2063   39.2041 H   0  0  0  0  0  0  0  0  0  0  0  0
   37.6642   22.7007   38.8949 H   0  0  0  0  0  0  0  0  0  0  0  0
   40.4328   22.9941   38.5769 H   0  0  0  0  0  0  0  0  0  0  0  0
   39.5558   21.7749   37.7088 H   0  0  0  0  0  0  0  0  0  0  0  0
   40.1527   24.7093   36.7807 H   0  0  0  0  0  0  0  0  0  0  0  0
   37.5136   21.0742   35.4950 H   0  0  0  0  0  0  0  0  0  0  0  0
   36.7256   20.4129   33.1896 H   0  0  0  0  0  0  0  0  0  0  0  0
   37.5357   24.3428   31.7852 H   0  0  0  0  0  0  0  0  0  0  0  0
   40.4617   23.2982   34.6567 H   0  0  0  0  0  0  0  0  0  0  0  0
   40.8973   22.0547   35.9237 H   0  0  0  0  0  0  0  0  0  0  0  0
   43.0211   22.0787   37.0259 H   0  0  0  0  0  0  0  0  0  0  0  0
   45.2179   23.5961   37.0076 H   0  0  0  0  0  0  0  0  0  0  0  0
   44.5643   25.8140   35.6137 H   0  0  0  0  0  0  0  0  0  0  0  0
  1  5  1  0
  1  2  1  0
  2  3  1  0
  4  3  1  0
  5  4  1  0
  6  1  1  0
  7  6  2  0
  8  7  1  0
  9 10  1  0
  9  8  2  0
 10 11  2  0
 11  6  1  0
 12 13  1  0
 12  5  1  0
 13 14  2  0
 15 14  1  0
 16 15  2  0
 17 16  1  0
 17 13  1  0
  2 18  1  0
  2 19  1  0
  3 20  1  0
  3 21  1  0
  4 22  1  0
  4 23  1  0
  5 24  1  1
  7 25  1  0
  8 26  1  0
 10 27  1  0
 12 28  1  0
 12 29  1  0
 14 30  1  0
 15 31  1  0
 16 32  1  0
M  ISO  8  18  13  19  13  20  13  21  13  22  13  23  13  24  13  25  14
M  ISO  7  26  14  27  14  28   8  29   8  30  14  31  14  32  14
M  END
>  <minimizedAffinity>  (1) 
-4.23980379

>  <minimizedRMSD>  (1) 
0.859512746

$$$$
