
     RDKit          3D

 32 34  0  0  1  0  0  0  0  0999 V2000
   38.4490   23.6050   36.1060 N   0  0  0  0  0  0  0  0  0  0  0  0
   37.6780   24.1630   37.2060 C   0  0  0  0  0  0  0  0  0  0  0  0
   38.3290   23.4850   38.4170 C   0  0  0  0  0  0  0  0  0  0  0  0
   39.6130   22.8420   37.8720 C   0  0  0  0  0  0  0  0  0  0  0  0
   39.7990   23.6630   36.6280 C   0  0  1  0  0  0  0  0  0  0  0  0
   37.9740   23.1320   34.8510 C   0  0  0  0  0  0  0  0  0  0  0  0
   37.5290   21.8090   34.6660 C   0  0  0  0  0  0  0  0  0  0  0  0
   37.0820   21.4330   33.4070 C   0  0  0  0  0  0  0  0  0  0  0  0
   37.0980   22.3800   32.4020 N   0  0  0  0  0  0  0  0  0  0  0  0
   37.5290   23.6200   32.6250 C   0  0  0  0  0  0  0  0  0  0  0  0
   37.9760   24.0420   33.8320 N   0  0  0  0  0  0  0  0  0  0  0  0
   40.8200   23.1300   35.6700 C   0  0  0  0  0  0  0  0  0  0  0  0
   42.1070   23.7850   35.7880 N   0  0  0  0  0  0  0  0  0  0  0  0
   43.1090   23.2890   36.5560 C   0  0  0  0  0  0  0  0  0  0  0  0
   44.1920   24.1590   36.4410 C   0  0  0  0  0  0  0  0  0  0  0  0
   43.8270   25.1520   35.6170 N   0  0  0  0  0  0  0  0  0  0  0  0
   42.5520   24.9210   35.2200 C   0  0  0  0  0  0  0  0  0  0  0  0
   37.7826   25.2569   37.2546 H   0  0  0  0  0  0  0  0  0  0  0  0
   36.5948   23.9890   37.1256 H   0  0  0  0  0  0  0  0  0  0  0  0
   38.5679   24.2270   39.1931 H   0  0  0  0  0  0  0  0  0  0  0  0
   37.6624   22.7444   38.8829 H   0  0  0  0  0  0  0  0  0  0  0  0
   40.4564   22.9574   38.5687 H   0  0  0  0  0  0  0  0  0  0  0  0
   39.5576   21.7555   37.7095 H   0  0  0  0  0  0  0  0  0  0  0  0
   40.1993   24.6710   36.8116 H   0  0  0  0  0  0  0  0  0  0  0  0
   37.5355   21.0908   35.4992 H   0  0  0  0  0  0  0  0  0  0  0  0
   36.7253   20.4103   33.2152 H   0  0  0  0  0  0  0  0  0  0  0  0
   37.5217   24.3355   31.7895 H   0  0  0  0  0  0  0  0  0  0  0  0
   40.4469   23.2734   34.6452 H   0  0  0  0  0  0  0  0  0  0  0  0
   40.9701   22.0668   35.9088 H   0  0  0  0  0  0  0  0  0  0  0  0
   43.0735   22.3695   37.1586 H   0  0  0  0  0  0  0  0  0  0  0  0
   45.1683   24.0507   36.9361 H   0  0  0  0  0  0  0  0  0  0  0  0
   41.9716   25.5618   34.5399 H   0  0  0  0  0  0  0  0  0  0  0  0
  1  5  1  0
  1  2  1  0
  2  3  1  0
  4  3  1  0
  5  4  1  0
  6  1  1  0
  7  6  2  0
  8  7  1  0
  9 10  1  0
  9  8  2  0
 10 11  2  0
 11  6  1  0
 12 13  1  0
 12  5  1  0
 13 14  1  0
 15 14  2  0
 16 15  1  0
 17 16  2  0
 17 13  1  0
  2 18  1  0
  2 19  1  0
  3 20  1  0
  3 21  1  0
  4 22  1  0
  4 23  1  0
  5 24  1  1
  7 25  1  0
  8 26  1  0
 10 27  1  0
 12 28  1  0
 12 29  1  0
 14 30  1  0
 15 31  1  0
 17 32  1  0
M  ISO  8  18  13  19  13  20  13  21  13  22  13  23  13  24  13  25  14
M  ISO  7  26  14  27  14  28   8  29   8  30  14  31  14  32  14
M  END
>  <minimizedAffinity>  (1) 
-3.97960901

>  <minimizedRMSD>  (1) 
0.993048549

$$$$
