
     RDKit          3D

 26 27  0  0  1  0  0  0  0  0999 V2000
   38.6520   23.5060   36.0860 N   0  0  0  0  0  0  0  0  0  0  0  0
   38.0200   24.1590   37.2350 C   0  0  0  0  0  0  0  0  0  0  0  0
   38.7050   23.4220   38.4080 C   0  0  0  0  0  0  0  0  0  0  0  0
   39.8970   22.7080   37.7720 C   0  0  0  0  0  0  0  0  0  0  0  0
   40.0350   23.4630   36.4830 C   0  0  1  0  0  0  0  0  0  0  0  0
   38.0170   23.0410   34.8900 C   0  0  0  0  0  0  0  0  0  0  0  0
   37.4510   21.7730   34.7800 C   0  0  0  0  0  0  0  0  0  0  0  0
   36.8550   21.4060   33.5750 C   0  0  0  0  0  0  0  0  0  0  0  0
   36.8600   22.3180   32.5630 N   0  0  0  0  0  0  0  0  0  0  0  0
   37.4160   23.5370   32.6980 C   0  0  0  0  0  0  0  0  0  0  0  0
   37.9950   23.9090   33.8520 N   0  0  0  0  0  0  0  0  0  0  0  0
   40.9140   22.7820   35.4740 C   0  0  0  0  0  0  0  0  0  0  0  0
   42.5970   22.5460   36.0760 S   0  0  0  0  0  0  0  0  0  0  0  0
   38.2350   25.2376   37.2551 H   0  0  0  0  0  0  0  0  0  0  0  0
   36.9216   24.0996   37.2422 H   0  0  0  0  0  0  0  0  0  0  0  0
   39.0435   24.1378   39.1716 H   0  0  0  0  0  0  0  0  0  0  0  0
   38.0237   22.7239   38.9165 H   0  0  0  0  0  0  0  0  0  0  0  0
   40.8006   22.8011   38.3924 H   0  0  0  0  0  0  0  0  0  0  0  0
   39.7599   21.6237   37.6477 H   0  0  0  0  0  0  0  0  0  0  0  0
   40.5284   24.4417   36.5765 H   0  0  0  0  0  0  0  0  0  0  0  0
   37.4741   21.0740   35.6290 H   0  0  0  0  0  0  0  0  0  0  0  0
   36.3965   20.4145   33.4455 H   0  0  0  0  0  0  0  0  0  0  0  0
   37.3959   24.2386   31.8510 H   0  0  0  0  0  0  0  0  0  0  0  0
   40.9479   23.3972   34.5627 H   0  0  0  0  0  0  0  0  0  0  0  0
   40.4871   21.7882   35.2740 H   0  0  0  0  0  0  0  0  0  0  0  0
   42.5962   22.5461   37.4460 H   0  0  0  0  0  0  0  0  0  0  0  0
  1  5  1  0
  1  2  1  0
  2  3  1  0
  4  3  1  0
  5  4  1  0
  6  1  1  0
  7  6  2  0
  8  7  1  0
  9 10  1  0
  9  8  2  0
 10 11  2  0
 11  6  1  0
 12 13  1  0
 12  5  1  0
  2 14  1  0
  2 15  1  0
  3 16  1  0
  3 17  1  0
  4 18  1  0
  4 19  1  0
  5 20  1  1
  7 21  1  0
  8 22  1  0
 10 23  1  0
 12 24  1  0
 12 25  1  0
 13 26  1  0
M  ISO  8  14  13  15  13  16  13  17  13  18  13  19  13  20  13  21  14
M  ISO  5  22  14  23  14  24   8  25   8  26  11
M  END
>  <minimizedAffinity>  (1) 
-3.38201547

>  <minimizedRMSD>  (1) 
0.109502196

$$$$
