
     RDKit          3D

 47 51  0  0  1  0  0  0  0  0999 V2000
   40.9270   23.2750   35.5620 C   0  0  0  0  0  0  0  0  0  0  0  0
   42.2600   23.7770   35.6900 C   0  0  0  0  0  0  0  0  0  0  0  0
   43.1600   23.4480   36.6320 N   0  0  0  0  0  0  0  0  0  0  0  0
   44.3390   24.1660   36.8350 C   0  0  0  0  0  0  0  0  0  0  0  0
   44.6800   25.2430   36.1290 N   0  0  0  0  0  0  0  0  0  0  0  0
   43.8170   25.6200   35.1690 C   0  0  0  0  0  0  0  0  0  0  0  0
   44.1700   26.7070   34.3850 C   0  0  0  0  0  0  0  0  0  0  0  0
   43.3490   27.0810   33.3300 C   0  0  0  0  0  0  0  0  0  0  0  0
   42.1950   26.3280   33.0870 C   0  0  0  0  0  0  0  0  0  0  0  0
   41.8970   25.2460   33.9000 C   0  0  0  0  0  0  0  0  0  0  0  0
   42.6510   24.8420   35.0000 C   0  0  0  0  0  0  0  0  0  0  0  0
   41.3540   24.0420   33.0920 C   0  0  0  0  0  0  0  0  0  0  0  0
   40.8800   24.3120   31.7860 C   0  0  0  0  0  0  0  0  0  0  0  0
   40.4160   23.5590   30.7350 C   0  0  0  0  0  0  0  0  0  0  0  0
   40.3980   22.2590   30.9820 N   0  0  0  0  0  0  0  0  0  0  0  0
   40.8160   21.8470   32.1830 C   0  0  0  0  0  0  0  0  0  0  0  0
   41.1920   22.7530   32.9660 N   0  0  0  0  0  0  0  0  0  0  0  0
   38.5390   23.6540   36.1300 N   0  0  0  0  0  0  0  0  0  0  0  0
   37.7600   24.0520   37.2870 C   0  0  0  0  0  0  0  0  0  0  0  0
   38.4680   23.3390   38.4160 C   0  0  0  0  0  0  0  0  0  0  0  0
   39.7610   22.8460   37.8040 C   0  0  0  0  0  0  0  0  0  0  0  0
   39.8960   23.7820   36.6130 C   0  0  1  0  0  0  0  0  0  0  0  0
   38.0350   23.2510   34.8560 C   0  0  0  0  0  0  0  0  0  0  0  0
   37.7360   21.9170   34.5240 C   0  0  0  0  0  0  0  0  0  0  0  0
   37.2660   21.6500   33.2480 C   0  0  0  0  0  0  0  0  0  0  0  0
   37.1260   22.7440   32.3900 N   0  0  0  0  0  0  0  0  0  0  0  0
   37.4150   23.9680   32.7470 C   0  0  0  0  0  0  0  0  0  0  0  0
   37.8830   24.3050   33.9830 N   0  0  0  0  0  0  0  0  0  0  0  0
   40.5565   23.5575   34.5655 H   0  0  0  0  0  0  0  0  0  0  0  0
   41.0047   22.1901   35.7264 H   0  0  0  0  0  0  0  0  0  0  0  0
   45.0260   23.8233   37.6228 H   0  0  0  0  0  0  0  0  0  0  0  0
   45.0921   27.2681   34.5968 H   0  0  0  0  0  0  0  0  0  0  0  0
   43.5994   27.9478   32.7007 H   0  0  0  0  0  0  0  0  0  0  0  0
   41.5272   26.5937   32.2543 H   0  0  0  0  0  0  0  0  0  0  0  0
   40.8842   25.3878   31.5565 H   0  0  0  0  0  0  0  0  0  0  0  0
   40.0904   23.9951   29.7791 H   0  0  0  0  0  0  0  0  0  0  0  0
   40.8295   20.7842   32.4663 H   0  0  0  0  0  0  0  0  0  0  0  0
   37.7850   25.1427   37.4275 H   0  0  0  0  0  0  0  0  0  0  0  0
   36.6929   23.7973   37.2071 H   0  0  0  0  0  0  0  0  0  0  0  0
   38.6705   24.0315   39.2463 H   0  0  0  0  0  0  0  0  0  0  0  0
   37.8655   22.5196   38.8351 H   0  0  0  0  0  0  0  0  0  0  0  0
   40.6049   22.9553   38.5010 H   0  0  0  0  0  0  0  0  0  0  0  0
   39.7595   21.7776   37.5422 H   0  0  0  0  0  0  0  0  0  0  0  0
   40.2560   24.7973   36.8357 H   0  0  0  0  0  0  0  0  0  0  0  0
   37.8716   21.1082   35.2571 H   0  0  0  0  0  0  0  0  0  0  0  0
   37.0157   20.6282   32.9267 H   0  0  0  0  0  0  0  0  0  0  0  0
   37.2727   24.7712   32.0091 H   0  0  0  0  0  0  0  0  0  0  0  0
  1  2  1  0
  1 22  1  0
  2  3  2  0
  3  4  1  0
  5  4  2  0
  6  5  1  0
  7  6  2  0
  8  7  1  0
  9  8  2  0
  9 10  1  0
 10 11  2  0
 11  6  1  0
 11  2  1  0
 12 10  1  0
 13 12  2  0
 14 15  2  0
 14 13  1  0
 15 16  1  0
 16 17  2  0
 17 12  1  0
 18 22  1  0
 18 19  1  0
 19 20  1  0
 21 20  1  0
 22 21  1  0
 23 18  1  0
 24 23  2  0
 25 24  1  0
 26 27  1  0
 26 25  2  0
 27 28  2  0
 28 23  1  0
  1 29  1  0
  1 30  1  0
  4 31  1  0
  7 32  1  0
  8 33  1  0
  9 34  1  0
 13 35  1  0
 14 36  1  0
 16 37  1  0
 19 38  1  0
 19 39  1  0
 20 40  1  0
 20 41  1  0
 21 42  1  0
 21 43  1  0
 22 44  1  1
 24 45  1  0
 25 46  1  0
 27 47  1  0
M  ISO  8  29   8  30   8  31  14  32  14  33  14  34  14  35  14  36  14
M  ISO  8  37  14  38  13  39  13  40  13  41  13  42  13  43  13  44  13
M  ISO  3  45  14  46  14  47  14
M  END
>  <minimizedAffinity>  (1) 
-4.79610109

>  <minimizedRMSD>  (1) 
0.50778383

$$$$
