
     RDKit          3D

 40 43  0  0  1  0  0  0  0  0999 V2000
   38.4500   23.6250   36.0850 N   0  0  0  0  0  0  0  0  0  0  0  0
   37.6620   23.9870   37.2500 C   0  0  0  0  0  0  0  0  0  0  0  0
   38.4140   23.2930   38.3700 C   0  0  0  0  0  0  0  0  0  0  0  0
   39.7400   22.8770   37.7530 C   0  0  0  0  0  0  0  0  0  0  0  0
   39.8080   23.7910   36.5420 C   0  0  1  0  0  0  0  0  0  0  0  0
   37.9540   23.2090   34.8190 C   0  0  0  0  0  0  0  0  0  0  0  0
   37.6320   21.8870   34.5130 C   0  0  0  0  0  0  0  0  0  0  0  0
   37.1880   21.5860   33.2230 C   0  0  0  0  0  0  0  0  0  0  0  0
   37.0990   22.6350   32.3250 N   0  0  0  0  0  0  0  0  0  0  0  0
   37.4180   23.9040   32.6530 C   0  0  0  0  0  0  0  0  0  0  0  0
   37.8410   24.1860   33.8940 N   0  0  0  0  0  0  0  0  0  0  0  0
   40.8410   23.3750   35.4990 C   0  0  0  0  0  0  0  0  0  0  0  0
   42.1740   23.9080   35.6910 C   0  0  0  0  0  0  0  0  0  0  0  0
   43.0510   23.5240   36.6370 N   0  0  0  0  0  0  0  0  0  0  0  0
   44.2600   24.1490   36.8270 C   0  0  0  0  0  0  0  0  0  0  0  0
   44.6740   25.1970   36.0940 N   0  0  0  0  0  0  0  0  0  0  0  0
   43.8360   25.6380   35.1170 C   0  0  0  0  0  0  0  0  0  0  0  0
   44.2280   26.6920   34.3350 C   0  0  0  0  0  0  0  0  0  0  0  0
   43.4110   27.1370   33.3190 C   0  0  0  0  0  0  0  0  0  0  0  0
   42.2110   26.4990   33.1080 C   0  0  0  0  0  0  0  0  0  0  0  0
   41.8440   25.4350   33.9200 C   0  0  0  0  0  0  0  0  0  0  0  0
   42.6100   24.9680   34.9490 C   0  0  0  0  0  0  0  0  0  0  0  0
   40.6710   24.9660   33.4930 O   0  0  0  0  0  0  0  0  0  0  0  0
   37.6437   25.0770   37.3968 H   0  0  0  0  0  0  0  0  0  0  0  0
   36.6045   23.6928   37.1780 H   0  0  0  0  0  0  0  0  0  0  0  0
   38.5781   23.9826   39.2111 H   0  0  0  0  0  0  0  0  0  0  0  0
   37.8571   22.4338   38.7720 H   0  0  0  0  0  0  0  0  0  0  0  0
   40.5785   23.0585   38.4415 H   0  0  0  0  0  0  0  0  0  0  0  0
   39.8069   21.8059   37.5118 H   0  0  0  0  0  0  0  0  0  0  0  0
   40.1300   24.8214   36.7534 H   0  0  0  0  0  0  0  0  0  0  0  0
   37.7258   21.0968   35.2724 H   0  0  0  0  0  0  0  0  0  0  0  0
   36.9206   20.5590   32.9335 H   0  0  0  0  0  0  0  0  0  0  0  0
   37.3314   24.7054   31.9045 H   0  0  0  0  0  0  0  0  0  0  0  0
   40.4815   23.7092   34.5146 H   0  0  0  0  0  0  0  0  0  0  0  0
   40.9376   22.2830   35.5901 H   0  0  0  0  0  0  0  0  0  0  0  0
   44.9231   23.7723   37.6197 H   0  0  0  0  0  0  0  0  0  0  0  0
   45.1951   27.1831   34.5182 H   0  0  0  0  0  0  0  0  0  0  0  0
   43.7126   27.9864   32.6885 H   0  0  0  0  0  0  0  0  0  0  0  0
   41.5444   26.8309   32.2984 H   0  0  0  0  0  0  0  0  0  0  0  0
   40.2469   24.1994   33.9541 H   0  0  0  0  0  0  0  0  0  0  0  0
  1  5  1  0
  1  2  1  0
  2  3  1  0
  4  3  1  0
  5  4  1  0
  6  1  1  0
  7  6  2  0
  8  7  1  0
  9 10  1  0
  9  8  2  0
 10 11  2  0
 11  6  1  0
 12 13  1  0
 12  5  1  0
 13 14  2  0
 14 15  1  0
 16 15  2  0
 17 16  1  0
 18 17  2  0
 19 18  1  0
 20 19  2  0
 20 21  1  0
 21 22  2  0
 22 17  1  0
 22 13  1  0
 23 21  1  0
  2 24  1  0
  2 25  1  0
  3 26  1  0
  3 27  1  0
  4 28  1  0
  4 29  1  0
  5 30  1  1
  7 31  1  0
  8 32  1  0
 10 33  1  0
 12 34  1  0
 12 35  1  0
 15 36  1  0
 18 37  1  0
 19 38  1  0
 20 39  1  0
 23 40  1  0
M  ISO  8  24  13  25  13  26  13  27  13  28  13  29  13  30  13  31  14
M  ISO  8  32  14  33  14  34   8  35   8  36  14  37  14  38  14  39  14
M  ISO  1  40   3
M  END
>  <minimizedAffinity>  (1) 
-4.7768383

>  <minimizedRMSD>  (1) 
0.315148592

$$$$
