
     RDKit          3D

 41 44  0  0  1  0  0  0  0  0999 V2000
   38.4890   23.6060   36.1330 N   0  0  0  0  0  0  0  0  0  0  0  0
   37.7210   23.9240   37.3100 C   0  0  0  0  0  0  0  0  0  0  0  0
   38.5260   23.2290   38.4040 C   0  0  0  0  0  0  0  0  0  0  0  0
   39.8420   22.8580   37.7470 C   0  0  0  0  0  0  0  0  0  0  0  0
   39.8650   23.8010   36.5670 C   0  0  1  0  0  0  0  0  0  0  0  0
   37.9890   23.2050   34.8680 C   0  0  0  0  0  0  0  0  0  0  0  0
   37.6540   21.9070   34.5200 C   0  0  0  0  0  0  0  0  0  0  0  0
   37.2070   21.6430   33.2230 C   0  0  0  0  0  0  0  0  0  0  0  0
   37.1300   22.7270   32.3450 N   0  0  0  0  0  0  0  0  0  0  0  0
   37.4560   23.9660   32.7020 C   0  0  0  0  0  0  0  0  0  0  0  0
   37.8600   24.1240   33.9330 N   0  0  0  0  0  0  0  0  0  0  0  0
   40.8600   23.4710   35.4930 C   0  0  0  0  0  0  0  0  0  0  0  0
   42.1980   24.0010   35.6970 C   0  0  0  0  0  0  0  0  0  0  0  0
   43.0830   23.5300   36.6060 N   0  0  0  0  0  0  0  0  0  0  0  0
   44.3160   24.0640   36.7720 C   0  0  0  0  0  0  0  0  0  0  0  0
   44.7590   25.1040   36.0450 N   0  0  0  0  0  0  0  0  0  0  0  0
   43.9210   25.6070   35.1310 C   0  0  0  0  0  0  0  0  0  0  0  0
   44.3350   26.6820   34.3570 C   0  0  0  0  0  0  0  0  0  0  0  0
   43.5190   27.2490   33.3910 C   0  0  0  0  0  0  0  0  0  0  0  0
   42.2570   26.7050   33.2190 C   0  0  0  0  0  0  0  0  0  0  0  0
   41.8800   25.6150   34.0270 C   0  0  0  0  0  0  0  0  0  0  0  0
   42.6480   25.0570   34.9600 C   0  0  0  0  0  0  0  0  0  0  0  0
   40.6970   25.2870   33.6600 N   0  0  0  0  0  0  0  0  0  0  0  0
   37.6737   25.0104   37.4761 H   0  0  0  0  0  0  0  0  0  0  0  0
   36.6704   23.6025   37.2571 H   0  0  0  0  0  0  0  0  0  0  0  0
   38.6952   23.9098   39.2513 H   0  0  0  0  0  0  0  0  0  0  0  0
   38.0026   22.3493   38.8067 H   0  0  0  0  0  0  0  0  0  0  0  0
   40.6925   23.0371   38.4213 H   0  0  0  0  0  0  0  0  0  0  0  0
   39.9235   21.7955   37.4741 H   0  0  0  0  0  0  0  0  0  0  0  0
   40.1770   24.8272   36.8111 H   0  0  0  0  0  0  0  0  0  0  0  0
   37.7389   21.0938   35.2559 H   0  0  0  0  0  0  0  0  0  0  0  0
   36.9281   20.6269   32.9071 H   0  0  0  0  0  0  0  0  0  0  0  0
   37.3889   24.8098   31.9996 H   0  0  0  0  0  0  0  0  0  0  0  0
   40.4780   23.8712   34.5422 H   0  0  0  0  0  0  0  0  0  0  0  0
   40.9636   22.3759   35.5027 H   0  0  0  0  0  0  0  0  0  0  0  0
   44.9817   23.6294   37.5322 H   0  0  0  0  0  0  0  0  0  0  0  0
   45.3415   27.0966   34.5151 H   0  0  0  0  0  0  0  0  0  0  0  0
   43.8610   28.0997   32.7833 H   0  0  0  0  0  0  0  0  0  0  0  0
   41.5651   27.1149   32.4685 H   0  0  0  0  0  0  0  0  0  0  0  0
   40.2138   24.5026   34.1206 H   0  0  0  0  0  0  0  0  0  0  0  0
   40.2292   25.8077   32.9044 H   0  0  0  0  0  0  0  0  0  0  0  0
  1  5  1  0
  1  2  1  0
  2  3  1  0
  4  3  1  0
  5  4  1  0
  6  1  1  0
  7  6  2  0
  8  7  1  0
  9 10  1  0
  9  8  2  0
 10 11  2  0
 11  6  1  0
 12 13  1  0
 12  5  1  0
 13 14  2  0
 14 15  1  0
 16 15  2  0
 17 16  1  0
 18 17  2  0
 19 18  1  0
 20 19  2  0
 20 21  1  0
 21 22  2  0
 22 17  1  0
 22 13  1  0
 23 21  1  0
  2 24  1  0
  2 25  1  0
  3 26  1  0
  3 27  1  0
  4 28  1  0
  4 29  1  0
  5 30  1  1
  7 31  1  0
  8 32  1  0
 10 33  1  0
 12 34  1  0
 12 35  1  0
 15 36  1  0
 18 37  1  0
 19 38  1  0
 20 39  1  0
 23 40  1  0
 23 41  1  0
M  ISO  8  24  13  25  13  26  13  27  13  28  13  29  13  30  13  31  14
M  ISO  8  32  14  33  14  34   8  35   8  36  14  37  14  38  14  39  14
M  END
>  <minimizedAffinity>  (1) 
-4.77160215

>  <minimizedRMSD>  (1) 
0.345591187

$$$$
