
     RDKit          3D

 55 59  0  0  1  0  0  0  0  0999 V2000
   41.0350   23.6220   35.4220 C   0  0  0  0  0  0  0  0  0  0  0  0
   42.4230   23.9660   35.6520 C   0  0  0  0  0  0  0  0  0  0  0  0
   43.2480   23.4780   36.5810 N   0  0  0  0  0  0  0  0  0  0  0  0
   44.4930   24.0260   36.8770 C   0  0  0  0  0  0  0  0  0  0  0  0
   44.9820   25.1040   36.2660 N   0  0  0  0  0  0  0  0  0  0  0  0
   44.1990   25.6500   35.3110 C   0  0  0  0  0  0  0  0  0  0  0  0
   44.7040   26.7520   34.6380 C   0  0  0  0  0  0  0  0  0  0  0  0
   43.9680   27.3030   33.6130 C   0  0  0  0  0  0  0  0  0  0  0  0
   42.7490   26.7160   33.2790 C   0  0  0  0  0  0  0  0  0  0  0  0
   42.2870   25.6180   33.9670 C   0  0  0  0  0  0  0  0  0  0  0  0
   42.9550   25.0340   35.0460 C   0  0  0  0  0  0  0  0  0  0  0  0
   41.5430   24.5900   33.1450 C   0  0  0  0  0  0  0  0  0  0  0  0
   42.5450   23.9800   32.0890 C   0  0  0  0  0  0  0  0  0  0  0  0
   41.7800   22.8580   31.4420 C   0  0  0  0  0  0  0  0  0  0  0  0
   40.9740   23.5190   30.3680 C   0  0  0  0  0  0  0  0  0  0  0  0
   40.3080   24.7250   30.8740 C   0  0  0  0  0  0  0  0  0  0  0  0
   40.8030   25.4410   32.0530 C   0  0  0  0  0  0  0  0  0  0  0  0
   38.7180   24.1580   36.1790 N   0  0  0  0  0  0  0  0  0  0  0  0
   38.0040   24.3370   37.4290 C   0  0  0  0  0  0  0  0  0  0  0  0
   38.6030   23.2640   38.3010 C   0  0  0  0  0  0  0  0  0  0  0  0
   39.8080   22.7900   37.5410 C   0  0  0  0  0  0  0  0  0  0  0  0
   40.0710   23.9330   36.5740 C   0  0  1  0  0  0  0  0  0  0  0  0
   38.1450   24.2100   34.8910 C   0  0  0  0  0  0  0  0  0  0  0  0
   37.9930   23.0880   34.0520 C   0  0  0  0  0  0  0  0  0  0  0  0
   37.4740   23.2860   32.7770 C   0  0  0  0  0  0  0  0  0  0  0  0
   37.1420   24.5880   32.4250 N   0  0  0  0  0  0  0  0  0  0  0  0
   37.2990   25.6320   33.2600 C   0  0  0  0  0  0  0  0  0  0  0  0
   37.8000   25.4950   34.5160 N   0  0  0  0  0  0  0  0  0  0  0  0
   40.6922   24.1763   34.5359 H   0  0  0  0  0  0  0  0  0  0  0  0
   41.0139   22.5288   35.3013 H   0  0  0  0  0  0  0  0  0  0  0  0
   45.1039   23.5445   37.6548 H   0  0  0  0  0  0  0  0  0  0  0  0
   45.6778   27.1796   34.9187 H   0  0  0  0  0  0  0  0  0  0  0  0
   44.3340   28.1868   33.0699 H   0  0  0  0  0  0  0  0  0  0  0  0
   42.1502   27.1349   32.4569 H   0  0  0  0  0  0  0  0  0  0  0  0
   41.0058   23.9053   33.8178 H   0  0  0  0  0  0  0  0  0  0  0  0
   42.8302   24.7362   31.3428 H   0  0  0  0  0  0  0  0  0  0  0  0
   43.4798   23.6332   32.5537 H   0  0  0  0  0  0  0  0  0  0  0  0
   42.4688   22.1172   31.0099 H   0  0  0  0  0  0  0  0  0  0  0  0
   41.1496   22.3145   32.1612 H   0  0  0  0  0  0  0  0  0  0  0  0
   40.2122   22.8135   30.0048 H   0  0  0  0  0  0  0  0  0  0  0  0
   41.6515   23.8103   29.5518 H   0  0  0  0  0  0  0  0  0  0  0  0
   40.3120   25.4505   30.0472 H   0  0  0  0  0  0  0  0  0  0  0  0
   39.3444   24.3295   31.2277 H   0  0  0  0  0  0  0  0  0  0  0  0
   41.5040   26.2128   31.7024 H   0  0  0  0  0  0  0  0  0  0  0  0
   39.9018   25.8256   32.5528 H   0  0  0  0  0  0  0  0  0  0  0  0
   38.1830   25.3375   37.8497 H   0  0  0  0  0  0  0  0  0  0  0  0
   36.9116   24.2601   37.3258 H   0  0  0  0  0  0  0  0  0  0  0  0
   38.8968   23.6759   39.2777 H   0  0  0  0  0  0  0  0  0  0  0  0
   37.8932   22.4498   38.5090 H   0  0  0  0  0  0  0  0  0  0  0  0
   40.6646   22.6357   38.2136 H   0  0  0  0  0  0  0  0  0  0  0  0
   39.6525   21.8236   37.0392 H   0  0  0  0  0  0  0  0  0  0  0  0
   40.6045   24.7964   36.9982 H   0  0  0  0  0  0  0  0  0  0  0  0
   38.2772   22.0827   34.3963 H   0  0  0  0  0  0  0  0  0  0  0  0
   37.3327   22.4484   32.0781 H   0  0  0  0  0  0  0  0  0  0  0  0
   37.0106   26.6350   32.9124 H   0  0  0  0  0  0  0  0  0  0  0  0
  1  2  1  0
  1 22  1  0
  2  3  2  0
  3  4  1  0
  5  4  2  0
  6  5  1  0
  7  6  2  0
  8  7  1  0
  9  8  2  0
  9 10  1  0
 10 11  2  0
 11  6  1  0
 11  2  1  0
 12 10  1  0
 13 12  1  0
 14 13  1  0
 15 16  1  0
 15 14  1  0
 16 17  1  0
 17 12  1  0
 18 22  1  0
 18 19  1  0
 19 20  1  0
 21 20  1  0
 22 21  1  0
 23 18  1  0
 24 23  2  0
 25 24  1  0
 26 25  2  0
 26 27  1  0
 27 28  2  0
 28 23  1  0
  1 29  1  0
  1 30  1  0
  4 31  1  0
  7 32  1  0
  8 33  1  0
  9 34  1  0
 12 35  1  0
 13 36  1  0
 13 37  1  0
 14 38  1  0
 14 39  1  0
 15 40  1  0
 15 41  1  0
 16 42  1  0
 16 43  1  0
 17 44  1  0
 17 45  1  0
 19 46  1  0
 19 47  1  0
 20 48  1  0
 20 49  1  0
 21 50  1  0
 21 51  1  0
 22 52  1  1
 24 53  1  0
 25 54  1  0
 27 55  1  0
M  ISO  8  29   8  30   8  31  14  32  14  33  14  34  14  35  13  36  13
M  ISO  8  37  13  38  13  39  13  40  13  41  13  42  13  43  13  44  13
M  ISO  8  45  13  46  13  47  13  48  13  49  13  50  13  51  13  52  13
M  ISO  3  53  14  54  14  55  14
M  END
>  <minimizedAffinity>  (1) 
-4.69553041

>  <minimizedRMSD>  (1) 
0.985111952

$$$$
