
     RDKit          3D

 36 38  0  0  0  0  0  0  0  0999 V2000
   38.5770   25.9110   34.9220 C   0  0  0  0  0  0  0  0  0  0  0  0
   38.0510   24.1820   38.0850 C   0  0  0  0  0  0  0  0  0  0  0  0
   38.9650   23.0930   38.0230 C   0  0  0  0  0  0  0  0  0  0  0  0
   39.7530   22.9840   36.8720 C   0  0  0  0  0  0  0  0  0  0  0  0
   39.6040   23.9130   35.8860 N   0  0  0  0  0  0  0  0  0  0  0  0
   38.7080   24.9420   35.9980 C   0  0  0  0  0  0  0  0  0  0  0  0
   37.9490   25.0640   37.0840 N   0  0  0  0  0  0  0  0  0  0  0  0
   39.5550   27.0890   35.0700 C   0  0  0  0  0  0  0  0  0  0  0  0
   37.1540   26.4940   34.9190 C   0  0  0  0  0  0  0  0  0  0  0  0
   38.8510   25.3470   33.5530 C   0  0  0  0  0  0  0  0  0  0  0  0
   37.6900   25.2450   32.7150 C   0  0  0  0  0  0  0  0  0  0  0  0
   37.0720   26.2510   32.0680 N   0  0  0  0  0  0  0  0  0  0  0  0
   35.9970   26.1220   31.2860 C   0  0  0  0  0  0  0  0  0  0  0  0
   35.4210   24.9170   31.0730 N   0  0  0  0  0  0  0  0  0  0  0  0
   35.9730   23.8550   31.6790 C   0  0  0  0  0  0  0  0  0  0  0  0
   35.3850   22.6190   31.4510 C   0  0  0  0  0  0  0  0  0  0  0  0
   35.9290   21.5000   32.0480 C   0  0  0  0  0  0  0  0  0  0  0  0
   37.0430   21.5780   32.8710 C   0  0  0  0  0  0  0  0  0  0  0  0
   37.5730   22.8390   33.0520 C   0  0  0  0  0  0  0  0  0  0  0  0
   37.0760   24.0110   32.4790 C   0  0  0  0  0  0  0  0  0  0  0  0
   37.4150   24.3012   38.9745 H   0  0  0  0  0  0  0  0  0  0  0  0
   39.0485   22.3674   38.8455 H   0  0  0  0  0  0  0  0  0  0  0  0
   40.4787   22.1643   36.7650 H   0  0  0  0  0  0  0  0  0  0  0  0
   39.7244   27.2930   36.1376 H   0  0  0  0  0  0  0  0  0  0  0  0
   40.5110   26.8345   34.5891 H   0  0  0  0  0  0  0  0  0  0  0  0
   39.1290   27.9819   34.5891 H   0  0  0  0  0  0  0  0  0  0  0  0
   36.8128   26.6338   35.9554 H   0  0  0  0  0  0  0  0  0  0  0  0
   37.1561   27.4637   34.3997 H   0  0  0  0  0  0  0  0  0  0  0  0
   36.4751   25.8015   34.3997 H   0  0  0  0  0  0  0  0  0  0  0  0
   39.5821   25.9983   33.0517 H   0  0  0  0  0  0  0  0  0  0  0  0
   39.2239   24.3229   33.7021 H   0  0  0  0  0  0  0  0  0  0  0  0
   35.5710   27.0148   30.8049 H   0  0  0  0  0  0  0  0  0  0  0  0
   34.4992   22.5325   30.8046 H   0  0  0  0  0  0  0  0  0  0  0  0
   35.4663   20.5187   31.8662 H   0  0  0  0  0  0  0  0  0  0  0  0
   37.4775   20.6884   33.3503 H   0  0  0  0  0  0  0  0  0  0  0  0
   38.4578   22.9279   33.6995 H   0  0  0  0  0  0  0  0  0  0  0  0
  1  8  1  0
  1  6  1  0
  3  2  2  0
  4  3  1  0
  5  6  1  0
  5  4  2  0
  6  7  2  0
  7  2  1  0
  9  1  1  0
 10  1  1  0
 11 10  1  0
 12 11  2  0
 13 12  1  0
 14 13  2  0
 14 15  1  0
 15 20  2  0
 16 15  1  0
 16 17  2  0
 17 18  1  0
 18 19  2  0
 20 11  1  0
 20 19  1  0
  2 21  1  0
  3 22  1  0
  4 23  1  0
  8 24  1  0
  8 25  1  0
  8 26  1  0
  9 27  1  0
  9 28  1  0
  9 29  1  0
 10 30  1  0
 10 31  1  0
 13 32  1  0
 16 33  1  0
 17 34  1  0
 18 35  1  0
 19 36  1  0
M  ISO  8  21  14  22  14  23  14  24   8  25   8  26   8  27   8  28   8
M  ISO  8  29   8  30   8  31   8  32  14  33  14  34  14  35  14  36  14
M  END
>  <minimizedAffinity>  (1) 
-5.32945299

>  <minimizedRMSD>  (1) 
3.6989131

$$$$
