
     RDKit          3D

 36 38  0  0  0  0  0  0  0  0999 V2000
   38.5740   23.0360   36.0260 C   0  0  0  0  0  0  0  0  0  0  0  0
   37.6710   25.8260   33.8210 C   0  0  0  0  0  0  0  0  0  0  0  0
   37.7680   26.9570   34.6570 C   0  0  0  0  0  0  0  0  0  0  0  0
   38.1510   26.7370   35.9900 C   0  0  0  0  0  0  0  0  0  0  0  0
   38.4050   25.4640   36.4080 N   0  0  0  0  0  0  0  0  0  0  0  0
   38.2940   24.4070   35.5540 C   0  0  0  0  0  0  0  0  0  0  0  0
   37.9270   24.5840   34.2590 N   0  0  0  0  0  0  0  0  0  0  0  0
   37.3330   22.1710   35.9870 C   0  0  0  0  0  0  0  0  0  0  0  0
   39.0520   23.1130   37.4830 C   0  0  0  0  0  0  0  0  0  0  0  0
   39.6380   22.3430   35.2080 C   0  0  0  0  0  0  0  0  0  0  0  0
   40.9590   22.6090   35.7320 N   0  0  0  0  0  0  0  0  0  0  0  0
   41.6240   21.6880   36.4890 C   0  0  0  0  0  0  0  0  0  0  0  0
   42.8320   22.1790   36.8510 N   0  0  0  0  0  0  0  0  0  0  0  0
   42.9670   23.4030   36.3450 C   0  0  0  0  0  0  0  0  0  0  0  0
   43.9170   24.4040   36.3410 C   0  0  0  0  0  0  0  0  0  0  0  0
   44.9850   24.2190   36.9520 O   0  0  0  0  0  0  0  0  0  0  0  0
   43.7510   25.5850   35.7080 N   0  0  0  0  0  0  0  0  0  0  0  0
   42.5750   25.7700   35.0450 C   0  0  0  0  0  0  0  0  0  0  0  0
   42.2870   26.9840   34.3360 N   0  0  0  0  0  0  0  0  0  0  0  0
   41.6040   24.8150   35.0160 N   0  0  0  0  0  0  0  0  0  0  0  0
   41.8020   23.6540   35.6560 C   0  0  0  0  0  0  0  0  0  0  0  0
   37.3746   25.9670   32.7711 H   0  0  0  0  0  0  0  0  0  0  0  0
   37.5529   27.9682   34.2813 H   0  0  0  0  0  0  0  0  0  0  0  0
   38.2450   27.5814   36.6887 H   0  0  0  0  0  0  0  0  0  0  0  0
   37.0104   21.9461   37.0143 H   0  0  0  0  0  0  0  0  0  0  0  0
   36.5297   22.7059   35.4592 H   0  0  0  0  0  0  0  0  0  0  0  0
   37.5568   21.2322   35.4592 H   0  0  0  0  0  0  0  0  0  0  0  0
   38.1945   22.9749   38.1580 H   0  0  0  0  0  0  0  0  0  0  0  0
   39.7948   22.3229   37.6674 H   0  0  0  0  0  0  0  0  0  0  0  0
   39.5091   24.0964   37.6674 H   0  0  0  0  0  0  0  0  0  0  0  0
   39.5845   22.7044   34.1704 H   0  0  0  0  0  0  0  0  0  0  0  0
   39.4587   21.2586   35.2518 H   0  0  0  0  0  0  0  0  0  0  0  0
   41.2362   20.6959   36.7635 H   0  0  0  0  0  0  0  0  0  0  0  0
   44.4798   26.3126   35.7255 H   0  0  0  0  0  0  0  0  0  0  0  0
   41.3883   27.0926   33.8447 H   0  0  0  0  0  0  0  0  0  0  0  0
   42.9790   27.7467   34.3185 H   0  0  0  0  0  0  0  0  0  0  0  0
  1  9  1  0
  2  7  2  0
  2  3  1  0
  3  4  2  0
  4  5  1  0
  6  1  1  0
  6  5  2  0
  7  6  1  0
  8  1  1  0
 10 11  1  0
 10  1  1  0
 11 12  1  0
 12 13  2  0
 14 13  1  0
 15 14  1  0
 15 16  2  0
 17 15  1  0
 18 17  1  0
 19 18  1  0
 20 18  2  0
 20 21  1  0
 21 11  1  0
 21 14  2  0
  2 22  1  0
  3 23  1  0
  4 24  1  0
  8 25  1  0
  8 26  1  0
  8 27  1  0
  9 28  1  0
  9 29  1  0
  9 30  1  0
 10 31  1  0
 10 32  1  0
 12 33  1  0
 17 34  1  0
 19 35  1  0
 19 36  1  0
M  ISO  8  22  14  23  14  24  14  25   8  26   8  27   8  28   8  29   8
M  ISO  5  30   8  31   8  32   8  33  14  34   9
M  END
>  <minimizedAffinity>  (1) 
-4.90423536

>  <minimizedRMSD>  (1) 
5.52177763

$$$$
