
     RDKit          3D

 38 40  0  0  0  0  0  0  0  0999 V2000
   38.4570   25.6560   34.9640 C   0  0  0  0  0  0  0  0  0  0  0  0
   39.7150   23.0040   37.1340 C   0  0  0  0  0  0  0  0  0  0  0  0
   38.9870   23.1780   38.3390 C   0  0  0  0  0  0  0  0  0  0  0  0
   38.0510   24.2300   38.3990 C   0  0  0  0  0  0  0  0  0  0  0  0
   37.9000   25.0160   37.3050 N   0  0  0  0  0  0  0  0  0  0  0  0
   38.6140   24.8180   36.1690 C   0  0  0  0  0  0  0  0  0  0  0  0
   39.5150   23.8160   36.0940 N   0  0  0  0  0  0  0  0  0  0  0  0
   37.0810   26.3640   35.0190 C   0  0  0  0  0  0  0  0  0  0  0  0
   38.4380   24.7900   33.7280 C   0  0  0  0  0  0  0  0  0  0  0  0
   39.4530   26.7770   34.8790 C   0  0  0  0  0  0  0  0  0  0  0  0
   39.9620   27.0910   33.5420 C   0  0  0  0  0  0  0  0  0  0  0  0
   39.0100   27.3060   32.5300 C   0  0  0  0  0  0  0  0  0  0  0  0
   39.2820   27.5360   31.2180 C   0  0  0  0  0  0  0  0  0  0  0  0
   40.5940   27.5670   30.8180 C   0  0  0  0  0  0  0  0  0  0  0  0
   41.5650   27.3680   31.7470 C   0  0  0  0  0  0  0  0  0  0  0  0
   42.9120   27.4040   31.4340 C   0  0  0  0  0  0  0  0  0  0  0  0
   43.9490   27.2310   32.3380 C   0  0  0  0  0  0  0  0  0  0  0  0
   43.5460   27.0070   33.6530 C   0  0  0  0  0  0  0  0  0  0  0  0
   42.2300   26.9550   34.0520 C   0  0  0  0  0  0  0  0  0  0  0  0
   41.2590   27.1370   33.0790 C   0  0  0  0  0  0  0  0  0  0  0  0
   40.4521   22.1912   37.0560 H   0  0  0  0  0  0  0  0  0  0  0  0
   39.1480   22.5125   39.1999 H   0  0  0  0  0  0  0  0  0  0  0  0
   37.4591   24.4084   39.3089 H   0  0  0  0  0  0  0  0  0  0  0  0
   36.7879   26.5148   36.0685 H   0  0  0  0  0  0  0  0  0  0  0  0
   37.1497   27.3387   34.5138 H   0  0  0  0  0  0  0  0  0  0  0  0
   36.3279   25.7415   34.5138 H   0  0  0  0  0  0  0  0  0  0  0  0
   38.4148   23.7305   34.0229 H   0  0  0  0  0  0  0  0  0  0  0  0
   37.5448   25.0239   33.1301 H   0  0  0  0  0  0  0  0  0  0  0  0
   39.3406   24.9845   33.1301 H   0  0  0  0  0  0  0  0  0  0  0  0
   38.9727   27.6833   35.2764 H   0  0  0  0  0  0  0  0  0  0  0  0
   40.3272   26.4378   35.4541 H   0  0  0  0  0  0  0  0  0  0  0  0
   37.9508   27.2864   32.8261 H   0  0  0  0  0  0  0  0  0  0  0  0
   38.4690   27.6936   30.4939 H   0  0  0  0  0  0  0  0  0  0  0  0
   40.8547   27.7495   29.7650 H   0  0  0  0  0  0  0  0  0  0  0  0
   43.1822   27.5844   30.3831 H   0  0  0  0  0  0  0  0  0  0  0  0
   45.0073   27.2677   32.0403 H   0  0  0  0  0  0  0  0  0  0  0  0
   44.3249   26.8634   34.4163 H   0  0  0  0  0  0  0  0  0  0  0  0
   41.9587   26.7759   35.1029 H   0  0  0  0  0  0  0  0  0  0  0  0
  1  8  1  0
  1  6  1  0
  2  3  2  0
  3  4  1  0
  5  4  2  0
  6  5  1  0
  7  6  2  0
  7  2  1  0
  9  1  1  0
 10  1  1  0
 11 10  1  0
 12 11  2  0
 13 12  1  0
 14 13  2  0
 14 15  1  0
 15 20  2  0
 16 15  1  0
 16 17  2  0
 17 18  1  0
 18 19  2  0
 20 11  1  0
 20 19  1  0
  2 21  1  0
  3 22  1  0
  4 23  1  0
  8 24  1  0
  8 25  1  0
  8 26  1  0
  9 27  1  0
  9 28  1  0
  9 29  1  0
 10 30  1  0
 10 31  1  0
 12 32  1  0
 13 33  1  0
 14 34  1  0
 16 35  1  0
 17 36  1  0
 18 37  1  0
 19 38  1  0
M  ISO  8  21  14  22  14  23  14  24   8  25   8  26   8  27   8  28   8
M  ISO  8  29   8  30   8  31   8  32  14  33  14  34  14  35  14  36  14
M  ISO  2  37  14  38  14
M  END
>  <minimizedAffinity>  (1) 
-4.84997797

>  <minimizedRMSD>  (1) 
1.14094794

$$$$
