
     RDKit          3D

 33 35  0  0  0  0  0  0  0  0999 V2000
   39.0280   24.4800   35.5700 C   0  0  0  0  0  0  0  0  0  0  0  0
   41.8450   22.1510   35.3970 C   0  0  0  0  0  0  0  0  0  0  0  0
   41.8490   21.5280   36.6550 C   0  0  0  0  0  0  0  0  0  0  0  0
   40.8570   21.9260   37.5750 C   0  0  0  0  0  0  0  0  0  0  0  0
   39.9600   22.8820   37.1950 N   0  0  0  0  0  0  0  0  0  0  0  0
   40.0010   23.4470   35.9740 C   0  0  0  0  0  0  0  0  0  0  0  0
   40.9390   23.0830   35.0800 N   0  0  0  0  0  0  0  0  0  0  0  0
   38.0830   24.8070   36.7260 C   0  0  0  0  0  0  0  0  0  0  0  0
   38.1870   23.9570   34.4120 C   0  0  0  0  0  0  0  0  0  0  0  0
   39.6700   25.7800   35.1500 C   0  0  0  0  0  0  0  0  0  0  0  0
   39.0720   26.3920   34.0020 N   0  0  0  0  0  0  0  0  0  0  0  0
   39.5840   26.2100   32.7550 C   0  0  0  0  0  0  0  0  0  0  0  0
   38.8490   26.8870   31.8310 N   0  0  0  0  0  0  0  0  0  0  0  0
   37.8460   27.5170   32.5020 C   0  0  0  0  0  0  0  0  0  0  0  0
   36.8110   28.3380   32.0810 C   0  0  0  0  0  0  0  0  0  0  0  0
   35.9990   28.7850   33.0410 N   0  0  0  0  0  0  0  0  0  0  0  0
   36.1480   28.4760   34.3550 C   0  0  0  0  0  0  0  0  0  0  0  0
   37.1650   27.6690   34.7740 N   0  0  0  0  0  0  0  0  0  0  0  0
   38.0050   27.1980   33.8330 C   0  0  0  0  0  0  0  0  0  0  0  0
   42.6048   21.8661   34.6543 H   0  0  0  0  0  0  0  0  0  0  0  0
   42.5947   20.7614   36.9124 H   0  0  0  0  0  0  0  0  0  0  0  0
   40.8072   21.4756   38.5773 H   0  0  0  0  0  0  0  0  0  0  0  0
   38.5975   24.6290   37.6818 H   0  0  0  0  0  0  0  0  0  0  0  0
   37.7794   25.8625   36.6641 H   0  0  0  0  0  0  0  0  0  0  0  0
   37.1920   24.1649   36.6641 H   0  0  0  0  0  0  0  0  0  0  0  0
   37.3153   23.4149   34.8074 H   0  0  0  0  0  0  0  0  0  0  0  0
   37.8450   24.8020   33.7963 H   0  0  0  0  0  0  0  0  0  0  0  0
   38.7936   23.2766   33.7963 H   0  0  0  0  0  0  0  0  0  0  0  0
   39.6005   26.4854   35.9912 H   0  0  0  0  0  0  0  0  0  0  0  0
   40.7079   25.5423   34.8738 H   0  0  0  0  0  0  0  0  0  0  0  0
   40.4699   25.5998   32.5251 H   0  0  0  0  0  0  0  0  0  0  0  0
   36.6683   28.6039   31.0232 H   0  0  0  0  0  0  0  0  0  0  0  0
   35.4390   28.8820   35.0915 H   0  0  0  0  0  0  0  0  0  0  0  0
  1  6  1  0
  1  8  1  0
  2  3  2  0
  3  4  1  0
  5  4  2  0
  6  5  1  0
  7  2  1  0
  7  6  2  0
  9  1  1  0
 10  1  1  0
 11 10  1  0
 12 11  1  0
 13 14  1  0
 13 12  2  0
 14 19  2  0
 15 14  1  0
 15 16  2  0
 16 17  1  0
 17 18  2  0
 19 11  1  0
 19 18  1  0
  2 20  1  0
  3 21  1  0
  4 22  1  0
  8 23  1  0
  8 24  1  0
  8 25  1  0
  9 26  1  0
  9 27  1  0
  9 28  1  0
 10 29  1  0
 10 30  1  0
 12 31  1  0
 15 32  1  0
 17 33  1  0
M  ISO  8  20  14  21  14  22  14  23   8  24   8  25   8  26   8  27   8
M  ISO  6  28   8  29   8  30   8  31  14  32  14  33  14
M  END
>  <minimizedAffinity>  (1) 
-4.21005726

>  <minimizedRMSD>  (1) 
2.50540423

$$$$
