
     RDKit          3D

 27 28  0  0  0  0  0  0  0  0999 V2000
   38.7540   26.1520   35.1700 C   0  0  0  0  0  0  0  0  0  0  0  0
   37.9710   24.3770   38.2620 C   0  0  0  0  0  0  0  0  0  0  0  0
   38.7130   23.1880   38.1640 C   0  0  0  0  0  0  0  0  0  0  0  0
   39.5050   23.0080   36.9920 C   0  0  0  0  0  0  0  0  0  0  0  0
   39.4990   23.9860   36.0400 N   0  0  0  0  0  0  0  0  0  0  0  0
   38.7570   25.1120   36.1990 C   0  0  0  0  0  0  0  0  0  0  0  0
   37.9970   25.3090   37.3020 N   0  0  0  0  0  0  0  0  0  0  0  0
   40.1660   26.5210   34.7370 C   0  0  0  0  0  0  0  0  0  0  0  0
   38.0730   27.4050   35.6890 C   0  0  0  0  0  0  0  0  0  0  0  0
   38.0490   25.7160   33.8850 C   0  0  0  0  0  0  0  0  0  0  0  0
   37.6500   26.8720   33.0590 C   0  0  0  0  0  0  0  0  0  0  0  0
   38.3710   27.5070   32.1170 N   0  0  0  0  0  0  0  0  0  0  0  0
   37.6560   28.4910   31.6080 O   0  0  0  0  0  0  0  0  0  0  0  0
   36.4640   28.5280   32.1940 C   0  0  0  0  0  0  0  0  0  0  0  0
   36.4650   27.5120   33.1030 N   0  0  0  0  0  0  0  0  0  0  0  0
   37.3504   24.5469   39.1542 H   0  0  0  0  0  0  0  0  0  0  0  0
   38.6842   22.4276   38.9583 H   0  0  0  0  0  0  0  0  0  0  0  0
   40.1091   22.0986   36.8577 H   0  0  0  0  0  0  0  0  0  0  0  0
   40.7915   26.6845   35.6270 H   0  0  0  0  0  0  0  0  0  0  0  0
   40.5905   25.7036   34.1356 H   0  0  0  0  0  0  0  0  0  0  0  0
   40.1363   27.4415   34.1356 H   0  0  0  0  0  0  0  0  0  0  0  0
   38.0778   27.3961   36.7890 H   0  0  0  0  0  0  0  0  0  0  0  0
   38.6129   28.2924   35.3271 H   0  0  0  0  0  0  0  0  0  0  0  0
   37.0347   27.4347   35.3271 H   0  0  0  0  0  0  0  0  0  0  0  0
   38.7322   25.0808   33.3021 H   0  0  0  0  0  0  0  0  0  0  0  0
   37.1387   25.1654   34.1646 H   0  0  0  0  0  0  0  0  0  0  0  0
   35.6452   29.2331   31.9881 H   0  0  0  0  0  0  0  0  0  0  0  0
  1  9  1  0
  1  6  1  0
  3  2  2  0
  4  3  1  0
  5  6  1  0
  5  4  2  0
  6  7  2  0
  7  2  1  0
  8  1  1  0
 10  1  1  0
 11 15  1  0
 11 10  1  0
 12 11  2  0
 13 12  1  0
 13 14  1  0
 14 15  2  0
  2 16  1  0
  3 17  1  0
  4 18  1  0
  8 19  1  0
  8 20  1  0
  8 21  1  0
  9 22  1  0
  9 23  1  0
  9 24  1  0
 10 25  1  0
 10 26  1  0
 14 27  1  0
M  ISO  8  16  14  17  14  18  14  19   8  20   8  21   8  22   8  23   8
M  ISO  4  24   8  25   8  26   8  27  14
M  END
>  <minimizedAffinity>  (1) 
-4.0613184

>  <minimizedRMSD>  (1) 
2.34364748

$$$$
