
     RDKit          3D

 28 29  0  0  0  0  0  0  0  0999 V2000
   38.5320   25.8790   35.0260 C   0  0  0  0  0  0  0  0  0  0  0  0
   39.7000   22.9980   36.9760 C   0  0  0  0  0  0  0  0  0  0  0  0
   38.9430   23.1060   38.1790 C   0  0  0  0  0  0  0  0  0  0  0  0
   38.0400   24.1750   38.3010 C   0  0  0  0  0  0  0  0  0  0  0  0
   37.9330   25.0530   37.2620 N   0  0  0  0  0  0  0  0  0  0  0  0
   38.6680   24.9180   36.1360 C   0  0  0  0  0  0  0  0  0  0  0  0
   39.5410   23.8970   36.0040 N   0  0  0  0  0  0  0  0  0  0  0  0
   39.6360   26.9190   35.0510 C   0  0  0  0  0  0  0  0  0  0  0  0
   37.1850   26.6080   35.1560 C   0  0  0  0  0  0  0  0  0  0  0  0
   38.5940   25.2230   33.6740 C   0  0  0  0  0  0  0  0  0  0  0  0
   38.6360   26.1770   32.5400 C   0  0  0  0  0  0  0  0  0  0  0  0
   37.4190   26.7180   31.9550 C   0  0  0  0  0  0  0  0  0  0  0  0
   38.0660   27.7980   30.6440 S   0  0  0  0  0  0  0  0  0  0  0  0
   39.8640   27.3510   31.0920 C   0  0  0  0  0  0  0  0  0  0  0  0
   39.7380   26.6230   31.9610 N   0  0  0  0  0  0  0  0  0  0  0  0
   40.4159   22.1725   36.8494 H   0  0  0  0  0  0  0  0  0  0  0  0
   39.0627   22.3722   38.9897 H   0  0  0  0  0  0  0  0  0  0  0  0
   37.4347   24.3011   39.2108 H   0  0  0  0  0  0  0  0  0  0  0  0
   39.8904   27.1587   36.0940 H   0  0  0  0  0  0  0  0  0  0  0  0
   40.5249   26.5225   34.5386 H   0  0  0  0  0  0  0  0  0  0  0  0
   39.2932   27.8300   34.5386 H   0  0  0  0  0  0  0  0  0  0  0  0
   36.9408   26.7401   36.2204 H   0  0  0  0  0  0  0  0  0  0  0  0
   37.2526   27.5927   34.6703 H   0  0  0  0  0  0  0  0  0  0  0  0
   36.3976   26.0129   34.6703 H   0  0  0  0  0  0  0  0  0  0  0  0
   39.4988   24.5988   33.6340 H   0  0  0  0  0  0  0  0  0  0  0  0
   37.6692   24.6380   33.5624 H   0  0  0  0  0  0  0  0  0  0  0  0
   36.3732   26.5231   32.2348 H   0  0  0  0  0  0  0  0  0  0  0  0
   40.7947   27.7076   30.6267 H   0  0  0  0  0  0  0  0  0  0  0  0
  1  8  1  0
  1  9  1  0
  1  6  1  0
  2  3  2  0
  3  4  1  0
  5  4  2  0
  6  5  1  0
  7  6  2  0
  7  2  1  0
 10  1  1  0
 11 10  1  0
 12 11  2  0
 13 14  1  0
 13 12  1  0
 14 15  2  0
 15 11  1  0
  2 16  1  0
  3 17  1  0
  4 18  1  0
  8 19  1  0
  8 20  1  0
  8 21  1  0
  9 22  1  0
  9 23  1  0
  9 24  1  0
 10 25  1  0
 10 26  1  0
 12 27  1  0
 14 28  1  0
M  ISO  8  16  14  17  14  18  14  19   8  20   8  21   8  22   8  23   8
M  ISO  5  24   8  25   8  26   8  27  14  28  14
M  END
>  <minimizedAffinity>  (1) 
-3.79297686

>  <minimizedRMSD>  (1) 
1.68822908

$$$$
