
     RDKit          3D

 38 40  0  0  0  0  0  0  0  0999 V2000
   38.7930   26.1400   35.1640 C   0  0  0  0  0  0  0  0  0  0  0  0
   39.4850   23.0140   36.9360 C   0  0  0  0  0  0  0  0  0  0  0  0
   38.7220   23.1480   38.1260 C   0  0  0  0  0  0  0  0  0  0  0  0
   37.9690   24.3290   38.3060 C   0  0  0  0  0  0  0  0  0  0  0  0
   38.0350   25.2500   37.3200 N   0  0  0  0  0  0  0  0  0  0  0  0
   38.7740   25.0960   36.1920 C   0  0  0  0  0  0  0  0  0  0  0  0
   39.4920   23.9810   36.0080 N   0  0  0  0  0  0  0  0  0  0  0  0
   37.8900   27.3070   35.5150 C   0  0  0  0  0  0  0  0  0  0  0  0
   38.3210   25.5500   33.8360 C   0  0  0  0  0  0  0  0  0  0  0  0
   40.1770   26.7220   34.9550 C   0  0  0  0  0  0  0  0  0  0  0  0
   41.0710   25.8320   34.2750 N   0  0  0  0  0  0  0  0  0  0  0  0
   42.4600   26.1300   34.2790 C   0  0  0  0  0  0  0  0  0  0  0  0
   42.9610   27.1030   33.5150 N   0  0  0  0  0  0  0  0  0  0  0  0
   44.2650   27.4260   33.4800 C   0  0  0  0  0  0  0  0  0  0  0  0
   45.1570   26.7520   34.2490 N   0  0  0  0  0  0  0  0  0  0  0  0
   44.7390   25.7510   35.0540 C   0  0  0  0  0  0  0  0  0  0  0  0
   45.6270   25.0630   35.8330 C   0  0  0  0  0  0  0  0  0  0  0  0
   45.2190   24.0380   36.6620 C   0  0  0  0  0  0  0  0  0  0  0  0
   43.8720   23.7460   36.6610 C   0  0  0  0  0  0  0  0  0  0  0  0
   42.9840   24.4460   35.8700 C   0  0  0  0  0  0  0  0  0  0  0  0
   43.3910   25.4690   35.0440 C   0  0  0  0  0  0  0  0  0  0  0  0
   40.0793   22.1028   36.7733 H   0  0  0  0  0  0  0  0  0  0  0  0
   38.7176   22.3536   38.8869 H   0  0  0  0  0  0  0  0  0  0  0  0
   37.3579   24.4912   39.2061 H   0  0  0  0  0  0  0  0  0  0  0  0
   37.8186   27.3993   36.6088 H   0  0  0  0  0  0  0  0  0  0  0  0
   38.3086   28.2337   35.0954 H   0  0  0  0  0  0  0  0  0  0  0  0
   36.8879   27.1344   35.0954 H   0  0  0  0  0  0  0  0  0  0  0  0
   37.6446   24.7045   34.0302 H   0  0  0  0  0  0  0  0  0  0  0  0
   37.7879   26.3214   33.2609 H   0  0  0  0  0  0  0  0  0  0  0  0
   39.1906   25.1993   33.2609 H   0  0  0  0  0  0  0  0  0  0  0  0
   40.0822   27.6427   34.3605 H   0  0  0  0  0  0  0  0  0  0  0  0
   40.6033   26.9128   35.9509 H   0  0  0  0  0  0  0  0  0  0  0  0
   40.7141   24.9942   33.7937 H   0  0  0  0  0  0  0  0  0  0  0  0
   44.6106   28.2398   32.8255 H   0  0  0  0  0  0  0  0  0  0  0  0
   46.6928   25.3330   35.7982 H   0  0  0  0  0  0  0  0  0  0  0  0
   45.9312   23.4833   37.2905 H   0  0  0  0  0  0  0  0  0  0  0  0
   43.4965   22.9371   37.3050 H   0  0  0  0  0  0  0  0  0  0  0  0
   41.9176   24.1781   35.9005 H   0  0  0  0  0  0  0  0  0  0  0  0
  1  8  1  0
  1  6  1  0
  2  3  2  0
  3  4  1  0
  5  4  2  0
  6  5  1  0
  7  6  2  0
  7  2  1  0
  9  1  1  0
 10  1  1  0
 11 12  1  0
 11 10  1  0
 12 21  1  0
 13 12  2  0
 14 13  1  0
 14 15  2  0
 15 16  1  0
 16 17  1  0
 17 18  2  0
 19 18  1  0
 20 19  2  0
 21 16  2  0
 21 20  1  0
  2 22  1  0
  3 23  1  0
  4 24  1  0
  8 25  1  0
  8 26  1  0
  8 27  1  0
  9 28  1  0
  9 29  1  0
  9 30  1  0
 10 31  1  0
 10 32  1  0
 11 33  1  0
 14 34  1  0
 17 35  1  0
 18 36  1  0
 19 37  1  0
 20 38  1  0
M  ISO  8  22  14  23  14  24  14  25   8  26   8  27   8  28   8  29   8
M  ISO  8  30   8  31   8  32   8  34  14  35  14  36  14  37  14  38  14
M  END
>  <minimizedAffinity>  (1) 
-4.99130487

>  <minimizedRMSD>  (1) 
1.08399487

$$$$
