
     RDKit          3D

 31 32  0  0  0  0  0  0  0  0999 V2000
   38.4230   25.5110   34.9990 C   0  0  0  0  0  0  0  0  0  0  0  0
   39.5780   22.9400   37.3030 C   0  0  0  0  0  0  0  0  0  0  0  0
   38.8760   23.2100   38.4840 C   0  0  0  0  0  0  0  0  0  0  0  0
   37.9750   24.3070   38.4780 C   0  0  0  0  0  0  0  0  0  0  0  0
   37.8540   25.0240   37.3260 N   0  0  0  0  0  0  0  0  0  0  0  0
   38.5690   24.7080   36.2080 C   0  0  0  0  0  0  0  0  0  0  0  0
   39.4140   23.6820   36.2080 N   0  0  0  0  0  0  0  0  0  0  0  0
   37.3080   26.5550   35.1310 C   0  0  0  0  0  0  0  0  0  0  0  0
   38.0940   24.6340   33.8200 C   0  0  0  0  0  0  0  0  0  0  0  0
   39.6820   26.3370   34.6900 C   0  0  0  0  0  0  0  0  0  0  0  0
   40.7630   25.4900   34.3090 N   0  0  0  0  0  0  0  0  0  0  0  0
   42.0710   26.0460   34.3670 C   0  0  0  0  0  0  0  0  0  0  0  0
   43.1980   25.4400   34.8940 C   0  0  0  0  0  0  0  0  0  0  0  0
   44.2590   26.2820   34.7700 C   0  0  0  0  0  0  0  0  0  0  0  0
   43.7850   27.4060   34.1680 N   0  0  0  0  0  0  0  0  0  0  0  0
   42.4870   27.2500   33.9370 N   0  0  0  0  0  0  0  0  0  0  0  0
   40.2819   22.0951   37.2783 H   0  0  0  0  0  0  0  0  0  0  0  0
   39.0176   22.5941   39.3843 H   0  0  0  0  0  0  0  0  0  0  0  0
   37.3936   24.5695   39.3742 H   0  0  0  0  0  0  0  0  0  0  0  0
   37.1065   26.7436   36.1958 H   0  0  0  0  0  0  0  0  0  0  0  0
   37.6226   27.4908   34.6459 H   0  0  0  0  0  0  0  0  0  0  0  0
   36.3949   26.1796   34.6459 H   0  0  0  0  0  0  0  0  0  0  0  0
   37.7287   23.6602   34.1780 H   0  0  0  0  0  0  0  0  0  0  0  0
   37.3156   25.1161   33.2103 H   0  0  0  0  0  0  0  0  0  0  0  0
   38.9974   24.4851   33.2103 H   0  0  0  0  0  0  0  0  0  0  0  0
   39.4630   27.0340   33.8677 H   0  0  0  0  0  0  0  0  0  0  0  0
   39.9708   26.8910   35.5954 H   0  0  0  0  0  0  0  0  0  0  0  0
   40.6042   24.5187   34.0052 H   0  0  0  0  0  0  0  0  0  0  0  0
   43.2306   24.4360   35.3423 H   0  0  0  0  0  0  0  0  0  0  0  0
   45.2935   26.0920   35.0921 H   0  0  0  0  0  0  0  0  0  0  0  0
   44.3410   28.2399   33.9307 H   0  0  0  0  0  0  0  0  0  0  0  0
  1  8  1  0
  1  6  1  0
  2  3  2  0
  4  3  1  0
  5  4  2  0
  6  5  1  0
  7  6  2  0
  7  2  1  0
  9  1  1  0
 10  1  1  0
 11 12  1  0
 11 10  1  0
 12 13  1  0
 14 13  2  0
 15 14  1  0
 16 15  1  0
 16 12  2  0
  2 17  1  0
  3 18  1  0
  4 19  1  0
  8 20  1  0
  8 21  1  0
  8 22  1  0
  9 23  1  0
  9 24  1  0
  9 25  1  0
 10 26  1  0
 10 27  1  0
 11 28  1  0
 13 29  1  0
 14 30  1  0
 15 31  1  0
M  ISO  8  17  14  18  14  19  14  20   8  21   8  22   8  23   8  24   8
M  ISO  6  25   8  26   8  27   8  29  14  30  14  31   9
M  END
>  <minimizedAffinity>  (1) 
-4.19085503

>  <minimizedRMSD>  (1) 
0.980249047

$$$$
