
     RDKit          3D

 40 41  0  0  0  0  0  0  0  0999 V2000
   38.8130   25.7960   35.1330 C   0  0  0  0  0  0  0  0  0  0  0  0
   39.3840   22.9090   37.2800 C   0  0  0  0  0  0  0  0  0  0  0  0
   38.6690   23.2250   38.4480 C   0  0  0  0  0  0  0  0  0  0  0  0
   37.9790   24.4600   38.4860 C   0  0  0  0  0  0  0  0  0  0  0  0
   38.0520   25.2640   37.3910 N   0  0  0  0  0  0  0  0  0  0  0  0
   38.7540   24.9210   36.2830 C   0  0  0  0  0  0  0  0  0  0  0  0
   39.4130   23.7450   36.2420 N   0  0  0  0  0  0  0  0  0  0  0  0
   37.8990   27.0060   35.2870 C   0  0  0  0  0  0  0  0  0  0  0  0
   38.3970   25.0520   33.8700 C   0  0  0  0  0  0  0  0  0  0  0  0
   40.2220   26.3750   34.8960 C   0  0  0  0  0  0  0  0  0  0  0  0
   41.1380   25.3730   34.4750 N   0  0  0  0  0  0  0  0  0  0  0  0
   42.3610   25.4330   35.2450 C   0  0  0  0  0  0  0  0  0  0  0  0
   42.9050   24.1030   35.6620 C   0  0  0  0  0  0  0  0  0  0  0  0
   43.9780   24.3410   36.7080 C   0  0  0  0  0  0  0  0  0  0  0  0
   44.8870   25.4950   36.3620 C   0  0  0  0  0  0  0  0  0  0  0  0
   44.8350   25.7140   34.8620 C   0  0  0  0  0  0  0  0  0  0  0  0
   43.4590   26.0870   34.3930 C   0  0  0  0  0  0  0  0  0  0  0  0
   39.9291   21.9554   37.2213 H   0  0  0  0  0  0  0  0  0  0  0  0
   38.6465   22.5351   39.3044 H   0  0  0  0  0  0  0  0  0  0  0  0
   37.4019   24.7604   39.3729 H   0  0  0  0  0  0  0  0  0  0  0  0
   37.7423   27.2135   36.3558 H   0  0  0  0  0  0  0  0  0  0  0  0
   38.3642   27.8802   34.8082 H   0  0  0  0  0  0  0  0  0  0  0  0
   36.9309   26.7975   34.8082 H   0  0  0  0  0  0  0  0  0  0  0  0
   37.8774   24.1227   34.1462 H   0  0  0  0  0  0  0  0  0  0  0  0
   37.7227   25.6864   33.2760 H   0  0  0  0  0  0  0  0  0  0  0  0
   39.2906   24.8098   33.2760 H   0  0  0  0  0  0  0  0  0  0  0  0
   40.1622   27.1521   34.1198 H   0  0  0  0  0  0  0  0  0  0  0  0
   40.5849   26.7940   35.8461 H   0  0  0  0  0  0  0  0  0  0  0  0
   40.7055   24.4467   34.6011 H   0  0  0  0  0  0  0  0  0  0  0  0
   42.0998   25.9988   36.1514 H   0  0  0  0  0  0  0  0  0  0  0  0
   42.0991   23.4871   36.0877 H   0  0  0  0  0  0  0  0  0  0  0  0
   43.3279   23.5748   34.7948 H   0  0  0  0  0  0  0  0  0  0  0  0
   43.4895   24.5547   37.6701 H   0  0  0  0  0  0  0  0  0  0  0  0
   44.5987   23.4342   36.7577 H   0  0  0  0  0  0  0  0  0  0  0  0
   44.5482   26.4033   36.8818 H   0  0  0  0  0  0  0  0  0  0  0  0
   45.9174   25.2709   36.6752 H   0  0  0  0  0  0  0  0  0  0  0  0
   45.5314   26.5233   34.5974 H   0  0  0  0  0  0  0  0  0  0  0  0
   45.1154   24.7699   34.3720 H   0  0  0  0  0  0  0  0  0  0  0  0
   43.3488   27.1800   34.4506 H   0  0  0  0  0  0  0  0  0  0  0  0
   43.3446   25.7281   33.3595 H   0  0  0  0  0  0  0  0  0  0  0  0
  1  8  1  0
  1  6  1  0
  2  3  2  0
  3  4  1  0
  5  4  2  0
  6  5  1  0
  7  6  2  0
  7  2  1  0
  9  1  1  0
 10  1  1  0
 11 10  1  0
 11 12  1  0
 12 13  1  0
 13 14  1  0
 15 14  1  0
 16 15  1  0
 17 16  1  0
 17 12  1  0
  2 18  1  0
  3 19  1  0
  4 20  1  0
  8 21  1  0
  8 22  1  0
  8 23  1  0
  9 24  1  0
  9 25  1  0
  9 26  1  0
 10 27  1  0
 10 28  1  0
 11 29  1  0
 12 30  1  0
 13 31  1  0
 13 32  1  0
 14 33  1  0
 14 34  1  0
 15 35  1  0
 15 36  1  0
 16 37  1  0
 16 38  1  0
 17 39  1  0
 17 40  1  0
M  ISO  8  18  14  19  14  20  14  21   8  22   8  23   8  24   8  25   8
M  ISO  8  26   8  27   8  28   8  29   5  30  13  31  13  32  13  33  13
M  ISO  7  34  13  35  13  36  13  37  13  38  13  39  13  40  13
M  END
>  <minimizedAffinity>  (1) 
-4.07731676

>  <minimizedRMSD>  (1) 
1.86630297

$$$$
