
     RDKit          3D

 31 32  0  0  0  0  0  0  0  0999 V2000
   38.5350   25.8780   35.0150 C   0  0  0  0  0  0  0  0  0  0  0  0
   39.7150   23.0240   36.9690 C   0  0  0  0  0  0  0  0  0  0  0  0
   38.9820   23.1160   38.1650 C   0  0  0  0  0  0  0  0  0  0  0  0
   38.0660   24.1840   38.2930 C   0  0  0  0  0  0  0  0  0  0  0  0
   37.9470   25.0580   37.2540 N   0  0  0  0  0  0  0  0  0  0  0  0
   38.6830   24.9260   36.1090 C   0  0  0  0  0  0  0  0  0  0  0  0
   39.5590   23.9120   35.9780 N   0  0  0  0  0  0  0  0  0  0  0  0
   37.1860   26.5750   35.0500 C   0  0  0  0  0  0  0  0  0  0  0  0
   38.6400   25.1410   33.6830 C   0  0  0  0  0  0  0  0  0  0  0  0
   39.5790   26.9860   35.0520 C   0  0  0  0  0  0  0  0  0  0  0  0
   40.9070   26.4540   35.0350 N   0  0  0  0  0  0  0  0  0  0  0  0
   41.8210   26.9030   34.0420 C   0  0  0  0  0  0  0  0  0  0  0  0
   41.4620   27.5400   32.8580 C   0  0  0  0  0  0  0  0  0  0  0  0
   42.6280   27.8000   32.1950 C   0  0  0  0  0  0  0  0  0  0  0  0
   43.6510   27.3180   32.9870 C   0  0  0  0  0  0  0  0  0  0  0  0
   43.1070   26.8090   34.0480 O   0  0  0  0  0  0  0  0  0  0  0  0
   40.4350   22.2019   36.8436 H   0  0  0  0  0  0  0  0  0  0  0  0
   39.1169   22.3820   38.9731 H   0  0  0  0  0  0  0  0  0  0  0  0
   37.4653   24.3068   39.2063 H   0  0  0  0  0  0  0  0  0  0  0  0
   36.8816   26.7323   36.0953 H   0  0  0  0  0  0  0  0  0  0  0  0
   37.2620   27.5467   34.5400 H   0  0  0  0  0  0  0  0  0  0  0  0
   36.4374   25.9508   34.5400 H   0  0  0  0  0  0  0  0  0  0  0  0
   38.7929   24.0677   33.8689 H   0  0  0  0  0  0  0  0  0  0  0  0
   37.7122   25.2853   33.1099 H   0  0  0  0  0  0  0  0  0  0  0  0
   39.4906   25.5387   33.1099 H   0  0  0  0  0  0  0  0  0  0  0  0
   39.4426   27.6355   34.1747 H   0  0  0  0  0  0  0  0  0  0  0  0
   39.4464   27.5550   35.9840 H   0  0  0  0  0  0  0  0  0  0  0  0
   41.1975   25.7546   35.7331 H   0  0  0  0  0  0  0  0  0  0  0  0
   40.4434   27.7851   32.5229 H   0  0  0  0  0  0  0  0  0  0  0  0
   42.7316   28.2971   31.2192 H   0  0  0  0  0  0  0  0  0  0  0  0
   44.7266   27.3583   32.7602 H   0  0  0  0  0  0  0  0  0  0  0  0
  1  8  1  0
  1 10  1  0
  1  6  1  0
  2  3  2  0
  3  4  1  0
  5  4  2  0
  6  5  1  0
  7  6  2  0
  7  2  1  0
  9  1  1  0
 11 10  1  0
 12 16  1  0
 12 11  1  0
 13 12  2  0
 14 13  1  0
 14 15  2  0
 15 16  1  0
  2 17  1  0
  3 18  1  0
  4 19  1  0
  8 20  1  0
  8 21  1  0
  8 22  1  0
  9 23  1  0
  9 24  1  0
  9 25  1  0
 10 26  1  0
 10 27  1  0
 11 28  1  0
 13 29  1  0
 14 30  1  0
 15 31  1  0
M  ISO  8  17  14  18  14  19  14  20   8  21   8  22   8  23   8  24   8
M  ISO  6  25   8  26   8  27   8  29  14  30  14  31  14
M  END
>  <minimizedAffinity>  (1) 
-3.93918157

>  <minimizedRMSD>  (1) 
1.12254453

$$$$
