
     RDKit          3D

 32 33  0  0  0  0  0  0  0  0999 V2000
   38.5220   25.7030   35.0130 C   0  0  0  0  0  0  0  0  0  0  0  0
   39.6300   22.9820   37.1760 C   0  0  0  0  0  0  0  0  0  0  0  0
   38.8860   23.1640   38.3490 C   0  0  0  0  0  0  0  0  0  0  0  0
   37.9800   24.2580   38.3850 C   0  0  0  0  0  0  0  0  0  0  0  0
   37.9080   25.0350   37.2890 N   0  0  0  0  0  0  0  0  0  0  0  0
   38.6460   24.8260   36.1680 C   0  0  0  0  0  0  0  0  0  0  0  0
   39.5010   23.7980   36.1280 N   0  0  0  0  0  0  0  0  0  0  0  0
   37.3480   26.6530   35.1350 C   0  0  0  0  0  0  0  0  0  0  0  0
   38.3240   24.8620   33.7560 C   0  0  0  0  0  0  0  0  0  0  0  0
   39.7580   26.5840   34.8080 C   0  0  0  0  0  0  0  0  0  0  0  0
   40.7680   25.9100   34.0650 N   0  0  0  0  0  0  0  0  0  0  0  0
   42.1420   26.0100   34.4230 C   0  0  0  0  0  0  0  0  0  0  0  0
   42.9740   26.9390   33.8360 C   0  0  0  0  0  0  0  0  0  0  0  0
   44.3280   27.0570   34.1710 C   0  0  0  0  0  0  0  0  0  0  0  0
   44.8180   26.2090   35.1160 N   0  0  0  0  0  0  0  0  0  0  0  0
   43.9900   25.3130   35.6750 C   0  0  0  0  0  0  0  0  0  0  0  0
   42.6870   25.2010   35.3500 N   0  0  0  0  0  0  0  0  0  0  0  0
   40.3398   22.1437   37.1172 H   0  0  0  0  0  0  0  0  0  0  0  0
   38.9988   22.4866   39.2083 H   0  0  0  0  0  0  0  0  0  0  0  0
   37.3628   24.4613   39.2725 H   0  0  0  0  0  0  0  0  0  0  0  0
   37.1288   26.8304   36.1982 H   0  0  0  0  0  0  0  0  0  0  0  0
   37.5964   27.6074   34.6477 H   0  0  0  0  0  0  0  0  0  0  0  0
   36.4665   26.2110   34.6477 H   0  0  0  0  0  0  0  0  0  0  0  0
   38.0805   23.8279   34.0413 H   0  0  0  0  0  0  0  0  0  0  0  0
   37.5001   25.2816   33.1601 H   0  0  0  0  0  0  0  0  0  0  0  0
   39.2486   24.8700   33.1601 H   0  0  0  0  0  0  0  0  0  0  0  0
   39.4616   27.4928   34.2636 H   0  0  0  0  0  0  0  0  0  0  0  0
   40.1691   26.8333   35.7974 H   0  0  0  0  0  0  0  0  0  0  0  0
   40.4990   25.3382   33.2516 H   0  0  0  0  0  0  0  0  0  0  0  0
   42.5575   27.6144   33.0742 H   0  0  0  0  0  0  0  0  0  0  0  0
   44.9719   27.8071   33.6885 H   0  0  0  0  0  0  0  0  0  0  0  0
   44.3965   24.6340   36.4390 H   0  0  0  0  0  0  0  0  0  0  0  0
  1  8  1  0
  1  6  1  0
  2  3  2  0
  3  4  1  0
  5  4  2  0
  6  5  1  0
  7  6  2  0
  7  2  1  0
  9  1  1  0
 10  1  1  0
 11 12  1  0
 11 10  1  0
 12 17  2  0
 13 14  2  0
 13 12  1  0
 14 15  1  0
 15 16  2  0
 17 16  1  0
  2 18  1  0
  3 19  1  0
  4 20  1  0
  8 21  1  0
  8 22  1  0
  8 23  1  0
  9 24  1  0
  9 25  1  0
  9 26  1  0
 10 27  1  0
 10 28  1  0
 11 29  1  0
 13 30  1  0
 14 31  1  0
 16 32  1  0
M  ISO  8  18  14  19  14  20  14  21   8  22   8  23   8  24   8  25   8
M  ISO  6  26   8  27   8  28   8  30  14  31  14  32  14
M  END
>  <minimizedAffinity>  (1) 
-3.92440796

>  <minimizedRMSD>  (1) 
1.31466758

$$$$
