
     RDKit          3D

 29 30  0  0  0  0  0  0  0  0999 V2000
   38.7020   25.8590   35.1510 C   0  0  0  0  0  0  0  0  0  0  0  0
   39.4910   22.9620   37.2320 C   0  0  0  0  0  0  0  0  0  0  0  0
   38.7510   23.1880   38.4090 C   0  0  0  0  0  0  0  0  0  0  0  0
   37.9670   24.3620   38.4790 C   0  0  0  0  0  0  0  0  0  0  0  0
   37.9840   25.1960   37.4000 N   0  0  0  0  0  0  0  0  0  0  0  0
   38.7270   24.9250   36.2760 C   0  0  0  0  0  0  0  0  0  0  0  0
   39.4660   23.8160   36.2100 N   0  0  0  0  0  0  0  0  0  0  0  0
   37.7480   27.0260   35.3850 C   0  0  0  0  0  0  0  0  0  0  0  0
   38.2820   25.1460   33.8890 C   0  0  0  0  0  0  0  0  0  0  0  0
   40.0790   26.5070   34.9350 C   0  0  0  0  0  0  0  0  0  0  0  0
   41.0270   25.5500   34.4480 N   0  0  0  0  0  0  0  0  0  0  0  0
   42.4270   25.6690   34.7410 C   0  0  0  0  0  0  0  0  0  0  0  0
   43.1740   24.9650   35.6070 N   0  0  0  0  0  0  0  0  0  0  0  0
   44.3820   25.4030   35.5520 O   0  0  0  0  0  0  0  0  0  0  0  0
   44.4970   26.3940   34.6710 C   0  0  0  0  0  0  0  0  0  0  0  0
   43.2550   26.5700   34.1500 N   0  0  0  0  0  0  0  0  0  0  0  0
   40.1073   22.0542   37.1545 H   0  0  0  0  0  0  0  0  0  0  0  0
   38.7822   22.4747   39.2458 H   0  0  0  0  0  0  0  0  0  0  0  0
   37.3657   24.5943   39.3703 H   0  0  0  0  0  0  0  0  0  0  0  0
   37.6194   27.1833   36.4661 H   0  0  0  0  0  0  0  0  0  0  0  0
   38.1637   27.9366   34.9288 H   0  0  0  0  0  0  0  0  0  0  0  0
   36.7730   26.7997   34.9288 H   0  0  0  0  0  0  0  0  0  0  0  0
   37.7398   24.2255   34.1511 H   0  0  0  0  0  0  0  0  0  0  0  0
   37.6262   25.8022   33.2980 H   0  0  0  0  0  0  0  0  0  0  0  0
   39.1739   24.8905   33.2980 H   0  0  0  0  0  0  0  0  0  0  0  0
   39.9820   27.3218   34.2024 H   0  0  0  0  0  0  0  0  0  0  0  0
   40.4380   26.8958   35.8993 H   0  0  0  0  0  0  0  0  0  0  0  0
   40.6971   24.7599   33.8755 H   0  0  0  0  0  0  0  0  0  0  0  0
   45.4089   26.9544   34.4174 H   0  0  0  0  0  0  0  0  0  0  0  0
  1  8  1  0
  1  6  1  0
  2  3  2  0
  3  4  1  0
  5  4  2  0
  6  5  1  0
  7  6  2  0
  7  2  1  0
  9  1  1  0
 10  1  1  0
 11 12  1  0
 11 10  1  0
 12 13  2  0
 14 13  1  0
 15 14  1  0
 16 15  2  0
 16 12  1  0
  2 17  1  0
  3 18  1  0
  4 19  1  0
  8 20  1  0
  8 21  1  0
  8 22  1  0
  9 23  1  0
  9 24  1  0
  9 25  1  0
 10 26  1  0
 10 27  1  0
 11 28  1  0
 15 29  1  0
M  ISO  8  17  14  18  14  19  14  20   8  21   8  22   8  23   8  24   8
M  ISO  4  25   8  26   8  27   8  29  14
M  END
>  <minimizedAffinity>  (1) 
-3.91596007

>  <minimizedRMSD>  (1) 
1.2161907

$$$$
