
     RDKit          3D

 37 38  0  0  1  0  0  0  0  0999 V2000
   38.7080   26.1600   35.1780 C   0  0  0  0  0  0  0  0  0  0  0  0
   39.6490   23.0550   36.8520 C   0  0  0  0  0  0  0  0  0  0  0  0
   38.8750   23.0830   38.0410 C   0  0  0  0  0  0  0  0  0  0  0  0
   38.0180   24.2050   38.2500 C   0  0  0  0  0  0  0  0  0  0  0  0
   38.0110   25.1550   37.2950 N   0  0  0  0  0  0  0  0  0  0  0  0
   38.7630   25.0980   36.1700 C   0  0  0  0  0  0  0  0  0  0  0  0
   39.5760   24.0450   35.9610 N   0  0  0  0  0  0  0  0  0  0  0  0
   38.0360   27.4170   35.7180 C   0  0  0  0  0  0  0  0  0  0  0  0
   37.8900   25.6990   33.9730 C   0  0  0  0  0  0  0  0  0  0  0  0
   40.0910   26.5970   34.6940 C   0  0  0  0  0  0  0  0  0  0  0  0
   40.4990   25.8550   33.5510 N   0  0  0  0  0  0  0  0  0  0  0  0
   43.6860   28.3050   32.4310 N   0  0  0  0  0  0  0  0  0  0  0  0
   43.9670   27.1420   33.2030 C   0  0  0  0  0  0  0  0  0  0  0  0
   42.7080   26.8250   34.0230 C   0  0  0  0  0  0  0  0  0  0  0  0
   41.7270   26.3190   32.9910 C   0  0  2  0  0  0  0  0  0  0  0  0
   41.4660   27.3060   31.9160 C   0  0  0  0  0  0  0  0  0  0  0  0
   42.4980   28.3450   31.6830 C   0  0  0  0  0  0  0  0  0  0  0  0
   40.3195   22.2039   36.6622 H   0  0  0  0  0  0  0  0  0  0  0  0
   38.9335   22.2674   38.7768 H   0  0  0  0  0  0  0  0  0  0  0  0
   37.3916   24.2901   39.1502 H   0  0  0  0  0  0  0  0  0  0  0  0
   38.0476   27.3954   36.8177 H   0  0  0  0  0  0  0  0  0  0  0  0
   38.5798   28.3048   35.3630 H   0  0  0  0  0  0  0  0  0  0  0  0
   36.9957   27.4580   35.3630 H   0  0  0  0  0  0  0  0  0  0  0  0
   36.9810   25.1867   34.3212 H   0  0  0  0  0  0  0  0  0  0  0  0
   37.6090   26.5716   33.3650 H   0  0  0  0  0  0  0  0  0  0  0  0
   38.4910   25.0067   33.3650 H   0  0  0  0  0  0  0  0  0  0  0  0
   40.0582   27.6654   34.4342 H   0  0  0  0  0  0  0  0  0  0  0  0
   40.8145   26.4139   35.5021 H   0  0  0  0  0  0  0  0  0  0  0  0
   40.6156   24.8689   33.8248 H   0  0  0  0  0  0  0  0  0  0  0  0
   44.3404   29.1004   32.4213 H   0  0  0  0  0  0  0  0  0  0  0  0
   44.2067   26.2981   32.5393 H   0  0  0  0  0  0  0  0  0  0  0  0
   44.8303   27.3113   33.8634 H   0  0  0  0  0  0  0  0  0  0  0  0
   42.9159   26.0529   34.7784 H   0  0  0  0  0  0  0  0  0  0  0  0
   42.3307   27.6959   34.5791 H   0  0  0  0  0  0  0  0  0  0  0  0
   42.2260   25.4487   32.5398 H   0  0  0  0  0  0  0  0  0  0  0  0
   40.5448   27.2691   31.3160 H   0  0  0  0  0  0  0  0  0  0  0  0
   42.3355   29.1354   30.9354 H   0  0  0  0  0  0  0  0  0  0  0  0
  1  8  1  0
  1  6  1  0
  2  3  2  0
  3  4  1  0
  5  4  2  0
  6  5  1  0
  7  6  2  0
  7  2  1  0
  9  1  1  0
 10  1  1  0
 11 10  1  0
 12 13  1  0
 13 14  1  0
 15 11  1  0
 15 14  1  0
 16 15  1  0
 17 16  2  0
 17 12  1  0
  2 18  1  0
  3 19  1  0
  4 20  1  0
  8 21  1  0
  8 22  1  0
  8 23  1  0
  9 24  1  0
  9 25  1  0
  9 26  1  0
 10 27  1  0
 10 28  1  0
 11 29  1  0
 12 30  1  0
 13 31  1  0
 13 32  1  0
 14 33  1  0
 14 34  1  0
 15 35  1  6
 16 36  1  0
 17 37  1  0
M  ISO  8  18  14  19  14  20  14  21   8  22   8  23   8  24   8  25   8
M  ISO  8  26   8  27   8  28   8  29   5  31  13  32  13  33  13  34  13
M  ISO  3  35  13  36  13  37  13
M  END
>  <minimizedAffinity>  (1) 
-3.83580828

>  <minimizedRMSD>  (1) 
0.525716424

$$$$
