
     RDKit          3D

 34 35  0  0  0  0  0  0  0  0999 V2000
   38.5250   26.2030   35.1070 C   0  0  0  0  0  0  0  0  0  0  0  0
   37.8150   22.8700   36.4070 C   0  0  0  0  0  0  0  0  0  0  0  0
   37.7370   23.0650   37.7910 C   0  0  0  0  0  0  0  0  0  0  0  0
   37.9330   24.3740   38.2910 C   0  0  0  0  0  0  0  0  0  0  0  0
   38.1850   25.3610   37.3880 N   0  0  0  0  0  0  0  0  0  0  0  0
   38.2520   25.1180   36.0440 C   0  0  0  0  0  0  0  0  0  0  0  0
   38.0660   23.8810   35.5760 N   0  0  0  0  0  0  0  0  0  0  0  0
   38.0330   27.5500   35.6470 C   0  0  0  0  0  0  0  0  0  0  0  0
   37.8290   25.9560   33.7900 C   0  0  0  0  0  0  0  0  0  0  0  0
   40.0080   26.4010   34.8510 C   0  0  0  0  0  0  0  0  0  0  0  0
   40.6410   25.1840   34.4360 N   0  0  0  0  0  0  0  0  0  0  0  0
   41.7600   24.6670   35.1780 C   0  0  0  0  0  0  0  0  0  0  0  0
   42.9550   25.3500   35.2520 C   0  0  0  0  0  0  0  0  0  0  0  0
   44.0650   24.9180   35.9410 C   0  0  0  0  0  0  0  0  0  0  0  0
   43.9400   23.7130   36.5940 C   0  0  0  0  0  0  0  0  0  0  0  0
   42.7570   22.9950   36.5450 C   0  0  0  0  0  0  0  0  0  0  0  0
   41.6500   23.4510   35.8420 C   0  0  0  0  0  0  0  0  0  0  0  0
   37.6659   21.8604   35.9966 H   0  0  0  0  0  0  0  0  0  0  0  0
   37.5294   22.2249   38.4701 H   0  0  0  0  0  0  0  0  0  0  0  0
   37.8836   24.5862   39.3692 H   0  0  0  0  0  0  0  0  0  0  0  0
   38.0407   27.5290   36.7468 H   0  0  0  0  0  0  0  0  0  0  0  0
   38.6962   28.3521   35.2909 H   0  0  0  0  0  0  0  0  0  0  0  0
   37.0089   27.7358   35.2909 H   0  0  0  0  0  0  0  0  0  0  0  0
   36.8075   25.5935   33.9774 H   0  0  0  0  0  0  0  0  0  0  0  0
   37.7858   26.8937   33.2166 H   0  0  0  0  0  0  0  0  0  0  0  0
   38.3866   25.2009   33.2166 H   0  0  0  0  0  0  0  0  0  0  0  0
   40.1358   27.1565   34.0618 H   0  0  0  0  0  0  0  0  0  0  0  0
   40.4775   26.7290   35.7902 H   0  0  0  0  0  0  0  0  0  0  0  0
   40.2951   24.6798   33.6071 H   0  0  0  0  0  0  0  0  0  0  0  0
   43.0266   26.3109   34.7213 H   0  0  0  0  0  0  0  0  0  0  0  0
   44.9972   25.5013   35.9683 H   0  0  0  0  0  0  0  0  0  0  0  0
   44.7926   23.3143   37.1633 H   0  0  0  0  0  0  0  0  0  0  0  0
   42.6924   22.0353   37.0787 H   0  0  0  0  0  0  0  0  0  0  0  0
   40.7169   22.8692   35.8116 H   0  0  0  0  0  0  0  0  0  0  0  0
  1  8  1  0
  1  6  1  0
  2  3  2  0
  3  4  1  0
  5  4  2  0
  6  5  1  0
  7  6  2  0
  7  2  1  0
  9  1  1  0
 10  1  1  0
 11 10  1  0
 11 12  1  0
 12 13  2  0
 12 17  1  0
 13 14  1  0
 14 15  2  0
 16 15  1  0
 17 16  2  0
  2 18  1  0
  3 19  1  0
  4 20  1  0
  8 21  1  0
  8 22  1  0
  8 23  1  0
  9 24  1  0
  9 25  1  0
  9 26  1  0
 10 27  1  0
 10 28  1  0
 11 29  1  0
 13 30  1  0
 14 31  1  0
 15 32  1  0
 16 33  1  0
 17 34  1  0
M  ISO  8  18  14  19  14  20  14  21   8  22   8  23   8  24   8  25   8
M  ISO  8  26   8  27   8  28   8  30  14  31  14  32  14  33  14  34  14
M  END
>  <minimizedAffinity>  (1) 
-4.32947111

>  <minimizedRMSD>  (1) 
2.37178946

$$$$
