
     RDKit          3D

 44 46  0  0  0  0  0  0  0  0999 V2000
   40.1350   26.6690   34.9350 C   0  0  0  0  0  0  0  0  0  0  0  0
   40.9120   25.4910   34.5550 N   0  0  0  0  0  0  0  0  0  0  0  0
   42.3040   25.4750   34.8240 C   0  0  0  0  0  0  0  0  0  0  0  0
   43.1890   26.4610   34.3240 C   0  0  0  0  0  0  0  0  0  0  0  0
   44.5430   26.5160   34.5600 C   0  0  0  0  0  0  0  0  0  0  0  0
   45.0360   25.4980   35.3680 C   0  0  0  0  0  0  0  0  0  0  0  0
   44.1560   24.5120   35.8670 C   0  0  0  0  0  0  0  0  0  0  0  0
   42.8000   24.4890   35.5980 C   0  0  0  0  0  0  0  0  0  0  0  0
   42.4610   23.2460   36.1610 C   0  0  0  0  0  0  0  0  0  0  0  0
   43.4270   22.2610   35.9170 C   0  0  0  0  0  0  0  0  0  0  0  0
   43.3750   20.9950   36.4560 C   0  0  0  0  0  0  0  0  0  0  0  0
   42.3210   20.6240   37.2960 C   0  0  0  0  0  0  0  0  0  0  0  0
   41.3720   21.5960   37.5310 C   0  0  0  0  0  0  0  0  0  0  0  0
   41.4200   22.8890   36.9850 C   0  0  0  0  0  0  0  0  0  0  0  0
   38.6580   26.3840   34.9890 C   0  0  0  0  0  0  0  0  0  0  0  0
   37.9120   22.9600   35.9780 C   0  0  0  0  0  0  0  0  0  0  0  0
   37.7720   23.0070   37.3420 C   0  0  0  0  0  0  0  0  0  0  0  0
   37.9290   24.2470   37.9630 C   0  0  0  0  0  0  0  0  0  0  0  0
   38.2100   25.3060   37.1650 N   0  0  0  0  0  0  0  0  0  0  0  0
   38.3460   25.2190   35.8140 C   0  0  0  0  0  0  0  0  0  0  0  0
   38.1910   24.0310   35.2550 N   0  0  0  0  0  0  0  0  0  0  0  0
   37.9980   27.6390   35.5480 C   0  0  0  0  0  0  0  0  0  0  0  0
   38.1510   26.1720   33.5770 C   0  0  0  0  0  0  0  0  0  0  0  0
   40.3153   27.4650   34.1975 H   0  0  0  0  0  0  0  0  0  0  0  0
   40.4565   26.9748   35.9416 H   0  0  0  0  0  0  0  0  0  0  0  0
   40.4566   24.6869   34.1000 H   0  0  0  0  0  0  0  0  0  0  0  0
   42.7564   27.2510   33.6925 H   0  0  0  0  0  0  0  0  0  0  0  0
   45.1859   27.3045   34.1417 H   0  0  0  0  0  0  0  0  0  0  0  0
   46.1066   25.4604   35.6177 H   0  0  0  0  0  0  0  0  0  0  0  0
   44.5727   23.7186   36.5049 H   0  0  0  0  0  0  0  0  0  0  0  0
   44.2723   22.5125   35.2596 H   0  0  0  0  0  0  0  0  0  0  0  0
   44.1690   20.2700   36.2238 H   0  0  0  0  0  0  0  0  0  0  0  0
   42.2531   19.6204   37.7411 H   0  0  0  0  0  0  0  0  0  0  0  0
   40.5254   21.3433   38.1863 H   0  0  0  0  0  0  0  0  0  0  0  0
   40.6263   23.6147   37.2162 H   0  0  0  0  0  0  0  0  0  0  0  0
   37.7873   21.9942   35.4664 H   0  0  0  0  0  0  0  0  0  0  0  0
   37.5446   22.1017   37.9241 H   0  0  0  0  0  0  0  0  0  0  0  0
   37.8290   24.3600   39.0526 H   0  0  0  0  0  0  0  0  0  0  0  0
   38.0163   27.6043   36.6473 H   0  0  0  0  0  0  0  0  0  0  0  0
   38.5456   28.5273   35.2001 H   0  0  0  0  0  0  0  0  0  0  0  0
   36.9558   27.6912   35.2001 H   0  0  0  0  0  0  0  0  0  0  0  0
   37.1366   25.7479   33.6114 H   0  0  0  0  0  0  0  0  0  0  0  0
   38.1277   27.1357   33.0472 H   0  0  0  0  0  0  0  0  0  0  0  0
   38.8206   25.4785   33.0472 H   0  0  0  0  0  0  0  0  0  0  0  0
  1 15  1  0
  2  3  1  0
  2  1  1  0
  3  8  2  0
  4  5  2  0
  4  3  1  0
  5  6  1  0
  6  7  2  0
  8  7  1  0
  8  9  1  0
  9 14  1  0
 10  9  2  0
 10 11  1  0
 11 12  2  0
 12 13  1  0
 14 13  2  0
 15 22  1  0
 15 20  1  0
 16 17  2  0
 17 18  1  0
 19 18  2  0
 20 19  1  0
 21 20  2  0
 21 16  1  0
 23 15  1  0
  1 24  1  0
  1 25  1  0
  2 26  1  0
  4 27  1  0
  5 28  1  0
  6 29  1  0
  7 30  1  0
 10 31  1  0
 11 32  1  0
 12 33  1  0
 13 34  1  0
 14 35  1  0
 16 36  1  0
 17 37  1  0
 18 38  1  0
 22 39  1  0
 22 40  1  0
 22 41  1  0
 23 42  1  0
 23 43  1  0
 23 44  1  0
M  ISO  8  24   8  25   8  27  14  28  14  29  14  30  14  31  14  32  14
M  ISO  8  33  14  34  14  35  14  36  14  37  14  38  14  39   8  40   8
M  ISO  4  41   8  42   8  43   8  44   8
M  END
>  <minimizedAffinity>  (1) 
-5.31781864

>  <minimizedRMSD>  (1) 
1.70038605

$$$$
