
     RDKit          3D

 41 43  0  0  0  0  0  0  0  0999 V2000
   38.6310   26.0800   35.0850 C   0  0  0  0  0  0  0  0  0  0  0  0
   37.6280   22.8450   36.4050 C   0  0  0  0  0  0  0  0  0  0  0  0
   37.6220   23.0000   37.7680 C   0  0  0  0  0  0  0  0  0  0  0  0
   37.9660   24.2560   38.2650 C   0  0  0  0  0  0  0  0  0  0  0  0
   38.2810   25.2180   37.3670 N   0  0  0  0  0  0  0  0  0  0  0  0
   38.2820   25.0340   36.0240 C   0  0  0  0  0  0  0  0  0  0  0  0
   37.9490   23.8390   35.5990 N   0  0  0  0  0  0  0  0  0  0  0  0
   38.4470   27.4710   35.7220 C   0  0  0  0  0  0  0  0  0  0  0  0
   37.7670   26.0240   33.8630 C   0  0  0  0  0  0  0  0  0  0  0  0
   40.0820   26.0230   34.6460 C   0  0  0  0  0  0  0  0  0  0  0  0
   40.6420   24.6940   34.8100 N   0  0  0  0  0  0  0  0  0  0  0  0
   41.9700   24.5520   35.3070 C   0  0  0  0  0  0  0  0  0  0  0  0
   42.9860   25.5080   35.0990 C   0  0  0  0  0  0  0  0  0  0  0  0
   44.2650   25.4480   35.5950 C   0  0  0  0  0  0  0  0  0  0  0  0
   44.5210   24.3250   36.3630 C   0  0  0  0  0  0  0  0  0  0  0  0
   43.5460   23.3440   36.5970 C   0  0  0  0  0  0  0  0  0  0  0  0
   42.2430   23.4350   36.0660 C   0  0  0  0  0  0  0  0  0  0  0  0
   41.5720   22.1380   36.2650 C   0  0  0  0  0  0  0  0  0  0  0  0
   42.2760   21.1070   37.1720 C   0  0  0  0  0  0  0  0  0  0  0  0
   41.0110   21.7570   37.5550 C   0  0  0  0  0  0  0  0  0  0  0  0
   37.3589   21.8694   35.9741 H   0  0  0  0  0  0  0  0  0  0  0  0
   37.3574   22.1696   38.4392 H   0  0  0  0  0  0  0  0  0  0  0  0
   37.9808   24.4576   39.3463 H   0  0  0  0  0  0  0  0  0  0  0  0
   38.4594   27.3770   36.8179 H   0  0  0  0  0  0  0  0  0  0  0  0
   39.2655   28.1323   35.4014 H   0  0  0  0  0  0  0  0  0  0  0  0
   37.4847   27.8967   35.4014 H   0  0  0  0  0  0  0  0  0  0  0  0
   36.7110   25.9556   34.1634 H   0  0  0  0  0  0  0  0  0  0  0  0
   37.9196   26.9339   33.2640 H   0  0  0  0  0  0  0  0  0  0  0  0
   38.0358   25.1414   33.2640 H   0  0  0  0  0  0  0  0  0  0  0  0
   40.6654   26.7326   35.2511 H   0  0  0  0  0  0  0  0  0  0  0  0
   40.1272   26.2842   33.5784 H   0  0  0  0  0  0  0  0  0  0  0  0
   40.0850   23.8617   34.5695 H   0  0  0  0  0  0  0  0  0  0  0  0
   42.7301   26.3824   34.4825 H   0  0  0  0  0  0  0  0  0  0  0  0
   45.0197   26.2239   35.3993 H   0  0  0  0  0  0  0  0  0  0  0  0
   45.5208   24.1979   36.8038 H   0  0  0  0  0  0  0  0  0  0  0  0
   43.8071   22.4733   37.2164 H   0  0  0  0  0  0  0  0  0  0  0  0
   41.1694   22.1759   35.2420 H   0  0  0  0  0  0  0  0  0  0  0  0
   42.2928   20.0425   36.8952 H   0  0  0  0  0  0  0  0  0  0  0  0
   43.2758   20.9980   37.6176 H   0  0  0  0  0  0  0  0  0  0  0  0
   41.0065   22.4864   38.3784 H   0  0  0  0  0  0  0  0  0  0  0  0
   40.0288   21.3742   37.8693 H   0  0  0  0  0  0  0  0  0  0  0  0
  1  8  1  0
  1  6  1  0
  2  3  2  0
  3  4  1  0
  5  4  2  0
  6  5  1  0
  7  6  2  0
  7  2  1  0
  9  1  1  0
 10 11  1  0
 10  1  1  0
 11 12  1  0
 12 17  1  0
 13 12  2  0
 13 14  1  0
 14 15  2  0
 15 16  1  0
 17 18  1  0
 17 16  2  0
 18 19  1  0
 18 20  1  0
 19 20  1  0
  2 21  1  0
  3 22  1  0
  4 23  1  0
  8 24  1  0
  8 25  1  0
  8 26  1  0
  9 27  1  0
  9 28  1  0
  9 29  1  0
 10 30  1  0
 10 31  1  0
 11 32  1  0
 13 33  1  0
 14 34  1  0
 15 35  1  0
 16 36  1  0
 18 37  1  0
 19 38  1  0
 19 39  1  0
 20 40  1  0
 20 41  1  0
M  ISO  8  21  14  22  14  23  14  24   8  25   8  26   8  27   8  28   8
M  ISO  8  29   8  30   8  31   8  33  14  34  14  35  14  36  14  37  13
M  ISO  4  38  13  39  13  40  13  41  13
M  END
>  <minimizedAffinity>  (1) 
-4.96233654

>  <minimizedRMSD>  (1) 
0.756796896

$$$$
