
     RDKit          3D

 46 47  0  0  0  0  0  0  0  0999 V2000
   40.1400   25.7240   34.6170 C   0  0  0  0  0  0  0  0  0  0  0  0
   40.7160   24.5000   35.1660 N   0  0  0  0  0  0  0  0  0  0  0  0
   42.0950   24.4670   35.4660 C   0  0  0  0  0  0  0  0  0  0  0  0
   43.0140   25.5240   35.1470 C   0  0  0  0  0  0  0  0  0  0  0  0
   44.3520   25.6020   35.4980 C   0  0  0  0  0  0  0  0  0  0  0  0
   44.7460   24.4920   36.2440 C   0  0  0  0  0  0  0  0  0  0  0  0
   43.9080   23.4220   36.5850 C   0  0  0  0  0  0  0  0  0  0  0  0
   42.5510   23.3970   36.1820 C   0  0  0  0  0  0  0  0  0  0  0  0
   42.0620   21.9750   36.1950 C   0  0  0  0  0  0  0  0  0  0  0  0
   40.9410   21.8070   35.2060 C   0  0  0  0  0  0  0  0  0  0  0  0
   40.9900   22.1020   37.5150 C   0  0  0  0  0  0  0  0  0  0  0  0
   42.6890   20.8590   36.8040 C   0  0  0  0  0  0  0  0  0  0  0  0
   38.7180   25.9350   35.0670 C   0  0  0  0  0  0  0  0  0  0  0  0
   37.5190   22.7930   36.4650 C   0  0  0  0  0  0  0  0  0  0  0  0
   37.5120   22.9940   37.8180 C   0  0  0  0  0  0  0  0  0  0  0  0
   37.9190   24.2380   38.2920 C   0  0  0  0  0  0  0  0  0  0  0  0
   38.2970   25.1610   37.3780 N   0  0  0  0  0  0  0  0  0  0  0  0
   38.3050   24.9510   36.0450 C   0  0  0  0  0  0  0  0  0  0  0  0
   37.9090   23.7760   35.7040 N   0  0  0  0  0  0  0  0  0  0  0  0
   38.6890   27.3440   35.6950 C   0  0  0  0  0  0  0  0  0  0  0  0
   37.8060   25.9470   33.8840 C   0  0  0  0  0  0  0  0  0  0  0  0
   40.1587   25.6629   33.5189 H   0  0  0  0  0  0  0  0  0  0  0  0
   40.7388   26.5719   34.9809 H   0  0  0  0  0  0  0  0  0  0  0  0
   40.1250   23.6729   35.3320 H   0  0  0  0  0  0  0  0  0  0  0  0
   42.6116   26.3628   34.5601 H   0  0  0  0  0  0  0  0  0  0  0  0
   45.0181   26.4332   35.2233 H   0  0  0  0  0  0  0  0  0  0  0  0
   45.7896   24.4535   36.5897 H   0  0  0  0  0  0  0  0  0  0  0  0
   44.3116   22.5868   37.1762 H   0  0  0  0  0  0  0  0  0  0  0  0
   39.9935   21.6650   35.7464 H   0  0  0  0  0  0  0  0  0  0  0  0
   40.8718   22.7048   34.5742 H   0  0  0  0  0  0  0  0  0  0  0  0
   41.1380   20.9284   34.5742 H   0  0  0  0  0  0  0  0  0  0  0  0
   41.5567   22.0349   38.4554 H   0  0  0  0  0  0  0  0  0  0  0  0
   40.4665   23.0684   37.4706 H   0  0  0  0  0  0  0  0  0  0  0  0
   40.2552   21.2846   37.4706 H   0  0  0  0  0  0  0  0  0  0  0  0
   42.6329   20.9588   37.8980 H   0  0  0  0  0  0  0  0  0  0  0  0
   42.1773   19.9362   36.4933 H   0  0  0  0  0  0  0  0  0  0  0  0
   43.7433   20.8160   36.4933 H   0  0  0  0  0  0  0  0  0  0  0  0
   37.2051   21.8314   36.0329 H   0  0  0  0  0  0  0  0  0  0  0  0
   37.1952   22.1988   38.5088 H   0  0  0  0  0  0  0  0  0  0  0  0
   37.9327   24.4620   39.3689 H   0  0  0  0  0  0  0  0  0  0  0  0
   38.6908   27.2568   36.7915 H   0  0  0  0  0  0  0  0  0  0  0  0
   39.5757   27.9083   35.3706 H   0  0  0  0  0  0  0  0  0  0  0  0
   37.7798   27.8714   35.3706 H   0  0  0  0  0  0  0  0  0  0  0  0
   36.7609   25.9608   34.2269 H   0  0  0  0  0  0  0  0  0  0  0  0
   38.0046   26.8426   33.2770 H   0  0  0  0  0  0  0  0  0  0  0  0
   37.9809   25.0465   33.2770 H   0  0  0  0  0  0  0  0  0  0  0  0
  1 13  1  0
  1  2  1  0
  2  3  1  0
  3  8  1  0
  4  3  2  0
  4  5  1  0
  5  6  2  0
  6  7  1  0
  8  9  1  0
  8  7  2  0
  9 12  1  0
  9 11  1  0
 10  9  1  0
 13 20  1  0
 13 18  1  0
 14 15  2  0
 15 16  1  0
 17 16  2  0
 18 17  1  0
 19 18  2  0
 19 14  1  0
 21 13  1  0
  1 22  1  0
  1 23  1  0
  2 24  1  0
  4 25  1  0
  5 26  1  0
  6 27  1  0
  7 28  1  0
 10 29  1  0
 10 30  1  0
 10 31  1  0
 11 32  1  0
 11 33  1  0
 11 34  1  0
 12 35  1  0
 12 36  1  0
 12 37  1  0
 14 38  1  0
 15 39  1  0
 16 40  1  0
 20 41  1  0
 20 42  1  0
 20 43  1  0
 21 44  1  0
 21 45  1  0
 21 46  1  0
M  ISO  8  22   8  23   8  25  14  26  14  27  14  28  14  29   8  30   8
M  ISO  8  31   8  32   8  33   8  34   8  35   8  36   8  37   8  38  14
M  ISO  8  39  14  40  14  41   8  42   8  43   8  44   8  45   8  46   8
M  END
>  <minimizedAffinity>  (1) 
-4.90083981

>  <minimizedRMSD>  (1) 
0.98669517

$$$$
