
     RDKit          3D

 41 43  0  0  0  0  0  0  0  0999 V2000
   40.3900   26.5430   34.9940 C   0  0  0  0  0  0  0  0  0  0  0  0
   41.0940   25.3100   34.6490 N   0  0  0  0  0  0  0  0  0  0  0  0
   42.4510   25.1780   35.0500 C   0  0  0  0  0  0  0  0  0  0  0  0
   43.4810   26.0180   34.5680 C   0  0  0  0  0  0  0  0  0  0  0  0
   44.8080   25.9560   34.9270 C   0  0  0  0  0  0  0  0  0  0  0  0
   45.1200   24.9670   35.8540 C   0  0  0  0  0  0  0  0  0  0  0  0
   44.1080   24.1160   36.3490 C   0  0  0  0  0  0  0  0  0  0  0  0
   42.7690   24.2130   35.9460 C   0  0  0  0  0  0  0  0  0  0  0  0
   42.2310   23.0630   36.5010 N   0  0  0  0  0  0  0  0  0  0  0  0
   43.0340   21.9600   36.3890 C   0  0  0  0  0  0  0  0  0  0  0  0
   42.4200   20.9320   37.0760 C   0  0  0  0  0  0  0  0  0  0  0  0
   41.2660   21.3880   37.5950 N   0  0  0  0  0  0  0  0  0  0  0  0
   41.1730   22.7060   37.2250 C   0  0  0  0  0  0  0  0  0  0  0  0
   38.8910   26.3670   34.9130 C   0  0  0  0  0  0  0  0  0  0  0  0
   38.0390   22.8450   35.1850 C   0  0  0  0  0  0  0  0  0  0  0  0
   37.6300   22.6820   36.4850 C   0  0  0  0  0  0  0  0  0  0  0  0
   37.6320   23.8080   37.3130 C   0  0  0  0  0  0  0  0  0  0  0  0
   38.0440   24.9730   36.7590 N   0  0  0  0  0  0  0  0  0  0  0  0
   38.4480   25.0980   35.4670 C   0  0  0  0  0  0  0  0  0  0  0  0
   38.4300   24.0140   34.7150 N   0  0  0  0  0  0  0  0  0  0  0  0
   38.2880   27.5460   35.6860 C   0  0  0  0  0  0  0  0  0  0  0  0
   38.4600   26.5120   33.4810 C   0  0  0  0  0  0  0  0  0  0  0  0
   40.6607   26.8340   36.0197 H   0  0  0  0  0  0  0  0  0  0  0  0
   40.6852   27.3214   34.2750 H   0  0  0  0  0  0  0  0  0  0  0  0
   40.6199   24.5574   34.1296 H   0  0  0  0  0  0  0  0  0  0  0  0
   43.1957   26.7915   33.8398 H   0  0  0  0  0  0  0  0  0  0  0  0
   45.5652   26.6375   34.5120 H   0  0  0  0  0  0  0  0  0  0  0  0
   46.1567   24.8477   36.2019 H   0  0  0  0  0  0  0  0  0  0  0  0
   44.3822   23.3435   37.0826 H   0  0  0  0  0  0  0  0  0  0  0  0
   43.9917   21.9033   35.8509 H   0  0  0  0  0  0  0  0  0  0  0  0
   42.8101   19.9089   37.1815 H   0  0  0  0  0  0  0  0  0  0  0  0
   40.3403   23.3742   37.4898 H   0  0  0  0  0  0  0  0  0  0  0  0
   38.0408   21.9734   34.5139 H   0  0  0  0  0  0  0  0  0  0  0  0
   37.3116   21.6990   36.8622 H   0  0  0  0  0  0  0  0  0  0  0  0
   37.3141   23.7506   38.3645 H   0  0  0  0  0  0  0  0  0  0  0  0
   38.3819   27.3625   36.7665 H   0  0  0  0  0  0  0  0  0  0  0  0
   38.8244   28.4696   35.4230 H   0  0  0  0  0  0  0  0  0  0  0  0
   37.2251   27.6517   35.4230 H   0  0  0  0  0  0  0  0  0  0  0  0
   37.4180   26.8626   33.4454 H   0  0  0  0  0  0  0  0  0  0  0  0
   39.1096   27.2411   32.9746 H   0  0  0  0  0  0  0  0  0  0  0  0
   38.5369   25.5385   32.9746 H   0  0  0  0  0  0  0  0  0  0  0  0
  2  1  1  0
  2  3  1  0
  3  8  2  0
  4  5  2  0
  4  3  1  0
  5  6  1  0
  6  7  2  0
  8  7  1  0
  8  9  1  0
  9 13  1  0
 10  9  1  0
 10 11  2  0
 11 12  1  0
 13 12  2  0
 14  1  1  0
 14 19  1  0
 14 21  1  0
 15 16  2  0
 16 17  1  0
 18 17  2  0
 19 18  1  0
 20 15  1  0
 20 19  2  0
 22 14  1  0
  1 23  1  0
  1 24  1  0
  2 25  1  0
  4 26  1  0
  5 27  1  0
  6 28  1  0
  7 29  1  0
 10 30  1  0
 11 31  1  0
 13 32  1  0
 15 33  1  0
 16 34  1  0
 17 35  1  0
 21 36  1  0
 21 37  1  0
 21 38  1  0
 22 39  1  0
 22 40  1  0
 22 41  1  0
M  ISO  8  23   8  24   8  26  14  27  14  28  14  29  14  30  14  31  14
M  ISO  8  32  14  33  14  34  14  35  14  36   8  37   8  38   8  39   8
M  ISO  2  40   8  41   8
M  END
>  <minimizedAffinity>  (1) 
-4.84763384

>  <minimizedRMSD>  (1) 
1.46398711

$$$$
