
     RDKit          3D

 42 44  0  0  0  0  0  0  0  0999 V2000
   40.3820   26.6310   34.8890 C   0  0  0  0  0  0  0  0  0  0  0  0
   41.0950   25.5150   34.2910 N   0  0  0  0  0  0  0  0  0  0  0  0
   42.1010   24.8360   35.0140 C   0  0  0  0  0  0  0  0  0  0  0  0
   41.8120   23.8030   35.9120 C   0  0  0  0  0  0  0  0  0  0  0  0
   42.7210   23.0360   36.6300 C   0  0  0  0  0  0  0  0  0  0  0  0
   44.0440   23.3820   36.3760 C   0  0  0  0  0  0  0  0  0  0  0  0
   44.3730   24.4180   35.4770 C   0  0  0  0  0  0  0  0  0  0  0  0
   43.3970   25.1740   34.7790 C   0  0  0  0  0  0  0  0  0  0  0  0
   44.0660   26.3470   34.2880 C   0  0  0  0  0  0  0  0  0  0  0  0
   45.2060   26.9210   34.8740 C   0  0  0  0  0  0  0  0  0  0  0  0
   45.9920   27.9350   34.4150 C   0  0  0  0  0  0  0  0  0  0  0  0
   45.6270   28.4750   33.2150 N   0  0  0  0  0  0  0  0  0  0  0  0
   44.5430   27.9720   32.5970 C   0  0  0  0  0  0  0  0  0  0  0  0
   43.8500   26.9790   33.1400 N   0  0  0  0  0  0  0  0  0  0  0  0
   38.8890   26.4350   34.8700 C   0  0  0  0  0  0  0  0  0  0  0  0
   38.0700   22.8820   34.7250 C   0  0  0  0  0  0  0  0  0  0  0  0
   37.7860   22.5320   36.0180 C   0  0  0  0  0  0  0  0  0  0  0  0
   37.8650   23.5370   36.9820 C   0  0  0  0  0  0  0  0  0  0  0  0
   38.2180   24.7760   36.5670 N   0  0  0  0  0  0  0  0  0  0  0  0
   38.4970   25.0930   35.2830 C   0  0  0  0  0  0  0  0  0  0  0  0
   38.4080   24.1180   34.4130 N   0  0  0  0  0  0  0  0  0  0  0  0
   38.3170   27.4850   35.8280 C   0  0  0  0  0  0  0  0  0  0  0  0
   38.3590   26.7410   33.5020 C   0  0  0  0  0  0  0  0  0  0  0  0
   40.7105   26.7414   35.9330 H   0  0  0  0  0  0  0  0  0  0  0  0
   40.6097   27.5300   34.2975 H   0  0  0  0  0  0  0  0  0  0  0  0
   40.8651   25.2166   33.3323 H   0  0  0  0  0  0  0  0  0  0  0  0
   40.7476   23.5726   36.0667 H   0  0  0  0  0  0  0  0  0  0  0  0
   42.4252   22.2380   37.3269 H   0  0  0  0  0  0  0  0  0  0  0  0
   44.8508   22.8362   36.8870 H   0  0  0  0  0  0  0  0  0  0  0  0
   45.4351   24.6501   35.3097 H   0  0  0  0  0  0  0  0  0  0  0  0
   45.5071   26.4910   35.8407 H   0  0  0  0  0  0  0  0  0  0  0  0
   46.8663   28.2962   34.9763 H   0  0  0  0  0  0  0  0  0  0  0  0
   44.2271   28.3891   31.6294 H   0  0  0  0  0  0  0  0  0  0  0  0
   38.0153   22.1199   33.9337 H   0  0  0  0  0  0  0  0  0  0  0  0
   37.5074   21.5019   36.2851 H   0  0  0  0  0  0  0  0  0  0  0  0
   37.6484   23.3302   38.0405 H   0  0  0  0  0  0  0  0  0  0  0  0
   38.4903   27.1668   36.8666 H   0  0  0  0  0  0  0  0  0  0  0  0
   38.8137   28.4507   35.6526 H   0  0  0  0  0  0  0  0  0  0  0  0
   37.2363   27.5914   35.6526 H   0  0  0  0  0  0  0  0  0  0  0  0
   37.4095   27.2892   33.5908 H   0  0  0  0  0  0  0  0  0  0  0  0
   39.0883   27.3570   32.9555 H   0  0  0  0  0  0  0  0  0  0  0  0
   38.1902   25.8014   32.9555 H   0  0  0  0  0  0  0  0  0  0  0  0
  2  1  1  0
  2  3  1  0
  3  4  2  0
  4  5  1  0
  6  5  2  0
  7  6  1  0
  8  3  1  0
  8  7  2  0
  9  8  1  0
  9 10  2  0
 11 10  1  0
 12 11  2  0
 13 14  2  0
 13 12  1  0
 14  9  1  0
 15  1  1  0
 15 20  1  0
 15 22  1  0
 16 17  2  0
 17 18  1  0
 19 18  2  0
 20 19  1  0
 21 16  1  0
 21 20  2  0
 23 15  1  0
  1 24  1  0
  1 25  1  0
  2 26  1  0
  4 27  1  0
  5 28  1  0
  6 29  1  0
  7 30  1  0
 10 31  1  0
 11 32  1  0
 13 33  1  0
 16 34  1  0
 17 35  1  0
 18 36  1  0
 22 37  1  0
 22 38  1  0
 22 39  1  0
 23 40  1  0
 23 41  1  0
 23 42  1  0
M  ISO  8  24   8  25   8  27  14  28  14  29  14  30  14  31  14  32  14
M  ISO  8  33  14  34  14  35  14  36  14  37   8  38   8  39   8  40   8
M  ISO  2  41   8  42   8
M  END
>  <minimizedAffinity>  (1) 
-4.71772766

>  <minimizedRMSD>  (1) 
4.49057865

$$$$
