
     RDKit          3D

 37 38  0  0  0  0  0  0  0  0999 V2000
   38.6100   26.1160   35.1780 C   0  0  0  0  0  0  0  0  0  0  0  0
   37.7200   22.8700   36.5420 C   0  0  0  0  0  0  0  0  0  0  0  0
   37.6600   23.0710   37.9000 C   0  0  0  0  0  0  0  0  0  0  0  0
   37.9230   24.3510   38.3910 C   0  0  0  0  0  0  0  0  0  0  0  0
   38.2230   25.3080   37.4810 N   0  0  0  0  0  0  0  0  0  0  0  0
   38.2780   25.0810   36.1400 C   0  0  0  0  0  0  0  0  0  0  0  0
   38.0220   23.8620   35.7250 N   0  0  0  0  0  0  0  0  0  0  0  0
   38.2740   27.5080   35.7450 C   0  0  0  0  0  0  0  0  0  0  0  0
   37.8320   25.9540   33.9050 C   0  0  0  0  0  0  0  0  0  0  0  0
   40.0880   26.1560   34.8460 C   0  0  0  0  0  0  0  0  0  0  0  0
   40.6380   24.8140   34.7130 N   0  0  0  0  0  0  0  0  0  0  0  0
   41.8990   24.5340   35.3090 C   0  0  0  0  0  0  0  0  0  0  0  0
   43.0070   25.3970   35.2250 C   0  0  0  0  0  0  0  0  0  0  0  0
   44.2390   25.1950   35.8110 C   0  0  0  0  0  0  0  0  0  0  0  0
   44.3210   24.0130   36.5360 C   0  0  0  0  0  0  0  0  0  0  0  0
   43.2540   23.1160   36.6520 C   0  0  0  0  0  0  0  0  0  0  0  0
   42.0200   23.3700   36.0300 C   0  0  0  0  0  0  0  0  0  0  0  0
   41.2650   22.1320   36.2420 C   0  0  0  0  0  0  0  0  0  0  0  0
   37.5140   21.8708   36.1308 H   0  0  0  0  0  0  0  0  0  0  0  0
   37.4112   22.2449   38.5824 H   0  0  0  0  0  0  0  0  0  0  0  0
   37.8882   24.5722   39.4680 H   0  0  0  0  0  0  0  0  0  0  0  0
   38.2836   27.4683   36.8442 H   0  0  0  0  0  0  0  0  0  0  0  0
   39.0223   28.2357   35.3979 H   0  0  0  0  0  0  0  0  0  0  0  0
   37.2761   27.8142   35.3979 H   0  0  0  0  0  0  0  0  0  0  0  0
   36.7806   25.7351   34.1432 H   0  0  0  0  0  0  0  0  0  0  0  0
   37.8895   26.8834   33.3194 H   0  0  0  0  0  0  0  0  0  0  0  0
   38.2556   25.1248   33.3194 H   0  0  0  0  0  0  0  0  0  0  0  0
   40.2276   26.6958   33.8978 H   0  0  0  0  0  0  0  0  0  0  0  0
   40.6139   26.6666   35.6662 H   0  0  0  0  0  0  0  0  0  0  0  0
   40.1252   24.0837   34.1987 H   0  0  0  0  0  0  0  0  0  0  0  0
   42.8788   26.3181   34.6375 H   0  0  0  0  0  0  0  0  0  0  0  0
   45.0761   25.9019   35.7136 H   0  0  0  0  0  0  0  0  0  0  0  0
   45.2676   23.7715   37.0416 H   0  0  0  0  0  0  0  0  0  0  0  0
   43.3833   22.1957   37.2405 H   0  0  0  0  0  0  0  0  0  0  0  0
   41.1542   21.9503   37.3212 H   0  0  0  0  0  0  0  0  0  0  0  0
   40.2702   22.2258   35.7820 H   0  0  0  0  0  0  0  0  0  0  0  0
   41.8038   21.2906   35.7820 H   0  0  0  0  0  0  0  0  0  0  0  0
  1  8  1  0
  1  6  1  0
  2  3  2  0
  3  4  1  0
  5  4  2  0
  6  5  1  0
  7  6  2  0
  7  2  1  0
  9  1  1  0
 10  1  1  0
 11 10  1  0
 11 12  1  0
 12 17  1  0
 13 12  2  0
 13 14  1  0
 14 15  2  0
 15 16  1  0
 17 18  1  0
 17 16  2  0
  2 19  1  0
  3 20  1  0
  4 21  1  0
  8 22  1  0
  8 23  1  0
  8 24  1  0
  9 25  1  0
  9 26  1  0
  9 27  1  0
 10 28  1  0
 10 29  1  0
 11 30  1  0
 13 31  1  0
 14 32  1  0
 15 33  1  0
 16 34  1  0
 18 35  1  0
 18 36  1  0
 18 37  1  0
M  ISO  8  19  14  20  14  21  14  22   8  23   8  24   8  25   8  26   8
M  ISO  8  27   8  28   8  29   8  31  14  32  14  33  14  34  14  35   8
M  ISO  2  36   8  37   8
M  END
>  <minimizedAffinity>  (1) 
-4.51285267

>  <minimizedRMSD>  (1) 
0.321871787

$$$$
