
     RDKit          3D

 50 53  0  0  1  0  0  0  0  0999 V2000
   38.8640   26.0280   34.8690 C   0  0  1  0  0  0  0  0  0  0  0  0
   37.7650   22.8350   36.2300 C   0  0  0  0  0  0  0  0  0  0  0  0
   37.6050   23.0490   37.5640 C   0  0  0  0  0  0  0  0  0  0  0  0
   37.8710   24.3220   38.0450 C   0  0  0  0  0  0  0  0  0  0  0  0
   38.2700   25.2470   37.1410 N   0  0  0  0  0  0  0  0  0  0  0  0
   38.4270   25.0230   35.8130 C   0  0  0  0  0  0  0  0  0  0  0  0
   38.1590   23.8100   35.4380 N   0  0  0  0  0  0  0  0  0  0  0  0
   38.1730   27.3750   35.1890 C   0  0  0  0  0  0  0  0  0  0  0  0
   40.3480   26.3040   34.9590 C   0  0  0  0  0  0  0  0  0  0  0  0
   41.1500   25.1180   34.6660 N   0  0  0  0  0  0  0  0  0  0  0  0
   42.4830   25.0580   35.1050 C   0  0  0  0  0  0  0  0  0  0  0  0
   43.5260   25.8740   34.6640 C   0  0  0  0  0  0  0  0  0  0  0  0
   44.8510   25.8710   35.1150 C   0  0  0  0  0  0  0  0  0  0  0  0
   45.1100   24.9460   36.1060 C   0  0  0  0  0  0  0  0  0  0  0  0
   44.0850   24.1070   36.5730 C   0  0  0  0  0  0  0  0  0  0  0  0
   42.7690   24.1540   36.0730 C   0  0  0  0  0  0  0  0  0  0  0  0
   42.1120   23.0610   36.7280 C   0  0  0  0  0  0  0  0  0  0  0  0
   41.0950   22.5910   37.4070 N   0  0  0  0  0  0  0  0  0  0  0  0
   41.2160   21.3240   37.6890 O   0  0  0  0  0  0  0  0  0  0  0  0
   42.3480   20.8820   37.1970 C   0  0  0  0  0  0  0  0  0  0  0  0
   42.9140   21.9330   36.6020 N   0  0  0  0  0  0  0  0  0  0  0  0
   38.5350   25.6310   33.4720 C   0  0  0  0  0  0  0  0  0  0  0  0
   37.9600   26.6410   32.6420 N   0  0  0  0  0  0  0  0  0  0  0  0
   36.6020   26.7690   32.6950 C   0  0  0  0  0  0  0  0  0  0  0  0
   35.9100   27.7080   31.9340 C   0  0  0  0  0  0  0  0  0  0  0  0
   36.6050   28.5490   31.0890 C   0  0  0  0  0  0  0  0  0  0  0  0
   36.0050   29.5370   30.2720 N   0  0  0  0  0  0  0  0  0  0  0  0
   37.9420   28.3990   31.0570 N   0  0  0  0  0  0  0  0  0  0  0  0
   38.5850   27.4830   31.8030 C   0  0  0  0  0  0  0  0  0  0  0  0
   39.8360   27.3780   31.7430 O   0  0  0  0  0  0  0  0  0  0  0  0
   37.5634   21.8387   35.8096 H   0  0  0  0  0  0  0  0  0  0  0  0
   37.2769   22.2422   38.2359 H   0  0  0  0  0  0  0  0  0  0  0  0
   37.7628   24.5686   39.1115 H   0  0  0  0  0  0  0  0  0  0  0  0
   38.1072   27.5034   36.2795 H   0  0  0  0  0  0  0  0  0  0  0  0
   38.7594   28.1996   34.7575 H   0  0  0  0  0  0  0  0  0  0  0  0
   37.1612   27.3797   34.7575 H   0  0  0  0  0  0  0  0  0  0  0  0
   40.6058   27.0929   34.2371 H   0  0  0  0  0  0  0  0  0  0  0  0
   40.5711   26.6156   35.9901 H   0  0  0  0  0  0  0  0  0  0  0  0
   40.7408   24.3317   34.1414 H   0  0  0  0  0  0  0  0  0  0  0  0
   43.2794   26.5996   33.8749 H   0  0  0  0  0  0  0  0  0  0  0  0
   45.6199   26.5478   34.7140 H   0  0  0  0  0  0  0  0  0  0  0  0
   46.1214   24.8657   36.5310 H   0  0  0  0  0  0  0  0  0  0  0  0
   44.3205   23.3806   37.3648 H   0  0  0  0  0  0  0  0  0  0  0  0
   42.7472   19.8590   37.2614 H   0  0  0  0  0  0  0  0  0  0  0  0
   39.4657   25.2938   32.9922 H   0  0  0  0  0  0  0  0  0  0  0  0
   37.7616   24.8542   33.5642 H   0  0  0  0  0  0  0  0  0  0  0  0
   36.0332   26.1060   33.3635 H   0  0  0  0  0  0  0  0  0  0  0  0
   34.8147   27.7789   32.0062 H   0  0  0  0  0  0  0  0  0  0  0  0
   36.5905   30.1288   29.6654 H   0  0  0  0  0  0  0  0  0  0  0  0
   34.9829   29.6641   30.2841 H   0  0  0  0  0  0  0  0  0  0  0  0
  1 22  1  6
  1  9  1  0
  1  8  1  0
  1  6  1  0
  2  3  2  0
  3  4  1  0
  5  4  2  0
  6  5  1  0
  7  6  2  0
  7  2  1  0
 10  9  1  0
 10 11  1  0
 11 16  1  0
 12 11  2  0
 12 13  1  0
 13 14  2  0
 14 15  1  0
 16 15  2  0
 16 17  1  0
 17 18  2  0
 18 19  1  0
 20 19  1  0
 21 17  1  0
 21 20  2  0
 23 24  1  0
 23 22  1  0
 25 24  2  0
 26 25  1  0
 27 26  1  0
 28 26  2  0
 28 29  1  0
 29 23  1  0
 30 29  2  0
  2 31  1  0
  3 32  1  0
  4 33  1  0
  8 34  1  0
  8 35  1  0
  8 36  1  0
  9 37  1  0
  9 38  1  0
 10 39  1  0
 12 40  1  0
 13 41  1  0
 14 42  1  0
 15 43  1  0
 20 44  1  0
 22 45  1  0
 22 46  1  0
 24 47  1  0
 25 48  1  0
 27 49  1  0
 27 50  1  0
M  ISO  8  31  14  32  14  33  14  34   8  35   8  36   8  37   8  38   8
M  ISO  8  40  14  41  14  42  14  43  14  44  14  45   8  46   8  47  14
M  ISO  1  48  14
M  END
>  <minimizedAffinity>  (1) 
-5.91486645

>  <minimizedRMSD>  (1) 
0.917029023

$$$$
