
     RDKit          3D

 28 30  0  0  0  0  0  0  0  0999 V2000
   41.4230   24.7760   34.7420 N   0  0  0  0  0  0  0  0  0  0  0  0
   41.5410   23.5650   35.2980 C   0  0  0  0  0  0  0  0  0  0  0  0
   42.6680   23.3090   36.0890 C   0  0  0  0  0  0  0  0  0  0  0  0
   43.6060   24.2930   36.2700 C   0  0  0  0  0  0  0  0  0  0  0  0
   44.6410   24.1410   36.9620 O   0  0  0  0  0  0  0  0  0  0  0  0
   43.4400   25.4870   35.6920 N   0  0  0  0  0  0  0  0  0  0  0  0
   42.3450   25.7210   34.9280 C   0  0  0  0  0  0  0  0  0  0  0  0
   42.1970   26.8380   34.3930 O   0  0  0  0  0  0  0  0  0  0  0  0
   39.0640   25.3100   34.6210 C   0  0  0  0  0  0  0  0  0  0  0  0
   40.2630   24.9490   33.9660 C   0  0  0  0  0  0  0  0  0  0  0  0
   40.1950   24.7910   32.5900 C   0  0  0  0  0  0  0  0  0  0  0  0
   39.0100   24.9850   31.9310 N   0  0  0  0  0  0  0  0  0  0  0  0
   37.8920   25.3310   32.6090 C   0  0  0  0  0  0  0  0  0  0  0  0
   37.9210   25.4940   33.9660 N   0  0  0  0  0  0  0  0  0  0  0  0
   36.6110   25.5480   31.9530 C   0  0  0  0  0  0  0  0  0  0  0  0
   35.8890   26.6520   31.6870 N   0  0  0  0  0  0  0  0  0  0  0  0
   34.8000   26.2900   31.0720 O   0  0  0  0  0  0  0  0  0  0  0  0
   34.7460   25.0000   30.9060 C   0  0  0  0  0  0  0  0  0  0  0  0
   35.8850   24.5280   31.4610 N   0  0  0  0  0  0  0  0  0  0  0  0
   42.8920   21.9770   36.7610 C   0  0  0  0  0  0  0  0  0  0  0  0
   40.7746   22.7922   35.1384 H   0  0  0  0  0  0  0  0  0  0  0  0
   44.1428   26.2277   35.8270 H   0  0  0  0  0  0  0  0  0  0  0  0
   39.0764   25.4438   35.7128 H   0  0  0  0  0  0  0  0  0  0  0  0
   41.0960   24.5088   32.0256 H   0  0  0  0  0  0  0  0  0  0  0  0
   33.9475   24.4201   30.4200 H   0  0  0  0  0  0  0  0  0  0  0  0
   42.8698   22.1088   37.8528 H   0  0  0  0  0  0  0  0  0  0  0  0
   42.0990   21.2765   36.4601 H   0  0  0  0  0  0  0  0  0  0  0  0
   43.8705   21.5744   36.4601 H   0  0  0  0  0  0  0  0  0  0  0  0
  1  7  1  0
  1  2  1  0
  2  3  2  0
  3  4  1  0
  3 20  1  0
  4  5  2  0
  6  4  1  0
  7  6  1  0
  8  7  2  0
 10  9  2  0
 10  1  1  0
 11 10  1  0
 12 11  2  0
 12 13  1  0
 13 14  2  0
 14  9  1  0
 15 13  1  0
 16 15  2  0
 17 16  1  0
 18 17  1  0
 18 19  2  0
 19 15  1  0
  2 21  1  0
  6 22  1  0
  9 23  1  0
 11 24  1  0
 18 25  1  0
 20 26  1  0
 20 27  1  0
 20 28  1  0
M  ISO  8  21  14  22   9  23  14  24  14  25  14  26   8  27   8  28   8
M  END
>  <minimizedAffinity>  (1) 
-4.22982454

>  <minimizedRMSD>  (1) 
7.06797934

$$$$
