
     RDKit          3D

 54 57  0  0  1  0  0  0  0  0999 V2000
   39.1180   26.2260   34.9420 C   0  0  1  0  0  0  0  0  0  0  0  0
   38.4190   22.6650   34.9410 C   0  0  0  0  0  0  0  0  0  0  0  0
   37.8120   22.4200   36.1490 C   0  0  0  0  0  0  0  0  0  0  0  0
   37.6270   23.4990   37.0070 C   0  0  0  0  0  0  0  0  0  0  0  0
   38.0660   24.7000   36.5700 N   0  0  0  0  0  0  0  0  0  0  0  0
   38.6620   24.9340   35.3800 C   0  0  0  0  0  0  0  0  0  0  0  0
   38.8030   23.8850   34.6270 N   0  0  0  0  0  0  0  0  0  0  0  0
   38.4640   27.3350   35.8010 C   0  0  0  0  0  0  0  0  0  0  0  0
   40.6200   26.4200   35.1440 C   0  0  0  0  0  0  0  0  0  0  0  0
   41.3790   25.2380   34.7190 N   0  0  0  0  0  0  0  0  0  0  0  0
   42.7040   25.0700   35.1730 C   0  0  0  0  0  0  0  0  0  0  0  0
   43.8090   25.8160   34.7610 C   0  0  0  0  0  0  0  0  0  0  0  0
   45.1210   25.7120   35.2210 C   0  0  0  0  0  0  0  0  0  0  0  0
   45.3000   24.7510   36.1950 C   0  0  0  0  0  0  0  0  0  0  0  0
   44.2140   23.9770   36.6360 C   0  0  0  0  0  0  0  0  0  0  0  0
   42.9100   24.1310   36.1230 C   0  0  0  0  0  0  0  0  0  0  0  0
   42.1670   23.0750   36.7480 C   0  0  0  0  0  0  0  0  0  0  0  0
   41.0960   22.6600   37.3810 N   0  0  0  0  0  0  0  0  0  0  0  0
   41.1400   21.3890   37.6630 O   0  0  0  0  0  0  0  0  0  0  0  0
   42.2630   20.8860   37.2220 C   0  0  0  0  0  0  0  0  0  0  0  0
   42.9080   21.9060   36.6570 N   0  0  0  0  0  0  0  0  0  0  0  0
   38.8210   26.4680   33.5010 C   0  0  0  0  0  0  0  0  0  0  0  0
   37.5420   26.7310   33.0680 N   0  0  0  0  0  0  0  0  0  0  0  0
   37.0020   28.0020   32.9160 C   0  0  0  0  0  0  0  0  0  0  0  0
   36.9120   28.5090   31.4820 C   0  0  0  0  0  0  0  0  0  0  0  0
   36.2400   27.5270   30.5750 C   0  0  0  0  0  0  0  0  0  0  0  0
   35.8390   26.3050   31.3640 C   0  0  0  0  0  0  0  0  0  0  0  0
   37.0150   25.7730   32.1580 C   0  0  0  0  0  0  0  0  0  0  0  0
   38.5848   21.8392   34.2336 H   0  0  0  0  0  0  0  0  0  0  0  0
   37.4843   21.4075   36.4274 H   0  0  0  0  0  0  0  0  0  0  0  0
   37.1482   23.3808   37.9902 H   0  0  0  0  0  0  0  0  0  0  0  0
   38.6014   27.1019   36.8672 H   0  0  0  0  0  0  0  0  0  0  0  0
   38.9365   28.3019   35.5732 H   0  0  0  0  0  0  0  0  0  0  0  0
   37.3892   27.3894   35.5732 H   0  0  0  0  0  0  0  0  0  0  0  0
   40.9505   27.2876   34.5541 H   0  0  0  0  0  0  0  0  0  0  0  0
   40.8052   26.5807   36.2163 H   0  0  0  0  0  0  0  0  0  0  0  0
   40.9492   24.5391   34.0964 H   0  0  0  0  0  0  0  0  0  0  0  0
   43.6237   26.5727   33.9844 H   0  0  0  0  0  0  0  0  0  0  0  0
   45.9404   26.3400   34.8414 H   0  0  0  0  0  0  0  0  0  0  0  0
   46.2982   24.5903   36.6282 H   0  0  0  0  0  0  0  0  0  0  0  0
   44.3883   23.2192   37.4140 H   0  0  0  0  0  0  0  0  0  0  0  0
   42.6032   19.8429   37.3006 H   0  0  0  0  0  0  0  0  0  0  0  0
   39.4353   27.3284   33.1971 H   0  0  0  0  0  0  0  0  0  0  0  0
   39.0290   25.4877   33.0473 H   0  0  0  0  0  0  0  0  0  0  0  0
   35.9854   27.9908   33.3360 H   0  0  0  0  0  0  0  0  0  0  0  0
   37.6888   28.6862   33.4358 H   0  0  0  0  0  0  0  0  0  0  0  0
   36.3390   29.4480   31.4738 H   0  0  0  0  0  0  0  0  0  0  0  0
   37.9371   28.6615   31.1134 H   0  0  0  0  0  0  0  0  0  0  0  0
   36.9339   27.2342   29.7733 H   0  0  0  0  0  0  0  0  0  0  0  0
   35.3441   27.9889   30.1345 H   0  0  0  0  0  0  0  0  0  0  0  0
   35.0267   26.5720   32.0561 H   0  0  0  0  0  0  0  0  0  0  0  0
   35.5021   25.5260   30.6643 H   0  0  0  0  0  0  0  0  0  0  0  0
   36.6852   24.8914   32.7272 H   0  0  0  0  0  0  0  0  0  0  0  0
   37.8118   25.5211   31.4427 H   0  0  0  0  0  0  0  0  0  0  0  0
  1 22  1  6
  1  9  1  0
  1  6  1  0
  1  8  1  0
  2  3  2  0
  3  4  1  0
  5  4  2  0
  6  5  1  0
  7  2  1  0
  7  6  2  0
 10  9  1  0
 10 11  1  0
 11 16  1  0
 12 11  2  0
 12 13  1  0
 13 14  2  0
 14 15  1  0
 16 15  2  0
 16 17  1  0
 17 18  2  0
 18 19  1  0
 20 19  1  0
 21 17  1  0
 21 20  2  0
 23 22  1  0
 24 23  1  0
 25 24  1  0
 26 27  1  0
 26 25  1  0
 27 28  1  0
 28 23  1  0
  2 29  1  0
  3 30  1  0
  4 31  1  0
  8 32  1  0
  8 33  1  0
  8 34  1  0
  9 35  1  0
  9 36  1  0
 10 37  1  0
 12 38  1  0
 13 39  1  0
 14 40  1  0
 15 41  1  0
 20 42  1  0
 22 43  1  0
 22 44  1  0
 24 45  1  0
 24 46  1  0
 25 47  1  0
 25 48  1  0
 26 49  1  0
 26 50  1  0
 27 51  1  0
 27 52  1  0
 28 53  1  0
 28 54  1  0
M  ISO  8  29  14  30  14  31  14  32   8  33   8  34   8  35   8  36   8
M  ISO  8  38  14  39  14  40  14  41  14  42  14  43   8  44   8  45  13
M  ISO  8  46  13  47  13  48  13  49  13  50  13  51  13  52  13  53  13
M  ISO  1  54  13
M  END
>  <minimizedAffinity>  (1) 
-5.58691359

>  <minimizedRMSD>  (1) 
1.24355173

$$$$
