
     RDKit          3D

 47 50  0  0  1  0  0  0  0  0999 V2000
   38.4540   26.1200   35.1770 C   0  0  1  0  0  0  0  0  0  0  0  0
   37.7010   22.9780   36.8470 C   0  0  0  0  0  0  0  0  0  0  0  0
   37.7080   23.2780   38.1750 C   0  0  0  0  0  0  0  0  0  0  0  0
   37.9710   24.5900   38.5350 C   0  0  0  0  0  0  0  0  0  0  0  0
   38.2010   25.4680   37.5310 N   0  0  0  0  0  0  0  0  0  0  0  0
   38.1920   25.1560   36.2180 C   0  0  0  0  0  0  0  0  0  0  0  0
   37.9380   23.9080   35.9450 N   0  0  0  0  0  0  0  0  0  0  0  0
   37.8810   27.4920   35.5490 C   0  0  0  0  0  0  0  0  0  0  0  0
   39.9270   26.3360   34.9220 C   0  0  0  0  0  0  0  0  0  0  0  0
   40.6590   25.0760   34.7990 N   0  0  0  0  0  0  0  0  0  0  0  0
   42.0450   25.0580   35.0260 C   0  0  0  0  0  0  0  0  0  0  0  0
   42.9800   25.9120   34.4380 C   0  0  0  0  0  0  0  0  0  0  0  0
   44.3550   25.9560   34.6750 C   0  0  0  0  0  0  0  0  0  0  0  0
   44.7970   25.0330   35.6050 C   0  0  0  0  0  0  0  0  0  0  0  0
   43.8880   24.1560   36.2170 C   0  0  0  0  0  0  0  0  0  0  0  0
   42.5090   24.1600   35.9280 C   0  0  0  0  0  0  0  0  0  0  0  0
   42.0020   23.0390   36.6630 C   0  0  0  0  0  0  0  0  0  0  0  0
   41.0860   22.5140   37.4430 N   0  0  0  0  0  0  0  0  0  0  0  0
   41.3240   21.2660   37.7340 O   0  0  0  0  0  0  0  0  0  0  0  0
   42.4320   20.8930   37.1480 C   0  0  0  0  0  0  0  0  0  0  0  0
   42.8670   21.9700   36.4820 N   0  0  0  0  0  0  0  0  0  0  0  0
   37.8200   25.6920   33.8770 C   0  0  0  0  0  0  0  0  0  0  0  0
   37.6450   26.7890   32.9080 C   0  0  0  0  0  0  0  0  0  0  0  0
   38.6090   27.0410   31.9330 C   0  0  0  0  0  0  0  0  0  0  0  0
   38.3800   28.0870   31.0560 C   0  0  0  0  0  0  0  0  0  0  0  0
   37.2660   28.8700   31.1040 N   0  0  0  0  0  0  0  0  0  0  0  0
   36.3580   28.5960   32.0590 C   0  0  0  0  0  0  0  0  0  0  0  0
   36.5310   27.5780   32.9500 N   0  0  0  0  0  0  0  0  0  0  0  0
   37.4950   21.9470   36.5237 H   0  0  0  0  0  0  0  0  0  0  0  0
   37.5120   22.5069   38.9346 H   0  0  0  0  0  0  0  0  0  0  0  0
   37.9919   24.9037   39.5891 H   0  0  0  0  0  0  0  0  0  0  0  0
   37.8409   27.5880   36.6441 H   0  0  0  0  0  0  0  0  0  0  0  0
   38.5242   28.2825   35.1350 H   0  0  0  0  0  0  0  0  0  0  0  0
   36.8666   27.5902   35.1350 H   0  0  0  0  0  0  0  0  0  0  0  0
   40.0447   26.9061   33.9887 H   0  0  0  0  0  0  0  0  0  0  0  0
   40.3409   26.8834   35.7817 H   0  0  0  0  0  0  0  0  0  0  0  0
   40.1625   24.2092   34.5481 H   0  0  0  0  0  0  0  0  0  0  0  0
   42.5886   26.6322   33.7044 H   0  0  0  0  0  0  0  0  0  0  0  0
   45.0276   26.6626   34.1668 H   0  0  0  0  0  0  0  0  0  0  0  0
   45.8645   24.9859   35.8660 H   0  0  0  0  0  0  0  0  0  0  0  0
   44.2688   23.4341   36.9544 H   0  0  0  0  0  0  0  0  0  0  0  0
   42.9071   19.9019   37.1929 H   0  0  0  0  0  0  0  0  0  0  0  0
   38.4577   24.9225   33.4175 H   0  0  0  0  0  0  0  0  0  0  0  0
   36.8147   25.3175   34.1202 H   0  0  0  0  0  0  0  0  0  0  0  0
   39.5206   26.4294   31.8630 H   0  0  0  0  0  0  0  0  0  0  0  0
   39.1339   28.2963   30.2828 H   0  0  0  0  0  0  0  0  0  0  0  0
   35.4488   29.2118   32.1228 H   0  0  0  0  0  0  0  0  0  0  0  0
  1 22  1  6
  1  8  1  0
  1  6  1  0
  2  3  2  0
  3  4  1  0
  5  4  2  0
  6  5  1  0
  7  6  2  0
  7  2  1  0
  9  1  1  0
 10  9  1  0
 10 11  1  0
 11 16  2  0
 12 13  2  0
 12 11  1  0
 13 14  1  0
 14 15  2  0
 16 15  1  0
 16 17  1  0
 17 18  2  0
 18 19  1  0
 20 19  1  0
 21 17  1  0
 21 20  2  0
 23 28  1  0
 23 22  1  0
 24 23  2  0
 25 26  2  0
 25 24  1  0
 26 27  1  0
 27 28  2  0
  2 29  1  0
  3 30  1  0
  4 31  1  0
  8 32  1  0
  8 33  1  0
  8 34  1  0
  9 35  1  0
  9 36  1  0
 10 37  1  0
 12 38  1  0
 13 39  1  0
 14 40  1  0
 15 41  1  0
 20 42  1  0
 22 43  1  0
 22 44  1  0
 24 45  1  0
 25 46  1  0
 27 47  1  0
M  ISO  8  29  14  30  14  31  14  32   8  33   8  34   8  35   8  36   8
M  ISO  8  38  14  39  14  40  14  41  14  42  14  43   8  44   8  45  14
M  ISO  2  46  14  47  14
M  END
>  <minimizedAffinity>  (1) 
-5.48768187

>  <minimizedRMSD>  (1) 
0.700319111

$$$$
