
     RDKit          3D

 47 50  0  0  1  0  0  0  0  0999 V2000
   38.7500   26.2270   34.8020 C   0  0  1  0  0  0  0  0  0  0  0  0
   37.9180   22.7190   35.2010 C   0  0  0  0  0  0  0  0  0  0  0  0
   37.6270   22.5680   36.5310 C   0  0  0  0  0  0  0  0  0  0  0  0
   37.7080   23.7030   37.3570 C   0  0  0  0  0  0  0  0  0  0  0  0
   38.0700   24.8590   36.7520 N   0  0  0  0  0  0  0  0  0  0  0  0
   38.3520   24.9900   35.4420 C   0  0  0  0  0  0  0  0  0  0  0  0
   38.2610   23.8930   34.7170 N   0  0  0  0  0  0  0  0  0  0  0  0
   38.6510   27.3800   35.8500 C   0  0  0  0  0  0  0  0  0  0  0  0
   40.2020   26.2410   34.3690 C   0  0  0  0  0  0  0  0  0  0  0  0
   40.8630   24.9830   34.7400 N   0  0  0  0  0  0  0  0  0  0  0  0
   42.2190   25.0030   35.1050 C   0  0  0  0  0  0  0  0  0  0  0  0
   43.1910   25.8760   34.6220 C   0  0  0  0  0  0  0  0  0  0  0  0
   44.5290   25.9580   34.9950 C   0  0  0  0  0  0  0  0  0  0  0  0
   44.8930   25.0490   35.9630 C   0  0  0  0  0  0  0  0  0  0  0  0
   43.9520   24.1430   36.4850 C   0  0  0  0  0  0  0  0  0  0  0  0
   42.6050   24.1150   36.0520 C   0  0  0  0  0  0  0  0  0  0  0  0
   42.0480   22.9790   36.7270 C   0  0  0  0  0  0  0  0  0  0  0  0
   41.0850   22.4380   37.4280 N   0  0  0  0  0  0  0  0  0  0  0  0
   41.3060   21.1850   37.7190 O   0  0  0  0  0  0  0  0  0  0  0  0
   42.4620   20.8310   37.2070 C   0  0  0  0  0  0  0  0  0  0  0  0
   42.9320   21.9190   36.5950 N   0  0  0  0  0  0  0  0  0  0  0  0
   37.8970   26.5950   33.6700 C   0  0  0  0  0  0  0  0  0  0  0  0
   37.7270   25.6980   32.5420 C   0  0  0  0  0  0  0  0  0  0  0  0
   38.8460   25.6170   31.6930 C   0  0  0  0  0  0  0  0  0  0  0  0
   38.7620   24.7960   30.5620 C   0  0  0  0  0  0  0  0  0  0  0  0
   37.6240   24.1140   30.3250 N   0  0  0  0  0  0  0  0  0  0  0  0
   36.5590   24.1980   31.1430 C   0  0  0  0  0  0  0  0  0  0  0  0
   36.6240   24.9850   32.2380 N   0  0  0  0  0  0  0  0  0  0  0  0
   37.8642   21.8488   34.5303 H   0  0  0  0  0  0  0  0  0  0  0  0
   37.3387   21.5886   36.9404 H   0  0  0  0  0  0  0  0  0  0  0  0
   37.4896   23.6545   38.4340 H   0  0  0  0  0  0  0  0  0  0  0  0
   38.6873   26.9572   36.8648 H   0  0  0  0  0  0  0  0  0  0  0  0
   39.4928   28.0744   35.7118 H   0  0  0  0  0  0  0  0  0  0  0  0
   37.7031   27.9208   35.7118 H   0  0  0  0  0  0  0  0  0  0  0  0
   40.7179   27.0792   34.8602 H   0  0  0  0  0  0  0  0  0  0  0  0
   40.2455   26.3561   33.2759 H   0  0  0  0  0  0  0  0  0  0  0  0
   40.3383   24.0967   34.7326 H   0  0  0  0  0  0  0  0  0  0  0  0
   42.8603   26.5878   33.8513 H   0  0  0  0  0  0  0  0  0  0  0  0
   45.2313   26.6824   34.5568 H   0  0  0  0  0  0  0  0  0  0  0  0
   45.9293   25.0311   36.3316 H   0  0  0  0  0  0  0  0  0  0  0  0
   44.2750   23.4302   37.2580 H   0  0  0  0  0  0  0  0  0  0  0  0
   42.9425   19.8435   37.2696 H   0  0  0  0  0  0  0  0  0  0  0  0
   36.8926   26.7757   34.0805 H   0  0  0  0  0  0  0  0  0  0  0  0
   38.4364   27.4444   33.2256 H   0  0  0  0  0  0  0  0  0  0  0  0
   39.7629   26.1839   31.9121 H   0  0  0  0  0  0  0  0  0  0  0  0
   39.6159   24.7085   29.8741 H   0  0  0  0  0  0  0  0  0  0  0  0
   35.6432   23.6303   30.9214 H   0  0  0  0  0  0  0  0  0  0  0  0
  1 22  1  6
  1  6  1  0
  1  8  1  0
  2  3  2  0
  3  4  1  0
  5  4  2  0
  6  5  1  0
  7  2  1  0
  7  6  2  0
  9 10  1  0
  9  1  1  0
 10 11  1  0
 11 16  2  0
 12 13  2  0
 12 11  1  0
 13 14  1  0
 14 15  2  0
 16 15  1  0
 16 17  1  0
 17 18  2  0
 18 19  1  0
 20 19  1  0
 21 17  1  0
 21 20  2  0
 23 22  1  0
 24 23  2  0
 25 24  1  0
 26 25  2  0
 26 27  1  0
 27 28  2  0
 28 23  1  0
  2 29  1  0
  3 30  1  0
  4 31  1  0
  8 32  1  0
  8 33  1  0
  8 34  1  0
  9 35  1  0
  9 36  1  0
 10 37  1  0
 12 38  1  0
 13 39  1  0
 14 40  1  0
 15 41  1  0
 20 42  1  0
 22 43  1  0
 22 44  1  0
 24 45  1  0
 25 46  1  0
 27 47  1  0
M  ISO  8  29  14  30  14  31  14  32   8  33   8  34   8  35   8  36   8
M  ISO  8  38  14  39  14  40  14  41  14  42  14  43   8  44   8  45  14
M  ISO  2  46  14  47  14
M  END
>  <minimizedAffinity>  (1) 
-5.46765184

>  <minimizedRMSD>  (1) 
1.09031808

$$$$
