
     RDKit          3D

 30 32  0  0  0  0  0  0  0  0999 V2000
   39.1870   25.0650   31.0740 N   0  0  0  0  0  0  0  0  0  0  0  0
   39.9760   26.0850   30.7420 C   0  0  0  0  0  0  0  0  0  0  0  0
   40.2920   26.2950   29.4010 C   0  0  0  0  0  0  0  0  0  0  0  0
   39.7730   25.4310   28.4460 C   0  0  0  0  0  0  0  0  0  0  0  0
   39.9990   25.5360   27.2170 O   0  0  0  0  0  0  0  0  0  0  0  0
   38.9810   24.4130   28.8160 N   0  0  0  0  0  0  0  0  0  0  0  0
   38.6930   24.2380   30.1270 C   0  0  0  0  0  0  0  0  0  0  0  0
   37.9540   23.2890   30.4670 O   0  0  0  0  0  0  0  0  0  0  0  0
   37.8610   25.6580   33.0050 C   0  0  0  0  0  0  0  0  0  0  0  0
   38.9210   24.9300   32.4530 C   0  0  0  0  0  0  0  0  0  0  0  0
   39.6640   24.1030   33.3020 C   0  0  0  0  0  0  0  0  0  0  0  0
   39.3150   24.0500   34.6280 N   0  0  0  0  0  0  0  0  0  0  0  0
   38.2810   24.7730   35.1150 C   0  0  0  0  0  0  0  0  0  0  0  0
   37.5530   25.5800   34.2950 N   0  0  0  0  0  0  0  0  0  0  0  0
   38.1300   24.5290   36.5460 C   0  0  0  0  0  0  0  0  0  0  0  0
   37.9590   23.2090   36.9380 C   0  0  0  0  0  0  0  0  0  0  0  0
   37.8370   23.2070   38.3250 C   0  0  0  0  0  0  0  0  0  0  0  0
   37.9470   24.5530   38.6910 C   0  0  0  0  0  0  0  0  0  0  0  0
   38.1190   25.3000   37.6100 O   0  0  0  0  0  0  0  0  0  0  0  0
   41.1730   27.4150   28.9320 C   0  0  0  0  0  0  0  0  0  0  0  0
   40.3743   26.7550   31.5182 H   0  0  0  0  0  0  0  0  0  0  0  0
   38.5958   23.7707   28.1090 H   0  0  0  0  0  0  0  0  0  0  0  0
   37.2658   26.3135   32.3522 H   0  0  0  0  0  0  0  0  0  0  0  0
   40.5066   23.5102   32.9164 H   0  0  0  0  0  0  0  0  0  0  0  0
   37.9260   22.3299   36.2776 H   0  0  0  0  0  0  0  0  0  0  0  0
   37.6875   22.3404   38.9858 H   0  0  0  0  0  0  0  0  0  0  0  0
   37.8980   24.9341   39.7217 H   0  0  0  0  0  0  0  0  0  0  0  0
   41.5888   27.9436   29.8025 H   0  0  0  0  0  0  0  0  0  0  0  0
   41.9940   27.0060   28.3248 H   0  0  0  0  0  0  0  0  0  0  0  0
   40.5822   28.1166   28.3248 H   0  0  0  0  0  0  0  0  0  0  0  0
  1 10  1  0
  2  1  1  0
  3  2  2  0
  4  6  1  0
  4  3  1  0
  5  4  2  0
  6  7  1  0
  7  8  2  0
  7  1  1  0
  9 14  2  0
 10  9  1  0
 10 11  2  0
 11 12  1  0
 12 13  2  0
 13 15  1  0
 14 13  1  0
 15 16  2  0
 15 19  1  0
 16 17  1  0
 17 18  2  0
 19 18  1  0
 20  3  1  0
  2 21  1  0
  6 22  1  0
  9 23  1  0
 11 24  1  0
 16 25  1  0
 17 26  1  0
 18 27  1  0
 20 28  1  0
 20 29  1  0
 20 30  1  0
M  ISO  8  21  14  22   9  23  14  24  14  25  14  26  14  27  14  28   8
M  ISO  2  29   8  30   8
M  END
>  <minimizedAffinity>  (1) 
-4.20809937

>  <minimizedRMSD>  (1) 
3.83627534

$$$$
