
     RDKit          3D

 44 47  0  0  1  0  0  0  0  0999 V2000
   38.6920   26.3030   34.9450 C   0  0  1  0  0  0  0  0  0  0  0  0
   37.8740   22.7770   35.1930 C   0  0  0  0  0  0  0  0  0  0  0  0
   37.6380   22.5580   36.5280 C   0  0  0  0  0  0  0  0  0  0  0  0
   37.7540   23.6460   37.3990 C   0  0  0  0  0  0  0  0  0  0  0  0
   38.0910   24.8360   36.8490 N   0  0  0  0  0  0  0  0  0  0  0  0
   38.3190   25.0340   35.5310 C   0  0  0  0  0  0  0  0  0  0  0  0
   38.1960   23.9770   34.7590 N   0  0  0  0  0  0  0  0  0  0  0  0
   38.4930   27.4280   36.0070 C   0  0  0  0  0  0  0  0  0  0  0  0
   40.1550   26.3910   34.5670 C   0  0  0  0  0  0  0  0  0  0  0  0
   40.8200   25.0940   34.7590 N   0  0  0  0  0  0  0  0  0  0  0  0
   42.1950   25.0700   35.0540 C   0  0  0  0  0  0  0  0  0  0  0  0
   43.1700   25.9100   34.5250 C   0  0  0  0  0  0  0  0  0  0  0  0
   44.5240   25.9490   34.8330 C   0  0  0  0  0  0  0  0  0  0  0  0
   44.9090   25.0260   35.7890 C   0  0  0  0  0  0  0  0  0  0  0  0
   43.9600   24.1530   36.3520 C   0  0  0  0  0  0  0  0  0  0  0  0
   42.5970   24.1680   35.9830 C   0  0  0  0  0  0  0  0  0  0  0  0
   42.0380   23.0470   36.6870 C   0  0  0  0  0  0  0  0  0  0  0  0
   41.0800   22.5310   37.4140 N   0  0  0  0  0  0  0  0  0  0  0  0
   41.2870   21.2760   37.7070 O   0  0  0  0  0  0  0  0  0  0  0  0
   42.4200   20.8940   37.1740 C   0  0  0  0  0  0  0  0  0  0  0  0
   42.8990   21.9690   36.5410 N   0  0  0  0  0  0  0  0  0  0  0  0
   37.8730   26.6590   33.7740 C   0  0  0  0  0  0  0  0  0  0  0  0
   38.0160   25.8820   32.5490 C   0  0  0  0  0  0  0  0  0  0  0  0
   39.0680   25.5110   31.8000 N   0  0  0  0  0  0  0  0  0  0  0  0
   38.6410   24.7870   30.8110 O   0  0  0  0  0  0  0  0  0  0  0  0
   37.3370   24.6570   30.8670 C   0  0  0  0  0  0  0  0  0  0  0  0
   36.9130   25.3340   31.9480 N   0  0  0  0  0  0  0  0  0  0  0  0
   37.7933   21.9427   34.4807 H   0  0  0  0  0  0  0  0  0  0  0  0
   37.3665   21.5591   36.9002 H   0  0  0  0  0  0  0  0  0  0  0  0
   37.5796   23.5397   38.4799 H   0  0  0  0  0  0  0  0  0  0  0  0
   38.5692   26.9971   37.0162 H   0  0  0  0  0  0  0  0  0  0  0  0
   39.2691   28.1965   35.8768 H   0  0  0  0  0  0  0  0  0  0  0  0
   37.5003   27.8837   35.8768 H   0  0  0  0  0  0  0  0  0  0  0  0
   40.6464   27.1458   35.1985 H   0  0  0  0  0  0  0  0  0  0  0  0
   40.2300   26.6734   33.5065 H   0  0  0  0  0  0  0  0  0  0  0  0
   40.2871   24.2162   34.6787 H   0  0  0  0  0  0  0  0  0  0  0  0
   42.8263   26.6322   33.7698 H   0  0  0  0  0  0  0  0  0  0  0  0
   45.2267   26.6505   34.3595 H   0  0  0  0  0  0  0  0  0  0  0  0
   45.9599   24.9745   36.1098 H   0  0  0  0  0  0  0  0  0  0  0  0
   44.2934   23.4294   37.1104 H   0  0  0  0  0  0  0  0  0  0  0  0
   42.8811   19.8971   37.2345 H   0  0  0  0  0  0  0  0  0  0  0  0
   36.8198   26.5837   34.0824 H   0  0  0  0  0  0  0  0  0  0  0  0
   38.2330   27.6602   33.4948 H   0  0  0  0  0  0  0  0  0  0  0  0
   36.7069   24.0974   30.1600 H   0  0  0  0  0  0  0  0  0  0  0  0
  1 22  1  6
  1  6  1  0
  1  8  1  0
  2  3  2  0
  3  4  1  0
  5  4  2  0
  6  5  1  0
  7  2  1  0
  7  6  2  0
  9 10  1  0
  9  1  1  0
 10 11  1  0
 11 16  2  0
 12 13  2  0
 12 11  1  0
 13 14  1  0
 14 15  2  0
 16 15  1  0
 16 17  1  0
 17 18  2  0
 18 19  1  0
 20 19  1  0
 21 17  1  0
 21 20  2  0
 23 22  1  0
 24 23  2  0
 25 26  1  0
 25 24  1  0
 26 27  2  0
 27 23  1  0
  2 28  1  0
  3 29  1  0
  4 30  1  0
  8 31  1  0
  8 32  1  0
  8 33  1  0
  9 34  1  0
  9 35  1  0
 10 36  1  0
 12 37  1  0
 13 38  1  0
 14 39  1  0
 15 40  1  0
 20 41  1  0
 22 42  1  0
 22 43  1  0
 26 44  1  0
M  ISO  8  28  14  29  14  30  14  31   8  32   8  33   8  34   8  35   8
M  ISO  8  37  14  38  14  39  14  40  14  41  14  42   8  43   8  44  14
M  END
>  <minimizedAffinity>  (1) 
-5.19643211

>  <minimizedRMSD>  (1) 
0.880852818

$$$$
