
     RDKit          3D

 40 42  0  0  1  0  0  0  0  0999 V2000
   40.4990   26.3480   34.6030 C   0  0  0  0  0  0  0  0  0  0  0  0
   41.1330   25.0440   34.8090 N   0  0  0  0  0  0  0  0  0  0  0  0
   42.4730   24.9920   35.2230 C   0  0  0  0  0  0  0  0  0  0  0  0
   43.4970   25.8350   34.7890 C   0  0  0  0  0  0  0  0  0  0  0  0
   44.8260   25.8390   35.2180 C   0  0  0  0  0  0  0  0  0  0  0  0
   45.1150   24.8900   36.1770 C   0  0  0  0  0  0  0  0  0  0  0  0
   44.1120   24.0210   36.6390 C   0  0  0  0  0  0  0  0  0  0  0  0
   42.7900   24.0640   36.1620 C   0  0  0  0  0  0  0  0  0  0  0  0
   42.1540   22.9380   36.7850 C   0  0  0  0  0  0  0  0  0  0  0  0
   41.1410   22.4210   37.4340 N   0  0  0  0  0  0  0  0  0  0  0  0
   41.2950   21.1540   37.6940 O   0  0  0  0  0  0  0  0  0  0  0  0
   42.4510   20.7570   37.2170 C   0  0  0  0  0  0  0  0  0  0  0  0
   42.9920   21.8380   36.6550 N   0  0  0  0  0  0  0  0  0  0  0  0
   39.0020   26.2680   34.7870 C   0  0  1  0  0  0  0  0  0  0  0  0
   38.0310   22.7670   34.7430 C   0  0  0  0  0  0  0  0  0  0  0  0
   37.7300   22.4650   36.0380 C   0  0  0  0  0  0  0  0  0  0  0  0
   37.8490   23.4800   36.9890 C   0  0  0  0  0  0  0  0  0  0  0  0
   38.2570   24.6860   36.5330 N   0  0  0  0  0  0  0  0  0  0  0  0
   38.5510   24.9690   35.2510 C   0  0  0  0  0  0  0  0  0  0  0  0
   38.4200   23.9780   34.4080 N   0  0  0  0  0  0  0  0  0  0  0  0
   38.6630   27.3400   35.8610 C   0  0  0  0  0  0  0  0  0  0  0  0
   38.3380   26.6700   33.5330 C   0  0  0  0  0  0  0  0  0  0  0  0
   39.4810   27.0350   32.1990 S   0  0  0  0  0  0  0  0  0  0  0  0
   40.7161   26.6942   33.5817 H   0  0  0  0  0  0  0  0  0  0  0  0
   40.9023   27.0505   35.3472 H   0  0  0  0  0  0  0  0  0  0  0  0
   40.6019   24.1756   34.6519 H   0  0  0  0  0  0  0  0  0  0  0  0
   43.2275   26.5785   34.0245 H   0  0  0  0  0  0  0  0  0  0  0  0
   45.5781   26.5389   34.8250 H   0  0  0  0  0  0  0  0  0  0  0  0
   46.1350   24.8134   36.5816 H   0  0  0  0  0  0  0  0  0  0  0  0
   44.3719   23.2762   37.4056 H   0  0  0  0  0  0  0  0  0  0  0  0
   42.8823   19.7465   37.2697 H   0  0  0  0  0  0  0  0  0  0  0  0
   37.9476   21.9892   33.9697 H   0  0  0  0  0  0  0  0  0  0  0  0
   37.4039   21.4542   36.3242 H   0  0  0  0  0  0  0  0  0  0  0  0
   37.6231   23.3081   38.0518 H   0  0  0  0  0  0  0  0  0  0  0  0
   38.7991   26.9098   36.8642 H   0  0  0  0  0  0  0  0  0  0  0  0
   39.3314   28.2051   35.7393 H   0  0  0  0  0  0  0  0  0  0  0  0
   37.6187   27.6635   35.7393 H   0  0  0  0  0  0  0  0  0  0  0  0
   37.6781   25.8509   33.2110 H   0  0  0  0  0  0  0  0  0  0  0  0
   37.7834   27.5961   33.7446 H   0  0  0  0  0  0  0  0  0  0  0  0
   40.6867   27.4200   32.7232 H   0  0  0  0  0  0  0  0  0  0  0  0
 14  1  1  6
  1  2  1  0
  2  3  1  0
  3  8  2  0
  4  5  2  0
  4  3  1  0
  5  6  1  0
  6  7  2  0
  8  7  1  0
  8  9  1  0
  9 10  2  0
 10 11  1  0
 12 11  1  0
 13  9  1  0
 13 12  2  0
 14 22  1  0
 14 19  1  0
 14 21  1  0
 15 16  2  0
 16 17  1  0
 18 17  2  0
 19 18  1  0
 20 15  1  0
 20 19  2  0
 23 22  1  0
  1 24  1  0
  1 25  1  0
  2 26  1  0
  4 27  1  0
  5 28  1  0
  6 29  1  0
  7 30  1  0
 12 31  1  0
 15 32  1  0
 16 33  1  0
 17 34  1  0
 21 35  1  0
 21 36  1  0
 21 37  1  0
 22 38  1  0
 22 39  1  0
 23 40  1  0
M  ISO  8  24   8  25   8  27  14  28  14  29  14  30  14  31  14  32  14
M  ISO  8  33  14  34  14  35   8  36   8  37   8  38   8  39   8  40  11
M  END
>  <minimizedAffinity>  (1) 
-4.84434175

>  <minimizedRMSD>  (1) 
0.889980733

$$$$
