
     RDKit          3D

 21 22  0  0  0  0  0  0  0  0999 V2000
   39.0690   26.9050   34.9910 C   0  0  0  0  0  0  0  0  0  0  0  0
   40.3120   26.9370   35.0110 O   0  0  0  0  0  0  0  0  0  0  0  0
   36.2060   28.1510   32.8790 C   0  0  0  0  0  0  0  0  0  0  0  0
   36.9050   27.7650   34.0220 C   0  0  0  0  0  0  0  0  0  0  0  0
   38.2180   27.3380   33.8830 C   0  0  0  0  0  0  0  0  0  0  0  0
   38.7780   27.3070   32.6490 N   0  0  0  0  0  0  0  0  0  0  0  0
   38.0770   27.6880   31.5540 C   0  0  0  0  0  0  0  0  0  0  0  0
   36.7990   28.1080   31.6580 N   0  0  0  0  0  0  0  0  0  0  0  0
   38.4990   26.4000   36.1630 O   0  0  0  0  0  0  0  0  0  0  0  0
   38.1990   25.0430   36.3000 C   0  0  0  0  0  0  0  0  0  0  0  0
   38.3060   24.2460   35.1780 C   0  0  0  0  0  0  0  0  0  0  0  0
   38.0450   22.8910   35.1520 C   0  0  0  0  0  0  0  0  0  0  0  0
   37.6620   22.3450   36.3180 N   0  0  0  0  0  0  0  0  0  0  0  0
   37.5540   23.1160   37.4220 C   0  0  0  0  0  0  0  0  0  0  0  0
   37.8130   24.4540   37.4370 N   0  0  0  0  0  0  0  0  0  0  0  0
   35.1644   28.4936   32.9671 H   0  0  0  0  0  0  0  0  0  0  0  0
   36.4263   27.7982   35.0118 H   0  0  0  0  0  0  0  0  0  0  0  0
   38.5572   27.6544   30.5649 H   0  0  0  0  0  0  0  0  0  0  0  0
   38.6213   24.7243   34.2390 H   0  0  0  0  0  0  0  0  0  0  0  0
   38.1445   22.2948   34.2329 H   0  0  0  0  0  0  0  0  0  0  0  0
   37.2395   22.6373   38.3611 H   0  0  0  0  0  0  0  0  0  0  0  0
  1  2  2  0
  1  9  1  0
  3  4  2  0
  5  4  1  0
  5  1  1  0
  6  5  2  0
  7  8  2  0
  7  6  1  0
  8  3  1  0
  9 10  1  0
 10 15  1  0
 11 10  2  0
 12 11  1  0
 12 13  2  0
 13 14  1  0
 14 15  2  0
  3 16  1  0
  4 17  1  0
  7 18  1  0
 11 19  1  0
 12 20  1  0
 14 21  1  0
M  ISO  6  16  14  17  14  18  14  19  14  20  14  21  14
M  END
>  <minimizedAffinity>  (1) 
-3.75113583

>  <minimizedRMSD>  (1) 
6.01276827

$$$$
