
     RDKit          3D

 19 19  0  0  0  0  0  0  0  0999 V2000
   38.5890   23.3710   38.3760 C   0  0  0  0  0  0  0  0  0  0  0  0
   38.0230   24.4930   37.7590 C   0  0  0  0  0  0  0  0  0  0  0  0
   38.5000   24.8700   36.5040 C   0  0  0  0  0  0  0  0  0  0  0  0
   39.4980   24.1240   35.9350 N   0  0  0  0  0  0  0  0  0  0  0  0
   40.0220   23.0480   36.5550 C   0  0  0  0  0  0  0  0  0  0  0  0
   39.5770   22.6630   37.7730 N   0  0  0  0  0  0  0  0  0  0  0  0
   38.0050   26.0170   35.7410 C   0  0  0  0  0  0  0  0  0  0  0  0
   38.1100   27.2060   36.1510 O   0  0  0  0  0  0  0  0  0  0  0  0
   37.3890   25.8420   34.5180 O   0  0  0  0  0  0  0  0  0  0  0  0
   37.0890   26.8930   33.6330 C   0  0  0  0  0  0  0  0  0  0  0  0
   38.1630   27.2140   32.6470 C   0  0  0  0  0  0  0  0  0  0  0  0
   38.2266   23.0581   39.3664 H   0  0  0  0  0  0  0  0  0  0  0  0
   37.2218   25.0631   38.2520 H   0  0  0  0  0  0  0  0  0  0  0  0
   40.8224   22.4752   36.0638 H   0  0  0  0  0  0  0  0  0  0  0  0
   36.1826   26.6193   33.0731 H   0  0  0  0  0  0  0  0  0  0  0  0
   36.9639   27.7919   34.2546 H   0  0  0  0  0  0  0  0  0  0  0  0
   39.0831   27.4890   33.1835 H   0  0  0  0  0  0  0  0  0  0  0  0
   38.3558   26.3342   32.0155 H   0  0  0  0  0  0  0  0  0  0  0  0
   37.8414   28.0553   32.0155 H   0  0  0  0  0  0  0  0  0  0  0  0
  2  1  2  0
  3  2  1  0
  4  3  2  0
  4  5  1  0
  5  6  2  0
  6  1  1  0
  7  8  2  0
  7  3  1  0
  9  7  1  0
 10  9  1  0
 11 10  1  0
  1 12  1  0
  2 13  1  0
  5 14  1  0
 10 15  1  0
 10 16  1  0
 11 17  1  0
 11 18  1  0
 11 19  1  0
M  ISO  8  12  14  13  14  14  14  15   8  16   8  17   8  18   8  19   8
M  END
>  <minimizedAffinity>  (1) 
-3.13970923

>  <minimizedRMSD>  (1) 
4.46593523

$$$$
