
     RDKit          3D

 35 37  0  0  1  0  0  0  0  0999 V2000
   38.6600   25.6540   34.9770 C   0  0  2  0  0  0  0  0  0  0  0  0
   39.6270   22.9480   37.2320 C   0  0  0  0  0  0  0  0  0  0  0  0
   38.8450   23.1580   38.3940 C   0  0  0  0  0  0  0  0  0  0  0  0
   37.9810   24.2480   38.3860 C   0  0  0  0  0  0  0  0  0  0  0  0
   37.9250   25.0540   37.2780 N   0  0  0  0  0  0  0  0  0  0  0  0
   38.6880   24.8170   36.1930 C   0  0  0  0  0  0  0  0  0  0  0  0
   39.5300   23.7670   36.1840 N   0  0  0  0  0  0  0  0  0  0  0  0
   39.4580   26.9250   35.2920 C   0  0  0  0  0  0  0  0  0  0  0  0
   37.2690   26.1290   34.6370 C   0  0  0  0  0  0  0  0  0  0  0  0
   37.1690   26.8750   33.3820 C   0  0  0  0  0  0  0  0  0  0  0  0
   37.6310   26.3120   32.1910 C   0  0  0  0  0  0  0  0  0  0  0  0
   37.5080   27.0260   31.0060 C   0  0  0  0  0  0  0  0  0  0  0  0
   36.9390   28.2970   30.9330 C   0  0  0  0  0  0  0  0  0  0  0  0
   36.4900   28.8360   32.1170 C   0  0  0  0  0  0  0  0  0  0  0  0
   35.9200   30.1020   32.1030 C   0  0  0  0  0  0  0  0  0  0  0  0
   35.4510   30.7140   33.2630 C   0  0  0  0  0  0  0  0  0  0  0  0
   35.5710   30.0060   34.4530 C   0  0  0  0  0  0  0  0  0  0  0  0
   36.1360   28.7660   34.4270 C   0  0  0  0  0  0  0  0  0  0  0  0
   36.6080   28.1340   33.2990 C   0  0  0  0  0  0  0  0  0  0  0  0
   39.0568   25.0558   34.1435 H   0  0  0  0  0  0  0  0  0  0  0  0
   40.3239   22.0978   37.1934 H   0  0  0  0  0  0  0  0  0  0  0  0
   38.9177   22.4889   39.2641 H   0  0  0  0  0  0  0  0  0  0  0  0
   37.3485   24.4615   39.2603 H   0  0  0  0  0  0  0  0  0  0  0  0
   39.5355   27.0485   36.3823 H   0  0  0  0  0  0  0  0  0  0  0  0
   40.4661   26.8416   34.8598 H   0  0  0  0  0  0  0  0  0  0  0  0
   38.9448   27.7967   34.8598 H   0  0  0  0  0  0  0  0  0  0  0  0
   36.6137   25.2483   34.5656 H   0  0  0  0  0  0  0  0  0  0  0  0
   36.9730   26.8238   35.4367 H   0  0  0  0  0  0  0  0  0  0  0  0
   38.0885   25.3116   32.1910 H   0  0  0  0  0  0  0  0  0  0  0  0
   37.8782   26.5655   30.0781 H   0  0  0  0  0  0  0  0  0  0  0  0
   36.8536   28.8397   29.9800 H   0  0  0  0  0  0  0  0  0  0  0  0
   35.8362   30.6382   31.1462 H   0  0  0  0  0  0  0  0  0  0  0  0
   35.0031   31.7184   33.2382 H   0  0  0  0  0  0  0  0  0  0  0  0
   35.2160   30.4391   35.3998 H   0  0  0  0  0  0  0  0  0  0  0  0
   36.2215   28.2280   35.3826 H   0  0  0  0  0  0  0  0  0  0  0  0
  1  8  1  0
  1  6  1  0
  2  3  2  0
  4  3  1  0
  5  4  2  0
  6  5  1  0
  7  6  2  0
  7  2  1  0
  9  1  1  0
 10  9  1  0
 11 10  2  0
 12 11  1  0
 13 12  2  0
 13 14  1  0
 14 19  2  0
 15 14  1  0
 15 16  2  0
 16 17  1  0
 18 17  2  0
 19 10  1  0
 19 18  1  0
  1 20  1  6
  2 21  1  0
  3 22  1  0
  4 23  1  0
  8 24  1  0
  8 25  1  0
  8 26  1  0
  9 27  1  0
  9 28  1  0
 11 29  1  0
 12 30  1  0
 13 31  1  0
 15 32  1  0
 16 33  1  0
 17 34  1  0
 18 35  1  0
M  ISO  8  20   8  21  14  22  14  23  14  24   8  25   8  26   8  27   8
M  ISO  8  28   8  29  14  30  14  31  14  32  14  33  14  34  14  35  14
M  END
>  <minimizedAffinity>  (1) 
-5.50186777

>  <minimizedRMSD>  (1) 
0.673379481

$$$$
