
     RDKit          3D

 26 27  0  0  0  0  0  0  0  0999 V2000
   36.8600   27.6570   33.5270 C   0  0  0  0  0  0  0  0  0  0  0  0
   37.5050   26.9860   32.5180 C   0  0  0  0  0  0  0  0  0  0  0  0
   37.5340   27.5520   31.2500 C   0  0  0  0  0  0  0  0  0  0  0  0
   36.9290   28.7700   30.9870 C   0  0  0  0  0  0  0  0  0  0  0  0
   36.2880   29.4290   32.0060 C   0  0  0  0  0  0  0  0  0  0  0  0
   36.2450   28.8880   33.2790 C   0  0  0  0  0  0  0  0  0  0  0  0
   35.5540   29.5940   34.3810 C   0  0  0  0  0  0  0  0  0  0  0  0
   35.1700   30.8390   33.9060 F   0  0  0  0  0  0  0  0  0  0  0  0
   34.4480   28.9530   34.8420 F   0  0  0  0  0  0  0  0  0  0  0  0
   36.4530   29.8070   35.4040 F   0  0  0  0  0  0  0  0  0  0  0  0
   36.7880   27.1540   34.8250 O   0  0  0  0  0  0  0  0  0  0  0  0
   37.8730   26.6740   35.5120 C   0  0  0  0  0  0  0  0  0  0  0  0
   38.7370   27.5330   35.7930 O   0  0  0  0  0  0  0  0  0  0  0  0
   38.0620   23.3860   37.3620 C   0  0  0  0  0  0  0  0  0  0  0  0
   37.9570   24.7570   37.1600 C   0  0  0  0  0  0  0  0  0  0  0  0
   37.9750   25.2590   35.8700 C   0  0  0  0  0  0  0  0  0  0  0  0
   38.0960   24.3700   34.8290 N   0  0  0  0  0  0  0  0  0  0  0  0
   38.1970   23.0480   35.0590 C   0  0  0  0  0  0  0  0  0  0  0  0
   38.1800   22.5450   36.3170 N   0  0  0  0  0  0  0  0  0  0  0  0
   37.9901   26.0176   32.7102 H   0  0  0  0  0  0  0  0  0  0  0  0
   38.0492   27.0209   30.4360 H   0  0  0  0  0  0  0  0  0  0  0  0
   36.9618   29.2027   29.9762 H   0  0  0  0  0  0  0  0  0  0  0  0
   35.8036   30.3968   31.8089 H   0  0  0  0  0  0  0  0  0  0  0  0
   38.0486   22.9839   38.3858 H   0  0  0  0  0  0  0  0  0  0  0  0
   37.8603   25.4380   38.0185 H   0  0  0  0  0  0  0  0  0  0  0  0
   38.2956   22.3601   34.2063 H   0  0  0  0  0  0  0  0  0  0  0  0
  1 11  1  0
  2  1  2  0
  3  2  1  0
  4  3  2  0
  4  5  1  0
  5  6  2  0
  6  1  1  0
  6  7  1  0
  7  9  1  0
  7 10  1  0
  8  7  1  0
 11 12  1  0
 12 13  2  0
 12 16  1  0
 15 14  2  0
 16 15  1  0
 17 18  1  0
 17 16  2  0
 18 19  2  0
 19 14  1  0
  2 20  1  0
  3 21  1  0
  4 22  1  0
  5 23  1  0
 14 24  1  0
 15 25  1  0
 18 26  1  0
M  ISO  7  20  14  21  14  22  14  23  14  24  14  25  14  26  14
M  END
>  <minimizedAffinity>  (1) 
-4.85176325

>  <minimizedRMSD>  (1) 
0.980931044

$$$$
