
     RDKit          3D

 30 32  0  0  0  0  0  0  0  0999 V2000
   36.8200   27.8120   33.5240 C   0  0  0  0  0  0  0  0  0  0  0  0
   37.6370   27.2420   32.5750 C   0  0  0  0  0  0  0  0  0  0  0  0
   37.6850   27.8070   31.3040 C   0  0  0  0  0  0  0  0  0  0  0  0
   36.9390   28.9180   30.9730 C   0  0  0  0  0  0  0  0  0  0  0  0
   36.1190   29.4830   31.9380 C   0  0  0  0  0  0  0  0  0  0  0  0
   36.0540   28.9460   33.1980 C   0  0  0  0  0  0  0  0  0  0  0  0
   35.1820   29.5940   34.1270 N   0  0  0  0  0  0  0  0  0  0  0  0
   35.7500   30.5780   34.8050 N   0  0  0  0  0  0  0  0  0  0  0  0
   34.8970   31.1450   35.6520 C   0  0  0  0  0  0  0  0  0  0  0  0
   33.6940   30.4590   35.4890 C   0  0  0  0  0  0  0  0  0  0  0  0
   33.8990   29.4840   34.5200 C   0  0  0  0  0  0  0  0  0  0  0  0
   36.7150   27.3060   34.8210 O   0  0  0  0  0  0  0  0  0  0  0  0
   37.7950   26.8190   35.5110 C   0  0  0  0  0  0  0  0  0  0  0  0
   38.6670   27.6650   35.8430 O   0  0  0  0  0  0  0  0  0  0  0  0
   37.9830   23.4850   37.2850 C   0  0  0  0  0  0  0  0  0  0  0  0
   37.8760   24.8590   37.1160 C   0  0  0  0  0  0  0  0  0  0  0  0
   37.8990   25.3990   35.8270 C   0  0  0  0  0  0  0  0  0  0  0  0
   38.0270   24.5230   34.7830 N   0  0  0  0  0  0  0  0  0  0  0  0
   38.1280   23.2000   34.9770 C   0  0  0  0  0  0  0  0  0  0  0  0
   38.1080   22.6590   36.2130 N   0  0  0  0  0  0  0  0  0  0  0  0
   38.2416   26.3554   32.8166 H   0  0  0  0  0  0  0  0  0  0  0  0
   38.3366   27.3543   30.5421 H   0  0  0  0  0  0  0  0  0  0  0  0
   36.9932   29.3483   29.9621 H   0  0  0  0  0  0  0  0  0  0  0  0
   35.5159   30.3690   31.6907 H   0  0  0  0  0  0  0  0  0  0  0  0
   35.0980   31.9808   36.3383 H   0  0  0  0  0  0  0  0  0  0  0  0
   32.7552   30.6537   36.0283 H   0  0  0  0  0  0  0  0  0  0  0  0
   33.1572   28.7626   34.1467 H   0  0  0  0  0  0  0  0  0  0  0  0
   37.9664   23.0597   38.2993 H   0  0  0  0  0  0  0  0  0  0  0  0
   37.7738   25.5181   37.9907 H   0  0  0  0  0  0  0  0  0  0  0  0
   38.2299   22.5376   34.1047 H   0  0  0  0  0  0  0  0  0  0  0  0
  1 12  1  0
  2  1  2  0
  3  2  1  0
  4  3  2  0
  4  5  1  0
  5  6  2  0
  6  1  1  0
  6  7  1  0
  7 11  1  0
  7  8  1  0
  8  9  2  0
 10  9  1  0
 11 10  2  0
 12 13  1  0
 13 17  1  0
 13 14  2  0
 16 15  2  0
 17 16  1  0
 18 19  1  0
 18 17  2  0
 19 20  2  0
 20 15  1  0
  2 21  1  0
  3 22  1  0
  4 23  1  0
  5 24  1  0
  9 25  1  0
 10 26  1  0
 11 27  1  0
 15 28  1  0
 16 29  1  0
 19 30  1  0
M  ISO  8  21  14  22  14  23  14  24  14  25  14  26  14  27  14  28  14
M  ISO  2  29  14  30  14
M  END
>  <minimizedAffinity>  (1) 
-4.83097172

>  <minimizedRMSD>  (1) 
1.00644004

$$$$
