
     RDKit          3D

 30 31  0  0  0  0  0  0  0  0999 V2000
   36.9570   27.1140   33.6230 C   0  0  0  0  0  0  0  0  0  0  0  0
   37.5590   26.4170   32.6140 C   0  0  0  0  0  0  0  0  0  0  0  0
   37.5350   26.9410   31.3250 C   0  0  0  0  0  0  0  0  0  0  0  0
   36.9240   28.1420   31.0420 C   0  0  0  0  0  0  0  0  0  0  0  0
   36.3260   28.8260   32.0720 C   0  0  0  0  0  0  0  0  0  0  0  0
   36.3230   28.3450   33.3650 C   0  0  0  0  0  0  0  0  0  0  0  0
   35.7120   29.0530   34.4330 N   0  0  0  0  0  0  0  0  0  0  0  0
   35.6960   30.4690   34.5590 C   0  0  0  0  0  0  0  0  0  0  0  0
   35.3910   31.0970   33.4530 N   0  0  0  0  0  0  0  0  0  0  0  0
   36.0030   31.0420   35.8470 N   0  0  0  0  0  0  0  0  0  0  0  0
   35.3770   32.1340   33.5430 H   0  0  0  0  0  0  0  0  0  0  0  0
   36.9470   26.6390   34.9360 O   0  0  0  0  0  0  0  0  0  0  0  0
   38.0800   26.5040   35.6960 C   0  0  0  0  0  0  0  0  0  0  0  0
   38.7470   27.5660   35.8840 O   0  0  0  0  0  0  0  0  0  0  0  0
   38.4090   23.3880   37.7950 C   0  0  0  0  0  0  0  0  0  0  0  0
   37.9450   24.6360   37.3970 C   0  0  0  0  0  0  0  0  0  0  0  0
   38.4640   25.2080   36.2400 C   0  0  0  0  0  0  0  0  0  0  0  0
   39.4100   24.5080   35.5510 N   0  0  0  0  0  0  0  0  0  0  0  0
   39.8430   23.3000   35.9580 C   0  0  0  0  0  0  0  0  0  0  0  0
   39.3430   22.7270   37.0910 N   0  0  0  0  0  0  0  0  0  0  0  0
   38.0550   25.4565   32.8173 H   0  0  0  0  0  0  0  0  0  0  0  0
   38.0171   26.3807   30.5104 H   0  0  0  0  0  0  0  0  0  0  0  0
   36.9150   28.5432   30.0178 H   0  0  0  0  0  0  0  0  0  0  0  0
   35.8344   29.7868   31.8594 H   0  0  0  0  0  0  0  0  0  0  0  0
   35.2474   28.5018   35.1687 H   0  0  0  0  0  0  0  0  0  0  0  0
   35.9995   32.0647   35.9698 H   0  0  0  0  0  0  0  0  0  0  0  0
   36.2257   30.4284   36.6438 H   0  0  0  0  0  0  0  0  0  0  0  0
   38.0017   22.9303   38.7086 H   0  0  0  0  0  0  0  0  0  0  0  0
   37.1803   25.1626   37.9868 H   0  0  0  0  0  0  0  0  0  0  0  0
   40.6075   22.7696   35.3713 H   0  0  0  0  0  0  0  0  0  0  0  0
  1 12  1  0
  2  1  2  0
  3  2  1  0
  4  3  2  0
  4  5  1  0
  5  6  2  0
  6  1  1  0
  6  7  1  0
  7  8  1  0
  8 10  1  0
  9 11  1  0
  9  8  2  0
 12 13  1  0
 13 14  2  0
 13 17  1  0
 16 15  2  0
 17 16  1  0
 18 19  1  0
 18 17  2  0
 19 20  2  0
 20 15  1  0
  2 21  1  0
  3 22  1  0
  4 23  1  0
  5 24  1  0
  7 25  1  0
 10 26  1  0
 10 27  1  0
 15 28  1  0
 16 29  1  0
 19 30  1  0
M  ISO  7  21  14  22  14  23  14  24  14  28  14  29  14  30  14
M  END
>  <minimizedAffinity>  (1) 
-4.71519327

>  <minimizedRMSD>  (1) 
0.685209274

$$$$
