
     RDKit          3D

 29 30  0  0  0  0  0  0  0  0999 V2000
   36.9510   27.6900   33.6190 C   0  0  0  0  0  0  0  0  0  0  0  0
   37.8400   27.1850   32.6840 C   0  0  0  0  0  0  0  0  0  0  0  0
   37.8850   27.8070   31.4490 C   0  0  0  0  0  0  0  0  0  0  0  0
   37.0990   28.8860   31.1160 C   0  0  0  0  0  0  0  0  0  0  0  0
   36.2200   29.3730   32.0640 C   0  0  0  0  0  0  0  0  0  0  0  0
   36.1370   28.7880   33.3110 C   0  0  0  0  0  0  0  0  0  0  0  0
   36.8310   27.1310   34.8960 O   0  0  0  0  0  0  0  0  0  0  0  0
   37.9090   26.6400   35.6010 C   0  0  0  0  0  0  0  0  0  0  0  0
   38.7670   27.4900   35.9380 O   0  0  0  0  0  0  0  0  0  0  0  0
   38.0740   23.3050   37.3540 C   0  0  0  0  0  0  0  0  0  0  0  0
   37.9820   24.6770   37.1930 C   0  0  0  0  0  0  0  0  0  0  0  0
   37.9970   25.2240   35.9040 C   0  0  0  0  0  0  0  0  0  0  0  0
   38.1050   24.3560   34.8500 N   0  0  0  0  0  0  0  0  0  0  0  0
   38.1940   23.0190   35.0300 C   0  0  0  0  0  0  0  0  0  0  0  0
   38.1790   22.4850   36.2870 N   0  0  0  0  0  0  0  0  0  0  0  0
   35.1950   29.2860   34.3720 C   0  0  0  0  0  0  0  0  0  0  0  0
   35.6520   30.5410   35.0200 C   0  0  0  0  0  0  0  0  0  0  0  0
   38.4844   26.3238   32.9144 H   0  0  0  0  0  0  0  0  0  0  0  0
   38.5852   27.4189   30.6946 H   0  0  0  0  0  0  0  0  0  0  0  0
   37.1687   29.3490   30.1206 H   0  0  0  0  0  0  0  0  0  0  0  0
   35.5805   30.2349   31.8226 H   0  0  0  0  0  0  0  0  0  0  0  0
   38.0613   22.8766   38.3671 H   0  0  0  0  0  0  0  0  0  0  0  0
   37.8977   25.3331   38.0719 H   0  0  0  0  0  0  0  0  0  0  0  0
   38.2792   22.3556   34.1567 H   0  0  0  0  0  0  0  0  0  0  0  0
   34.2137   29.4688   33.9099 H   0  0  0  0  0  0  0  0  0  0  0  0
   35.1471   28.5139   35.1540 H   0  0  0  0  0  0  0  0  0  0  0  0
   35.6100   30.4256   36.1131 H   0  0  0  0  0  0  0  0  0  0  0  0
   36.6863   30.7564   34.7135 H   0  0  0  0  0  0  0  0  0  0  0  0
   34.9984   31.3710   34.7135 H   0  0  0  0  0  0  0  0  0  0  0  0
  1  7  1  0
  2  1  2  0
  3  2  1  0
  4  3  2  0
  4  5  1  0
  5  6  2  0
  6  1  1  0
  6 16  1  0
  7  8  1  0
  8 12  1  0
  8  9  2  0
 11 10  2  0
 12 11  1  0
 13 14  1  0
 13 12  2  0
 14 15  2  0
 15 10  1  0
 16 17  1  0
  2 18  1  0
  3 19  1  0
  4 20  1  0
  5 21  1  0
 10 22  1  0
 11 23  1  0
 14 24  1  0
 16 25  1  0
 16 26  1  0
 17 27  1  0
 17 28  1  0
 17 29  1  0
M  ISO  8  18  14  19  14  20  14  21  14  22  14  23  14  24  14  25   8
M  ISO  4  26   8  27   8  28   8  29   8
M  END
>  <minimizedAffinity>  (1) 
-4.63170099

>  <minimizedRMSD>  (1) 
1.05055976

$$$$
