
     RDKit          3D

 25 26  0  0  0  0  0  0  0  0999 V2000
   36.8780   27.6840   33.6520 C   0  0  0  0  0  0  0  0  0  0  0  0
   37.6520   27.1340   32.6610 C   0  0  0  0  0  0  0  0  0  0  0  0
   37.7070   27.7340   31.4040 C   0  0  0  0  0  0  0  0  0  0  0  0
   36.9850   28.8890   31.1400 C   0  0  0  0  0  0  0  0  0  0  0  0
   36.2100   29.4410   32.1290 C   0  0  0  0  0  0  0  0  0  0  0  0
   36.1660   28.8400   33.3610 C   0  0  0  0  0  0  0  0  0  0  0  0
   35.3400   29.4340   34.4040 C   0  0  0  0  0  0  0  0  0  0  0  0
   35.8600   30.3560   35.1200 O   0  0  0  0  0  0  0  0  0  0  0  0
   36.8030   27.1120   34.9090 O   0  0  0  0  0  0  0  0  0  0  0  0
   37.9200   26.6320   35.5780 C   0  0  0  0  0  0  0  0  0  0  0  0
   38.8130   27.4790   35.8670 O   0  0  0  0  0  0  0  0  0  0  0  0
   38.1010   23.2990   37.3480 C   0  0  0  0  0  0  0  0  0  0  0  0
   38.0030   24.6740   37.1860 C   0  0  0  0  0  0  0  0  0  0  0  0
   38.0140   25.2080   35.9110 C   0  0  0  0  0  0  0  0  0  0  0  0
   38.1230   24.3430   34.8500 N   0  0  0  0  0  0  0  0  0  0  0  0
   38.2160   23.0130   35.0330 C   0  0  0  0  0  0  0  0  0  0  0  0
   38.2060   22.4790   36.2840 N   0  0  0  0  0  0  0  0  0  0  0  0
   38.2295   26.2189   32.8588 H   0  0  0  0  0  0  0  0  0  0  0  0
   38.3287   27.2876   30.6139 H   0  0  0  0  0  0  0  0  0  0  0  0
   37.0334   29.3583   30.1463 H   0  0  0  0  0  0  0  0  0  0  0  0
   35.6303   30.3557   31.9357 H   0  0  0  0  0  0  0  0  0  0  0  0
   34.3049   29.1005   34.5693 H   0  0  0  0  0  0  0  0  0  0  0  0
   38.0928   22.8717   38.3616 H   0  0  0  0  0  0  0  0  0  0  0  0
   37.9174   25.3321   38.0633 H   0  0  0  0  0  0  0  0  0  0  0  0
   38.3012   22.3493   34.1599 H   0  0  0  0  0  0  0  0  0  0  0  0
  1  9  1  0
  2  1  2  0
  3  2  1  0
  4  3  2  0
  4  5  1  0
  5  6  2  0
  6  1  1  0
  6  7  1  0
  7  8  2  0
  9 10  1  0
 10 11  2  0
 10 14  1  0
 13 12  2  0
 14 13  1  0
 15 16  1  0
 15 14  2  0
 16 17  2  0
 17 12  1  0
  2 18  1  0
  3 19  1  0
  4 20  1  0
  5 21  1  0
  7 22  1  0
 12 23  1  0
 13 24  1  0
 16 25  1  0
M  ISO  8  18  14  19  14  20  14  21  14  22   6  23  14  24  14  25  14
M  END
>  <minimizedAffinity>  (1) 
-4.44590235

>  <minimizedRMSD>  (1) 
0.969515681

$$$$
