
     RDKit          3D

 39 42  0  0  0  0  0  0  0  0999 V2000
   36.8910   27.6570   33.3730 C   0  0  0  0  0  0  0  0  0  0  0  0
   37.6900   26.9670   32.5060 C   0  0  0  0  0  0  0  0  0  0  0  0
   37.8180   27.4040   31.1870 C   0  0  0  0  0  0  0  0  0  0  0  0
   37.1390   28.5310   30.7570 C   0  0  0  0  0  0  0  0  0  0  0  0
   36.3370   29.2140   31.6470 C   0  0  0  0  0  0  0  0  0  0  0  0
   36.2040   28.7960   32.9440 C   0  0  0  0  0  0  0  0  0  0  0  0
   35.3760   29.4740   33.9240 C   0  0  0  0  0  0  0  0  0  0  0  0
   35.8280   30.4660   34.7590 C   0  0  0  0  0  0  0  0  0  0  0  0
   35.0560   31.1170   35.6930 C   0  0  0  0  0  0  0  0  0  0  0  0
   33.7820   30.7790   35.8110 N   0  0  0  0  0  0  0  0  0  0  0  0
   33.3040   29.8140   35.0130 C   0  0  0  0  0  0  0  0  0  0  0  0
   34.0680   29.1880   34.1060 N   0  0  0  0  0  0  0  0  0  0  0  0
   36.7630   27.2300   34.6790 O   0  0  0  0  0  0  0  0  0  0  0  0
   37.8050   26.8110   35.4740 C   0  0  0  0  0  0  0  0  0  0  0  0
   38.6520   27.7020   35.7700 O   0  0  0  0  0  0  0  0  0  0  0  0
   37.9970   23.6470   37.5100 C   0  0  0  0  0  0  0  0  0  0  0  0
   37.9060   25.0160   37.2380 C   0  0  0  0  0  0  0  0  0  0  0  0
   37.8920   25.4380   35.9230 C   0  0  0  0  0  0  0  0  0  0  0  0
   37.9680   24.4730   34.9450 N   0  0  0  0  0  0  0  0  0  0  0  0
   38.0540   23.1560   35.2220 C   0  0  0  0  0  0  0  0  0  0  0  0
   38.0690   22.7370   36.4910 N   0  0  0  0  0  0  0  0  0  0  0  0
   38.1320   22.1740   34.1460 C   0  0  0  0  0  0  0  0  0  0  0  0
   37.0060   21.5690   33.6370 C   0  0  0  0  0  0  0  0  0  0  0  0
   37.0730   20.6310   32.6100 C   0  0  0  0  0  0  0  0  0  0  0  0
   38.2760   20.3270   32.1210 N   0  0  0  0  0  0  0  0  0  0  0  0
   39.4080   20.9130   32.6060 C   0  0  0  0  0  0  0  0  0  0  0  0
   39.3070   21.8250   33.6100 N   0  0  0  0  0  0  0  0  0  0  0  0
   38.2300   26.0710   32.8461 H   0  0  0  0  0  0  0  0  0  0  0  0
   38.4608   26.8509   30.4864 H   0  0  0  0  0  0  0  0  0  0  0  0
   37.2380   28.8777   29.7178 H   0  0  0  0  0  0  0  0  0  0  0  0
   35.7950   30.1096   31.3092 H   0  0  0  0  0  0  0  0  0  0  0  0
   36.8842   30.7615   34.6749 H   0  0  0  0  0  0  0  0  0  0  0  0
   35.4890   31.9030   36.3292 H   0  0  0  0  0  0  0  0  0  0  0  0
   32.2467   29.5251   35.1055 H   0  0  0  0  0  0  0  0  0  0  0  0
   38.0108   23.2987   38.5533 H   0  0  0  0  0  0  0  0  0  0  0  0
   37.8465   25.7456   38.0591 H   0  0  0  0  0  0  0  0  0  0  0  0
   36.0232   21.8343   34.0539 H   0  0  0  0  0  0  0  0  0  0  0  0
   36.1630   20.1560   32.2147 H   0  0  0  0  0  0  0  0  0  0  0  0
   40.3919   20.6509   32.1898 H   0  0  0  0  0  0  0  0  0  0  0  0
  1 13  1  0
  2  1  2  0
  3  2  1  0
  4  3  2  0
  4  5  1  0
  5  6  2  0
  6  1  1  0
  6  7  1  0
  7 12  1  0
  7  8  2  0
  8  9  1  0
  9 10  2  0
 11 10  1  0
 12 11  2  0
 13 14  1  0
 14 15  2  0
 14 18  1  0
 17 16  2  0
 18 17  1  0
 19 20  1  0
 19 18  2  0
 20 21  2  0
 21 16  1  0
 22 20  1  0
 23 22  2  0
 24 23  1  0
 25 26  1  0
 25 24  2  0
 26 27  2  0
 27 22  1  0
  2 28  1  0
  3 29  1  0
  4 30  1  0
  5 31  1  0
  8 32  1  0
  9 33  1  0
 11 34  1  0
 16 35  1  0
 17 36  1  0
 23 37  1  0
 24 38  1  0
 26 39  1  0
M  ISO  8  28  14  29  14  30  14  31  14  32  14  33  14  34  14  35  14
M  ISO  4  36  14  37  14  38  14  39  14
M  END
>  <minimizedAffinity>  (1) 
-5.70653534

>  <minimizedRMSD>  (1) 
0.257940292

$$$$
