
     RDKit          3D

 37 40  0  0  0  0  0  0  0  0999 V2000
   36.7950   27.7230   33.4230 C   0  0  0  0  0  0  0  0  0  0  0  0
   37.5280   27.0200   32.5090 C   0  0  0  0  0  0  0  0  0  0  0  0
   37.6130   27.4700   31.1910 C   0  0  0  0  0  0  0  0  0  0  0  0
   36.9500   28.6320   30.8130 C   0  0  0  0  0  0  0  0  0  0  0  0
   36.2230   29.3210   31.7360 C   0  0  0  0  0  0  0  0  0  0  0  0
   36.1320   28.8870   33.0400 C   0  0  0  0  0  0  0  0  0  0  0  0
   35.3710   29.5840   34.0670 C   0  0  0  0  0  0  0  0  0  0  0  0
   35.8840   30.5360   34.8960 C   0  0  0  0  0  0  0  0  0  0  0  0
   35.1550   31.1900   35.8650 C   0  0  0  0  0  0  0  0  0  0  0  0
   33.8730   30.9000   36.0250 N   0  0  0  0  0  0  0  0  0  0  0  0
   33.3350   29.9640   35.2220 C   0  0  0  0  0  0  0  0  0  0  0  0
   34.0540   29.3400   34.2890 N   0  0  0  0  0  0  0  0  0  0  0  0
   36.7070   27.2850   34.7290 O   0  0  0  0  0  0  0  0  0  0  0  0
   37.7880   26.8430   35.4680 C   0  0  0  0  0  0  0  0  0  0  0  0
   38.6500   27.7230   35.7540 O   0  0  0  0  0  0  0  0  0  0  0  0
   38.0140   23.6110   37.4040 C   0  0  0  0  0  0  0  0  0  0  0  0
   37.9130   24.9710   37.1610 C   0  0  0  0  0  0  0  0  0  0  0  0
   37.8850   25.4520   35.8680 C   0  0  0  0  0  0  0  0  0  0  0  0
   37.9620   24.5320   34.8680 N   0  0  0  0  0  0  0  0  0  0  0  0
   38.0630   23.2020   35.1000 C   0  0  0  0  0  0  0  0  0  0  0  0
   38.0880   22.7480   36.3590 N   0  0  0  0  0  0  0  0  0  0  0  0
   38.1440   22.2270   34.0130 C   0  0  0  0  0  0  0  0  0  0  0  0
   39.3760   21.7230   33.3800 C   0  0  0  0  0  0  0  0  0  0  0  0
   38.6350   20.5450   32.1160 S   0  0  0  0  0  0  0  0  0  0  0  0
   36.8870   20.9750   32.6980 C   0  0  0  0  0  0  0  0  0  0  0  0
   37.0340   21.7230   33.5200 N   0  0  0  0  0  0  0  0  0  0  0  0
   38.0504   26.1005   32.8118 H   0  0  0  0  0  0  0  0  0  0  0  0
   38.2030   26.9068   30.4530 H   0  0  0  0  0  0  0  0  0  0  0  0
   37.0121   28.9925   29.7756 H   0  0  0  0  0  0  0  0  0  0  0  0
   35.6993   30.2402   31.4347 H   0  0  0  0  0  0  0  0  0  0  0  0
   36.9463   30.7987   34.7846 H   0  0  0  0  0  0  0  0  0  0  0  0
   35.6348   31.9481   36.5015 H   0  0  0  0  0  0  0  0  0  0  0  0
   32.2720   29.7065   35.3387 H   0  0  0  0  0  0  0  0  0  0  0  0
   38.0341   23.2330   38.4368 H   0  0  0  0  0  0  0  0  0  0  0  0
   37.8546   25.6732   38.0057 H   0  0  0  0  0  0  0  0  0  0  0  0
   40.4284   21.9665   33.5878 H   0  0  0  0  0  0  0  0  0  0  0  0
   35.9355   20.5783   32.3142 H   0  0  0  0  0  0  0  0  0  0  0  0
  1 13  1  0
  2  1  2  0
  3  2  1  0
  4  3  2  0
  4  5  1  0
  5  6  2  0
  6  1  1  0
  6  7  1  0
  7 12  1  0
  7  8  2  0
  8  9  1  0
  9 10  2  0
 11 10  1  0
 12 11  2  0
 13 14  1  0
 14 15  2  0
 14 18  1  0
 17 16  2  0
 18 17  1  0
 19 20  1  0
 19 18  2  0
 20 21  2  0
 21 16  1  0
 22 20  1  0
 23 22  2  0
 24 25  1  0
 24 23  1  0
 25 26  2  0
 26 22  1  0
  2 27  1  0
  3 28  1  0
  4 29  1  0
  5 30  1  0
  8 31  1  0
  9 32  1  0
 11 33  1  0
 16 34  1  0
 17 35  1  0
 23 36  1  0
 25 37  1  0
M  ISO  8  27  14  28  14  29  14  30  14  31  14  32  14  33  14  34  14
M  ISO  3  35  14  36  14  37  14
M  END
>  <minimizedAffinity>  (1) 
-5.59455872

>  <minimizedRMSD>  (1) 
0.30640915

$$$$
