
     RDKit          3D

 32 33  0  0  0  0  0  0  0  0999 V2000
   39.2520   25.0220   34.2540 N   0  0  0  0  0  0  0  0  0  0  0  0
   40.2960   25.8600   34.2100 C   0  0  0  0  0  0  0  0  0  0  0  0
   40.6070   26.5390   33.0400 C   0  0  0  0  0  0  0  0  0  0  0  0
   39.7960   26.3120   31.9300 C   0  0  0  0  0  0  0  0  0  0  0  0
   39.9690   26.8640   30.8100 O   0  0  0  0  0  0  0  0  0  0  0  0
   38.7530   25.4670   31.9950 N   0  0  0  0  0  0  0  0  0  0  0  0
   38.5050   24.8390   33.1630 C   0  0  0  0  0  0  0  0  0  0  0  0
   37.5260   24.0440   33.2310 O   0  0  0  0  0  0  0  0  0  0  0  0
   38.1280   24.9900   36.3870 C   0  0  0  0  0  0  0  0  0  0  0  0
   39.0430   24.3940   35.5020 C   0  0  0  0  0  0  0  0  0  0  0  0
   39.6850   23.2310   35.9080 C   0  0  0  0  0  0  0  0  0  0  0  0
   39.3850   22.7320   37.1510 N   0  0  0  0  0  0  0  0  0  0  0  0
   38.5110   23.3220   37.9710 C   0  0  0  0  0  0  0  0  0  0  0  0
   37.8860   24.4500   37.5830 N   0  0  0  0  0  0  0  0  0  0  0  0
   38.4010   22.5960   39.1850 N   0  0  0  0  0  0  0  0  0  0  0  0
   41.7430   27.4900   32.8710 C   0  0  0  0  0  0  0  0  0  0  0  0
   42.5590   27.4900   34.0440 N   0  0  0  0  0  0  0  0  0  0  0  0
   43.9830   27.4890   33.8860 C   0  0  0  0  0  0  0  0  0  0  0  0
   44.6090   27.1980   32.8170 N   0  0  0  0  0  0  0  0  0  0  0  0
   44.9240   27.8140   34.8980 N   0  0  0  0  0  0  0  0  0  0  0  0
   44.2600   26.9220   31.9020 H   0  0  0  0  0  0  0  0  0  0  0  0
   40.9121   26.0114   35.1086 H   0  0  0  0  0  0  0  0  0  0  0  0
   38.1564   25.3025   31.1716 H   0  0  0  0  0  0  0  0  0  0  0  0
   37.6057   25.9116   36.0905 H   0  0  0  0  0  0  0  0  0  0  0  0
   40.4110   22.7258   35.2540 H   0  0  0  0  0  0  0  0  0  0  0  0
   37.7639   22.9236   39.9250 H   0  0  0  0  0  0  0  0  0  0  0  0
   38.9583   21.7414   39.3263 H   0  0  0  0  0  0  0  0  0  0  0  0
   42.3490   27.1835   32.0057 H   0  0  0  0  0  0  0  0  0  0  0  0
   41.3451   28.5025   32.7079 H   0  0  0  0  0  0  0  0  0  0  0  0
   42.1331   27.4907   34.9818 H   0  0  0  0  0  0  0  0  0  0  0  0
   45.9327   27.7857   34.6916 H   0  0  0  0  0  0  0  0  0  0  0  0
   44.5980   28.0781   35.8387 H   0  0  0  0  0  0  0  0  0  0  0  0
  1 10  1  0
  2  1  1  0
  3  2  2  0
  4  6  1  0
  4  3  1  0
  5  4  2  0
  6  7  1  0
  7  8  2  0
  7  1  1  0
  9 14  2  0
 10 11  2  0
 10  9  1  0
 11 12  1  0
 12 13  2  0
 13 15  1  0
 14 13  1  0
 16  3  1  0
 16 17  1  0
 18 17  1  0
 18 20  1  0
 19 18  2  0
 21 19  1  0
  2 22  1  0
  6 23  1  0
  9 24  1  0
 11 25  1  0
 15 26  1  0
 15 27  1  0
 16 28  1  0
 16 29  1  0
 17 30  1  0
 20 31  1  0
 20 32  1  0
M  ISO  6  22  14  23   9  24  14  25  14  28   8  29   8
M  END
>  <minimizedAffinity>  (1) 
-5.00794601

>  <minimizedRMSD>  (1) 
0.453102261

$$$$
