
     RDKit          3D

 37 39  0  0  0  0  0  0  0  0999 V2000
   36.8400   27.7790   33.3780 C   0  0  0  0  0  0  0  0  0  0  0  0
   37.6290   27.1140   32.4830 C   0  0  0  0  0  0  0  0  0  0  0  0
   37.7570   27.5950   31.1790 C   0  0  0  0  0  0  0  0  0  0  0  0
   37.0830   28.7490   30.7970 C   0  0  0  0  0  0  0  0  0  0  0  0
   36.2980   29.4010   31.7100 C   0  0  0  0  0  0  0  0  0  0  0  0
   36.1670   28.9360   32.9870 C   0  0  0  0  0  0  0  0  0  0  0  0
   35.3450   29.5890   34.0020 C   0  0  0  0  0  0  0  0  0  0  0  0
   35.7890   30.5610   34.8550 C   0  0  0  0  0  0  0  0  0  0  0  0
   34.9830   31.1590   35.8060 C   0  0  0  0  0  0  0  0  0  0  0  0
   33.7140   30.7980   35.9260 N   0  0  0  0  0  0  0  0  0  0  0  0
   33.2530   29.8410   35.0990 C   0  0  0  0  0  0  0  0  0  0  0  0
   34.0260   29.2610   34.1790 N   0  0  0  0  0  0  0  0  0  0  0  0
   36.7130   27.3030   34.6700 O   0  0  0  0  0  0  0  0  0  0  0  0
   37.7600   26.8680   35.4510 C   0  0  0  0  0  0  0  0  0  0  0  0
   38.5860   27.7660   35.7850 O   0  0  0  0  0  0  0  0  0  0  0  0
   38.0150   23.6270   37.3550 C   0  0  0  0  0  0  0  0  0  0  0  0
   37.8960   25.0040   37.1370 C   0  0  0  0  0  0  0  0  0  0  0  0
   37.8770   25.4830   35.8410 C   0  0  0  0  0  0  0  0  0  0  0  0
   37.9780   24.5640   34.8220 N   0  0  0  0  0  0  0  0  0  0  0  0
   38.0930   23.2390   35.0400 C   0  0  0  0  0  0  0  0  0  0  0  0
   38.1130   22.7690   36.3020 N   0  0  0  0  0  0  0  0  0  0  0  0
   38.2010   22.2800   33.9130 C   0  0  0  0  0  0  0  0  0  0  0  0
   36.9480   21.4540   33.7430 C   0  0  0  0  0  0  0  0  0  0  0  0
   38.1621   26.2018   32.7891 H   0  0  0  0  0  0  0  0  0  0  0  0
   38.3903   27.0616   30.4548 H   0  0  0  0  0  0  0  0  0  0  0  0
   37.1793   29.1347   29.7713 H   0  0  0  0  0  0  0  0  0  0  0  0
   35.7640   30.3146   31.4096 H   0  0  0  0  0  0  0  0  0  0  0  0
   36.8383   30.8828   34.7811 H   0  0  0  0  0  0  0  0  0  0  0  0
   35.3966   31.9367   36.4648 H   0  0  0  0  0  0  0  0  0  0  0  0
   32.2025   29.5262   35.1847 H   0  0  0  0  0  0  0  0  0  0  0  0
   38.0295   23.2353   38.3828 H   0  0  0  0  0  0  0  0  0  0  0  0
   37.8185   25.6973   37.9875 H   0  0  0  0  0  0  0  0  0  0  0  0
   38.3826   22.8428   32.9855 H   0  0  0  0  0  0  0  0  0  0  0  0
   39.0307   21.5924   34.1338 H   0  0  0  0  0  0  0  0  0  0  0  0
   36.5464   21.1892   34.7322 H   0  0  0  0  0  0  0  0  0  0  0  0
   36.1982   22.0355   33.1865 H   0  0  0  0  0  0  0  0  0  0  0  0
   37.1869   20.5357   33.1865 H   0  0  0  0  0  0  0  0  0  0  0  0
  1 13  1  0
  2  1  2  0
  3  2  1  0
  4  3  2  0
  4  5  1  0
  5  6  2  0
  6  1  1  0
  6  7  1  0
  7 12  1  0
  7  8  2  0
  8  9  1  0
  9 10  2  0
 11 10  1  0
 12 11  2  0
 13 14  1  0
 14 15  2  0
 14 18  1  0
 17 16  2  0
 18 17  1  0
 19 20  1  0
 19 18  2  0
 20 21  2  0
 21 16  1  0
 22 20  1  0
 23 22  1  0
  2 24  1  0
  3 25  1  0
  4 26  1  0
  5 27  1  0
  8 28  1  0
  9 29  1  0
 11 30  1  0
 16 31  1  0
 17 32  1  0
 22 33  1  0
 22 34  1  0
 23 35  1  0
 23 36  1  0
 23 37  1  0
M  ISO  8  24  14  25  14  26  14  27  14  28  14  29  14  30  14  31  14
M  ISO  6  32  14  33   8  34   8  35   8  36   8  37   8
M  END
>  <minimizedAffinity>  (1) 
-5.14789248

>  <minimizedRMSD>  (1) 
0.0333563723

$$$$
