
     RDKit          3D

 33 35  0  0  0  0  0  0  0  0999 V2000
   36.8460   27.7800   33.3720 C   0  0  0  0  0  0  0  0  0  0  0  0
   37.6440   27.1220   32.4760 C   0  0  0  0  0  0  0  0  0  0  0  0
   37.7730   27.6080   31.1730 C   0  0  0  0  0  0  0  0  0  0  0  0
   37.0950   28.7550   30.7900 C   0  0  0  0  0  0  0  0  0  0  0  0
   36.2970   29.4010   31.7050 C   0  0  0  0  0  0  0  0  0  0  0  0
   36.1670   28.9310   32.9820 C   0  0  0  0  0  0  0  0  0  0  0  0
   35.3360   29.5750   33.9940 C   0  0  0  0  0  0  0  0  0  0  0  0
   35.7780   30.5560   34.8480 C   0  0  0  0  0  0  0  0  0  0  0  0
   34.9920   31.1620   35.8030 C   0  0  0  0  0  0  0  0  0  0  0  0
   33.7270   30.7930   35.9270 N   0  0  0  0  0  0  0  0  0  0  0  0
   33.2640   29.8350   35.1060 C   0  0  0  0  0  0  0  0  0  0  0  0
   34.0360   29.2540   34.1830 N   0  0  0  0  0  0  0  0  0  0  0  0
   36.7170   27.3000   34.6600 O   0  0  0  0  0  0  0  0  0  0  0  0
   37.7630   26.8680   35.4480 C   0  0  0  0  0  0  0  0  0  0  0  0
   38.5820   27.7680   35.7860 O   0  0  0  0  0  0  0  0  0  0  0  0
   38.0130   23.6300   37.3570 C   0  0  0  0  0  0  0  0  0  0  0  0
   37.8960   25.0060   37.1370 C   0  0  0  0  0  0  0  0  0  0  0  0
   37.8780   25.4770   35.8350 C   0  0  0  0  0  0  0  0  0  0  0  0
   37.9760   24.5560   34.8240 N   0  0  0  0  0  0  0  0  0  0  0  0
   38.0880   23.2340   35.0490 C   0  0  0  0  0  0  0  0  0  0  0  0
   38.1070   22.7630   36.2990 N   0  0  0  0  0  0  0  0  0  0  0  0
   38.1880   22.3080   33.9290 C   0  0  0  0  0  0  0  0  0  0  0  0
   37.2800   21.4810   33.6670 O   0  0  0  0  0  0  0  0  0  0  0  0
   38.1825   26.2127   32.7812 H   0  0  0  0  0  0  0  0  0  0  0  0
   38.4129   27.0804   30.4503 H   0  0  0  0  0  0  0  0  0  0  0  0
   37.1942   29.1440   29.7659 H   0  0  0  0  0  0  0  0  0  0  0  0
   35.7550   30.3099   31.4046 H   0  0  0  0  0  0  0  0  0  0  0  0
   36.8264   30.8781   34.7638 H   0  0  0  0  0  0  0  0  0  0  0  0
   35.4105   31.9431   36.4547 H   0  0  0  0  0  0  0  0  0  0  0  0
   32.2144   29.5186   35.1969 H   0  0  0  0  0  0  0  0  0  0  0  0
   38.0297   23.2406   38.3856 H   0  0  0  0  0  0  0  0  0  0  0  0
   37.8195   25.7030   37.9846 H   0  0  0  0  0  0  0  0  0  0  0  0
   39.0857   22.3339   33.2938 H   0  0  0  0  0  0  0  0  0  0  0  0
  1 13  1  0
  2  1  2  0
  3  2  1  0
  4  3  2  0
  4  5  1  0
  5  6  2  0
  6  1  1  0
  6  7  1  0
  7 12  1  0
  7  8  2  0
  8  9  1  0
  9 10  2  0
 11 10  1  0
 12 11  2  0
 13 14  1  0
 14 15  2  0
 14 18  1  0
 17 16  2  0
 18 17  1  0
 19 20  1  0
 19 18  2  0
 20 21  2  0
 21 16  1  0
 22 20  1  0
 23 22  2  0
  2 24  1  0
  3 25  1  0
  4 26  1  0
  5 27  1  0
  8 28  1  0
  9 29  1  0
 11 30  1  0
 16 31  1  0
 17 32  1  0
 22 33  1  0
M  ISO  8  24  14  25  14  26  14  27  14  28  14  29  14  30  14  31  14
M  ISO  2  32  14  33   6
M  END
>  <minimizedAffinity>  (1) 
-5.11348963

>  <minimizedRMSD>  (1) 
0.04786136

$$$$
