
     RDKit          3D

 50 53  0  0  0  0  0  0  0  0999 V2000
   36.7060   27.3160   34.7080 O   0  0  0  0  0  0  0  0  0  0  0  0
   36.7970   27.7620   33.4110 C   0  0  0  0  0  0  0  0  0  0  0  0
   37.5540   27.0780   32.5160 C   0  0  0  0  0  0  0  0  0  0  0  0
   37.6520   27.5250   31.1980 C   0  0  0  0  0  0  0  0  0  0  0  0
   36.9750   28.6700   30.8060 C   0  0  0  0  0  0  0  0  0  0  0  0
   36.2080   29.3550   31.7320 C   0  0  0  0  0  0  0  0  0  0  0  0
   36.1130   28.9190   33.0160 C   0  0  0  0  0  0  0  0  0  0  0  0
   35.3210   29.5970   34.0410 C   0  0  0  0  0  0  0  0  0  0  0  0
   35.8090   30.5700   34.8730 C   0  0  0  0  0  0  0  0  0  0  0  0
   35.0260   31.1900   35.8340 C   0  0  0  0  0  0  0  0  0  0  0  0
   33.7500   30.8520   35.9790 N   0  0  0  0  0  0  0  0  0  0  0  0
   33.2630   29.9060   35.1760 C   0  0  0  0  0  0  0  0  0  0  0  0
   33.9970   29.2870   34.2360 N   0  0  0  0  0  0  0  0  0  0  0  0
   37.7690   26.8780   35.4690 C   0  0  0  0  0  0  0  0  0  0  0  0
   38.6020   27.7570   35.7940 O   0  0  0  0  0  0  0  0  0  0  0  0
   38.0400   23.6040   37.3420 C   0  0  0  0  0  0  0  0  0  0  0  0
   37.9320   24.9840   37.1310 C   0  0  0  0  0  0  0  0  0  0  0  0
   37.8800   25.4810   35.8500 C   0  0  0  0  0  0  0  0  0  0  0  0
   37.9380   24.5770   34.8430 N   0  0  0  0  0  0  0  0  0  0  0  0
   38.0420   23.2390   35.0180 C   0  0  0  0  0  0  0  0  0  0  0  0
   38.0910   22.7740   36.2740 N   0  0  0  0  0  0  0  0  0  0  0  0
   38.1010   22.3120   33.8970 C   0  0  0  0  0  0  0  0  0  0  0  0
   39.1260   21.6200   33.7030 O   0  0  0  0  0  0  0  0  0  0  0  0
   37.0370   22.1760   33.0330 O   0  0  0  0  0  0  0  0  0  0  0  0
   36.6350   20.9180   32.5600 C   0  0  0  0  0  0  0  0  0  0  0  0
   35.5800   20.2780   33.4370 C   0  0  0  0  0  0  0  0  0  0  0  0
   35.3750   18.8730   32.9270 C   0  0  0  0  0  0  0  0  0  0  0  0
   36.2700   18.4940   31.7890 C   0  0  0  0  0  0  0  0  0  0  0  0
   36.2360   19.4840   30.6510 C   0  0  0  0  0  0  0  0  0  0  0  0
   36.1070   20.9150   31.1530 C   0  0  0  0  0  0  0  0  0  0  0  0
   38.0907   26.1706   32.8300 H   0  0  0  0  0  0  0  0  0  0  0  0
   38.2646   26.9707   30.4718 H   0  0  0  0  0  0  0  0  0  0  0  0
   37.0470   29.0302   29.7691 H   0  0  0  0  0  0  0  0  0  0  0  0
   35.6687   30.2633   31.4253 H   0  0  0  0  0  0  0  0  0  0  0  0
   36.8625   30.8706   34.7745 H   0  0  0  0  0  0  0  0  0  0  0  0
   35.4636   31.9657   36.4796 H   0  0  0  0  0  0  0  0  0  0  0  0
   32.2074   29.6177   35.2885 H   0  0  0  0  0  0  0  0  0  0  0  0
   38.0829   23.1991   38.3639 H   0  0  0  0  0  0  0  0  0  0  0  0
   37.8888   25.6702   37.9896 H   0  0  0  0  0  0  0  0  0  0  0  0
   37.5698   20.3387   32.5842 H   0  0  0  0  0  0  0  0  0  0  0  0
   35.9214   20.2543   34.4824 H   0  0  0  0  0  0  0  0  0  0  0  0
   34.6407   20.8494   33.4014 H   0  0  0  0  0  0  0  0  0  0  0  0
   35.5588   18.1750   33.7571 H   0  0  0  0  0  0  0  0  0  0  0  0
   34.3440   18.8233   32.5468 H   0  0  0  0  0  0  0  0  0  0  0  0
   37.3022   18.4269   32.1633 H   0  0  0  0  0  0  0  0  0  0  0  0
   35.9096   17.5318   31.3961 H   0  0  0  0  0  0  0  0  0  0  0  0
   35.3763   19.2543   30.0043 H   0  0  0  0  0  0  0  0  0  0  0  0
   37.1814   19.3997   30.0950 H   0  0  0  0  0  0  0  0  0  0  0  0
   36.6992   21.5946   30.5226 H   0  0  0  0  0  0  0  0  0  0  0  0
   35.0626   21.2584   31.1173 H   0  0  0  0  0  0  0  0  0  0  0  0
  1 14  1  0
  2  1  1  0
  3  2  2  0
  4  3  1  0
  5  4  2  0
  5  6  1  0
  6  7  2  0
  7  2  1  0
  7  8  1  0
  8 13  1  0
  8  9  2  0
  9 10  1  0
 10 11  2  0
 12 11  1  0
 13 12  2  0
 14 15  2  0
 14 18  1  0
 17 16  2  0
 18 17  1  0
 19 20  1  0
 19 18  2  0
 20 21  2  0
 21 16  1  0
 22 20  1  0
 23 22  2  0
 24 22  1  0
 25 24  1  0
 25 26  1  0
 27 26  1  0
 28 27  1  0
 29 30  1  0
 29 28  1  0
 30 25  1  0
  3 31  1  0
  4 32  1  0
  5 33  1  0
  6 34  1  0
  9 35  1  0
 10 36  1  0
 12 37  1  0
 16 38  1  0
 17 39  1  0
 25 40  1  0
 26 41  1  0
 26 42  1  0
 27 43  1  0
 27 44  1  0
 28 45  1  0
 28 46  1  0
 29 47  1  0
 29 48  1  0
 30 49  1  0
 30 50  1  0
M  ISO  8  31  14  32  14  33  14  34  14  35  14  36  14  37  14  38  14
M  ISO  8  39  14  40  13  41  13  42  13  43  13  44  13  45  13  46  13
M  ISO  4  47  13  48  13  49  13  50  13
M  END
>  <minimizedAffinity>  (1) 
-6.4500041

>  <minimizedRMSD>  (1) 
0.670802236

$$$$
