
     RDKit          3D

 47 50  0  0  0  0  0  0  0  0999 V2000
   36.7660   27.8270   33.4360 C   0  0  0  0  0  0  0  0  0  0  0  0
   37.5010   27.1340   32.5260 C   0  0  0  0  0  0  0  0  0  0  0  0
   37.5920   27.5980   31.2160 C   0  0  0  0  0  0  0  0  0  0  0  0
   36.9360   28.7590   30.8430 C   0  0  0  0  0  0  0  0  0  0  0  0
   36.1970   29.4440   31.7820 C   0  0  0  0  0  0  0  0  0  0  0  0
   36.1020   28.9980   33.0650 C   0  0  0  0  0  0  0  0  0  0  0  0
   35.3370   29.6770   34.1050 C   0  0  0  0  0  0  0  0  0  0  0  0
   35.8410   30.6270   34.9440 C   0  0  0  0  0  0  0  0  0  0  0  0
   35.0970   31.2530   35.9180 C   0  0  0  0  0  0  0  0  0  0  0  0
   33.8250   30.9440   36.0770 N   0  0  0  0  0  0  0  0  0  0  0  0
   33.2960   30.0150   35.2710 C   0  0  0  0  0  0  0  0  0  0  0  0
   34.0220   29.4010   34.3170 N   0  0  0  0  0  0  0  0  0  0  0  0
   36.6800   27.3600   34.7340 O   0  0  0  0  0  0  0  0  0  0  0  0
   37.7460   26.9240   35.4850 C   0  0  0  0  0  0  0  0  0  0  0  0
   38.5780   27.8150   35.8190 O   0  0  0  0  0  0  0  0  0  0  0  0
   38.0400   23.6440   37.3340 C   0  0  0  0  0  0  0  0  0  0  0  0
   37.9120   25.0170   37.1380 C   0  0  0  0  0  0  0  0  0  0  0  0
   37.8740   25.5330   35.8480 C   0  0  0  0  0  0  0  0  0  0  0  0
   37.9660   24.6370   34.8310 N   0  0  0  0  0  0  0  0  0  0  0  0
   38.0900   23.3010   35.0190 C   0  0  0  0  0  0  0  0  0  0  0  0
   38.1250   22.8220   36.2650 N   0  0  0  0  0  0  0  0  0  0  0  0
   38.1840   22.3930   33.8820 C   0  0  0  0  0  0  0  0  0  0  0  0
   39.1890   21.6340   33.7560 O   0  0  0  0  0  0  0  0  0  0  0  0
   37.1790   22.3440   32.9220 O   0  0  0  0  0  0  0  0  0  0  0  0
   36.5320   21.1310   32.6290 C   0  0  0  0  0  0  0  0  0  0  0  0
   35.4340   21.2420   31.6320 C   0  0  0  0  0  0  0  0  0  0  0  0
   34.6370   19.9730   31.8310 C   0  0  0  0  0  0  0  0  0  0  0  0
   35.1530   19.3180   33.0920 C   0  0  0  0  0  0  0  0  0  0  0  0
   35.8990   20.4560   33.8000 C   0  0  0  0  0  0  0  0  0  0  0  0
   38.0212   26.2114   32.8230 H   0  0  0  0  0  0  0  0  0  0  0  0
   38.1860   27.0412   30.4763 H   0  0  0  0  0  0  0  0  0  0  0  0
   37.0042   29.1296   29.8096 H   0  0  0  0  0  0  0  0  0  0  0  0
   35.6746   30.3671   31.4905 H   0  0  0  0  0  0  0  0  0  0  0  0
   36.8991   30.9079   34.8363 H   0  0  0  0  0  0  0  0  0  0  0  0
   35.5636   32.0113   36.5640 H   0  0  0  0  0  0  0  0  0  0  0  0
   32.2365   29.7450   35.3915 H   0  0  0  0  0  0  0  0  0  0  0  0
   38.0717   23.2313   38.3531 H   0  0  0  0  0  0  0  0  0  0  0  0
   37.8410   25.6924   38.0034 H   0  0  0  0  0  0  0  0  0  0  0  0
   37.3784   20.5459   32.2400 H   0  0  0  0  0  0  0  0  0  0  0  0
   35.8367   21.2956   30.6098 H   0  0  0  0  0  0  0  0  0  0  0  0
   34.8281   22.1503   31.7656 H   0  0  0  0  0  0  0  0  0  0  0  0
   33.5686   20.2114   31.9395 H   0  0  0  0  0  0  0  0  0  0  0  0
   34.7477   19.3012   30.9670 H   0  0  0  0  0  0  0  0  0  0  0  0
   34.3232   18.9457   33.7107 H   0  0  0  0  0  0  0  0  0  0  0  0
   35.7899   18.4434   32.8935 H   0  0  0  0  0  0  0  0  0  0  0  0
   36.6519   20.0725   34.5043 H   0  0  0  0  0  0  0  0  0  0  0  0
   35.2640   21.1074   34.4183 H   0  0  0  0  0  0  0  0  0  0  0  0
  1 13  1  0
  2  1  2  0
  3  2  1  0
  4  3  2  0
  4  5  1  0
  5  6  2  0
  6  1  1  0
  6  7  1  0
  7 12  1  0
  7  8  2  0
  8  9  1  0
  9 10  2  0
 11 10  1  0
 12 11  2  0
 13 14  1  0
 14 15  2  0
 14 18  1  0
 17 16  2  0
 18 17  1  0
 19 20  1  0
 19 18  2  0
 20 21  2  0
 21 16  1  0
 22 20  1  0
 23 22  2  0
 24 22  1  0
 25 24  1  0
 25 29  1  0
 26 27  1  0
 26 25  1  0
 27 28  1  0
 28 29  1  0
  2 30  1  0
  3 31  1  0
  4 32  1  0
  5 33  1  0
  8 34  1  0
  9 35  1  0
 11 36  1  0
 16 37  1  0
 17 38  1  0
 25 39  1  0
 26 40  1  0
 26 41  1  0
 27 42  1  0
 27 43  1  0
 28 44  1  0
 28 45  1  0
 29 46  1  0
 29 47  1  0
M  ISO  8  30  14  31  14  32  14  33  14  34  14  35  14  36  14  37  14
M  ISO  8  38  14  39  13  40  13  41  13  42  13  43  13  44  13  45  13
M  ISO  2  46  13  47  13
M  END
>  <minimizedAffinity>  (1) 
-6.19070625

>  <minimizedRMSD>  (1) 
0.771165788

$$$$
