
     RDKit          3D

 46 48  0  0  0  0  0  0  0  0999 V2000
   36.8000   27.8930   33.3550 C   0  0  0  0  0  0  0  0  0  0  0  0
   37.5790   27.2550   32.4470 C   0  0  0  0  0  0  0  0  0  0  0  0
   37.6900   27.7580   31.1520 C   0  0  0  0  0  0  0  0  0  0  0  0
   37.0030   28.9070   30.8000 C   0  0  0  0  0  0  0  0  0  0  0  0
   36.2130   29.5440   31.7420 C   0  0  0  0  0  0  0  0  0  0  0  0
   36.1030   29.0560   33.0050 C   0  0  0  0  0  0  0  0  0  0  0  0
   35.2950   29.6720   34.0330 C   0  0  0  0  0  0  0  0  0  0  0  0
   35.7450   30.6440   34.9020 C   0  0  0  0  0  0  0  0  0  0  0  0
   34.9560   31.2230   35.8820 C   0  0  0  0  0  0  0  0  0  0  0  0
   33.6950   30.8410   36.0160 N   0  0  0  0  0  0  0  0  0  0  0  0
   33.2280   29.9030   35.1920 C   0  0  0  0  0  0  0  0  0  0  0  0
   33.9790   29.3240   34.2300 N   0  0  0  0  0  0  0  0  0  0  0  0
   36.6910   27.3910   34.6400 O   0  0  0  0  0  0  0  0  0  0  0  0
   37.7300   26.8730   35.3680 C   0  0  0  0  0  0  0  0  0  0  0  0
   38.5650   27.7170   35.7950 O   0  0  0  0  0  0  0  0  0  0  0  0
   37.9280   23.4370   36.9270 C   0  0  0  0  0  0  0  0  0  0  0  0
   37.8140   24.8240   36.8480 C   0  0  0  0  0  0  0  0  0  0  0  0
   37.8370   25.4480   35.6150 C   0  0  0  0  0  0  0  0  0  0  0  0
   37.9730   24.6440   34.5230 N   0  0  0  0  0  0  0  0  0  0  0  0
   38.0840   23.2930   34.5940 C   0  0  0  0  0  0  0  0  0  0  0  0
   38.0600   22.7050   35.7870 N   0  0  0  0  0  0  0  0  0  0  0  0
   38.2280   22.4880   33.3770 C   0  0  0  0  0  0  0  0  0  0  0  0
   38.8000   22.9700   32.3590 O   0  0  0  0  0  0  0  0  0  0  0  0
   37.7400   21.1990   33.3300 O   0  0  0  0  0  0  0  0  0  0  0  0
   36.4180   20.9010   33.0010 C   0  0  0  0  0  0  0  0  0  0  0  0
   36.4710   19.6180   32.1760 C   0  0  0  0  0  0  0  0  0  0  0  0
   35.5700   20.5720   34.2130 C   0  0  0  0  0  0  0  0  0  0  0  0
   35.7020   21.9620   32.2340 C   0  0  0  0  0  0  0  0  0  0  0  0
   38.1224   26.3420   32.7319 H   0  0  0  0  0  0  0  0  0  0  0  0
   38.3212   27.2438   30.4123 H   0  0  0  0  0  0  0  0  0  0  0  0
   37.0840   29.3108   29.7800 H   0  0  0  0  0  0  0  0  0  0  0  0
   35.6671   30.4576   31.4639 H   0  0  0  0  0  0  0  0  0  0  0  0
   36.7891   30.9781   34.8116 H   0  0  0  0  0  0  0  0  0  0  0  0
   35.3740   31.9951   36.5447 H   0  0  0  0  0  0  0  0  0  0  0  0
   32.1806   29.5851   35.3007 H   0  0  0  0  0  0  0  0  0  0  0  0
   37.9114   22.9362   37.9063 H   0  0  0  0  0  0  0  0  0  0  0  0
   37.7059   25.4210   37.7656 H   0  0  0  0  0  0  0  0  0  0  0  0
   36.5069   18.7497   32.8503 H   0  0  0  0  0  0  0  0  0  0  0  0
   35.5748   19.5528   31.5415 H   0  0  0  0  0  0  0  0  0  0  0  0
   37.3695   19.6269   31.5415 H   0  0  0  0  0  0  0  0  0  0  0  0
   36.1381   20.7924   35.1288 H   0  0  0  0  0  0  0  0  0  0  0  0
   34.6533   21.1797   34.1950 H   0  0  0  0  0  0  0  0  0  0  0  0
   35.3030   19.5050   34.1950 H   0  0  0  0  0  0  0  0  0  0  0  0
   35.2279   22.6646   32.9351 H   0  0  0  0  0  0  0  0  0  0  0  0
   36.4196   22.5042   31.6007 H   0  0  0  0  0  0  0  0  0  0  0  0
   34.9307   21.4994   31.6007 H   0  0  0  0  0  0  0  0  0  0  0  0
  1 13  1  0
  2  1  2  0
  3  2  1  0
  4  3  2  0
  4  5  1  0
  5  6  2  0
  6  1  1  0
  6  7  1  0
  7 12  1  0
  7  8  2  0
  8  9  1  0
  9 10  2  0
 11 10  1  0
 12 11  2  0
 13 14  1  0
 14 18  1  0
 14 15  2  0
 17 16  2  0
 18 17  1  0
 19 20  1  0
 19 18  2  0
 20 21  2  0
 21 16  1  0
 22 20  1  0
 23 22  2  0
 24 22  1  0
 25 24  1  0
 25 27  1  0
 26 25  1  0
 28 25  1  0
  2 29  1  0
  3 30  1  0
  4 31  1  0
  5 32  1  0
  8 33  1  0
  9 34  1  0
 11 35  1  0
 16 36  1  0
 17 37  1  0
 26 38  1  0
 26 39  1  0
 26 40  1  0
 27 41  1  0
 27 42  1  0
 27 43  1  0
 28 44  1  0
 28 45  1  0
 28 46  1  0
M  ISO  8  29  14  30  14  31  14  32  14  33  14  34  14  35  14  36  14
M  ISO  8  37  14  38   8  39   8  40   8  41   8  42   8  43   8  44   8
M  ISO  2  45   8  46   8
M  END
>  <minimizedAffinity>  (1) 
-5.82828522

>  <minimizedRMSD>  (1) 
0.82949841

$$$$
