
     RDKit          3D

 41 44  0  0  0  0  0  0  0  0999 V2000
   36.7820   27.5860   33.4550 C   0  0  0  0  0  0  0  0  0  0  0  0
   37.4470   26.8100   32.5630 C   0  0  0  0  0  0  0  0  0  0  0  0
   37.4960   27.1710   31.2120 C   0  0  0  0  0  0  0  0  0  0  0  0
   36.8580   28.3290   30.7920 C   0  0  0  0  0  0  0  0  0  0  0  0
   36.1840   29.1120   31.7110 C   0  0  0  0  0  0  0  0  0  0  0  0
   36.1400   28.7540   33.0350 C   0  0  0  0  0  0  0  0  0  0  0  0
   35.4520   29.5270   34.0510 C   0  0  0  0  0  0  0  0  0  0  0  0
   36.0470   30.4540   34.8610 C   0  0  0  0  0  0  0  0  0  0  0  0
   35.3760   31.1800   35.8220 C   0  0  0  0  0  0  0  0  0  0  0  0
   34.0850   30.9950   35.9980 N   0  0  0  0  0  0  0  0  0  0  0  0
   33.4640   30.0950   35.2250 C   0  0  0  0  0  0  0  0  0  0  0  0
   34.1070   29.3810   34.2850 N   0  0  0  0  0  0  0  0  0  0  0  0
   36.7470   27.2150   34.7740 O   0  0  0  0  0  0  0  0  0  0  0  0
   37.8290   26.8380   35.5290 C   0  0  0  0  0  0  0  0  0  0  0  0
   38.6980   27.7340   35.7010 O   0  0  0  0  0  0  0  0  0  0  0  0
   38.1300   23.8160   37.7670 C   0  0  0  0  0  0  0  0  0  0  0  0
   38.0350   25.1500   37.4090 C   0  0  0  0  0  0  0  0  0  0  0  0
   37.9360   25.5010   36.0750 C   0  0  0  0  0  0  0  0  0  0  0  0
   37.9380   24.4840   35.1770 N   0  0  0  0  0  0  0  0  0  0  0  0
   38.0310   23.1700   35.5180 C   0  0  0  0  0  0  0  0  0  0  0  0
   38.1260   22.8480   36.8110 N   0  0  0  0  0  0  0  0  0  0  0  0
   38.0280   22.1210   34.5060 C   0  0  0  0  0  0  0  0  0  0  0  0
   39.0760   21.8420   33.8730 O   0  0  0  0  0  0  0  0  0  0  0  0
   36.8600   21.4160   34.2300 O   0  0  0  0  0  0  0  0  0  0  0  0
   36.4720   21.0440   32.9340 C   0  0  0  0  0  0  0  0  0  0  0  0
   35.1180   21.3370   32.4160 C   0  0  0  0  0  0  0  0  0  0  0  0
   35.3870   19.9630   32.9160 C   0  0  0  0  0  0  0  0  0  0  0  0
   37.9500   25.8928   32.9033 H   0  0  0  0  0  0  0  0  0  0  0  0
   38.0359   26.5418   30.4890 H   0  0  0  0  0  0  0  0  0  0  0  0
   36.8882   28.6231   29.7325 H   0  0  0  0  0  0  0  0  0  0  0  0
   35.6784   30.0303   31.3777 H   0  0  0  0  0  0  0  0  0  0  0  0
   37.1257   30.6312   34.7386 H   0  0  0  0  0  0  0  0  0  0  0  0
   35.9179   31.9114   36.4395 H   0  0  0  0  0  0  0  0  0  0  0  0
   32.3849   29.9336   35.3648 H   0  0  0  0  0  0  0  0  0  0  0  0
   38.2090   23.5377   38.8283 H   0  0  0  0  0  0  0  0  0  0  0  0
   38.0383   25.9299   38.1848 H   0  0  0  0  0  0  0  0  0  0  0  0
   37.4736   21.2243   32.5164 H   0  0  0  0  0  0  0  0  0  0  0  0
   34.9724   21.5049   31.3387 H   0  0  0  0  0  0  0  0  0  0  0  0
   34.3596   22.0998   32.6463 H   0  0  0  0  0  0  0  0  0  0  0  0
   34.9339   19.6176   33.8569 H   0  0  0  0  0  0  0  0  0  0  0  0
   35.2978   18.9462   32.5059 H   0  0  0  0  0  0  0  0  0  0  0  0
  1 13  1  0
  2  1  2  0
  3  2  1  0
  4  3  2  0
  4  5  1  0
  5  6  2  0
  6  1  1  0
  6  7  1  0
  7 12  1  0
  7  8  2  0
  8  9  1  0
  9 10  2  0
 11 10  1  0
 12 11  2  0
 13 14  1  0
 14 15  2  0
 14 18  1  0
 17 16  2  0
 18 17  1  0
 19 20  1  0
 19 18  2  0
 20 21  2  0
 21 16  1  0
 22 20  1  0
 23 22  2  0
 24 22  1  0
 25 24  1  0
 26 27  1  0
 26 25  1  0
 27 25  1  0
  2 28  1  0
  3 29  1  0
  4 30  1  0
  5 31  1  0
  8 32  1  0
  9 33  1  0
 11 34  1  0
 16 35  1  0
 17 36  1  0
 25 37  1  0
 26 38  1  0
 26 39  1  0
 27 40  1  0
 27 41  1  0
M  ISO  8  28  14  29  14  30  14  31  14  32  14  33  14  34  14  35  14
M  ISO  6  36  14  37  13  38  13  39  13  40  13  41  13
M  END
>  <minimizedAffinity>  (1) 
-5.62990189

>  <minimizedRMSD>  (1) 
0.530483723

$$$$
