
     RDKit          3D

 33 35  0  0  1  0  0  0  0  0999 V2000
   38.6130   25.6990   35.0040 C   0  0  2  0  0  0  0  0  0  0  0  0
   39.6220   22.9630   37.2230 C   0  0  0  0  0  0  0  0  0  0  0  0
   38.8520   23.1680   38.3900 C   0  0  0  0  0  0  0  0  0  0  0  0
   37.9810   24.2600   38.3990 C   0  0  0  0  0  0  0  0  0  0  0  0
   37.9470   25.0420   37.2720 N   0  0  0  0  0  0  0  0  0  0  0  0
   38.6960   24.8120   36.1850 C   0  0  0  0  0  0  0  0  0  0  0  0
   39.5330   23.7820   36.1470 N   0  0  0  0  0  0  0  0  0  0  0  0
   39.6030   26.8260   35.1610 C   0  0  0  0  0  0  0  0  0  0  0  0
   37.2430   26.2950   34.8100 C   0  0  0  0  0  0  0  0  0  0  0  0
   37.0060   26.8600   33.4840 C   0  0  0  0  0  0  0  0  0  0  0  0
   37.3040   26.1770   32.3860 N   0  0  0  0  0  0  0  0  0  0  0  0
   37.0630   26.7490   31.1930 C   0  0  0  0  0  0  0  0  0  0  0  0
   36.5310   27.9890   31.0240 N   0  0  0  0  0  0  0  0  0  0  0  0
   36.2210   28.6980   32.1410 C   0  0  0  0  0  0  0  0  0  0  0  0
   35.6830   29.9530   32.0170 C   0  0  0  0  0  0  0  0  0  0  0  0
   35.3660   30.6760   33.1560 C   0  0  0  0  0  0  0  0  0  0  0  0
   35.6050   30.1100   34.3990 C   0  0  0  0  0  0  0  0  0  0  0  0
   36.1480   28.8440   34.4910 C   0  0  0  0  0  0  0  0  0  0  0  0
   36.4640   28.1220   33.3540 C   0  0  0  0  0  0  0  0  0  0  0  0
   38.8373   25.0802   34.1227 H   0  0  0  0  0  0  0  0  0  0  0  0
   40.3164   22.1107   37.1868 H   0  0  0  0  0  0  0  0  0  0  0  0
   38.9351   22.4950   39.2561 H   0  0  0  0  0  0  0  0  0  0  0  0
   37.3497   24.4834   39.2717 H   0  0  0  0  0  0  0  0  0  0  0  0
   39.7724   27.0189   36.2306 H   0  0  0  0  0  0  0  0  0  0  0  0
   40.5541   26.5478   34.6834 H   0  0  0  0  0  0  0  0  0  0  0  0
   39.2045   27.7333   34.6834 H   0  0  0  0  0  0  0  0  0  0  0  0
   36.4977   25.5049   34.9841 H   0  0  0  0  0  0  0  0  0  0  0  0
   37.1632   27.1294   35.5223 H   0  0  0  0  0  0  0  0  0  0  0  0
   37.3140   26.1731   30.2900 H   0  0  0  0  0  0  0  0  0  0  0  0
   35.5042   30.3830   31.0204 H   0  0  0  0  0  0  0  0  0  0  0  0
   34.9315   31.6833   33.0752 H   0  0  0  0  0  0  0  0  0  0  0  0
   35.3615   30.6707   35.3135 H   0  0  0  0  0  0  0  0  0  0  0  0
   36.3319   28.4033   35.4820 H   0  0  0  0  0  0  0  0  0  0  0  0
  1  8  1  0
  1  6  1  0
  2  3  2  0
  3  4  1  0
  5  4  2  0
  6  5  1  0
  7  6  2  0
  7  2  1  0
  9  1  1  0
 10  9  1  0
 11 10  2  0
 12 11  1  0
 13 12  2  0
 13 14  1  0
 14 19  2  0
 15 14  1  0
 15 16  2  0
 16 17  1  0
 17 18  2  0
 19 10  1  0
 19 18  1  0
  1 20  1  6
  2 21  1  0
  3 22  1  0
  4 23  1  0
  8 24  1  0
  8 25  1  0
  8 26  1  0
  9 27  1  0
  9 28  1  0
 12 29  1  0
 15 30  1  0
 16 31  1  0
 17 32  1  0
 18 33  1  0
M  ISO  8  20   8  21  14  22  14  23  14  24   8  25   8  26   8  27   8
M  ISO  6  28   8  29  14  30  14  31  14  32  14  33  14
M  END
>  <minimizedAffinity>  (1) 
-5.32035255

>  <minimizedRMSD>  (1) 
1.16532981

$$$$
