
     RDKit          3D

 17 18  0  0  0  0  0  0  0  0999 V2000
   38.7120   22.5590   35.9380 C   0  0  0  0  0  0  0  0  0  0  0  0
   37.6780   23.1850   36.6860 C   0  0  0  0  0  0  0  0  0  0  0  0
   37.9800   23.5020   38.0020 C   0  0  0  0  0  0  0  0  0  0  0  0
   39.2030   23.2160   38.5030 N   0  0  0  0  0  0  0  0  0  0  0  0
   40.1540   22.6200   37.7510 C   0  0  0  0  0  0  0  0  0  0  0  0
   39.9060   22.2930   36.4680 N   0  0  0  0  0  0  0  0  0  0  0  0
   38.5080   22.0780   34.2310 S   0  0  0  0  0  0  0  0  0  0  0  0
   37.7410   23.4360   33.3580 C   0  0  0  0  0  0  0  0  0  0  0  0
   36.9500   22.8300   32.3830 C   0  0  0  0  0  0  0  0  0  0  0  0
   36.1490   24.2630   31.4740 S   0  0  0  0  0  0  0  0  0  0  0  0
   37.0740   25.4470   32.6310 C   0  0  0  0  0  0  0  0  0  0  0  0
   37.6420   24.7450   33.2880 N   0  0  0  0  0  0  0  0  0  0  0  0
   36.6942   23.4055   36.2461 H   0  0  0  0  0  0  0  0  0  0  0  0
   37.2245   23.9861   38.6383 H   0  0  0  0  0  0  0  0  0  0  0  0
   41.1384   22.4001   38.1898 H   0  0  0  0  0  0  0  0  0  0  0  0
   36.8239   21.7544   32.1901 H   0  0  0  0  0  0  0  0  0  0  0  0
   37.0557   26.5467   32.6501 H   0  0  0  0  0  0  0  0  0  0  0  0
  1  6  1  0
  1  2  2  0
  2  3  1  0
  3  4  2  0
  5  4  1  0
  6  5  2  0
  7  1  1  0
  8  7  1  0
  9  8  2  0
 10  9  1  0
 10 11  1  0
 11 12  2  0
 12  8  1  0
  2 13  1  0
  3 14  1  0
  5 15  1  0
  9 16  1  0
 11 17  1  0
M  ISO  5  13  14  14  14  15  14  16  14  17  14
M  END
>  <minimizedAffinity>  (1) 
-3.41389942

>  <minimizedRMSD>  (1) 
5.8136673

$$$$
