
     RDKit          3D

 18 19  0  0  0  0  0  0  0  0999 V2000
   37.6520   22.4940   33.1610 C   0  0  0  0  0  0  0  0  0  0  0  0
   36.6160   21.5780   32.8530 C   0  0  0  0  0  0  0  0  0  0  0  0
   35.5710   22.0670   32.0740 C   0  0  0  0  0  0  0  0  0  0  0  0
   35.5860   23.3550   31.6560 N   0  0  0  0  0  0  0  0  0  0  0  0
   36.6030   24.1970   31.9770 C   0  0  0  0  0  0  0  0  0  0  0  0
   37.6290   23.7530   32.7300 N   0  0  0  0  0  0  0  0  0  0  0  0
   39.0810   22.0450   34.1520 S   0  0  0  0  0  0  0  0  0  0  0  0
   38.8120   22.6270   35.8350 C   0  0  0  0  0  0  0  0  0  0  0  0
   39.5920   22.9250   36.9560 C   0  0  0  0  0  0  0  0  0  0  0  0
   38.7020   23.3310   37.9360 C   0  0  0  0  0  0  0  0  0  0  0  0
   37.4560   23.2600   37.3670 C   0  0  0  0  0  0  0  0  0  0  0  0
   37.5510   22.8440   36.1320 O   0  0  0  0  0  0  0  0  0  0  0  0
   36.6362   20.5377   33.2098 H   0  0  0  0  0  0  0  0  0  0  0  0
   34.7344   21.4082   31.7984 H   0  0  0  0  0  0  0  0  0  0  0  0
   36.5890   25.2385   31.6232 H   0  0  0  0  0  0  0  0  0  0  0  0
   40.6862   22.8521   37.0419 H   0  0  0  0  0  0  0  0  0  0  0  0
   38.9447   23.6462   38.9616 H   0  0  0  0  0  0  0  0  0  0  0  0
   36.5148   23.5158   37.8757 H   0  0  0  0  0  0  0  0  0  0  0  0
  1  7  1  0
  2  1  2  0
  3  2  1  0
  4  5  1  0
  4  3  2  0
  5  6  2  0
  6  1  1  0
  7  8  1  0
  8 12  1  0
  8  9  2  0
  9 10  1  0
 11 10  2  0
 12 11  1  0
  2 13  1  0
  3 14  1  0
  5 15  1  0
  9 16  1  0
 10 17  1  0
 11 18  1  0
M  ISO  6  13  14  14  14  15  14  16  14  17  14  18  14
M  END
>  <minimizedAffinity>  (1) 
-3.32232523

>  <minimizedRMSD>  (1) 
2.80830479

$$$$
