
     RDKit          3D

 38 40  0  0  0  0  0  0  0  0999 V2000
   39.4320   25.4070   34.6050 N   0  0  0  0  0  0  0  0  0  0  0  0
   40.6430   26.0170   34.6010 C   0  0  0  0  0  0  0  0  0  0  0  0
   41.0280   26.7670   33.4940 C   0  0  0  0  0  0  0  0  0  0  0  0
   40.1390   26.8590   32.4240 C   0  0  0  0  0  0  0  0  0  0  0  0
   40.3760   27.5090   31.3760 O   0  0  0  0  0  0  0  0  0  0  0  0
   38.9290   26.2380   32.4460 N   0  0  0  0  0  0  0  0  0  0  0  0
   38.6110   25.5250   33.5470 C   0  0  0  0  0  0  0  0  0  0  0  0
   37.5090   24.9490   33.5900 O   0  0  0  0  0  0  0  0  0  0  0  0
   38.2190   25.2190   36.6790 C   0  0  0  0  0  0  0  0  0  0  0  0
   39.1500   24.6820   35.7690 C   0  0  0  0  0  0  0  0  0  0  0  0
   39.7220   23.4660   36.0920 C   0  0  0  0  0  0  0  0  0  0  0  0
   39.3590   22.8530   37.2660 N   0  0  0  0  0  0  0  0  0  0  0  0
   38.4740   23.3950   38.1020 C   0  0  0  0  0  0  0  0  0  0  0  0
   37.9130   24.5690   37.8040 N   0  0  0  0  0  0  0  0  0  0  0  0
   38.2820   22.5570   39.2380 N   0  0  0  0  0  0  0  0  0  0  0  0
   42.3370   27.4560   33.3740 C   0  0  0  0  0  0  0  0  0  0  0  0
   43.5070   26.7300   33.8990 C   0  0  0  0  0  0  0  0  0  0  0  0
   44.7390   27.4920   34.2110 C   0  0  0  0  0  0  0  0  0  0  0  0
   45.6780   26.3330   34.6200 C   0  0  0  0  0  0  0  0  0  0  0  0
   45.4150   25.3440   33.5100 C   0  0  0  0  0  0  0  0  0  0  0  0
   43.9970   25.6150   33.0030 C   0  0  0  0  0  0  0  0  0  0  0  0
   41.3156   25.9197   35.4659 H   0  0  0  0  0  0  0  0  0  0  0  0
   38.2785   26.3093   31.6506 H   0  0  0  0  0  0  0  0  0  0  0  0
   37.7389   26.1843   36.4604 H   0  0  0  0  0  0  0  0  0  0  0  0
   40.4558   22.9971   35.4199 H   0  0  0  0  0  0  0  0  0  0  0  0
   37.6251   22.8378   39.9800 H   0  0  0  0  0  0  0  0  0  0  0  0
   38.8001   21.6703   39.3174 H   0  0  0  0  0  0  0  0  0  0  0  0
   42.5157   27.6526   32.3066 H   0  0  0  0  0  0  0  0  0  0  0  0
   42.2505   28.3606   33.9939 H   0  0  0  0  0  0  0  0  0  0  0  0
   43.0473   26.3874   34.8378 H   0  0  0  0  0  0  0  0  0  0  0  0
   45.1179   28.0328   33.3312 H   0  0  0  0  0  0  0  0  0  0  0  0
   44.6167   28.2781   34.9706 H   0  0  0  0  0  0  0  0  0  0  0  0
   46.7306   26.6522   34.6357 H   0  0  0  0  0  0  0  0  0  0  0  0
   45.4979   25.9386   35.6309 H   0  0  0  0  0  0  0  0  0  0  0  0
   46.1416   25.4859   32.6964 H   0  0  0  0  0  0  0  0  0  0  0  0
   45.5140   24.3098   33.8713 H   0  0  0  0  0  0  0  0  0  0  0  0
   44.0104   25.9340   31.9504 H   0  0  0  0  0  0  0  0  0  0  0  0
   43.3528   24.7240   33.0376 H   0  0  0  0  0  0  0  0  0  0  0  0
  1 10  1  0
  2  1  1  0
  3  2  2  0
  4  6  1  0
  4  3  1  0
  5  4  2  0
  6  7  1  0
  7  8  2  0
  7  1  1  0
  9 14  2  0
 10 11  2  0
 10  9  1  0
 11 12  1  0
 12 13  2  0
 13 15  1  0
 14 13  1  0
 16  3  1  0
 16 17  1  0
 17 18  1  0
 18 19  1  0
 20 19  1  0
 21 20  1  0
 21 17  1  0
  2 22  1  0
  6 23  1  0
  9 24  1  0
 11 25  1  0
 15 26  1  0
 15 27  1  0
 16 28  1  0
 16 29  1  0
 17 30  1  0
 18 31  1  0
 18 32  1  0
 19 33  1  0
 19 34  1  0
 20 35  1  0
 20 36  1  0
 21 37  1  0
 21 38  1  0
M  ISO  8  22  14  23   9  24  14  25  14  28   8  29   8  30  13  31  13
M  ISO  7  32  13  33  13  34  13  35  13  36  13  37  13  38  13
M  END
>  <minimizedAffinity>  (1) 
-4.56550121

>  <minimizedRMSD>  (1) 
1.37173772

$$$$
