
     RDKit          3D

 40 42  0  0  0  0  0  0  0  0999 V2000
   42.4600   24.6140   35.3010 C   0  0  0  0  0  0  0  0  0  0  0  0
   41.4960   23.7050   35.7320 C   0  0  0  0  0  0  0  0  0  0  0  0
   40.1540   23.9970   35.6340 C   0  0  0  0  0  0  0  0  0  0  0  0
   39.7280   25.1930   35.1080 C   0  0  0  0  0  0  0  0  0  0  0  0
   40.6360   26.1100   34.6750 C   0  0  0  0  0  0  0  0  0  0  0  0
   41.9830   25.8100   34.7770 C   0  0  0  0  0  0  0  0  0  0  0  0
   44.1460   24.2200   35.3840 S   0  0  0  0  0  0  0  0  0  0  0  0
   44.3370   22.8170   34.9300 O   0  0  0  0  0  0  0  0  0  0  0  0
   44.8840   25.1760   34.4490 O   0  0  0  0  0  0  0  0  0  0  0  0
   44.8390   24.3630   37.0130 C   0  0  0  0  0  0  0  0  0  0  0  0
   46.3240   24.1570   36.9320 C   0  0  0  0  0  0  0  0  0  0  0  0
   47.0670   25.0430   37.9390 C   0  0  0  0  0  0  0  0  0  0  0  0
   46.2140   25.1350   39.1850 C   0  0  0  0  0  0  0  0  0  0  0  0
   45.0700   26.0650   38.8360 C   0  0  0  0  0  0  0  0  0  0  0  0
   44.5390   25.7960   37.4460 C   0  0  0  0  0  0  0  0  0  0  0  0
   38.0220   25.6870   34.9280 S   0  0  0  0  0  0  0  0  0  0  0  0
   37.5000   25.1150   33.3150 C   0  0  0  0  0  0  0  0  0  0  0  0
   37.8920   23.8450   32.7820 C   0  0  0  0  0  0  0  0  0  0  0  0
   37.4160   23.5230   31.5230 C   0  0  0  0  0  0  0  0  0  0  0  0
   36.6200   24.3930   30.8580 N   0  0  0  0  0  0  0  0  0  0  0  0
   36.2740   25.5870   31.4020 C   0  0  0  0  0  0  0  0  0  0  0  0
   36.7150   25.9260   32.6130 N   0  0  0  0  0  0  0  0  0  0  0  0
   41.8115   22.7405   36.1565 H   0  0  0  0  0  0  0  0  0  0  0  0
   39.4125   23.2627   35.9816 H   0  0  0  0  0  0  0  0  0  0  0  0
   40.3056   27.0704   34.2524 H   0  0  0  0  0  0  0  0  0  0  0  0
   42.7125   26.5548   34.4261 H   0  0  0  0  0  0  0  0  0  0  0  0
   44.4270   23.6249   37.7169 H   0  0  0  0  0  0  0  0  0  0  0  0
   46.5514   23.1024   37.1470 H   0  0  0  0  0  0  0  0  0  0  0  0
   46.6568   24.4292   35.9195 H   0  0  0  0  0  0  0  0  0  0  0  0
   48.0417   24.5960   38.1841 H   0  0  0  0  0  0  0  0  0  0  0  0
   47.2428   26.0434   37.5168 H   0  0  0  0  0  0  0  0  0  0  0  0
   45.8296   24.1417   39.4600 H   0  0  0  0  0  0  0  0  0  0  0  0
   46.7913   25.5087   40.0435 H   0  0  0  0  0  0  0  0  0  0  0  0
   44.2573   25.9199   39.5630 H   0  0  0  0  0  0  0  0  0  0  0  0
   45.4448   27.0987   38.8673 H   0  0  0  0  0  0  0  0  0  0  0  0
   45.0135   26.4922   36.7388 H   0  0  0  0  0  0  0  0  0  0  0  0
   43.4483   25.9384   37.4541 H   0  0  0  0  0  0  0  0  0  0  0  0
   38.5403   23.1584   33.3461 H   0  0  0  0  0  0  0  0  0  0  0  0
   37.6843   22.5606   31.0629 H   0  0  0  0  0  0  0  0  0  0  0  0
   35.6271   26.2777   30.8413 H   0  0  0  0  0  0  0  0  0  0  0  0
  1  7  1  0
  1  2  2  0
  3  2  1  0
  4  3  2  0
  5  6  2  0
  5  4  1  0
  6  1  1  0
  7 10  1  0
  8  7  2  0
  9  7  2  0
 10 15  1  0
 11 10  1  0
 11 12  1  0
 12 13  1  0
 14 13  1  0
 15 14  1  0
 16  4  1  0
 17 16  1  0
 18 17  2  0
 19 18  1  0
 20 21  1  0
 20 19  2  0
 21 22  2  0
 22 17  1  0
  2 23  1  0
  3 24  1  0
  5 25  1  0
  6 26  1  0
 10 27  1  0
 11 28  1  0
 11 29  1  0
 12 30  1  0
 12 31  1  0
 13 32  1  0
 13 33  1  0
 14 34  1  0
 14 35  1  0
 15 36  1  0
 15 37  1  0
 18 38  1  0
 19 39  1  0
 21 40  1  0
M  ISO  8  23  14  24  14  25  14  26  14  27  13  28  13  29  13  30  13
M  ISO  8  31  13  32  13  33  13  34  13  35  13  36  13  37  13  38  14
M  ISO  2  39  14  40  14
M  END
>  <minimizedAffinity>  (1) 
-5.14293718

>  <minimizedRMSD>  (1) 
1.78088844

$$$$
