
     RDKit          3D

 35 37  0  0  0  0  0  0  0  0999 V2000
   39.3730   25.3970   34.5080 N   0  0  0  0  0  0  0  0  0  0  0  0
   40.5400   26.0780   34.5070 C   0  0  0  0  0  0  0  0  0  0  0  0
   40.8590   26.8280   33.3640 C   0  0  0  0  0  0  0  0  0  0  0  0
   39.9790   26.8380   32.3050 C   0  0  0  0  0  0  0  0  0  0  0  0
   40.1810   27.4810   31.2430 O   0  0  0  0  0  0  0  0  0  0  0  0
   38.8150   26.1420   32.3420 N   0  0  0  0  0  0  0  0  0  0  0  0
   38.5490   25.4340   33.4590 C   0  0  0  0  0  0  0  0  0  0  0  0
   37.4700   24.7840   33.5030 O   0  0  0  0  0  0  0  0  0  0  0  0
   38.2190   25.1980   36.6230 C   0  0  0  0  0  0  0  0  0  0  0  0
   39.1300   24.6710   35.6940 C   0  0  0  0  0  0  0  0  0  0  0  0
   39.7330   23.4640   36.0000 C   0  0  0  0  0  0  0  0  0  0  0  0
   39.4010   22.8640   37.1930 N   0  0  0  0  0  0  0  0  0  0  0  0
   38.5370   23.3830   38.0510 C   0  0  0  0  0  0  0  0  0  0  0  0
   37.9440   24.5580   37.7620 N   0  0  0  0  0  0  0  0  0  0  0  0
   38.3540   22.5720   39.1950 N   0  0  0  0  0  0  0  0  0  0  0  0
   42.1220   27.6190   33.2550 C   0  0  0  0  0  0  0  0  0  0  0  0
   43.3430   26.8200   33.3300 C   0  0  0  0  0  0  0  0  0  0  0  0
   43.6920   25.7170   32.5830 C   0  0  0  0  0  0  0  0  0  0  0  0
   44.8730   25.0380   32.7470 C   0  0  0  0  0  0  0  0  0  0  0  0
   45.7940   25.4380   33.6920 C   0  0  0  0  0  0  0  0  0  0  0  0
   45.5270   26.5410   34.4930 C   0  0  0  0  0  0  0  0  0  0  0  0
   44.3060   27.1880   34.2760 C   0  0  0  0  0  0  0  0  0  0  0  0
   41.2175   26.0458   35.3730 H   0  0  0  0  0  0  0  0  0  0  0  0
   38.1595   26.1537   31.5476 H   0  0  0  0  0  0  0  0  0  0  0  0
   37.7226   26.1559   36.4086 H   0  0  0  0  0  0  0  0  0  0  0  0
   40.4544   22.9991   35.3120 H   0  0  0  0  0  0  0  0  0  0  0  0
   37.7048   22.8682   39.9377 H   0  0  0  0  0  0  0  0  0  0  0  0
   38.8699   21.6851   39.2855 H   0  0  0  0  0  0  0  0  0  0  0  0
   42.1402   28.3528   34.0743 H   0  0  0  0  0  0  0  0  0  0  0  0
   42.1141   28.0875   32.2598 H   0  0  0  0  0  0  0  0  0  0  0  0
   42.9881   25.3622   31.8157 H   0  0  0  0  0  0  0  0  0  0  0  0
   45.0879   24.1629   32.1162 H   0  0  0  0  0  0  0  0  0  0  0  0
   46.7375   24.8852   33.8112 H   0  0  0  0  0  0  0  0  0  0  0  0
   46.2381   26.8873   35.2575 H   0  0  0  0  0  0  0  0  0  0  0  0
   44.0833   28.0630   34.9043 H   0  0  0  0  0  0  0  0  0  0  0  0
  1 10  1  0
  2  1  1  0
  3  2  2  0
  4  6  1  0
  4  3  1  0
  5  4  2  0
  6  7  1  0
  7  8  2  0
  7  1  1  0
  9 14  2  0
 10 11  2  0
 10  9  1  0
 11 12  1  0
 12 13  2  0
 13 15  1  0
 14 13  1  0
 16 17  1  0
 16  3  1  0
 17 22  2  0
 18 19  2  0
 18 17  1  0
 19 20  1  0
 20 21  2  0
 22 21  1  0
  2 23  1  0
  6 24  1  0
  9 25  1  0
 11 26  1  0
 15 27  1  0
 15 28  1  0
 16 29  1  0
 16 30  1  0
 18 31  1  0
 19 32  1  0
 20 33  1  0
 21 34  1  0
 22 35  1  0
M  ISO  8  23  14  24   9  25  14  26  14  29   8  30   8  31  14  32  14
M  ISO  3  33  14  34  14  35  14
M  END
>  <minimizedAffinity>  (1) 
-4.564363

>  <minimizedRMSD>  (1) 
1.13353217

$$$$
