
     RDKit          3D

 37 39  0  0  0  0  0  0  0  0999 V2000
   42.6090   26.3280   33.1560 C   0  0  0  0  0  0  0  0  0  0  0  0
   41.7550   27.3160   33.6510 C   0  0  0  0  0  0  0  0  0  0  0  0
   40.4140   27.0770   33.8250 C   0  0  0  0  0  0  0  0  0  0  0  0
   39.8820   25.8340   33.5070 C   0  0  0  0  0  0  0  0  0  0  0  0
   40.6850   24.8460   33.0210 C   0  0  0  0  0  0  0  0  0  0  0  0
   42.0340   25.1050   32.8530 C   0  0  0  0  0  0  0  0  0  0  0  0
   44.3070   26.6340   32.9830 S   0  0  0  0  0  0  0  0  0  0  0  0
   44.8670   25.7500   31.9380 O   0  0  0  0  0  0  0  0  0  0  0  0
   44.4800   28.0960   32.6080 O   0  0  0  0  0  0  0  0  0  0  0  0
   46.4110   25.7940   36.8870 C   0  0  0  0  0  0  0  0  0  0  0  0
   47.0990   26.4550   35.8850 C   0  0  0  0  0  0  0  0  0  0  0  0
   46.4570   26.7210   34.6690 C   0  0  0  0  0  0  0  0  0  0  0  0
   45.1690   26.3280   34.4910 C   0  0  0  0  0  0  0  0  0  0  0  0
   44.4650   25.6610   35.4950 C   0  0  0  0  0  0  0  0  0  0  0  0
   45.0970   25.3910   36.7090 C   0  0  0  0  0  0  0  0  0  0  0  0
   47.0610   25.3870   38.4560 S   0  0  0  0  0  0  0  0  0  0  0  0
   45.8750   25.2710   39.3950 O   0  0  0  0  0  0  0  0  0  0  0  0
   47.7750   24.0670   38.4400 O   0  0  0  0  0  0  0  0  0  0  0  0
   38.1620   25.3840   33.6810 S   0  0  0  0  0  0  0  0  0  0  0  0
   38.0200   24.5160   35.2330 C   0  0  0  0  0  0  0  0  0  0  0  0
   38.0610   25.1790   36.4970 C   0  0  0  0  0  0  0  0  0  0  0  0
   37.9400   24.3850   37.6210 C   0  0  0  0  0  0  0  0  0  0  0  0
   37.7930   23.0500   37.4880 N   0  0  0  0  0  0  0  0  0  0  0  0
   37.7590   22.4520   36.2770 C   0  0  0  0  0  0  0  0  0  0  0  0
   37.8730   23.1920   35.1700 N   0  0  0  0  0  0  0  0  0  0  0  0
   42.1644   28.3045   33.9064 H   0  0  0  0  0  0  0  0  0  0  0  0
   39.7606   27.8706   34.2165 H   0  0  0  0  0  0  0  0  0  0  0  0
   40.2683   23.8602   32.7668 H   0  0  0  0  0  0  0  0  0  0  0  0
   42.6782   24.3040   32.4614 H   0  0  0  0  0  0  0  0  0  0  0  0
   48.1415   26.7690   36.0421 H   0  0  0  0  0  0  0  0  0  0  0  0
   46.9923   27.2448   33.8633 H   0  0  0  0  0  0  0  0  0  0  0  0
   43.4224   25.3514   35.3306 H   0  0  0  0  0  0  0  0  0  0  0  0
   44.5604   24.8660   37.5130 H   0  0  0  0  0  0  0  0  0  0  0  0
   47.9606   26.3459   38.8409 H   0  0  0  0  0  0  0  0  0  0  0  0
   38.1831   26.2696   36.5721 H   0  0  0  0  0  0  0  0  0  0  0  0
   37.9634   24.8399   38.6223 H   0  0  0  0  0  0  0  0  0  0  0  0
   37.6381   21.3612   36.2025 H   0  0  0  0  0  0  0  0  0  0  0  0
  1  2  2  0
  2  3  1  0
  4 19  1  0
  4  3  2  0
  5  4  1  0
  6  5  2  0
  6  1  1  0
  7  1  1  0
  7 13  1  0
  8  7  2  0
  9  7  2  0
 10 16  1  0
 11 10  2  0
 12 11  1  0
 13 12  2  0
 13 14  1  0
 14 15  2  0
 15 10  1  0
 16 17  2  0
 18 16  2  0
 19 20  1  0
 20 21  2  0
 21 22  1  0
 23 22  2  0
 24 23  1  0
 25 20  1  0
 25 24  2  0
  2 26  1  0
  3 27  1  0
  5 28  1  0
  6 29  1  0
 11 30  1  0
 12 31  1  0
 14 32  1  0
 15 33  1  0
 16 34  1  0
 21 35  1  0
 22 36  1  0
 24 37  1  0
M  ISO  8  26  14  27  14  28  14  29  14  30  14  31  14  32  14  33  14
M  ISO  4  34  11  35  14  36  14  37  14
M  END
>  <minimizedAffinity>  (1) 
-4.53347158

>  <minimizedRMSD>  (1) 
4.40113163

$$$$
