
     RDKit          3D

 27 28  0  0  0  0  0  0  0  0999 V2000
   42.8950   23.9990   35.9130 C   0  0  0  0  0  0  0  0  0  0  0  0
   42.2180   23.0360   36.6650 C   0  0  0  0  0  0  0  0  0  0  0  0
   40.8510   22.9210   36.5930 C   0  0  0  0  0  0  0  0  0  0  0  0
   40.1180   23.7630   35.7720 C   0  0  0  0  0  0  0  0  0  0  0  0
   40.7450   24.7120   35.0270 C   0  0  0  0  0  0  0  0  0  0  0  0
   42.1200   24.8180   35.1060 C   0  0  0  0  0  0  0  0  0  0  0  0
   44.6310   24.1140   35.9760 S   0  0  0  0  0  0  0  0  0  0  0  0
   45.2090   22.7560   36.0730 O   0  0  0  0  0  0  0  0  0  0  0  0
   45.0930   24.8100   34.7040 O   0  0  0  0  0  0  0  0  0  0  0  0
   45.2080   25.1110   37.3270 C   0  0  0  0  0  0  0  0  0  0  0  0
   45.7030   26.2740   36.7700 F   0  0  0  0  0  0  0  0  0  0  0  0
   44.2450   25.3420   38.2660 F   0  0  0  0  0  0  0  0  0  0  0  0
   46.3110   24.4520   37.8750 F   0  0  0  0  0  0  0  0  0  0  0  0
   38.3380   23.7180   35.5900 S   0  0  0  0  0  0  0  0  0  0  0  0
   38.0140   23.0680   33.9700 C   0  0  0  0  0  0  0  0  0  0  0  0
   38.2660   21.6990   33.6170 C   0  0  0  0  0  0  0  0  0  0  0  0
   37.9690   21.3240   32.3190 C   0  0  0  0  0  0  0  0  0  0  0  0
   37.4690   22.2320   31.4560 N   0  0  0  0  0  0  0  0  0  0  0  0
   37.2430   23.5120   31.8140 C   0  0  0  0  0  0  0  0  0  0  0  0
   37.5180   23.9140   33.0670 N   0  0  0  0  0  0  0  0  0  0  0  0
   42.7862   22.3617   37.3226 H   0  0  0  0  0  0  0  0  0  0  0  0
   40.3348   22.1555   37.1910 H   0  0  0  0  0  0  0  0  0  0  0  0
   40.1680   25.3829   34.3735 H   0  0  0  0  0  0  0  0  0  0  0  0
   42.6229   25.5870   34.5013 H   0  0  0  0  0  0  0  0  0  0  0  0
   38.6757   20.9826   34.3442 H   0  0  0  0  0  0  0  0  0  0  0  0
   38.1402   20.2879   31.9915 H   0  0  0  0  0  0  0  0  0  0  0  0
   36.8348   24.2254   31.0829 H   0  0  0  0  0  0  0  0  0  0  0  0
  1  7  1  0
  1  2  2  0
  3  2  1  0
  4  3  2  0
  5  6  2  0
  5  4  1  0
  6  1  1  0
  7  8  2  0
  7 10  1  0
  9  7  2  0
 10 13  1  0
 10 12  1  0
 11 10  1  0
 14  4  1  0
 15 14  1  0
 16 15  2  0
 17 16  1  0
 18 19  1  0
 18 17  2  0
 19 20  2  0
 20 15  1  0
  2 21  1  0
  3 22  1  0
  5 23  1  0
  6 24  1  0
 16 25  1  0
 17 26  1  0
 19 27  1  0
M  ISO  7  21  14  22  14  23  14  24  14  25  14  26  14  27  14
M  END
>  <minimizedAffinity>  (1) 
-4.02455473

>  <minimizedRMSD>  (1) 
0.917449594

$$$$
