
     RDKit          3D

 33 34  0  0  0  0  0  0  0  0999 V2000
   43.3570   24.2700   36.0490 C   0  0  0  0  0  0  0  0  0  0  0  0
   43.0470   23.1180   36.7730 C   0  0  0  0  0  0  0  0  0  0  0  0
   41.7880   22.5730   36.7450 C   0  0  0  0  0  0  0  0  0  0  0  0
   40.7910   23.1680   35.9830 C   0  0  0  0  0  0  0  0  0  0  0  0
   41.0570   24.2960   35.2600 C   0  0  0  0  0  0  0  0  0  0  0  0
   42.3330   24.8310   35.3030 C   0  0  0  0  0  0  0  0  0  0  0  0
   44.9640   24.9220   36.0690 S   0  0  0  0  0  0  0  0  0  0  0  0
   45.8510   24.0880   35.2310 O   0  0  0  0  0  0  0  0  0  0  0  0
   44.8980   26.3460   35.5410 O   0  0  0  0  0  0  0  0  0  0  0  0
   45.6200   24.9830   37.7400 C   0  0  0  0  0  0  0  0  0  0  0  0
   44.7970   25.9570   38.5480 C   0  0  0  0  0  0  0  0  0  0  0  0
   47.0710   25.3940   37.6550 C   0  0  0  0  0  0  0  0  0  0  0  0
   39.1120   22.5800   35.8440 S   0  0  0  0  0  0  0  0  0  0  0  0
   38.7380   22.5110   34.1080 C   0  0  0  0  0  0  0  0  0  0  0  0
   39.3550   21.5790   33.2180 C   0  0  0  0  0  0  0  0  0  0  0  0
   38.9730   21.6320   31.8880 C   0  0  0  0  0  0  0  0  0  0  0  0
   38.0570   22.5390   31.4930 N   0  0  0  0  0  0  0  0  0  0  0  0
   37.4910   23.4070   32.3590 C   0  0  0  0  0  0  0  0  0  0  0  0
   37.8360   23.3850   33.6530 N   0  0  0  0  0  0  0  0  0  0  0  0
   43.8286   22.6365   37.3791 H   0  0  0  0  0  0  0  0  0  0  0  0
   41.5685   21.6651   37.3259 H   0  0  0  0  0  0  0  0  0  0  0  0
   40.2711   24.7709   34.6543 H   0  0  0  0  0  0  0  0  0  0  0  0
   42.5429   25.7400   34.7202 H   0  0  0  0  0  0  0  0  0  0  0  0
   45.5644   24.0047   38.2398 H   0  0  0  0  0  0  0  0  0  0  0  0
   44.9554   25.7696   39.6203 H   0  0  0  0  0  0  0  0  0  0  0  0
   45.1040   26.9853   38.3062 H   0  0  0  0  0  0  0  0  0  0  0  0
   43.7319   25.8259   38.3062 H   0  0  0  0  0  0  0  0  0  0  0  0
   47.4794   25.5097   38.6698 H   0  0  0  0  0  0  0  0  0  0  0  0
   47.6399   24.6217   37.1166 H   0  0  0  0  0  0  0  0  0  0  0  0
   47.1504   26.3500   37.1166 H   0  0  0  0  0  0  0  0  0  0  0  0
   40.1001   20.8520   33.5734 H   0  0  0  0  0  0  0  0  0  0  0  0
   39.4145   20.9379   31.1578 H   0  0  0  0  0  0  0  0  0  0  0  0
   36.7459   24.1328   32.0013 H   0  0  0  0  0  0  0  0  0  0  0  0
  1  7  1  0
  1  2  2  0
  3  2  1  0
  4  3  2  0
  5  6  2  0
  5  4  1  0
  6  1  1  0
  7 10  1  0
  8  7  2  0
  9  7  2  0
 10 11  1  0
 12 10  1  0
 13  4  1  0
 14 13  1  0
 15 14  2  0
 16 15  1  0
 17 16  2  0
 17 18  1  0
 18 19  2  0
 19 14  1  0
  2 20  1  0
  3 21  1  0
  5 22  1  0
  6 23  1  0
 10 24  1  0
 11 25  1  0
 11 26  1  0
 11 27  1  0
 12 28  1  0
 12 29  1  0
 12 30  1  0
 15 31  1  0
 16 32  1  0
 18 33  1  0
M  ISO  8  20  14  21  14  22  14  23  14  24   8  25   8  26   8  27   8
M  ISO  6  28   8  29   8  30   8  31  14  32  14  33  14
M  END
>  <minimizedAffinity>  (1) 
-3.94386768

>  <minimizedRMSD>  (1) 
1.25706458

$$$$
