
     RDKit          3D

 30 31  0  0  0  0  0  0  0  0999 V2000
   43.3380   24.3140   35.9740 C   0  0  0  0  0  0  0  0  0  0  0  0
   43.0150   23.1870   36.7320 C   0  0  0  0  0  0  0  0  0  0  0  0
   41.7400   22.6830   36.7440 C   0  0  0  0  0  0  0  0  0  0  0  0
   40.7410   23.2890   35.9960 C   0  0  0  0  0  0  0  0  0  0  0  0
   41.0220   24.3900   35.2440 C   0  0  0  0  0  0  0  0  0  0  0  0
   42.3150   24.8940   35.2390 C   0  0  0  0  0  0  0  0  0  0  0  0
   44.9640   24.9150   35.9400 S   0  0  0  0  0  0  0  0  0  0  0  0
   45.8040   24.0370   35.0920 O   0  0  0  0  0  0  0  0  0  0  0  0
   44.9300   26.3290   35.3830 O   0  0  0  0  0  0  0  0  0  0  0  0
   45.6140   24.9500   37.5950 C   0  0  0  0  0  0  0  0  0  0  0  0
   44.8810   25.9180   38.4720 C   0  0  0  0  0  0  0  0  0  0  0  0
   39.0400   22.7470   35.9170 S   0  0  0  0  0  0  0  0  0  0  0  0
   38.5510   22.8640   34.2090 C   0  0  0  0  0  0  0  0  0  0  0  0
   38.8820   21.8780   33.2330 C   0  0  0  0  0  0  0  0  0  0  0  0
   38.4430   22.0910   31.9480 C   0  0  0  0  0  0  0  0  0  0  0  0
   37.7310   23.1990   31.6560 N   0  0  0  0  0  0  0  0  0  0  0  0
   37.4320   24.1220   32.6050 C   0  0  0  0  0  0  0  0  0  0  0  0
   37.8480   23.9370   33.8650 N   0  0  0  0  0  0  0  0  0  0  0  0
   43.7966   22.6951   37.3297 H   0  0  0  0  0  0  0  0  0  0  0  0
   41.5081   21.7943   37.3493 H   0  0  0  0  0  0  0  0  0  0  0  0
   40.2337   24.8734   34.6482 H   0  0  0  0  0  0  0  0  0  0  0  0
   42.5360   25.7839   34.6313 H   0  0  0  0  0  0  0  0  0  0  0  0
   45.5286   23.9434   38.0302 H   0  0  0  0  0  0  0  0  0  0  0  0
   46.6634   25.2747   37.5381 H   0  0  0  0  0  0  0  0  0  0  0  0
   45.0681   25.6709   39.5274 H   0  0  0  0  0  0  0  0  0  0  0  0
   45.2343   26.9392   38.2663 H   0  0  0  0  0  0  0  0  0  0  0  0
   43.8022   25.8548   38.2663 H   0  0  0  0  0  0  0  0  0  0  0  0
   39.4649   20.9835   33.4979 H   0  0  0  0  0  0  0  0  0  0  0  0
   38.6718   21.3593   31.1592 H   0  0  0  0  0  0  0  0  0  0  0  0
   36.8508   25.0178   32.3409 H   0  0  0  0  0  0  0  0  0  0  0  0
  1  2  2  0
  2  3  1  0
  4  3  2  0
  5  4  1  0
  6  5  2  0
  6  1  1  0
  7  1  1  0
  7 10  1  0
  8  7  2  0
  9  7  2  0
 10 11  1  0
 12  4  1  0
 13 12  1  0
 14 13  2  0
 15 14  1  0
 16 15  2  0
 16 17  1  0
 17 18  2  0
 18 13  1  0
  2 19  1  0
  3 20  1  0
  5 21  1  0
  6 22  1  0
 10 23  1  0
 10 24  1  0
 11 25  1  0
 11 26  1  0
 11 27  1  0
 14 28  1  0
 15 29  1  0
 17 30  1  0
M  ISO  8  19  14  20  14  21  14  22  14  23   8  24   8  25   8  26   8
M  ISO  4  27   8  28  14  29  14  30  14
M  END
>  <minimizedAffinity>  (1) 
-3.7087636

>  <minimizedRMSD>  (1) 
1.17766058

$$$$
