
     RDKit          3D

 31 33  0  0  0  0  0  0  0  0999 V2000
   43.6920   25.7480   34.9710 C   0  0  0  0  0  0  0  0  0  0  0  0
   43.0120   24.6080   35.4030 C   0  0  0  0  0  0  0  0  0  0  0  0
   41.6730   24.4480   35.1550 C   0  0  0  0  0  0  0  0  0  0  0  0
   40.9640   25.4220   34.4640 C   0  0  0  0  0  0  0  0  0  0  0  0
   41.6010   26.5480   34.0280 C   0  0  0  0  0  0  0  0  0  0  0  0
   42.9530   26.6980   34.2860 C   0  0  0  0  0  0  0  0  0  0  0  0
   45.3950   25.9150   35.2580 S   0  0  0  0  0  0  0  0  0  0  0  0
   46.1450   24.9880   34.3810 O   0  0  0  0  0  0  0  0  0  0  0  0
   45.7760   27.3590   34.9630 O   0  0  0  0  0  0  0  0  0  0  0  0
   46.8670   24.8500   38.7210 N   0  0  0  0  0  0  0  0  0  0  0  0
   46.9070   24.9020   37.3990 N   0  0  0  0  0  0  0  0  0  0  0  0
   45.8270   25.5650   36.9360 C   0  0  0  0  0  0  0  0  0  0  0  0
   45.1170   25.9200   38.0710 C   0  0  0  0  0  0  0  0  0  0  0  0
   45.7550   25.4800   39.1880 C   0  0  0  0  0  0  0  0  0  0  0  0
   39.2250   25.3560   34.0680 S   0  0  0  0  0  0  0  0  0  0  0  0
   38.4510   24.3550   35.3230 C   0  0  0  0  0  0  0  0  0  0  0  0
   38.1810   24.8490   36.6300 C   0  0  0  0  0  0  0  0  0  0  0  0
   37.5780   23.9820   37.5170 C   0  0  0  0  0  0  0  0  0  0  0  0
   37.2740   22.7270   37.1210 N   0  0  0  0  0  0  0  0  0  0  0  0
   37.5460   22.2920   35.8700 C   0  0  0  0  0  0  0  0  0  0  0  0
   38.1290   23.1100   34.9910 N   0  0  0  0  0  0  0  0  0  0  0  0
   43.5587   23.8262   35.9507 H   0  0  0  0  0  0  0  0  0  0  0  0
   41.1569   23.5421   35.5057 H   0  0  0  0  0  0  0  0  0  0  0  0
   41.0481   27.3249   33.4796 H   0  0  0  0  0  0  0  0  0  0  0  0
   43.4603   27.6079   33.9329 H   0  0  0  0  0  0  0  0  0  0  0  0
   47.5776   24.3965   39.3129 H   0  0  0  0  0  0  0  0  0  0  0  0
   44.1699   26.4794   38.0689 H   0  0  0  0  0  0  0  0  0  0  0  0
   45.4422   25.6053   40.2351 H   0  0  0  0  0  0  0  0  0  0  0  0
   38.4419   25.8775   36.9201 H   0  0  0  0  0  0  0  0  0  0  0  0
   37.3460   24.3106   38.5408 H   0  0  0  0  0  0  0  0  0  0  0  0
   37.2868   21.2640   35.5766 H   0  0  0  0  0  0  0  0  0  0  0  0
  1  7  1  0
  1  2  2  0
  3  2  1  0
  4  3  2  0
  5  6  2  0
  5  4  1  0
  6  1  1  0
  7 12  1  0
  8  7  2  0
  9  7  2  0
 10 14  1  0
 11 10  1  0
 12 11  2  0
 12 13  1  0
 13 14  2  0
 15  4  1  0
 15 16  1  0
 16 17  2  0
 17 18  1  0
 19 18  2  0
 20 19  1  0
 21 16  1  0
 21 20  2  0
  2 22  1  0
  3 23  1  0
  5 24  1  0
  6 25  1  0
 10 26  1  0
 13 27  1  0
 14 28  1  0
 17 29  1  0
 18 30  1  0
 20 31  1  0
M  ISO  8  22  14  23  14  24  14  25  14  26   9  27  14  28  14  29  14
M  ISO  2  30  14  31  14
M  END
>  <minimizedAffinity>  (1) 
-4.69814014

>  <minimizedRMSD>  (1) 
3.26951528

$$$$
