
     RDKit          3D

 44 47  0  0  0  0  0  0  0  0999 V2000
   43.9700   25.8130   34.8620 C   0  0  0  0  0  0  0  0  0  0  0  0
   43.2530   24.6580   35.1460 C   0  0  0  0  0  0  0  0  0  0  0  0
   41.9170   24.5600   34.8480 C   0  0  0  0  0  0  0  0  0  0  0  0
   41.2440   25.6160   34.2530 C   0  0  0  0  0  0  0  0  0  0  0  0
   41.9190   26.7670   33.9610 C   0  0  0  0  0  0  0  0  0  0  0  0
   43.2670   26.8510   34.2680 C   0  0  0  0  0  0  0  0  0  0  0  0
   45.6610   25.9240   35.2460 S   0  0  0  0  0  0  0  0  0  0  0  0
   46.4080   24.9640   34.3870 O   0  0  0  0  0  0  0  0  0  0  0  0
   46.1150   27.3470   34.9570 O   0  0  0  0  0  0  0  0  0  0  0  0
   46.9590   24.8290   38.7640 N   0  0  0  0  0  0  0  0  0  0  0  0
   47.0670   24.8980   37.4510 N   0  0  0  0  0  0  0  0  0  0  0  0
   46.0050   25.5590   36.9360 C   0  0  0  0  0  0  0  0  0  0  0  0
   45.2270   25.8960   38.0250 C   0  0  0  0  0  0  0  0  0  0  0  0
   45.8170   25.4430   39.1730 C   0  0  0  0  0  0  0  0  0  0  0  0
   39.5250   25.6270   33.8140 S   0  0  0  0  0  0  0  0  0  0  0  0
   38.7040   24.4560   34.8630 C   0  0  0  0  0  0  0  0  0  0  0  0
   38.7410   24.5760   36.2880 C   0  0  0  0  0  0  0  0  0  0  0  0
   38.0750   23.6200   37.0200 C   0  0  0  0  0  0  0  0  0  0  0  0
   37.4250   22.6290   36.3870 N   0  0  0  0  0  0  0  0  0  0  0  0
   37.4120   22.5500   35.0350 C   0  0  0  0  0  0  0  0  0  0  0  0
   38.0490   23.4610   34.3010 N   0  0  0  0  0  0  0  0  0  0  0  0
   36.7160   21.4890   34.3590 N   0  0  0  0  0  0  0  0  0  0  0  0
   37.1020   21.4540   33.0510 C   0  0  0  0  0  0  0  0  0  0  0  0
   36.5500   20.4930   32.1990 C   0  0  0  0  0  0  0  0  0  0  0  0
   36.9350   20.4040   30.7470 C   0  0  0  0  0  0  0  0  0  0  0  0
   35.6280   19.6200   32.7390 C   0  0  0  0  0  0  0  0  0  0  0  0
   35.1050   18.7320   31.9850 O   0  0  0  0  0  0  0  0  0  0  0  0
   35.2850   19.7020   34.0360 N   0  0  0  0  0  0  0  0  0  0  0  0
   35.8190   20.6200   34.8340 C   0  0  0  0  0  0  0  0  0  0  0  0
   35.5760   20.7900   36.0540 O   0  0  0  0  0  0  0  0  0  0  0  0
   43.7651   23.8066   35.6182 H   0  0  0  0  0  0  0  0  0  0  0  0
   41.3739   23.6330   35.0839 H   0  0  0  0  0  0  0  0  0  0  0  0
   41.3999   27.6143   33.4892 H   0  0  0  0  0  0  0  0  0  0  0  0
   43.8036   27.7814   34.0304 H   0  0  0  0  0  0  0  0  0  0  0  0
   47.6410   24.3757   39.3887 H   0  0  0  0  0  0  0  0  0  0  0  0
   44.2756   26.4461   37.9770 H   0  0  0  0  0  0  0  0  0  0  0  0
   45.4476   25.5519   40.2034 H   0  0  0  0  0  0  0  0  0  0  0  0
   39.2803   25.3995   36.7789 H   0  0  0  0  0  0  0  0  0  0  0  0
   38.0747   23.6669   38.1190 H   0  0  0  0  0  0  0  0  0  0  0  0
   37.8405   22.1750   32.6704 H   0  0  0  0  0  0  0  0  0  0  0  0
   38.0038   20.1569   30.6655 H   0  0  0  0  0  0  0  0  0  0  0  0
   36.3390   19.6199   30.2570 H   0  0  0  0  0  0  0  0  0  0  0  0
   36.7436   21.3701   30.2570 H   0  0  0  0  0  0  0  0  0  0  0  0
   34.5947   19.0402   34.4186 H   0  0  0  0  0  0  0  0  0  0  0  0
  1  2  2  0
  1  7  1  0
  3  2  1  0
  4  3  2  0
  5  4  1  0
  5  6  2  0
  6  1  1  0
  7 12  1  0
  8  7  2  0
  9  7  2  0
 10 14  1  0
 11 10  1  0
 12 11  2  0
 12 13  1  0
 13 14  2  0
 15  4  1  0
 15 16  1  0
 16 17  2  0
 17 18  1  0
 19 18  2  0
 20 19  1  0
 21 16  1  0
 21 20  2  0
 22 29  1  0
 22 20  1  0
 23 22  1  0
 24 26  1  0
 24 23  2  0
 25 24  1  0
 26 28  1  0
 27 26  2  0
 28 29  1  0
 29 30  2  0
  2 31  1  0
  3 32  1  0
  5 33  1  0
  6 34  1  0
 10 35  1  0
 13 36  1  0
 14 37  1  0
 17 38  1  0
 18 39  1  0
 23 40  1  0
 25 41  1  0
 25 42  1  0
 25 43  1  0
 28 44  1  0
M  ISO  8  31  14  32  14  33  14  34  14  35   9  36  14  37  14  38  14
M  ISO  6  39  14  40  14  41   8  42   8  43   8  44   9
M  END
>  <minimizedAffinity>  (1) 
-6.3719945

>  <minimizedRMSD>  (1) 
1.15091527

$$$$
