
     RDKit          3D

 39 42  0  0  0  0  0  0  0  0999 V2000
   43.5610   25.8270   34.8950 C   0  0  0  0  0  0  0  0  0  0  0  0
   42.8410   24.6830   35.2710 C   0  0  0  0  0  0  0  0  0  0  0  0
   41.4950   24.6050   35.0460 C   0  0  0  0  0  0  0  0  0  0  0  0
   40.8190   25.6530   34.4430 C   0  0  0  0  0  0  0  0  0  0  0  0
   41.4930   26.7820   34.0630 C   0  0  0  0  0  0  0  0  0  0  0  0
   42.8520   26.8540   34.2940 C   0  0  0  0  0  0  0  0  0  0  0  0
   45.2700   25.9200   35.1830 S   0  0  0  0  0  0  0  0  0  0  0  0
   45.9540   24.9140   34.3230 O   0  0  0  0  0  0  0  0  0  0  0  0
   45.7340   27.3190   34.8200 O   0  0  0  0  0  0  0  0  0  0  0  0
   46.7460   24.9180   38.6550 N   0  0  0  0  0  0  0  0  0  0  0  0
   46.8030   24.9540   37.3240 N   0  0  0  0  0  0  0  0  0  0  0  0
   45.7090   25.5890   36.8550 C   0  0  0  0  0  0  0  0  0  0  0  0
   44.9780   25.9380   37.9770 C   0  0  0  0  0  0  0  0  0  0  0  0
   45.6170   25.5230   39.1070 C   0  0  0  0  0  0  0  0  0  0  0  0
   39.0640   25.6920   34.0850 S   0  0  0  0  0  0  0  0  0  0  0  0
   38.3690   24.2080   34.7660 C   0  0  0  0  0  0  0  0  0  0  0  0
   38.2580   24.0060   36.1690 C   0  0  0  0  0  0  0  0  0  0  0  0
   37.7000   22.8130   36.5890 C   0  0  0  0  0  0  0  0  0  0  0  0
   37.2910   21.9020   35.6640 N   0  0  0  0  0  0  0  0  0  0  0  0
   37.4190   22.1440   34.3510 C   0  0  0  0  0  0  0  0  0  0  0  0
   37.9480   23.2750   33.9050 N   0  0  0  0  0  0  0  0  0  0  0  0
   36.9660   21.1370   33.3970 C   0  0  0  0  0  0  0  0  0  0  0  0
   35.7090   20.5770   33.4930 C   0  0  0  0  0  0  0  0  0  0  0  0
   35.2500   19.6110   32.5920 C   0  0  0  0  0  0  0  0  0  0  0  0
   36.0700   19.2230   31.5990 N   0  0  0  0  0  0  0  0  0  0  0  0
   37.2920   19.7660   31.5030 C   0  0  0  0  0  0  0  0  0  0  0  0
   37.7360   20.7060   32.3820 N   0  0  0  0  0  0  0  0  0  0  0  0
   43.3638   23.8423   35.7506 H   0  0  0  0  0  0  0  0  0  0  0  0
   40.9436   23.7018   35.3465 H   0  0  0  0  0  0  0  0  0  0  0  0
   40.9615   27.6166   33.5824 H   0  0  0  0  0  0  0  0  0  0  0  0
   43.3928   27.7620   33.9890 H   0  0  0  0  0  0  0  0  0  0  0  0
   47.4615   24.4893   39.2593 H   0  0  0  0  0  0  0  0  0  0  0  0
   44.0177   26.4742   37.9593 H   0  0  0  0  0  0  0  0  0  0  0  0
   45.2917   25.6495   40.1502 H   0  0  0  0  0  0  0  0  0  0  0  0
   38.6007   24.7648   36.8879 H   0  0  0  0  0  0  0  0  0  0  0  0
   37.5874   22.6015   37.6626 H   0  0  0  0  0  0  0  0  0  0  0  0
   35.0442   20.9018   34.3070 H   0  0  0  0  0  0  0  0  0  0  0  0
   34.2433   19.1792   32.6929 H   0  0  0  0  0  0  0  0  0  0  0  0
   37.9566   19.4419   30.6886 H   0  0  0  0  0  0  0  0  0  0  0  0
  1  7  1  0
  1  2  2  0
  3  2  1  0
  4  3  2  0
  5  6  2  0
  5  4  1  0
  6  1  1  0
  7 12  1  0
  8  7  2  0
  9  7  2  0
 10 14  1  0
 11 10  1  0
 12 11  2  0
 12 13  1  0
 13 14  2  0
 15  4  1  0
 15 16  1  0
 16 17  2  0
 17 18  1  0
 19 18  2  0
 20 19  1  0
 21 20  2  0
 21 16  1  0
 22 23  2  0
 22 20  1  0
 24 23  1  0
 25 24  2  0
 26 25  1  0
 26 27  2  0
 27 22  1  0
  2 28  1  0
  3 29  1  0
  5 30  1  0
  6 31  1  0
 10 32  1  0
 13 33  1  0
 14 34  1  0
 17 35  1  0
 18 36  1  0
 23 37  1  0
 24 38  1  0
 26 39  1  0
M  ISO  8  28  14  29  14  30  14  31  14  32   9  33  14  34  14  35  14
M  ISO  4  36  14  37  14  38  14  39  14
M  END
>  <minimizedAffinity>  (1) 
-5.5299387

>  <minimizedRMSD>  (1) 
1.45686889

$$$$
