
     RDKit          3D

 37 40  0  0  0  0  0  0  0  0999 V2000
   43.6970   25.8190   34.8910 C   0  0  0  0  0  0  0  0  0  0  0  0
   42.9710   24.6970   35.2590 C   0  0  0  0  0  0  0  0  0  0  0  0
   41.6200   24.6010   35.0180 C   0  0  0  0  0  0  0  0  0  0  0  0
   40.9560   25.6370   34.3940 C   0  0  0  0  0  0  0  0  0  0  0  0
   41.6300   26.7620   34.0130 C   0  0  0  0  0  0  0  0  0  0  0  0
   42.9920   26.8240   34.2730 C   0  0  0  0  0  0  0  0  0  0  0  0
   45.4010   25.9220   35.2050 S   0  0  0  0  0  0  0  0  0  0  0  0
   46.1070   24.9300   34.3470 O   0  0  0  0  0  0  0  0  0  0  0  0
   45.8620   27.3280   34.8830 O   0  0  0  0  0  0  0  0  0  0  0  0
   46.8300   24.8700   38.6850 N   0  0  0  0  0  0  0  0  0  0  0  0
   46.8890   24.9270   37.3670 N   0  0  0  0  0  0  0  0  0  0  0  0
   45.8120   25.5740   36.8800 C   0  0  0  0  0  0  0  0  0  0  0  0
   45.0720   25.9170   38.0000 C   0  0  0  0  0  0  0  0  0  0  0  0
   45.6940   25.4860   39.1310 C   0  0  0  0  0  0  0  0  0  0  0  0
   39.2080   25.6660   34.0090 S   0  0  0  0  0  0  0  0  0  0  0  0
   38.4720   24.2850   34.8590 C   0  0  0  0  0  0  0  0  0  0  0  0
   38.4730   24.1770   36.2680 C   0  0  0  0  0  0  0  0  0  0  0  0
   37.8720   23.0600   36.8130 C   0  0  0  0  0  0  0  0  0  0  0  0
   37.3210   22.1390   36.0010 N   0  0  0  0  0  0  0  0  0  0  0  0
   37.3370   22.2730   34.6640 C   0  0  0  0  0  0  0  0  0  0  0  0
   37.9120   23.3430   34.1200 N   0  0  0  0  0  0  0  0  0  0  0  0
   36.7400   21.2660   33.8540 N   0  0  0  0  0  0  0  0  0  0  0  0
   37.0530   20.9700   32.5810 C   0  0  0  0  0  0  0  0  0  0  0  0
   36.2710   19.9520   32.1360 N   0  0  0  0  0  0  0  0  0  0  0  0
   35.4650   19.6240   33.1630 C   0  0  0  0  0  0  0  0  0  0  0  0
   35.7690   20.4370   34.1980 N   0  0  0  0  0  0  0  0  0  0  0  0
   43.4879   23.8628   35.7560 H   0  0  0  0  0  0  0  0  0  0  0  0
   41.0694   23.6987   35.3226 H   0  0  0  0  0  0  0  0  0  0  0  0
   41.1095   27.5935   33.5153 H   0  0  0  0  0  0  0  0  0  0  0  0
   43.5380   27.7286   33.9672 H   0  0  0  0  0  0  0  0  0  0  0  0
   47.5367   24.4262   39.2888 H   0  0  0  0  0  0  0  0  0  0  0  0
   44.1163   26.4611   37.9781 H   0  0  0  0  0  0  0  0  0  0  0  0
   45.3579   25.6064   40.1714 H   0  0  0  0  0  0  0  0  0  0  0  0
   38.9325   24.9491   36.9027 H   0  0  0  0  0  0  0  0  0  0  0  0
   37.8437   22.9236   37.9041 H   0  0  0  0  0  0  0  0  0  0  0  0
   37.8278   21.4770   31.9871 H   0  0  0  0  0  0  0  0  0  0  0  0
   34.6974   18.8361   33.1600 H   0  0  0  0  0  0  0  0  0  0  0  0
  1  7  1  0
  1  2  2  0
  3  2  1  0
  4  3  2  0
  5  6  2  0
  5  4  1  0
  6  1  1  0
  7 12  1  0
  8  7  2  0
  9  7  2  0
 10 14  1  0
 11 10  1  0
 12 11  2  0
 12 13  1  0
 13 14  2  0
 15  4  1  0
 15 16  1  0
 16 17  2  0
 17 18  1  0
 19 18  2  0
 20 19  1  0
 21 20  2  0
 21 16  1  0
 22 26  1  0
 22 20  1  0
 23 22  1  0
 24 23  2  0
 24 25  1  0
 25 26  2  0
  2 27  1  0
  3 28  1  0
  5 29  1  0
  6 30  1  0
 10 31  1  0
 13 32  1  0
 14 33  1  0
 17 34  1  0
 18 35  1  0
 23 36  1  0
 25 37  1  0
M  ISO  8  27  14  28  14  29  14  30  14  31   9  32  14  33  14  34  14
M  ISO  3  35  14  36  14  37  14
M  END
>  <minimizedAffinity>  (1) 
-5.48220301

>  <minimizedRMSD>  (1) 
1.0949403

$$$$
