
     RDKit          3D

 38 41  0  0  0  0  0  0  0  0999 V2000
   43.6900   25.8280   34.8840 C   0  0  0  0  0  0  0  0  0  0  0  0
   42.9670   24.6910   35.2640 C   0  0  0  0  0  0  0  0  0  0  0  0
   41.6190   24.6070   35.0130 C   0  0  0  0  0  0  0  0  0  0  0  0
   40.9410   25.6370   34.3830 C   0  0  0  0  0  0  0  0  0  0  0  0
   41.6270   26.7580   34.0040 C   0  0  0  0  0  0  0  0  0  0  0  0
   42.9780   26.8390   34.2560 C   0  0  0  0  0  0  0  0  0  0  0  0
   45.3850   25.9360   35.1980 S   0  0  0  0  0  0  0  0  0  0  0  0
   46.1020   24.9620   34.3270 O   0  0  0  0  0  0  0  0  0  0  0  0
   45.8390   27.3480   34.8760 O   0  0  0  0  0  0  0  0  0  0  0  0
   46.8290   24.8830   38.6700 N   0  0  0  0  0  0  0  0  0  0  0  0
   46.8910   24.9410   37.3600 N   0  0  0  0  0  0  0  0  0  0  0  0
   45.8010   25.5840   36.8750 C   0  0  0  0  0  0  0  0  0  0  0  0
   45.0540   25.9230   37.9940 C   0  0  0  0  0  0  0  0  0  0  0  0
   45.6860   25.4900   39.1200 C   0  0  0  0  0  0  0  0  0  0  0  0
   39.2010   25.6540   34.0010 S   0  0  0  0  0  0  0  0  0  0  0  0
   38.4830   24.2390   34.7930 C   0  0  0  0  0  0  0  0  0  0  0  0
   38.4710   24.0870   36.1960 C   0  0  0  0  0  0  0  0  0  0  0  0
   37.8900   22.9520   36.7240 C   0  0  0  0  0  0  0  0  0  0  0  0
   37.3570   22.0350   35.8750 N   0  0  0  0  0  0  0  0  0  0  0  0
   37.3900   22.2200   34.5470 C   0  0  0  0  0  0  0  0  0  0  0  0
   37.9430   23.3030   34.0090 N   0  0  0  0  0  0  0  0  0  0  0  0
   36.7910   21.1790   33.7220 C   0  0  0  0  0  0  0  0  0  0  0  0
   35.5930   20.4920   33.8910 C   0  0  0  0  0  0  0  0  0  0  0  0
   35.4480   19.6160   32.8790 N   0  0  0  0  0  0  0  0  0  0  0  0
   36.5170   19.7230   32.0690 C   0  0  0  0  0  0  0  0  0  0  0  0
   37.3150   20.6680   32.5930 N   0  0  0  0  0  0  0  0  0  0  0  0
   43.4818   23.8592   35.7670 H   0  0  0  0  0  0  0  0  0  0  0  0
   41.0681   23.7051   35.3180 H   0  0  0  0  0  0  0  0  0  0  0  0
   41.1046   27.5863   33.5030 H   0  0  0  0  0  0  0  0  0  0  0  0
   43.5169   27.7462   33.9453 H   0  0  0  0  0  0  0  0  0  0  0  0
   47.5386   24.4437   39.2737 H   0  0  0  0  0  0  0  0  0  0  0  0
   44.0948   26.4610   37.9746 H   0  0  0  0  0  0  0  0  0  0  0  0
   45.3521   25.6028   40.1620 H   0  0  0  0  0  0  0  0  0  0  0  0
   38.9128   24.8524   36.8509 H   0  0  0  0  0  0  0  0  0  0  0  0
   37.8590   22.7928   37.8120 H   0  0  0  0  0  0  0  0  0  0  0  0
   34.8810   20.6403   34.7162 H   0  0  0  0  0  0  0  0  0  0  0  0
   36.7024   19.1457   31.1512 H   0  0  0  0  0  0  0  0  0  0  0  0
   38.2126   20.9634   32.1832 H   0  0  0  0  0  0  0  0  0  0  0  0
  1  7  1  0
  1  2  2  0
  3  2  1  0
  4  3  2  0
  5  6  2  0
  5  4  1  0
  6  1  1  0
  7 12  1  0
  8  7  2  0
  9  7  2  0
 10 14  1  0
 11 10  1  0
 12 11  2  0
 12 13  1  0
 13 14  2  0
 15  4  1  0
 15 16  1  0
 16 17  2  0
 17 18  1  0
 19 18  2  0
 20 19  1  0
 21 20  2  0
 21 16  1  0
 22 23  2  0
 22 20  1  0
 24 23  1  0
 25 26  1  0
 25 24  2  0
 26 22  1  0
  2 27  1  0
  3 28  1  0
  5 29  1  0
  6 30  1  0
 10 31  1  0
 13 32  1  0
 14 33  1  0
 17 34  1  0
 18 35  1  0
 23 36  1  0
 25 37  1  0
 26 38  1  0
M  ISO  8  27  14  28  14  29  14  30  14  31   9  32  14  33  14  34  14
M  ISO  4  35  14  36  14  37  14  38   9
M  END
>  <minimizedAffinity>  (1) 
-5.2718854

>  <minimizedRMSD>  (1) 
1.18440533

$$$$
