
     RDKit          3D

 34 36  0  0  0  0  0  0  0  0999 V2000
   43.6640   25.8220   34.8740 C   0  0  0  0  0  0  0  0  0  0  0  0
   42.9490   24.6930   35.2430 C   0  0  0  0  0  0  0  0  0  0  0  0
   41.6030   24.5920   34.9940 C   0  0  0  0  0  0  0  0  0  0  0  0
   40.9240   25.6300   34.3600 C   0  0  0  0  0  0  0  0  0  0  0  0
   41.5970   26.7490   33.9860 C   0  0  0  0  0  0  0  0  0  0  0  0
   42.9580   26.8320   34.2470 C   0  0  0  0  0  0  0  0  0  0  0  0
   45.3590   25.9320   35.1970 S   0  0  0  0  0  0  0  0  0  0  0  0
   46.0820   24.9550   34.3390 O   0  0  0  0  0  0  0  0  0  0  0  0
   45.8150   27.3440   34.8550 O   0  0  0  0  0  0  0  0  0  0  0  0
   46.7830   24.9060   38.6890 N   0  0  0  0  0  0  0  0  0  0  0  0
   46.8510   24.9590   37.3600 N   0  0  0  0  0  0  0  0  0  0  0  0
   45.7640   25.5940   36.8780 C   0  0  0  0  0  0  0  0  0  0  0  0
   45.0270   25.9290   37.9900 C   0  0  0  0  0  0  0  0  0  0  0  0
   45.6490   25.5080   39.1230 C   0  0  0  0  0  0  0  0  0  0  0  0
   39.1860   25.6420   33.9720 S   0  0  0  0  0  0  0  0  0  0  0  0
   38.4750   24.1970   34.7090 C   0  0  0  0  0  0  0  0  0  0  0  0
   38.5250   23.9450   36.1030 C   0  0  0  0  0  0  0  0  0  0  0  0
   37.9480   22.8010   36.5900 C   0  0  0  0  0  0  0  0  0  0  0  0
   37.3560   21.9620   35.7250 N   0  0  0  0  0  0  0  0  0  0  0  0
   37.3180   22.2200   34.3970 C   0  0  0  0  0  0  0  0  0  0  0  0
   37.8780   23.3330   33.9130 N   0  0  0  0  0  0  0  0  0  0  0  0
   36.6270   21.2050   33.5260 C   0  0  0  0  0  0  0  0  0  0  0  0
   35.8310   20.3770   34.3170 F   0  0  0  0  0  0  0  0  0  0  0  0
   37.5460   20.4210   32.8920 F   0  0  0  0  0  0  0  0  0  0  0  0
   35.8210   21.8950   32.6660 F   0  0  0  0  0  0  0  0  0  0  0  0
   43.4695   23.8636   35.7441 H   0  0  0  0  0  0  0  0  0  0  0  0
   41.0573   23.6862   35.2968 H   0  0  0  0  0  0  0  0  0  0  0  0
   41.0724   27.5757   33.4847 H   0  0  0  0  0  0  0  0  0  0  0  0
   43.4980   27.7405   33.9418 H   0  0  0  0  0  0  0  0  0  0  0  0
   47.4898   24.4706   39.2987 H   0  0  0  0  0  0  0  0  0  0  0  0
   44.0662   26.4641   37.9658 H   0  0  0  0  0  0  0  0  0  0  0  0
   45.3076   25.6291   40.1617 H   0  0  0  0  0  0  0  0  0  0  0  0
   39.0185   24.6555   36.7825 H   0  0  0  0  0  0  0  0  0  0  0  0
   37.9695   22.5752   37.6664 H   0  0  0  0  0  0  0  0  0  0  0  0
  1  7  1  0
  1  2  2  0
  3  2  1  0
  4  3  2  0
  5  6  2  0
  5  4  1  0
  6  1  1  0
  7 12  1  0
  8  7  2  0
  9  7  2  0
 10 14  1  0
 11 10  1  0
 12 11  2  0
 12 13  1  0
 13 14  2  0
 15  4  1  0
 15 16  1  0
 16 17  2  0
 17 18  1  0
 19 18  2  0
 20 19  1  0
 21 20  2  0
 21 16  1  0
 22 23  1  0
 22 20  1  0
 24 22  1  0
 25 22  1  0
  2 26  1  0
  3 27  1  0
  5 28  1  0
  6 29  1  0
 10 30  1  0
 13 31  1  0
 14 32  1  0
 17 33  1  0
 18 34  1  0
M  ISO  8  26  14  27  14  28  14  29  14  30   9  31  14  32  14  33  14
M  ISO  1  34  14
M  END
>  <minimizedAffinity>  (1) 
-5.11335468

>  <minimizedRMSD>  (1) 
1.12114358

$$$$
