
     RDKit          3D

 32 34  0  0  0  0  0  0  0  0999 V2000
   43.6250   25.2600   35.0330 C   0  0  0  0  0  0  0  0  0  0  0  0
   43.2500   23.9590   35.3530 C   0  0  0  0  0  0  0  0  0  0  0  0
   41.9840   23.5020   35.0860 C   0  0  0  0  0  0  0  0  0  0  0  0
   41.0420   24.3350   34.4860 C   0  0  0  0  0  0  0  0  0  0  0  0
   41.3780   25.6120   34.1610 C   0  0  0  0  0  0  0  0  0  0  0  0
   42.6580   26.0580   34.4360 C   0  0  0  0  0  0  0  0  0  0  0  0
   45.2210   25.8270   35.3720 S   0  0  0  0  0  0  0  0  0  0  0  0
   46.1830   25.1470   34.4590 O   0  0  0  0  0  0  0  0  0  0  0  0
   45.2610   27.3340   35.1220 O   0  0  0  0  0  0  0  0  0  0  0  0
   46.8330   24.8770   38.7940 N   0  0  0  0  0  0  0  0  0  0  0  0
   46.8270   24.9000   37.4760 N   0  0  0  0  0  0  0  0  0  0  0  0
   45.7080   25.5300   37.0370 C   0  0  0  0  0  0  0  0  0  0  0  0
   45.0330   25.8900   38.1830 C   0  0  0  0  0  0  0  0  0  0  0  0
   45.7310   25.4840   39.2830 C   0  0  0  0  0  0  0  0  0  0  0  0
   39.3620   23.8850   34.0790 S   0  0  0  0  0  0  0  0  0  0  0  0
   38.5320   23.5560   35.6230 C   0  0  0  0  0  0  0  0  0  0  0  0
   38.8790   24.2390   36.8180 C   0  0  0  0  0  0  0  0  0  0  0  0
   38.1710   23.9050   37.9600 C   0  0  0  0  0  0  0  0  0  0  0  0
   37.2040   22.9710   37.9000 N   0  0  0  0  0  0  0  0  0  0  0  0
   36.9040   22.3440   36.7390 C   0  0  0  0  0  0  0  0  0  0  0  0
   37.5700   22.6430   35.6210 N   0  0  0  0  0  0  0  0  0  0  0  0
   35.6090   21.1040   36.7030 S   0  0  0  0  0  0  0  0  0  0  0  0
   43.9797   23.2863   35.8274 H   0  0  0  0  0  0  0  0  0  0  0  0
   41.7105   22.4692   35.3479 H   0  0  0  0  0  0  0  0  0  0  0  0
   40.6435   26.2796   33.6869 H   0  0  0  0  0  0  0  0  0  0  0  0
   42.9221   27.0921   34.1696 H   0  0  0  0  0  0  0  0  0  0  0  0
   47.5750   24.4548   39.3702 H   0  0  0  0  0  0  0  0  0  0  0  0
   44.0727   26.4259   38.2075 H   0  0  0  0  0  0  0  0  0  0  0  0
   45.4554   25.6215   40.3390 H   0  0  0  0  0  0  0  0  0  0  0  0
   39.6741   24.9989   36.8359 H   0  0  0  0  0  0  0  0  0  0  0  0
   38.3985   24.4021   38.9145 H   0  0  0  0  0  0  0  0  0  0  0  0
   35.2605   20.7703   37.9852 H   0  0  0  0  0  0  0  0  0  0  0  0
  1  2  2  0
  1  7  1  0
  3  2  1  0
  4  3  2  0
  5  6  2  0
  5  4  1  0
  6  1  1  0
  7 12  1  0
  8  7  2  0
  9  7  2  0
 10 14  1  0
 11 10  1  0
 12 11  2  0
 12 13  1  0
 13 14  2  0
 15  4  1  0
 15 16  1  0
 16 17  2  0
 17 18  1  0
 19 18  2  0
 20 19  1  0
 21 16  1  0
 21 20  2  0
 22 20  1  0
  2 23  1  0
  3 24  1  0
  5 25  1  0
  6 26  1  0
 10 27  1  0
 13 28  1  0
 14 29  1  0
 17 30  1  0
 18 31  1  0
 22 32  1  0
M  ISO  8  23  14  24  14  25  14  26  14  27   9  28  14  29  14  30  14
M  ISO  2  31  14  32  11
M  END
>  <minimizedAffinity>  (1) 
-4.57220554

>  <minimizedRMSD>  (1) 
0.859169662

$$$$
