
     RDKit          3D

 37 39  0  0  0  0  0  0  0  0999 V2000
   39.4200   25.4050   34.5560 N   0  0  0  0  0  0  0  0  0  0  0  0
   40.5940   26.0460   34.5440 C   0  0  0  0  0  0  0  0  0  0  0  0
   40.9390   26.7910   33.4140 C   0  0  0  0  0  0  0  0  0  0  0  0
   40.0700   26.8470   32.3520 C   0  0  0  0  0  0  0  0  0  0  0  0
   40.3140   27.4980   31.3000 O   0  0  0  0  0  0  0  0  0  0  0  0
   38.8960   26.1930   32.3900 N   0  0  0  0  0  0  0  0  0  0  0  0
   38.5880   25.4820   33.4910 C   0  0  0  0  0  0  0  0  0  0  0  0
   37.4960   24.8710   33.5340 O   0  0  0  0  0  0  0  0  0  0  0  0
   38.2310   25.2230   36.6440 C   0  0  0  0  0  0  0  0  0  0  0  0
   39.1520   24.6810   35.7250 C   0  0  0  0  0  0  0  0  0  0  0  0
   39.7290   23.4640   36.0450 C   0  0  0  0  0  0  0  0  0  0  0  0
   39.3720   22.8620   37.2310 N   0  0  0  0  0  0  0  0  0  0  0  0
   38.5020   23.3990   38.0740 C   0  0  0  0  0  0  0  0  0  0  0  0
   37.9290   24.5860   37.7770 N   0  0  0  0  0  0  0  0  0  0  0  0
   38.3210   22.5640   39.2140 N   0  0  0  0  0  0  0  0  0  0  0  0
   42.2480   27.5360   33.3130 C   0  0  0  0  0  0  0  0  0  0  0  0
   43.2690   26.5980   33.6620 N   0  0  0  0  0  0  0  0  0  0  0  0
   43.7080   25.7370   32.6050 C   0  0  0  0  0  0  0  0  0  0  0  0
   44.8710   25.0210   33.2720 C   0  0  0  0  0  0  0  0  0  0  0  0
   45.5790   26.1730   33.9610 C   0  0  0  0  0  0  0  0  0  0  0  0
   44.4540   27.1800   34.2130 C   0  0  0  0  0  0  0  0  0  0  0  0
   41.2740   25.9876   35.4067 H   0  0  0  0  0  0  0  0  0  0  0  0
   38.2452   26.2351   31.5927 H   0  0  0  0  0  0  0  0  0  0  0  0
   37.7525   26.1886   36.4233 H   0  0  0  0  0  0  0  0  0  0  0  0
   40.4549   22.9894   35.3684 H   0  0  0  0  0  0  0  0  0  0  0  0
   37.6722   22.8473   39.9621 H   0  0  0  0  0  0  0  0  0  0  0  0
   38.8390   21.6770   39.2901 H   0  0  0  0  0  0  0  0  0  0  0  0
   42.4006   27.9014   32.2867 H   0  0  0  0  0  0  0  0  0  0  0  0
   42.2633   28.4113   33.9790 H   0  0  0  0  0  0  0  0  0  0  0  0
   44.0384   26.3121   31.7274 H   0  0  0  0  0  0  0  0  0  0  0  0
   42.9281   25.0662   32.2155 H   0  0  0  0  0  0  0  0  0  0  0  0
   44.5195   24.2731   33.9981 H   0  0  0  0  0  0  0  0  0  0  0  0
   45.5076   24.4543   32.5766 H   0  0  0  0  0  0  0  0  0  0  0  0
   46.0340   25.8459   34.9076 H   0  0  0  0  0  0  0  0  0  0  0  0
   46.4031   26.5900   33.3635 H   0  0  0  0  0  0  0  0  0  0  0  0
   44.6776   28.1347   33.7145 H   0  0  0  0  0  0  0  0  0  0  0  0
   44.3364   27.3905   35.2862 H   0  0  0  0  0  0  0  0  0  0  0  0
  1 10  1  0
  2  1  1  0
  3  2  2  0
  4  6  1  0
  4  3  1  0
  5  4  2  0
  6  7  1  0
  7  8  2  0
  7  1  1  0
  9 14  2  0
 10 11  2  0
 10  9  1  0
 11 12  1  0
 12 13  2  0
 13 15  1  0
 14 13  1  0
 16  3  1  0
 16 17  1  0
 17 21  1  0
 18 19  1  0
 18 17  1  0
 19 20  1  0
 20 21  1  0
  2 22  1  0
  6 23  1  0
  9 24  1  0
 11 25  1  0
 15 26  1  0
 15 27  1  0
 16 28  1  0
 16 29  1  0
 18 30  1  0
 18 31  1  0
 19 32  1  0
 19 33  1  0
 20 34  1  0
 20 35  1  0
 21 36  1  0
 21 37  1  0
M  ISO  8  22  14  23   9  24  14  25  14  28   8  29   8  30  13  31  13
M  ISO  6  32  13  33  13  34  13  35  13  36  13  37  13
M  END
>  <minimizedAffinity>  (1) 
-4.4019165

>  <minimizedRMSD>  (1) 
1.39767146

$$$$
