
     RDKit          3D

 33 36  0  0  0  0  0  0  0  0999 V2000
   39.8250   22.5240   36.7620 C   0  0  0  0  0  0  0  0  0  0  0  0
   39.2340   23.1500   37.8990 C   0  0  0  0  0  0  0  0  0  0  0  0
   37.8350   23.2840   37.8870 C   0  0  0  0  0  0  0  0  0  0  0  0
   37.1370   22.8210   36.8210 N   0  0  0  0  0  0  0  0  0  0  0  0
   37.7320   22.2320   35.7610 C   0  0  0  0  0  0  0  0  0  0  0  0
   39.0750   22.0950   35.7530 N   0  0  0  0  0  0  0  0  0  0  0  0
   41.2360   22.3480   36.6910 N   0  0  0  0  0  0  0  0  0  0  0  0
   41.9270   21.2700   37.1550 C   0  0  0  0  0  0  0  0  0  0  0  0
   43.2410   21.5050   36.8890 N   0  0  0  0  0  0  0  0  0  0  0  0
   43.3330   22.6770   36.2890 C   0  0  0  0  0  0  0  0  0  0  0  0
   44.3650   23.4530   35.7820 C   0  0  0  0  0  0  0  0  0  0  0  0
   44.1640   24.6650   35.1970 N   0  0  0  0  0  0  0  0  0  0  0  0
   42.8920   25.1560   35.0930 C   0  0  0  0  0  0  0  0  0  0  0  0
   41.8540   24.4450   35.5680 N   0  0  0  0  0  0  0  0  0  0  0  0
   42.0850   23.2540   36.1400 C   0  0  0  0  0  0  0  0  0  0  0  0
   45.6990   22.9770   35.8700 N   0  0  0  0  0  0  0  0  0  0  0  0
   36.9860   21.7330   34.6120 C   0  0  0  0  0  0  0  0  0  0  0  0
   36.0170   20.7650   34.8090 C   0  0  0  0  0  0  0  0  0  0  0  0
   35.3310   20.3210   33.6740 C   0  0  0  0  0  0  0  0  0  0  0  0
   35.5900   20.8100   32.4150 C   0  0  0  0  0  0  0  0  0  0  0  0
   36.5490   21.7680   32.2210 C   0  0  0  0  0  0  0  0  0  0  0  0
   37.2160   22.1970   33.3360 C   0  0  0  0  0  0  0  0  0  0  0  0
   39.8420   23.5096   38.7422 H   0  0  0  0  0  0  0  0  0  0  0  0
   37.3133   23.7583   38.7313 H   0  0  0  0  0  0  0  0  0  0  0  0
   41.5052   20.3821   37.6487 H   0  0  0  0  0  0  0  0  0  0  0  0
   42.7176   26.1338   34.6202 H   0  0  0  0  0  0  0  0  0  0  0  0
   46.4738   23.5441   35.4972 H   0  0  0  0  0  0  0  0  0  0  0  0
   45.8924   22.0644   36.3067 H   0  0  0  0  0  0  0  0  0  0  0  0
   35.7970   20.3643   35.8095 H   0  0  0  0  0  0  0  0  0  0  0  0
   34.5544   19.5511   33.7929 H   0  0  0  0  0  0  0  0  0  0  0  0
   35.0209   20.4276   31.5549 H   0  0  0  0  0  0  0  0  0  0  0  0
   36.7713   22.1712   31.2220 H   0  0  0  0  0  0  0  0  0  0  0  0
   37.9906   22.9668   33.2038 H   0  0  0  0  0  0  0  0  0  0  0  0
  1  2  2  0
  3  2  1  0
  4  3  2  0
  5  4  1  0
  6  5  2  0
  6  1  1  0
  7  1  1  0
  7  8  1  0
  9  8  2  0
 10  9  1  0
 11 16  1  0
 11 10  2  0
 12 11  1  0
 13 12  2  0
 13 14  1  0
 14 15  2  0
 15 10  1  0
 15  7  1  0
 17 18  2  0
 17  5  1  0
 19 18  1  0
 20 19  2  0
 21 20  1  0
 21 22  2  0
 22 17  1  0
  2 23  1  0
  3 24  1  0
  8 25  1  0
 13 26  1  0
 16 27  1  0
 16 28  1  0
 18 29  1  0
 19 30  1  0
 20 31  1  0
 21 32  1  0
 22 33  1  0
M  ISO  8  23  14  24  14  25  14  26  14  29  14  30  14  31  14  32  14
M  ISO  1  33  14
M  END
>  <minimizedAffinity>  (1) 
-5.3917613

>  <minimizedRMSD>  (1) 
1.38818681

$$$$
