
     RDKit          3D

 29 32  0  0  0  0  0  0  0  0999 V2000
   41.1400   22.4910   36.6250 N   0  0  0  0  0  0  0  0  0  0  0  0
   41.9190   21.4810   37.1060 C   0  0  0  0  0  0  0  0  0  0  0  0
   43.2070   21.7980   36.7920 N   0  0  0  0  0  0  0  0  0  0  0  0
   43.1980   22.9560   36.1460 C   0  0  0  0  0  0  0  0  0  0  0  0
   44.1760   23.7740   35.5850 C   0  0  0  0  0  0  0  0  0  0  0  0
   43.8620   24.9570   34.9590 N   0  0  0  0  0  0  0  0  0  0  0  0
   42.5660   25.3490   34.8770 C   0  0  0  0  0  0  0  0  0  0  0  0
   41.5900   24.5820   35.4090 N   0  0  0  0  0  0  0  0  0  0  0  0
   41.9190   23.4330   36.0150 C   0  0  0  0  0  0  0  0  0  0  0  0
   39.7270   22.5740   36.7280 C   0  0  0  0  0  0  0  0  0  0  0  0
   39.1150   23.2330   37.8280 C   0  0  0  0  0  0  0  0  0  0  0  0
   37.7230   23.2850   37.8810 C   0  0  0  0  0  0  0  0  0  0  0  0
   37.0290   22.7020   36.8740 N   0  0  0  0  0  0  0  0  0  0  0  0
   37.6330   22.0810   35.8380 C   0  0  0  0  0  0  0  0  0  0  0  0
   38.9920   22.0100   35.7550 N   0  0  0  0  0  0  0  0  0  0  0  0
   36.7870   21.5090   34.8480 N   0  0  0  0  0  0  0  0  0  0  0  0
   35.6920   20.7500   34.7680 C   0  0  0  0  0  0  0  0  0  0  0  0
   35.3630   20.5420   33.4820 N   0  0  0  0  0  0  0  0  0  0  0  0
   36.2820   21.1900   32.7490 C   0  0  0  0  0  0  0  0  0  0  0  0
   37.1460   21.7780   33.5960 N   0  0  0  0  0  0  0  0  0  0  0  0
   45.5320   23.3950   35.6540 N   0  0  0  0  0  0  0  0  0  0  0  0
   41.5751   20.5847   37.6430 H   0  0  0  0  0  0  0  0  0  0  0  0
   42.3093   26.2940   34.3759 H   0  0  0  0  0  0  0  0  0  0  0  0
   39.7257   23.6917   38.6197 H   0  0  0  0  0  0  0  0  0  0  0  0
   37.2048   23.7833   38.7135 H   0  0  0  0  0  0  0  0  0  0  0  0
   35.1383   20.3519   35.6311 H   0  0  0  0  0  0  0  0  0  0  0  0
   36.3216   21.2327   31.6505 H   0  0  0  0  0  0  0  0  0  0  0  0
   46.2570   23.9981   35.2399 H   0  0  0  0  0  0  0  0  0  0  0  0
   45.7978   22.5149   36.1185 H   0  0  0  0  0  0  0  0  0  0  0  0
  1 10  1  0
  1  2  1  0
  3  2  2  0
  4  3  1  0
  5 21  1  0
  5  4  2  0
  6  5  1  0
  7  6  2  0
  7  8  1  0
  8  9  2  0
  9  4  1  0
  9  1  1  0
 10 11  2  0
 11 12  1  0
 13 12  2  0
 14 13  1  0
 15 14  2  0
 15 10  1  0
 16 14  1  0
 17 16  1  0
 18 17  2  0
 19 18  1  0
 19 20  2  0
 20 16  1  0
  2 22  1  0
  7 23  1  0
 11 24  1  0
 12 25  1  0
 17 26  1  0
 19 27  1  0
 21 28  1  0
 21 29  1  0
M  ISO  6  22  14  23  14  24  14  25  14  26  14  27  14
M  END
>  <minimizedAffinity>  (1) 
-5.18033218

>  <minimizedRMSD>  (1) 
1.09408009

$$$$
