
     RDKit          3D

 36 39  0  0  0  0  0  0  0  0999 V2000
   39.6260   23.4760   35.4700 C   0  0  0  0  0  0  0  0  0  0  0  0
   38.8850   23.4780   36.6670 C   0  0  0  0  0  0  0  0  0  0  0  0
   37.7100   22.7360   36.7260 C   0  0  0  0  0  0  0  0  0  0  0  0
   37.3370   22.0470   35.6280 N   0  0  0  0  0  0  0  0  0  0  0  0
   38.0700   22.0570   34.4790 C   0  0  0  0  0  0  0  0  0  0  0  0
   39.2200   22.7720   34.3940 N   0  0  0  0  0  0  0  0  0  0  0  0
   40.8460   24.2170   35.3430 N   0  0  0  0  0  0  0  0  0  0  0  0
   42.0360   23.8840   35.8910 C   0  0  0  0  0  0  0  0  0  0  0  0
   42.9180   24.8510   35.5250 N   0  0  0  0  0  0  0  0  0  0  0  0
   42.2730   25.7460   34.7730 C   0  0  0  0  0  0  0  0  0  0  0  0
   42.6060   26.9120   34.1240 C   0  0  0  0  0  0  0  0  0  0  0  0
   41.7050   27.6440   33.4040 N   0  0  0  0  0  0  0  0  0  0  0  0
   40.4180   27.2090   33.3170 C   0  0  0  0  0  0  0  0  0  0  0  0
   40.0300   26.0660   33.9350 N   0  0  0  0  0  0  0  0  0  0  0  0
   40.9440   25.3770   34.6320 C   0  0  0  0  0  0  0  0  0  0  0  0
   43.9410   27.4000   34.1900 N   0  0  0  0  0  0  0  0  0  0  0  0
   36.9270   19.8200   31.0560 C   0  0  0  0  0  0  0  0  0  0  0  0
   38.2690   20.0720   31.2990 C   0  0  0  0  0  0  0  0  0  0  0  0
   38.5600   20.8050   32.4300 C   0  0  0  0  0  0  0  0  0  0  0  0
   37.6230   21.2940   33.3190 C   0  0  0  0  0  0  0  0  0  0  0  0
   36.3180   21.0190   33.0340 C   0  0  0  0  0  0  0  0  0  0  0  0
   35.9440   20.2820   31.9070 C   0  0  0  0  0  0  0  0  0  0  0  0
   36.6020   18.8820   29.6020 S   0  0  0  0  0  0  0  0  0  0  0  0
   36.7660   17.4100   29.8740 O   0  0  0  0  0  0  0  0  0  0  0  0
   37.5670   19.2410   28.4960 O   0  0  0  0  0  0  0  0  0  0  0  0
   39.2284   24.0549   37.5383 H   0  0  0  0  0  0  0  0  0  0  0  0
   37.1020   22.7118   37.6424 H   0  0  0  0  0  0  0  0  0  0  0  0
   42.2491   23.0017   36.5124 H   0  0  0  0  0  0  0  0  0  0  0  0
   39.6849   27.7909   32.7392 H   0  0  0  0  0  0  0  0  0  0  0  0
   44.1948   28.2728   33.7055 H   0  0  0  0  0  0  0  0  0  0  0  0
   44.6535   26.8805   34.7223 H   0  0  0  0  0  0  0  0  0  0  0  0
   39.0586   19.7068   30.6258 H   0  0  0  0  0  0  0  0  0  0  0  0
   39.6188   21.0163   32.6402 H   0  0  0  0  0  0  0  0  0  0  0  0
   35.5352   21.3889   33.7125 H   0  0  0  0  0  0  0  0  0  0  0  0
   34.8836   20.0737   31.7018 H   0  0  0  0  0  0  0  0  0  0  0  0
   35.3167   19.1676   29.2234 H   0  0  0  0  0  0  0  0  0  0  0  0
  1  2  2  0
  2  3  1  0
  4  3  2  0
  5  4  1  0
  6  5  2  0
  6  1  1  0
  7  1  1  0
  7  8  1  0
  9  8  2  0
 10  9  1  0
 11 16  1  0
 11 10  2  0
 12 11  1  0
 13 12  2  0
 13 14  1  0
 14 15  2  0
 15 10  1  0
 15  7  1  0
 17 18  2  0
 17 22  1  0
 18 19  1  0
 19 20  2  0
 20  5  1  0
 21 20  1  0
 22 21  2  0
 23 24  2  0
 23 17  1  0
 25 23  2  0
  2 26  1  0
  3 27  1  0
  8 28  1  0
 13 29  1  0
 16 30  1  0
 16 31  1  0
 18 32  1  0
 19 33  1  0
 21 34  1  0
 22 35  1  0
 23 36  1  0
M  ISO  8  26  14  27  14  28  14  29  14  32  14  33  14  34  14  35  14
M  ISO  1  36  11
M  END
>  <minimizedAffinity>  (1) 
-5.08246469

>  <minimizedRMSD>  (1) 
1.94896626

$$$$
