
     RDKit          3D

 35 39  0  0  0  0  0  0  0  0999 V2000
   39.7340   22.5380   36.8120 C   0  0  0  0  0  0  0  0  0  0  0  0
   39.1560   23.2470   37.8770 C   0  0  0  0  0  0  0  0  0  0  0  0
   37.7590   23.3550   37.8960 C   0  0  0  0  0  0  0  0  0  0  0  0
   37.0440   22.7840   36.9100 N   0  0  0  0  0  0  0  0  0  0  0  0
   37.6210   22.1010   35.8880 C   0  0  0  0  0  0  0  0  0  0  0  0
   38.9610   21.9920   35.8620 N   0  0  0  0  0  0  0  0  0  0  0  0
   41.1450   22.3700   36.7000 N   0  0  0  0  0  0  0  0  0  0  0  0
   41.8590   21.3230   37.1650 C   0  0  0  0  0  0  0  0  0  0  0  0
   43.1540   21.5660   36.8470 N   0  0  0  0  0  0  0  0  0  0  0  0
   43.2190   22.7330   36.2030 C   0  0  0  0  0  0  0  0  0  0  0  0
   44.2310   23.4860   35.6490 C   0  0  0  0  0  0  0  0  0  0  0  0
   43.9790   24.6890   35.0320 N   0  0  0  0  0  0  0  0  0  0  0  0
   42.7090   25.1630   34.9590 C   0  0  0  0  0  0  0  0  0  0  0  0
   41.7020   24.4460   35.4930 N   0  0  0  0  0  0  0  0  0  0  0  0
   41.9620   23.2750   36.0900 C   0  0  0  0  0  0  0  0  0  0  0  0
   45.5720   23.0330   35.7000 N   0  0  0  0  0  0  0  0  0  0  0  0
   36.8820   21.5130   34.8710 O   0  0  0  0  0  0  0  0  0  0  0  0
   36.2960   20.2390   30.4820 N   0  0  0  0  0  0  0  0  0  0  0  0
   35.9170   19.2600   31.3490 C   0  0  0  0  0  0  0  0  0  0  0  0
   36.1110   19.6880   32.6250 N   0  0  0  0  0  0  0  0  0  0  0  0
   36.6190   20.9530   32.5770 C   0  0  0  0  0  0  0  0  0  0  0  0
   37.0030   21.8680   33.5370 C   0  0  0  0  0  0  0  0  0  0  0  0
   37.4780   23.0670   33.1090 N   0  0  0  0  0  0  0  0  0  0  0  0
   37.5760   23.3660   31.7930 C   0  0  0  0  0  0  0  0  0  0  0  0
   37.2030   22.4780   30.8660 N   0  0  0  0  0  0  0  0  0  0  0  0
   36.7270   21.2770   31.2400 C   0  0  0  0  0  0  0  0  0  0  0  0
   39.7752   23.6998   38.6653 H   0  0  0  0  0  0  0  0  0  0  0  0
   37.2535   23.8998   38.7069 H   0  0  0  0  0  0  0  0  0  0  0  0
   41.4666   20.4443   37.6979 H   0  0  0  0  0  0  0  0  0  0  0  0
   42.5041   26.1255   34.4674 H   0  0  0  0  0  0  0  0  0  0  0  0
   46.3237   23.6010   35.2838 H   0  0  0  0  0  0  0  0  0  0  0  0
   45.7955   22.1355   36.1533 H   0  0  0  0  0  0  0  0  0  0  0  0
   36.2620   20.1989   29.4533 H   0  0  0  0  0  0  0  0  0  0  0  0
   35.5165   18.2765   31.0621 H   0  0  0  0  0  0  0  0  0  0  0  0
   37.9655   24.3471   31.4836 H   0  0  0  0  0  0  0  0  0  0  0  0
  1  2  2  0
  2  3  1  0
  4  3  2  0
  5  4  1  0
  6  5  2  0
  6  1  1  0
  7  1  1  0
  7  8  1  0
  9  8  2  0
 10  9  1  0
 11 16  1  0
 11 10  2  0
 12 11  1  0
 13 12  2  0
 13 14  1  0
 14 15  2  0
 15 10  1  0
 15  7  1  0
 17  5  1  0
 18 26  1  0
 18 19  1  0
 19 20  2  0
 21 20  1  0
 21 22  2  0
 22 17  1  0
 23 22  1  0
 24 23  2  0
 25 26  2  0
 25 24  1  0
 26 21  1  0
  2 27  1  0
  3 28  1  0
  8 29  1  0
 13 30  1  0
 16 31  1  0
 16 32  1  0
 18 33  1  0
 19 34  1  0
 24 35  1  0
M  ISO  7  27  14  28  14  29  14  30  14  33   9  34  14  35  14
M  END
>  <minimizedAffinity>  (1) 
-5.49676704

>  <minimizedRMSD>  (1) 
1.58883691

$$$$
