
     RDKit          3D

 37 40  0  0  0  0  0  0  0  0999 V2000
   41.3440   23.5130   35.9700 N   0  0  0  0  0  0  0  0  0  0  0  0
   42.3660   22.8670   36.5950 C   0  0  0  0  0  0  0  0  0  0  0  0
   43.4900   23.5770   36.3220 N   0  0  0  0  0  0  0  0  0  0  0  0
   43.1550   24.6220   35.5550 C   0  0  0  0  0  0  0  0  0  0  0  0
   43.8430   25.6530   34.9860 C   0  0  0  0  0  0  0  0  0  0  0  0
   43.2110   26.6100   34.2240 N   0  0  0  0  0  0  0  0  0  0  0  0
   41.8670   26.5360   34.0250 C   0  0  0  0  0  0  0  0  0  0  0  0
   41.1670   25.5240   34.5790 N   0  0  0  0  0  0  0  0  0  0  0  0
   41.8020   24.6100   35.3140 C   0  0  0  0  0  0  0  0  0  0  0  0
   45.2440   25.7820   35.1580 N   0  0  0  0  0  0  0  0  0  0  0  0
   39.9670   23.1170   35.9830 C   0  0  0  0  0  0  0  0  0  0  0  0
   39.1160   23.4540   37.0600 C   0  0  0  0  0  0  0  0  0  0  0  0
   37.7960   23.0250   36.9830 C   0  0  0  0  0  0  0  0  0  0  0  0
   37.3880   22.3150   35.8990 N   0  0  0  0  0  0  0  0  0  0  0  0
   38.2350   22.0060   34.8750 C   0  0  0  0  0  0  0  0  0  0  0  0
   39.5200   22.4120   34.9310 N   0  0  0  0  0  0  0  0  0  0  0  0
   37.8290   21.2810   33.7660 O   0  0  0  0  0  0  0  0  0  0  0  0
   36.5130   21.5650   33.3070 C   0  0  0  0  0  0  0  0  0  0  0  0
   36.6110   21.9530   31.8380 C   0  0  0  0  0  0  0  0  0  0  0  0
   35.3540   21.4090   31.1970 C   0  0  0  0  0  0  0  0  0  0  0  0
   34.8120   20.3550   32.1090 C   0  0  0  0  0  0  0  0  0  0  0  0
   35.6110   20.3790   33.3760 C   0  0  0  0  0  0  0  0  0  0  0  0
   42.2951   21.9516   37.2008 H   0  0  0  0  0  0  0  0  0  0  0  0
   41.3546   27.2959   33.4167 H   0  0  0  0  0  0  0  0  0  0  0  0
   45.7464   26.5675   34.7205 H   0  0  0  0  0  0  0  0  0  0  0  0
   45.7597   25.0902   35.7205 H   0  0  0  0  0  0  0  0  0  0  0  0
   39.4824   24.0309   37.9219 H   0  0  0  0  0  0  0  0  0  0  0  0
   37.0884   23.2582   37.7923 H   0  0  0  0  0  0  0  0  0  0  0  0
   36.1000   22.3590   33.9465 H   0  0  0  0  0  0  0  0  0  0  0  0
   36.6560   23.0468   31.7305 H   0  0  0  0  0  0  0  0  0  0  0  0
   37.5194   21.5493   31.3669 H   0  0  0  0  0  0  0  0  0  0  0  0
   34.6158   22.2149   31.0719 H   0  0  0  0  0  0  0  0  0  0  0  0
   35.5725   20.9905   30.2035 H   0  0  0  0  0  0  0  0  0  0  0  0
   33.7547   20.5621   32.3311 H   0  0  0  0  0  0  0  0  0  0  0  0
   34.8831   19.3660   31.6327 H   0  0  0  0  0  0  0  0  0  0  0  0
   36.2058   19.4579   33.4638 H   0  0  0  0  0  0  0  0  0  0  0  0
   34.9500   20.4420   34.2530 H   0  0  0  0  0  0  0  0  0  0  0  0
  1 11  1  0
  1  2  1  0
  3  2  2  0
  4  3  1  0
  5 10  1  0
  5  4  2  0
  6  5  1  0
  7  6  2  0
  7  8  1  0
  8  9  2  0
  9  4  1  0
  9  1  1  0
 11 12  2  0
 13 12  1  0
 14 13  2  0
 15 16  2  0
 15 14  1  0
 16 11  1  0
 17 15  1  0
 18 22  1  0
 18 17  1  0
 19 18  1  0
 20 19  1  0
 20 21  1  0
 21 22  1  0
  2 23  1  0
  7 24  1  0
 10 25  1  0
 10 26  1  0
 12 27  1  0
 13 28  1  0
 18 29  1  0
 19 30  1  0
 19 31  1  0
 20 32  1  0
 20 33  1  0
 21 34  1  0
 21 35  1  0
 22 36  1  0
 22 37  1  0
M  ISO  8  23  14  24  14  27  14  28  14  29  13  30  13  31  13  32  13
M  ISO  5  33  13  34  13  35  13  36  13  37  13
M  END
>  <minimizedAffinity>  (1) 
-4.97947264

>  <minimizedRMSD>  (1) 
2.07813358

$$$$
