
     RDKit          3D

 26 27  0  0  0  0  0  0  0  0999 V2000
   39.3050   25.2510   34.4400 N   0  0  0  0  0  0  0  0  0  0  0  0
   40.3930   26.0340   34.4230 C   0  0  0  0  0  0  0  0  0  0  0  0
   40.7010   26.7450   33.2670 C   0  0  0  0  0  0  0  0  0  0  0  0
   39.8650   26.6150   32.1600 C   0  0  0  0  0  0  0  0  0  0  0  0
   40.0730   27.2150   31.0880 O   0  0  0  0  0  0  0  0  0  0  0  0
   38.7810   25.8210   32.2090 N   0  0  0  0  0  0  0  0  0  0  0  0
   38.5210   25.1550   33.3450 C   0  0  0  0  0  0  0  0  0  0  0  0
   37.5080   24.4150   33.3950 O   0  0  0  0  0  0  0  0  0  0  0  0
   38.1820   25.1260   36.5600 C   0  0  0  0  0  0  0  0  0  0  0  0
   39.0800   24.5640   35.6550 C   0  0  0  0  0  0  0  0  0  0  0  0
   39.6930   23.3680   35.9920 C   0  0  0  0  0  0  0  0  0  0  0  0
   39.3860   22.7960   37.1990 N   0  0  0  0  0  0  0  0  0  0  0  0
   38.5210   23.3550   38.0510 C   0  0  0  0  0  0  0  0  0  0  0  0
   37.9180   24.5260   37.7240 N   0  0  0  0  0  0  0  0  0  0  0  0
   38.3570   22.5770   39.2260 N   0  0  0  0  0  0  0  0  0  0  0  0
   41.8820   27.6530   33.1510 C   0  0  0  0  0  0  0  0  0  0  0  0
   43.2940   26.7000   33.7820 S   0  0  0  0  0  0  0  0  0  0  0  0
   41.0350   26.1136   35.3127 H   0  0  0  0  0  0  0  0  0  0  0  0
   38.1624   25.7257   31.3910 H   0  0  0  0  0  0  0  0  0  0  0  0
   37.6843   26.0754   36.3130 H   0  0  0  0  0  0  0  0  0  0  0  0
   40.4087   22.8892   35.3074 H   0  0  0  0  0  0  0  0  0  0  0  0
   37.7167   22.8936   39.9681 H   0  0  0  0  0  0  0  0  0  0  0  0
   38.8782   21.6956   39.3370 H   0  0  0  0  0  0  0  0  0  0  0  0
   42.0477   27.9353   32.1008 H   0  0  0  0  0  0  0  0  0  0  0  0
   41.7355   28.5858   33.7153 H   0  0  0  0  0  0  0  0  0  0  0  0
   43.2771   26.7114   35.1518 H   0  0  0  0  0  0  0  0  0  0  0  0
  1 10  1  0
  2  1  1  0
  3  2  2  0
  4  6  1  0
  4  3  1  0
  5  4  2  0
  6  7  1  0
  7  8  2  0
  7  1  1  0
  9 14  2  0
 10 11  2  0
 10  9  1  0
 11 12  1  0
 12 13  2  0
 13 15  1  0
 14 13  1  0
 16  3  1  0
 16 17  1  0
  2 18  1  0
  6 19  1  0
  9 20  1  0
 11 21  1  0
 15 22  1  0
 15 23  1  0
 16 24  1  0
 16 25  1  0
 17 26  1  0
M  ISO  7  18  14  19   9  20  14  21  14  24   8  25   8  26  11
M  END
>  <minimizedAffinity>  (1) 
-4.19236517

>  <minimizedRMSD>  (1) 
0.533479452

$$$$
