
     RDKit          3D

 36 39  0  0  1  0  0  0  0  0999 V2000
   40.0710   23.1410   35.8860 C   0  0  0  0  0  0  0  0  0  0  0  0
   39.1680   23.4560   36.9080 C   0  0  0  0  0  0  0  0  0  0  0  0
   37.8550   23.0100   36.7790 C   0  0  0  0  0  0  0  0  0  0  0  0
   37.5090   22.2980   35.6880 N   0  0  0  0  0  0  0  0  0  0  0  0
   38.3990   21.9970   34.6990 C   0  0  0  0  0  0  0  0  0  0  0  0
   39.6680   22.4260   34.8170 N   0  0  0  0  0  0  0  0  0  0  0  0
   41.4400   23.5550   35.9300 N   0  0  0  0  0  0  0  0  0  0  0  0
   42.4320   22.9210   36.6110 C   0  0  0  0  0  0  0  0  0  0  0  0
   43.5620   23.6380   36.3890 N   0  0  0  0  0  0  0  0  0  0  0  0
   43.2610   24.6700   35.6000 C   0  0  0  0  0  0  0  0  0  0  0  0
   43.9490   25.7190   35.0400 C   0  0  0  0  0  0  0  0  0  0  0  0
   43.3390   26.6610   34.2380 N   0  0  0  0  0  0  0  0  0  0  0  0
   42.0090   26.5670   33.9810 C   0  0  0  0  0  0  0  0  0  0  0  0
   41.3000   25.5470   34.5160 N   0  0  0  0  0  0  0  0  0  0  0  0
   41.9220   24.6410   35.2950 C   0  0  0  0  0  0  0  0  0  0  0  0
   45.3440   25.8640   35.2770 N   0  0  0  0  0  0  0  0  0  0  0  0
   38.0630   21.2640   33.5620 O   0  0  0  0  0  0  0  0  0  0  0  0
   36.7690   21.8690   31.6470 N   0  0  0  0  0  0  0  0  0  0  0  0
   35.4750   21.5210   31.1310 C   0  0  0  0  0  0  0  0  0  0  0  0
   34.7420   20.7680   32.2160 C   0  0  0  0  0  0  0  0  0  0  0  0
   35.9160   20.2580   33.0540 C   0  0  0  0  0  0  0  0  0  0  0  0
   36.7910   21.5040   33.0290 C   0  0  1  0  0  0  0  0  0  0  0  0
   39.4856   24.0378   37.7859 H   0  0  0  0  0  0  0  0  0  0  0  0
   37.1105   23.2357   37.5567 H   0  0  0  0  0  0  0  0  0  0  0  0
   42.3371   22.0097   37.2197 H   0  0  0  0  0  0  0  0  0  0  0  0
   41.5127   27.3136   33.3435 H   0  0  0  0  0  0  0  0  0  0  0  0
   45.8587   26.6509   34.8566 H   0  0  0  0  0  0  0  0  0  0  0  0
   45.8394   25.1821   35.8690 H   0  0  0  0  0  0  0  0  0  0  0  0
   36.9266   22.8820   31.5480 H   0  0  0  0  0  0  0  0  0  0  0  0
   34.9192   22.4322   30.8648 H   0  0  0  0  0  0  0  0  0  0  0  0
   35.5717   20.9020   30.2269 H   0  0  0  0  0  0  0  0  0  0  0  0
   34.0873   21.4327   32.7986 H   0  0  0  0  0  0  0  0  0  0  0  0
   34.0686   19.9798   31.8482 H   0  0  0  0  0  0  0  0  0  0  0  0
   35.6076   19.9918   34.0758 H   0  0  0  0  0  0  0  0  0  0  0  0
   36.3942   19.3385   32.6853 H   0  0  0  0  0  0  0  0  0  0  0  0
   36.4342   22.3262   33.6667 H   0  0  0  0  0  0  0  0  0  0  0  0
  1  7  1  0
  1  2  2  0
  3  2  1  0
  4  3  2  0
  5  6  2  0
  5  4  1  0
  6  1  1  0
  7  8  1  0
  9  8  2  0
 10  9  1  0
 11 16  1  0
 11 10  2  0
 12 11  1  0
 13 12  2  0
 13 14  1  0
 14 15  2  0
 15 10  1  0
 15  7  1  0
 17  5  1  0
 18 22  1  0
 19 18  1  0
 19 20  1  0
 20 21  1  0
 22 21  1  0
 22 17  1  0
  2 23  1  0
  3 24  1  0
  8 25  1  0
 13 26  1  0
 16 27  1  0
 16 28  1  0
 18 29  1  0
 19 30  1  0
 19 31  1  0
 20 32  1  0
 20 33  1  0
 21 34  1  0
 21 35  1  0
 22 36  1  1
M  ISO  8  23  14  24  14  25  14  26  14  29   5  30  13  31  13  32  13
M  ISO  4  33  13  34  13  35  13  36  13
M  END
>  <minimizedAffinity>  (1) 
-4.74177027

>  <minimizedRMSD>  (1) 
1.78035271

$$$$
