
     RDKit          3D

 27 29  0  0  0  0  0  0  0  0999 V2000
   41.0030   23.2610   36.2860 N   0  0  0  0  0  0  0  0  0  0  0  0
   42.0230   22.4800   36.6960 C   0  0  0  0  0  0  0  0  0  0  0  0
   43.1570   23.0610   36.2360 N   0  0  0  0  0  0  0  0  0  0  0  0
   42.8230   24.1760   35.5590 C   0  0  0  0  0  0  0  0  0  0  0  0
   43.5170   25.1450   34.8920 C   0  0  0  0  0  0  0  0  0  0  0  0
   42.8860   26.1970   34.2800 N   0  0  0  0  0  0  0  0  0  0  0  0
   41.5320   26.2890   34.3310 C   0  0  0  0  0  0  0  0  0  0  0  0
   40.8210   25.3400   34.9870 N   0  0  0  0  0  0  0  0  0  0  0  0
   41.4560   24.3240   35.5760 C   0  0  0  0  0  0  0  0  0  0  0  0
   44.9380   25.0890   34.8220 N   0  0  0  0  0  0  0  0  0  0  0  0
   39.6090   23.0390   36.5400 C   0  0  0  0  0  0  0  0  0  0  0  0
   38.9990   23.4870   37.7280 C   0  0  0  0  0  0  0  0  0  0  0  0
   37.6390   23.2320   37.8960 C   0  0  0  0  0  0  0  0  0  0  0  0
   36.9690   22.5770   36.9330 N   0  0  0  0  0  0  0  0  0  0  0  0
   37.5710   22.1540   35.7950 C   0  0  0  0  0  0  0  0  0  0  0  0
   38.8970   22.3850   35.5960 N   0  0  0  0  0  0  0  0  0  0  0  0
   36.9170   21.4710   34.7640 O   0  0  0  0  0  0  0  0  0  0  0  0
   35.7320   20.7820   35.1380 C   0  0  0  0  0  0  0  0  0  0  0  0
   41.9489   21.5550   37.2866 H   0  0  0  0  0  0  0  0  0  0  0  0
   41.0156   27.1287   33.8428 H   0  0  0  0  0  0  0  0  0  0  0  0
   45.4581   25.8215   34.3181 H   0  0  0  0  0  0  0  0  0  0  0  0
   45.4459   24.3160   35.2752 H   0  0  0  0  0  0  0  0  0  0  0  0
   39.5766   24.0203   38.4974 H   0  0  0  0  0  0  0  0  0  0  0  0
   37.1197   23.5635   38.8073 H   0  0  0  0  0  0  0  0  0  0  0  0
   35.6622   20.7414   36.2350 H   0  0  0  0  0  0  0  0  0  0  0  0
   34.8568   21.3120   34.7343 H   0  0  0  0  0  0  0  0  0  0  0  0
   35.7596   19.7591   34.7343 H   0  0  0  0  0  0  0  0  0  0  0  0
  1 11  1  0
  1  2  1  0
  3  2  2  0
  4  9  2  0
  4  3  1  0
  5  4  1  0
  6  7  1  0
  6  5  2  0
  7  8  2  0
  8  9  1  0
  9  1  1  0
 10  5  1  0
 11 12  2  0
 12 13  1  0
 14 13  2  0
 15 14  1  0
 16 15  2  0
 16 11  1  0
 17 18  1  0
 17 15  1  0
  2 19  1  0
  7 20  1  0
 10 21  1  0
 10 22  1  0
 12 23  1  0
 13 24  1  0
 18 25  1  0
 18 26  1  0
 18 27  1  0
M  ISO  7  19  14  20  14  23  14  24  14  25   8  26   8  27   8
M  END
>  <minimizedAffinity>  (1) 
-3.9875052

>  <minimizedRMSD>  (1) 
0.129184216

$$$$
