
     RDKit          3D

 47 51  0  0  0  0  0  0  0  0999 V2000
   42.1820   23.4250   36.0000 C   0  0  0  0  0  0  0  0  0  0  0  0
   42.4820   22.2270   36.6500 C   0  0  0  0  0  0  0  0  0  0  0  0
   41.4100   21.5010   37.1730 C   0  0  0  0  0  0  0  0  0  0  0  0
   40.1620   21.9770   37.0340 N   0  0  0  0  0  0  0  0  0  0  0  0
   39.8680   23.1470   36.4000 C   0  0  0  0  0  0  0  0  0  0  0  0
   40.9150   23.8520   35.8900 N   0  0  0  0  0  0  0  0  0  0  0  0
   43.2130   24.2450   35.4290 N   0  0  0  0  0  0  0  0  0  0  0  0
   43.3440   24.5700   34.1330 C   0  0  0  0  0  0  0  0  0  0  0  0
   44.4440   25.3510   34.0370 N   0  0  0  0  0  0  0  0  0  0  0  0
   44.9710   25.4990   35.2440 C   0  0  0  0  0  0  0  0  0  0  0  0
   46.0580   26.1600   35.7640 C   0  0  0  0  0  0  0  0  0  0  0  0
   46.3550   26.1220   37.1220 N   0  0  0  0  0  0  0  0  0  0  0  0
   45.5500   25.4140   37.9540 C   0  0  0  0  0  0  0  0  0  0  0  0
   44.4810   24.7580   37.4730 N   0  0  0  0  0  0  0  0  0  0  0  0
   44.2070   24.8030   36.1620 C   0  0  0  0  0  0  0  0  0  0  0  0
   46.9080   26.9050   34.9140 N   0  0  0  0  0  0  0  0  0  0  0  0
   38.6230   23.6670   36.2370 O   0  0  0  0  0  0  0  0  0  0  0  0
   38.3520   24.9310   35.8150 C   0  0  0  0  0  0  0  0  0  0  0  0
   38.3720   26.1750   36.4270 C   0  0  0  0  0  0  0  0  0  0  0  0
   38.0420   27.3210   35.7480 C   0  0  0  0  0  0  0  0  0  0  0  0
   37.6810   27.2530   34.4280 C   0  0  0  0  0  0  0  0  0  0  0  0
   37.6670   26.0170   33.8380 C   0  0  0  0  0  0  0  0  0  0  0  0
   37.9920   24.8760   34.5010 N   0  0  0  0  0  0  0  0  0  0  0  0
   37.2960   25.9080   32.4670 N   0  0  0  0  0  0  0  0  0  0  0  0
   36.6670   24.7900   31.8170 C   0  0  0  0  0  0  0  0  0  0  0  0
   35.3000   25.2470   31.2960 C   0  0  0  0  0  0  0  0  0  0  0  0
   35.5990   26.2220   30.2600 N   0  0  0  0  0  0  0  0  0  0  0  0
   36.2190   27.3740   30.8440 C   0  0  0  0  0  0  0  0  0  0  0  0
   37.5230   26.9720   31.5180 C   0  0  0  0  0  0  0  0  0  0  0  0
   43.5181   21.8701   36.7462 H   0  0  0  0  0  0  0  0  0  0  0  0
   41.5861   20.5483   37.6939 H   0  0  0  0  0  0  0  0  0  0  0  0
   42.6844   24.2609   33.3088 H   0  0  0  0  0  0  0  0  0  0  0  0
   45.7745   25.3770   39.0302 H   0  0  0  0  0  0  0  0  0  0  0  0
   47.7223   27.3999   35.3051 H   0  0  0  0  0  0  0  0  0  0  0  0
   46.7128   26.9527   33.9038 H   0  0  0  0  0  0  0  0  0  0  0  0
   38.6604   26.2453   37.4862 H   0  0  0  0  0  0  0  0  0  0  0  0
   38.0673   28.2928   36.2627 H   0  0  0  0  0  0  0  0  0  0  0  0
   37.4123   28.1577   33.8629 H   0  0  0  0  0  0  0  0  0  0  0  0
   37.2903   24.4482   30.9776 H   0  0  0  0  0  0  0  0  0  0  0  0
   36.5450   23.9575   32.5256 H   0  0  0  0  0  0  0  0  0  0  0  0
   34.7419   24.3967   30.8772 H   0  0  0  0  0  0  0  0  0  0  0  0
   34.6742   25.6716   32.0948 H   0  0  0  0  0  0  0  0  0  0  0  0
   34.7254   26.5035   29.7927 H   0  0  0  0  0  0  0  0  0  0  0  0
   36.4275   28.1145   30.0577 H   0  0  0  0  0  0  0  0  0  0  0  0
   35.5421   27.8098   31.5936 H   0  0  0  0  0  0  0  0  0  0  0  0
   38.2348   26.6286   30.7529 H   0  0  0  0  0  0  0  0  0  0  0  0
   37.9302   27.8433   32.0519 H   0  0  0  0  0  0  0  0  0  0  0  0
  1  2  2  0
  2  3  1  0
  4  3  2  0
  5  4  1  0
  6  1  1  0
  6  5  2  0
  7  1  1  0
  7 15  1  0
  8  7  1  0
  9  8  2  0
  9 10  1  0
 10 11  2  0
 10 15  1  0
 11 12  1  0
 12 13  2  0
 14 13  1  0
 15 14  2  0
 16 11  1  0
 17  5  1  0
 18 17  1  0
 18 19  2  0
 20 19  1  0
 21 20  2  0
 22 21  1  0
 22 23  2  0
 23 18  1  0
 24 22  1  0
 25 24  1  0
 26 25  1  0
 27 28  1  0
 27 26  1  0
 28 29  1  0
 29 24  1  0
  2 30  1  0
  3 31  1  0
  8 32  1  0
 13 33  1  0
 16 34  1  0
 16 35  1  0
 19 36  1  0
 20 37  1  0
 21 38  1  0
 25 39  1  0
 25 40  1  0
 26 41  1  0
 26 42  1  0
 27 43  1  0
 28 44  1  0
 28 45  1  0
 29 46  1  0
 29 47  1  0
M  ISO  8  30  14  31  14  32  14  33  14  36  14  37  14  38  14  39  13
M  ISO  8  40  13  41  13  42  13  43   5  44  13  45  13  46  13  47  13
M  END
>  <minimizedAffinity>  (1) 
-6.84922743

>  <minimizedRMSD>  (1) 
0.6289047

$$$$
