
     RDKit          3D

 40 44  0  0  0  0  0  0  0  0999 V2000
   42.1910   23.4070   35.9640 C   0  0  0  0  0  0  0  0  0  0  0  0
   42.4730   22.2460   36.6650 C   0  0  0  0  0  0  0  0  0  0  0  0
   41.3900   21.5320   37.1720 C   0  0  0  0  0  0  0  0  0  0  0  0
   40.1420   21.9860   36.9670 N   0  0  0  0  0  0  0  0  0  0  0  0
   39.8680   23.1320   36.2750 C   0  0  0  0  0  0  0  0  0  0  0  0
   40.9250   23.8330   35.7770 N   0  0  0  0  0  0  0  0  0  0  0  0
   43.2360   24.2190   35.4000 N   0  0  0  0  0  0  0  0  0  0  0  0
   43.4000   24.5220   34.0990 C   0  0  0  0  0  0  0  0  0  0  0  0
   44.5030   25.3060   34.0070 N   0  0  0  0  0  0  0  0  0  0  0  0
   45.0030   25.4780   35.2290 C   0  0  0  0  0  0  0  0  0  0  0  0
   46.0740   26.1490   35.7630 C   0  0  0  0  0  0  0  0  0  0  0  0
   46.3380   26.1360   37.1230 N   0  0  0  0  0  0  0  0  0  0  0  0
   45.5180   25.4430   37.9560 C   0  0  0  0  0  0  0  0  0  0  0  0
   44.4560   24.7710   37.4670 N   0  0  0  0  0  0  0  0  0  0  0  0
   44.2130   24.7940   36.1380 C   0  0  0  0  0  0  0  0  0  0  0  0
   46.9340   26.8740   34.9270 N   0  0  0  0  0  0  0  0  0  0  0  0
   38.6180   23.6300   36.0430 O   0  0  0  0  0  0  0  0  0  0  0  0
   38.3400   24.9210   35.7670 C   0  0  0  0  0  0  0  0  0  0  0  0
   38.4890   26.1070   36.4670 C   0  0  0  0  0  0  0  0  0  0  0  0
   38.1220   27.3290   35.9590 C   0  0  0  0  0  0  0  0  0  0  0  0
   37.5730   27.3930   34.6840 C   0  0  0  0  0  0  0  0  0  0  0  0
   37.4330   26.2090   34.0050 C   0  0  0  0  0  0  0  0  0  0  0  0
   37.8010   25.0020   34.5170 N   0  0  0  0  0  0  0  0  0  0  0  0
   36.8580   26.3730   32.6970 N   0  0  0  0  0  0  0  0  0  0  0  0
   36.0300   25.5930   32.0070 N   0  0  0  0  0  0  0  0  0  0  0  0
   35.7710   26.1800   30.8140 C   0  0  0  0  0  0  0  0  0  0  0  0
   36.4680   27.3900   30.7470 C   0  0  0  0  0  0  0  0  0  0  0  0
   37.1530   27.4860   31.9640 C   0  0  0  0  0  0  0  0  0  0  0  0
   43.5073   21.9029   36.8147 H   0  0  0  0  0  0  0  0  0  0  0  0
   41.5552   20.6025   37.7366 H   0  0  0  0  0  0  0  0  0  0  0  0
   42.7597   24.1952   33.2665 H   0  0  0  0  0  0  0  0  0  0  0  0
   45.7219   25.4301   39.0369 H   0  0  0  0  0  0  0  0  0  0  0  0
   47.7381   27.3778   35.3277 H   0  0  0  0  0  0  0  0  0  0  0  0
   46.7620   26.9030   33.9119 H   0  0  0  0  0  0  0  0  0  0  0  0
   38.9217   26.0682   37.4776 H   0  0  0  0  0  0  0  0  0  0  0  0
   38.2607   28.2443   36.5531 H   0  0  0  0  0  0  0  0  0  0  0  0
   37.2644   28.3504   34.2389 H   0  0  0  0  0  0  0  0  0  0  0  0
   35.1194   25.7718   30.0274 H   0  0  0  0  0  0  0  0  0  0  0  0
   36.4764   28.1114   29.9166 H   0  0  0  0  0  0  0  0  0  0  0  0
   37.8113   28.3109   32.2742 H   0  0  0  0  0  0  0  0  0  0  0  0
  1  2  2  0
  2  3  1  0
  4  3  2  0
  5  4  1  0
  6  1  1  0
  6  5  2  0
  7  1  1  0
  7 15  1  0
  8  7  1  0
  9  8  2  0
  9 10  1  0
 10 11  2  0
 10 15  1  0
 11 12  1  0
 12 13  2  0
 14 13  1  0
 15 14  2  0
 16 11  1  0
 17  5  1  0
 18 17  1  0
 18 19  2  0
 20 19  1  0
 21 20  2  0
 22 23  2  0
 22 21  1  0
 23 18  1  0
 24 22  1  0
 25 24  1  0
 26 25  2  0
 27 26  1  0
 27 28  2  0
 28 24  1  0
  2 29  1  0
  3 30  1  0
  8 31  1  0
 13 32  1  0
 16 33  1  0
 16 34  1  0
 19 35  1  0
 20 36  1  0
 21 37  1  0
 26 38  1  0
 27 39  1  0
 28 40  1  0
M  ISO  8  29  14  30  14  31  14  32  14  35  14  36  14  37  14  38  14
M  ISO  2  39  14  40  14
M  END
>  <minimizedAffinity>  (1) 
-6.22510576

>  <minimizedRMSD>  (1) 
0.641394973

$$$$
