
     RDKit          3D

 42 46  0  0  0  0  0  0  0  0999 V2000
   42.2850   23.3810   36.0450 C   0  0  0  0  0  0  0  0  0  0  0  0
   42.5860   22.1460   36.6100 C   0  0  0  0  0  0  0  0  0  0  0  0
   41.5260   21.4190   37.1500 C   0  0  0  0  0  0  0  0  0  0  0  0
   40.2820   21.9300   37.1010 N   0  0  0  0  0  0  0  0  0  0  0  0
   39.9880   23.1400   36.5470 C   0  0  0  0  0  0  0  0  0  0  0  0
   41.0260   23.8480   36.0210 N   0  0  0  0  0  0  0  0  0  0  0  0
   43.3080   24.2120   35.4610 N   0  0  0  0  0  0  0  0  0  0  0  0
   43.4280   24.5210   34.1600 C   0  0  0  0  0  0  0  0  0  0  0  0
   44.5190   25.3180   34.0480 N   0  0  0  0  0  0  0  0  0  0  0  0
   45.0510   25.4900   35.2550 C   0  0  0  0  0  0  0  0  0  0  0  0
   46.1260   26.1730   35.7690 C   0  0  0  0  0  0  0  0  0  0  0  0
   46.4230   26.1540   37.1220 N   0  0  0  0  0  0  0  0  0  0  0  0
   45.6320   25.4430   37.9690 C   0  0  0  0  0  0  0  0  0  0  0  0
   44.5680   24.7620   37.5020 N   0  0  0  0  0  0  0  0  0  0  0  0
   44.2980   24.7940   36.1800 C   0  0  0  0  0  0  0  0  0  0  0  0
   46.9640   26.9170   34.9160 N   0  0  0  0  0  0  0  0  0  0  0  0
   38.7490   23.7010   36.4750 O   0  0  0  0  0  0  0  0  0  0  0  0
   38.4840   24.9530   36.0660 C   0  0  0  0  0  0  0  0  0  0  0  0
   38.7080   26.2080   36.5940 C   0  0  0  0  0  0  0  0  0  0  0  0
   38.3330   27.3650   35.9700 C   0  0  0  0  0  0  0  0  0  0  0  0
   37.6940   27.2830   34.7420 C   0  0  0  0  0  0  0  0  0  0  0  0
   37.4690   26.0380   34.2130 C   0  0  0  0  0  0  0  0  0  0  0  0
   37.8540   24.9040   34.8580 N   0  0  0  0  0  0  0  0  0  0  0  0
   36.7920   25.9240   32.9120 C   0  0  0  0  0  0  0  0  0  0  0  0
   36.5810   24.7150   32.3000 C   0  0  0  0  0  0  0  0  0  0  0  0
   35.9470   24.6130   31.0800 C   0  0  0  0  0  0  0  0  0  0  0  0
   35.4960   25.7400   30.4240 C   0  0  0  0  0  0  0  0  0  0  0  0
   35.7480   26.9100   31.1060 C   0  0  0  0  0  0  0  0  0  0  0  0
   36.3660   27.0110   32.2940 N   0  0  0  0  0  0  0  0  0  0  0  0
   43.6158   21.7597   36.6299 H   0  0  0  0  0  0  0  0  0  0  0  0
   41.7048   20.4368   37.6118 H   0  0  0  0  0  0  0  0  0  0  0  0
   42.7689   24.1914   33.3433 H   0  0  0  0  0  0  0  0  0  0  0  0
   45.8629   25.4238   39.0443 H   0  0  0  0  0  0  0  0  0  0  0  0
   47.7697   27.4285   35.3034 H   0  0  0  0  0  0  0  0  0  0  0  0
   46.7712   26.9496   33.9047 H   0  0  0  0  0  0  0  0  0  0  0  0
   39.2146   26.2813   37.5676 H   0  0  0  0  0  0  0  0  0  0  0  0
   38.5342   28.3423   36.4331 H   0  0  0  0  0  0  0  0  0  0  0  0
   37.3767   28.1906   34.2076 H   0  0  0  0  0  0  0  0  0  0  0  0
   36.9285   23.7979   32.7981 H   0  0  0  0  0  0  0  0  0  0  0  0
   35.7991   23.6226   30.6247 H   0  0  0  0  0  0  0  0  0  0  0  0
   34.9847   25.7073   29.4506 H   0  0  0  0  0  0  0  0  0  0  0  0
   35.4128   27.8459   30.6351 H   0  0  0  0  0  0  0  0  0  0  0  0
  1  2  2  0
  2  3  1  0
  4  3  2  0
  5  4  1  0
  6  1  1  0
  6  5  2  0
  7  1  1  0
  7 15  1  0
  8  7  1  0
  9  8  2  0
  9 10  1  0
 10 11  2  0
 10 15  1  0
 11 12  1  0
 12 13  2  0
 14 13  1  0
 15 14  2  0
 16 11  1  0
 17  5  1  0
 18 17  1  0
 18 19  2  0
 20 19  1  0
 21 20  2  0
 22 21  1  0
 22 23  2  0
 23 18  1  0
 24 22  1  0
 25 24  2  0
 26 25  1  0
 27 26  2  0
 27 28  1  0
 28 29  2  0
 29 24  1  0
  2 30  1  0
  3 31  1  0
  8 32  1  0
 13 33  1  0
 16 34  1  0
 16 35  1  0
 19 36  1  0
 20 37  1  0
 21 38  1  0
 25 39  1  0
 26 40  1  0
 27 41  1  0
 28 42  1  0
M  ISO  8  30  14  31  14  32  14  33  14  36  14  37  14  38  14  39  14
M  ISO  3  40  14  41  14  42  14
M  END
>  <minimizedAffinity>  (1) 
-5.83614302

>  <minimizedRMSD>  (1) 
0.759278893

$$$$
