
     RDKit          3D

 40 44  0  0  0  0  0  0  0  0999 V2000
   42.0880   23.5160   35.9400 C   0  0  0  0  0  0  0  0  0  0  0  0
   42.3530   22.2520   36.4780 C   0  0  0  0  0  0  0  0  0  0  0  0
   41.2690   21.5500   37.0120 C   0  0  0  0  0  0  0  0  0  0  0  0
   40.0390   22.1100   36.9880 N   0  0  0  0  0  0  0  0  0  0  0  0
   39.7930   23.3430   36.4620 C   0  0  0  0  0  0  0  0  0  0  0  0
   40.8480   24.0210   35.9440 N   0  0  0  0  0  0  0  0  0  0  0  0
   43.1340   24.3170   35.3720 N   0  0  0  0  0  0  0  0  0  0  0  0
   43.2640   24.6470   34.0770 C   0  0  0  0  0  0  0  0  0  0  0  0
   44.3830   25.4070   33.9820 N   0  0  0  0  0  0  0  0  0  0  0  0
   44.9170   25.5340   35.1870 C   0  0  0  0  0  0  0  0  0  0  0  0
   46.0150   26.1660   35.7020 C   0  0  0  0  0  0  0  0  0  0  0  0
   46.3270   26.1180   37.0580 N   0  0  0  0  0  0  0  0  0  0  0  0
   45.5060   25.4160   37.9030 C   0  0  0  0  0  0  0  0  0  0  0  0
   44.4220   24.7870   37.4220 N   0  0  0  0  0  0  0  0  0  0  0  0
   44.1480   24.8540   36.0990 C   0  0  0  0  0  0  0  0  0  0  0  0
   46.8870   26.8990   34.8810 N   0  0  0  0  0  0  0  0  0  0  0  0
   38.5730   23.9410   36.4190 O   0  0  0  0  0  0  0  0  0  0  0  0
   38.3360   25.1900   35.9400 C   0  0  0  0  0  0  0  0  0  0  0  0
   38.5870   26.4590   36.3980 C   0  0  0  0  0  0  0  0  0  0  0  0
   38.2480   27.5950   35.7310 C   0  0  0  0  0  0  0  0  0  0  0  0
   37.6120   27.4890   34.5230 C   0  0  0  0  0  0  0  0  0  0  0  0
   37.3590   26.2250   34.0620 C   0  0  0  0  0  0  0  0  0  0  0  0
   37.7030   25.0870   34.7380 N   0  0  0  0  0  0  0  0  0  0  0  0
   36.6670   25.9620   32.7490 C   0  0  0  0  0  0  0  0  0  0  0  0
   36.6070   24.6390   32.2150 C   0  0  0  0  0  0  0  0  0  0  0  0
   35.9560   24.5270   31.0240 C   0  0  0  0  0  0  0  0  0  0  0  0
   35.4020   25.7490   30.4360 C   0  0  0  0  0  0  0  0  0  0  0  0
   35.9010   27.0250   31.7330 S   0  0  0  0  0  0  0  0  0  0  0  0
   43.3687   21.8298   36.4806 H   0  0  0  0  0  0  0  0  0  0  0  0
   41.4154   20.5507   37.4479 H   0  0  0  0  0  0  0  0  0  0  0  0
   42.5939   24.3575   33.2541 H   0  0  0  0  0  0  0  0  0  0  0  0
   45.7363   25.3682   38.9776 H   0  0  0  0  0  0  0  0  0  0  0  0
   47.7081   27.3671   35.2903 H   0  0  0  0  0  0  0  0  0  0  0  0
   46.7055   26.9686   33.8695 H   0  0  0  0  0  0  0  0  0  0  0  0
   39.0955   26.5644   37.3677 H   0  0  0  0  0  0  0  0  0  0  0  0
   38.4810   28.5828   36.1552 H   0  0  0  0  0  0  0  0  0  0  0  0
   37.3175   28.3797   33.9486 H   0  0  0  0  0  0  0  0  0  0  0  0
   37.0536   23.7743   32.7277 H   0  0  0  0  0  0  0  0  0  0  0  0
   35.8500   23.5541   30.5217 H   0  0  0  0  0  0  0  0  0  0  0  0
   34.8472   25.8853   29.4960 H   0  0  0  0  0  0  0  0  0  0  0  0
  1  6  1  0
  1  2  2  0
  2  3  1  0
  4  3  2  0
  5  4  1  0
  6  5  2  0
  7  1  1  0
  7 15  1  0
  8  7  1  0
  9  8  2  0
  9 10  1  0
 10 11  2  0
 10 15  1  0
 11 12  1  0
 12 13  2  0
 14 13  1  0
 15 14  2  0
 16 11  1  0
 17  5  1  0
 18 19  2  0
 18 17  1  0
 20 19  1  0
 21 20  2  0
 22 21  1  0
 22 23  2  0
 23 18  1  0
 24 22  1  0
 25 24  2  0
 26 25  1  0
 27 26  2  0
 27 28  1  0
 28 24  1  0
  2 29  1  0
  3 30  1  0
  8 31  1  0
 13 32  1  0
 16 33  1  0
 16 34  1  0
 19 35  1  0
 20 36  1  0
 21 37  1  0
 25 38  1  0
 26 39  1  0
 27 40  1  0
M  ISO  8  29  14  30  14  31  14  32  14  35  14  36  14  37  14  38  14
M  ISO  2  39  14  40  14
M  END
>  <minimizedAffinity>  (1) 
-5.76452065

>  <minimizedRMSD>  (1) 
0.63373673

$$$$
