
     RDKit          3D

 40 44  0  0  0  0  0  0  0  0999 V2000
   41.9880   23.6010   35.9330 C   0  0  0  0  0  0  0  0  0  0  0  0
   42.2580   22.4370   36.6460 C   0  0  0  0  0  0  0  0  0  0  0  0
   41.1640   21.7040   37.1010 C   0  0  0  0  0  0  0  0  0  0  0  0
   39.9190   22.1390   36.8410 N   0  0  0  0  0  0  0  0  0  0  0  0
   39.6580   23.2840   36.1390 C   0  0  0  0  0  0  0  0  0  0  0  0
   40.7280   23.9990   35.6950 N   0  0  0  0  0  0  0  0  0  0  0  0
   43.0470   24.4270   35.4210 N   0  0  0  0  0  0  0  0  0  0  0  0
   43.1740   24.8620   34.1540 C   0  0  0  0  0  0  0  0  0  0  0  0
   44.3040   25.6050   34.1090 N   0  0  0  0  0  0  0  0  0  0  0  0
   44.8520   25.6240   35.3110 C   0  0  0  0  0  0  0  0  0  0  0  0
   45.9770   26.1940   35.8740 C   0  0  0  0  0  0  0  0  0  0  0  0
   46.2880   26.0240   37.2040 N   0  0  0  0  0  0  0  0  0  0  0  0
   45.4710   25.2750   37.9950 C   0  0  0  0  0  0  0  0  0  0  0  0
   44.3630   24.7050   37.4750 N   0  0  0  0  0  0  0  0  0  0  0  0
   44.0760   24.8820   36.1770 C   0  0  0  0  0  0  0  0  0  0  0  0
   46.8500   26.9730   35.0960 N   0  0  0  0  0  0  0  0  0  0  0  0
   38.4170   23.7640   35.8520 O   0  0  0  0  0  0  0  0  0  0  0  0
   38.1530   25.0120   35.3890 C   0  0  0  0  0  0  0  0  0  0  0  0
   38.1270   26.2740   35.9640 C   0  0  0  0  0  0  0  0  0  0  0  0
   37.8210   27.4010   35.2550 C   0  0  0  0  0  0  0  0  0  0  0  0
   37.5260   27.2960   33.9210 C   0  0  0  0  0  0  0  0  0  0  0  0
   37.5520   26.0370   33.3480 C   0  0  0  0  0  0  0  0  0  0  0  0
   37.8590   24.9120   34.0620 N   0  0  0  0  0  0  0  0  0  0  0  0
   37.2180   26.0210   31.8860 C   0  0  0  0  0  0  0  0  0  0  0  0
   36.0680   26.7590   31.3700 C   0  0  0  0  0  0  0  0  0  0  0  0
   35.9280   25.2530   31.5680 C   0  0  0  0  0  0  0  0  0  0  0  0
   43.2898   22.1099   36.8418 H   0  0  0  0  0  0  0  0  0  0  0  0
   41.3181   20.7750   37.6695 H   0  0  0  0  0  0  0  0  0  0  0  0
   42.4914   24.6539   33.3169 H   0  0  0  0  0  0  0  0  0  0  0  0
   45.7139   25.1342   39.0586 H   0  0  0  0  0  0  0  0  0  0  0  0
   47.6863   27.3937   35.5256 H   0  0  0  0  0  0  0  0  0  0  0  0
   46.6536   27.1234   34.0961 H   0  0  0  0  0  0  0  0  0  0  0  0
   38.3623   26.3713   37.0341 H   0  0  0  0  0  0  0  0  0  0  0  0
   37.8115   28.3832   35.7502 H   0  0  0  0  0  0  0  0  0  0  0  0
   37.2762   28.1855   33.3240 H   0  0  0  0  0  0  0  0  0  0  0  0
   38.2730   26.0094   31.5749 H   0  0  0  0  0  0  0  0  0  0  0  0
   36.0992   27.1742   30.3518 H   0  0  0  0  0  0  0  0  0  0  0  0
   35.4997   27.6344   31.7174 H   0  0  0  0  0  0  0  0  0  0  0  0
   35.3025   24.8526   32.3794 H   0  0  0  0  0  0  0  0  0  0  0  0
   35.6492   24.3916   30.9432 H   0  0  0  0  0  0  0  0  0  0  0  0
  1  2  2  0
  2  3  1  0
  4  3  2  0
  5  4  1  0
  6  1  1  0
  6  5  2  0
  7  1  1  0
  7 15  1  0
  8  7  1  0
  9  8  2  0
  9 10  1  0
 10 11  2  0
 10 15  1  0
 11 12  1  0
 12 13  2  0
 14 13  1  0
 15 14  2  0
 16 11  1  0
 17  5  1  0
 18 17  1  0
 18 19  2  0
 20 19  1  0
 21 20  2  0
 22 21  1  0
 22 23  2  0
 23 18  1  0
 24 22  1  0
 25 26  1  0
 25 24  1  0
 26 24  1  0
  2 27  1  0
  3 28  1  0
  8 29  1  0
 13 30  1  0
 16 31  1  0
 16 32  1  0
 19 33  1  0
 20 34  1  0
 21 35  1  0
 24 36  1  0
 25 37  1  0
 25 38  1  0
 26 39  1  0
 26 40  1  0
M  ISO  8  27  14  28  14  29  14  30  14  33  14  34  14  35  14  36  13
M  ISO  4  37  13  38  13  39  13  40  13
M  END
>  <minimizedAffinity>  (1) 
-5.70972729

>  <minimizedRMSD>  (1) 
0.704701602

$$$$
