
     RDKit          3D

 35 38  0  0  0  0  0  0  0  0999 V2000
   42.0130   23.5610   35.9500 C   0  0  0  0  0  0  0  0  0  0  0  0
   42.2850   22.3830   36.6420 C   0  0  0  0  0  0  0  0  0  0  0  0
   41.1950   21.6730   37.1390 C   0  0  0  0  0  0  0  0  0  0  0  0
   39.9540   22.1420   36.9360 N   0  0  0  0  0  0  0  0  0  0  0  0
   39.6870   23.2950   36.2590 C   0  0  0  0  0  0  0  0  0  0  0  0
   40.7540   23.9890   35.7720 N   0  0  0  0  0  0  0  0  0  0  0  0
   43.0690   24.3680   35.3970 N   0  0  0  0  0  0  0  0  0  0  0  0
   43.1970   24.7400   34.1130 C   0  0  0  0  0  0  0  0  0  0  0  0
   44.3250   25.4870   34.0300 N   0  0  0  0  0  0  0  0  0  0  0  0
   44.8630   25.5660   35.2280 C   0  0  0  0  0  0  0  0  0  0  0  0
   45.9760   26.1660   35.7630 C   0  0  0  0  0  0  0  0  0  0  0  0
   46.2950   26.0690   37.1140 N   0  0  0  0  0  0  0  0  0  0  0  0
   45.4750   25.3530   37.9400 C   0  0  0  0  0  0  0  0  0  0  0  0
   44.3740   24.7500   37.4520 N   0  0  0  0  0  0  0  0  0  0  0  0
   44.0930   24.8630   36.1410 C   0  0  0  0  0  0  0  0  0  0  0  0
   46.8580   26.9150   34.9620 N   0  0  0  0  0  0  0  0  0  0  0  0
   38.4490   23.8150   36.0250 O   0  0  0  0  0  0  0  0  0  0  0  0
   38.1920   25.0850   35.6390 C   0  0  0  0  0  0  0  0  0  0  0  0
   38.3190   26.3120   36.2330 C   0  0  0  0  0  0  0  0  0  0  0  0
   37.9880   27.4900   35.6410 C   0  0  0  0  0  0  0  0  0  0  0  0
   37.4950   27.4630   34.3650 C   0  0  0  0  0  0  0  0  0  0  0  0
   37.3570   26.2280   33.7380 C   0  0  0  0  0  0  0  0  0  0  0  0
   37.7020   25.0600   34.3690 N   0  0  0  0  0  0  0  0  0  0  0  0
   36.8230   26.1870   32.3540 C   0  0  0  0  0  0  0  0  0  0  0  0
   36.1630   25.1840   31.9900 O   0  0  0  0  0  0  0  0  0  0  0  0
   43.3160   22.0290   36.7894 H   0  0  0  0  0  0  0  0  0  0  0  0
   41.3498   20.7356   37.6933 H   0  0  0  0  0  0  0  0  0  0  0  0
   42.5165   24.4869   33.2866 H   0  0  0  0  0  0  0  0  0  0  0  0
   45.7156   25.2686   39.0100 H   0  0  0  0  0  0  0  0  0  0  0  0
   47.6873   27.3569   35.3836 H   0  0  0  0  0  0  0  0  0  0  0  0
   46.6742   27.0212   33.9541 H   0  0  0  0  0  0  0  0  0  0  0  0
   38.7156   26.3469   37.2584 H   0  0  0  0  0  0  0  0  0  0  0  0
   38.1136   28.4431   36.1756 H   0  0  0  0  0  0  0  0  0  0  0  0
   37.2151   28.3928   33.8482 H   0  0  0  0  0  0  0  0  0  0  0  0
   37.0026   27.0211   31.6597 H   0  0  0  0  0  0  0  0  0  0  0  0
  1  2  2  0
  2  3  1  0
  4  3  2  0
  5  4  1  0
  6  1  1  0
  6  5  2  0
  7  1  1  0
  7 15  1  0
  8  7  1  0
  9  8  2  0
  9 10  1  0
 10 11  2  0
 10 15  1  0
 11 12  1  0
 12 13  2  0
 14 13  1  0
 15 14  2  0
 16 11  1  0
 17  5  1  0
 18 17  1  0
 18 19  2  0
 20 19  1  0
 21 20  2  0
 22 21  1  0
 22 23  2  0
 23 18  1  0
 24 22  1  0
 25 24  2  0
  2 26  1  0
  3 27  1  0
  8 28  1  0
 13 29  1  0
 16 30  1  0
 16 31  1  0
 19 32  1  0
 20 33  1  0
 21 34  1  0
 24 35  1  0
M  ISO  8  26  14  27  14  28  14  29  14  32  14  33  14  34  14  35   6
M  END
>  <minimizedAffinity>  (1) 
-5.50497484

>  <minimizedRMSD>  (1) 
0.591194808

$$$$
