
     RDKit          3D

 36 39  0  0  0  0  0  0  0  0999 V2000
   41.8720   23.4310   35.8670 C   0  0  0  0  0  0  0  0  0  0  0  0
   42.1470   22.3540   36.7100 C   0  0  0  0  0  0  0  0  0  0  0  0
   41.0750   21.8150   37.4290 C   0  0  0  0  0  0  0  0  0  0  0  0
   39.8510   22.3450   37.2820 N   0  0  0  0  0  0  0  0  0  0  0  0
   39.5830   23.4000   36.4570 C   0  0  0  0  0  0  0  0  0  0  0  0
   40.6250   23.9280   35.7560 N   0  0  0  0  0  0  0  0  0  0  0  0
   42.9020   24.0570   35.0870 N   0  0  0  0  0  0  0  0  0  0  0  0
   43.0130   24.0270   33.7490 C   0  0  0  0  0  0  0  0  0  0  0  0
   44.1200   24.7390   33.4340 N   0  0  0  0  0  0  0  0  0  0  0  0
   44.6700   25.1910   34.5510 C   0  0  0  0  0  0  0  0  0  0  0  0
   45.7660   25.9460   34.8660 C   0  0  0  0  0  0  0  0  0  0  0  0
   46.0940   26.2650   36.1800 N   0  0  0  0  0  0  0  0  0  0  0  0
   45.2980   25.8130   37.1830 C   0  0  0  0  0  0  0  0  0  0  0  0
   44.2100   25.0670   36.9090 N   0  0  0  0  0  0  0  0  0  0  0  0
   43.9160   24.7730   35.6320 C   0  0  0  0  0  0  0  0  0  0  0  0
   46.6100   26.4280   33.8440 N   0  0  0  0  0  0  0  0  0  0  0  0
   38.3560   23.9660   36.2810 O   0  0  0  0  0  0  0  0  0  0  0  0
   38.1380   25.2040   35.7660 C   0  0  0  0  0  0  0  0  0  0  0  0
   38.2940   26.4840   36.2570 C   0  0  0  0  0  0  0  0  0  0  0  0
   37.9950   27.6030   35.5220 C   0  0  0  0  0  0  0  0  0  0  0  0
   37.5150   27.4550   34.2260 C   0  0  0  0  0  0  0  0  0  0  0  0
   37.3670   26.1680   33.7520 C   0  0  0  0  0  0  0  0  0  0  0  0
   37.6660   25.0670   34.4930 N   0  0  0  0  0  0  0  0  0  0  0  0
   36.8460   26.1130   32.3510 C   0  0  0  0  0  0  0  0  0  0  0  0
   43.1640   21.9458   36.8053 H   0  0  0  0  0  0  0  0  0  0  0  0
   41.2339   20.9647   38.1085 H   0  0  0  0  0  0  0  0  0  0  0  0
   42.3353   23.5215   33.0453 H   0  0  0  0  0  0  0  0  0  0  0  0
   45.5433   26.0577   38.2270 H   0  0  0  0  0  0  0  0  0  0  0  0
   47.4351   26.9965   34.0828 H   0  0  0  0  0  0  0  0  0  0  0  0
   46.4013   26.2115   32.8589 H   0  0  0  0  0  0  0  0  0  0  0  0
   38.6742   26.6126   37.2812 H   0  0  0  0  0  0  0  0  0  0  0  0
   38.1335   28.6055   35.9531 H   0  0  0  0  0  0  0  0  0  0  0  0
   37.2638   28.3272   33.6046 H   0  0  0  0  0  0  0  0  0  0  0  0
   35.7523   25.9975   32.3708 H   0  0  0  0  0  0  0  0  0  0  0  0
   37.1070   27.0437   31.8259 H   0  0  0  0  0  0  0  0  0  0  0  0
   37.2956   25.2573   31.8259 H   0  0  0  0  0  0  0  0  0  0  0  0
  1  2  2  0
  2  3  1  0
  4  3  2  0
  5  4  1  0
  6  1  1  0
  6  5  2  0
  7 15  1  0
  7  1  1  0
  8  7  1  0
  9  8  2  0
  9 10  1  0
 10 11  2  0
 10 15  1  0
 11 12  1  0
 12 13  2  0
 14 13  1  0
 15 14  2  0
 16 11  1  0
 17  5  1  0
 18 19  2  0
 18 17  1  0
 20 19  1  0
 21 20  2  0
 22 21  1  0
 22 23  2  0
 23 18  1  0
 24 22  1  0
  2 25  1  0
  3 26  1  0
  8 27  1  0
 13 28  1  0
 16 29  1  0
 16 30  1  0
 19 31  1  0
 20 32  1  0
 21 33  1  0
 24 34  1  0
 24 35  1  0
 24 36  1  0
M  ISO  8  25  14  26  14  27  14  28  14  31  14  32  14  33  14  34   8
M  ISO  2  35   8  36   8
M  END
>  <minimizedAffinity>  (1) 
-5.32552958

>  <minimizedRMSD>  (1) 
0.0263419338

$$$$
