
     RDKit          3D

 28 30  0  0  0  0  0  0  0  0999 V2000
   38.3220   23.3780   38.5110 C   0  0  0  0  0  0  0  0  0  0  0  0
   37.9150   24.5380   37.8210 C   0  0  0  0  0  0  0  0  0  0  0  0
   38.5690   24.8280   36.6240 C   0  0  0  0  0  0  0  0  0  0  0  0
   39.5560   23.9980   36.1750 N   0  0  0  0  0  0  0  0  0  0  0  0
   39.9150   22.8930   36.8710 C   0  0  0  0  0  0  0  0  0  0  0  0
   39.2900   22.5900   38.0410 N   0  0  0  0  0  0  0  0  0  0  0  0
   38.2190   25.9860   35.8610 N   0  0  0  0  0  0  0  0  0  0  0  0
   37.0460   26.0550   35.2030 C   0  0  0  0  0  0  0  0  0  0  0  0
   37.0350   27.2770   34.5860 C   0  0  0  0  0  0  0  0  0  0  0  0
   38.1810   27.9190   34.8740 N   0  0  0  0  0  0  0  0  0  0  0  0
   38.9310   27.1150   35.6740 C   0  0  0  0  0  0  0  0  0  0  0  0
   40.9640   22.1240   36.2720 N   0  0  0  0  0  0  0  0  0  0  0  0
   41.8940   21.6360   37.1130 C   0  0  0  0  0  0  0  0  0  0  0  0
   42.9070   20.8940   36.5420 C   0  0  0  0  0  0  0  0  0  0  0  0
   42.8830   20.7150   35.1740 C   0  0  0  0  0  0  0  0  0  0  0  0
   43.9370   19.9490   34.6220 N   0  0  0  0  0  0  0  0  0  0  0  0
   41.9140   21.2340   34.3710 N   0  0  0  0  0  0  0  0  0  0  0  0
   40.9140   21.9670   34.9370 C   0  0  0  0  0  0  0  0  0  0  0  0
   39.9770   22.4840   34.2720 O   0  0  0  0  0  0  0  0  0  0  0  0
   37.8297   23.1166   39.4593 H   0  0  0  0  0  0  0  0  0  0  0  0
   37.1161   25.1864   38.2100 H   0  0  0  0  0  0  0  0  0  0  0  0
   36.2588   25.2875   35.1684 H   0  0  0  0  0  0  0  0  0  0  0  0
   36.2219   27.6695   33.9576 H   0  0  0  0  0  0  0  0  0  0  0  0
   39.9247   27.3417   36.0877 H   0  0  0  0  0  0  0  0  0  0  0  0
   41.8490   21.8188   38.1968 H   0  0  0  0  0  0  0  0  0  0  0  0
   43.7082   20.4590   37.1574 H   0  0  0  0  0  0  0  0  0  0  0  0
   43.9741   19.7803   33.6066 H   0  0  0  0  0  0  0  0  0  0  0  0
   44.6671   19.5601   35.2356 H   0  0  0  0  0  0  0  0  0  0  0  0
  2  1  2  0
  3  2  1  0
  4  3  2  0
  4  5  1  0
  5  6  2  0
  6  1  1  0
  7  3  1  0
  8  7  1  0
  9 10  1  0
  9  8  2  0
 10 11  2  0
 11  7  1  0
 12  5  1  0
 12 13  1  0
 14 13  2  0
 15 14  1  0
 16 15  1  0
 17 18  1  0
 17 15  2  0
 18 12  1  0
 19 18  2  0
  1 20  1  0
  2 21  1  0
  8 22  1  0
  9 23  1  0
 11 24  1  0
 13 25  1  0
 14 26  1  0
 16 27  1  0
 16 28  1  0
M  ISO  7  20  14  21  14  22  14  23  14  24  14  25  14  26  14
M  END
>  <minimizedAffinity>  (1) 
-4.4793067

>  <minimizedRMSD>  (1) 
3.31119061

$$$$
