
     RDKit          3D

 33 35  0  0  0  0  0  0  0  0999 V2000
   40.7440   22.0260   37.5500 C   0  0  0  0  0  0  0  0  0  0  0  0
   40.0080   23.1840   37.2700 C   0  0  0  0  0  0  0  0  0  0  0  0
   40.0240   23.6670   35.9560 C   0  0  0  0  0  0  0  0  0  0  0  0
   40.7460   22.9880   35.0440 N   0  0  0  0  0  0  0  0  0  0  0  0
   41.4500   21.8770   35.3220 C   0  0  0  0  0  0  0  0  0  0  0  0
   41.4370   21.4020   36.6030 N   0  0  0  0  0  0  0  0  0  0  0  0
   39.2920   24.8520   35.5880 N   0  0  0  0  0  0  0  0  0  0  0  0
   37.9350   24.8250   35.5600 C   0  0  0  0  0  0  0  0  0  0  0  0
   37.5760   26.0980   35.1780 C   0  0  0  0  0  0  0  0  0  0  0  0
   38.6880   26.8320   34.9900 N   0  0  0  0  0  0  0  0  0  0  0  0
   39.7690   26.0530   35.2480 C   0  0  0  0  0  0  0  0  0  0  0  0
   42.2340   21.1620   34.2740 C   0  0  0  0  0  0  0  0  0  0  0  0
   43.0440   20.0270   34.9030 C   0  0  0  0  0  0  0  0  0  0  0  0
   43.3350   19.0600   33.7500 C   0  0  0  0  0  0  0  0  0  0  0  0
   43.6920   19.8250   32.4970 C   0  0  0  0  0  0  0  0  0  0  0  0
   44.2000   21.2130   32.8110 C   0  0  0  0  0  0  0  0  0  0  0  0
   43.1800   22.0460   33.5340 C   0  0  0  0  0  0  0  0  0  0  0  0
   40.7487   21.6248   38.5742 H   0  0  0  0  0  0  0  0  0  0  0  0
   39.4359   23.6974   38.0568 H   0  0  0  0  0  0  0  0  0  0  0  0
   37.2723   23.9778   35.7904 H   0  0  0  0  0  0  0  0  0  0  0  0
   36.5447   26.4577   35.0473 H   0  0  0  0  0  0  0  0  0  0  0  0
   40.8263   26.3507   35.1890 H   0  0  0  0  0  0  0  0  0  0  0  0
   41.4932   20.7787   33.5569 H   0  0  0  0  0  0  0  0  0  0  0  0
   43.9816   20.4121   35.3304 H   0  0  0  0  0  0  0  0  0  0  0  0
   42.5003   19.5380   35.7247 H   0  0  0  0  0  0  0  0  0  0  0  0
   44.1758   18.4074   34.0279 H   0  0  0  0  0  0  0  0  0  0  0  0
   42.4360   18.4568   33.5553 H   0  0  0  0  0  0  0  0  0  0  0  0
   42.7964   19.9087   31.8639 H   0  0  0  0  0  0  0  0  0  0  0  0
   44.4932   19.2773   31.9793 H   0  0  0  0  0  0  0  0  0  0  0  0
   45.0970   21.1266   33.4419 H   0  0  0  0  0  0  0  0  0  0  0  0
   44.4250   21.7117   31.8567 H   0  0  0  0  0  0  0  0  0  0  0  0
   43.6907   22.7108   34.2462 H   0  0  0  0  0  0  0  0  0  0  0  0
   42.6181   22.6454   32.8026 H   0  0  0  0  0  0  0  0  0  0  0  0
  2  1  2  0
  3  2  1  0
  4  5  1  0
  4  3  2  0
  5  6  2  0
  6  1  1  0
  7  3  1  0
  8  7  1  0
  9  8  2  0
 10  9  1  0
 10 11  2  0
 11  7  1  0
 12 13  1  0
 12  5  1  0
 14 13  1  0
 15 16  1  0
 15 14  1  0
 16 17  1  0
 17 12  1  0
  1 18  1  0
  2 19  1  0
  8 20  1  0
  9 21  1  0
 11 22  1  0
 12 23  1  0
 13 24  1  0
 13 25  1  0
 14 26  1  0
 14 27  1  0
 15 28  1  0
 15 29  1  0
 16 30  1  0
 16 31  1  0
 17 32  1  0
 17 33  1  0
M  ISO  8  18  14  19  14  20  14  21  14  22  14  23  13  24  13  25  13
M  ISO  8  26  13  27  13  28  13  29  13  30  13  31  13  32  13  33  13
M  END
>  <minimizedAffinity>  (1) 
-3.09355712

>  <minimizedRMSD>  (1) 
1.11359358

$$$$
