
     RDKit          3D

 20 21  0  0  0  0  0  0  0  0999 V2000
   40.7510   22.0410   37.5400 C   0  0  0  0  0  0  0  0  0  0  0  0
   40.0060   23.2080   37.2740 C   0  0  0  0  0  0  0  0  0  0  0  0
   39.9950   23.6640   35.9560 C   0  0  0  0  0  0  0  0  0  0  0  0
   40.6850   22.9770   35.0250 N   0  0  0  0  0  0  0  0  0  0  0  0
   41.3870   21.8660   35.3050 C   0  0  0  0  0  0  0  0  0  0  0  0
   41.4170   21.4000   36.5680 N   0  0  0  0  0  0  0  0  0  0  0  0
   39.2640   24.8440   35.6010 N   0  0  0  0  0  0  0  0  0  0  0  0
   37.9240   24.8640   35.5950 C   0  0  0  0  0  0  0  0  0  0  0  0
   37.5730   26.1250   35.2150 C   0  0  0  0  0  0  0  0  0  0  0  0
   38.6880   26.8560   34.9940 N   0  0  0  0  0  0  0  0  0  0  0  0
   39.7570   26.0520   35.2360 C   0  0  0  0  0  0  0  0  0  0  0  0
   42.1350   21.1370   34.2490 C   0  0  0  0  0  0  0  0  0  0  0  0
   41.2740   20.7620   33.2260 F   0  0  0  0  0  0  0  0  0  0  0  0
   43.1420   21.9390   33.7470 F   0  0  0  0  0  0  0  0  0  0  0  0
   42.7000   19.9610   34.7020 F   0  0  0  0  0  0  0  0  0  0  0  0
   40.7869   21.6477   38.5667 H   0  0  0  0  0  0  0  0  0  0  0  0
   39.4585   23.7347   38.0695 H   0  0  0  0  0  0  0  0  0  0  0  0
   37.2470   24.0339   35.8452 H   0  0  0  0  0  0  0  0  0  0  0  0
   36.5416   26.4911   35.1052 H   0  0  0  0  0  0  0  0  0  0  0  0
   40.8182   26.3289   35.1517 H   0  0  0  0  0  0  0  0  0  0  0  0
  2  1  2  0
  3  2  1  0
  4  5  1  0
  4  3  2  0
  5  6  2  0
  6  1  1  0
  7  3  1  0
  8  7  1  0
  9  8  2  0
 10  9  1  0
 10 11  2  0
 11  7  1  0
 12 15  1  0
 12  5  1  0
 13 12  1  0
 14 12  1  0
  1 16  1  0
  2 17  1  0
  8 18  1  0
  9 19  1  0
 11 20  1  0
M  ISO  5  16  14  17  14  18  14  19  14  20  14
M  END
>  <minimizedAffinity>  (1) 
-3.04507565

>  <minimizedRMSD>  (1) 
1.15542459

$$$$
