
     RDKit          3D

 23 24  0  0  0  0  0  0  0  0999 V2000
   42.1580   21.0850   37.3140 C   0  0  0  0  0  0  0  0  0  0  0  0
   41.0790   21.9720   37.4800 C   0  0  0  0  0  0  0  0  0  0  0  0
   40.4460   22.4560   36.3290 C   0  0  0  0  0  0  0  0  0  0  0  0
   40.9140   22.0380   35.1400 N   0  0  0  0  0  0  0  0  0  0  0  0
   41.9490   21.1860   34.9930 C   0  0  0  0  0  0  0  0  0  0  0  0
   42.5680   20.7120   36.0900 N   0  0  0  0  0  0  0  0  0  0  0  0
   39.3430   23.3620   36.4170 N   0  0  0  0  0  0  0  0  0  0  0  0
   38.1560   22.9540   36.8900 C   0  0  0  0  0  0  0  0  0  0  0  0
   37.3440   24.0440   36.8390 C   0  0  0  0  0  0  0  0  0  0  0  0
   38.0360   25.0810   36.3420 N   0  0  0  0  0  0  0  0  0  0  0  0
   39.3130   24.6600   36.0690 C   0  0  0  0  0  0  0  0  0  0  0  0
   42.3200   20.8410   33.5960 C   0  0  0  0  0  0  0  0  0  0  0  0
   41.0680   20.8190   32.7540 C   0  0  0  0  0  0  0  0  0  0  0  0
   42.6748   20.6901   38.2011 H   0  0  0  0  0  0  0  0  0  0  0  0
   40.7432   22.2757   38.4825 H   0  0  0  0  0  0  0  0  0  0  0  0
   37.8936   21.9466   37.2455 H   0  0  0  0  0  0  0  0  0  0  0  0
   36.2905   24.0712   37.1542 H   0  0  0  0  0  0  0  0  0  0  0  0
   40.1375   25.2579   35.6534 H   0  0  0  0  0  0  0  0  0  0  0  0
   43.0180   21.5942   33.2017 H   0  0  0  0  0  0  0  0  0  0  0  0
   42.8063   19.8546   33.5702 H   0  0  0  0  0  0  0  0  0  0  0  0
   40.1852   20.8035   33.4100 H   0  0  0  0  0  0  0  0  0  0  0  0
   41.0373   21.7167   32.1191 H   0  0  0  0  0  0  0  0  0  0  0  0
   41.0689   19.9207   32.1191 H   0  0  0  0  0  0  0  0  0  0  0  0
  1  2  2  0
  3  7  1  0
  3  2  1  0
  4  3  2  0
  5  4  1  0
  5  6  2  0
  6  1  1  0
  7  8  1  0
  9  8  2  0
 10  9  1  0
 11 10  2  0
 11  7  1  0
 12  5  1  0
 13 12  1  0
  1 14  1  0
  2 15  1  0
  8 16  1  0
  9 17  1  0
 11 18  1  0
 12 19  1  0
 12 20  1  0
 13 21  1  0
 13 22  1  0
 13 23  1  0
M  ISO  8  14  14  15  14  16  14  17  14  18  14  19   8  20   8  21   8
M  ISO  2  22   8  23   8
M  END
>  <minimizedAffinity>  (1) 
-2.8993752

>  <minimizedRMSD>  (1) 
0.88220191

$$$$
