
     RDKit          3D

 33 36  0  0  0  0  0  0  0  0999 V2000
   40.2020   22.6350   37.1670 C   0  0  0  0  0  0  0  0  0  0  0  0
   39.5750   23.5560   36.2980 C   0  0  0  0  0  0  0  0  0  0  0  0
   40.4180   24.2870   35.4870 C   0  0  0  0  0  0  0  0  0  0  0  0
   41.7310   24.0570   35.5990 N   0  0  0  0  0  0  0  0  0  0  0  0
   42.3300   23.1900   36.4170 C   0  0  0  0  0  0  0  0  0  0  0  0
   41.5210   22.4770   37.2070 N   0  0  0  0  0  0  0  0  0  0  0  0
   39.9160   25.2620   34.5580 N   0  0  0  0  0  0  0  0  0  0  0  0
   39.2470   24.8910   33.4620 C   0  0  0  0  0  0  0  0  0  0  0  0
   38.9230   26.0570   32.8200 C   0  0  0  0  0  0  0  0  0  0  0  0
   39.3910   27.0920   33.5230 N   0  0  0  0  0  0  0  0  0  0  0  0
   40.0210   26.6130   34.6240 C   0  0  0  0  0  0  0  0  0  0  0  0
   43.7820   23.1920   36.2830 C   0  0  0  0  0  0  0  0  0  0  0  0
   44.4260   22.2910   35.4650 C   0  0  0  0  0  0  0  0  0  0  0  0
   45.7910   22.2450   35.2990 C   0  0  0  0  0  0  0  0  0  0  0  0
   46.6070   23.1300   35.9650 C   0  0  0  0  0  0  0  0  0  0  0  0
   46.0020   24.0480   36.7930 C   0  0  0  0  0  0  0  0  0  0  0  0
   46.8270   24.9270   37.4540 C   0  0  0  0  0  0  0  0  0  0  0  0
   46.3050   25.8790   38.3020 C   0  0  0  0  0  0  0  0  0  0  0  0
   44.9140   25.9000   38.4490 C   0  0  0  0  0  0  0  0  0  0  0  0
   44.1420   24.9910   37.7590 C   0  0  0  0  0  0  0  0  0  0  0  0
   44.6430   24.0440   36.9180 C   0  0  0  0  0  0  0  0  0  0  0  0
   39.5752   22.0262   37.8352 H   0  0  0  0  0  0  0  0  0  0  0  0
   38.4826   23.6822   36.2700 H   0  0  0  0  0  0  0  0  0  0  0  0
   39.0072   23.8660   33.1429 H   0  0  0  0  0  0  0  0  0  0  0  0
   38.3654   26.1295   31.8746 H   0  0  0  0  0  0  0  0  0  0  0  0
   40.5166   27.2005   35.4109 H   0  0  0  0  0  0  0  0  0  0  0  0
   43.8128   21.5648   34.9113 H   0  0  0  0  0  0  0  0  0  0  0  0
   46.2337   21.4941   34.6280 H   0  0  0  0  0  0  0  0  0  0  0  0
   47.6997   23.1049   35.8407 H   0  0  0  0  0  0  0  0  0  0  0  0
   47.9152   24.8695   37.3042 H   0  0  0  0  0  0  0  0  0  0  0  0
   46.9516   26.5892   38.8383 H   0  0  0  0  0  0  0  0  0  0  0  0
   44.4391   26.6383   39.1119 H   0  0  0  0  0  0  0  0  0  0  0  0
   43.0514   25.0328   37.8961 H   0  0  0  0  0  0  0  0  0  0  0  0
  1  6  2  0
  2  1  1  0
  3  4  1  0
  3  2  2  0
  4  5  2  0
  5  6  1  0
  7 11  1  0
  7  3  1  0
  8  7  1  0
  9  8  2  0
  9 10  1  0
 10 11  2  0
 12  5  1  0
 12 21  1  0
 13 12  2  0
 14 13  1  0
 14 15  2  0
 15 16  1  0
 16 21  2  0
 16 17  1  0
 17 18  2  0
 18 19  1  0
 20 19  2  0
 21 20  1  0
  1 22  1  0
  2 23  1  0
  8 24  1  0
  9 25  1  0
 11 26  1  0
 13 27  1  0
 14 28  1  0
 15 29  1  0
 17 30  1  0
 18 31  1  0
 19 32  1  0
 20 33  1  0
M  ISO  8  22  14  23  14  24  14  25  14  26  14  27  14  28  14  29  14
M  ISO  4  30  14  31  14  32  14  33  14
M  END
>  <minimizedAffinity>  (1) 
-5.36978579

>  <minimizedRMSD>  (1) 
4.38892889

$$$$
