
     RDKit          3D

 48 52  0  0  0  0  0  0  0  0999 V2000
   43.1340   21.3070   35.2630 C   0  0  0  0  0  0  0  0  0  0  0  0
   44.2210   22.0730   35.7030 C   0  0  0  0  0  0  0  0  0  0  0  0
   43.9370   23.1970   36.4280 C   0  0  0  0  0  0  0  0  0  0  0  0
   42.6610   23.4140   36.6210 N   0  0  0  0  0  0  0  0  0  0  0  0
   41.5880   22.7570   36.2510 C   0  0  0  0  0  0  0  0  0  0  0  0
   41.8870   21.6430   35.5290 N   0  0  0  0  0  0  0  0  0  0  0  0
   40.3310   23.2740   36.6560 C   0  0  0  0  0  0  0  0  0  0  0  0
   39.8180   22.8640   37.8820 C   0  0  0  0  0  0  0  0  0  0  0  0
   38.6090   23.3080   38.3940 C   0  0  0  0  0  0  0  0  0  0  0  0
   37.8550   24.1960   37.6820 C   0  0  0  0  0  0  0  0  0  0  0  0
   38.3580   24.6140   36.4550 C   0  0  0  0  0  0  0  0  0  0  0  0
   37.5800   25.4800   35.7570 C   0  0  0  0  0  0  0  0  0  0  0  0
   37.9800   25.9230   34.5320 C   0  0  0  0  0  0  0  0  0  0  0  0
   39.1790   25.4550   34.0650 C   0  0  0  0  0  0  0  0  0  0  0  0
   39.9710   24.5700   34.7870 C   0  0  0  0  0  0  0  0  0  0  0  0
   39.5500   24.1490   35.9920 C   0  0  0  0  0  0  0  0  0  0  0  0
   41.2380   24.2350   34.0780 C   0  0  0  0  0  0  0  0  0  0  0  0
   41.2550   24.9770   32.8190 F   0  0  0  0  0  0  0  0  0  0  0  0
   42.2750   25.0900   34.4300 F   0  0  0  0  0  0  0  0  0  0  0  0
   41.3460   23.1860   33.3180 F   0  0  0  0  0  0  0  0  0  0  0  0
   44.9470   24.0650   36.9060 N   0  0  0  0  0  0  0  0  0  0  0  0
   44.6430   25.1930   37.5380 C   0  0  0  0  0  0  0  0  0  0  0  0
   45.8300   25.8060   37.8600 C   0  0  0  0  0  0  0  0  0  0  0  0
   46.8350   25.0330   37.4160 N   0  0  0  0  0  0  0  0  0  0  0  0
   46.2910   23.9590   36.8270 C   0  0  0  0  0  0  0  0  0  0  0  0
   47.0810   22.9510   36.2560 N   0  0  0  0  0  0  0  0  0  0  0  0
   48.4170   22.3420   36.4210 C   0  0  0  0  0  0  0  0  0  0  0  0
   48.1230   20.8720   36.6490 C   0  0  0  0  0  0  0  0  0  0  0  0
   46.9810   20.6660   35.6590 C   0  0  0  0  0  0  0  0  0  0  0  0
   46.6490   22.0650   35.1670 C   0  0  0  0  0  0  0  0  0  0  0  0
   43.3267   20.3963   34.6770 H   0  0  0  0  0  0  0  0  0  0  0  0
   45.2574   21.7831   35.4753 H   0  0  0  0  0  0  0  0  0  0  0  0
   40.4037   22.1484   38.4777 H   0  0  0  0  0  0  0  0  0  0  0  0
   38.2579   22.9459   39.3715 H   0  0  0  0  0  0  0  0  0  0  0  0
   36.8911   24.5649   38.0627 H   0  0  0  0  0  0  0  0  0  0  0  0
   36.6252   25.8247   36.1808 H   0  0  0  0  0  0  0  0  0  0  0  0
   37.3680   26.6241   33.9455 H   0  0  0  0  0  0  0  0  0  0  0  0
   39.5296   25.7930   33.0787 H   0  0  0  0  0  0  0  0  0  0  0  0
   43.6325   25.5659   37.7613 H   0  0  0  0  0  0  0  0  0  0  0  0
   45.9385   26.7639   38.3897 H   0  0  0  0  0  0  0  0  0  0  0  0
   49.0259   22.4834   35.5159 H   0  0  0  0  0  0  0  0  0  0  0  0
   48.9894   22.7926   37.2452 H   0  0  0  0  0  0  0  0  0  0  0  0
   48.9907   20.2410   36.4065 H   0  0  0  0  0  0  0  0  0  0  0  0
   47.8842   20.6061   37.6893 H   0  0  0  0  0  0  0  0  0  0  0  0
   47.3009   20.0255   34.8238 H   0  0  0  0  0  0  0  0  0  0  0  0
   46.1146   20.1664   36.1170 H   0  0  0  0  0  0  0  0  0  0  0  0
   47.1975   22.2916   34.2408 H   0  0  0  0  0  0  0  0  0  0  0  0
   45.5810   22.1826   34.9313 H   0  0  0  0  0  0  0  0  0  0  0  0
  1  6  2  0
  1  2  1  0
  2  3  2  0
  3  4  1  0
  3 21  1  0
  5  4  2  0
  5  7  1  0
  6  5  1  0
  7  8  2  0
  8  9  1  0
 10  9  2  0
 11 10  1  0
 12 11  2  0
 13 12  1  0
 14 13  2  0
 14 15  1  0
 15 16  2  0
 16 11  1  0
 16  7  1  0
 17 19  1  0
 17 15  1  0
 18 17  1  0
 20 17  1  0
 21 22  1  0
 22 23  2  0
 24 23  1  0
 25 21  1  0
 25 24  2  0
 26 27  1  0
 26 25  1  0
 27 28  1  0
 29 28  1  0
 30 29  1  0
 30 26  1  0
  1 31  1  0
  2 32  1  0
  8 33  1  0
  9 34  1  0
 10 35  1  0
 12 36  1  0
 13 37  1  0
 14 38  1  0
 22 39  1  0
 23 40  1  0
 27 41  1  0
 27 42  1  0
 28 43  1  0
 28 44  1  0
 29 45  1  0
 29 46  1  0
 30 47  1  0
 30 48  1  0
M  ISO  8  31  14  32  14  33  14  34  14  35  14  36  14  37  14  38  14
M  ISO  8  39  14  40  14  41  13  42  13  43  13  44  13  45  13  46  13
M  ISO  2  47  13  48  13
M  END
>  <minimizedAffinity>  (1) 
-5.95850229

>  <minimizedRMSD>  (1) 
0.206850886

$$$$
