
     RDKit          3D

 43 47  0  0  0  0  0  0  0  0999 V2000
   43.1260   21.2840   35.2940 C   0  0  0  0  0  0  0  0  0  0  0  0
   44.2110   22.0750   35.6930 C   0  0  0  0  0  0  0  0  0  0  0  0
   43.9240   23.2130   36.3910 C   0  0  0  0  0  0  0  0  0  0  0  0
   42.6500   23.4200   36.6010 N   0  0  0  0  0  0  0  0  0  0  0  0
   41.5780   22.7430   36.2680 C   0  0  0  0  0  0  0  0  0  0  0  0
   41.8810   21.6120   35.5720 N   0  0  0  0  0  0  0  0  0  0  0  0
   40.3210   23.2590   36.6780 C   0  0  0  0  0  0  0  0  0  0  0  0
   39.8190   22.8540   37.9090 C   0  0  0  0  0  0  0  0  0  0  0  0
   38.6100   23.2950   38.4250 C   0  0  0  0  0  0  0  0  0  0  0  0
   37.8500   24.1720   37.7120 C   0  0  0  0  0  0  0  0  0  0  0  0
   38.3430   24.5850   36.4780 C   0  0  0  0  0  0  0  0  0  0  0  0
   37.5530   25.4420   35.7790 C   0  0  0  0  0  0  0  0  0  0  0  0
   37.9430   25.8820   34.5440 C   0  0  0  0  0  0  0  0  0  0  0  0
   39.1460   25.4160   34.0770 C   0  0  0  0  0  0  0  0  0  0  0  0
   39.9480   24.5400   34.8020 C   0  0  0  0  0  0  0  0  0  0  0  0
   39.5360   24.1230   36.0140 C   0  0  0  0  0  0  0  0  0  0  0  0
   41.2120   24.2070   34.0900 C   0  0  0  0  0  0  0  0  0  0  0  0
   41.2080   24.9250   32.8140 F   0  0  0  0  0  0  0  0  0  0  0  0
   42.2410   25.0780   34.4130 F   0  0  0  0  0  0  0  0  0  0  0  0
   41.3200   23.1460   33.3460 F   0  0  0  0  0  0  0  0  0  0  0  0
   44.9320   24.1020   36.8300 N   0  0  0  0  0  0  0  0  0  0  0  0
   44.6350   25.3310   37.2380 C   0  0  0  0  0  0  0  0  0  0  0  0
   45.8170   25.9390   37.5850 C   0  0  0  0  0  0  0  0  0  0  0  0
   46.8110   25.0650   37.3780 N   0  0  0  0  0  0  0  0  0  0  0  0
   46.2690   23.9320   36.9130 C   0  0  0  0  0  0  0  0  0  0  0  0
   47.0440   22.8140   36.5950 N   0  0  0  0  0  0  0  0  0  0  0  0
   46.9000   21.6710   35.9080 N   0  0  0  0  0  0  0  0  0  0  0  0
   48.0320   20.9640   35.9970 C   0  0  0  0  0  0  0  0  0  0  0  0
   48.9630   21.6620   36.7710 C   0  0  0  0  0  0  0  0  0  0  0  0
   48.3010   22.8390   37.1380 C   0  0  0  0  0  0  0  0  0  0  0  0
   43.3199   20.3594   34.7305 H   0  0  0  0  0  0  0  0  0  0  0  0
   45.2470   21.7923   35.4549 H   0  0  0  0  0  0  0  0  0  0  0  0
   40.4125   22.1458   38.5058 H   0  0  0  0  0  0  0  0  0  0  0  0
   38.2658   22.9378   39.4068 H   0  0  0  0  0  0  0  0  0  0  0  0
   36.8865   24.5386   38.0957 H   0  0  0  0  0  0  0  0  0  0  0  0
   36.5986   25.7823   36.2071 H   0  0  0  0  0  0  0  0  0  0  0  0
   37.3235   26.5744   33.9551 H   0  0  0  0  0  0  0  0  0  0  0  0
   39.4912   25.7491   33.0871 H   0  0  0  0  0  0  0  0  0  0  0  0
   43.6311   25.7778   37.2885 H   0  0  0  0  0  0  0  0  0  0  0  0
   45.9280   26.9648   37.9664 H   0  0  0  0  0  0  0  0  0  0  0  0
   48.2040   19.9822   35.5316 H   0  0  0  0  0  0  0  0  0  0  0  0
   49.9863   21.3551   37.0329 H   0  0  0  0  0  0  0  0  0  0  0  0
   48.7190   23.6465   37.7570 H   0  0  0  0  0  0  0  0  0  0  0  0
  1  6  2  0
  1  2  1  0
  2  3  2  0
  3  4  1  0
  3 21  1  0
  5  4  2  0
  5  7  1  0
  6  5  1  0
  7  8  2  0
  8  9  1  0
 10  9  2  0
 11 10  1  0
 12 11  2  0
 13 12  1  0
 14 13  2  0
 14 15  1  0
 15 16  2  0
 16 11  1  0
 16  7  1  0
 17 19  1  0
 17 15  1  0
 18 17  1  0
 20 17  1  0
 21 25  1  0
 21 22  1  0
 22 23  2  0
 24 23  1  0
 25 24  2  0
 26 25  1  0
 26 30  1  0
 27 28  2  0
 27 26  1  0
 28 29  1  0
 29 30  2  0
  1 31  1  0
  2 32  1  0
  8 33  1  0
  9 34  1  0
 10 35  1  0
 12 36  1  0
 13 37  1  0
 14 38  1  0
 22 39  1  0
 23 40  1  0
 28 41  1  0
 29 42  1  0
 30 43  1  0
M  ISO  8  31  14  32  14  33  14  34  14  35  14  36  14  37  14  38  14
M  ISO  5  39  14  40  14  41  14  42  14  43  14
M  END
>  <minimizedAffinity>  (1) 
-5.94527626

>  <minimizedRMSD>  (1) 
0.429729432

$$$$
