
     RDKit          3D

 39 42  0  0  0  0  0  0  0  0999 V2000
   40.5960   23.5200   36.4510 C   0  0  0  0  0  0  0  0  0  0  0  0
   40.0320   22.7780   37.4800 C   0  0  0  0  0  0  0  0  0  0  0  0
   38.7530   22.9860   37.9620 C   0  0  0  0  0  0  0  0  0  0  0  0
   37.9770   23.9640   37.4180 C   0  0  0  0  0  0  0  0  0  0  0  0
   38.5260   24.7160   36.3830 C   0  0  0  0  0  0  0  0  0  0  0  0
   37.7160   25.6640   35.8430 C   0  0  0  0  0  0  0  0  0  0  0  0
   38.1640   26.4270   34.8040 C   0  0  0  0  0  0  0  0  0  0  0  0
   39.4340   26.1860   34.3560 C   0  0  0  0  0  0  0  0  0  0  0  0
   40.2590   25.2090   34.9230 C   0  0  0  0  0  0  0  0  0  0  0  0
   39.7910   24.4700   35.9470 C   0  0  0  0  0  0  0  0  0  0  0  0
   43.6740   22.1980   34.8650 C   0  0  0  0  0  0  0  0  0  0  0  0
   44.6410   22.9000   35.6010 C   0  0  0  0  0  0  0  0  0  0  0  0
   44.2010   23.7570   36.5660 C   0  0  0  0  0  0  0  0  0  0  0  0
   42.9010   23.8190   36.6840 N   0  0  0  0  0  0  0  0  0  0  0  0
   41.9260   23.2160   36.0560 C   0  0  0  0  0  0  0  0  0  0  0  0
   42.3810   22.3570   35.0900 N   0  0  0  0  0  0  0  0  0  0  0  0
   45.0780   24.5290   37.3500 N   0  0  0  0  0  0  0  0  0  0  0  0
   44.6400   25.4670   38.1890 C   0  0  0  0  0  0  0  0  0  0  0  0
   45.7150   26.0590   38.7640 C   0  0  0  0  0  0  0  0  0  0  0  0
   46.8050   25.4780   38.2760 N   0  0  0  0  0  0  0  0  0  0  0  0
   46.4250   24.5280   37.4010 C   0  0  0  0  0  0  0  0  0  0  0  0
   47.3940   23.6960   36.6960 C   0  0  0  0  0  0  0  0  0  0  0  0
   47.3530   22.3440   36.9490 F   0  0  0  0  0  0  0  0  0  0  0  0
   48.7040   23.9690   37.2370 F   0  0  0  0  0  0  0  0  0  0  0  0
   47.6420   24.0500   35.3840 F   0  0  0  0  0  0  0  0  0  0  0  0
   41.6000   25.1630   34.2860 C   0  0  0  0  0  0  0  0  0  0  0  0
   41.6480   26.2110   33.2630 F   0  0  0  0  0  0  0  0  0  0  0  0
   42.5250   25.9600   34.9370 F   0  0  0  0  0  0  0  0  0  0  0  0
   41.8630   24.3630   33.2940 F   0  0  0  0  0  0  0  0  0  0  0  0
   40.6362   21.9805   37.9371 H   0  0  0  0  0  0  0  0  0  0  0  0
   38.3638   22.3641   38.7816 H   0  0  0  0  0  0  0  0  0  0  0  0
   36.9563   24.1524   37.7822 H   0  0  0  0  0  0  0  0  0  0  0  0
   36.7023   25.8160   36.2421 H   0  0  0  0  0  0  0  0  0  0  0  0
   37.5315   27.2021   34.3466 H   0  0  0  0  0  0  0  0  0  0  0  0
   39.8213   26.7836   33.5176 H   0  0  0  0  0  0  0  0  0  0  0  0
   44.0000   21.4981   34.0815 H   0  0  0  0  0  0  0  0  0  0  0  0
   45.7151   22.7638   35.4064 H   0  0  0  0  0  0  0  0  0  0  0  0
   43.5865   25.7178   38.3818 H   0  0  0  0  0  0  0  0  0  0  0  0
   45.6893   26.8741   39.5022 H   0  0  0  0  0  0  0  0  0  0  0  0
  1  2  2  0
  2  3  1  0
  4  3  2  0
  5  4  1  0
  6  5  2  0
  7  6  1  0
  8  7  2  0
  8  9  1  0
  9 10  2  0
 10  5  1  0
 10  1  1  0
 11 16  2  0
 11 12  1  0
 12 13  2  0
 13 14  1  0
 13 17  1  0
 15  1  1  0
 15 14  2  0
 16 15  1  0
 17 21  1  0
 17 18  1  0
 18 19  2  0
 20 19  1  0
 21 20  2  0
 22 23  1  0
 22 24  1  0
 22 21  1  0
 25 22  1  0
 26  9  1  0
 26 28  1  0
 27 26  1  0
 29 26  1  0
  2 30  1  0
  3 31  1  0
  4 32  1  0
  6 33  1  0
  7 34  1  0
  8 35  1  0
 11 36  1  0
 12 37  1  0
 18 38  1  0
 19 39  1  0
M  ISO  8  30  14  31  14  32  14  33  14  34  14  35  14  36  14  37  14
M  ISO  2  38  14  39  14
M  END
>  <minimizedAffinity>  (1) 
-5.67661524

>  <minimizedRMSD>  (1) 
0.993303537

$$$$
