
     RDKit          3D

 37 40  0  0  0  0  0  0  0  0999 V2000
   40.3650   23.2700   36.6600 C   0  0  0  0  0  0  0  0  0  0  0  0
   39.8590   22.8600   37.8890 C   0  0  0  0  0  0  0  0  0  0  0  0
   38.6490   23.3050   38.4080 C   0  0  0  0  0  0  0  0  0  0  0  0
   37.8880   24.1950   37.6990 C   0  0  0  0  0  0  0  0  0  0  0  0
   38.3870   24.6090   36.4660 C   0  0  0  0  0  0  0  0  0  0  0  0
   37.6030   25.4700   35.7740 C   0  0  0  0  0  0  0  0  0  0  0  0
   37.9900   25.9080   34.5440 C   0  0  0  0  0  0  0  0  0  0  0  0
   39.1850   25.4420   34.0660 C   0  0  0  0  0  0  0  0  0  0  0  0
   39.9890   24.5590   34.7900 C   0  0  0  0  0  0  0  0  0  0  0  0
   39.5760   24.1410   36.0060 C   0  0  0  0  0  0  0  0  0  0  0  0
   43.1670   21.3230   35.2490 C   0  0  0  0  0  0  0  0  0  0  0  0
   44.2600   22.0860   35.6850 C   0  0  0  0  0  0  0  0  0  0  0  0
   43.9670   23.2070   36.4180 C   0  0  0  0  0  0  0  0  0  0  0  0
   42.6880   23.4230   36.6210 N   0  0  0  0  0  0  0  0  0  0  0  0
   41.6170   22.7620   36.2510 C   0  0  0  0  0  0  0  0  0  0  0  0
   41.9220   21.6540   35.5230 N   0  0  0  0  0  0  0  0  0  0  0  0
   44.9810   24.0770   36.8940 N   0  0  0  0  0  0  0  0  0  0  0  0
   44.6710   25.2000   37.5370 C   0  0  0  0  0  0  0  0  0  0  0  0
   45.8590   25.8110   37.8580 C   0  0  0  0  0  0  0  0  0  0  0  0
   46.8670   25.0480   37.4040 N   0  0  0  0  0  0  0  0  0  0  0  0
   46.3270   23.9730   36.8060 C   0  0  0  0  0  0  0  0  0  0  0  0
   47.0290   22.9420   36.2050 O   0  0  0  0  0  0  0  0  0  0  0  0
   41.2490   24.2250   34.0750 C   0  0  0  0  0  0  0  0  0  0  0  0
   41.2550   24.9660   32.8110 F   0  0  0  0  0  0  0  0  0  0  0  0
   42.2880   25.0820   34.4160 F   0  0  0  0  0  0  0  0  0  0  0  0
   41.3550   23.1790   33.3120 F   0  0  0  0  0  0  0  0  0  0  0  0
   40.4482   22.1451   38.4821 H   0  0  0  0  0  0  0  0  0  0  0  0
   38.3032   22.9425   39.3873 H   0  0  0  0  0  0  0  0  0  0  0  0
   36.9271   24.5660   38.0850 H   0  0  0  0  0  0  0  0  0  0  0  0
   36.6524   25.8159   36.2062 H   0  0  0  0  0  0  0  0  0  0  0  0
   37.3702   26.6049   33.9608 H   0  0  0  0  0  0  0  0  0  0  0  0
   39.5248   25.7755   33.0744 H   0  0  0  0  0  0  0  0  0  0  0  0
   43.3563   20.4155   34.6569 H   0  0  0  0  0  0  0  0  0  0  0  0
   45.2963   21.8005   35.4515 H   0  0  0  0  0  0  0  0  0  0  0  0
   43.6601   25.5677   37.7669 H   0  0  0  0  0  0  0  0  0  0  0  0
   45.9666   26.7644   38.3961 H   0  0  0  0  0  0  0  0  0  0  0  0
   48.0188   22.9582   36.1930 H   0  0  0  0  0  0  0  0  0  0  0  0
  1  2  2  0
  2  3  1  0
  4  3  2  0
  5  4  1  0
  6  5  2  0
  7  6  1  0
  8  7  2  0
  8  9  1  0
  9 10  2  0
 10  5  1  0
 10  1  1  0
 11 16  2  0
 11 12  1  0
 12 13  2  0
 13 14  1  0
 13 17  1  0
 15 14  2  0
 15  1  1  0
 16 15  1  0
 17 18  1  0
 18 19  2  0
 20 19  1  0
 21 17  1  0
 21 20  2  0
 22 21  1  0
 23 25  1  0
 23  9  1  0
 24 23  1  0
 26 23  1  0
  2 27  1  0
  3 28  1  0
  4 29  1  0
  6 30  1  0
  7 31  1  0
  8 32  1  0
 11 33  1  0
 12 34  1  0
 18 35  1  0
 19 36  1  0
 22 37  1  0
M  ISO  8  27  14  28  14  29  14  30  14  31  14  32  14  33  14  34  14
M  ISO  3  35  14  36  14  37   3
M  END
>  <minimizedAffinity>  (1) 
-5.64010572

>  <minimizedRMSD>  (1) 
0.147003725

$$$$
