
     RDKit          3D

 43 47  0  0  0  0  0  0  0  0999 V2000
   40.4820   23.8830   35.7440 C   0  0  0  0  0  0  0  0  0  0  0  0
   39.9190   22.8670   36.5080 C   0  0  0  0  0  0  0  0  0  0  0  0
   38.6560   22.9460   37.0740 C   0  0  0  0  0  0  0  0  0  0  0  0
   37.8940   24.0700   36.8910 C   0  0  0  0  0  0  0  0  0  0  0  0
   38.4480   25.0910   36.1270 C   0  0  0  0  0  0  0  0  0  0  0  0
   37.6670   26.1810   35.9380 C   0  0  0  0  0  0  0  0  0  0  0  0
   38.1150   27.2220   35.1750 C   0  0  0  0  0  0  0  0  0  0  0  0
   39.3650   27.0980   34.6310 C   0  0  0  0  0  0  0  0  0  0  0  0
   40.1640   25.9750   34.8340 C   0  0  0  0  0  0  0  0  0  0  0  0
   39.6940   24.9600   35.5930 C   0  0  0  0  0  0  0  0  0  0  0  0
   43.4760   23.0500   33.7400 C   0  0  0  0  0  0  0  0  0  0  0  0
   44.4890   23.4330   34.6340 C   0  0  0  0  0  0  0  0  0  0  0  0
   44.0950   23.9480   35.8340 C   0  0  0  0  0  0  0  0  0  0  0  0
   42.7990   24.0170   35.9990 N   0  0  0  0  0  0  0  0  0  0  0  0
   41.7870   23.6870   35.2320 C   0  0  0  0  0  0  0  0  0  0  0  0
   42.2000   23.1780   34.0380 N   0  0  0  0  0  0  0  0  0  0  0  0
   45.0200   24.3960   36.8030 N   0  0  0  0  0  0  0  0  0  0  0  0
   44.6670   25.2600   37.7490 C   0  0  0  0  0  0  0  0  0  0  0  0
   45.7690   25.5020   38.5220 C   0  0  0  0  0  0  0  0  0  0  0  0
   46.7860   24.7750   38.0320 N   0  0  0  0  0  0  0  0  0  0  0  0
   46.3240   24.0960   36.9740 C   0  0  0  0  0  0  0  0  0  0  0  0
   47.1580   23.2270   36.1660 C   0  0  0  0  0  0  0  0  0  0  0  0
   47.1630   21.7540   36.3190 C   0  0  0  0  0  0  0  0  0  0  0  0
   48.3180   22.4830   36.8410 C   0  0  0  0  0  0  0  0  0  0  0  0
   41.4900   26.0930   34.1680 C   0  0  0  0  0  0  0  0  0  0  0  0
   41.5790   27.4320   33.5880 F   0  0  0  0  0  0  0  0  0  0  0  0
   42.4690   26.5620   35.0340 F   0  0  0  0  0  0  0  0  0  0  0  0
   41.6880   25.6890   32.9480 F   0  0  0  0  0  0  0  0  0  0  0  0
   40.5069   21.9519   36.6721 H   0  0  0  0  0  0  0  0  0  0  0  0
   38.2660   22.1073   37.6694 H   0  0  0  0  0  0  0  0  0  0  0  0
   36.8890   24.1605   37.3289 H   0  0  0  0  0  0  0  0  0  0  0  0
   36.6697   26.2284   36.3998 H   0  0  0  0  0  0  0  0  0  0  0  0
   37.4999   28.1181   35.0057 H   0  0  0  0  0  0  0  0  0  0  0  0
   39.7540   27.9176   34.0089 H   0  0  0  0  0  0  0  0  0  0  0  0
   43.7567   22.6309   32.7625 H   0  0  0  0  0  0  0  0  0  0  0  0
   45.5531   23.3226   34.3779 H   0  0  0  0  0  0  0  0  0  0  0  0
   43.6686   25.7010   37.8857 H   0  0  0  0  0  0  0  0  0  0  0  0
   45.8142   26.1738   39.3918 H   0  0  0  0  0  0  0  0  0  0  0  0
   47.0154   23.9084   35.3143 H   0  0  0  0  0  0  0  0  0  0  0  0
   46.4599   21.2795   37.0194 H   0  0  0  0  0  0  0  0  0  0  0  0
   47.0467   20.9158   35.6162 H   0  0  0  0  0  0  0  0  0  0  0  0
   49.2929   22.4069   36.3372 H   0  0  0  0  0  0  0  0  0  0  0  0
   48.8289   22.5473   37.8130 H   0  0  0  0  0  0  0  0  0  0  0  0
  1  2  2  0
  2  3  1  0
  4  3  2  0
  5  4  1  0
  6  5  2  0
  7  6  1  0
  8  9  1  0
  8  7  2  0
  9 10  2  0
 10  1  1  0
 10  5  1  0
 11 16  2  0
 11 12  1  0
 12 13  2  0
 13 14  1  0
 13 17  1  0
 15  1  1  0
 15 14  2  0
 16 15  1  0
 17 21  1  0
 17 18  1  0
 18 19  2  0
 20 19  1  0
 21 20  2  0
 22 23  1  0
 22 24  1  0
 22 21  1  0
 23 24  1  0
 25  9  1  0
 25 27  1  0
 26 25  1  0
 28 25  1  0
  2 29  1  0
  3 30  1  0
  4 31  1  0
  6 32  1  0
  7 33  1  0
  8 34  1  0
 11 35  1  0
 12 36  1  0
 18 37  1  0
 19 38  1  0
 22 39  1  0
 23 40  1  0
 23 41  1  0
 24 42  1  0
 24 43  1  0
M  ISO  8  29  14  30  14  31  14  32  14  33  14  34  14  35  14  36  14
M  ISO  7  37  14  38  14  39  13  40  13  41  13  42  13  43  13
M  END
>  <minimizedAffinity>  (1) 
-5.63824606

>  <minimizedRMSD>  (1) 
1.52319789

$$$$
