
     RDKit          3D

 39 42  0  0  0  0  0  0  0  0999 V2000
   40.3320   23.3140   36.6180 C   0  0  0  0  0  0  0  0  0  0  0  0
   39.8090   22.8640   37.8260 C   0  0  0  0  0  0  0  0  0  0  0  0
   38.5950   23.2800   38.3340 C   0  0  0  0  0  0  0  0  0  0  0  0
   37.8330   24.1810   37.6440 C   0  0  0  0  0  0  0  0  0  0  0  0
   38.3450   24.6380   36.4310 C   0  0  0  0  0  0  0  0  0  0  0  0
   37.5600   25.5090   35.7490 C   0  0  0  0  0  0  0  0  0  0  0  0
   37.9650   25.9850   34.5360 C   0  0  0  0  0  0  0  0  0  0  0  0
   39.1730   25.5440   34.0670 C   0  0  0  0  0  0  0  0  0  0  0  0
   39.9720   24.6520   34.7780 C   0  0  0  0  0  0  0  0  0  0  0  0
   39.5460   24.1970   35.9740 C   0  0  0  0  0  0  0  0  0  0  0  0
   43.1700   21.4240   35.1970 C   0  0  0  0  0  0  0  0  0  0  0  0
   44.2440   22.1890   35.6770 C   0  0  0  0  0  0  0  0  0  0  0  0
   43.9400   23.2820   36.4310 C   0  0  0  0  0  0  0  0  0  0  0  0
   42.6600   23.4780   36.6130 N   0  0  0  0  0  0  0  0  0  0  0  0
   41.5970   22.8240   36.2110 C   0  0  0  0  0  0  0  0  0  0  0  0
   41.9170   21.7360   35.4580 N   0  0  0  0  0  0  0  0  0  0  0  0
   44.9330   24.1440   36.9430 N   0  0  0  0  0  0  0  0  0  0  0  0
   44.6200   25.2140   37.6590 C   0  0  0  0  0  0  0  0  0  0  0  0
   45.7880   25.8390   37.9960 C   0  0  0  0  0  0  0  0  0  0  0  0
   46.7910   25.1480   37.4860 N   0  0  0  0  0  0  0  0  0  0  0  0
   46.2750   24.0910   36.8280 C   0  0  0  0  0  0  0  0  0  0  0  0
   47.0960   23.1510   36.1220 C   0  0  0  0  0  0  0  0  0  0  0  0
   47.7390   22.5760   35.2400 O   0  0  0  0  0  0  0  0  0  0  0  0
   47.6350   22.0190   36.6880 O   0  0  0  0  0  0  0  0  0  0  0  0
   41.2520   24.3530   34.0750 C   0  0  0  0  0  0  0  0  0  0  0  0
   41.2660   25.1210   32.8310 F   0  0  0  0  0  0  0  0  0  0  0  0
   42.2700   25.2180   34.4500 F   0  0  0  0  0  0  0  0  0  0  0  0
   41.3830   23.3230   33.2950 F   0  0  0  0  0  0  0  0  0  0  0  0
   40.3948   22.1372   38.4079 H   0  0  0  0  0  0  0  0  0  0  0  0
   38.2395   22.8852   39.2972 H   0  0  0  0  0  0  0  0  0  0  0  0
   36.8624   24.5286   38.0277 H   0  0  0  0  0  0  0  0  0  0  0  0
   36.5977   25.8313   36.1734 H   0  0  0  0  0  0  0  0  0  0  0  0
   37.3484   26.6914   33.9609 H   0  0  0  0  0  0  0  0  0  0  0  0
   39.5263   25.9082   33.0910 H   0  0  0  0  0  0  0  0  0  0  0  0
   43.3810   20.5357   34.5834 H   0  0  0  0  0  0  0  0  0  0  0  0
   45.2865   21.9178   35.4540 H   0  0  0  0  0  0  0  0  0  0  0  0
   43.6055   25.5398   37.9323 H   0  0  0  0  0  0  0  0  0  0  0  0
   45.8772   26.7602   38.5905 H   0  0  0  0  0  0  0  0  0  0  0  0
   48.1943   21.4110   36.1424 H   0  0  0  0  0  0  0  0  0  0  0  0
  1  2  2  0
  2  3  1  0
  4  3  2  0
  5  4  1  0
  6  5  2  0
  7  6  1  0
  8  7  2  0
  8  9  1  0
  9 10  2  0
 10  5  1  0
 10  1  1  0
 11 16  2  0
 11 12  1  0
 12 13  2  0
 13 14  1  0
 13 17  1  0
 15 14  2  0
 15  1  1  0
 16 15  1  0
 17 18  1  0
 18 19  2  0
 20 19  1  0
 21 17  1  0
 21 20  2  0
 22 24  1  0
 22 21  1  0
 23 22  2  0
 25 27  1  0
 25  9  1  0
 26 25  1  0
 28 25  1  0
  2 29  1  0
  3 30  1  0
  4 31  1  0
  6 32  1  0
  7 33  1  0
  8 34  1  0
 11 35  1  0
 12 36  1  0
 18 37  1  0
 19 38  1  0
 24 39  1  0
M  ISO  8  29  14  30  14  31  14  32  14  33  14  34  14  35  14  36  14
M  ISO  3  37  14  38  14  39   3
M  END
>  <minimizedAffinity>  (1) 
-5.53224945

>  <minimizedRMSD>  (1) 
0.234014973

$$$$
