
     RDKit          3D

 35 37  0  0  1  0  0  0  0  0999 V2000
   37.5890   26.3420   33.4410 N   0  0  0  0  0  0  0  0  0  0  0  0
   37.2970   26.6760   34.8370 C   0  0  0  0  0  0  0  0  0  0  0  0
   38.7090   26.6990   35.4210 C   0  0  2  0  0  0  0  0  0  0  0  0
   39.6630   26.7020   34.2490 C   0  0  0  0  0  0  0  0  0  0  0  0
   38.7200   27.1900   33.1450 C   0  0  0  0  0  0  0  0  0  0  0  0
   36.9140   25.4060   32.5880 C   0  0  0  0  0  0  0  0  0  0  0  0
   37.2470   24.0470   32.5560 C   0  0  0  0  0  0  0  0  0  0  0  0
   36.5540   23.1930   31.7070 C   0  0  0  0  0  0  0  0  0  0  0  0
   35.5630   23.7510   30.9340 N   0  0  0  0  0  0  0  0  0  0  0  0
   35.2700   25.0570   30.9880 C   0  0  0  0  0  0  0  0  0  0  0  0
   35.9370   25.8890   31.8090 N   0  0  0  0  0  0  0  0  0  0  0  0
   38.9750   25.4960   36.1960 N   0  0  0  0  0  0  0  0  0  0  0  0
   37.6740   24.8310   36.3680 C   0  0  0  0  0  0  0  0  0  0  0  0
   37.8600   23.4010   36.8410 C   0  0  0  0  0  0  0  0  0  0  0  0
   39.1880   23.2810   37.2590 O   0  0  0  0  0  0  0  0  0  0  0  0
   39.9460   23.2640   36.0820 C   0  0  0  0  0  0  0  0  0  0  0  0
   39.7490   24.5680   35.3590 C   0  0  0  0  0  0  0  0  0  0  0  0
   36.8053   27.6560   34.9255 H   0  0  0  0  0  0  0  0  0  0  0  0
   36.6055   25.9829   35.3385 H   0  0  0  0  0  0  0  0  0  0  0  0
   38.8239   27.5764   36.0744 H   0  0  0  0  0  0  0  0  0  0  0  0
   40.5019   27.3958   34.4064 H   0  0  0  0  0  0  0  0  0  0  0  0
   40.1552   25.7391   34.0478 H   0  0  0  0  0  0  0  0  0  0  0  0
   39.1264   27.0034   32.1400 H   0  0  0  0  0  0  0  0  0  0  0  0
   38.5169   28.2710   33.1329 H   0  0  0  0  0  0  0  0  0  0  0  0
   38.0511   23.6581   33.1980 H   0  0  0  0  0  0  0  0  0  0  0  0
   36.7875   22.1193   31.6555 H   0  0  0  0  0  0  0  0  0  0  0  0
   34.4689   25.4570   30.3491 H   0  0  0  0  0  0  0  0  0  0  0  0
   37.0819   25.3833   37.1126 H   0  0  0  0  0  0  0  0  0  0  0  0
   37.1531   24.8178   35.3992 H   0  0  0  0  0  0  0  0  0  0  0  0
   37.1792   23.1880   37.6783 H   0  0  0  0  0  0  0  0  0  0  0  0
   37.6351   22.6873   36.0348 H   0  0  0  0  0  0  0  0  0  0  0  0
   41.0101   23.1357   36.3295 H   0  0  0  0  0  0  0  0  0  0  0  0
   39.6233   22.4296   35.4420 H   0  0  0  0  0  0  0  0  0  0  0  0
   40.7302   25.0118   35.1348 H   0  0  0  0  0  0  0  0  0  0  0  0
   39.2004   24.3826   34.4238 H   0  0  0  0  0  0  0  0  0  0  0  0
  1  2  1  0
  2  3  1  0
  3 12  1  0
  4  3  1  0
  5  1  1  0
  5  4  1  0
  6  1  1  0
  7  6  2  0
  8  7  1  0
  9 10  1  0
  9  8  2  0
 10 11  2  0
 11  6  1  0
 12 13  1  0
 13 14  1  0
 14 15  1  0
 16 15  1  0
 17 16  1  0
 17 12  1  0
  2 18  1  0
  2 19  1  0
  3 20  1  1
  4 21  1  0
  4 22  1  0
  5 23  1  0
  5 24  1  0
  7 25  1  0
  8 26  1  0
 10 27  1  0
 13 28  1  0
 13 29  1  0
 14 30  1  0
 14 31  1  0
 16 32  1  0
 16 33  1  0
 17 34  1  0
 17 35  1  0
M  ISO  8  18  13  19  13  20  13  21  13  22  13  23  13  24  13  25  14
M  ISO  8  26  14  27  14  28  13  29  13  30  13  31  13  32  13  33  13
M  ISO  2  34  13  35  13
M  END
>  <minimizedAffinity>  (1) 
-4.25741529

>  <minimizedRMSD>  (1) 
4.26919603

$$$$
