
     RDKit          3D

 32 34  0  0  1  0  0  0  0  0999 V2000
   38.3010   21.7320   32.7740 N   0  0  0  0  0  0  0  0  0  0  0  0
   37.7270   23.0440   32.9920 C   0  0  0  0  0  0  0  0  0  0  0  0
   38.0670   23.2960   34.4480 C   0  0  1  0  0  0  0  0  0  0  0  0
   39.0760   22.2430   34.8290 C   0  0  0  0  0  0  0  0  0  0  0  0
   39.5830   21.8290   33.4610 C   0  0  0  0  0  0  0  0  0  0  0  0
   37.7770   20.6120   32.0740 C   0  0  0  0  0  0  0  0  0  0  0  0
   36.4730   20.6010   31.5550 C   0  0  0  0  0  0  0  0  0  0  0  0
   35.9930   19.4880   30.8750 C   0  0  0  0  0  0  0  0  0  0  0  0
   36.8530   18.4340   30.7480 N   0  0  0  0  0  0  0  0  0  0  0  0
   38.1130   18.4660   31.2580 C   0  0  0  0  0  0  0  0  0  0  0  0
   38.5660   19.5400   31.9110 N   0  0  0  0  0  0  0  0  0  0  0  0
   38.4180   24.6600   34.7960 C   0  0  0  0  0  0  0  0  0  0  0  0
   37.9410   25.1610   36.0080 C   0  0  0  0  0  0  0  0  0  0  0  0
   38.2160   26.4570   36.4430 C   0  0  0  0  0  0  0  0  0  0  0  0
   38.9850   27.2740   35.6500 C   0  0  0  0  0  0  0  0  0  0  0  0
   39.4810   26.8290   34.4460 C   0  0  0  0  0  0  0  0  0  0  0  0
   39.1810   25.5310   34.0510 C   0  0  0  0  0  0  0  0  0  0  0  0
   38.1896   23.7970   32.3370 H   0  0  0  0  0  0  0  0  0  0  0  0
   36.6510   23.1008   32.7705 H   0  0  0  0  0  0  0  0  0  0  0  0
   37.1613   23.1966   35.0644 H   0  0  0  0  0  0  0  0  0  0  0  0
   39.8820   22.6604   35.4504 H   0  0  0  0  0  0  0  0  0  0  0  0
   38.6688   21.4187   35.4330 H   0  0  0  0  0  0  0  0  0  0  0  0
   40.1116   20.8648   33.4895 H   0  0  0  0  0  0  0  0  0  0  0  0
   40.3207   22.5032   33.0015 H   0  0  0  0  0  0  0  0  0  0  0  0
   35.8257   21.4804   31.6875 H   0  0  0  0  0  0  0  0  0  0  0  0
   34.9744   19.4573   30.4609 H   0  0  0  0  0  0  0  0  0  0  0  0
   38.7703   17.5932   31.1309 H   0  0  0  0  0  0  0  0  0  0  0  0
   37.3247   24.5088   36.6443 H   0  0  0  0  0  0  0  0  0  0  0  0
   37.8239   26.8191   37.4048 H   0  0  0  0  0  0  0  0  0  0  0  0
   39.2074   28.2987   35.9824 H   0  0  0  0  0  0  0  0  0  0  0  0
   40.0985   27.4834   33.8131 H   0  0  0  0  0  0  0  0  0  0  0  0
   39.5762   25.1787   33.0868 H   0  0  0  0  0  0  0  0  0  0  0  0
  1  2  1  0
  1  5  1  0
  2  3  1  0
  3 12  1  0
  3  4  1  0
  5  4  1  0
  6  1  1  0
  7  6  2  0
  8  7  1  0
  9  8  2  0
  9 10  1  0
 10 11  2  0
 11  6  1  0
 12 13  2  0
 13 14  1  0
 15 14  2  0
 16 15  1  0
 17 16  2  0
 17 12  1  0
  2 18  1  0
  2 19  1  0
  3 20  1  1
  4 21  1  0
  4 22  1  0
  5 23  1  0
  5 24  1  0
  7 25  1  0
  8 26  1  0
 10 27  1  0
 13 28  1  0
 14 29  1  0
 15 30  1  0
 16 31  1  0
 17 32  1  0
M  ISO  8  18  13  19  13  20  13  21  13  22  13  23  13  24  13  25  14
M  ISO  7  26  14  27  14  28  14  29  14  30  14  31  14  32  14
M  END
>  <minimizedAffinity>  (1) 
-4.04082823

>  <minimizedRMSD>  (1) 
4.62311125

$$$$
