
     RDKit          3D

 23 24  0  0  1  0  0  0  0  0999 V2000
   38.1530   23.6500   34.7880 N   0  0  0  0  0  0  0  0  0  0  0  0
   37.7070   22.9210   35.9800 C   0  0  0  0  0  0  0  0  0  0  0  0
   39.0270   22.7910   36.7600 C   0  0  1  0  0  0  0  0  0  0  0  0
   40.0080   23.6980   36.0600 C   0  0  0  0  0  0  0  0  0  0  0  0
   39.0530   24.6370   35.3370 C   0  0  0  0  0  0  0  0  0  0  0  0
   37.7780   23.4250   33.4270 C   0  0  0  0  0  0  0  0  0  0  0  0
   37.6780   22.1300   32.8900 C   0  0  0  0  0  0  0  0  0  0  0  0
   37.3070   21.9860   31.5540 C   0  0  0  0  0  0  0  0  0  0  0  0
   37.0620   23.1340   30.8460 N   0  0  0  0  0  0  0  0  0  0  0  0
   37.1690   24.3600   31.3980 C   0  0  0  0  0  0  0  0  0  0  0  0
   37.5250   24.5230   32.6830 N   0  0  0  0  0  0  0  0  0  0  0  0
   38.8440   23.3590   38.4540 S   0  0  0  0  0  0  0  0  0  0  0  0
   36.9583   23.4940   36.5467 H   0  0  0  0  0  0  0  0  0  0  0  0
   37.2126   21.9622   35.7649 H   0  0  0  0  0  0  0  0  0  0  0  0
   39.3514   21.7403   36.7892 H   0  0  0  0  0  0  0  0  0  0  0  0
   40.6436   24.2386   36.7768 H   0  0  0  0  0  0  0  0  0  0  0  0
   40.7237   23.1796   35.4050 H   0  0  0  0  0  0  0  0  0  0  0  0
   39.5589   25.2182   34.5519 H   0  0  0  0  0  0  0  0  0  0  0  0
   38.5858   25.4141   35.9598 H   0  0  0  0  0  0  0  0  0  0  0  0
   37.8884   21.2473   33.5118 H   0  0  0  0  0  0  0  0  0  0  0  0
   37.2148   20.9939   31.0880 H   0  0  0  0  0  0  0  0  0  0  0  0
   36.9599   25.2468   30.7817 H   0  0  0  0  0  0  0  0  0  0  0  0
   39.1711   22.3438   39.3139 H   0  0  0  0  0  0  0  0  0  0  0  0
  1  5  1  0
  1  2  1  0
  2  3  1  0
  3 12  1  0
  4  3  1  0
  5  4  1  0
  6  1  1  0
  7  6  2  0
  8  7  1  0
  9 10  1  0
  9  8  2  0
 10 11  2  0
 11  6  1  0
  2 13  1  0
  2 14  1  0
  3 15  1  1
  4 16  1  0
  4 17  1  0
  5 18  1  0
  5 19  1  0
  7 20  1  0
  8 21  1  0
 10 22  1  0
 12 23  1  0
M  ISO  8  13  13  14  13  15  13  16  13  17  13  18  13  19  13  20  14
M  ISO  3  21  14  22  14  23  11
M  END
>  <minimizedAffinity>  (1) 
-2.83744955

>  <minimizedRMSD>  (1) 
2.05697632

$$$$
