
     RDKit          3D

 28 29  0  0  1  0  0  0  0  0999 V2000
   38.2330   25.6560   33.7690 N   0  0  0  0  0  0  0  0  0  0  0  0
   37.7800   25.3580   35.1160 C   0  0  0  0  0  0  0  0  0  0  0  0
   38.2550   23.9300   35.3180 C   0  0  1  0  0  0  0  0  0  0  0  0
   39.1490   23.6280   34.1210 C   0  0  0  0  0  0  0  0  0  0  0  0
   39.5420   25.0440   33.7490 C   0  0  0  0  0  0  0  0  0  0  0  0
   37.5550   26.3660   32.7470 C   0  0  0  0  0  0  0  0  0  0  0  0
   36.4590   25.8410   32.0610 C   0  0  0  0  0  0  0  0  0  0  0  0
   35.8480   26.5890   31.0770 C   0  0  0  0  0  0  0  0  0  0  0  0
   36.3460   27.8370   30.8050 N   0  0  0  0  0  0  0  0  0  0  0  0
   37.4160   28.3280   31.4860 C   0  0  0  0  0  0  0  0  0  0  0  0
   38.0220   27.6000   32.4550 N   0  0  0  0  0  0  0  0  0  0  0  0
   39.0350   23.9100   36.5420 N   0  0  0  0  0  0  0  0  0  0  0  0
   38.4570   23.2800   37.6720 C   0  0  0  0  0  0  0  0  0  0  0  0
   39.2960   22.9520   38.7800 N   0  0  0  0  0  0  0  0  0  0  0  0
   37.2280   22.9860   37.7670 O   0  0  0  0  0  0  0  0  0  0  0  0
   38.2404   26.0369   35.8489 H   0  0  0  0  0  0  0  0  0  0  0  0
   36.6951   25.4808   35.2495 H   0  0  0  0  0  0  0  0  0  0  0  0
   37.4386   23.1967   35.3936 H   0  0  0  0  0  0  0  0  0  0  0  0
   40.0210   23.0190   34.4017 H   0  0  0  0  0  0  0  0  0  0  0  0
   38.6784   23.0430   33.3171 H   0  0  0  0  0  0  0  0  0  0  0  0
   40.0057   25.0949   32.7528 H   0  0  0  0  0  0  0  0  0  0  0  0
   40.2929   25.5130   34.4018 H   0  0  0  0  0  0  0  0  0  0  0  0
   36.0845   24.8357   32.3040 H   0  0  0  0  0  0  0  0  0  0  0  0
   34.9828   26.1943   30.5241 H   0  0  0  0  0  0  0  0  0  0  0  0
   37.7956   29.3322   31.2463 H   0  0  0  0  0  0  0  0  0  0  0  0
   39.9713   24.3368   36.5873 H   0  0  0  0  0  0  0  0  0  0  0  0
   38.8958   22.4938   39.6111 H   0  0  0  0  0  0  0  0  0  0  0  0
   40.3014   23.1736   38.7481 H   0  0  0  0  0  0  0  0  0  0  0  0
  1  2  1  0
  2  3  1  0
  3 12  1  0
  4  3  1  0
  5  1  1  0
  5  4  1  0
  6  1  1  0
  7  6  2  0
  8  7  1  0
  9  8  2  0
  9 10  1  0
 10 11  2  0
 11  6  1  0
 12 13  1  0
 13 15  2  0
 13 14  1  0
  2 16  1  0
  2 17  1  0
  3 18  1  1
  4 19  1  0
  4 20  1  0
  5 21  1  0
  5 22  1  0
  7 23  1  0
  8 24  1  0
 10 25  1  0
 12 26  1  0
 14 27  1  0
 14 28  1  0
M  ISO  8  16  13  17  13  18  13  19  13  20  13  21  13  22  13  23  14
M  ISO  2  24  14  25  14
M  END
>  <minimizedAffinity>  (1) 
-4.02196217

>  <minimizedRMSD>  (1) 
4.00587559

$$$$
