
     RDKit          3D

 30 31  0  0  1  0  0  0  0  0999 V2000
   37.7480   23.3440   33.8180 N   0  0  0  0  0  0  0  0  0  0  0  0
   38.5440   23.7860   34.9800 C   0  0  0  0  0  0  0  0  0  0  0  0
   38.0990   22.7770   36.0230 C   0  0  1  0  0  0  0  0  0  0  0  0
   37.2680   21.7260   35.3080 C   0  0  0  0  0  0  0  0  0  0  0  0
   37.8040   21.8780   33.9060 C   0  0  0  0  0  0  0  0  0  0  0  0
   37.0830   24.1560   32.8480 C   0  0  0  0  0  0  0  0  0  0  0  0
   36.3170   23.6040   31.8220 C   0  0  0  0  0  0  0  0  0  0  0  0
   35.7040   24.4490   30.9220 C   0  0  0  0  0  0  0  0  0  0  0  0
   35.8770   25.8130   31.0770 N   0  0  0  0  0  0  0  0  0  0  0  0
   36.6300   26.3020   32.0890 C   0  0  0  0  0  0  0  0  0  0  0  0
   37.2290   25.4800   32.9700 N   0  0  0  0  0  0  0  0  0  0  0  0
   39.2740   22.1380   36.5750 N   0  0  0  0  0  0  0  0  0  0  0  0
   39.8020   22.7710   37.7420 C   0  0  0  0  0  0  0  0  0  0  0  0
   38.7430   23.4030   38.6190 C   0  0  0  0  0  0  0  0  0  0  0  0
   39.6238   23.7158   34.7824 H   0  0  0  0  0  0  0  0  0  0  0  0
   38.3914   24.8372   35.2660 H   0  0  0  0  0  0  0  0  0  0  0  0
   37.5226   23.2613   36.8250 H   0  0  0  0  0  0  0  0  0  0  0  0
   37.4520   20.7181   35.7084 H   0  0  0  0  0  0  0  0  0  0  0  0
   36.1794   21.8516   35.4041 H   0  0  0  0  0  0  0  0  0  0  0  0
   37.1591   21.3917   33.1593 H   0  0  0  0  0  0  0  0  0  0  0  0
   38.7866   21.4220   33.7148 H   0  0  0  0  0  0  0  0  0  0  0  0
   36.2039   22.5135   31.7324 H   0  0  0  0  0  0  0  0  0  0  0  0
   35.0920   24.0486   30.1003 H   0  0  0  0  0  0  0  0  0  0  0  0
   36.7547   27.3899   32.1934 H   0  0  0  0  0  0  0  0  0  0  0  0
   39.0276   21.1682   36.8191 H   0  0  0  0  0  0  0  0  0  0  0  0
   40.3392   22.0158   38.3345 H   0  0  0  0  0  0  0  0  0  0  0  0
   40.4628   23.5808   37.3992 H   0  0  0  0  0  0  0  0  0  0  0  0
   39.0025   23.2481   39.6767 H   0  0  0  0  0  0  0  0  0  0  0  0
   38.6886   24.4814   38.4089 H   0  0  0  0  0  0  0  0  0  0  0  0
   37.7681   22.9389   38.4089 H   0  0  0  0  0  0  0  0  0  0  0  0
  1  5  1  0
  1  2  1  0
  2  3  1  0
  3 12  1  0
  4  3  1  0
  5  4  1  0
  6 11  1  0
  6  1  1  0
  7  6  2  0
  8  9  2  0
  8  7  1  0
  9 10  1  0
 10 11  2  0
 12 13  1  0
 13 14  1  0
  2 15  1  0
  2 16  1  0
  3 17  1  1
  4 18  1  0
  4 19  1  0
  5 20  1  0
  5 21  1  0
  7 22  1  0
  8 23  1  0
 10 24  1  0
 12 25  1  0
 13 26  1  0
 13 27  1  0
 14 28  1  0
 14 29  1  0
 14 30  1  0
M  ISO  8  15  13  16  13  17  13  18  13  19  13  20  13  21  13  22  14
M  ISO  8  23  14  24  14  25   5  26   8  27   8  28   8  29   8  30   8
M  END
>  <minimizedAffinity>  (1) 
-3.82299042

>  <minimizedRMSD>  (1) 
3.08308411

$$$$
