
     RDKit          3D

 40 42  0  0  1  0  0  0  0  0999 V2000
   37.7430   22.4500   34.0870 N   0  0  0  0  0  0  0  0  0  0  0  0
   38.3180   23.7780   33.8380 C   0  0  0  0  0  0  0  0  0  0  0  0
   38.2530   24.3800   35.2480 C   0  0  1  0  0  0  0  0  0  0  0  0
   37.9760   23.2420   36.1880 C   0  0  0  0  0  0  0  0  0  0  0  0
   38.4230   22.0940   35.3190 C   0  0  0  0  0  0  0  0  0  0  0  0
   36.8070   21.7370   33.3180 C   0  0  0  0  0  0  0  0  0  0  0  0
   35.9970   20.7200   33.8320 C   0  0  0  0  0  0  0  0  0  0  0  0
   35.1010   20.0870   32.9750 C   0  0  0  0  0  0  0  0  0  0  0  0
   35.0510   20.4890   31.6630 N   0  0  0  0  0  0  0  0  0  0  0  0
   35.8550   21.4850   31.1950 C   0  0  0  0  0  0  0  0  0  0  0  0
   36.7220   22.1020   32.0090 N   0  0  0  0  0  0  0  0  0  0  0  0
   39.5860   24.9180   35.4990 N   0  0  0  0  0  0  0  0  0  0  0  0
   40.0950   25.3450   34.2320 C   0  0  0  0  0  0  0  0  0  0  0  0
   41.4890   25.7540   34.4670 N   0  0  0  0  0  0  0  0  0  0  0  0
   42.2250   24.9020   35.2060 C   0  0  0  0  0  0  0  0  0  0  0  0
   43.5400   25.1770   35.4930 C   0  0  0  0  0  0  0  0  0  0  0  0
   44.3600   24.2510   36.3040 C   0  0  0  0  0  0  0  0  0  0  0  0
   44.0370   26.3490   34.9830 C   0  0  0  0  0  0  0  0  0  0  0  0
   45.2550   26.6050   35.2480 O   0  0  0  0  0  0  0  0  0  0  0  0
   43.2980   27.2150   34.2350 N   0  0  0  0  0  0  0  0  0  0  0  0
   42.0130   26.8950   33.9860 C   0  0  0  0  0  0  0  0  0  0  0  0
   41.2540   27.6430   33.2970 O   0  0  0  0  0  0  0  0  0  0  0  0
   39.3534   23.7102   33.4728 H   0  0  0  0  0  0  0  0  0  0  0  0
   37.7996   24.3643   33.0650 H   0  0  0  0  0  0  0  0  0  0  0  0
   37.4848   25.1581   35.3684 H   0  0  0  0  0  0  0  0  0  0  0  0
   38.5714   23.3160   37.1100 H   0  0  0  0  0  0  0  0  0  0  0  0
   36.9416   23.1777   36.5565 H   0  0  0  0  0  0  0  0  0  0  0  0
   38.0815   21.1247   35.7113 H   0  0  0  0  0  0  0  0  0  0  0  0
   39.5123   21.9668   35.2336 H   0  0  0  0  0  0  0  0  0  0  0  0
   36.0661   20.4266   34.8899 H   0  0  0  0  0  0  0  0  0  0  0  0
   34.4470   19.2819   33.3411 H   0  0  0  0  0  0  0  0  0  0  0  0
   35.7915   21.7852   30.1387 H   0  0  0  0  0  0  0  0  0  0  0  0
   39.5316   25.7158   36.1482 H   0  0  0  0  0  0  0  0  0  0  0  0
   39.5076   26.1935   33.8513 H   0  0  0  0  0  0  0  0  0  0  0  0
   40.0335   24.5413   33.4835 H   0  0  0  0  0  0  0  0  0  0  0  0
   41.7681   23.9755   35.5840 H   0  0  0  0  0  0  0  0  0  0  0  0
   44.1863   24.4472   37.3723 H   0  0  0  0  0  0  0  0  0  0  0  0
   44.0794   23.2131   36.0714 H   0  0  0  0  0  0  0  0  0  0  0  0
   45.4242   24.4040   36.0714 H   0  0  0  0  0  0  0  0  0  0  0  0
   43.7085   28.0868   33.8713 H   0  0  0  0  0  0  0  0  0  0  0  0
  1  5  1  0
  2  1  1  0
  2  3  1  0
  3 12  1  0
  3  4  1  0
  5  4  1  0
  6  7  2  0
  6  1  1  0
  8  7  1  0
  9  8  2  0
 10  9  1  0
 10 11  2  0
 11  6  1  0
 13 14  1  0
 13 12  1  0
 14 15  1  0
 15 16  2  0
 16 17  1  0
 18 19  2  0
 18 16  1  0
 20 18  1  0
 21 20  1  0
 21 14  1  0
 22 21  2  0
  2 23  1  0
  2 24  1  0
  3 25  1  6
  4 26  1  0
  4 27  1  0
  5 28  1  0
  5 29  1  0
  7 30  1  0
  8 31  1  0
 10 32  1  0
 12 33  1  0
 13 34  1  0
 13 35  1  0
 15 36  1  0
 17 37  1  0
 17 38  1  0
 17 39  1  0
 20 40  1  0
M  ISO  8  23  13  24  13  25  13  26  13  27  13  28  13  29  13  30  14
M  ISO  8  31  14  32  14  33   5  34   8  35   8  36  14  37   8  38   8
M  ISO  2  39   8  40   9
M  END
>  <minimizedAffinity>  (1) 
-4.73662806

>  <minimizedRMSD>  (1) 
3.16087675

$$$$
