
     RDKit          3D

 29 30  0  0  1  0  0  0  0  0999 V2000
   38.4270   22.8940   34.5900 N   0  0  0  0  0  0  0  0  0  0  0  0
   38.3410   24.3610   34.4000 C   0  0  0  0  0  0  0  0  0  0  0  0
   39.1120   24.8330   35.6000 C   0  0  1  0  0  0  0  0  0  0  0  0
   39.7580   23.6180   36.2490 C   0  0  0  0  0  0  0  0  0  0  0  0
   39.7970   22.7130   35.0530 C   0  0  0  0  0  0  0  0  0  0  0  0
   37.4140   21.9400   34.3650 C   0  0  0  0  0  0  0  0  0  0  0  0
   36.5760   21.4640   35.3780 C   0  0  0  0  0  0  0  0  0  0  0  0
   35.6090   20.5250   35.0570 C   0  0  0  0  0  0  0  0  0  0  0  0
   35.5190   20.0990   33.7350 N   0  0  0  0  0  0  0  0  0  0  0  0
   36.3500   20.5840   32.7790 C   0  0  0  0  0  0  0  0  0  0  0  0
   37.2840   21.4900   33.0880 N   0  0  0  0  0  0  0  0  0  0  0  0
   40.1130   25.7730   35.1890 N   0  0  0  0  0  0  0  0  0  0  0  0
   39.4510   27.0440   35.0050 C   0  0  0  0  0  0  0  0  0  0  0  0
   38.7740   27.5240   36.1960 N   0  0  0  0  0  0  0  0  0  0  0  0
   38.8166   24.6782   33.4602 H   0  0  0  0  0  0  0  0  0  0  0  0
   37.3172   24.7564   34.3260 H   0  0  0  0  0  0  0  0  0  0  0  0
   38.4461   25.3320   36.3195 H   0  0  0  0  0  0  0  0  0  0  0  0
   40.7649   23.8404   36.6321 H   0  0  0  0  0  0  0  0  0  0  0  0
   39.2373   23.2174   37.1312 H   0  0  0  0  0  0  0  0  0  0  0  0
   40.0044   21.6692   35.3314 H   0  0  0  0  0  0  0  0  0  0  0  0
   40.5809   22.9363   34.3143 H   0  0  0  0  0  0  0  0  0  0  0  0
   36.6824   21.8282   36.4105 H   0  0  0  0  0  0  0  0  0  0  0  0
   34.9308   20.1270   35.8262 H   0  0  0  0  0  0  0  0  0  0  0  0
   36.2550   20.2296   31.7420 H   0  0  0  0  0  0  0  0  0  0  0  0
   40.8400   25.8548   35.9140 H   0  0  0  0  0  0  0  0  0  0  0  0
   40.2043   27.7889   34.7090 H   0  0  0  0  0  0  0  0  0  0  0  0
   38.6812   26.8982   34.2328 H   0  0  0  0  0  0  0  0  0  0  0  0
   39.2638   27.1767   37.0329 H   0  0  0  0  0  0  0  0  0  0  0  0
   38.7753   28.5540   36.2001 H   0  0  0  0  0  0  0  0  0  0  0  0
  1  5  1  0
  2  1  1  0
  2  3  1  0
  3  4  1  0
  5  4  1  0
  6  1  1  0
  6  7  2  0
  8  7  1  0
  9  8  2  0
 10 11  2  0
 10  9  1  0
 11  6  1  0
 12  3  1  0
 13 12  1  0
 13 14  1  0
  2 15  1  0
  2 16  1  0
  3 17  1  1
  4 18  1  0
  4 19  1  0
  5 20  1  0
  5 21  1  0
  7 22  1  0
  8 23  1  0
 10 24  1  0
 12 25  1  0
 13 26  1  0
 13 27  1  0
 14 28  1  0
 14 29  1  0
M  ISO  8  15  13  16  13  17  13  18  13  19  13  20  13  21  13  22  14
M  ISO  7  23  14  24  14  25   5  26   8  27   8  28   5  29   5
M  END
>  <minimizedAffinity>  (1) 
-3.56307483

>  <minimizedRMSD>  (1) 
0.980664432

$$$$
