
     RDKit          3D

 55 59  0  0  1  0  0  0  0  0999 V2000
   42.3830   26.3200   31.6320 C   0  0  1  0  0  0  0  0  0  0  0  0
   43.0750   26.5950   30.3510 C   0  0  0  0  0  0  0  0  0  0  0  0
   44.1720   27.6040   30.4330 C   0  0  0  0  0  0  0  0  0  0  0  0
   44.9630   27.6560   31.6780 C   0  0  0  0  0  0  0  0  0  0  0  0
   44.0760   27.6430   32.8820 C   0  0  0  0  0  0  0  0  0  0  0  0
   43.2140   26.4420   32.8720 C   0  0  2  0  0  0  0  0  0  0  0  0
   43.8330   25.1590   33.2300 C   0  0  0  0  0  0  0  0  0  0  0  0
   44.7790   24.3990   32.5730 C   0  0  0  0  0  0  0  0  0  0  0  0
   45.0870   23.2510   33.2000 N   0  0  0  0  0  0  0  0  0  0  0  0
   44.3510   23.1890   34.3230 C   0  0  0  0  0  0  0  0  0  0  0  0
   44.2560   22.2580   35.3360 C   0  0  0  0  0  0  0  0  0  0  0  0
   43.4160   22.4300   36.3940 C   0  0  0  0  0  0  0  0  0  0  0  0
   42.6500   23.5550   36.4510 C   0  0  0  0  0  0  0  0  0  0  0  0
   42.7490   24.4840   35.4350 C   0  0  0  0  0  0  0  0  0  0  0  0
   43.5920   24.3400   34.3440 C   0  0  0  0  0  0  0  0  0  0  0  0
   41.0460   27.0130   31.7580 C   0  0  0  0  0  0  0  0  0  0  0  0
   38.7690   24.6690   33.5810 N   0  0  0  0  0  0  0  0  0  0  0  0
   39.7910   25.5210   33.3840 C   0  0  0  0  0  0  0  0  0  0  0  0
   39.9570   26.0690   32.1240 C   0  0  0  0  0  0  0  0  0  0  0  0
   39.0600   25.7200   31.1130 C   0  0  0  0  0  0  0  0  0  0  0  0
   39.1150   26.1570   29.9350 O   0  0  0  0  0  0  0  0  0  0  0  0
   38.0380   24.8540   31.3560 N   0  0  0  0  0  0  0  0  0  0  0  0
   37.9210   24.3510   32.5890 C   0  0  0  0  0  0  0  0  0  0  0  0
   36.9820   23.5530   32.8190 O   0  0  0  0  0  0  0  0  0  0  0  0
   38.0330   24.9190   35.8670 C   0  0  0  0  0  0  0  0  0  0  0  0
   38.6880   24.1580   34.8920 C   0  0  0  0  0  0  0  0  0  0  0  0
   39.2220   22.9340   35.2870 C   0  0  0  0  0  0  0  0  0  0  0  0
   39.0760   22.5500   36.5950 N   0  0  0  0  0  0  0  0  0  0  0  0
   38.4460   23.2990   37.4960 C   0  0  0  0  0  0  0  0  0  0  0  0
   37.9290   24.4780   37.1250 N   0  0  0  0  0  0  0  0  0  0  0  0
   38.4230   22.6860   38.7820 N   0  0  0  0  0  0  0  0  0  0  0  0
   42.1791   25.2413   31.5625 H   0  0  0  0  0  0  0  0  0  0  0  0
   42.3281   26.9601   29.6307 H   0  0  0  0  0  0  0  0  0  0  0  0
   43.5477   25.6495   30.0467 H   0  0  0  0  0  0  0  0  0  0  0  0
   44.8702   27.3983   29.6082 H   0  0  0  0  0  0  0  0  0  0  0  0
   43.6600   28.5765   30.3874 H   0  0  0  0  0  0  0  0  0  0  0  0
   45.6316   26.7833   31.7152 H   0  0  0  0  0  0  0  0  0  0  0  0
   45.5443   28.5898   31.6831 H   0  0  0  0  0  0  0  0  0  0  0  0
   44.6969   27.6363   33.7900 H   0  0  0  0  0  0  0  0  0  0  0  0
   43.4396   28.5401   32.8669 H   0  0  0  0  0  0  0  0  0  0  0  0
   42.5506   26.6523   33.7239 H   0  0  0  0  0  0  0  0  0  0  0  0
   45.2394   24.7052   31.6220 H   0  0  0  0  0  0  0  0  0  0  0  0
   45.7650   22.5456   32.8780 H   0  0  0  0  0  0  0  0  0  0  0  0
   44.8763   21.3508   35.2880 H   0  0  0  0  0  0  0  0  0  0  0  0
   43.3570   21.6728   37.1897 H   0  0  0  0  0  0  0  0  0  0  0  0
   41.9630   23.7206   37.2940 H   0  0  0  0  0  0  0  0  0  0  0  0
   42.1250   25.3879   35.4942 H   0  0  0  0  0  0  0  0  0  0  0  0
   41.1201   27.7873   32.5358 H   0  0  0  0  0  0  0  0  0  0  0  0
   40.7989   27.4511   30.7797 H   0  0  0  0  0  0  0  0  0  0  0  0
   40.4781   25.7760   34.2043 H   0  0  0  0  0  0  0  0  0  0  0  0
   37.3748   24.5941   30.6120 H   0  0  0  0  0  0  0  0  0  0  0  0
   37.5983   25.8922   35.5950 H   0  0  0  0  0  0  0  0  0  0  0  0
   39.7484   22.2906   34.5667 H   0  0  0  0  0  0  0  0  0  0  0  0
   37.9645   23.1627   39.5716 H   0  0  0  0  0  0  0  0  0  0  0  0
   38.8649   21.7662   38.9220 H   0  0  0  0  0  0  0  0  0  0  0  0
  1 16  1  0
  1  6  1  0
  2  3  1  0
  2  1  1  0
  3  4  1  0
  4  5  1  0
  6  5  1  0
  6  7  1  0
  7 15  1  0
  8  9  1  0
  8  7  2  0
  9 10  1  0
 10 15  2  0
 10 11  1  0
 11 12  2  0
 12 13  1  0
 14 13  2  0
 15 14  1  0
 16 19  1  0
 17 26  1  0
 18 17  1  0
 19 18  2  0
 20 22  1  0
 20 19  1  0
 21 20  2  0
 22 23  1  0
 23 24  2  0
 23 17  1  0
 25 30  2  0
 26 27  2  0
 26 25  1  0
 27 28  1  0
 28 29  2  0
 29 31  1  0
 30 29  1  0
  1 32  1  6
  2 33  1  0
  2 34  1  0
  3 35  1  0
  3 36  1  0
  4 37  1  0
  4 38  1  0
  5 39  1  0
  5 40  1  0
  6 41  1  1
  8 42  1  0
  9 43  1  0
 11 44  1  0
 12 45  1  0
 13 46  1  0
 14 47  1  0
 16 48  1  0
 16 49  1  0
 18 50  1  0
 22 51  1  0
 25 52  1  0
 27 53  1  0
 31 54  1  0
 31 55  1  0
M  ISO  8  32  13  33  13  34  13  35  13  36  13  37  13  38  13  39  13
M  ISO  8  40  13  41  13  42  14  43   9  44  14  45  14  46  14  47  14
M  ISO  6  48   8  49   8  50  14  51   9  52  14  53  14
M  END
>  <minimizedAffinity>  (1) 
-5.01537466

>  <minimizedRMSD>  (1) 
1.95870709

$$$$
