
     RDKit          3D

 37 39  0  0  1  0  0  0  0  0999 V2000
   39.3910   23.5350   34.0610 N   0  0  0  0  0  0  0  0  0  0  0  0
   39.5520   23.2780   32.6150 C   0  0  0  0  0  0  0  0  0  0  0  0
   40.6390   22.2200   32.6340 C   0  0  1  0  0  0  0  0  0  0  0  0
   40.8160   21.7960   34.0650 C   0  0  0  0  0  0  0  0  0  0  0  0
   39.4600   22.1900   34.5910 C   0  0  0  0  0  0  0  0  0  0  0  0
   39.2060   24.7680   34.7010 C   0  0  0  0  0  0  0  0  0  0  0  0
   39.8760   25.9370   34.3350 C   0  0  0  0  0  0  0  0  0  0  0  0
   39.6030   27.1050   35.0400 C   0  0  0  0  0  0  0  0  0  0  0  0
   38.6920   27.0680   36.0640 N   0  0  0  0  0  0  0  0  0  0  0  0
   38.0540   25.9030   36.3970 C   0  0  0  0  0  0  0  0  0  0  0  0
   38.3080   24.7780   35.7260 N   0  0  0  0  0  0  0  0  0  0  0  0
   40.1360   21.1040   31.8270 N   0  0  0  0  0  0  0  0  0  0  0  0
   39.3680   21.7000   30.7760 C   0  0  0  0  0  0  0  0  0  0  0  0
   38.4610   20.6750   30.1280 C   0  0  0  0  0  0  0  0  0  0  0  0
   38.7540   20.0490   28.9380 C   0  0  0  0  0  0  0  0  0  0  0  0
   37.8380   19.1210   28.4380 C   0  0  0  0  0  0  0  0  0  0  0  0
   36.6750   18.8450   29.1270 C   0  0  0  0  0  0  0  0  0  0  0  0
   36.3640   19.4620   30.3220 C   0  0  0  0  0  0  0  0  0  0  0  0
   37.2840   20.3860   30.8100 C   0  0  0  0  0  0  0  0  0  0  0  0
   39.8754   24.1812   32.0768 H   0  0  0  0  0  0  0  0  0  0  0  0
   38.6285   22.9732   32.1009 H   0  0  0  0  0  0  0  0  0  0  0  0
   41.6017   22.5735   32.2362 H   0  0  0  0  0  0  0  0  0  0  0  0
   40.9967   20.7148   34.1565 H   0  0  0  0  0  0  0  0  0  0  0  0
   41.6760   22.2387   34.5889 H   0  0  0  0  0  0  0  0  0  0  0  0
   39.4251   22.1780   35.6904 H   0  0  0  0  0  0  0  0  0  0  0  0
   38.6311   21.5263   34.3039 H   0  0  0  0  0  0  0  0  0  0  0  0
   40.6024   25.9346   33.5089 H   0  0  0  0  0  0  0  0  0  0  0  0
   40.1111   28.0452   34.7794 H   0  0  0  0  0  0  0  0  0  0  0  0
   37.3275   25.8946   37.2229 H   0  0  0  0  0  0  0  0  0  0  0  0
   40.9197   20.5620   31.4359 H   0  0  0  0  0  0  0  0  0  0  0  0
   38.7547   22.5124   31.1930 H   0  0  0  0  0  0  0  0  0  0  0  0
   40.0570   22.0941   30.0144 H   0  0  0  0  0  0  0  0  0  0  0  0
   39.6842   20.2734   28.3955 H   0  0  0  0  0  0  0  0  0  0  0  0
   38.0452   18.6064   27.4881 H   0  0  0  0  0  0  0  0  0  0  0  0
   35.9721   18.1087   28.7101 H   0  0  0  0  0  0  0  0  0  0  0  0
   35.4336   19.2345   30.8629 H   0  0  0  0  0  0  0  0  0  0  0  0
   37.0745   20.9006   31.7593 H   0  0  0  0  0  0  0  0  0  0  0  0
  1  5  1  0
  1  6  1  0
  2  3  1  0
  2  1  1  0
  3  4  1  0
  4  5  1  0
  6 11  1  0
  7  6  2  0
  7  8  1  0
  8  9  2  0
  9 10  1  0
 11 10  2  0
 12  3  1  0
 13 12  1  0
 14 13  1  0
 14 19  1  0
 15 14  2  0
 16 15  1  0
 16 17  2  0
 17 18  1  0
 18 19  2  0
  2 20  1  0
  2 21  1  0
  3 22  1  6
  4 23  1  0
  4 24  1  0
  5 25  1  0
  5 26  1  0
  7 27  1  0
  8 28  1  0
 10 29  1  0
 12 30  1  0
 13 31  1  0
 13 32  1  0
 15 33  1  0
 16 34  1  0
 17 35  1  0
 18 36  1  0
 19 37  1  0
M  ISO  8  20  13  21  13  22  13  23  13  24  13  25  13  26  13  27  14
M  ISO  8  28  14  29  14  30   5  31   8  32   8  33  14  34  14  35  14
M  ISO  2  36  14  37  14
M  END
>  <minimizedAffinity>  (1) 
-3.31023788

>  <minimizedRMSD>  (1) 
7.28290367

$$$$
