
     RDKit          3D

 48 51  0  0  1  0  0  0  0  0999 V2000
   40.0820   27.4300   31.8450 C   0  0  0  0  0  0  0  0  0  0  0  0
   41.3870   27.0070   31.1710 C   0  0  1  0  0  0  0  0  0  0  0  0
   41.4450   27.4980   29.7520 C   0  0  0  0  0  0  0  0  0  0  0  0
   42.2790   28.7180   29.5260 C   0  0  0  0  0  0  0  0  0  0  0  0
   43.4660   28.8830   30.3900 C   0  0  0  0  0  0  0  0  0  0  0  0
   43.1030   28.6790   31.8320 C   0  0  0  0  0  0  0  0  0  0  0  0
   42.5920   27.2490   31.9600 C   0  0  1  0  0  0  0  0  0  0  0  0
   43.0250   26.6780   33.1530 C   0  0  0  0  0  0  0  0  0  0  0  0
   42.5860   25.6470   33.9310 C   0  0  0  0  0  0  0  0  0  0  0  0
   43.2950   25.2600   34.9980 C   0  0  0  0  0  0  0  0  0  0  0  0
   44.4420   25.9180   35.2760 C   0  0  0  0  0  0  0  0  0  0  0  0
   44.6530   27.2570   33.9510 S   0  0  0  0  0  0  0  0  0  0  0  0
   38.5310   24.6400   33.7910 N   0  0  0  0  0  0  0  0  0  0  0  0
   39.2620   25.7100   33.5380 C   0  0  0  0  0  0  0  0  0  0  0  0
   39.3010   26.2500   32.2670 C   0  0  0  0  0  0  0  0  0  0  0  0
   38.5420   25.6210   31.2700 C   0  0  0  0  0  0  0  0  0  0  0  0
   38.4800   25.9990   30.0690 O   0  0  0  0  0  0  0  0  0  0  0  0
   37.7910   24.5140   31.5480 N   0  0  0  0  0  0  0  0  0  0  0  0
   37.8050   24.0520   32.8060 C   0  0  0  0  0  0  0  0  0  0  0  0
   37.1190   23.0380   33.0710 O   0  0  0  0  0  0  0  0  0  0  0  0
   37.8090   24.7990   36.0840 C   0  0  0  0  0  0  0  0  0  0  0  0
   38.5890   24.1770   35.1090 C   0  0  0  0  0  0  0  0  0  0  0  0
   39.3830   23.1180   35.5270 C   0  0  0  0  0  0  0  0  0  0  0  0
   39.3770   22.7300   36.8470 N   0  0  0  0  0  0  0  0  0  0  0  0
   38.6040   23.3670   37.7480 C   0  0  0  0  0  0  0  0  0  0  0  0
   37.8340   24.3900   37.3500 N   0  0  0  0  0  0  0  0  0  0  0  0
   38.7590   22.7920   39.0390 N   0  0  0  0  0  0  0  0  0  0  0  0
   39.4854   28.0219   31.1353 H   0  0  0  0  0  0  0  0  0  0  0  0
   40.3240   28.0284   32.7357 H   0  0  0  0  0  0  0  0  0  0  0  0
   41.3729   25.9084   31.1184 H   0  0  0  0  0  0  0  0  0  0  0  0
   41.8537   26.6882   29.1298 H   0  0  0  0  0  0  0  0  0  0  0  0
   40.4157   27.7833   29.4891 H   0  0  0  0  0  0  0  0  0  0  0  0
   42.6274   28.6944   28.4829 H   0  0  0  0  0  0  0  0  0  0  0  0
   41.6227   29.5652   29.7738 H   0  0  0  0  0  0  0  0  0  0  0  0
   44.2286   28.1446   30.1013 H   0  0  0  0  0  0  0  0  0  0  0  0
   43.8570   29.9034   30.2639 H   0  0  0  0  0  0  0  0  0  0  0  0
   43.9880   28.8233   32.4692 H   0  0  0  0  0  0  0  0  0  0  0  0
   42.3378   29.4015   32.1521 H   0  0  0  0  0  0  0  0  0  0  0  0
   43.0133   26.3943   31.4104 H   0  0  0  0  0  0  0  0  0  0  0  0
   41.6466   25.1323   33.6806 H   0  0  0  0  0  0  0  0  0  0  0  0
   42.9532   24.4285   35.6318 H   0  0  0  0  0  0  0  0  0  0  0  0
   45.1251   25.7148   36.1139 H   0  0  0  0  0  0  0  0  0  0  0  0
   39.8451   26.1755   34.3463 H   0  0  0  0  0  0  0  0  0  0  0  0
   37.2335   24.0507   30.8163 H   0  0  0  0  0  0  0  0  0  0  0  0
   37.1619   25.6424   35.8013 H   0  0  0  0  0  0  0  0  0  0  0  0
   40.0180   22.5881   34.8018 H   0  0  0  0  0  0  0  0  0  0  0  0
   38.2313   23.1709   39.8383 H   0  0  0  0  0  0  0  0  0  0  0  0
   39.3990   21.9965   39.1750 H   0  0  0  0  0  0  0  0  0  0  0  0
  1 15  1  0
  2  1  1  0
  2  7  1  0
  3  2  1  0
  4  3  1  0
  4  5  1  0
  5  6  1  0
  6  7  1  0
  7  8  1  0
  8  9  2  0
  8 12  1  0
  9 10  1  0
 10 11  2  0
 12 11  1  0
 13 22  1  0
 14 13  1  0
 15 14  2  0
 16 18  1  0
 16 15  1  0
 17 16  2  0
 18 19  1  0
 19 20  2  0
 19 13  1  0
 21 26  2  0
 22 23  2  0
 22 21  1  0
 23 24  1  0
 24 25  2  0
 25 27  1  0
 26 25  1  0
  1 28  1  0
  1 29  1  0
  2 30  1  6
  3 31  1  0
  3 32  1  0
  4 33  1  0
  4 34  1  0
  5 35  1  0
  5 36  1  0
  6 37  1  0
  6 38  1  0
  7 39  1  6
  9 40  1  0
 10 41  1  0
 11 42  1  0
 14 43  1  0
 18 44  1  0
 21 45  1  0
 23 46  1  0
 27 47  1  0
 27 48  1  0
M  ISO  8  28   8  29   8  30  13  31  13  32  13  33  13  34  13  35  13
M  ISO  8  36  13  37  13  38  13  39  13  40  14  41  14  42  14  43  14
M  ISO  3  44   9  45  14  46  14
M  END
>  <minimizedAffinity>  (1) 
-4.81980753

>  <minimizedRMSD>  (1) 
1.37830746

$$$$
