
     RDKit          3D

 42 47  0  0  0  0  0  0  0  0999 V2000
   38.6360   27.4340   31.1030 C   0  0  0  0  0  0  0  0  0  0  0  0
   37.7310   27.0560   32.1050 C   0  0  0  0  0  0  0  0  0  0  0  0
   36.5760   27.8480   32.2890 C   0  0  0  0  0  0  0  0  0  0  0  0
   36.4000   28.9320   31.4870 N   0  0  0  0  0  0  0  0  0  0  0  0
   37.3050   29.2620   30.5240 C   0  0  0  0  0  0  0  0  0  0  0  0
   38.3980   28.5040   30.3580 N   0  0  0  0  0  0  0  0  0  0  0  0
   37.1450   30.3840   29.6680 N   0  0  0  0  0  0  0  0  0  0  0  0
   37.4770   30.5700   28.3760 C   0  0  0  0  0  0  0  0  0  0  0  0
   37.1200   31.8050   28.0180 N   0  0  0  0  0  0  0  0  0  0  0  0
   36.5440   32.4540   29.0730 C   0  0  0  0  0  0  0  0  0  0  0  0
   36.0220   33.7340   29.1860 C   0  0  0  0  0  0  0  0  0  0  0  0
   35.5320   34.0340   30.3920 N   0  0  0  0  0  0  0  0  0  0  0  0
   35.5570   33.1560   31.3890 C   0  0  0  0  0  0  0  0  0  0  0  0
   36.0570   31.9110   31.3030 N   0  0  0  0  0  0  0  0  0  0  0  0
   36.5760   31.5340   30.0940 C   0  0  0  0  0  0  0  0  0  0  0  0
   37.8220   25.9250   32.9950 C   0  0  0  0  0  0  0  0  0  0  0  0
   37.4880   24.7080   32.5560 N   0  0  0  0  0  0  0  0  0  0  0  0
   37.6280   23.8450   33.4960 O   0  0  0  0  0  0  0  0  0  0  0  0
   38.0480   24.4210   34.5730 C   0  0  0  0  0  0  0  0  0  0  0  0
   38.1730   25.7320   34.2630 N   0  0  0  0  0  0  0  0  0  0  0  0
   38.4000   24.0370   35.9550 C   0  0  0  0  0  0  0  0  0  0  0  0
   37.7150   24.4420   37.0770 C   0  0  0  0  0  0  0  0  0  0  0  0
   38.0660   24.0700   38.3500 C   0  0  0  0  0  0  0  0  0  0  0  0
   39.1470   23.2530   38.5780 C   0  0  0  0  0  0  0  0  0  0  0  0
   39.8640   22.8230   37.4850 C   0  0  0  0  0  0  0  0  0  0  0  0
   40.9400   22.0060   37.7520 C   0  0  0  0  0  0  0  0  0  0  0  0
   41.7090   21.5330   36.7100 C   0  0  0  0  0  0  0  0  0  0  0  0
   41.3640   21.9020   35.4290 C   0  0  0  0  0  0  0  0  0  0  0  0
   40.2780   22.7190   35.2290 C   0  0  0  0  0  0  0  0  0  0  0  0
   39.4750   23.2220   36.2260 C   0  0  0  0  0  0  0  0  0  0  0  0
   39.5467   26.8404   30.9346 H   0  0  0  0  0  0  0  0  0  0  0  0
   35.8365   27.5940   33.0627 H   0  0  0  0  0  0  0  0  0  0  0  0
   37.9616   29.8278   27.7246 H   0  0  0  0  0  0  0  0  0  0  0  0
   36.0122   34.4465   28.3480 H   0  0  0  0  0  0  0  0  0  0  0  0
   35.1377   33.4710   32.3559 H   0  0  0  0  0  0  0  0  0  0  0  0
   36.8413   25.0975   36.9469 H   0  0  0  0  0  0  0  0  0  0  0  0
   37.4722   24.4318   39.2023 H   0  0  0  0  0  0  0  0  0  0  0  0
   39.4292   22.9533   39.5981 H   0  0  0  0  0  0  0  0  0  0  0  0
   41.1842   21.7328   38.7892 H   0  0  0  0  0  0  0  0  0  0  0  0
   42.5738   20.8793   36.8967 H   0  0  0  0  0  0  0  0  0  0  0  0
   41.9539   21.5450   34.5719 H   0  0  0  0  0  0  0  0  0  0  0  0
   40.0317   22.9918   34.1922 H   0  0  0  0  0  0  0  0  0  0  0  0
  1  2  2  0
  2  3  1  0
  2 16  1  0
  4  3  2  0
  5  4  1  0
  6  5  2  0
  6  1  1  0
  7 15  1  0
  7  5  1  0
  8  7  1  0
  9  8  2  0
  9 10  1  0
 10 11  2  0
 10 15  1  0
 11 12  1  0
 12 13  2  0
 14 13  1  0
 15 14  2  0
 16 20  1  0
 17 16  2  0
 17 18  1  0
 18 19  1  0
 19 21  1  0
 20 19  2  0
 21 30  1  0
 21 22  2  0
 22 23  1  0
 23 24  2  0
 25 26  2  0
 25 24  1  0
 27 26  1  0
 28 27  2  0
 29 28  1  0
 29 30  2  0
 30 25  1  0
  1 31  1  0
  3 32  1  0
  8 33  1  0
 11 34  1  0
 13 35  1  0
 22 36  1  0
 23 37  1  0
 24 38  1  0
 26 39  1  0
 27 40  1  0
 28 41  1  0
 29 42  1  0
M  ISO  8  31  14  32  14  33  14  34  14  35  14  36  14  37  14  38  14
M  ISO  4  39  14  40  14  41  14  42  14
M  END
>  <minimizedAffinity>  (1) 
-6.7113409

>  <minimizedRMSD>  (1) 
4.09522152

$$$$
