
     RDKit          3D

 28 31  0  0  0  0  0  0  0  0999 V2000
   39.7400   25.9000   33.5730 C   0  0  0  0  0  0  0  0  0  0  0  0
   39.2190   25.2210   34.6930 C   0  0  0  0  0  0  0  0  0  0  0  0
   37.8890   25.4830   35.0690 C   0  0  0  0  0  0  0  0  0  0  0  0
   37.1680   26.3750   34.3380 N   0  0  0  0  0  0  0  0  0  0  0  0
   37.7060   27.0120   33.2600 C   0  0  0  0  0  0  0  0  0  0  0  0
   38.9610   26.7480   32.9260 N   0  0  0  0  0  0  0  0  0  0  0  0
   36.9660   27.9420   32.4900 N   0  0  0  0  0  0  0  0  0  0  0  0
   37.0000   28.2030   31.1620 C   0  0  0  0  0  0  0  0  0  0  0  0
   36.1170   29.1670   30.8980 N   0  0  0  0  0  0  0  0  0  0  0  0
   35.4900   29.5550   32.0450 C   0  0  0  0  0  0  0  0  0  0  0  0
   34.5110   30.5040   32.2960 C   0  0  0  0  0  0  0  0  0  0  0  0
   34.1200   30.6220   33.5750 N   0  0  0  0  0  0  0  0  0  0  0  0
   34.6520   29.8650   34.5230 C   0  0  0  0  0  0  0  0  0  0  0  0
   35.6070   28.9320   34.3160 N   0  0  0  0  0  0  0  0  0  0  0  0
   36.0470   28.7640   33.0340 C   0  0  0  0  0  0  0  0  0  0  0  0
   39.9120   24.2570   35.5300 C   0  0  0  0  0  0  0  0  0  0  0  0
   41.2470   24.1400   35.4460 N   0  0  0  0  0  0  0  0  0  0  0  0
   41.6630   23.2320   36.2700 O   0  0  0  0  0  0  0  0  0  0  0  0
   40.6420   22.7330   36.9070 C   0  0  0  0  0  0  0  0  0  0  0  0
   39.5260   23.3610   36.4600 N   0  0  0  0  0  0  0  0  0  0  0  0
   40.5680   21.7230   37.9020 N   0  0  0  0  0  0  0  0  0  0  0  0
   40.7753   25.7270   33.2442 H   0  0  0  0  0  0  0  0  0  0  0  0
   37.4411   24.9766   35.9368 H   0  0  0  0  0  0  0  0  0  0  0  0
   37.6467   27.7042   30.4252 H   0  0  0  0  0  0  0  0  0  0  0  0
   34.0804   31.1232   31.4953 H   0  0  0  0  0  0  0  0  0  0  0  0
   34.2904   30.0061   35.5522 H   0  0  0  0  0  0  0  0  0  0  0  0
   39.6553   21.4555   38.2974 H   0  0  0  0  0  0  0  0  0  0  0  0
   41.4270   21.2577   38.2284 H   0  0  0  0  0  0  0  0  0  0  0  0
  1  2  2  0
  2  3  1  0
  2 16  1  0
  4  3  2  0
  5  4  1  0
  6  5  2  0
  6  1  1  0
  7 15  1  0
  7  5  1  0
  8  7  1  0
  9  8  2  0
  9 10  1  0
 10 11  2  0
 10 15  1  0
 11 12  1  0
 12 13  2  0
 14 13  1  0
 15 14  2  0
 16 20  1  0
 17 16  2  0
 17 18  1  0
 18 19  1  0
 19 21  1  0
 20 19  2  0
  1 22  1  0
  3 23  1  0
  8 24  1  0
 11 25  1  0
 13 26  1  0
 21 27  1  0
 21 28  1  0
M  ISO  5  22  14  23  14  24  14  25  14  26  14
M  END
>  <minimizedAffinity>  (1) 
-5.30949354

>  <minimizedRMSD>  (1) 
0.846128643

$$$$
