
     RDKit          3D

 33 37  0  0  0  0  0  0  0  0999 V2000
   38.9310   26.2930   32.4070 C   0  0  0  0  0  0  0  0  0  0  0  0
   38.0210   26.0870   33.4390 C   0  0  0  0  0  0  0  0  0  0  0  0
   36.8690   26.9050   33.4570 C   0  0  0  0  0  0  0  0  0  0  0  0
   36.7080   27.8380   32.4820 N   0  0  0  0  0  0  0  0  0  0  0  0
   37.6210   27.9990   31.5010 C   0  0  0  0  0  0  0  0  0  0  0  0
   38.7170   27.2250   31.4790 N   0  0  0  0  0  0  0  0  0  0  0  0
   37.4820   28.9680   30.4640 N   0  0  0  0  0  0  0  0  0  0  0  0
   37.8210   28.9320   29.1650 C   0  0  0  0  0  0  0  0  0  0  0  0
   37.4840   30.0950   28.6020 N   0  0  0  0  0  0  0  0  0  0  0  0
   36.9180   30.9140   29.5230 C   0  0  0  0  0  0  0  0  0  0  0  0
   36.4110   32.2080   29.4340 C   0  0  0  0  0  0  0  0  0  0  0  0
   35.9140   32.7180   30.5830 N   0  0  0  0  0  0  0  0  0  0  0  0
   35.9260   32.0070   31.7040 C   0  0  0  0  0  0  0  0  0  0  0  0
   36.4080   30.7590   31.8250 N   0  0  0  0  0  0  0  0  0  0  0  0
   36.9270   30.1800   30.6950 C   0  0  0  0  0  0  0  0  0  0  0  0
   38.1090   25.1270   34.5100 C   0  0  0  0  0  0  0  0  0  0  0  0
   38.7230   23.9620   34.3070 N   0  0  0  0  0  0  0  0  0  0  0  0
   38.6910   23.2470   35.3910 O   0  0  0  0  0  0  0  0  0  0  0  0
   38.0680   23.9010   36.3270 C   0  0  0  0  0  0  0  0  0  0  0  0
   37.6930   25.0890   35.7870 N   0  0  0  0  0  0  0  0  0  0  0  0
   37.7380   23.5820   37.7420 C   0  0  0  0  0  0  0  0  0  0  0  0
   37.9870   24.6170   38.7760 C   0  0  0  0  0  0  0  0  0  0  0  0
   38.8870   23.4260   38.7190 C   0  0  0  0  0  0  0  0  0  0  0  0
   39.8410   25.6771   32.3563 H   0  0  0  0  0  0  0  0  0  0  0  0
   36.1138   26.7884   34.2483 H   0  0  0  0  0  0  0  0  0  0  0  0
   38.2974   28.0847   28.6501 H   0  0  0  0  0  0  0  0  0  0  0  0
   36.4147   32.7766   28.4924 H   0  0  0  0  0  0  0  0  0  0  0  0
   35.5077   32.4775   32.6060 H   0  0  0  0  0  0  0  0  0  0  0  0
   36.8718   22.9713   37.4477 H   0  0  0  0  0  0  0  0  0  0  0  0
   38.3686   25.6052   38.4795 H   0  0  0  0  0  0  0  0  0  0  0  0
   37.3753   25.0837   39.5621 H   0  0  0  0  0  0  0  0  0  0  0  0
   38.8415   22.6608   39.5079 H   0  0  0  0  0  0  0  0  0  0  0  0
   39.9722   23.2677   38.6331 H   0  0  0  0  0  0  0  0  0  0  0  0
  1  2  2  0
  2  3  1  0
  2 16  1  0
  4  3  2  0
  5  4  1  0
  6  5  2  0
  6  1  1  0
  7 15  1  0
  7  5  1  0
  8  7  1  0
  9  8  2  0
  9 10  1  0
 10 15  2  0
 11 10  1  0
 11 12  2  0
 12 13  1  0
 13 14  2  0
 15 14  1  0
 16 20  1  0
 17 16  2  0
 17 18  1  0
 18 19  1  0
 19 21  1  0
 20 19  2  0
 21 23  1  0
 21 22  1  0
 23 22  1  0
  1 24  1  0
  3 25  1  0
  8 26  1  0
 11 27  1  0
 13 28  1  0
 21 29  1  0
 22 30  1  0
 22 31  1  0
 23 32  1  0
 23 33  1  0
M  ISO  8  24  14  25  14  26  14  27  14  28  14  29  13  30  13  31  13
M  ISO  2  32  13  33  13
M  END
>  <minimizedAffinity>  (1) 
-5.21256065

>  <minimizedRMSD>  (1) 
2.64432144

$$$$
