
     RDKit          3D

 28 31  0  0  0  0  0  0  0  0999 V2000
   39.6860   26.3450   33.3520 C   0  0  0  0  0  0  0  0  0  0  0  0
   39.2110   25.5610   34.4230 C   0  0  0  0  0  0  0  0  0  0  0  0
   37.8680   25.7100   34.7850 C   0  0  0  0  0  0  0  0  0  0  0  0
   37.0900   26.5890   34.1010 N   0  0  0  0  0  0  0  0  0  0  0  0
   37.5760   27.3220   33.0840 C   0  0  0  0  0  0  0  0  0  0  0  0
   38.8630   27.1820   32.7350 N   0  0  0  0  0  0  0  0  0  0  0  0
   36.7990   28.2540   32.3430 N   0  0  0  0  0  0  0  0  0  0  0  0
   36.8090   28.6030   31.0540 C   0  0  0  0  0  0  0  0  0  0  0  0
   35.8750   29.5320   30.8470 N   0  0  0  0  0  0  0  0  0  0  0  0
   35.2270   29.8130   32.0150 C   0  0  0  0  0  0  0  0  0  0  0  0
   34.1930   30.6930   32.3260 C   0  0  0  0  0  0  0  0  0  0  0  0
   33.8000   30.7050   33.6040 N   0  0  0  0  0  0  0  0  0  0  0  0
   34.3750   29.9170   34.5060 C   0  0  0  0  0  0  0  0  0  0  0  0
   35.3780   29.0550   34.2400 N   0  0  0  0  0  0  0  0  0  0  0  0
   35.8290   28.9910   32.9490 C   0  0  0  0  0  0  0  0  0  0  0  0
   39.9770   24.6050   35.1980 C   0  0  0  0  0  0  0  0  0  0  0  0
   41.3130   24.5640   35.0910 N   0  0  0  0  0  0  0  0  0  0  0  0
   41.7790   23.6390   35.8720 O   0  0  0  0  0  0  0  0  0  0  0  0
   40.7880   23.0580   36.4990 C   0  0  0  0  0  0  0  0  0  0  0  0
   39.6330   23.6460   36.0950 N   0  0  0  0  0  0  0  0  0  0  0  0
   40.7950   21.9710   37.4760 C   0  0  0  0  0  0  0  0  0  0  0  0
   41.7790   21.1810   37.6410 O   0  0  0  0  0  0  0  0  0  0  0  0
   40.7345   26.2628   33.0296 H   0  0  0  0  0  0  0  0  0  0  0  0
   37.4467   25.1223   35.6139 H   0  0  0  0  0  0  0  0  0  0  0  0
   37.4800   28.1904   30.2862 H   0  0  0  0  0  0  0  0  0  0  0  0
   33.7281   31.3387   31.5665 H   0  0  0  0  0  0  0  0  0  0  0  0
   34.0078   29.9712   35.5415 H   0  0  0  0  0  0  0  0  0  0  0  0
   39.9020   21.8281   38.1022 H   0  0  0  0  0  0  0  0  0  0  0  0
  1  2  2  0
  2  3  1  0
  2 16  1  0
  4  3  2  0
  5  4  1  0
  6  5  2  0
  6  1  1  0
  7 15  1  0
  7  5  1  0
  8  7  1  0
  9  8  2  0
  9 10  1  0
 10 11  2  0
 10 15  1  0
 11 12  1  0
 12 13  2  0
 14 13  1  0
 15 14  2  0
 16 20  1  0
 17 16  2  0
 17 18  1  0
 18 19  1  0
 19 21  1  0
 20 19  2  0
 21 22  2  0
  1 23  1  0
  3 24  1  0
  8 25  1  0
 11 26  1  0
 13 27  1  0
 21 28  1  0
M  ISO  6  23  14  24  14  25  14  26  14  27  14  28   6
M  END
>  <minimizedAffinity>  (1) 
-4.84568644

>  <minimizedRMSD>  (1) 
1.23227584

$$$$
