
     RDKit          3D

 34 38  0  0  0  0  0  0  0  0999 V2000
   40.0000   26.7950   32.1970 C   0  0  0  0  0  0  0  0  0  0  0  0
   39.7450   25.8180   33.1520 C   0  0  0  0  0  0  0  0  0  0  0  0
   38.4420   25.7550   33.6950 C   0  0  0  0  0  0  0  0  0  0  0  0
   37.5110   26.6480   33.2610 N   0  0  0  0  0  0  0  0  0  0  0  0
   37.8120   27.5850   32.3240 C   0  0  0  0  0  0  0  0  0  0  0  0
   39.0450   27.6330   31.8200 N   0  0  0  0  0  0  0  0  0  0  0  0
   36.8580   28.5290   31.8530 N   0  0  0  0  0  0  0  0  0  0  0  0
   36.6720   29.0800   30.6490 C   0  0  0  0  0  0  0  0  0  0  0  0
   35.6420   29.9140   30.7020 N   0  0  0  0  0  0  0  0  0  0  0  0
   35.1190   29.9340   31.9520 C   0  0  0  0  0  0  0  0  0  0  0  0
   34.0530   30.6270   32.5190 C   0  0  0  0  0  0  0  0  0  0  0  0
   33.8210   30.3920   33.8140 N   0  0  0  0  0  0  0  0  0  0  0  0
   34.5730   29.5430   34.5050 C   0  0  0  0  0  0  0  0  0  0  0  0
   35.6150   28.8530   33.9860 N   0  0  0  0  0  0  0  0  0  0  0  0
   35.9050   29.0500   32.6590 C   0  0  0  0  0  0  0  0  0  0  0  0
   40.6700   24.8270   33.6750 C   0  0  0  0  0  0  0  0  0  0  0  0
   41.9390   24.8080   33.2310 N   0  0  0  0  0  0  0  0  0  0  0  0
   42.5860   23.8500   33.8270 O   0  0  0  0  0  0  0  0  0  0  0  0
   41.7910   23.2360   34.6480 C   0  0  0  0  0  0  0  0  0  0  0  0
   40.5690   23.8230   34.5830 N   0  0  0  0  0  0  0  0  0  0  0  0
   42.1230   22.1040   35.5070 C   0  0  0  0  0  0  0  0  0  0  0  0
   41.7090   22.0940   36.8190 C   0  0  0  0  0  0  0  0  0  0  0  0
   42.0200   21.0180   37.6530 C   0  0  0  0  0  0  0  0  0  0  0  0
   42.7330   20.0030   37.1300 N   0  0  0  0  0  0  0  0  0  0  0  0
   43.1440   20.0060   35.8380 C   0  0  0  0  0  0  0  0  0  0  0  0
   42.8260   21.0610   35.0610 N   0  0  0  0  0  0  0  0  0  0  0  0
   41.0023   26.8733   31.7506 H   0  0  0  0  0  0  0  0  0  0  0  0
   38.1854   25.0000   34.4527 H   0  0  0  0  0  0  0  0  0  0  0  0
   37.2783   28.8739   29.7546 H   0  0  0  0  0  0  0  0  0  0  0  0
   33.4375   31.3272   31.9351 H   0  0  0  0  0  0  0  0  0  0  0  0
   34.3334   29.3909   35.5678 H   0  0  0  0  0  0  0  0  0  0  0  0
   41.1283   22.9405   37.2143 H   0  0  0  0  0  0  0  0  0  0  0  0
   41.6930   21.0004   38.7031 H   0  0  0  0  0  0  0  0  0  0  0  0
   43.7250   19.1649   35.4320 H   0  0  0  0  0  0  0  0  0  0  0  0
  1  2  2  0
  2 16  1  0
  2  3  1  0
  4  3  2  0
  5  4  1  0
  6  1  1  0
  6  5  2  0
  7  5  1  0
  7 15  1  0
  8  9  2  0
  8  7  1  0
  9 10  1  0
 10 11  1  0
 10 15  2  0
 11 12  2  0
 12 13  1  0
 14 13  2  0
 15 14  1  0
 16 20  1  0
 17 16  2  0
 17 18  1  0
 18 19  1  0
 19 21  1  0
 20 19  2  0
 21 22  2  0
 22 23  1  0
 24 23  2  0
 25 24  1  0
 26 21  1  0
 26 25  2  0
  1 27  1  0
  3 28  1  0
  8 29  1  0
 11 30  1  0
 13 31  1  0
 22 32  1  0
 23 33  1  0
 25 34  1  0
M  ISO  8  27  14  28  14  29  14  30  14  31  14  32  14  33  14  34  14
M  END
>  <minimizedAffinity>  (1) 
-4.58815384

>  <minimizedRMSD>  (1) 
2.77603889

$$$$
