
     RDKit          3D

 48 51  0  0  1  0  0  0  0  0999 V2000
   40.9370   26.8070   31.6100 C   0  0  0  0  0  0  0  0  0  0  0  0
   42.3500   26.3980   32.0200 C   0  0  1  0  0  0  0  0  0  0  0  0
   43.0690   25.7350   30.8840 C   0  0  0  0  0  0  0  0  0  0  0  0
   44.0630   26.5870   30.1830 C   0  0  0  0  0  0  0  0  0  0  0  0
   44.7930   27.5730   31.0300 C   0  0  0  0  0  0  0  0  0  0  0  0
   43.8180   28.4180   31.8020 C   0  0  0  0  0  0  0  0  0  0  0  0
   43.0560   27.4970   32.7170 C   0  0  2  0  0  0  0  0  0  0  0  0
   43.9180   27.0370   33.8010 N   0  0  0  0  0  0  0  0  0  0  0  0
   45.0060   27.5270   34.3720 N   0  0  0  0  0  0  0  0  0  0  0  0
   45.4240   26.7000   35.3480 C   0  0  0  0  0  0  0  0  0  0  0  0
   44.5320   25.6350   35.3730 C   0  0  0  0  0  0  0  0  0  0  0  0
   43.5900   25.8680   34.3900 C   0  0  0  0  0  0  0  0  0  0  0  0
   38.8530   24.4630   33.6640 N   0  0  0  0  0  0  0  0  0  0  0  0
   39.8200   25.3470   33.3740 C   0  0  0  0  0  0  0  0  0  0  0  0
   39.9210   25.8280   32.0780 C   0  0  0  0  0  0  0  0  0  0  0  0
   39.0120   25.3740   31.1200 C   0  0  0  0  0  0  0  0  0  0  0  0
   39.0060   25.7400   29.9130 O   0  0  0  0  0  0  0  0  0  0  0  0
   38.0420   24.4750   31.4470 N   0  0  0  0  0  0  0  0  0  0  0  0
   37.9930   24.0470   32.7150 C   0  0  0  0  0  0  0  0  0  0  0  0
   37.0990   23.2170   33.0250 O   0  0  0  0  0  0  0  0  0  0  0  0
   38.1180   24.7980   35.9330 C   0  0  0  0  0  0  0  0  0  0  0  0
   38.8380   24.0410   34.9990 C   0  0  0  0  0  0  0  0  0  0  0  0
   39.5000   22.9080   35.4620 C   0  0  0  0  0  0  0  0  0  0  0  0
   39.4130   22.5920   36.7960 N   0  0  0  0  0  0  0  0  0  0  0  0
   38.7100   23.3450   37.6620 C   0  0  0  0  0  0  0  0  0  0  0  0
   38.0670   24.4470   37.2140 N   0  0  0  0  0  0  0  0  0  0  0  0
   38.7750   22.8110   38.9740 N   0  0  0  0  0  0  0  0  0  0  0  0
   40.7105   27.7911   32.0462 H   0  0  0  0  0  0  0  0  0  0  0  0
   40.8967   26.8426   30.5113 H   0  0  0  0  0  0  0  0  0  0  0  0
   42.3068   25.6123   32.7887 H   0  0  0  0  0  0  0  0  0  0  0  0
   43.5952   24.8546   31.2815 H   0  0  0  0  0  0  0  0  0  0  0  0
   42.2993   25.4865   30.1384 H   0  0  0  0  0  0  0  0  0  0  0  0
   44.8087   25.9232   29.7210 H   0  0  0  0  0  0  0  0  0  0  0  0
   43.4850   27.1854   29.4634 H   0  0  0  0  0  0  0  0  0  0  0  0
   45.4444   27.0348   31.7343 H   0  0  0  0  0  0  0  0  0  0  0  0
   45.3974   28.2246   30.3818 H   0  0  0  0  0  0  0  0  0  0  0  0
   44.3585   29.1727   32.3921 H   0  0  0  0  0  0  0  0  0  0  0  0
   43.1336   28.9447   31.1207 H   0  0  0  0  0  0  0  0  0  0  0  0
   42.2384   28.0847   33.1598 H   0  0  0  0  0  0  0  0  0  0  0  0
   46.3000   26.8398   35.9984 H   0  0  0  0  0  0  0  0  0  0  0  0
   44.5691   24.7682   36.0493 H   0  0  0  0  0  0  0  0  0  0  0  0
   42.7355   25.2236   34.1358 H   0  0  0  0  0  0  0  0  0  0  0  0
   40.5209   25.6843   34.1518 H   0  0  0  0  0  0  0  0  0  0  0  0
   37.3700   24.1364   30.7437 H   0  0  0  0  0  0  0  0  0  0  0  0
   37.5846   25.7004   35.5995 H   0  0  0  0  0  0  0  0  0  0  0  0
   40.0816   22.2777   34.7732 H   0  0  0  0  0  0  0  0  0  0  0  0
   38.2832   23.2821   39.7467 H   0  0  0  0  0  0  0  0  0  0  0  0
   39.3140   21.9520   39.1543 H   0  0  0  0  0  0  0  0  0  0  0  0
  1  2  1  0
  1 15  1  0
  2  7  1  0
  3  2  1  0
  4  3  1  0
  4  5  1  0
  5  6  1  0
  6  7  1  0
  7  8  1  0
  8  9  1  0
  8 12  1  0
  9 10  2  0
 10 11  1  0
 12 11  2  0
 13 22  1  0
 14 13  1  0
 15 14  2  0
 16 18  1  0
 16 15  1  0
 17 16  2  0
 18 19  1  0
 19 20  2  0
 19 13  1  0
 21 26  2  0
 22 23  2  0
 22 21  1  0
 23 24  1  0
 24 25  2  0
 25 27  1  0
 26 25  1  0
  1 28  1  0
  1 29  1  0
  2 30  1  1
  3 31  1  0
  3 32  1  0
  4 33  1  0
  4 34  1  0
  5 35  1  0
  5 36  1  0
  6 37  1  0
  6 38  1  0
  7 39  1  1
 10 40  1  0
 11 41  1  0
 12 42  1  0
 14 43  1  0
 18 44  1  0
 21 45  1  0
 23 46  1  0
 27 47  1  0
 27 48  1  0
M  ISO  8  28   8  29   8  30  13  31  13  32  13  33  13  34  13  35  13
M  ISO  8  36  13  37  13  38  13  39  13  40  14  41  14  42  14  43  14
M  ISO  3  44   9  45  14  46  14
M  END
>  <minimizedAffinity>  (1) 
-4.7305274

>  <minimizedRMSD>  (1) 
2.29256344

$$$$
