
     RDKit          3D

 39 42  0  0  0  0  0  0  0  0999 V2000
   38.6150   27.1250   31.9540 C   0  0  0  0  0  0  0  0  0  0  0  0
   38.5620   26.3150   33.0950 C   0  0  0  0  0  0  0  0  0  0  0  0
   37.5510   26.5850   34.0470 C   0  0  0  0  0  0  0  0  0  0  0  0
   36.6870   27.6110   33.8100 N   0  0  0  0  0  0  0  0  0  0  0  0
   36.7810   28.3700   32.6820 C   0  0  0  0  0  0  0  0  0  0  0  0
   37.7300   28.1000   31.8090 N   0  0  0  0  0  0  0  0  0  0  0  0
   35.8830   29.4360   32.4330 N   0  0  0  0  0  0  0  0  0  0  0  0
   35.3560   29.8740   31.2640 C   0  0  0  0  0  0  0  0  0  0  0  0
   34.5510   30.9170   31.5380 N   0  0  0  0  0  0  0  0  0  0  0  0
   34.5360   31.1750   32.8610 C   0  0  0  0  0  0  0  0  0  0  0  0
   33.8830   32.1190   33.6360 C   0  0  0  0  0  0  0  0  0  0  0  0
   34.1130   32.0760   34.9610 N   0  0  0  0  0  0  0  0  0  0  0  0
   34.9190   31.1710   35.4710 C   0  0  0  0  0  0  0  0  0  0  0  0
   35.5780   30.2310   34.7630 N   0  0  0  0  0  0  0  0  0  0  0  0
   35.3900   30.2170   33.4050 C   0  0  0  0  0  0  0  0  0  0  0  0
   39.4260   25.2070   33.4370 C   0  0  0  0  0  0  0  0  0  0  0  0
   40.6030   25.0760   32.8100 N   0  0  0  0  0  0  0  0  0  0  0  0
   41.2130   24.0300   33.2570 O   0  0  0  0  0  0  0  0  0  0  0  0
   40.4880   23.4460   34.1680 C   0  0  0  0  0  0  0  0  0  0  0  0
   39.3390   24.1700   34.3110 N   0  0  0  0  0  0  0  0  0  0  0  0
   40.9370   21.9860   35.0400 S   0  0  0  0  0  0  0  0  0  0  0  0
   41.6690   22.3010   36.6610 C   0  0  0  0  0  0  0  0  0  0  0  0
   42.7400   23.3500   36.6480 C   0  0  0  0  0  0  0  0  0  0  0  0
   40.5300   22.6100   37.6110 C   0  0  0  0  0  0  0  0  0  0  0  0
   42.2760   20.9760   37.1230 C   0  0  0  0  0  0  0  0  0  0  0  0
   39.3836   26.9535   31.1860 H   0  0  0  0  0  0  0  0  0  0  0  0
   37.4643   25.9784   34.9605 H   0  0  0  0  0  0  0  0  0  0  0  0
   35.5516   29.4517   30.2673 H   0  0  0  0  0  0  0  0  0  0  0  0
   33.2100   32.8665   33.1906 H   0  0  0  0  0  0  0  0  0  0  0  0
   35.0675   31.1813   36.5609 H   0  0  0  0  0  0  0  0  0  0  0  0
   43.0084   23.6128   37.6819 H   0  0  0  0  0  0  0  0  0  0  0  0
   43.6272   22.9618   36.1263 H   0  0  0  0  0  0  0  0  0  0  0  0
   42.3703   24.2451   36.1263 H   0  0  0  0  0  0  0  0  0  0  0  0
   40.8820   22.5145   38.6488 H   0  0  0  0  0  0  0  0  0  0  0  0
   40.1757   23.6367   37.4370 H   0  0  0  0  0  0  0  0  0  0  0  0
   39.7054   21.9031   37.4370 H   0  0  0  0  0  0  0  0  0  0  0  0
   42.2910   20.9431   38.2224 H   0  0  0  0  0  0  0  0  0  0  0  0
   41.6703   20.1417   36.7395 H   0  0  0  0  0  0  0  0  0  0  0  0
   43.3034   20.8898   36.7395 H   0  0  0  0  0  0  0  0  0  0  0  0
  1  2  2  0
  2 16  1  0
  2  3  1  0
  4  3  2  0
  5  4  1  0
  6  1  1  0
  6  5  2  0
  7  5  1  0
  7 15  1  0
  8  9  2  0
  8  7  1  0
  9 10  1  0
 10 15  2  0
 10 11  1  0
 11 12  2  0
 12 13  1  0
 14 13  2  0
 15 14  1  0
 16 20  1  0
 17 18  1  0
 17 16  2  0
 18 19  1  0
 19 20  2  0
 19 21  1  0
 21 22  1  0
 22 25  1  0
 22 24  1  0
 23 22  1  0
  1 26  1  0
  3 27  1  0
  8 28  1  0
 11 29  1  0
 13 30  1  0
 23 31  1  0
 23 32  1  0
 23 33  1  0
 24 34  1  0
 24 35  1  0
 24 36  1  0
 25 37  1  0
 25 38  1  0
 25 39  1  0
M  ISO  8  26  14  27  14  28  14  29  14  30  14  31   8  32   8  33   8
M  ISO  6  34   8  35   8  36   8  37   8  38   8  39   8
M  END
>  <minimizedAffinity>  (1) 
-4.82687473

>  <minimizedRMSD>  (1) 
1.84134126

$$$$
