
     RDKit          3D

 20 21  0  0  0  0  0  0  0  0999 V2000
   38.1550   23.1440   36.6700 C   0  0  0  0  0  0  0  0  0  0  0  0
   38.5900   22.6880   35.4180 C   0  0  0  0  0  0  0  0  0  0  0  0
   39.9120   22.1970   35.3310 C   0  0  0  0  0  0  0  0  0  0  0  0
   40.6920   22.1900   36.4600 N   0  0  0  0  0  0  0  0  0  0  0  0
   40.2160   22.6430   37.6340 C   0  0  0  0  0  0  0  0  0  0  0  0
   38.9500   23.1190   37.7470 N   0  0  0  0  0  0  0  0  0  0  0  0
   37.7910   22.6790   34.1990 C   0  0  0  0  0  0  0  0  0  0  0  0
   36.9850   21.5730   33.9590 C   0  0  0  0  0  0  0  0  0  0  0  0
   36.1760   21.4270   32.8530 C   0  0  0  0  0  0  0  0  0  0  0  0
   36.1730   22.4500   31.9300 C   0  0  0  0  0  0  0  0  0  0  0  0
   36.9520   23.5560   32.1280 C   0  0  0  0  0  0  0  0  0  0  0  0
   37.7440   23.6560   33.2520 C   0  0  0  0  0  0  0  0  0  0  0  0
   37.1312   23.5335   36.7706 H   0  0  0  0  0  0  0  0  0  0  0  0
   40.3093   21.8266   34.3744 H   0  0  0  0  0  0  0  0  0  0  0  0
   40.8665   22.6273   38.5209 H   0  0  0  0  0  0  0  0  0  0  0  0
   36.9932   20.7606   34.7005 H   0  0  0  0  0  0  0  0  0  0  0  0
   35.5568   20.5288   32.7125 H   0  0  0  0  0  0  0  0  0  0  0  0
   35.5424   22.3767   31.0317 H   0  0  0  0  0  0  0  0  0  0  0  0
   36.9468   24.3694   31.3875 H   0  0  0  0  0  0  0  0  0  0  0  0
   38.3598   24.5572   33.3885 H   0  0  0  0  0  0  0  0  0  0  0  0
  1  6  2  0
  2  1  1  0
  3  2  2  0
  3  4  1  0
  4  5  2  0
  5  6  1  0
  7  2  1  0
  8  7  2  0
  9  8  1  0
 10 11  1  0
 10  9  2  0
 11 12  2  0
 12  7  1  0
  1 13  1  0
  3 14  1  0
  5 15  1  0
  8 16  1  0
  9 17  1  0
 10 18  1  0
 11 19  1  0
 12 20  1  0
M  ISO  8  13  14  14  14  15  14  16  14  17  14  18  14  19  14  20  14
M  END
>  <minimizedAffinity>  (1) 
-3.34285903

>  <minimizedRMSD>  (1) 
6.44121218

$$$$
