
     RDKit          3D

 33 35  0  0  0  0  0  0  0  0999 V2000
   37.9100   23.0040   34.7870 C   0  0  0  0  0  0  0  0  0  0  0  0
   37.4180   21.7900   34.3740 C   0  0  0  0  0  0  0  0  0  0  0  0
   37.0340   21.5190   33.0770 C   0  0  0  0  0  0  0  0  0  0  0  0
   37.1540   22.5210   32.1520 C   0  0  0  0  0  0  0  0  0  0  0  0
   37.6370   23.7350   32.5260 C   0  0  0  0  0  0  0  0  0  0  0  0
   38.0190   23.9900   33.8350 C   0  0  0  0  0  0  0  0  0  0  0  0
   37.4650   23.7240   37.1810 C   0  0  0  0  0  0  0  0  0  0  0  0
   38.2800   23.1580   36.1890 C   0  0  0  0  0  0  0  0  0  0  0  0
   39.5440   22.7130   36.5980 C   0  0  0  0  0  0  0  0  0  0  0  0
   39.9220   22.8430   37.9070 N   0  0  0  0  0  0  0  0  0  0  0  0
   39.1000   23.3910   38.8070 C   0  0  0  0  0  0  0  0  0  0  0  0
   37.8750   23.8320   38.4520 N   0  0  0  0  0  0  0  0  0  0  0  0
   38.5390   25.3010   34.2250 C   0  0  0  0  0  0  0  0  0  0  0  0
   37.8600   25.9700   35.3730 C   0  0  0  0  0  0  0  0  0  0  0  0
   38.6610   27.2750   35.3870 C   0  0  0  0  0  0  0  0  0  0  0  0
   40.0780   26.7900   35.1240 C   0  0  0  0  0  0  0  0  0  0  0  0
   39.9650   25.3220   34.7060 C   0  0  0  0  0  0  0  0  0  0  0  0
   37.3248   20.9875   35.1205 H   0  0  0  0  0  0  0  0  0  0  0  0
   36.6440   20.5298   32.7952 H   0  0  0  0  0  0  0  0  0  0  0  0
   36.8598   22.3437   31.1070 H   0  0  0  0  0  0  0  0  0  0  0  0
   37.7270   24.5330   31.7742 H   0  0  0  0  0  0  0  0  0  0  0  0
   36.4636   24.0885   36.9082 H   0  0  0  0  0  0  0  0  0  0  0  0
   40.2313   22.2600   35.8684 H   0  0  0  0  0  0  0  0  0  0  0  0
   39.4269   23.4840   39.8532 H   0  0  0  0  0  0  0  0  0  0  0  0
   38.3786   25.8086   33.2624 H   0  0  0  0  0  0  0  0  0  0  0  0
   36.7912   26.1426   35.1781 H   0  0  0  0  0  0  0  0  0  0  0  0
   37.8534   25.4053   36.3170 H   0  0  0  0  0  0  0  0  0  0  0  0
   38.3211   27.9593   34.5957 H   0  0  0  0  0  0  0  0  0  0  0  0
   38.5575   27.8447   36.3223 H   0  0  0  0  0  0  0  0  0  0  0  0
   40.5381   27.3802   34.3178 H   0  0  0  0  0  0  0  0  0  0  0  0
   40.7087   26.9013   36.0184 H   0  0  0  0  0  0  0  0  0  0  0  0
   40.1199   24.6416   35.5563 H   0  0  0  0  0  0  0  0  0  0  0  0
   40.7098   24.9901   33.9677 H   0  0  0  0  0  0  0  0  0  0  0  0
  1  8  1  0
  2  1  2  0
  3  2  1  0
  4  5  1  0
  4  3  2  0
  5  6  2  0
  6 13  1  0
  6  1  1  0
  7 12  2  0
  8  9  2  0
  8  7  1  0
  9 10  1  0
 10 11  2  0
 12 11  1  0
 13 17  1  0
 13 14  1  0
 14 15  1  0
 16 15  1  0
 17 16  1  0
  2 18  1  0
  3 19  1  0
  4 20  1  0
  5 21  1  0
  7 22  1  0
  9 23  1  0
 11 24  1  0
 13 25  1  0
 14 26  1  0
 14 27  1  0
 15 28  1  0
 15 29  1  0
 16 30  1  0
 16 31  1  0
 17 32  1  0
 17 33  1  0
M  ISO  8  18  14  19  14  20  14  21  14  22  14  23  14  24  14  25  13
M  ISO  8  26  13  27  13  28  13  29  13  30  13  31  13  32  13  33  13
M  END
>  <minimizedAffinity>  (1) 
-4.90140915

>  <minimizedRMSD>  (1) 
1.14306498

$$$$
