
     RDKit          3D

 31 33  0  0  0  0  0  0  0  0999 V2000
   37.9290   22.7310   34.8150 C   0  0  0  0  0  0  0  0  0  0  0  0
   37.0400   21.6820   34.6060 C   0  0  0  0  0  0  0  0  0  0  0  0
   36.6180   21.2550   33.3690 C   0  0  0  0  0  0  0  0  0  0  0  0
   37.1150   21.9220   32.2630 C   0  0  0  0  0  0  0  0  0  0  0  0
   37.9930   22.9620   32.4260 C   0  0  0  0  0  0  0  0  0  0  0  0
   38.3760   23.3380   33.6910 C   0  0  0  0  0  0  0  0  0  0  0  0
   39.2940   24.4260   33.8550 N   0  0  0  0  0  0  0  0  0  0  0  0
   38.9230   25.6930   34.1070 C   0  0  0  0  0  0  0  0  0  0  0  0
   39.8910   26.6780   34.2510 C   0  0  0  0  0  0  0  0  0  0  0  0
   41.2310   26.3870   34.1400 C   0  0  0  0  0  0  0  0  0  0  0  0
   42.2530   27.3640   34.2790 N   0  0  0  0  0  0  0  0  0  0  0  0
   41.5800   25.1170   33.8870 N   0  0  0  0  0  0  0  0  0  0  0  0
   40.6250   24.1620   33.7490 C   0  0  0  0  0  0  0  0  0  0  0  0
   41.0650   22.9890   33.5120 O   0  0  0  0  0  0  0  0  0  0  0  0
   37.5480   23.9040   37.0390 C   0  0  0  0  0  0  0  0  0  0  0  0
   38.2780   23.0610   36.1770 C   0  0  0  0  0  0  0  0  0  0  0  0
   39.4540   22.5000   36.7110 C   0  0  0  0  0  0  0  0  0  0  0  0
   39.8140   22.7970   38.0060 N   0  0  0  0  0  0  0  0  0  0  0  0
   39.0580   23.6150   38.7680 C   0  0  0  0  0  0  0  0  0  0  0  0
   37.9100   24.1800   38.2870 N   0  0  0  0  0  0  0  0  0  0  0  0
   36.6479   21.1584   35.4904 H   0  0  0  0  0  0  0  0  0  0  0  0
   35.9136   20.4168   33.2628 H   0  0  0  0  0  0  0  0  0  0  0  0
   36.8053   21.6174   31.2524 H   0  0  0  0  0  0  0  0  0  0  0  0
   38.3892   23.4932   31.5480 H   0  0  0  0  0  0  0  0  0  0  0  0
   37.8570   25.9485   34.1988 H   0  0  0  0  0  0  0  0  0  0  0  0
   39.5799   27.7126   34.4581 H   0  0  0  0  0  0  0  0  0  0  0  0
   43.2420   27.0915   34.1863 H   0  0  0  0  0  0  0  0  0  0  0  0
   42.0050   28.3448   34.4725 H   0  0  0  0  0  0  0  0  0  0  0  0
   36.6236   24.3605   36.6555 H   0  0  0  0  0  0  0  0  0  0  0  0
   40.0783   21.8316   36.0999 H   0  0  0  0  0  0  0  0  0  0  0  0
   39.3727   23.8320   39.7994 H   0  0  0  0  0  0  0  0  0  0  0  0
  1 16  1  0
  2  1  2  0
  3  2  1  0
  4  5  1  0
  4  3  2  0
  5  6  2  0
  6  7  1  0
  6  1  1  0
  7  8  1  0
  8  9  2  0
 10  9  1  0
 10 11  1  0
 12 10  2  0
 13  7  1  0
 13 12  1  0
 14 13  2  0
 15 20  2  0
 16 17  2  0
 16 15  1  0
 17 18  1  0
 18 19  2  0
 20 19  1  0
  2 21  1  0
  3 22  1  0
  4 23  1  0
  5 24  1  0
  8 25  1  0
  9 26  1  0
 11 27  1  0
 11 28  1  0
 15 29  1  0
 17 30  1  0
 19 31  1  0
M  ISO  8  21  14  22  14  23  14  24  14  25  14  26  14  29  14  30  14
M  ISO  1  31  14
M  END
>  <minimizedAffinity>  (1) 
-4.81691504

>  <minimizedRMSD>  (1) 
1.56573415

$$$$
