
     RDKit          3D

 30 32  0  0  0  0  0  0  0  0999 V2000
   37.9390   22.8470   34.8850 C   0  0  0  0  0  0  0  0  0  0  0  0
   37.2220   21.6820   34.5990 C   0  0  0  0  0  0  0  0  0  0  0  0
   36.8380   21.3290   33.3220 C   0  0  0  0  0  0  0  0  0  0  0  0
   37.1720   22.1580   32.2830 C   0  0  0  0  0  0  0  0  0  0  0  0
   37.8710   23.3030   32.5310 C   0  0  0  0  0  0  0  0  0  0  0  0
   38.2360   23.6200   33.8120 C   0  0  0  0  0  0  0  0  0  0  0  0
   37.4870   23.7670   37.1990 C   0  0  0  0  0  0  0  0  0  0  0  0
   38.2800   23.0940   36.2740 C   0  0  0  0  0  0  0  0  0  0  0  0
   39.5360   22.6030   36.7250 C   0  0  0  0  0  0  0  0  0  0  0  0
   39.8940   22.8150   38.0300 N   0  0  0  0  0  0  0  0  0  0  0  0
   39.0790   23.4750   38.8770 C   0  0  0  0  0  0  0  0  0  0  0  0
   37.8670   23.9570   38.4660 N   0  0  0  0  0  0  0  0  0  0  0  0
   38.9840   24.8470   34.0680 C   0  0  0  0  0  0  0  0  0  0  0  0
   40.3360   24.6410   33.7680 C   0  0  0  0  0  0  0  0  0  0  0  0
   41.2600   25.6790   33.9340 C   0  0  0  0  0  0  0  0  0  0  0  0
   40.8460   26.8980   34.3910 C   0  0  0  0  0  0  0  0  0  0  0  0
   39.5120   27.0760   34.6790 C   0  0  0  0  0  0  0  0  0  0  0  0
   38.5760   26.0820   34.5290 C   0  0  0  0  0  0  0  0  0  0  0  0
   36.9512   21.0154   35.4311 H   0  0  0  0  0  0  0  0  0  0  0  0
   36.2753   20.4012   33.1413 H   0  0  0  0  0  0  0  0  0  0  0  0
   36.8780   21.9015   31.2545 H   0  0  0  0  0  0  0  0  0  0  0  0
   38.1416   23.9722   31.7010 H   0  0  0  0  0  0  0  0  0  0  0  0
   36.5109   24.1571   36.8749 H   0  0  0  0  0  0  0  0  0  0  0  0
   40.2066   22.0638   36.0397 H   0  0  0  0  0  0  0  0  0  0  0  0
   39.3951   23.6289   39.9193 H   0  0  0  0  0  0  0  0  0  0  0  0
   40.6730   23.6604   33.4007 H   0  0  0  0  0  0  0  0  0  0  0  0
   42.3211   25.5130   33.6962 H   0  0  0  0  0  0  0  0  0  0  0  0
   41.5640   27.7203   34.5260 H   0  0  0  0  0  0  0  0  0  0  0  0
   39.1805   28.0586   35.0458 H   0  0  0  0  0  0  0  0  0  0  0  0
   37.5193   26.2672   34.7722 H   0  0  0  0  0  0  0  0  0  0  0  0
  1  8  1  0
  2  1  2  0
  3  2  1  0
  4  5  1  0
  4  3  2  0
  5  6  2  0
  6 13  1  0
  6  1  1  0
  7 12  2  0
  8  9  2  0
  8  7  1  0
  9 10  1  0
 10 11  2  0
 12 11  1  0
 13 18  2  0
 14 15  2  0
 14 13  1  0
 15 16  1  0
 16 17  2  0
 18 17  1  0
  2 19  1  0
  3 20  1  0
  4 21  1  0
  5 22  1  0
  7 23  1  0
  9 24  1  0
 11 25  1  0
 14 26  1  0
 15 27  1  0
 16 28  1  0
 17 29  1  0
 18 30  1  0
M  ISO  8  19  14  20  14  21  14  22  14  23  14  24  14  25  14  26  14
M  ISO  4  27  14  28  14  29  14  30  14
M  END
>  <minimizedAffinity>  (1) 
-4.68329811

>  <minimizedRMSD>  (1) 
1.46284986

$$$$
