
     RDKit          3D

 26 28  0  0  0  0  0  0  0  0999 V2000
   37.9680   22.9360   34.7020 C   0  0  0  0  0  0  0  0  0  0  0  0
   37.3240   21.7820   34.3030 C   0  0  0  0  0  0  0  0  0  0  0  0
   36.9550   21.5250   32.9970 C   0  0  0  0  0  0  0  0  0  0  0  0
   37.2420   22.4630   32.0440 C   0  0  0  0  0  0  0  0  0  0  0  0
   37.8740   23.6100   32.4010 C   0  0  0  0  0  0  0  0  0  0  0  0
   38.2350   23.8480   33.7150 C   0  0  0  0  0  0  0  0  0  0  0  0
   37.4710   23.6190   37.0960 C   0  0  0  0  0  0  0  0  0  0  0  0
   38.2980   23.0770   36.1130 C   0  0  0  0  0  0  0  0  0  0  0  0
   39.5780   22.6220   36.5240 C   0  0  0  0  0  0  0  0  0  0  0  0
   39.9310   22.7370   37.8430 N   0  0  0  0  0  0  0  0  0  0  0  0
   39.0780   23.2710   38.7390 C   0  0  0  0  0  0  0  0  0  0  0  0
   37.8450   23.7150   38.3710 N   0  0  0  0  0  0  0  0  0  0  0  0
   38.9250   25.0740   34.1780 C   0  0  0  0  0  0  0  0  0  0  0  0
   40.2100   25.0830   33.7330 C   0  0  0  0  0  0  0  0  0  0  0  0
   40.9240   26.6650   34.3920 S   0  0  0  0  0  0  0  0  0  0  0  0
   39.2260   27.0400   35.2030 C   0  0  0  0  0  0  0  0  0  0  0  0
   38.6440   26.1390   34.8890 N   0  0  0  0  0  0  0  0  0  0  0  0
   37.0919   21.0255   35.0671 H   0  0  0  0  0  0  0  0  0  0  0  0
   36.4429   20.5888   32.7300 H   0  0  0  0  0  0  0  0  0  0  0  0
   36.9623   22.2890   30.9945 H   0  0  0  0  0  0  0  0  0  0  0  0
   38.1030   24.3630   31.6325 H   0  0  0  0  0  0  0  0  0  0  0  0
   36.4729   23.9807   36.8081 H   0  0  0  0  0  0  0  0  0  0  0  0
   40.2757   22.1839   35.7951 H   0  0  0  0  0  0  0  0  0  0  0  0
   39.3852   23.3500   39.7923 H   0  0  0  0  0  0  0  0  0  0  0  0
   40.7142   24.3222   33.1191 H   0  0  0  0  0  0  0  0  0  0  0  0
   38.9123   27.9027   35.8091 H   0  0  0  0  0  0  0  0  0  0  0  0
  1  8  1  0
  2  1  2  0
  3  2  1  0
  4  5  1  0
  4  3  2  0
  5  6  2  0
  6 13  1  0
  6  1  1  0
  7 12  2  0
  8  9  2  0
  8  7  1  0
  9 10  1  0
 10 11  2  0
 12 11  1  0
 13 17  1  0
 14 13  2  0
 14 15  1  0
 15 16  1  0
 17 16  2  0
  2 18  1  0
  3 19  1  0
  4 20  1  0
  5 21  1  0
  7 22  1  0
  9 23  1  0
 11 24  1  0
 14 25  1  0
 16 26  1  0
M  ISO  8  18  14  19  14  20  14  21  14  22  14  23  14  24  14  25  14
M  ISO  1  26  14
M  END
>  <minimizedAffinity>  (1) 
-4.30554914

>  <minimizedRMSD>  (1) 
1.26453829

$$$$
