
     RDKit          3D

 29 30  0  0  0  0  0  0  0  0999 V2000
   38.0500   23.4100   34.2620 C   0  0  0  0  0  0  0  0  0  0  0  0
   37.4800   22.3000   33.6330 C   0  0  0  0  0  0  0  0  0  0  0  0
   36.7670   22.3900   32.4550 C   0  0  0  0  0  0  0  0  0  0  0  0
   36.6160   23.6360   31.8800 C   0  0  0  0  0  0  0  0  0  0  0  0
   37.1620   24.7270   32.4760 C   0  0  0  0  0  0  0  0  0  0  0  0
   37.8680   24.6030   33.6520 C   0  0  0  0  0  0  0  0  0  0  0  0
   38.2950   23.3820   36.7910 C   0  0  0  0  0  0  0  0  0  0  0  0
   38.7780   23.1660   35.5040 C   0  0  0  0  0  0  0  0  0  0  0  0
   40.1040   22.6620   35.3840 C   0  0  0  0  0  0  0  0  0  0  0  0
   40.8330   22.4130   36.5150 N   0  0  0  0  0  0  0  0  0  0  0  0
   40.3070   22.6430   37.7280 C   0  0  0  0  0  0  0  0  0  0  0  0
   39.0550   23.1210   37.8750 N   0  0  0  0  0  0  0  0  0  0  0  0
   38.4780   25.7850   34.3250 C   0  0  0  0  0  0  0  0  0  0  0  0
   37.3880   26.6410   34.9360 C   0  0  0  0  0  0  0  0  0  0  0  0
   39.2280   26.6670   33.3410 C   0  0  0  0  0  0  0  0  0  0  0  0
   37.6052   21.3107   34.0974 H   0  0  0  0  0  0  0  0  0  0  0  0
   36.3314   21.4946   31.9875 H   0  0  0  0  0  0  0  0  0  0  0  0
   36.0543   23.7448   30.9405 H   0  0  0  0  0  0  0  0  0  0  0  0
   37.0394   25.7185   32.0156 H   0  0  0  0  0  0  0  0  0  0  0  0
   37.2757   23.7724   36.9271 H   0  0  0  0  0  0  0  0  0  0  0  0
   40.5387   22.4744   34.3911 H   0  0  0  0  0  0  0  0  0  0  0  0
   40.9116   22.4367   38.6235 H   0  0  0  0  0  0  0  0  0  0  0  0
   39.1726   25.3993   35.0857 H   0  0  0  0  0  0  0  0  0  0  0  0
   37.4532   26.5898   36.0329 H   0  0  0  0  0  0  0  0  0  0  0  0
   37.5143   27.6838   34.6094 H   0  0  0  0  0  0  0  0  0  0  0  0
   36.4049   26.2711   34.6094 H   0  0  0  0  0  0  0  0  0  0  0  0
   39.8441   27.3915   33.8938 H   0  0  0  0  0  0  0  0  0  0  0  0
   39.8757   26.0422   32.7084 H   0  0  0  0  0  0  0  0  0  0  0  0
   38.5072   27.2058   32.7084 H   0  0  0  0  0  0  0  0  0  0  0  0
  1  8  1  0
  2  1  2  0
  3  2  1  0
  4  3  2  0
  4  5  1  0
  5  6  2  0
  6  1  1  0
  6 13  1  0
  7 12  2  0
  8  7  1  0
  9  8  2  0
  9 10  1  0
 10 11  2  0
 11 12  1  0
 13 14  1  0
 15 13  1  0
  2 16  1  0
  3 17  1  0
  4 18  1  0
  5 19  1  0
  7 20  1  0
  9 21  1  0
 11 22  1  0
 13 23  1  0
 14 24  1  0
 14 25  1  0
 14 26  1  0
 15 27  1  0
 15 28  1  0
 15 29  1  0
M  ISO  8  16  14  17  14  18  14  19  14  20  14  21  14  22  14  23   8
M  ISO  6  24   8  25   8  26   8  27   8  28   8  29   8
M  END
>  <minimizedAffinity>  (1) 
-3.78377247

>  <minimizedRMSD>  (1) 
1.39862263

$$$$
