
     RDKit          3D

 23 24  0  0  0  0  0  0  0  0999 V2000
   38.1150   23.7980   34.7440 C   0  0  0  0  0  0  0  0  0  0  0  0
   37.8300   22.6470   34.0020 C   0  0  0  0  0  0  0  0  0  0  0  0
   37.5580   22.6490   32.6490 C   0  0  0  0  0  0  0  0  0  0  0  0
   37.5690   23.8630   31.9980 C   0  0  0  0  0  0  0  0  0  0  0  0
   37.8460   25.0110   32.7010 C   0  0  0  0  0  0  0  0  0  0  0  0
   38.1110   24.9570   34.0490 C   0  0  0  0  0  0  0  0  0  0  0  0
   37.4900   23.9670   37.1960 C   0  0  0  0  0  0  0  0  0  0  0  0
   38.3800   23.6270   36.1560 C   0  0  0  0  0  0  0  0  0  0  0  0
   39.6130   23.0820   36.5460 C   0  0  0  0  0  0  0  0  0  0  0  0
   39.8800   22.9130   37.8770 N   0  0  0  0  0  0  0  0  0  0  0  0
   38.9910   23.2570   38.8160 C   0  0  0  0  0  0  0  0  0  0  0  0
   37.7940   23.7850   38.4870 N   0  0  0  0  0  0  0  0  0  0  0  0
   38.4030   26.1810   34.7870 C   0  0  0  0  0  0  0  0  0  0  0  0
   37.4640   26.9030   35.2140 O   0  0  0  0  0  0  0  0  0  0  0  0
   39.7320   26.5500   35.0190 O   0  0  0  0  0  0  0  0  0  0  0  0
   37.8222   21.6815   34.5290 H   0  0  0  0  0  0  0  0  0  0  0  0
   37.3403   21.7151   32.1100 H   0  0  0  0  0  0  0  0  0  0  0  0
   37.3569   23.9133   30.9198 H   0  0  0  0  0  0  0  0  0  0  0  0
   37.8558   25.9804   32.1812 H   0  0  0  0  0  0  0  0  0  0  0  0
   36.5112   24.3970   36.9371 H   0  0  0  0  0  0  0  0  0  0  0  0
   40.3573   22.7936   35.7891 H   0  0  0  0  0  0  0  0  0  0  0  0
   39.2410   23.1064   39.8766 H   0  0  0  0  0  0  0  0  0  0  0  0
   39.9352   27.3797   35.5193 H   0  0  0  0  0  0  0  0  0  0  0  0
  1  8  1  0
  2  1  2  0
  3  2  1  0
  4  3  2  0
  4  5  1  0
  5  6  2  0
  6  1  1  0
  6 13  1  0
  7 12  2  0
  8  9  2  0
  8  7  1  0
  9 10  1  0
 10 11  2  0
 12 11  1  0
 13 15  1  0
 13 14  2  0
  2 16  1  0
  3 17  1  0
  4 18  1  0
  5 19  1  0
  7 20  1  0
  9 21  1  0
 11 22  1  0
 15 23  1  0
M  ISO  8  16  14  17  14  18  14  19  14  20  14  21  14  22  14  23   3
M  END
>  <minimizedAffinity>  (1) 
-3.75512505

>  <minimizedRMSD>  (1) 
1.82975304

$$$$
