
     RDKit          3D

 26 27  0  0  0  0  0  0  0  0999 V2000
   37.9450   23.0920   34.8020 C   0  0  0  0  0  0  0  0  0  0  0  0
   37.4910   21.8380   34.3840 C   0  0  0  0  0  0  0  0  0  0  0  0
   37.1340   21.5400   33.0900 C   0  0  0  0  0  0  0  0  0  0  0  0
   37.2340   22.5550   32.1640 C   0  0  0  0  0  0  0  0  0  0  0  0
   37.6770   23.8010   32.5430 C   0  0  0  0  0  0  0  0  0  0  0  0
   38.0240   24.0480   33.8520 C   0  0  0  0  0  0  0  0  0  0  0  0
   37.4860   23.8480   37.1860 C   0  0  0  0  0  0  0  0  0  0  0  0
   38.2860   23.2440   36.2180 C   0  0  0  0  0  0  0  0  0  0  0  0
   39.5340   22.7280   36.6410 C   0  0  0  0  0  0  0  0  0  0  0  0
   39.8870   22.8460   37.9570 N   0  0  0  0  0  0  0  0  0  0  0  0
   39.0600   23.4450   38.8470 C   0  0  0  0  0  0  0  0  0  0  0  0
   37.8500   23.9520   38.4680 N   0  0  0  0  0  0  0  0  0  0  0  0
   38.5080   25.3870   34.2890 C   0  0  0  0  0  0  0  0  0  0  0  0
   37.4480   26.4190   34.3950 C   0  0  0  0  0  0  0  0  0  0  0  0
   37.4145   21.0398   35.1370 H   0  0  0  0  0  0  0  0  0  0  0  0
   36.7843   20.5362   32.8070 H   0  0  0  0  0  0  0  0  0  0  0  0
   36.9581   22.3681   31.1157 H   0  0  0  0  0  0  0  0  0  0  0  0
   37.7544   24.6045   31.7958 H   0  0  0  0  0  0  0  0  0  0  0  0
   36.5115   24.2575   36.8816 H   0  0  0  0  0  0  0  0  0  0  0  0
   40.2093   22.2399   35.9229 H   0  0  0  0  0  0  0  0  0  0  0  0
   39.3703   23.5249   39.8993 H   0  0  0  0  0  0  0  0  0  0  0  0
   38.9800   25.2764   35.2764 H   0  0  0  0  0  0  0  0  0  0  0  0
   39.2076   25.7351   33.5148 H   0  0  0  0  0  0  0  0  0  0  0  0
   37.2391   26.6224   35.4556 H   0  0  0  0  0  0  0  0  0  0  0  0
   37.7859   27.3435   33.9040 H   0  0  0  0  0  0  0  0  0  0  0  0
   36.5329   26.0565   33.9040 H   0  0  0  0  0  0  0  0  0  0  0  0
  1  8  1  0
  2  1  2  0
  3  2  1  0
  4  5  1  0
  4  3  2  0
  5  6  2  0
  6 13  1  0
  6  1  1  0
  7 12  2  0
  8  9  2  0
  8  7  1  0
  9 10  1  0
 10 11  2  0
 12 11  1  0
 13 14  1  0
  2 15  1  0
  3 16  1  0
  4 17  1  0
  5 18  1  0
  7 19  1  0
  9 20  1  0
 11 21  1  0
 13 22  1  0
 13 23  1  0
 14 24  1  0
 14 25  1  0
 14 26  1  0
M  ISO  8  15  14  16  14  17  14  18  14  19  14  20  14  21  14  22   8
M  ISO  4  23   8  24   8  25   8  26   8
M  END
>  <minimizedAffinity>  (1) 
-3.70375586

>  <minimizedRMSD>  (1) 
1.35273576

$$$$
