
     RDKit          3D

 22 23  0  0  0  0  0  0  0  0999 V2000
   37.7970   22.6970   34.2000 C   0  0  0  0  0  0  0  0  0  0  0  0
   37.0320   21.5730   33.9320 C   0  0  0  0  0  0  0  0  0  0  0  0
   36.2320   21.4390   32.8180 C   0  0  0  0  0  0  0  0  0  0  0  0
   36.1980   22.4890   31.9260 C   0  0  0  0  0  0  0  0  0  0  0  0
   36.9350   23.6050   32.1590 C   0  0  0  0  0  0  0  0  0  0  0  0
   37.7230   23.6970   33.2870 C   0  0  0  0  0  0  0  0  0  0  0  0
   38.1510   23.1700   36.6720 C   0  0  0  0  0  0  0  0  0  0  0  0
   38.6000   22.6950   35.4270 C   0  0  0  0  0  0  0  0  0  0  0  0
   39.9050   22.1880   35.3570 C   0  0  0  0  0  0  0  0  0  0  0  0
   40.6760   22.1740   36.4830 N   0  0  0  0  0  0  0  0  0  0  0  0
   40.2030   22.6390   37.6510 C   0  0  0  0  0  0  0  0  0  0  0  0
   38.9410   23.1380   37.7540 N   0  0  0  0  0  0  0  0  0  0  0  0
   38.5200   24.8630   33.5690 N   0  0  0  0  0  0  0  0  0  0  0  0
   37.0653   20.7400   34.6497 H   0  0  0  0  0  0  0  0  0  0  0  0
   35.6417   20.5267   32.6469 H   0  0  0  0  0  0  0  0  0  0  0  0
   35.5725   22.4227   31.0236 H   0  0  0  0  0  0  0  0  0  0  0  0
   36.9035   24.4405   31.4441 H   0  0  0  0  0  0  0  0  0  0  0  0
   37.1322   23.5755   36.7594 H   0  0  0  0  0  0  0  0  0  0  0  0
   40.3030   21.8058   34.4054 H   0  0  0  0  0  0  0  0  0  0  0  0
   40.8482   22.6160   38.5416 H   0  0  0  0  0  0  0  0  0  0  0  0
   39.0974   24.8983   34.4212 H   0  0  0  0  0  0  0  0  0  0  0  0
   38.5126   25.6615   32.9185 H   0  0  0  0  0  0  0  0  0  0  0  0
  1  8  1  0
  2  1  2  0
  3  2  1  0
  4  5  1  0
  4  3  2  0
  5  6  2  0
  6 13  1  0
  6  1  1  0
  7 12  2  0
  8  7  1  0
  9  8  2  0
  9 10  1  0
 10 11  2  0
 11 12  1  0
  2 14  1  0
  3 15  1  0
  4 16  1  0
  5 17  1  0
  7 18  1  0
  9 19  1  0
 11 20  1  0
 13 21  1  0
 13 22  1  0
M  ISO  7  14  14  15  14  16  14  17  14  18  14  19  14  20  14
M  END
>  <minimizedAffinity>  (1) 
-3.50430298

>  <minimizedRMSD>  (1) 
0.0477602407

$$$$
