
     RDKit          3D

 30 32  0  0  0  0  0  0  0  0999 V2000
   37.8230   22.7080   34.7720 C   0  0  0  0  0  0  0  0  0  0  0  0
   37.1440   21.5460   34.4640 C   0  0  0  0  0  0  0  0  0  0  0  0
   36.7050   21.2240   33.1970 C   0  0  0  0  0  0  0  0  0  0  0  0
   36.9620   22.1190   32.1830 C   0  0  0  0  0  0  0  0  0  0  0  0
   37.6290   23.2740   32.4560 C   0  0  0  0  0  0  0  0  0  0  0  0
   38.0540   23.5630   33.7360 C   0  0  0  0  0  0  0  0  0  0  0  0
   37.4270   23.4780   37.1580 C   0  0  0  0  0  0  0  0  0  0  0  0
   38.2260   22.9120   36.1610 C   0  0  0  0  0  0  0  0  0  0  0  0
   39.5340   22.5040   36.5270 C   0  0  0  0  0  0  0  0  0  0  0  0
   39.9320   22.6850   37.8250 N   0  0  0  0  0  0  0  0  0  0  0  0
   39.1250   23.2310   38.7370 C   0  0  0  0  0  0  0  0  0  0  0  0
   37.8770   23.6300   38.4190 N   0  0  0  0  0  0  0  0  0  0  0  0
   38.7730   24.8090   34.0260 C   0  0  0  0  0  0  0  0  0  0  0  0
   37.9320   25.8570   34.3980 C   0  0  0  0  0  0  0  0  0  0  0  0
   38.4360   27.1220   34.7140 C   0  0  0  0  0  0  0  0  0  0  0  0
   39.8010   27.2190   34.6230 C   0  0  0  0  0  0  0  0  0  0  0  0
   40.6830   26.2220   34.2610 C   0  0  0  0  0  0  0  0  0  0  0  0
   40.1360   24.9930   33.9580 C   0  0  0  0  0  0  0  0  0  0  0  0
   36.9410   20.8345   35.2780 H   0  0  0  0  0  0  0  0  0  0  0  0
   36.1677   20.2839   33.0031 H   0  0  0  0  0  0  0  0  0  0  0  0
   36.6300   21.9019   31.1570 H   0  0  0  0  0  0  0  0  0  0  0  0
   37.8320   23.9874   31.6437 H   0  0  0  0  0  0  0  0  0  0  0  0
   36.4076   23.8069   36.9077 H   0  0  0  0  0  0  0  0  0  0  0  0
   40.2119   22.0535   35.7870 H   0  0  0  0  0  0  0  0  0  0  0  0
   39.4852   23.3580   39.7686 H   0  0  0  0  0  0  0  0  0  0  0  0
   36.8466   25.6844   34.4439 H   0  0  0  0  0  0  0  0  0  0  0  0
   37.7944   27.9652   35.0096 H   0  0  0  0  0  0  0  0  0  0  0  0
   40.2402   28.1981   34.8649 H   0  0  0  0  0  0  0  0  0  0  0  0
   41.7678   26.3985   34.2163 H   0  0  0  0  0  0  0  0  0  0  0  0
   40.7890   24.1589   33.6617 H   0  0  0  0  0  0  0  0  0  0  0  0
  1  8  1  0
  2  1  2  0
  3  2  1  0
  4  5  1  0
  4  3  2  0
  5  6  2  0
  6 13  1  0
  6  1  1  0
  7 12  2  0
  8  9  2  0
  8  7  1  0
  9 10  1  0
 10 11  2  0
 12 11  1  0
 13 14  2  0
 14 15  1  0
 16 15  2  0
 17 16  1  0
 18 13  1  0
 18 17  2  0
  2 19  1  0
  3 20  1  0
  4 21  1  0
  5 22  1  0
  7 23  1  0
  9 24  1  0
 11 25  1  0
 14 26  1  0
 15 27  1  0
 16 28  1  0
 17 29  1  0
 18 30  1  0
M  ISO  8  19  14  20  14  21  14  22  14  23  14  24  14  25  14  26  14
M  ISO  4  27  14  28  14  29  14  30  14
M  END
>  <minimizedAffinity>  (1) 
-4.67587996

>  <minimizedRMSD>  (1) 
1.14678919

$$$$
