
     RDKit          3D

 43 47  0  0  0  0  0  0  0  0999 V2000
   38.0850   25.6600   33.8250 C   0  0  0  0  0  0  0  0  0  0  0  0
   36.9930   26.5340   33.7380 C   0  0  0  0  0  0  0  0  0  0  0  0
   36.8910   27.6580   34.5680 C   0  0  0  0  0  0  0  0  0  0  0  0
   37.9470   27.8010   35.4470 C   0  0  0  0  0  0  0  0  0  0  0  0
   39.0350   26.9730   35.5690 C   0  0  0  0  0  0  0  0  0  0  0  0
   39.0850   25.8800   34.7240 C   0  0  0  0  0  0  0  0  0  0  0  0
   38.4250   24.7670   31.5910 C   0  0  0  0  0  0  0  0  0  0  0  0
   38.3470   23.7110   30.7190 C   0  0  0  0  0  0  0  0  0  0  0  0
   37.8720   22.4630   31.0770 C   0  0  0  0  0  0  0  0  0  0  0  0
   37.4590   22.2820   32.3710 C   0  0  0  0  0  0  0  0  0  0  0  0
   37.5280   23.3150   33.2440 C   0  0  0  0  0  0  0  0  0  0  0  0
   38.0040   24.5570   32.8800 C   0  0  0  0  0  0  0  0  0  0  0  0
   40.2830   26.4590   31.1790 C   0  0  0  0  0  0  0  0  0  0  0  0
   38.9530   26.0320   31.0730 C   0  0  0  0  0  0  0  0  0  0  0  0
   38.0610   26.8980   30.4140 C   0  0  0  0  0  0  0  0  0  0  0  0
   38.5180   28.0860   29.9200 N   0  0  0  0  0  0  0  0  0  0  0  0
   39.8010   28.4410   30.0510 C   0  0  0  0  0  0  0  0  0  0  0  0
   40.6820   27.6460   30.6710 N   0  0  0  0  0  0  0  0  0  0  0  0
   40.2010   25.0060   34.8240 N   0  0  0  0  0  0  0  0  0  0  0  0
   41.3680   24.8030   34.2010 C   0  0  0  0  0  0  0  0  0  0  0  0
   42.0430   23.7910   34.7640 N   0  0  0  0  0  0  0  0  0  0  0  0
   41.3190   23.3100   35.7770 C   0  0  0  0  0  0  0  0  0  0  0  0
   41.6500   22.2670   36.6180 C   0  0  0  0  0  0  0  0  0  0  0  0
   40.7190   21.9810   37.5770 N   0  0  0  0  0  0  0  0  0  0  0  0
   39.5710   22.7050   37.6480 C   0  0  0  0  0  0  0  0  0  0  0  0
   39.2930   23.7130   36.8050 N   0  0  0  0  0  0  0  0  0  0  0  0
   40.1670   24.0670   35.8170 C   0  0  0  0  0  0  0  0  0  0  0  0
   42.8750   21.5560   36.4800 N   0  0  0  0  0  0  0  0  0  0  0  0
   36.1997   26.3334   33.0029 H   0  0  0  0  0  0  0  0  0  0  0  0
   36.0472   28.3623   34.5238 H   0  0  0  0  0  0  0  0  0  0  0  0
   37.9124   28.6702   36.1203 H   0  0  0  0  0  0  0  0  0  0  0  0
   39.8293   27.1698   36.3041 H   0  0  0  0  0  0  0  0  0  0  0  0
   38.6794   23.8650   29.6818 H   0  0  0  0  0  0  0  0  0  0  0  0
   37.8270   21.6417   30.3466 H   0  0  0  0  0  0  0  0  0  0  0  0
   37.0743   21.3048   32.6982 H   0  0  0  0  0  0  0  0  0  0  0  0
   37.1926   23.1578   34.2798 H   0  0  0  0  0  0  0  0  0  0  0  0
   41.0171   25.8154   31.6858 H   0  0  0  0  0  0  0  0  0  0  0  0
   37.0031   26.6199   30.2976 H   0  0  0  0  0  0  0  0  0  0  0  0
   40.1387   29.4045   29.6415 H   0  0  0  0  0  0  0  0  0  0  0  0
   41.7256   25.3887   33.3413 H   0  0  0  0  0  0  0  0  0  0  0  0
   38.8382   22.4547   38.4293 H   0  0  0  0  0  0  0  0  0  0  0  0
   43.0961   20.7815   37.1220 H   0  0  0  0  0  0  0  0  0  0  0  0
   43.5405   21.8159   35.7381 H   0  0  0  0  0  0  0  0  0  0  0  0
  1  6  1  0
  2  1  2  0
  2  3  1  0
  3  4  2  0
  4  5  1  0
  6 19  1  0
  6  5  2  0
  7 12  2  0
  8  9  2  0
  8  7  1  0
  9 10  1  0
 10 11  2  0
 12 11  1  0
 12  1  1  0
 14 13  2  0
 14  7  1  0
 15 14  1  0
 16 17  1  0
 16 15  2  0
 17 18  2  0
 18 13  1  0
 19 27  1  0
 20 21  2  0
 20 19  1  0
 21 22  1  0
 22 27  2  0
 22 23  1  0
 23 24  2  0
 24 25  1  0
 26 25  2  0
 27 26  1  0
 28 23  1  0
  2 29  1  0
  3 30  1  0
  4 31  1  0
  5 32  1  0
  8 33  1  0
  9 34  1  0
 10 35  1  0
 11 36  1  0
 13 37  1  0
 15 38  1  0
 17 39  1  0
 20 40  1  0
 25 41  1  0
 28 42  1  0
 28 43  1  0
M  ISO  8  29  14  30  14  31  14  32  14  33  14  34  14  35  14  36  14
M  ISO  5  37  14  38  14  39  14  40  14  41  14
M  END
>  <minimizedAffinity>  (1) 
-5.63362408

>  <minimizedRMSD>  (1) 
4.90652609

$$$$
