
     RDKit          3D

 40 43  0  0  0  0  0  0  0  0999 V2000
   38.0480   22.8510   34.7380 C   0  0  0  0  0  0  0  0  0  0  0  0
   37.7390   21.6040   34.2540 C   0  0  0  0  0  0  0  0  0  0  0  0
   37.4400   21.3490   32.9310 C   0  0  0  0  0  0  0  0  0  0  0  0
   37.4540   22.4030   32.0560 C   0  0  0  0  0  0  0  0  0  0  0  0
   37.7570   23.6480   32.5080 C   0  0  0  0  0  0  0  0  0  0  0  0
   38.0540   23.8860   33.8340 C   0  0  0  0  0  0  0  0  0  0  0  0
   38.3650   25.2220   34.3210 C   0  0  0  0  0  0  0  0  0  0  0  0
   37.2410   25.9610   34.6690 C   0  0  0  0  0  0  0  0  0  0  0  0
   37.3650   27.2700   35.1570 C   0  0  0  0  0  0  0  0  0  0  0  0
   38.6430   27.7290   35.2530 C   0  0  0  0  0  0  0  0  0  0  0  0
   39.7970   27.0320   34.9180 C   0  0  0  0  0  0  0  0  0  0  0  0
   39.6150   25.7540   34.4440 C   0  0  0  0  0  0  0  0  0  0  0  0
   40.8440   25.0580   34.0910 C   0  0  0  0  0  0  0  0  0  0  0  0
   41.8060   24.7760   35.0390 C   0  0  0  0  0  0  0  0  0  0  0  0
   42.9940   24.1310   34.7810 C   0  0  0  0  0  0  0  0  0  0  0  0
   43.2760   23.7260   33.5040 C   0  0  0  0  0  0  0  0  0  0  0  0
   42.3610   23.9780   32.5330 C   0  0  0  0  0  0  0  0  0  0  0  0
   41.1910   24.6230   32.8310 C   0  0  0  0  0  0  0  0  0  0  0  0
   37.4270   23.3850   37.1500 C   0  0  0  0  0  0  0  0  0  0  0  0
   38.3330   22.9700   36.1610 C   0  0  0  0  0  0  0  0  0  0  0  0
   39.6240   22.6480   36.6060 C   0  0  0  0  0  0  0  0  0  0  0  0
   39.9370   22.7460   37.9280 N   0  0  0  0  0  0  0  0  0  0  0  0
   39.0340   23.1480   38.8250 C   0  0  0  0  0  0  0  0  0  0  0  0
   37.7890   23.4650   38.4500 N   0  0  0  0  0  0  0  0  0  0  0  0
   37.7292   20.7608   34.9603 H   0  0  0  0  0  0  0  0  0  0  0  0
   37.1981   20.3316   32.5899 H   0  0  0  0  0  0  0  0  0  0  0  0
   37.2212   22.2422   30.9930 H   0  0  0  0  0  0  0  0  0  0  0  0
   37.7657   24.4882   31.7980 H   0  0  0  0  0  0  0  0  0  0  0  0
   36.2418   25.5140   34.5604 H   0  0  0  0  0  0  0  0  0  0  0  0
   36.4948   27.8801   35.4409 H   0  0  0  0  0  0  0  0  0  0  0  0
   38.7749   28.7527   35.6333 H   0  0  0  0  0  0  0  0  0  0  0  0
   40.7975   27.4762   35.0256 H   0  0  0  0  0  0  0  0  0  0  0  0
   41.6093   25.0891   36.0750 H   0  0  0  0  0  0  0  0  0  0  0  0
   43.7108   23.9425   35.5938 H   0  0  0  0  0  0  0  0  0  0  0  0
   44.2191   23.2100   33.2707 H   0  0  0  0  0  0  0  0  0  0  0  0
   42.5615   23.6614   31.4988 H   0  0  0  0  0  0  0  0  0  0  0  0
   40.4815   24.8059   32.0106 H   0  0  0  0  0  0  0  0  0  0  0  0
   36.3996   23.6510   36.8606 H   0  0  0  0  0  0  0  0  0  0  0  0
   40.3855   22.3155   35.8853 H   0  0  0  0  0  0  0  0  0  0  0  0
   39.3166   23.2196   39.8857 H   0  0  0  0  0  0  0  0  0  0  0  0
  1 20  1  0
  2  1  2  0
  3  2  1  0
  4  5  1  0
  4  3  2  0
  5  6  2  0
  6  7  1  0
  6  1  1  0
  7 12  1  0
  7  8  2  0
  8  9  1  0
  9 10  2  0
 11 10  1  0
 12 11  2  0
 13 12  1  0
 13 14  2  0
 15 14  1  0
 16 15  2  0
 17 18  2  0
 17 16  1  0
 18 13  1  0
 19 24  2  0
 20 21  2  0
 20 19  1  0
 21 22  1  0
 22 23  2  0
 24 23  1  0
  2 25  1  0
  3 26  1  0
  4 27  1  0
  5 28  1  0
  8 29  1  0
  9 30  1  0
 10 31  1  0
 11 32  1  0
 14 33  1  0
 15 34  1  0
 16 35  1  0
 17 36  1  0
 18 37  1  0
 19 38  1  0
 21 39  1  0
 23 40  1  0
M  ISO  8  25  14  26  14  27  14  28  14  29  14  30  14  31  14  32  14
M  ISO  8  33  14  34  14  35  14  36  14  37  14  38  14  39  14  40  14
M  END
>  <minimizedAffinity>  (1) 
-5.14149189

>  <minimizedRMSD>  (1) 
0.999389529

$$$$
