
     RDKit          3D

 40 43  0  0  0  0  0  0  0  0999 V2000
   37.8670   22.7940   34.7390 C   0  0  0  0  0  0  0  0  0  0  0  0
   37.3900   21.5720   34.3130 C   0  0  0  0  0  0  0  0  0  0  0  0
   36.9910   21.3160   33.0280 C   0  0  0  0  0  0  0  0  0  0  0  0
   37.0730   22.3410   32.1100 C   0  0  0  0  0  0  0  0  0  0  0  0
   37.5390   23.5430   32.5150 C   0  0  0  0  0  0  0  0  0  0  0  0
   37.9380   23.7970   33.8030 C   0  0  0  0  0  0  0  0  0  0  0  0
   38.4270   25.0990   34.2260 C   0  0  0  0  0  0  0  0  0  0  0  0
   37.4750   25.8370   34.9410 C   0  0  0  0  0  0  0  0  0  0  0  0
   37.7680   27.1160   35.4310 C   0  0  0  0  0  0  0  0  0  0  0  0
   39.0470   27.5480   35.1410 C   0  0  0  0  0  0  0  0  0  0  0  0
   40.0240   26.8550   34.4390 C   0  0  0  0  0  0  0  0  0  0  0  0
   39.6710   25.6010   33.9830 C   0  0  0  0  0  0  0  0  0  0  0  0
   40.6840   24.9210   33.2630 N   0  0  0  0  0  0  0  0  0  0  0  0
   40.8490   24.6700   31.9540 C   0  0  0  0  0  0  0  0  0  0  0  0
   41.9450   23.9800   31.4880 C   0  0  0  0  0  0  0  0  0  0  0  0
   42.9270   23.5130   32.3370 C   0  0  0  0  0  0  0  0  0  0  0  0
   43.9170   22.8880   31.8870 O   0  0  0  0  0  0  0  0  0  0  0  0
   42.7470   23.7740   33.6540 N   0  0  0  0  0  0  0  0  0  0  0  0
   41.6670   24.4500   34.0880 C   0  0  0  0  0  0  0  0  0  0  0  0
   41.6670   24.6010   35.3570 O   0  0  0  0  0  0  0  0  0  0  0  0
   37.4210   23.3550   37.1860 C   0  0  0  0  0  0  0  0  0  0  0  0
   38.2510   22.9180   36.1530 C   0  0  0  0  0  0  0  0  0  0  0  0
   39.5670   22.5700   36.5000 C   0  0  0  0  0  0  0  0  0  0  0  0
   39.9650   22.6740   37.8030 N   0  0  0  0  0  0  0  0  0  0  0  0
   39.1270   23.0970   38.7500 C   0  0  0  0  0  0  0  0  0  0  0  0
   37.8630   23.4390   38.4560 N   0  0  0  0  0  0  0  0  0  0  0  0
   37.3263   20.7558   35.0477 H   0  0  0  0  0  0  0  0  0  0  0  0
   36.6167   20.3232   32.7376 H   0  0  0  0  0  0  0  0  0  0  0  0
   36.7645   22.1832   31.0660 H   0  0  0  0  0  0  0  0  0  0  0  0
   37.6014   24.3564   31.7771 H   0  0  0  0  0  0  0  0  0  0  0  0
   36.4797   25.4044   35.1208 H   0  0  0  0  0  0  0  0  0  0  0  0
   37.0443   27.7218   35.9960 H   0  0  0  0  0  0  0  0  0  0  0  0
   39.3214   28.5490   35.5054 H   0  0  0  0  0  0  0  0  0  0  0  0
   41.0218   27.2807   34.2568 H   0  0  0  0  0  0  0  0  0  0  0  0
   40.0918   25.0235   31.2387 H   0  0  0  0  0  0  0  0  0  0  0  0
   42.0406   23.7957   30.4078 H   0  0  0  0  0  0  0  0  0  0  0  0
   43.4485   23.4496   34.3349 H   0  0  0  0  0  0  0  0  0  0  0  0
   36.3825   23.6373   36.9584 H   0  0  0  0  0  0  0  0  0  0  0  0
   40.2698   22.2174   35.7307 H   0  0  0  0  0  0  0  0  0  0  0  0
   39.4778   23.1668   39.7902 H   0  0  0  0  0  0  0  0  0  0  0  0
  1 22  1  0
  2  1  2  0
  3  2  1  0
  4  5  1  0
  4  3  2  0
  5  6  2  0
  6  7  1  0
  6  1  1  0
  7  8  2  0
  8  9  1  0
 10  9  2  0
 11 10  1  0
 12  7  1  0
 12 11  2  0
 13 12  1  0
 13 19  1  0
 14 13  1  0
 15 14  2  0
 15 16  1  0
 16 18  1  0
 17 16  2  0
 18 19  1  0
 19 20  2  0
 21 26  2  0
 22 23  2  0
 22 21  1  0
 23 24  1  0
 24 25  2  0
 26 25  1  0
  2 27  1  0
  3 28  1  0
  4 29  1  0
  5 30  1  0
  8 31  1  0
  9 32  1  0
 10 33  1  0
 11 34  1  0
 14 35  1  0
 15 36  1  0
 18 37  1  0
 21 38  1  0
 23 39  1  0
 25 40  1  0
M  ISO  8  27  14  28  14  29  14  30  14  31  14  32  14  33  14  34  14
M  ISO  6  35  14  36  14  37   9  38  14  39  14  40  14
M  END
>  <minimizedAffinity>  (1) 
-5.09969044

>  <minimizedRMSD>  (1) 
1.05729628

$$$$
