
     RDKit          3D

 38 41  0  0  0  0  0  0  0  0999 V2000
   38.0410   22.8530   34.7260 C   0  0  0  0  0  0  0  0  0  0  0  0
   37.7270   21.6020   34.2370 C   0  0  0  0  0  0  0  0  0  0  0  0
   37.4300   21.3510   32.9180 C   0  0  0  0  0  0  0  0  0  0  0  0
   37.4480   22.4160   32.0340 C   0  0  0  0  0  0  0  0  0  0  0  0
   37.7540   23.6560   32.4940 C   0  0  0  0  0  0  0  0  0  0  0  0
   38.0500   23.8890   33.8220 C   0  0  0  0  0  0  0  0  0  0  0  0
   38.3650   25.2200   34.3090 C   0  0  0  0  0  0  0  0  0  0  0  0
   37.2410   25.9650   34.6760 C   0  0  0  0  0  0  0  0  0  0  0  0
   37.3590   27.2720   35.1670 C   0  0  0  0  0  0  0  0  0  0  0  0
   38.6550   27.7270   35.2480 C   0  0  0  0  0  0  0  0  0  0  0  0
   39.7930   27.0340   34.9000 C   0  0  0  0  0  0  0  0  0  0  0  0
   39.6120   25.7630   34.4260 C   0  0  0  0  0  0  0  0  0  0  0  0
   40.8020   25.0150   34.0360 C   0  0  0  0  0  0  0  0  0  0  0  0
   41.1570   24.5140   32.8040 C   0  0  0  0  0  0  0  0  0  0  0  0
   42.3270   23.8180   32.6090 C   0  0  0  0  0  0  0  0  0  0  0  0
   43.1620   23.6110   33.6360 N   0  0  0  0  0  0  0  0  0  0  0  0
   42.8310   24.0900   34.8400 C   0  0  0  0  0  0  0  0  0  0  0  0
   41.6810   24.7810   35.0590 N   0  0  0  0  0  0  0  0  0  0  0  0
   37.4350   23.3840   37.1280 C   0  0  0  0  0  0  0  0  0  0  0  0
   38.3330   22.9700   36.1480 C   0  0  0  0  0  0  0  0  0  0  0  0
   39.6290   22.6430   36.5890 C   0  0  0  0  0  0  0  0  0  0  0  0
   39.9530   22.7390   37.9120 N   0  0  0  0  0  0  0  0  0  0  0  0
   39.0470   23.1430   38.8100 C   0  0  0  0  0  0  0  0  0  0  0  0
   37.7870   23.4690   38.4370 N   0  0  0  0  0  0  0  0  0  0  0  0
   37.7134   20.7576   34.9419 H   0  0  0  0  0  0  0  0  0  0  0  0
   37.1855   20.3346   32.5757 H   0  0  0  0  0  0  0  0  0  0  0  0
   37.2168   22.2592   30.9701 H   0  0  0  0  0  0  0  0  0  0  0  0
   37.7664   24.4995   31.7881 H   0  0  0  0  0  0  0  0  0  0  0  0
   36.2419   25.5155   34.5772 H   0  0  0  0  0  0  0  0  0  0  0  0
   36.4916   27.8809   35.4618 H   0  0  0  0  0  0  0  0  0  0  0  0
   38.7966   28.7489   35.6298 H   0  0  0  0  0  0  0  0  0  0  0  0
   40.7944   27.4785   34.9978 H   0  0  0  0  0  0  0  0  0  0  0  0
   40.4840   24.6753   31.9490 H   0  0  0  0  0  0  0  0  0  0  0  0
   42.5772   23.4314   31.6100 H   0  0  0  0  0  0  0  0  0  0  0  0
   43.5147   23.9185   35.6844 H   0  0  0  0  0  0  0  0  0  0  0  0
   36.4093   23.6503   36.8332 H   0  0  0  0  0  0  0  0  0  0  0  0
   40.3852   22.3082   35.8637 H   0  0  0  0  0  0  0  0  0  0  0  0
   39.3311   23.2115   39.8705 H   0  0  0  0  0  0  0  0  0  0  0  0
  1 20  1  0
  2  1  2  0
  3  2  1  0
  4  5  1  0
  4  3  2  0
  5  6  2  0
  6  7  1  0
  6  1  1  0
  7 12  1  0
  7  8  2  0
  8  9  1  0
  9 10  2  0
 11 10  1  0
 12 11  2  0
 13 12  1  0
 13 18  1  0
 14 13  2  0
 15 14  1  0
 15 16  2  0
 16 17  1  0
 17 18  2  0
 19 24  2  0
 20 21  2  0
 20 19  1  0
 21 22  1  0
 22 23  2  0
 24 23  1  0
  2 25  1  0
  3 26  1  0
  4 27  1  0
  5 28  1  0
  8 29  1  0
  9 30  1  0
 10 31  1  0
 11 32  1  0
 14 33  1  0
 15 34  1  0
 17 35  1  0
 19 36  1  0
 21 37  1  0
 23 38  1  0
M  ISO  8  25  14  26  14  27  14  28  14  29  14  30  14  31  14  32  14
M  ISO  6  33  14  34  14  35  14  36  14  37  14  38  14
M  END
>  <minimizedAffinity>  (1) 
-5.06198502

>  <minimizedRMSD>  (1) 
1.09475803

$$$$
