
     RDKit          3D

 43 46  0  0  0  0  0  0  0  0999 V2000
   38.0440   22.8520   34.7860 C   0  0  0  0  0  0  0  0  0  0  0  0
   37.7320   21.5920   34.2930 C   0  0  0  0  0  0  0  0  0  0  0  0
   37.4490   21.3220   32.9780 C   0  0  0  0  0  0  0  0  0  0  0  0
   37.4790   22.3710   32.0970 C   0  0  0  0  0  0  0  0  0  0  0  0
   37.7830   23.6270   32.5380 C   0  0  0  0  0  0  0  0  0  0  0  0
   38.0590   23.8650   33.8580 C   0  0  0  0  0  0  0  0  0  0  0  0
   38.3820   25.2170   34.3370 C   0  0  0  0  0  0  0  0  0  0  0  0
   37.2460   25.9680   34.6590 C   0  0  0  0  0  0  0  0  0  0  0  0
   37.3630   27.2760   35.1360 C   0  0  0  0  0  0  0  0  0  0  0  0
   38.6550   27.7280   35.2530 C   0  0  0  0  0  0  0  0  0  0  0  0
   39.7850   27.0160   34.9450 C   0  0  0  0  0  0  0  0  0  0  0  0
   39.6580   25.7350   34.4780 C   0  0  0  0  0  0  0  0  0  0  0  0
   40.7590   24.8270   34.0830 C   0  0  0  0  0  0  0  0  0  0  0  0
   41.3100   25.1520   32.6870 C   0  0  0  0  0  0  0  0  0  0  0  0
   42.4850   24.2280   32.6240 C   0  0  0  0  0  0  0  0  0  0  0  0
   43.1120   24.3820   33.9930 C   0  0  0  0  0  0  0  0  0  0  0  0
   42.0090   24.9550   34.8970 C   0  0  0  0  0  0  0  0  0  0  0  0
   37.4110   23.3770   37.1750 C   0  0  0  0  0  0  0  0  0  0  0  0
   38.3190   22.9800   36.2040 C   0  0  0  0  0  0  0  0  0  0  0  0
   39.6190   22.6750   36.6460 C   0  0  0  0  0  0  0  0  0  0  0  0
   39.9190   22.7820   37.9730 N   0  0  0  0  0  0  0  0  0  0  0  0
   38.9960   23.1710   38.8590 C   0  0  0  0  0  0  0  0  0  0  0  0
   37.7490   23.4680   38.4750 N   0  0  0  0  0  0  0  0  0  0  0  0
   37.7103   20.7537   35.0049 H   0  0  0  0  0  0  0  0  0  0  0  0
   37.2072   20.3023   32.6437 H   0  0  0  0  0  0  0  0  0  0  0  0
   37.2579   22.2011   31.0329 H   0  0  0  0  0  0  0  0  0  0  0  0
   37.8066   24.4612   31.8213 H   0  0  0  0  0  0  0  0  0  0  0  0
   36.2478   25.5227   34.5349 H   0  0  0  0  0  0  0  0  0  0  0  0
   36.4911   27.8939   35.3968 H   0  0  0  0  0  0  0  0  0  0  0  0
   38.7952   28.7528   35.6273 H   0  0  0  0  0  0  0  0  0  0  0  0
   40.7802   27.4674   35.0712 H   0  0  0  0  0  0  0  0  0  0  0  0
   40.2737   23.8456   34.1893 H   0  0  0  0  0  0  0  0  0  0  0  0
   40.5755   24.9264   31.8998 H   0  0  0  0  0  0  0  0  0  0  0  0
   41.5573   26.2126   32.5318 H   0  0  0  0  0  0  0  0  0  0  0  0
   42.1634   23.1904   32.4508 H   0  0  0  0  0  0  0  0  0  0  0  0
   43.1768   24.4614   31.8013 H   0  0  0  0  0  0  0  0  0  0  0  0
   43.4491   23.4059   34.3719 H   0  0  0  0  0  0  0  0  0  0  0  0
   43.9931   25.0399   33.9630 H   0  0  0  0  0  0  0  0  0  0  0  0
   42.2110   26.0092   35.1375 H   0  0  0  0  0  0  0  0  0  0  0  0
   41.9390   24.4278   35.8599 H   0  0  0  0  0  0  0  0  0  0  0  0
   36.3827   23.6252   36.8732 H   0  0  0  0  0  0  0  0  0  0  0  0
   40.3875   22.3529   35.9280 H   0  0  0  0  0  0  0  0  0  0  0  0
   39.2666   23.2482   39.9224 H   0  0  0  0  0  0  0  0  0  0  0  0
  1 19  1  0
  2  1  2  0
  3  2  1  0
  4  5  1  0
  4  3  2  0
  5  6  2  0
  6  7  1  0
  6  1  1  0
  7 12  1  0
  7  8  2  0
  8  9  1  0
  9 10  2  0
 11 10  1  0
 12 11  2  0
 13 12  1  0
 13 17  1  0
 14 13  1  0
 15 14  1  0
 15 16  1  0
 16 17  1  0
 18 23  2  0
 19 20  2  0
 19 18  1  0
 20 21  1  0
 21 22  2  0
 23 22  1  0
  2 24  1  0
  3 25  1  0
  4 26  1  0
  5 27  1  0
  8 28  1  0
  9 29  1  0
 10 30  1  0
 11 31  1  0
 13 32  1  0
 14 33  1  0
 14 34  1  0
 15 35  1  0
 15 36  1  0
 16 37  1  0
 16 38  1  0
 17 39  1  0
 17 40  1  0
 18 41  1  0
 20 42  1  0
 22 43  1  0
M  ISO  8  24  14  25  14  26  14  27  14  28  14  29  14  30  14  31  14
M  ISO  8  32  13  33  13  34  13  35  13  36  13  37  13  38  13  39  13
M  ISO  4  40  13  41  14  42  14  43  14
M  END
>  <minimizedAffinity>  (1) 
-5.03482723

>  <minimizedRMSD>  (1) 
0.949736416

$$$$
