
     RDKit          3D

 43 46  0  0  0  0  0  0  0  0999 V2000
   38.3520   25.2290   34.3350 C   0  0  0  0  0  0  0  0  0  0  0  0
   37.2080   25.9690   34.6330 C   0  0  0  0  0  0  0  0  0  0  0  0
   37.3120   27.2900   35.1050 C   0  0  0  0  0  0  0  0  0  0  0  0
   38.5880   27.7520   35.2380 C   0  0  0  0  0  0  0  0  0  0  0  0
   39.7560   27.0550   34.9550 C   0  0  0  0  0  0  0  0  0  0  0  0
   39.5950   25.7670   34.4960 C   0  0  0  0  0  0  0  0  0  0  0  0
   38.0500   22.8590   34.7750 C   0  0  0  0  0  0  0  0  0  0  0  0
   37.7590   21.6030   34.3000 C   0  0  0  0  0  0  0  0  0  0  0  0
   37.4840   21.3320   32.9780 C   0  0  0  0  0  0  0  0  0  0  0  0
   37.5030   22.3760   32.0900 C   0  0  0  0  0  0  0  0  0  0  0  0
   37.7880   23.6200   32.5390 C   0  0  0  0  0  0  0  0  0  0  0  0
   38.0620   23.8860   33.8610 C   0  0  0  0  0  0  0  0  0  0  0  0
   37.4190   23.4500   37.1690 C   0  0  0  0  0  0  0  0  0  0  0  0
   38.3170   22.9990   36.2090 C   0  0  0  0  0  0  0  0  0  0  0  0
   39.5980   22.6500   36.6690 C   0  0  0  0  0  0  0  0  0  0  0  0
   39.8960   22.7650   37.9960 N   0  0  0  0  0  0  0  0  0  0  0  0
   38.9860   23.2060   38.8710 C   0  0  0  0  0  0  0  0  0  0  0  0
   37.7540   23.5490   38.4710 N   0  0  0  0  0  0  0  0  0  0  0  0
   43.2230   23.6940   33.5300 C   0  0  0  0  0  0  0  0  0  0  0  0
   42.9470   24.0250   34.8400 C   0  0  0  0  0  0  0  0  0  0  0  0
   41.7780   24.6950   35.1310 C   0  0  0  0  0  0  0  0  0  0  0  0
   40.8380   25.0720   34.1950 C   0  0  0  0  0  0  0  0  0  0  0  0
   41.1950   24.7000   32.9050 C   0  0  0  0  0  0  0  0  0  0  0  0
   42.3320   24.0350   32.5290 C   0  0  0  0  0  0  0  0  0  0  0  0
   44.7020   22.8440   33.1460 S   0  0  0  0  0  0  0  0  0  0  0  0
   45.4700   22.5790   34.4120 O   0  0  0  0  0  0  0  0  0  0  0  0
   44.3110   21.5040   32.5570 O   0  0  0  0  0  0  0  0  0  0  0  0
   36.2151   25.5154   34.4977 H   0  0  0  0  0  0  0  0  0  0  0  0
   36.4317   27.9032   35.3481 H   0  0  0  0  0  0  0  0  0  0  0  0
   38.7045   28.7817   35.6070 H   0  0  0  0  0  0  0  0  0  0  0  0
   40.7505   27.5055   35.0897 H   0  0  0  0  0  0  0  0  0  0  0  0
   37.7449   20.7675   35.0154 H   0  0  0  0  0  0  0  0  0  0  0  0
   37.2560   20.3088   32.6448 H   0  0  0  0  0  0  0  0  0  0  0  0
   37.2890   22.2044   31.0248 H   0  0  0  0  0  0  0  0  0  0  0  0
   37.8012   24.4515   31.8190 H   0  0  0  0  0  0  0  0  0  0  0  0
   36.4035   23.7350   36.8568 H   0  0  0  0  0  0  0  0  0  0  0  0
   40.3579   22.2854   35.9622 H   0  0  0  0  0  0  0  0  0  0  0  0
   39.2528   23.2884   39.9350 H   0  0  0  0  0  0  0  0  0  0  0  0
   43.6506   23.7578   35.6423 H   0  0  0  0  0  0  0  0  0  0  0  0
   41.5811   24.9466   36.1836 H   0  0  0  0  0  0  0  0  0  0  0  0
   40.4918   24.9671   32.1024 H   0  0  0  0  0  0  0  0  0  0  0  0
   42.5278   23.7831   31.4763 H   0  0  0  0  0  0  0  0  0  0  0  0
   45.4653   23.5830   32.2810 H   0  0  0  0  0  0  0  0  0  0  0  0
  1  6  1  0
  1  2  2  0
  2  3  1  0
  3  4  2  0
  5  4  1  0
  6  5  2  0
  7 14  1  0
  8  7  2  0
  9  8  1  0
 10 11  1  0
 10  9  2  0
 11 12  2  0
 12  1  1  0
 12  7  1  0
 13 18  2  0
 14 15  2  0
 14 13  1  0
 15 16  1  0
 16 17  2  0
 18 17  1  0
 19 20  2  0
 20 21  1  0
 22  6  1  0
 22 21  2  0
 23 22  1  0
 24 23  2  0
 24 19  1  0
 25 19  1  0
 25 26  2  0
 27 25  2  0
  2 28  1  0
  3 29  1  0
  4 30  1  0
  5 31  1  0
  8 32  1  0
  9 33  1  0
 10 34  1  0
 11 35  1  0
 13 36  1  0
 15 37  1  0
 17 38  1  0
 20 39  1  0
 21 40  1  0
 23 41  1  0
 24 42  1  0
 25 43  1  0
M  ISO  8  28  14  29  14  30  14  31  14  32  14  33  14  34  14  35  14
M  ISO  8  36  14  37  14  38  14  39  14  40  14  41  14  42  14  43  11
M  END
>  <minimizedAffinity>  (1) 
-5.00032616

>  <minimizedRMSD>  (1) 
1.35627174

$$$$
