
     RDKit          3D

 37 40  0  0  0  0  0  0  0  0999 V2000
   37.9880   22.8100   34.7690 C   0  0  0  0  0  0  0  0  0  0  0  0
   37.6310   21.5670   34.3130 C   0  0  0  0  0  0  0  0  0  0  0  0
   37.2960   21.3080   32.9950 C   0  0  0  0  0  0  0  0  0  0  0  0
   37.3260   22.3560   32.1070 C   0  0  0  0  0  0  0  0  0  0  0  0
   37.6770   23.5880   32.5430 C   0  0  0  0  0  0  0  0  0  0  0  0
   38.0080   23.8350   33.8560 C   0  0  0  0  0  0  0  0  0  0  0  0
   38.3760   25.1650   34.3160 C   0  0  0  0  0  0  0  0  0  0  0  0
   37.2670   25.9540   34.6440 C   0  0  0  0  0  0  0  0  0  0  0  0
   37.4290   27.2690   35.1080 C   0  0  0  0  0  0  0  0  0  0  0  0
   38.7230   27.6800   35.2010 C   0  0  0  0  0  0  0  0  0  0  0  0
   39.8370   26.9470   34.8920 C   0  0  0  0  0  0  0  0  0  0  0  0
   39.6450   25.6540   34.4380 C   0  0  0  0  0  0  0  0  0  0  0  0
   40.7730   24.8610   34.1010 N   0  0  0  0  0  0  0  0  0  0  0  0
   41.8100   24.8870   34.9950 C   0  0  0  0  0  0  0  0  0  0  0  0
   42.8450   24.0850   34.5580 C   0  0  0  0  0  0  0  0  0  0  0  0
   42.4190   23.5740   33.3870 N   0  0  0  0  0  0  0  0  0  0  0  0
   41.1940   24.0400   33.1280 C   0  0  0  0  0  0  0  0  0  0  0  0
   37.4230   23.3730   37.1890 C   0  0  0  0  0  0  0  0  0  0  0  0
   38.3130   22.9400   36.1890 C   0  0  0  0  0  0  0  0  0  0  0  0
   39.6160   22.6100   36.6020 C   0  0  0  0  0  0  0  0  0  0  0  0
   39.9450   22.7260   37.9280 N   0  0  0  0  0  0  0  0  0  0  0  0
   39.0550   23.1430   38.8300 C   0  0  0  0  0  0  0  0  0  0  0  0
   37.7970   23.4690   38.4790 N   0  0  0  0  0  0  0  0  0  0  0  0
   37.6097   20.7337   35.0307 H   0  0  0  0  0  0  0  0  0  0  0  0
   37.0148   20.2957   32.6691 H   0  0  0  0  0  0  0  0  0  0  0  0
   37.0668   22.1949   31.0502 H   0  0  0  0  0  0  0  0  0  0  0  0
   37.6985   24.4201   31.8239 H   0  0  0  0  0  0  0  0  0  0  0  0
   36.2545   25.5377   34.5366 H   0  0  0  0  0  0  0  0  0  0  0  0
   36.5792   27.9146   35.3747 H   0  0  0  0  0  0  0  0  0  0  0  0
   38.8908   28.7057   35.5612 H   0  0  0  0  0  0  0  0  0  0  0  0
   40.8467   27.3698   35.0005 H   0  0  0  0  0  0  0  0  0  0  0  0
   41.8172   25.4659   35.9303 H   0  0  0  0  0  0  0  0  0  0  0  0
   43.8080   23.9029   35.0574 H   0  0  0  0  0  0  0  0  0  0  0  0
   40.6074   23.7837   32.2335 H   0  0  0  0  0  0  0  0  0  0  0  0
   36.3933   23.6405   36.9093 H   0  0  0  0  0  0  0  0  0  0  0  0
   40.3614   22.2634   35.8711 H   0  0  0  0  0  0  0  0  0  0  0  0
   39.3561   23.2223   39.8850 H   0  0  0  0  0  0  0  0  0  0  0  0
  1 19  1  0
  2  1  2  0
  3  2  1  0
  4  5  1  0
  4  3  2  0
  5  6  2  0
  6  7  1  0
  6  1  1  0
  7 12  1  0
  7  8  2  0
  8  9  1  0
  9 10  2  0
 11 10  1  0
 12 11  2  0
 13 12  1  0
 13 14  1  0
 15 14  2  0
 16 15  1  0
 17 16  2  0
 17 13  1  0
 18 23  2  0
 19 20  2  0
 19 18  1  0
 20 21  1  0
 21 22  2  0
 23 22  1  0
  2 24  1  0
  3 25  1  0
  4 26  1  0
  5 27  1  0
  8 28  1  0
  9 29  1  0
 10 30  1  0
 11 31  1  0
 14 32  1  0
 15 33  1  0
 17 34  1  0
 18 35  1  0
 20 36  1  0
 22 37  1  0
M  ISO  8  24  14  25  14  26  14  27  14  28  14  29  14  30  14  31  14
M  ISO  6  32  14  33  14  34  14  35  14  36  14  37  14
M  END
>  <minimizedAffinity>  (1) 
-4.98384476

>  <minimizedRMSD>  (1) 
0.859562337

$$$$
