
     RDKit          3D

 36 39  0  0  0  0  0  0  0  0999 V2000
   38.0420   22.8420   34.7700 C   0  0  0  0  0  0  0  0  0  0  0  0
   37.7310   21.5890   34.2920 C   0  0  0  0  0  0  0  0  0  0  0  0
   37.4460   21.3200   32.9690 C   0  0  0  0  0  0  0  0  0  0  0  0
   37.4770   22.3770   32.0800 C   0  0  0  0  0  0  0  0  0  0  0  0
   37.7830   23.6330   32.5280 C   0  0  0  0  0  0  0  0  0  0  0  0
   38.0640   23.8690   33.8650 C   0  0  0  0  0  0  0  0  0  0  0  0
   38.3750   25.2110   34.3390 C   0  0  0  0  0  0  0  0  0  0  0  0
   37.2510   25.9480   34.6850 C   0  0  0  0  0  0  0  0  0  0  0  0
   37.3690   27.2630   35.1610 C   0  0  0  0  0  0  0  0  0  0  0  0
   38.6630   27.7220   35.2420 C   0  0  0  0  0  0  0  0  0  0  0  0
   39.8100   27.0220   34.9080 C   0  0  0  0  0  0  0  0  0  0  0  0
   39.6310   25.7400   34.4480 C   0  0  0  0  0  0  0  0  0  0  0  0
   40.8330   24.9610   34.0670 C   0  0  0  0  0  0  0  0  0  0  0  0
   41.2560   24.4840   32.7680 C   0  0  0  0  0  0  0  0  0  0  0  0
   42.7590   23.6400   33.0830 S   0  0  0  0  0  0  0  0  0  0  0  0
   42.6660   24.0190   34.9430 C   0  0  0  0  0  0  0  0  0  0  0  0
   41.6910   24.6100   34.9910 N   0  0  0  0  0  0  0  0  0  0  0  0
   37.4060   23.4060   37.1640 C   0  0  0  0  0  0  0  0  0  0  0  0
   38.3170   22.9770   36.1910 C   0  0  0  0  0  0  0  0  0  0  0  0
   39.6050   22.6530   36.6530 C   0  0  0  0  0  0  0  0  0  0  0  0
   39.9130   22.7640   37.9740 N   0  0  0  0  0  0  0  0  0  0  0  0
   38.9930   23.1840   38.8610 C   0  0  0  0  0  0  0  0  0  0  0  0
   37.7560   23.5020   38.4670 N   0  0  0  0  0  0  0  0  0  0  0  0
   37.7084   20.7532   35.0067 H   0  0  0  0  0  0  0  0  0  0  0  0
   37.2029   20.3008   32.6343 H   0  0  0  0  0  0  0  0  0  0  0  0
   37.2564   22.2094   31.0155 H   0  0  0  0  0  0  0  0  0  0  0  0
   37.8065   24.4702   31.8149 H   0  0  0  0  0  0  0  0  0  0  0  0
   36.2536   25.4951   34.5847 H   0  0  0  0  0  0  0  0  0  0  0  0
   36.5001   27.8748   35.4452 H   0  0  0  0  0  0  0  0  0  0  0  0
   38.8007   28.7496   35.6095 H   0  0  0  0  0  0  0  0  0  0  0  0
   40.8106   27.4684   35.0057 H   0  0  0  0  0  0  0  0  0  0  0  0
   40.7488   24.6204   31.8015 H   0  0  0  0  0  0  0  0  0  0  0  0
   43.3605   23.7444   35.7506 H   0  0  0  0  0  0  0  0  0  0  0  0
   36.3821   23.6711   36.8617 H   0  0  0  0  0  0  0  0  0  0  0  0
   40.3693   22.3073   35.9414 H   0  0  0  0  0  0  0  0  0  0  0  0
   39.2622   23.2668   39.9243 H   0  0  0  0  0  0  0  0  0  0  0  0
  1 19  1  0
  2  1  2  0
  3  2  1  0
  4  5  1  0
  4  3  2  0
  5  6  2  0
  6  7  1  0
  6  1  1  0
  7 12  1  0
  7  8  2  0
  8  9  1  0
  9 10  2  0
 11 10  1  0
 12 11  2  0
 13 12  1  0
 13 17  1  0
 14 15  1  0
 14 13  2  0
 15 16  1  0
 16 17  2  0
 18 23  2  0
 19 20  2  0
 19 18  1  0
 20 21  1  0
 21 22  2  0
 23 22  1  0
  2 24  1  0
  3 25  1  0
  4 26  1  0
  5 27  1  0
  8 28  1  0
  9 29  1  0
 10 30  1  0
 11 31  1  0
 14 32  1  0
 16 33  1  0
 18 34  1  0
 20 35  1  0
 22 36  1  0
M  ISO  8  24  14  25  14  26  14  27  14  28  14  29  14  30  14  31  14
M  ISO  5  32  14  33  14  34  14  35  14  36  14
M  END
>  <minimizedAffinity>  (1) 
-4.97939396

>  <minimizedRMSD>  (1) 
1.00428605

$$$$
