
     RDKit          3D

 53 55  0  0  1  0  0  0  0  0999 V2000
   39.9220   27.4930   31.8860 C   0  0  0  0  0  0  0  0  0  0  0  0
   41.2180   27.1740   31.1530 C   0  0  1  0  0  0  0  0  0  0  0  0
   41.6970   28.3660   30.3900 C   0  0  0  0  0  0  0  0  0  0  0  0
   42.8330   29.0890   31.0020 C   0  0  0  0  0  0  0  0  0  0  0  0
   43.8110   28.2960   31.7880 C   0  0  0  0  0  0  0  0  0  0  0  0
   43.1290   27.3770   32.7560 C   0  0  0  0  0  0  0  0  0  0  0  0
   42.2000   26.4780   32.0130 C   0  0  2  0  0  0  0  0  0  0  0  0
   42.8880   25.2920   31.3760 C   0  0  0  0  0  0  0  0  0  0  0  0
   42.6090   25.2910   29.8880 C   0  0  0  0  0  0  0  0  0  0  0  0
   42.1340   24.0640   31.9050 C   0  0  0  0  0  0  0  0  0  0  0  0
   44.3330   25.1480   31.6100 C   0  0  0  0  0  0  0  0  0  0  0  0
   38.4850   24.5990   33.7790 N   0  0  0  0  0  0  0  0  0  0  0  0
   39.1870   25.7190   33.5560 C   0  0  0  0  0  0  0  0  0  0  0  0
   39.1860   26.2570   32.2740 C   0  0  0  0  0  0  0  0  0  0  0  0
   38.4570   25.6120   31.2760 C   0  0  0  0  0  0  0  0  0  0  0  0
   38.3910   26.0180   30.0830 O   0  0  0  0  0  0  0  0  0  0  0  0
   37.7580   24.4750   31.5480 N   0  0  0  0  0  0  0  0  0  0  0  0
   37.7930   24.0010   32.7940 C   0  0  0  0  0  0  0  0  0  0  0  0
   37.1490   22.9500   33.0520 O   0  0  0  0  0  0  0  0  0  0  0  0
   37.8220   24.8030   36.0970 C   0  0  0  0  0  0  0  0  0  0  0  0
   38.5500   24.1320   35.1080 C   0  0  0  0  0  0  0  0  0  0  0  0
   39.3040   23.0310   35.5070 C   0  0  0  0  0  0  0  0  0  0  0  0
   39.2900   22.6700   36.8340 N   0  0  0  0  0  0  0  0  0  0  0  0
   38.5820   23.3370   37.7460 C   0  0  0  0  0  0  0  0  0  0  0  0
   37.8530   24.4000   37.3700 N   0  0  0  0  0  0  0  0  0  0  0  0
   38.7260   22.7770   39.0430 N   0  0  0  0  0  0  0  0  0  0  0  0
   39.2804   28.0974   31.2279 H   0  0  0  0  0  0  0  0  0  0  0  0
   40.1756   28.0421   32.8048 H   0  0  0  0  0  0  0  0  0  0  0  0
   41.0304   26.4184   30.3759 H   0  0  0  0  0  0  0  0  0  0  0  0
   40.8569   29.0697   30.2950 H   0  0  0  0  0  0  0  0  0  0  0  0
   42.0614   27.9850   29.4246 H   0  0  0  0  0  0  0  0  0  0  0  0
   43.3865   29.5806   30.1884 H   0  0  0  0  0  0  0  0  0  0  0  0
   42.3700   29.7660   31.7350 H   0  0  0  0  0  0  0  0  0  0  0  0
   44.4214   27.6964   31.0967 H   0  0  0  0  0  0  0  0  0  0  0  0
   44.4372   28.9950   32.3618 H   0  0  0  0  0  0  0  0  0  0  0  0
   43.8828   26.7726   33.2818 H   0  0  0  0  0  0  0  0  0  0  0  0
   42.5607   27.9696   33.4880 H   0  0  0  0  0  0  0  0  0  0  0  0
   41.5616   26.0327   32.7903 H   0  0  0  0  0  0  0  0  0  0  0  0
   41.5221   25.2871   29.7187 H   0  0  0  0  0  0  0  0  0  0  0  0
   43.0479   26.1907   29.4320 H   0  0  0  0  0  0  0  0  0  0  0  0
   43.0543   24.3944   29.4320 H   0  0  0  0  0  0  0  0  0  0  0  0
   42.1409   24.0752   33.0049 H   0  0  0  0  0  0  0  0  0  0  0  0
   41.0950   24.0883   31.5446 H   0  0  0  0  0  0  0  0  0  0  0  0
   42.6258   23.1484   31.5446 H   0  0  0  0  0  0  0  0  0  0  0  0
   44.5290   25.1285   32.6922 H   0  0  0  0  0  0  0  0  0  0  0  0
   44.6862   24.2102   31.1564 H   0  0  0  0  0  0  0  0  0  0  0  0
   44.8644   25.9976   31.1564 H   0  0  0  0  0  0  0  0  0  0  0  0
   39.7507   26.2011   34.3683 H   0  0  0  0  0  0  0  0  0  0  0  0
   37.2185   23.9956   30.8132 H   0  0  0  0  0  0  0  0  0  0  0  0
   37.2139   25.6772   35.8213 H   0  0  0  0  0  0  0  0  0  0  0  0
   39.8980   22.4624   34.7764 H   0  0  0  0  0  0  0  0  0  0  0  0
   38.2312   23.1966   39.8430 H   0  0  0  0  0  0  0  0  0  0  0  0
   39.3253   21.9512   39.1838 H   0  0  0  0  0  0  0  0  0  0  0  0
  1 14  1  0
  2  1  1  0
  2  7  1  0
  3  4  1  0
  3  2  1  0
  4  5  1  0
  5  6  1  0
  7  6  1  0
  8 11  1  0
  8 10  1  0
  8  7  1  0
  9  8  1  0
 12 21  1  0
 13 12  1  0
 14 13  2  0
 15 17  1  0
 15 14  1  0
 16 15  2  0
 17 18  1  0
 18 19  2  0
 18 12  1  0
 20 25  2  0
 21 22  2  0
 21 20  1  0
 22 23  1  0
 23 24  2  0
 24 26  1  0
 25 24  1  0
  1 27  1  0
  1 28  1  0
  2 29  1  6
  3 30  1  0
  3 31  1  0
  4 32  1  0
  4 33  1  0
  5 34  1  0
  5 35  1  0
  6 36  1  0
  6 37  1  0
  7 38  1  1
  9 39  1  0
  9 40  1  0
  9 41  1  0
 10 42  1  0
 10 43  1  0
 10 44  1  0
 11 45  1  0
 11 46  1  0
 11 47  1  0
 13 48  1  0
 17 49  1  0
 20 50  1  0
 22 51  1  0
 26 52  1  0
 26 53  1  0
M  ISO  8  27   8  28   8  29  13  30  13  31  13  32  13  33  13  34  13
M  ISO  8  35  13  36  13  37  13  38  13  39   8  40   8  41   8  42   8
M  ISO  8  43   8  44   8  45   8  46   8  47   8  48  14  49   9  50  14
M  ISO  1  51  14
M  END
>  <minimizedAffinity>  (1) 
-4.48604584

>  <minimizedRMSD>  (1) 
0.0464394428

$$$$
