
     RDKit          3D

 33 35  0  0  0  0  0  0  0  0999 V2000
   38.0510   22.8790   34.7210 C   0  0  0  0  0  0  0  0  0  0  0  0
   37.7490   21.6230   34.2180 C   0  0  0  0  0  0  0  0  0  0  0  0
   37.4470   21.3830   32.8950 C   0  0  0  0  0  0  0  0  0  0  0  0
   37.4470   22.4550   32.0260 C   0  0  0  0  0  0  0  0  0  0  0  0
   37.7400   23.7030   32.4910 C   0  0  0  0  0  0  0  0  0  0  0  0
   38.0410   23.9250   33.8250 C   0  0  0  0  0  0  0  0  0  0  0  0
   38.3360   25.2570   34.3210 C   0  0  0  0  0  0  0  0  0  0  0  0
   37.1910   26.0180   34.6010 C   0  0  0  0  0  0  0  0  0  0  0  0
   37.2910   27.3250   35.1000 C   0  0  0  0  0  0  0  0  0  0  0  0
   38.5810   27.7610   35.2810 C   0  0  0  0  0  0  0  0  0  0  0  0
   39.7470   27.0480   35.0190 C   0  0  0  0  0  0  0  0  0  0  0  0
   39.5870   25.7610   34.5230 C   0  0  0  0  0  0  0  0  0  0  0  0
   40.7980   25.0860   34.0850 C   0  0  0  0  0  0  0  0  0  0  0  0
   41.5880   24.6680   35.1630 F   0  0  0  0  0  0  0  0  0  0  0  0
   41.5880   26.0940   33.4210 F   0  0  0  0  0  0  0  0  0  0  0  0
   40.6940   24.1010   33.2020 F   0  0  0  0  0  0  0  0  0  0  0  0
   37.4400   23.3790   37.1390 C   0  0  0  0  0  0  0  0  0  0  0  0
   38.3230   22.9770   36.1400 C   0  0  0  0  0  0  0  0  0  0  0  0
   39.6090   22.6510   36.5830 C   0  0  0  0  0  0  0  0  0  0  0  0
   39.9440   22.7320   37.8960 N   0  0  0  0  0  0  0  0  0  0  0  0
   39.0360   23.1300   38.8060 C   0  0  0  0  0  0  0  0  0  0  0  0
   37.7930   23.4520   38.4380 N   0  0  0  0  0  0  0  0  0  0  0  0
   37.7505   20.7707   34.9134 H   0  0  0  0  0  0  0  0  0  0  0  0
   37.2130   20.3677   32.5423 H   0  0  0  0  0  0  0  0  0  0  0  0
   37.2115   22.3034   30.9622 H   0  0  0  0  0  0  0  0  0  0  0  0
   37.7373   24.5520   31.7916 H   0  0  0  0  0  0  0  0  0  0  0  0
   36.1966   25.5816   34.4260 H   0  0  0  0  0  0  0  0  0  0  0  0
   36.4125   27.9470   35.3268 H   0  0  0  0  0  0  0  0  0  0  0  0
   38.7054   28.7807   35.6743 H   0  0  0  0  0  0  0  0  0  0  0  0
   40.7427   27.4810   35.1955 H   0  0  0  0  0  0  0  0  0  0  0  0
   36.4116   23.6482   36.8564 H   0  0  0  0  0  0  0  0  0  0  0  0
   40.3637   22.3226   35.8532 H   0  0  0  0  0  0  0  0  0  0  0  0
   39.3211   23.1909   39.8667 H   0  0  0  0  0  0  0  0  0  0  0  0
  1 18  1  0
  2  1  2  0
  3  2  1  0
  4  5  1  0
  4  3  2  0
  5  6  2  0
  6  7  1  0
  6  1  1  0
  7 12  1  0
  7  8  2  0
  8  9  1  0
  9 10  2  0
 11 10  1  0
 12 11  2  0
 13 12  1  0
 13 14  1  0
 15 13  1  0
 16 13  1  0
 17 22  2  0
 18 19  2  0
 18 17  1  0
 19 20  1  0
 20 21  2  0
 22 21  1  0
  2 23  1  0
  3 24  1  0
  4 25  1  0
  5 26  1  0
  8 27  1  0
  9 28  1  0
 10 29  1  0
 11 30  1  0
 17 31  1  0
 19 32  1  0
 21 33  1  0
M  ISO  8  23  14  24  14  25  14  26  14  27  14  28  14  29  14  30  14
M  ISO  3  31  14  32  14  33  14
M  END
>  <minimizedAffinity>  (1) 
-4.94220877

>  <minimizedRMSD>  (1) 
0.921137094

$$$$
