
     RDKit          3D

 36 39  0  0  0  0  0  0  0  0999 V2000
   37.9350   22.7930   34.7740 C   0  0  0  0  0  0  0  0  0  0  0  0
   37.5250   21.5480   34.3310 C   0  0  0  0  0  0  0  0  0  0  0  0
   37.1740   21.2870   33.0250 C   0  0  0  0  0  0  0  0  0  0  0  0
   37.2370   22.3260   32.1150 C   0  0  0  0  0  0  0  0  0  0  0  0
   37.6380   23.5560   32.5300 C   0  0  0  0  0  0  0  0  0  0  0  0
   37.9830   23.7930   33.8410 C   0  0  0  0  0  0  0  0  0  0  0  0
   38.4140   25.1210   34.2820 C   0  0  0  0  0  0  0  0  0  0  0  0
   37.3500   25.9090   34.7470 C   0  0  0  0  0  0  0  0  0  0  0  0
   37.5830   27.2110   35.2080 C   0  0  0  0  0  0  0  0  0  0  0  0
   38.8960   27.6100   35.1600 C   0  0  0  0  0  0  0  0  0  0  0  0
   39.9630   26.8730   34.7130 C   0  0  0  0  0  0  0  0  0  0  0  0
   39.6920   25.6040   34.2700 C   0  0  0  0  0  0  0  0  0  0  0  0
   40.6970   24.7520   33.7900 N   0  0  0  0  0  0  0  0  0  0  0  0
   41.6540   24.1780   34.5630 C   0  0  0  0  0  0  0  0  0  0  0  0
   42.4910   23.4080   33.8490 N   0  0  0  0  0  0  0  0  0  0  0  0
   42.0280   23.5110   32.5690 C   0  0  0  0  0  0  0  0  0  0  0  0
   40.9510   24.3290   32.5880 N   0  0  0  0  0  0  0  0  0  0  0  0
   37.3990   23.3590   37.1900 C   0  0  0  0  0  0  0  0  0  0  0  0
   38.2790   22.9280   36.1950 C   0  0  0  0  0  0  0  0  0  0  0  0
   39.5900   22.5980   36.5820 C   0  0  0  0  0  0  0  0  0  0  0  0
   39.9400   22.7130   37.8920 N   0  0  0  0  0  0  0  0  0  0  0  0
   39.0610   23.1330   38.8180 C   0  0  0  0  0  0  0  0  0  0  0  0
   37.7930   23.4560   38.4740 N   0  0  0  0  0  0  0  0  0  0  0  0
   37.4769   20.7247   35.0589 H   0  0  0  0  0  0  0  0  0  0  0  0
   36.8530   20.2816   32.7151 H   0  0  0  0  0  0  0  0  0  0  0  0
   36.9644   22.1580   31.0626 H   0  0  0  0  0  0  0  0  0  0  0  0
   37.6880   24.3798   31.8028 H   0  0  0  0  0  0  0  0  0  0  0  0
   36.3280   25.5022   34.7495 H   0  0  0  0  0  0  0  0  0  0  0  0
   36.7779   27.8623   35.5791 H   0  0  0  0  0  0  0  0  0  0  0  0
   39.1151   28.6270   35.5174 H   0  0  0  0  0  0  0  0  0  0  0  0
   40.9850   27.2797   34.7101 H   0  0  0  0  0  0  0  0  0  0  0  0
   41.7346   24.3266   35.6499 H   0  0  0  0  0  0  0  0  0  0  0  0
   42.4537   23.0180   31.6826 H   0  0  0  0  0  0  0  0  0  0  0  0
   36.3660   23.6239   36.9202 H   0  0  0  0  0  0  0  0  0  0  0  0
   40.3216   22.2521   35.8370 H   0  0  0  0  0  0  0  0  0  0  0  0
   39.3765   23.2151   39.8686 H   0  0  0  0  0  0  0  0  0  0  0  0
  1 19  1  0
  2  1  2  0
  3  2  1  0
  4  5  1  0
  4  3  2  0
  5  6  2  0
  6  7  1  0
  6  1  1  0
  7  8  2  0
  8  9  1  0
 10  9  2  0
 11 10  1  0
 12  7  1  0
 12 11  2  0
 13 12  1  0
 13 14  1  0
 15 14  2  0
 16 17  2  0
 16 15  1  0
 17 13  1  0
 18 23  2  0
 19 20  2  0
 19 18  1  0
 20 21  1  0
 21 22  2  0
 23 22  1  0
  2 24  1  0
  3 25  1  0
  4 26  1  0
  5 27  1  0
  8 28  1  0
  9 29  1  0
 10 30  1  0
 11 31  1  0
 14 32  1  0
 16 33  1  0
 18 34  1  0
 20 35  1  0
 22 36  1  0
M  ISO  8  24  14  25  14  26  14  27  14  28  14  29  14  30  14  31  14
M  ISO  5  32  14  33  14  34  14  35  14  36  14
M  END
>  <minimizedAffinity>  (1) 
-4.88601828

>  <minimizedRMSD>  (1) 
0.922497153

$$$$
