
     RDKit          3D

 36 38  0  0  0  0  0  0  0  0999 V2000
   37.9950   22.8260   34.7760 C   0  0  0  0  0  0  0  0  0  0  0  0
   37.6330   21.5760   34.3020 C   0  0  0  0  0  0  0  0  0  0  0  0
   37.3000   21.3110   32.9900 C   0  0  0  0  0  0  0  0  0  0  0  0
   37.3300   22.3600   32.1000 C   0  0  0  0  0  0  0  0  0  0  0  0
   37.6800   23.5930   32.5390 C   0  0  0  0  0  0  0  0  0  0  0  0
   38.0100   23.8420   33.8480 C   0  0  0  0  0  0  0  0  0  0  0  0
   38.3840   25.1710   34.3060 C   0  0  0  0  0  0  0  0  0  0  0  0
   37.2740   25.9560   34.6650 C   0  0  0  0  0  0  0  0  0  0  0  0
   37.4470   27.2640   35.1420 C   0  0  0  0  0  0  0  0  0  0  0  0
   38.7450   27.6770   35.2170 C   0  0  0  0  0  0  0  0  0  0  0  0
   39.8620   26.9490   34.8770 C   0  0  0  0  0  0  0  0  0  0  0  0
   39.6530   25.6610   34.4080 C   0  0  0  0  0  0  0  0  0  0  0  0
   40.8280   24.8890   33.9730 C   0  0  0  0  0  0  0  0  0  0  0  0
   41.9830   25.0080   34.9540 C   0  0  0  0  0  0  0  0  0  0  0  0
   37.4180   23.3420   37.1910 C   0  0  0  0  0  0  0  0  0  0  0  0
   38.3030   22.9480   36.1860 C   0  0  0  0  0  0  0  0  0  0  0  0
   39.6090   22.6500   36.6000 C   0  0  0  0  0  0  0  0  0  0  0  0
   39.9540   22.7530   37.9160 N   0  0  0  0  0  0  0  0  0  0  0  0
   39.0540   23.1370   38.8290 C   0  0  0  0  0  0  0  0  0  0  0  0
   37.7960   23.4320   38.4850 N   0  0  0  0  0  0  0  0  0  0  0  0
   37.6096   20.7410   35.0177 H   0  0  0  0  0  0  0  0  0  0  0  0
   37.0205   20.2974   32.6667 H   0  0  0  0  0  0  0  0  0  0  0  0
   37.0724   22.1991   31.0428 H   0  0  0  0  0  0  0  0  0  0  0  0
   37.7005   24.4252   31.8200 H   0  0  0  0  0  0  0  0  0  0  0  0
   36.2599   25.5404   34.5709 H   0  0  0  0  0  0  0  0  0  0  0  0
   36.6024   27.9060   35.4327 H   0  0  0  0  0  0  0  0  0  0  0  0
   38.9165   28.6983   35.5879 H   0  0  0  0  0  0  0  0  0  0  0  0
   40.8740   27.3694   34.9728 H   0  0  0  0  0  0  0  0  0  0  0  0
   40.5443   23.8298   33.8853 H   0  0  0  0  0  0  0  0  0  0  0  0
   41.1609   25.2934   33.0057 H   0  0  0  0  0  0  0  0  0  0  0  0
   41.5958   24.9681   35.9828 H   0  0  0  0  0  0  0  0  0  0  0  0
   42.6866   24.1776   34.7945 H   0  0  0  0  0  0  0  0  0  0  0  0
   42.5025   25.9644   34.7945 H   0  0  0  0  0  0  0  0  0  0  0  0
   36.3802   23.5869   36.9209 H   0  0  0  0  0  0  0  0  0  0  0  0
   40.3587   22.3318   35.8606 H   0  0  0  0  0  0  0  0  0  0  0  0
   39.3554   23.2115   39.8843 H   0  0  0  0  0  0  0  0  0  0  0  0
  1 16  1  0
  2  1  2  0
  3  2  1  0
  4  5  1  0
  4  3  2  0
  5  6  2  0
  6  7  1  0
  6  1  1  0
  7 12  1  0
  7  8  2  0
  8  9  1  0
  9 10  2  0
 11 10  1  0
 12 11  2  0
 13 12  1  0
 13 14  1  0
 15 20  2  0
 16 17  2  0
 16 15  1  0
 17 18  1  0
 18 19  2  0
 20 19  1  0
  2 21  1  0
  3 22  1  0
  4 23  1  0
  5 24  1  0
  8 25  1  0
  9 26  1  0
 10 27  1  0
 11 28  1  0
 13 29  1  0
 13 30  1  0
 14 31  1  0
 14 32  1  0
 14 33  1  0
 15 34  1  0
 17 35  1  0
 19 36  1  0
M  ISO  8  21  14  22  14  23  14  24  14  25  14  26  14  27  14  28  14
M  ISO  8  29   8  30   8  31   8  32   8  33   8  34  14  35  14  36  14
M  END
>  <minimizedAffinity>  (1) 
-4.80445337

>  <minimizedRMSD>  (1) 
0.85681361

$$$$
