
     RDKit          3D

 31 33  0  0  0  0  0  0  0  0999 V2000
   37.8160   22.7120   34.8020 C   0  0  0  0  0  0  0  0  0  0  0  0
   37.1330   21.5490   34.4910 C   0  0  0  0  0  0  0  0  0  0  0  0
   36.6910   21.2250   33.2210 C   0  0  0  0  0  0  0  0  0  0  0  0
   36.9490   22.1160   32.2100 C   0  0  0  0  0  0  0  0  0  0  0  0
   37.6190   23.2750   32.4740 C   0  0  0  0  0  0  0  0  0  0  0  0
   38.0470   23.5680   33.7530 C   0  0  0  0  0  0  0  0  0  0  0  0
   38.7680   24.8120   34.0420 C   0  0  0  0  0  0  0  0  0  0  0  0
   37.9340   25.8360   34.4770 C   0  0  0  0  0  0  0  0  0  0  0  0
   38.4620   27.0950   34.7980 C   0  0  0  0  0  0  0  0  0  0  0  0
   39.8190   27.2090   34.6470 C   0  0  0  0  0  0  0  0  0  0  0  0
   40.6760   26.2240   34.2210 C   0  0  0  0  0  0  0  0  0  0  0  0
   40.1280   24.9930   33.9110 C   0  0  0  0  0  0  0  0  0  0  0  0
   41.0940   23.6020   33.3430 S   0  0  0  0  0  0  0  0  0  0  0  0
   37.4280   23.4810   37.1800 C   0  0  0  0  0  0  0  0  0  0  0  0
   38.2170   22.9170   36.1800 C   0  0  0  0  0  0  0  0  0  0  0  0
   39.5130   22.5140   36.5520 C   0  0  0  0  0  0  0  0  0  0  0  0
   39.9260   22.6910   37.8410 N   0  0  0  0  0  0  0  0  0  0  0  0
   39.1200   23.2390   38.7560 C   0  0  0  0  0  0  0  0  0  0  0  0
   37.8810   23.6340   38.4360 N   0  0  0  0  0  0  0  0  0  0  0  0
   36.9289   20.8377   35.3049 H   0  0  0  0  0  0  0  0  0  0  0  0
   36.1516   20.2859   33.0283 H   0  0  0  0  0  0  0  0  0  0  0  0
   36.6153   21.8957   31.1853 H   0  0  0  0  0  0  0  0  0  0  0  0
   37.8204   23.9843   31.6577 H   0  0  0  0  0  0  0  0  0  0  0  0
   36.8526   25.6574   34.5700 H   0  0  0  0  0  0  0  0  0  0  0  0
   37.8337   27.9286   35.1450 H   0  0  0  0  0  0  0  0  0  0  0  0
   40.2655   28.1843   34.8907 H   0  0  0  0  0  0  0  0  0  0  0  0
   41.7568   26.4073   34.1299 H   0  0  0  0  0  0  0  0  0  0  0  0
   41.5752   22.9090   34.4224 H   0  0  0  0  0  0  0  0  0  0  0  0
   36.4073   23.8098   36.9351 H   0  0  0  0  0  0  0  0  0  0  0  0
   40.1873   22.0604   35.8106 H   0  0  0  0  0  0  0  0  0  0  0  0
   39.4800   23.3674   39.7875 H   0  0  0  0  0  0  0  0  0  0  0  0
  1 15  1  0
  2  1  2  0
  3  2  1  0
  4  5  1  0
  4  3  2  0
  5  6  2  0
  6  7  1  0
  6  1  1  0
  7  8  2  0
  8  9  1  0
 10  9  2  0
 11 10  1  0
 12  7  1  0
 12 11  2  0
 13 12  1  0
 14 19  2  0
 15 16  2  0
 15 14  1  0
 16 17  1  0
 17 18  2  0
 19 18  1  0
  2 20  1  0
  3 21  1  0
  4 22  1  0
  5 23  1  0
  8 24  1  0
  9 25  1  0
 10 26  1  0
 11 27  1  0
 13 28  1  0
 14 29  1  0
 16 30  1  0
 18 31  1  0
M  ISO  8  20  14  21  14  22  14  23  14  24  14  25  14  26  14  27  14
M  ISO  4  28  11  29  14  30  14  31  14
M  END
>  <minimizedAffinity>  (1) 
-4.78482151

>  <minimizedRMSD>  (1) 
0.0444733091

$$$$
