
     RDKit          3D

 27 29  0  0  0  0  0  0  0  0999 V2000
   39.1780   23.4350   36.8550 C   0  0  0  0  0  0  0  0  0  0  0  0
   38.5940   23.7380   35.5270 C   0  0  0  0  0  0  0  0  0  0  0  0
   38.3710   22.7600   34.6040 N   0  0  0  0  0  0  0  0  0  0  0  0
   37.8060   23.0680   33.4110 C   0  0  0  0  0  0  0  0  0  0  0  0
   37.4450   24.3400   33.0870 N   0  0  0  0  0  0  0  0  0  0  0  0
   37.6370   25.3720   33.9600 C   0  0  0  0  0  0  0  0  0  0  0  0
   37.2610   26.6490   33.6090 C   0  0  0  0  0  0  0  0  0  0  0  0
   37.4830   27.6460   34.5400 C   0  0  0  0  0  0  0  0  0  0  0  0
   38.0640   27.3360   35.7680 C   0  0  0  0  0  0  0  0  0  0  0  0
   38.4240   26.0330   36.0710 C   0  0  0  0  0  0  0  0  0  0  0  0
   38.2140   25.0100   35.1580 C   0  0  0  0  0  0  0  0  0  0  0  0
   40.9030   21.7380   37.3800 C   0  0  0  0  0  0  0  0  0  0  0  0
   40.5380   22.9130   36.6930 C   0  0  0  0  0  0  0  0  0  0  0  0
   41.5020   23.5320   35.8930 C   0  0  0  0  0  0  0  0  0  0  0  0
   42.7550   22.9640   35.8180 N   0  0  0  0  0  0  0  0  0  0  0  0
   43.0410   21.8330   36.5050 C   0  0  0  0  0  0  0  0  0  0  0  0
   42.1290   21.1940   37.2990 N   0  0  0  0  0  0  0  0  0  0  0  0
   39.2093   24.3543   37.4583 H   0  0  0  0  0  0  0  0  0  0  0  0
   38.5576   22.6803   37.3605 H   0  0  0  0  0  0  0  0  0  0  0  0
   37.6335   22.2637   32.6807 H   0  0  0  0  0  0  0  0  0  0  0  0
   36.8046   26.8659   32.6319 H   0  0  0  0  0  0  0  0  0  0  0  0
   37.2010   28.6844   34.3116 H   0  0  0  0  0  0  0  0  0  0  0  0
   38.2386   28.1342   36.5045 H   0  0  0  0  0  0  0  0  0  0  0  0
   38.8811   25.8073   37.0457 H   0  0  0  0  0  0  0  0  0  0  0  0
   40.1500   21.2436   38.0113 H   0  0  0  0  0  0  0  0  0  0  0  0
   41.2661   24.4509   35.3363 H   0  0  0  0  0  0  0  0  0  0  0  0
   44.0525   21.4089   36.4208 H   0  0  0  0  0  0  0  0  0  0  0  0
  2  1  1  0
  3  2  2  0
  4  3  1  0
  5  4  2  0
  5  6  1  0
  6 11  2  0
  7  6  1  0
  7  8  2  0
  8  9  1  0
  9 10  2  0
 11  2  1  0
 11 10  1  0
 13  1  1  0
 13 12  2  0
 14 13  1  0
 15 14  2  0
 15 16  1  0
 16 17  2  0
 17 12  1  0
  1 18  1  0
  1 19  1  0
  4 20  1  0
  7 21  1  0
  8 22  1  0
  9 23  1  0
 10 24  1  0
 12 25  1  0
 14 26  1  0
 16 27  1  0
M  ISO  8  18   8  19   8  20  14  21  14  22  14  23  14  24  14  25  14
M  ISO  2  26  14  27  14
M  END
>  <minimizedAffinity>  (1) 
-4.49284649

>  <minimizedRMSD>  (1) 
4.1902504

$$$$
