
     RDKit          3D

 26 27  0  0  0  0  0  0  0  0999 V2000
   40.4870   22.1870   37.2900 C   0  0  0  0  0  0  0  0  0  0  0  0
   40.2280   22.4790   35.9360 C   0  0  0  0  0  0  0  0  0  0  0  0
   41.1460   21.9800   34.9790 C   0  0  0  0  0  0  0  0  0  0  0  0
   42.2150   21.2530   35.4300 N   0  0  0  0  0  0  0  0  0  0  0  0
   42.4050   21.0100   36.7290 C   0  0  0  0  0  0  0  0  0  0  0  0
   41.5650   21.4580   37.6950 N   0  0  0  0  0  0  0  0  0  0  0  0
   39.0520   23.2650   35.5940 C   0  0  0  0  0  0  0  0  0  0  0  0
   39.1750   24.6720   35.8670 N   0  0  0  0  0  0  0  0  0  0  0  0
   39.6990   25.4260   34.7720 C   0  0  0  0  0  0  0  0  0  0  0  0
   39.6460   26.8980   35.1720 C   0  0  0  0  0  0  0  0  0  0  0  0
   38.3390   27.2980   35.0290 O   0  0  0  0  0  0  0  0  0  0  0  0
   37.4210   26.2980   35.2420 C   0  0  0  0  0  0  0  0  0  0  0  0
   37.8630   25.2090   36.1730 C   0  0  0  0  0  0  0  0  0  0  0  0
   39.7894   22.5635   38.0526 H   0  0  0  0  0  0  0  0  0  0  0  0
   41.0040   22.1711   33.9051 H   0  0  0  0  0  0  0  0  0  0  0  0
   43.2830   20.4194   37.0295 H   0  0  0  0  0  0  0  0  0  0  0  0
   38.1995   22.8764   36.1704 H   0  0  0  0  0  0  0  0  0  0  0  0
   38.9161   23.1679   34.5068 H   0  0  0  0  0  0  0  0  0  0  0  0
   39.0890   25.2577   33.8722 H   0  0  0  0  0  0  0  0  0  0  0  0
   40.7308   25.1197   34.5450 H   0  0  0  0  0  0  0  0  0  0  0  0
   39.9676   27.0190   36.2170 H   0  0  0  0  0  0  0  0  0  0  0  0
   40.3166   27.5035   34.5445 H   0  0  0  0  0  0  0  0  0  0  0  0
   36.5122   26.7548   35.6608 H   0  0  0  0  0  0  0  0  0  0  0  0
   37.2633   25.8172   34.2653 H   0  0  0  0  0  0  0  0  0  0  0  0
   37.1318   24.3890   36.1191 H   0  0  0  0  0  0  0  0  0  0  0  0
   37.9256   25.6530   37.1775 H   0  0  0  0  0  0  0  0  0  0  0  0
  1  6  2  0
  2  1  1  0
  3  4  1  0
  3  2  2  0
  4  5  2  0
  5  6  1  0
  7  8  1  0
  7  2  1  0
  8 13  1  0
  9 10  1  0
  9  8  1  0
 11 10  1  0
 11 12  1  0
 12 13  1  0
  1 14  1  0
  3 15  1  0
  5 16  1  0
  7 17  1  0
  7 18  1  0
  9 19  1  0
  9 20  1  0
 10 21  1  0
 10 22  1  0
 12 23  1  0
 12 24  1  0
 13 25  1  0
 13 26  1  0
M  ISO  8  14  14  15  14  16  14  17   8  18   8  19  13  20  13  21  13
M  ISO  5  22  13  23  13  24  13  25  13  26  13
M  END
>  <minimizedAffinity>  (1) 
-3.23331451

>  <minimizedRMSD>  (1) 
3.82307482

$$$$
