
     RDKit          3D

 15 15  0  0  0  0  0  0  0  0999 V2000
   38.0810   23.5920   36.1480 C   0  0  0  0  0  0  0  0  0  0  0  0
   39.2940   22.9190   36.2890 C   0  0  0  0  0  0  0  0  0  0  0  0
   39.8160   22.7690   37.5810 C   0  0  0  0  0  0  0  0  0  0  0  0
   39.1050   23.2910   38.6230 N   0  0  0  0  0  0  0  0  0  0  0  0
   37.9450   23.9310   38.4370 C   0  0  0  0  0  0  0  0  0  0  0  0
   37.3860   24.1070   37.2030 N   0  0  0  0  0  0  0  0  0  0  0  0
   39.9700   22.3980   35.1030 C   0  0  0  0  0  0  0  0  0  0  0  0
   39.8330   23.2990   33.9480 N   0  0  0  0  0  0  0  0  0  0  0  0
   37.6643   23.7136   35.1373 H   0  0  0  0  0  0  0  0  0  0  0  0
   40.7692   22.2468   37.7502 H   0  0  0  0  0  0  0  0  0  0  0  0
   37.4187   24.3328   39.3154 H   0  0  0  0  0  0  0  0  0  0  0  0
   41.0389   22.2725   35.3303 H   0  0  0  0  0  0  0  0  0  0  0  0
   39.5026   21.4374   34.8409 H   0  0  0  0  0  0  0  0  0  0  0  0
   39.6864   24.2629   34.2800 H   0  0  0  0  0  0  0  0  0  0  0  0
   40.6898   23.2588   33.3777 H   0  0  0  0  0  0  0  0  0  0  0  0
  1  2  2  0
  1  6  1  0
  2  3  1  0
  3  4  2  0
  5  4  1  0
  6  5  2  0
  7  2  1  0
  8  7  1  0
  1  9  1  0
  3 10  1  0
  5 11  1  0
  7 12  1  0
  7 13  1  0
  8 14  1  0
  8 15  1  0
M  ISO  7   9  14  10  14  11  14  12   8  13   8  14   5  15   5
M  END
>  <minimizedAffinity>  (1) 
-2.54123473

>  <minimizedRMSD>  (1) 
3.77004099

$$$$
