
     RDKit          3D

 29 30  0  0  0  0  0  0  0  0999 V2000
   40.7340   23.4270   35.2990 C   0  0  0  0  0  0  0  0  0  0  0  0
   39.9100   22.9740   37.5760 C   0  0  0  0  0  0  0  0  0  0  0  0
   39.7000   23.5560   36.3130 C   0  0  0  0  0  0  0  0  0  0  0  0
   38.5090   24.2350   36.0800 C   0  0  0  0  0  0  0  0  0  0  0  0
   37.5830   24.3100   37.0940 N   0  0  0  0  0  0  0  0  0  0  0  0
   37.8340   23.7330   38.2910 C   0  0  0  0  0  0  0  0  0  0  0  0
   38.9720   23.0680   38.5580 N   0  0  0  0  0  0  0  0  0  0  0  0
   40.3990   24.0820   34.1530 O   0  0  0  0  0  0  0  0  0  0  0  0
   42.8480   27.3220   34.3620 N   0  0  0  0  0  0  0  0  0  0  0  0
   41.8100   27.3830   33.3760 C   0  0  0  0  0  0  0  0  0  0  0  0
   40.8010   26.2720   33.4830 C   0  0  0  0  0  0  0  0  0  0  0  0
   41.4230   24.9050   33.6580 C   0  0  0  0  0  0  0  0  0  0  0  0
   42.5520   24.9390   34.6460 C   0  0  0  0  0  0  0  0  0  0  0  0
   43.5210   26.0580   34.3380 C   0  0  0  0  0  0  0  0  0  0  0  0
   41.6716   23.8490   35.6900 H   0  0  0  0  0  0  0  0  0  0  0  0
   40.8514   22.3592   35.0623 H   0  0  0  0  0  0  0  0  0  0  0  0
   40.8477   22.4339   37.7736 H   0  0  0  0  0  0  0  0  0  0  0  0
   38.3115   24.7027   35.1042 H   0  0  0  0  0  0  0  0  0  0  0  0
   37.0733   23.8111   39.0817 H   0  0  0  0  0  0  0  0  0  0  0  0
   43.5320   28.0690   34.1746 H   0  0  0  0  0  0  0  0  0  0  0  0
   42.2749   27.3338   32.3803 H   0  0  0  0  0  0  0  0  0  0  0  0
   41.2666   28.3248   33.5425 H   0  0  0  0  0  0  0  0  0  0  0  0
   40.1530   26.4728   34.3489 H   0  0  0  0  0  0  0  0  0  0  0  0
   40.2403   26.2528   32.5368 H   0  0  0  0  0  0  0  0  0  0  0  0
   41.8364   24.5426   32.7052 H   0  0  0  0  0  0  0  0  0  0  0  0
   42.1403   25.0896   35.6549 H   0  0  0  0  0  0  0  0  0  0  0  0
   43.0948   23.9842   34.5845 H   0  0  0  0  0  0  0  0  0  0  0  0
   43.9549   25.8973   33.3400 H   0  0  0  0  0  0  0  0  0  0  0  0
   44.3150   26.0620   35.0992 H   0  0  0  0  0  0  0  0  0  0  0  0
  1  3  1  0
  2  7  2  0
  3  2  1  0
  4  3  2  0
  4  5  1  0
  5  6  2  0
  6  7  1  0
  8  1  1  0
 10 11  1  0
 10  9  1  0
 11 12  1  0
 12  8  1  0
 12 13  1  0
 14  9  1  0
 14 13  1  0
  1 15  1  0
  1 16  1  0
  2 17  1  0
  4 18  1  0
  6 19  1  0
  9 20  1  0
 10 21  1  0
 10 22  1  0
 11 23  1  0
 11 24  1  0
 12 25  1  0
 13 26  1  0
 13 27  1  0
 14 28  1  0
 14 29  1  0
M  ISO  8  15   8  16   8  17  14  18  14  19  14  20   5  21  13  22  13
M  ISO  7  23  13  24  13  25  13  26  13  27  13  28  13  29  13
M  END
>  <minimizedAffinity>  (1) 
-3.52967286

>  <minimizedRMSD>  (1) 
6.74338722

$$$$
