
     RDKit          3D

 39 42  0  0  1  0  0  0  0  0999 V2000
   39.5740   23.9310   35.6200 N   0  0  0  0  0  0  0  0  0  0  0  0
   40.5180   23.0930   36.3260 C   0  0  0  0  0  0  0  0  0  0  0  0
   39.7750   22.5440   37.5360 C   0  0  0  0  0  0  0  0  0  0  0  0
   38.8240   23.7320   37.7980 C   0  0  0  0  0  0  0  0  0  0  0  0
   38.3750   23.9550   36.3590 C   0  0  2  0  0  0  0  0  0  0  0  0
   37.5150   22.8030   35.9950 N   0  0  0  0  0  0  0  0  0  0  0  0
   36.7090   22.0220   36.7530 C   0  0  0  0  0  0  0  0  0  0  0  0
   36.1400   21.1080   35.9530 N   0  0  0  0  0  0  0  0  0  0  0  0
   36.5610   21.2780   34.6870 C   0  0  0  0  0  0  0  0  0  0  0  0
   36.3010   20.6340   33.4910 C   0  0  0  0  0  0  0  0  0  0  0  0
   36.8910   21.0460   32.3560 N   0  0  0  0  0  0  0  0  0  0  0  0
   37.7510   22.1040   32.3760 C   0  0  0  0  0  0  0  0  0  0  0  0
   37.9940   22.7200   33.5460 N   0  0  0  0  0  0  0  0  0  0  0  0
   37.4310   22.3490   34.7100 C   0  0  0  0  0  0  0  0  0  0  0  0
   35.3960   19.5280   33.5020 N   0  0  0  0  0  0  0  0  0  0  0  0
   37.6180   25.0490   36.0860 O   0  0  0  0  0  0  0  0  0  0  0  0
   38.4150   25.8730   35.3110 C   0  0  0  0  0  0  0  0  0  0  0  0
   37.3950   26.1290   33.0840 C   0  0  0  0  0  0  0  0  0  0  0  0
   37.5560   26.6330   34.3930 C   0  0  0  0  0  0  0  0  0  0  0  0
   36.9380   27.8040   34.7130 C   0  0  0  0  0  0  0  0  0  0  0  0
   36.1840   28.4490   33.7570 N   0  0  0  0  0  0  0  0  0  0  0  0
   36.0590   27.9350   32.5280 C   0  0  0  0  0  0  0  0  0  0  0  0
   36.6430   26.7850   32.1510 N   0  0  0  0  0  0  0  0  0  0  0  0
   39.9506   24.8858   35.5339 H   0  0  0  0  0  0  0  0  0  0  0  0
   40.8550   22.2694   35.6793 H   0  0  0  0  0  0  0  0  0  0  0  0
   41.4111   23.6602   36.6270 H   0  0  0  0  0  0  0  0  0  0  0  0
   39.2257   21.6211   37.2984 H   0  0  0  0  0  0  0  0  0  0  0  0
   40.4086   22.2501   38.3858 H   0  0  0  0  0  0  0  0  0  0  0  0
   37.9880   23.4602   38.4593 H   0  0  0  0  0  0  0  0  0  0  0  0
   39.2623   24.6012   38.3103 H   0  0  0  0  0  0  0  0  0  0  0  0
   36.5488   22.1202   37.8368 H   0  0  0  0  0  0  0  0  0  0  0  0
   38.2374   22.4474   31.4511 H   0  0  0  0  0  0  0  0  0  0  0  0
   35.1826   19.0284   32.6269 H   0  0  0  0  0  0  0  0  0  0  0  0
   34.9571   19.2304   34.3850 H   0  0  0  0  0  0  0  0  0  0  0  0
   38.9696   26.5675   35.9591 H   0  0  0  0  0  0  0  0  0  0  0  0
   39.1329   25.2681   34.7376 H   0  0  0  0  0  0  0  0  0  0  0  0
   37.8873   25.1847   32.8086 H   0  0  0  0  0  0  0  0  0  0  0  0
   37.0397   28.2295   35.7223 H   0  0  0  0  0  0  0  0  0  0  0  0
   35.4496   28.4794   31.7916 H   0  0  0  0  0  0  0  0  0  0  0  0
  1  2  1  0
  1  5  1  0
  2  3  1  0
  3  4  1  0
  5 16  1  1
  5  4  1  0
  6  5  1  0
  6  7  1  0
  8  7  2  0
  9 14  2  0
  9  8  1  0
 10 15  1  0
 10  9  1  0
 11 12  1  0
 11 10  2  0
 12 13  2  0
 13 14  1  0
 14  6  1  0
 17 16  1  0
 18 19  2  0
 19 20  1  0
 19 17  1  0
 21 20  2  0
 22 21  1  0
 23 22  2  0
 23 18  1  0
  1 24  1  0
  2 25  1  0
  2 26  1  0
  3 27  1  0
  3 28  1  0
  4 29  1  0
  4 30  1  0
  7 31  1  0
 12 32  1  0
 15 33  1  0
 15 34  1  0
 17 35  1  0
 17 36  1  0
 18 37  1  0
 20 38  1  0
 22 39  1  0
M  ISO  8  24   5  25  13  26  13  27  13  28  13  29  13  30  13  31  14
M  ISO  6  32  14  35   8  36   8  37  14  38  14  39  14
M  END
>  <minimizedAffinity>  (1) 
-4.67619181

>  <minimizedRMSD>  (1) 
1.16688454

$$$$
