
     RDKit          3D

 40 43  0  0  1  0  0  0  0  0999 V2000
   40.0720   24.1340   35.6550 N   0  0  0  0  0  0  0  0  0  0  0  0
   41.0600   23.2060   36.0630 C   0  0  0  0  0  0  0  0  0  0  0  0
   40.3620   21.8650   36.0750 C   0  0  0  0  0  0  0  0  0  0  0  0
   38.9370   22.3510   36.3100 C   0  0  0  0  0  0  0  0  0  0  0  0
   38.9420   23.5350   35.2630 C   0  0  2  0  0  0  0  0  0  0  0  0
   38.8360   22.7100   34.0370 C   0  0  0  0  0  0  0  0  0  0  0  0
   39.6940   22.6680   32.9990 N   0  0  0  0  0  0  0  0  0  0  0  0
   39.5790   21.8670   31.9360 C   0  0  0  0  0  0  0  0  0  0  0  0
   38.5690   20.9940   31.7840 N   0  0  0  0  0  0  0  0  0  0  0  0
   37.6540   20.9550   32.7660 C   0  0  0  0  0  0  0  0  0  0  0  0
   36.6080   20.0750   32.6180 C   0  0  0  0  0  0  0  0  0  0  0  0
   35.6310   20.0050   33.5880 C   0  0  0  0  0  0  0  0  0  0  0  0
   35.7190   20.8300   34.7110 C   0  0  0  0  0  0  0  0  0  0  0  0
   36.7850   21.6690   34.7770 C   0  0  0  0  0  0  0  0  0  0  0  0
   37.8170   21.8060   33.8470 C   0  0  0  0  0  0  0  0  0  0  0  0
   37.7550   24.2520   35.4350 O   0  0  0  0  0  0  0  0  0  0  0  0
   38.0360   25.5590   35.5320 C   0  0  0  0  0  0  0  0  0  0  0  0
   37.2030   25.8210   33.2240 C   0  0  0  0  0  0  0  0  0  0  0  0
   37.4150   26.3550   34.4750 C   0  0  0  0  0  0  0  0  0  0  0  0
   36.9550   27.6500   34.7270 C   0  0  0  0  0  0  0  0  0  0  0  0
   36.3110   28.3300   33.7150 N   0  0  0  0  0  0  0  0  0  0  0  0
   36.1340   27.7550   32.5220 C   0  0  0  0  0  0  0  0  0  0  0  0
   36.5600   26.5150   32.2350 N   0  0  0  0  0  0  0  0  0  0  0  0
   39.8583   24.7589   36.4454 H   0  0  0  0  0  0  0  0  0  0  0  0
   41.8991   23.1980   35.3517 H   0  0  0  0  0  0  0  0  0  0  0  0
   41.4813   23.4595   37.0470 H   0  0  0  0  0  0  0  0  0  0  0  0
   40.4661   21.3355   35.1165 H   0  0  0  0  0  0  0  0  0  0  0  0
   40.7433   21.1357   36.8049 H   0  0  0  0  0  0  0  0  0  0  0  0
   38.1881   21.5825   36.0682 H   0  0  0  0  0  0  0  0  0  0  0  0
   38.6798   22.6192   37.3453 H   0  0  0  0  0  0  0  0  0  0  0  0
   40.3459   21.9248   31.1496 H   0  0  0  0  0  0  0  0  0  0  0  0
   36.5510   19.4294   31.7292 H   0  0  0  0  0  0  0  0  0  0  0  0
   34.7894   19.3053   33.4782 H   0  0  0  0  0  0  0  0  0  0  0  0
   34.9595   20.8017   35.5062 H   0  0  0  0  0  0  0  0  0  0  0  0
   36.8417   22.3149   35.6656 H   0  0  0  0  0  0  0  0  0  0  0  0
   37.6746   25.9243   36.5046 H   0  0  0  0  0  0  0  0  0  0  0  0
   39.1257   25.6704   35.4317 H   0  0  0  0  0  0  0  0  0  0  0  0
   37.5622   24.8031   33.0123 H   0  0  0  0  0  0  0  0  0  0  0  0
   37.1034   28.1171   35.7118 H   0  0  0  0  0  0  0  0  0  0  0  0
   35.6144   28.3250   31.7377 H   0  0  0  0  0  0  0  0  0  0  0  0
  1  2  1  0
  2  3  1  0
  3  4  1  0
  5 16  1  1
  5  1  1  0
  5  4  1  0
  6  5  1  0
  7  6  2  0
  8  7  1  0
  9  8  2  0
  9 10  1  0
 10 15  2  0
 11 10  1  0
 11 12  2  0
 12 13  1  0
 13 14  2  0
 15  6  1  0
 15 14  1  0
 16 17  1  0
 18 19  2  0
 19 20  1  0
 19 17  1  0
 21 20  2  0
 22 21  1  0
 23 22  2  0
 23 18  1  0
  1 24  1  0
  2 25  1  0
  2 26  1  0
  3 27  1  0
  3 28  1  0
  4 29  1  0
  4 30  1  0
  8 31  1  0
 11 32  1  0
 12 33  1  0
 13 34  1  0
 14 35  1  0
 17 36  1  0
 17 37  1  0
 18 38  1  0
 20 39  1  0
 22 40  1  0
M  ISO  8  24   5  25  13  26  13  27  13  28  13  29  13  30  13  31  14
M  ISO  8  32  14  33  14  34  14  35  14  36   8  37   8  38  14  39  14
M  ISO  1  40  14
M  END
>  <minimizedAffinity>  (1) 
-4.59377384

>  <minimizedRMSD>  (1) 
2.41711283

$$$$
