
     RDKit          3D

 37 40  0  0  1  0  0  0  0  0999 V2000
   39.7440   24.1970   35.3540 N   0  0  0  0  0  0  0  0  0  0  0  0
   40.7230   23.3410   35.9860 C   0  0  0  0  0  0  0  0  0  0  0  0
   39.9650   22.5070   37.0090 C   0  0  0  0  0  0  0  0  0  0  0  0
   38.8700   23.5170   37.3910 C   0  0  0  0  0  0  0  0  0  0  0  0
   38.4930   23.9760   36.0010 C   0  0  2  0  0  0  0  0  0  0  0  0
   37.7320   22.8210   35.4720 N   0  0  0  0  0  0  0  0  0  0  0  0
   36.9530   21.9290   36.1040 C   0  0  0  0  0  0  0  0  0  0  0  0
   36.4970   21.0820   35.1610 N   0  0  0  0  0  0  0  0  0  0  0  0
   36.9910   21.4480   33.9620 C   0  0  0  0  0  0  0  0  0  0  0  0
   36.7920   20.8700   32.7180 C   0  0  0  0  0  0  0  0  0  0  0  0
   37.4310   21.4770   31.6960 N   0  0  0  0  0  0  0  0  0  0  0  0
   38.2070   22.5630   31.8580 C   0  0  0  0  0  0  0  0  0  0  0  0
   38.4000   23.1260   33.0820 N   0  0  0  0  0  0  0  0  0  0  0  0
   37.7880   22.5690   34.1540 C   0  0  0  0  0  0  0  0  0  0  0  0
   37.6600   25.0390   35.8790 O   0  0  0  0  0  0  0  0  0  0  0  0
   38.3880   26.0120   35.2190 C   0  0  0  0  0  0  0  0  0  0  0  0
   37.3030   26.3580   33.0530 C   0  0  0  0  0  0  0  0  0  0  0  0
   37.4850   26.8090   34.3790 C   0  0  0  0  0  0  0  0  0  0  0  0
   36.8640   27.9530   34.7740 C   0  0  0  0  0  0  0  0  0  0  0  0
   36.0770   28.6270   33.8550 N   0  0  0  0  0  0  0  0  0  0  0  0
   35.9310   28.1650   32.6080 C   0  0  0  0  0  0  0  0  0  0  0  0
   36.5230   27.0320   32.1540 N   0  0  0  0  0  0  0  0  0  0  0  0
   40.0224   25.1834   35.4562 H   0  0  0  0  0  0  0  0  0  0  0  0
   41.1971   22.6880   35.2384 H   0  0  0  0  0  0  0  0  0  0  0  0
   41.5205   23.9300   36.4625 H   0  0  0  0  0  0  0  0  0  0  0  0
   39.5444   21.5932   36.5641 H   0  0  0  0  0  0  0  0  0  0  0  0
   40.5686   22.1286   37.8471 H   0  0  0  0  0  0  0  0  0  0  0  0
   38.0278   23.0379   37.9118 H   0  0  0  0  0  0  0  0  0  0  0  0
   39.1747   24.3102   38.0895 H   0  0  0  0  0  0  0  0  0  0  0  0
   36.7306   21.8961   37.1808 H   0  0  0  0  0  0  0  0  0  0  0  0
   36.1595   19.9816   32.5743 H   0  0  0  0  0  0  0  0  0  0  0  0
   38.6980   23.0074   30.9797 H   0  0  0  0  0  0  0  0  0  0  0  0
   38.8782   26.6663   35.9549 H   0  0  0  0  0  0  0  0  0  0  0  0
   39.1525   25.5351   34.5881 H   0  0  0  0  0  0  0  0  0  0  0  0
   37.8055   25.4335   32.7324 H   0  0  0  0  0  0  0  0  0  0  0  0
   36.9840   28.3338   35.7990 H   0  0  0  0  0  0  0  0  0  0  0  0
   35.2965   28.7347   31.9131 H   0  0  0  0  0  0  0  0  0  0  0  0
  1  2  1  0
  1  5  1  0
  2  3  1  0
  3  4  1  0
  5 15  1  1
  5  4  1  0
  6  5  1  0
  6  7  1  0
  8  7  2  0
  9 14  2  0
  9  8  1  0
 10  9  1  0
 11 12  1  0
 11 10  2  0
 12 13  2  0
 13 14  1  0
 14  6  1  0
 16 15  1  0
 17 18  2  0
 18 19  1  0
 18 16  1  0
 20 19  2  0
 21 20  1  0
 22 21  2  0
 22 17  1  0
  1 23  1  0
  2 24  1  0
  2 25  1  0
  3 26  1  0
  3 27  1  0
  4 28  1  0
  4 29  1  0
  7 30  1  0
 10 31  1  0
 12 32  1  0
 16 33  1  0
 16 34  1  0
 17 35  1  0
 19 36  1  0
 21 37  1  0
M  ISO  8  23   5  24  13  25  13  26  13  27  13  28  13  29  13  30  14
M  ISO  7  31  14  32  14  33   8  34   8  35  14  36  14  37  14
M  END
>  <minimizedAffinity>  (1) 
-4.4322629

>  <minimizedRMSD>  (1) 
1.34413755

$$$$
