
     RDKit          3D

 39 41  0  0  1  0  0  0  0  0999 V2000
   40.5820   23.7600   35.8000 N   0  0  0  0  0  0  0  0  0  0  0  0
   41.5490   23.0190   36.5310 C   0  0  0  0  0  0  0  0  0  0  0  0
   40.7480   22.0970   37.4500 C   0  0  0  0  0  0  0  0  0  0  0  0
   39.5060   22.9960   37.6520 C   0  0  0  0  0  0  0  0  0  0  0  0
   39.2870   23.3710   36.1990 C   0  0  2  0  0  0  0  0  0  0  0  0
   38.7810   22.1240   35.6300 N   0  0  0  0  0  0  0  0  0  0  0  0
   39.1590   21.9650   34.2440 C   0  0  0  0  0  0  0  0  0  0  0  0
   38.1190   22.4620   33.2960 C   0  0  0  0  0  0  0  0  0  0  0  0
   36.8990   21.8720   33.4270 O   0  0  0  0  0  0  0  0  0  0  0  0
   36.6970   21.2970   34.6440 C   0  0  0  0  0  0  0  0  0  0  0  0
   37.3620   21.9760   35.8140 C   0  0  0  0  0  0  0  0  0  0  0  0
   38.3460   24.3080   35.9220 O   0  0  0  0  0  0  0  0  0  0  0  0
   39.0350   25.4280   35.5050 C   0  0  0  0  0  0  0  0  0  0  0  0
   37.6020   26.0350   33.6110 C   0  0  0  0  0  0  0  0  0  0  0  0
   38.0930   26.3750   34.8910 C   0  0  0  0  0  0  0  0  0  0  0  0
   37.7120   27.5550   35.4470 C   0  0  0  0  0  0  0  0  0  0  0  0
   36.8590   28.3800   34.7380 N   0  0  0  0  0  0  0  0  0  0  0  0
   36.4160   28.0240   33.5270 C   0  0  0  0  0  0  0  0  0  0  0  0
   36.7590   26.8570   32.9150 N   0  0  0  0  0  0  0  0  0  0  0  0
   40.6997   23.5775   34.7932 H   0  0  0  0  0  0  0  0  0  0  0  0
   42.1780   22.4291   35.8481 H   0  0  0  0  0  0  0  0  0  0  0  0
   42.2227   23.6768   37.0996 H   0  0  0  0  0  0  0  0  0  0  0  0
   40.4948   21.1440   36.9624 H   0  0  0  0  0  0  0  0  0  0  0  0
   41.2602   21.7769   38.3693 H   0  0  0  0  0  0  0  0  0  0  0  0
   38.6539   22.4427   38.0737 H   0  0  0  0  0  0  0  0  0  0  0  0
   39.6218   23.8325   38.3569 H   0  0  0  0  0  0  0  0  0  0  0  0
   40.0898   22.5241   34.0680 H   0  0  0  0  0  0  0  0  0  0  0  0
   39.2860   20.8882   34.0587 H   0  0  0  0  0  0  0  0  0  0  0  0
   38.4770   22.2842   32.2712 H   0  0  0  0  0  0  0  0  0  0  0  0
   37.9741   23.5279   33.5260 H   0  0  0  0  0  0  0  0  0  0  0  0
   35.6136   21.2832   34.8341 H   0  0  0  0  0  0  0  0  0  0  0  0
   37.1555   20.2991   34.5804 H   0  0  0  0  0  0  0  0  0  0  0  0
   37.1841   21.3756   36.7183 H   0  0  0  0  0  0  0  0  0  0  0  0
   36.9296   22.9832   35.9064 H   0  0  0  0  0  0  0  0  0  0  0  0
   39.5229   25.9026   36.3691 H   0  0  0  0  0  0  0  0  0  0  0  0
   39.7998   25.1385   34.7693 H   0  0  0  0  0  0  0  0  0  0  0  0
   37.9071   25.0793   33.1598 H   0  0  0  0  0  0  0  0  0  0  0  0
   38.0757   27.8483   36.4429 H   0  0  0  0  0  0  0  0  0  0  0  0
   35.7388   28.7104   32.9976 H   0  0  0  0  0  0  0  0  0  0  0  0
  1  5  1  0
  1  2  1  0
  2  3  1  0
  3  4  1  0
  5 12  1  1
  5  4  1  0
  6 11  1  0
  6  5  1  0
  7  6  1  0
  8  9  1  0
  8  7  1  0
  9 10  1  0
 10 11  1  0
 13 12  1  0
 14 15  2  0
 15 16  1  0
 15 13  1  0
 17 16  2  0
 18 17  1  0
 19 18  2  0
 19 14  1  0
  1 20  1  0
  2 21  1  0
  2 22  1  0
  3 23  1  0
  3 24  1  0
  4 25  1  0
  4 26  1  0
  7 27  1  0
  7 28  1  0
  8 29  1  0
  8 30  1  0
 10 31  1  0
 10 32  1  0
 11 33  1  0
 11 34  1  0
 13 35  1  0
 13 36  1  0
 14 37  1  0
 16 38  1  0
 18 39  1  0
M  ISO  8  20   5  21  13  22  13  23  13  24  13  25  13  26  13  27  13
M  ISO  8  28  13  29  13  30  13  31  13  32  13  33  13  34  13  35   8
M  ISO  4  36   8  37  14  38  14  39  14
M  END
>  <minimizedAffinity>  (1) 
-4.27225685

>  <minimizedRMSD>  (1) 
1.21980667

$$$$
