
     RDKit          3D

 29 30  0  0  1  0  0  0  0  0999 V2000
   39.7350   23.9640   35.8720 N   0  0  0  0  0  0  0  0  0  0  0  0
   40.7390   23.2370   36.6160 C   0  0  0  0  0  0  0  0  0  0  0  0
   40.0750   22.6170   37.8090 C   0  0  0  0  0  0  0  0  0  0  0  0
   38.8340   23.4820   37.9540 C   0  0  0  0  0  0  0  0  0  0  0  0
   38.4980   23.7630   36.5020 C   0  0  2  0  0  0  0  0  0  0  0  0
   37.7910   22.5190   35.9310 C   0  0  0  0  0  0  0  0  0  0  0  0
   36.7350   22.1020   36.6600 F   0  0  0  0  0  0  0  0  0  0  0  0
   37.3470   22.7710   34.6450 F   0  0  0  0  0  0  0  0  0  0  0  0
   38.7730   21.5310   35.7870 F   0  0  0  0  0  0  0  0  0  0  0  0
   37.6160   24.7730   36.2700 O   0  0  0  0  0  0  0  0  0  0  0  0
   38.3520   25.8430   35.8110 C   0  0  0  0  0  0  0  0  0  0  0  0
   37.4610   25.8300   33.5150 C   0  0  0  0  0  0  0  0  0  0  0  0
   37.5930   26.5150   34.7440 C   0  0  0  0  0  0  0  0  0  0  0  0
   37.0510   27.7560   34.8570 C   0  0  0  0  0  0  0  0  0  0  0  0
   36.3930   28.3010   33.7730 N   0  0  0  0  0  0  0  0  0  0  0  0
   36.2900   27.6200   32.6270 C   0  0  0  0  0  0  0  0  0  0  0  0
   36.8050   26.3920   32.4550 N   0  0  0  0  0  0  0  0  0  0  0  0
   39.6953   23.6137   34.9042 H   0  0  0  0  0  0  0  0  0  0  0  0
   41.1768   22.4515   35.9825 H   0  0  0  0  0  0  0  0  0  0  0  0
   41.5427   23.9162   36.9366 H   0  0  0  0  0  0  0  0  0  0  0  0
   39.8115   21.5659   37.6202 H   0  0  0  0  0  0  0  0  0  0  0  0
   40.7078   22.5891   38.7083 H   0  0  0  0  0  0  0  0  0  0  0  0
   38.0209   22.9389   38.4579 H   0  0  0  0  0  0  0  0  0  0  0  0
   38.9821   24.3843   38.5654 H   0  0  0  0  0  0  0  0  0  0  0  0
   38.5344   26.5478   36.6357 H   0  0  0  0  0  0  0  0  0  0  0  0
   39.3185   25.4927   35.4197 H   0  0  0  0  0  0  0  0  0  0  0  0
   37.8946   24.8246   33.4090 H   0  0  0  0  0  0  0  0  0  0  0  0
   37.1354   28.3181   35.7988 H   0  0  0  0  0  0  0  0  0  0  0  0
   35.7582   28.0879   31.7854 H   0  0  0  0  0  0  0  0  0  0  0  0
  1  5  1  0
  1  2  1  0
  2  3  1  0
  3  4  1  0
  5 10  1  1
  5  4  1  0
  6  5  1  0
  6  7  1  0
  8  6  1  0
  9  6  1  0
 11 10  1  0
 12 13  2  0
 13 14  1  0
 13 11  1  0
 15 14  2  0
 16 15  1  0
 17 16  2  0
 17 12  1  0
  1 18  1  0
  2 19  1  0
  2 20  1  0
  3 21  1  0
  3 22  1  0
  4 23  1  0
  4 24  1  0
 11 25  1  0
 11 26  1  0
 12 27  1  0
 14 28  1  0
 16 29  1  0
M  ISO  8  18   5  19  13  20  13  21  13  22  13  23  13  24  13  25   8
M  ISO  4  26   8  27  14  28  14  29  14
M  END
>  <minimizedAffinity>  (1) 
-4.18038702

>  <minimizedRMSD>  (1) 
0.740373909

$$$$
