
     RDKit          3D

 33 35  0  0  1  0  0  0  0  0999 V2000
   40.1440   23.7150   35.7690 N   0  0  0  0  0  0  0  0  0  0  0  0
   41.2270   23.1020   36.5000 C   0  0  0  0  0  0  0  0  0  0  0  0
   40.6080   22.3130   37.6230 C   0  0  0  0  0  0  0  0  0  0  0  0
   39.3290   23.1150   37.8550 C   0  0  0  0  0  0  0  0  0  0  0  0
   38.9250   23.3430   36.3990 C   0  0  2  0  0  0  0  0  0  0  0  0
   38.4320   22.0200   35.8450 C   0  0  0  0  0  0  0  0  0  0  0  0
   37.1360   21.8190   35.2530 C   0  0  0  0  0  0  0  0  0  0  0  0
   38.3020   21.9940   34.3180 C   0  0  0  0  0  0  0  0  0  0  0  0
   37.9370   24.2420   36.1580 O   0  0  0  0  0  0  0  0  0  0  0  0
   38.5500   25.4570   35.9400 C   0  0  0  0  0  0  0  0  0  0  0  0
   37.5650   25.5450   33.6870 C   0  0  0  0  0  0  0  0  0  0  0  0
   37.7920   26.1960   34.9190 C   0  0  0  0  0  0  0  0  0  0  0  0
   37.3360   27.4690   35.0670 C   0  0  0  0  0  0  0  0  0  0  0  0
   36.6740   28.0740   34.0190 N   0  0  0  0  0  0  0  0  0  0  0  0
   36.4820   27.4180   32.8690 C   0  0  0  0  0  0  0  0  0  0  0  0
   36.9070   26.1600   32.6590 N   0  0  0  0  0  0  0  0  0  0  0  0
   40.1489   23.3841   34.7936 H   0  0  0  0  0  0  0  0  0  0  0  0
   41.7986   22.4339   35.8390 H   0  0  0  0  0  0  0  0  0  0  0  0
   41.9187   23.8635   36.8895 H   0  0  0  0  0  0  0  0  0  0  0  0
   40.3892   21.2784   37.3199 H   0  0  0  0  0  0  0  0  0  0  0  0
   41.2469   22.2020   38.5116 H   0  0  0  0  0  0  0  0  0  0  0  0
   38.5736   22.5368   38.4073 H   0  0  0  0  0  0  0  0  0  0  0  0
   39.4437   24.0245   38.4629 H   0  0  0  0  0  0  0  0  0  0  0  0
   38.9413   21.4682   36.6488 H   0  0  0  0  0  0  0  0  0  0  0  0
   36.6490   20.8360   35.3346 H   0  0  0  0  0  0  0  0  0  0  0  0
   36.1636   22.3219   35.3601 H   0  0  0  0  0  0  0  0  0  0  0  0
   38.6869   21.1420   33.7383 H   0  0  0  0  0  0  0  0  0  0  0  0
   38.5622   22.6623   33.4839 H   0  0  0  0  0  0  0  0  0  0  0  0
   38.5688   26.0344   36.8761 H   0  0  0  0  0  0  0  0  0  0  0  0
   39.5823   25.2974   35.5953 H   0  0  0  0  0  0  0  0  0  0  0  0
   37.9274   24.5154   33.5508 H   0  0  0  0  0  0  0  0  0  0  0  0
   37.4934   28.0099   36.0118 H   0  0  0  0  0  0  0  0  0  0  0  0
   35.9503   27.9332   32.0554 H   0  0  0  0  0  0  0  0  0  0  0  0
  1  5  1  0
  1  2  1  0
  2  3  1  0
  3  4  1  0
  5  9  1  1
  5  4  1  0
  6  5  1  0
  7  6  1  0
  8  7  1  0
  8  6  1  0
 10  9  1  0
 11 12  2  0
 12 13  1  0
 12 10  1  0
 14 13  2  0
 15 14  1  0
 16 15  2  0
 16 11  1  0
  1 17  1  0
  2 18  1  0
  2 19  1  0
  3 20  1  0
  3 21  1  0
  4 22  1  0
  4 23  1  0
  6 24  1  0
  7 25  1  0
  7 26  1  0
  8 27  1  0
  8 28  1  0
 10 29  1  0
 10 30  1  0
 11 31  1  0
 13 32  1  0
 15 33  1  0
M  ISO  8  17   5  18  13  19  13  20  13  21  13  22  13  23  13  24  13
M  ISO  8  25  13  26  13  27  13  28  13  29   8  30   8  31  14  32  14
M  ISO  1  33  14
M  END
>  <minimizedAffinity>  (1) 
-3.95891857

>  <minimizedRMSD>  (1) 
0.542526126

$$$$
