
     RDKit          3D

 51 54  0  0  1  0  0  0  0  0999 V2000
   39.9260   27.4840   31.8960 C   0  0  0  0  0  0  0  0  0  0  0  0
   41.2220   27.1560   31.1580 C   0  0  1  0  0  0  0  0  0  0  0  0
   41.7140   28.3250   30.3720 C   0  0  0  0  0  0  0  0  0  0  0  0
   42.8510   29.0580   30.9720 C   0  0  0  0  0  0  0  0  0  0  0  0
   43.8050   28.3080   31.8190 C   0  0  0  0  0  0  0  0  0  0  0  0
   43.1020   27.4120   32.7880 C   0  0  0  0  0  0  0  0  0  0  0  0
   42.2010   26.4920   32.0380 C   0  0  2  0  0  0  0  0  0  0  0  0
   43.0170   25.4210   31.4270 C   0  0  0  0  0  0  0  0  0  0  0  0
   42.7060   24.9750   30.1350 C   0  0  0  0  0  0  0  0  0  0  0  0
   43.4260   23.9740   29.4720 C   0  0  0  0  0  0  0  0  0  0  0  0
   44.4880   23.3930   30.1100 C   0  0  0  0  0  0  0  0  0  0  0  0
   44.8200   23.8050   31.3790 C   0  0  0  0  0  0  0  0  0  0  0  0
   44.0870   24.7890   31.9880 C   0  0  0  0  0  0  0  0  0  0  0  0
   38.4920   24.5950   33.7930 N   0  0  0  0  0  0  0  0  0  0  0  0
   39.1940   25.7170   33.5710 C   0  0  0  0  0  0  0  0  0  0  0  0
   39.1950   26.2560   32.2880 C   0  0  0  0  0  0  0  0  0  0  0  0
   38.4670   25.6070   31.2890 C   0  0  0  0  0  0  0  0  0  0  0  0
   38.3950   25.9990   30.0980 O   0  0  0  0  0  0  0  0  0  0  0  0
   37.7660   24.4680   31.5570 N   0  0  0  0  0  0  0  0  0  0  0  0
   37.7970   23.9920   32.8030 C   0  0  0  0  0  0  0  0  0  0  0  0
   37.1580   22.9470   33.0580 O   0  0  0  0  0  0  0  0  0  0  0  0
   37.8200   24.8040   36.0980 C   0  0  0  0  0  0  0  0  0  0  0  0
   38.5530   24.1270   35.1180 C   0  0  0  0  0  0  0  0  0  0  0  0
   39.3040   23.0240   35.5190 C   0  0  0  0  0  0  0  0  0  0  0  0
   39.2920   22.6560   36.8370 N   0  0  0  0  0  0  0  0  0  0  0  0
   38.5720   23.3320   37.7530 C   0  0  0  0  0  0  0  0  0  0  0  0
   37.8440   24.3990   37.3690 N   0  0  0  0  0  0  0  0  0  0  0  0
   38.7140   22.7680   39.0460 N   0  0  0  0  0  0  0  0  0  0  0  0
   39.2833   28.0871   31.2378 H   0  0  0  0  0  0  0  0  0  0  0  0
   40.1822   28.0384   32.8109 H   0  0  0  0  0  0  0  0  0  0  0  0
   41.0206   26.3952   30.3895 H   0  0  0  0  0  0  0  0  0  0  0  0
   40.8787   29.0311   30.2544 H   0  0  0  0  0  0  0  0  0  0  0  0
   42.0840   27.9169   29.4199 H   0  0  0  0  0  0  0  0  0  0  0  0
   43.4272   29.4977   30.1445 H   0  0  0  0  0  0  0  0  0  0  0  0
   42.3779   29.7702   31.6640 H   0  0  0  0  0  0  0  0  0  0  0  0
   44.4505   27.6959   31.1720 H   0  0  0  0  0  0  0  0  0  0  0  0
   44.3970   29.0355   32.3937 H   0  0  0  0  0  0  0  0  0  0  0  0
   43.8428   26.8245   33.3502 H   0  0  0  0  0  0  0  0  0  0  0  0
   42.5107   28.0179   33.4904 H   0  0  0  0  0  0  0  0  0  0  0  0
   41.5115   26.0112   32.7476 H   0  0  0  0  0  0  0  0  0  0  0  0
   41.8525   25.4351   29.6155 H   0  0  0  0  0  0  0  0  0  0  0  0
   43.1431   23.6602   28.4564 H   0  0  0  0  0  0  0  0  0  0  0  0
   45.0706   22.6038   29.6123 H   0  0  0  0  0  0  0  0  0  0  0  0
   45.6712   23.3461   31.9033 H   0  0  0  0  0  0  0  0  0  0  0  0
   44.3831   25.0912   33.0034 H   0  0  0  0  0  0  0  0  0  0  0  0
   39.7557   26.1995   34.3844 H   0  0  0  0  0  0  0  0  0  0  0  0
   37.2289   23.9898   30.8196 H   0  0  0  0  0  0  0  0  0  0  0  0
   37.2169   25.6802   35.8177 H   0  0  0  0  0  0  0  0  0  0  0  0
   39.8979   22.4573   34.7868 H   0  0  0  0  0  0  0  0  0  0  0  0
   38.2178   23.1844   39.8468 H   0  0  0  0  0  0  0  0  0  0  0  0
   39.3134   21.9419   39.1845 H   0  0  0  0  0  0  0  0  0  0  0  0
  1 16  1  0
  2  1  1  0
  2  7  1  0
  3  4  1  0
  3  2  1  0
  4  5  1  0
  5  6  1  0
  7  6  1  0
  8 13  1  0
  8  7  1  0
  9  8  2  0
 10 11  2  0
 10  9  1  0
 11 12  1  0
 12 13  2  0
 14 23  1  0
 15 14  1  0
 16 15  2  0
 17 19  1  0
 17 16  1  0
 18 17  2  0
 19 20  1  0
 20 21  2  0
 20 14  1  0
 22 27  2  0
 23 24  2  0
 23 22  1  0
 24 25  1  0
 25 26  2  0
 26 28  1  0
 27 26  1  0
  1 29  1  0
  1 30  1  0
  2 31  1  6
  3 32  1  0
  3 33  1  0
  4 34  1  0
  4 35  1  0
  5 36  1  0
  5 37  1  0
  6 38  1  0
  6 39  1  0
  7 40  1  1
  9 41  1  0
 10 42  1  0
 11 43  1  0
 12 44  1  0
 13 45  1  0
 15 46  1  0
 19 47  1  0
 22 48  1  0
 24 49  1  0
 28 50  1  0
 28 51  1  0
M  ISO  8  29   8  30   8  31  13  32  13  33  13  34  13  35  13  36  13
M  ISO  8  37  13  38  13  39  13  40  13  41  14  42  14  43  14  44  14
M  ISO  5  45  14  46  14  47   9  48  14  49  14
M  END
>  <minimizedAffinity>  (1) 
-4.43857718

>  <minimizedRMSD>  (1) 
0.362521827

$$$$
