
     RDKit          3D

 28 29  0  0  1  0  0  0  0  0999 V2000
   40.0880   23.8180   35.7850 N   0  0  0  0  0  0  0  0  0  0  0  0
   41.1650   23.1250   36.4590 C   0  0  0  0  0  0  0  0  0  0  0  0
   40.5110   22.2450   37.5110 C   0  0  0  0  0  0  0  0  0  0  0  0
   39.2700   23.0940   37.8310 C   0  0  0  0  0  0  0  0  0  0  0  0
   38.8790   23.4560   36.4110 C   0  0  2  0  0  0  0  0  0  0  0  0
   38.3530   22.1600   35.8290 C   0  0  0  0  0  0  0  0  0  0  0  0
   37.1580   21.9160   35.9400 O   0  0  0  0  0  0  0  0  0  0  0  0
   37.8980   24.3770   36.2260 O   0  0  0  0  0  0  0  0  0  0  0  0
   38.5590   25.5460   35.8770 C   0  0  0  0  0  0  0  0  0  0  0  0
   37.5540   25.5470   33.6300 C   0  0  0  0  0  0  0  0  0  0  0  0
   37.7830   26.2430   34.8400 C   0  0  0  0  0  0  0  0  0  0  0  0
   37.3130   27.5160   34.9560 C   0  0  0  0  0  0  0  0  0  0  0  0
   36.6320   28.0740   33.8960 N   0  0  0  0  0  0  0  0  0  0  0  0
   36.4360   27.3810   32.7700 C   0  0  0  0  0  0  0  0  0  0  0  0
   36.8780   26.1220   32.5980 N   0  0  0  0  0  0  0  0  0  0  0  0
   40.0633   23.5444   34.7923 H   0  0  0  0  0  0  0  0  0  0  0  0
   41.7286   22.5086   35.7432 H   0  0  0  0  0  0  0  0  0  0  0  0
   41.8742   23.8326   36.9132 H   0  0  0  0  0  0  0  0  0  0  0  0
   40.2385   21.2589   37.1070 H   0  0  0  0  0  0  0  0  0  0  0  0
   41.1461   22.0061   38.3768 H   0  0  0  0  0  0  0  0  0  0  0  0
   38.4887   22.5115   38.3411 H   0  0  0  0  0  0  0  0  0  0  0  0
   39.4315   23.9406   38.5145 H   0  0  0  0  0  0  0  0  0  0  0  0
   39.0274   21.4559   35.3196 H   0  0  0  0  0  0  0  0  0  0  0  0
   38.6569   26.1926   36.7615 H   0  0  0  0  0  0  0  0  0  0  0  0
   39.5614   25.3059   35.4929 H   0  0  0  0  0  0  0  0  0  0  0  0
   37.9303   24.5191   33.5208 H   0  0  0  0  0  0  0  0  0  0  0  0
   37.4744   28.0894   35.8808 H   0  0  0  0  0  0  0  0  0  0  0  0
   35.8882   27.8621   31.9463 H   0  0  0  0  0  0  0  0  0  0  0  0
  1  5  1  0
  1  2  1  0
  2  3  1  0
  3  4  1  0
  5  6  1  0
  5  4  1  0
  6  7  2  0
  5  8  1  1
  9  8  1  0
 10 11  2  0
 11 12  1  0
 11  9  1  0
 13 12  2  0
 14 13  1  0
 15 14  2  0
 15 10  1  0
  1 16  1  0
  2 17  1  0
  2 18  1  0
  3 19  1  0
  3 20  1  0
  4 21  1  0
  4 22  1  0
  6 23  1  0
  9 24  1  0
  9 25  1  0
 10 26  1  0
 12 27  1  0
 14 28  1  0
M  ISO  8  16   5  17  13  18  13  19  13  20  13  21  13  22  13  23   6
M  ISO  5  24   8  25   8  26  14  27  14  28  14
M  END
>  <minimizedAffinity>  (1) 
-3.88321161

>  <minimizedRMSD>  (1) 
0.533988059

$$$$
