
     RDKit          3D

 42 45  0  0  1  0  0  0  0  0999 V2000
   40.1430   23.5990   36.1210 N   0  0  0  0  0  0  0  0  0  0  0  0
   39.4820   23.0010   37.2210 C   0  0  0  0  0  0  0  0  0  0  0  0
   37.9940   23.0100   36.8320 C   0  0  0  0  0  0  0  0  0  0  0  0
   38.0510   24.2660   35.9860 C   0  0  0  0  0  0  0  0  0  0  0  0
   39.2960   23.8670   35.0940 C   0  0  2  0  0  0  0  0  0  0  0  0
   38.6860   22.8420   34.2450 C   0  0  0  0  0  0  0  0  0  0  0  0
   37.3700   22.6410   33.8920 C   0  0  0  0  0  0  0  0  0  0  0  0
   36.8720   21.6920   33.0380 C   0  0  0  0  0  0  0  0  0  0  0  0
   37.7320   20.8150   32.4360 C   0  0  0  0  0  0  0  0  0  0  0  0
   39.0740   20.9330   32.7260 C   0  0  0  0  0  0  0  0  0  0  0  0
   39.8940   20.0120   32.1120 C   0  0  0  0  0  0  0  0  0  0  0  0
   41.2460   20.0440   32.3670 C   0  0  0  0  0  0  0  0  0  0  0  0
   41.7480   20.9900   33.2260 C   0  0  0  0  0  0  0  0  0  0  0  0
   40.8680   21.8640   33.7910 C   0  0  0  0  0  0  0  0  0  0  0  0
   39.5010   21.9320   33.6120 C   0  0  0  0  0  0  0  0  0  0  0  0
   39.6160   24.9520   34.2900 O   0  0  0  0  0  0  0  0  0  0  0  0
   40.2700   25.8750   35.0060 C   0  0  0  0  0  0  0  0  0  0  0  0
   42.7000   25.8960   34.6160 C   0  0  0  0  0  0  0  0  0  0  0  0
   41.4560   26.4030   34.3240 C   0  0  0  0  0  0  0  0  0  0  0  0
   41.3510   27.3670   33.3340 C   0  0  0  0  0  0  0  0  0  0  0  0
   42.4960   27.7740   32.6840 N   0  0  0  0  0  0  0  0  0  0  0  0
   43.6790   27.2450   33.0110 C   0  0  0  0  0  0  0  0  0  0  0  0
   43.8260   26.3110   33.9630 N   0  0  0  0  0  0  0  0  0  0  0  0
   40.5743   24.4807   36.4332 H   0  0  0  0  0  0  0  0  0  0  0  0
   39.8370   21.9712   37.3741 H   0  0  0  0  0  0  0  0  0  0  0  0
   39.6700   23.5380   38.1625 H   0  0  0  0  0  0  0  0  0  0  0  0
   37.7021   22.1217   36.2526 H   0  0  0  0  0  0  0  0  0  0  0  0
   37.2632   22.9948   37.6540 H   0  0  0  0  0  0  0  0  0  0  0  0
   37.1383   24.4091   35.3890 H   0  0  0  0  0  0  0  0  0  0  0  0
   38.1317   25.2164   36.5339 H   0  0  0  0  0  0  0  0  0  0  0  0
   36.6344   23.3200   34.3478 H   0  0  0  0  0  0  0  0  0  0  0  0
   35.7917   21.6361   32.8386 H   0  0  0  0  0  0  0  0  0  0  0  0
   37.3651   20.0423   31.7444 H   0  0  0  0  0  0  0  0  0  0  0  0
   39.4737   19.2609   31.4270 H   0  0  0  0  0  0  0  0  0  0  0  0
   41.9185   19.3180   31.8868 H   0  0  0  0  0  0  0  0  0  0  0  0
   42.8236   21.0408   33.4506 H   0  0  0  0  0  0  0  0  0  0  0  0
   41.3013   22.6083   34.4753 H   0  0  0  0  0  0  0  0  0  0  0  0
   39.5835   26.7100   35.2100 H   0  0  0  0  0  0  0  0  0  0  0  0
   40.6147   25.3876   35.9299 H   0  0  0  0  0  0  0  0  0  0  0  0
   42.7918   25.1311   35.4012 H   0  0  0  0  0  0  0  0  0  0  0  0
   40.3736   27.7985   33.0723 H   0  0  0  0  0  0  0  0  0  0  0  0
   44.5744   27.5917   32.4743 H   0  0  0  0  0  0  0  0  0  0  0  0
  1  2  1  0
  3  2  1  0
  4  3  1  0
  5 16  1  6
  5  4  1  0
  5  1  1  0
  6  5  1  0
  7  6  2  0
  8  7  1  0
  9 10  1  0
  9  8  2  0
 10 15  2  0
 11 12  2  0
 11 10  1  0
 12 13  1  0
 13 14  2  0
 15 14  1  0
 15  6  1  0
 16 17  1  0
 19 18  2  0
 19 17  1  0
 20 19  1  0
 21 22  1  0
 21 20  2  0
 22 23  2  0
 23 18  1  0
  1 24  1  0
  2 25  1  0
  2 26  1  0
  3 27  1  0
  3 28  1  0
  4 29  1  0
  4 30  1  0
  7 31  1  0
  8 32  1  0
  9 33  1  0
 11 34  1  0
 12 35  1  0
 13 36  1  0
 14 37  1  0
 17 38  1  0
 17 39  1  0
 18 40  1  0
 20 41  1  0
 22 42  1  0
M  ISO  8  24   5  25  13  26  13  27  13  28  13  29  13  30  13  31  14
M  ISO  8  32  14  33  14  34  14  35  14  36  14  37  14  38   8  39   8
M  ISO  3  40  14  41  14  42  14
M  END
>  <minimizedAffinity>  (1) 
-3.75470042

>  <minimizedRMSD>  (1) 
4.36927986

$$$$
