
     RDKit          3D

 32 34  0  0  1  0  0  0  0  0999 V2000
   39.5900   23.6340   35.8540 N   0  0  0  0  0  0  0  0  0  0  0  0
   38.5590   23.1650   36.7550 C   0  0  0  0  0  0  0  0  0  0  0  0
   37.5130   24.2670   36.8200 C   0  0  0  0  0  0  0  0  0  0  0  0
   38.4190   25.4930   36.5990 C   0  0  0  0  0  0  0  0  0  0  0  0
   39.2470   24.9440   35.4430 C   0  0  2  0  0  0  0  0  0  0  0  0
   38.3300   24.9460   34.2760 N   0  0  0  0  0  0  0  0  0  0  0  0
   37.5070   25.9200   33.8230 C   0  0  0  0  0  0  0  0  0  0  0  0
   36.8620   25.5000   32.7440 N   0  0  0  0  0  0  0  0  0  0  0  0
   37.2570   24.2620   32.4900 C   0  0  0  0  0  0  0  0  0  0  0  0
   38.1700   23.9270   33.4490 N   0  0  0  0  0  0  0  0  0  0  0  0
   40.3260   25.6640   35.0470 O   0  0  0  0  0  0  0  0  0  0  0  0
   41.3530   24.7540   34.8870 C   0  0  0  0  0  0  0  0  0  0  0  0
   42.8520   26.5060   34.0300 C   0  0  0  0  0  0  0  0  0  0  0  0
   42.6400   25.4600   34.9560 C   0  0  0  0  0  0  0  0  0  0  0  0
   43.6520   25.1460   35.8170 C   0  0  0  0  0  0  0  0  0  0  0  0
   44.8320   25.8490   35.7560 N   0  0  0  0  0  0  0  0  0  0  0  0
   44.9910   26.8330   34.8620 C   0  0  0  0  0  0  0  0  0  0  0  0
   44.0340   27.1890   33.9890 N   0  0  0  0  0  0  0  0  0  0  0  0
   40.4989   23.6461   36.3385 H   0  0  0  0  0  0  0  0  0  0  0  0
   38.1108   22.2370   36.3704 H   0  0  0  0  0  0  0  0  0  0  0  0
   38.9696   22.9451   37.7515 H   0  0  0  0  0  0  0  0  0  0  0  0
   36.7599   24.1650   36.0248 H   0  0  0  0  0  0  0  0  0  0  0  0
   36.9134   24.2888   37.7419 H   0  0  0  0  0  0  0  0  0  0  0  0
   37.8462   26.3874   36.3126 H   0  0  0  0  0  0  0  0  0  0  0  0
   38.9861   25.8369   37.4766 H   0  0  0  0  0  0  0  0  0  0  0  0
   37.3906   26.9128   34.2821 H   0  0  0  0  0  0  0  0  0  0  0  0
   36.9143   23.6235   31.6624 H   0  0  0  0  0  0  0  0  0  0  0  0
   41.2569   24.2591   33.9093 H   0  0  0  0  0  0  0  0  0  0  0  0
   41.3036   23.9974   35.6840 H   0  0  0  0  0  0  0  0  0  0  0  0
   42.0490   26.7756   33.3282 H   0  0  0  0  0  0  0  0  0  0  0  0
   43.5245   24.3381   36.5526 H   0  0  0  0  0  0  0  0  0  0  0  0
   45.9484   27.3743   34.8414 H   0  0  0  0  0  0  0  0  0  0  0  0
  1  2  1  0
  2  3  1  0
  4  3  1  0
  5 11  1  6
  5  1  1  0
  5  4  1  0
  6  5  1  0
  7  6  1  0
  8  7  2  0
  9  8  1  0
  9 10  2  0
 10  6  1  0
 12 14  1  0
 12 11  1  0
 13 14  2  0
 14 15  1  0
 16 15  2  0
 17 16  1  0
 18 13  1  0
 18 17  2  0
  1 19  1  0
  2 20  1  0
  2 21  1  0
  3 22  1  0
  3 23  1  0
  4 24  1  0
  4 25  1  0
  7 26  1  0
  9 27  1  0
 12 28  1  0
 12 29  1  0
 13 30  1  0
 15 31  1  0
 17 32  1  0
M  ISO  8  19   5  20  13  21  13  22  13  23  13  24  13  25  13  26  14
M  ISO  6  27  14  28   8  29   8  30  14  31  14  32  14
M  END
>  <minimizedAffinity>  (1) 
-3.67109728

>  <minimizedRMSD>  (1) 
5.16843081

$$$$
