
     RDKit          3D

 40 42  0  0  1  0  0  0  0  0999 V2000
   37.2600   23.4420   37.1640 N   0  0  0  0  0  0  0  0  0  0  0  0
   37.8340   23.3550   38.4910 C   0  0  0  0  0  0  0  0  0  0  0  0
   39.3200   23.5910   38.3270 C   0  0  0  0  0  0  0  0  0  0  0  0
   39.5340   23.0170   36.9010 C   0  0  0  0  0  0  0  0  0  0  0  0
   38.3310   23.6150   36.2360 C   0  0  2  0  0  0  0  0  0  0  0  0
   38.6180   25.1010   36.1040 C   0  0  0  0  0  0  0  0  0  0  0  0
   39.6030   25.4330   35.1790 C   0  0  0  0  0  0  0  0  0  0  0  0
   39.7540   26.8250   35.1710 C   0  0  0  0  0  0  0  0  0  0  0  0
   38.8640   27.2830   36.0850 N   0  0  0  0  0  0  0  0  0  0  0  0
   38.2080   26.2800   36.6240 N   0  0  0  0  0  0  0  0  0  0  0  0
   37.9360   23.2260   35.0030 O   0  0  0  0  0  0  0  0  0  0  0  0
   37.4380   21.9360   35.1750 C   0  0  0  0  0  0  0  0  0  0  0  0
   38.0390   21.4660   32.8310 C   0  0  0  0  0  0  0  0  0  0  0  0
   37.0820   21.3930   33.8780 C   0  0  0  0  0  0  0  0  0  0  0  0
   35.8450   20.8730   33.5940 C   0  0  0  0  0  0  0  0  0  0  0  0
   35.5870   20.4460   32.3030 N   0  0  0  0  0  0  0  0  0  0  0  0
   36.5160   20.5380   31.3650 C   0  0  0  0  0  0  0  0  0  0  0  0
   37.7450   21.0360   31.5800 N   0  0  0  0  0  0  0  0  0  0  0  0
   36.3010   20.1120   30.0090 N   0  0  0  0  0  0  0  0  0  0  0  0
   36.6040   18.7700   29.6530 C   0  0  0  0  0  0  0  0  0  0  0  0
   36.3300   17.7910   30.4440 N   0  0  0  0  0  0  0  0  0  0  0  0
   37.2240   18.4510   28.3920 N   0  0  0  0  0  0  0  0  0  0  0  0
   35.8850   17.8870   31.3660 H   0  0  0  0  0  0  0  0  0  0  0  0
   36.7451   22.5766   36.9475 H   0  0  0  0  0  0  0  0  0  0  0  0
   37.3964   24.1225   39.1464 H   0  0  0  0  0  0  0  0  0  0  0  0
   37.6328   22.3760   38.9504 H   0  0  0  0  0  0  0  0  0  0  0  0
   39.5705   24.6609   38.3773 H   0  0  0  0  0  0  0  0  0  0  0  0
   39.9482   23.1354   39.1066 H   0  0  0  0  0  0  0  0  0  0  0  0
   40.4739   23.3680   36.4500 H   0  0  0  0  0  0  0  0  0  0  0  0
   39.6205   21.9224   36.8354 H   0  0  0  0  0  0  0  0  0  0  0  0
   40.1679   24.7217   34.5585 H   0  0  0  0  0  0  0  0  0  0  0  0
   40.4458   27.4189   34.5556 H   0  0  0  0  0  0  0  0  0  0  0  0
   38.7222   28.2750   36.3230 H   0  0  0  0  0  0  0  0  0  0  0  0
   38.2066   21.3027   35.6421 H   0  0  0  0  0  0  0  0  0  0  0  0
   36.5504   21.9626   35.8242 H   0  0  0  0  0  0  0  0  0  0  0  0
   39.0370   21.8791   33.0394 H   0  0  0  0  0  0  0  0  0  0  0  0
   35.0746   20.7970   34.3755 H   0  0  0  0  0  0  0  0  0  0  0  0
   35.9331   20.7692   29.3064 H   0  0  0  0  0  0  0  0  0  0  0  0
   37.4346   17.4710   28.1550 H   0  0  0  0  0  0  0  0  0  0  0  0
   37.4566   19.2030   27.7277 H   0  0  0  0  0  0  0  0  0  0  0  0
  1  2  1  0
  3  2  1  0
  4  3  1  0
  5 11  1  6
  5  4  1  0
  5  1  1  0
  6  5  1  0
  6 10  2  0
  7  6  1  0
  8  7  2  0
  8  9  1  0
  9 10  1  0
 11 12  1  0
 13 14  2  0
 14 12  1  0
 15 14  1  0
 16 15  2  0
 17 18  2  0
 17 16  1  0
 18 13  1  0
 19 17  1  0
 20 19  1  0
 20 21  2  0
 21 23  1  0
 22 20  1  0
  1 24  1  0
  2 25  1  0
  2 26  1  0
  3 27  1  0
  3 28  1  0
  4 29  1  0
  4 30  1  0
  7 31  1  0
  8 32  1  0
  9 33  1  0
 12 34  1  0
 12 35  1  0
 13 36  1  0
 15 37  1  0
 19 38  1  0
 22 39  1  0
 22 40  1  0
M  ISO  8  24   5  25  13  26  13  27  13  28  13  29  13  30  13  31  14
M  ISO  6  32  14  33   9  34   8  35   8  36  14  37  14
M  END
>  <minimizedAffinity>  (1) 
-5.309793

>  <minimizedRMSD>  (1) 
1.08010828

$$$$
