
     RDKit          3D

 42 44  0  0  1  0  0  0  0  0999 V2000
   37.2580   23.4420   37.1060 N   0  0  0  0  0  0  0  0  0  0  0  0
   37.8510   23.3300   38.4250 C   0  0  0  0  0  0  0  0  0  0  0  0
   39.3340   23.5780   38.2470 C   0  0  0  0  0  0  0  0  0  0  0  0
   39.5270   23.0230   36.8070 C   0  0  0  0  0  0  0  0  0  0  0  0
   38.3060   23.6400   36.1730 C   0  0  2  0  0  0  0  0  0  0  0  0
   38.6130   25.1280   36.0570 C   0  0  0  0  0  0  0  0  0  0  0  0
   39.5990   25.4670   35.1350 C   0  0  0  0  0  0  0  0  0  0  0  0
   39.7560   26.8610   35.1540 C   0  0  0  0  0  0  0  0  0  0  0  0
   38.8660   27.3080   36.0800 N   0  0  0  0  0  0  0  0  0  0  0  0
   38.2150   26.2980   36.5920 N   0  0  0  0  0  0  0  0  0  0  0  0
   37.9220   23.2650   34.9300 O   0  0  0  0  0  0  0  0  0  0  0  0
   37.3740   21.9970   35.0850 C   0  0  0  0  0  0  0  0  0  0  0  0
   38.4100   21.2560   32.9770 C   0  0  0  0  0  0  0  0  0  0  0  0
   37.2360   21.3790   33.7680 C   0  0  0  0  0  0  0  0  0  0  0  0
   36.0430   20.9470   33.2640 C   0  0  0  0  0  0  0  0  0  0  0  0
   36.0320   20.4050   31.9930 N   0  0  0  0  0  0  0  0  0  0  0  0
   37.1700   20.3080   31.2770 C   0  0  0  0  0  0  0  0  0  0  0  0
   38.3570   20.7150   31.7280 N   0  0  0  0  0  0  0  0  0  0  0  0
   37.0780   19.7090   29.9060 C   0  0  0  0  0  0  0  0  0  0  0  0
   38.3110   19.8930   29.0890 C   0  0  0  0  0  0  0  0  0  0  0  0
   36.7060   18.2500   30.0960 C   0  0  0  0  0  0  0  0  0  0  0  0
   36.7452   22.5782   36.8783 H   0  0  0  0  0  0  0  0  0  0  0  0
   37.4179   24.0809   39.1022 H   0  0  0  0  0  0  0  0  0  0  0  0
   37.6614   22.3401   38.8657 H   0  0  0  0  0  0  0  0  0  0  0  0
   39.5796   24.6485   38.3087 H   0  0  0  0  0  0  0  0  0  0  0  0
   39.9768   23.1179   39.0119 H   0  0  0  0  0  0  0  0  0  0  0  0
   40.4599   23.3792   36.3457 H   0  0  0  0  0  0  0  0  0  0  0  0
   39.6130   21.9298   36.7207 H   0  0  0  0  0  0  0  0  0  0  0  0
   40.1585   24.7635   34.5010 H   0  0  0  0  0  0  0  0  0  0  0  0
   40.4501   27.4633   34.5495 H   0  0  0  0  0  0  0  0  0  0  0  0
   38.7262   28.2951   36.3388 H   0  0  0  0  0  0  0  0  0  0  0  0
   38.0352   21.3829   35.7140 H   0  0  0  0  0  0  0  0  0  0  0  0
   36.3883   22.0724   35.5674 H   0  0  0  0  0  0  0  0  0  0  0  0
   39.3739   21.6021   33.3784 H   0  0  0  0  0  0  0  0  0  0  0  0
   35.1173   21.0281   33.8527 H   0  0  0  0  0  0  0  0  0  0  0  0
   36.3093   20.2326   29.3186 H   0  0  0  0  0  0  0  0  0  0  0  0
   39.1766   20.0222   29.7554 H   0  0  0  0  0  0  0  0  0  0  0  0
   38.4658   19.0080   28.4543 H   0  0  0  0  0  0  0  0  0  0  0  0
   38.2006   20.7846   28.4543 H   0  0  0  0  0  0  0  0  0  0  0  0
   36.6482   18.0233   31.1708 H   0  0  0  0  0  0  0  0  0  0  0  0
   35.7298   18.0565   29.6274 H   0  0  0  0  0  0  0  0  0  0  0  0
   37.4704   17.6127   29.6274 H   0  0  0  0  0  0  0  0  0  0  0  0
  1  2  1  0
  3  2  1  0
  4  3  1  0
  5 11  1  6
  5  4  1  0
  5  1  1  0
  6  5  1  0
  6 10  2  0
  7  8  2  0
  7  6  1  0
  8  9  1  0
  9 10  1  0
 11 12  1  0
 13 14  2  0
 14 12  1  0
 15 14  1  0
 16 15  2  0
 17 18  2  0
 17 16  1  0
 18 13  1  0
 19 21  1  0
 19 17  1  0
 20 19  1  0
  1 22  1  0
  2 23  1  0
  2 24  1  0
  3 25  1  0
  3 26  1  0
  4 27  1  0
  4 28  1  0
  7 29  1  0
  8 30  1  0
  9 31  1  0
 12 32  1  0
 12 33  1  0
 13 34  1  0
 15 35  1  0
 19 36  1  0
 20 37  1  0
 20 38  1  0
 20 39  1  0
 21 40  1  0
 21 41  1  0
 21 42  1  0
M  ISO  8  22   5  23  13  24  13  25  13  26  13  27  13  28  13  29  14
M  ISO  8  30  14  31   9  32   8  33   8  34  14  35  14  36   8  37   8
M  ISO  5  38   8  39   8  40   8  41   8  42   8
M  END
>  <minimizedAffinity>  (1) 
-4.76259708

>  <minimizedRMSD>  (1) 
1.48337233

$$$$
