
     RDKit          3D

 39 41  0  0  1  0  0  0  0  0999 V2000
   37.2630   23.4410   37.2030 N   0  0  0  0  0  0  0  0  0  0  0  0
   37.8610   23.3620   38.5240 C   0  0  0  0  0  0  0  0  0  0  0  0
   39.3380   23.5890   38.3360 C   0  0  0  0  0  0  0  0  0  0  0  0
   39.5310   23.0020   36.9110 C   0  0  0  0  0  0  0  0  0  0  0  0
   38.3150   23.6060   36.2610 C   0  0  2  0  0  0  0  0  0  0  0  0
   38.6120   25.0890   36.1120 C   0  0  0  0  0  0  0  0  0  0  0  0
   39.6040   25.4020   35.1820 C   0  0  0  0  0  0  0  0  0  0  0  0
   39.7660   26.7990   35.1580 C   0  0  0  0  0  0  0  0  0  0  0  0
   38.8740   27.2690   36.0650 N   0  0  0  0  0  0  0  0  0  0  0  0
   38.2100   26.2760   36.6140 N   0  0  0  0  0  0  0  0  0  0  0  0
   37.9170   23.2020   35.0340 O   0  0  0  0  0  0  0  0  0  0  0  0
   37.3460   21.9550   35.2280 C   0  0  0  0  0  0  0  0  0  0  0  0
   38.0880   21.3280   32.9780 C   0  0  0  0  0  0  0  0  0  0  0  0
   37.0570   21.3570   33.9300 C   0  0  0  0  0  0  0  0  0  0  0  0
   35.8230   20.8570   33.6010 C   0  0  0  0  0  0  0  0  0  0  0  0
   35.6450   20.3440   32.3350 N   0  0  0  0  0  0  0  0  0  0  0  0
   36.6520   20.3320   31.4450 C   0  0  0  0  0  0  0  0  0  0  0  0
   37.8770   20.8110   31.7310 N   0  0  0  0  0  0  0  0  0  0  0  0
   36.4690   19.7770   30.0690 C   0  0  0  0  0  0  0  0  0  0  0  0
   36.8410   18.3050   30.0260 C   0  0  0  0  0  0  0  0  0  0  0  0
   36.7437   22.5748   37.0007 H   0  0  0  0  0  0  0  0  0  0  0  0
   37.4375   24.1365   39.1803 H   0  0  0  0  0  0  0  0  0  0  0  0
   37.6638   22.3870   38.9935 H   0  0  0  0  0  0  0  0  0  0  0  0
   39.5932   24.6583   38.3735 H   0  0  0  0  0  0  0  0  0  0  0  0
   39.9752   23.1365   39.1101 H   0  0  0  0  0  0  0  0  0  0  0  0
   40.4657   23.3451   36.4434 H   0  0  0  0  0  0  0  0  0  0  0  0
   39.6137   21.9068   36.8502 H   0  0  0  0  0  0  0  0  0  0  0  0
   40.1643   24.6789   34.5712 H   0  0  0  0  0  0  0  0  0  0  0  0
   40.4635   27.3825   34.5391 H   0  0  0  0  0  0  0  0  0  0  0  0
   38.7361   28.2642   36.2919 H   0  0  0  0  0  0  0  0  0  0  0  0
   38.0450   21.3118   35.7828 H   0  0  0  0  0  0  0  0  0  0  0  0
   36.4149   22.0587   35.8045 H   0  0  0  0  0  0  0  0  0  0  0  0
   39.0792   21.7269   33.2394 H   0  0  0  0  0  0  0  0  0  0  0  0
   34.9978   20.8654   34.3283 H   0  0  0  0  0  0  0  0  0  0  0  0
   35.4163   19.8916   29.7712 H   0  0  0  0  0  0  0  0  0  0  0  0
   37.1250   20.3263   29.3777 H   0  0  0  0  0  0  0  0  0  0  0  0
   36.9380   17.9212   31.0523 H   0  0  0  0  0  0  0  0  0  0  0  0
   36.0564   17.7438   29.4973 H   0  0  0  0  0  0  0  0  0  0  0  0
   37.7980   18.1839   29.4973 H   0  0  0  0  0  0  0  0  0  0  0  0
  1  2  1  0
  3  2  1  0
  4  3  1  0
  5 11  1  6
  5  4  1  0
  5  1  1  0
  6  5  1  0
  6 10  2  0
  7  6  1  0
  8  7  2  0
  8  9  1  0
  9 10  1  0
 11 12  1  0
 13 14  2  0
 14 12  1  0
 15 14  1  0
 16 15  2  0
 17 18  2  0
 17 16  1  0
 18 13  1  0
 19 17  1  0
 20 19  1  0
  1 21  1  0
  2 22  1  0
  2 23  1  0
  3 24  1  0
  3 25  1  0
  4 26  1  0
  4 27  1  0
  7 28  1  0
  8 29  1  0
  9 30  1  0
 12 31  1  0
 12 32  1  0
 13 33  1  0
 15 34  1  0
 19 35  1  0
 19 36  1  0
 20 37  1  0
 20 38  1  0
 20 39  1  0
M  ISO  8  21   5  22  13  23  13  24  13  25  13  26  13  27  13  28  14
M  ISO  8  29  14  30   9  31   8  32   8  33  14  34  14  35   8  36   8
M  ISO  3  37   8  38   8  39   8
M  END
>  <minimizedAffinity>  (1) 
-4.75983763

>  <minimizedRMSD>  (1) 
1.02721417

$$$$
