
     RDKit          3D

 36 38  0  0  1  0  0  0  0  0999 V2000
   37.2650   23.4430   37.1620 N   0  0  0  0  0  0  0  0  0  0  0  0
   37.8520   23.3500   38.4860 C   0  0  0  0  0  0  0  0  0  0  0  0
   39.3360   23.5890   38.3100 C   0  0  0  0  0  0  0  0  0  0  0  0
   39.5310   22.9940   36.8860 C   0  0  0  0  0  0  0  0  0  0  0  0
   38.3230   23.6060   36.2280 C   0  0  2  0  0  0  0  0  0  0  0  0
   38.6300   25.0930   36.0840 C   0  0  0  0  0  0  0  0  0  0  0  0
   39.6470   25.4000   35.1690 C   0  0  0  0  0  0  0  0  0  0  0  0
   39.8040   26.7990   35.1600 C   0  0  0  0  0  0  0  0  0  0  0  0
   38.8930   27.2670   36.0510 N   0  0  0  0  0  0  0  0  0  0  0  0
   38.2190   26.2750   36.5810 N   0  0  0  0  0  0  0  0  0  0  0  0
   37.9390   23.2090   34.9950 O   0  0  0  0  0  0  0  0  0  0  0  0
   37.3520   21.9670   35.1760 C   0  0  0  0  0  0  0  0  0  0  0  0
   38.1910   21.3150   32.9600 C   0  0  0  0  0  0  0  0  0  0  0  0
   37.1200   21.3620   33.8650 C   0  0  0  0  0  0  0  0  0  0  0  0
   35.9020   20.8670   33.4780 C   0  0  0  0  0  0  0  0  0  0  0  0
   35.7760   20.3430   32.2140 N   0  0  0  0  0  0  0  0  0  0  0  0
   36.8250   20.3150   31.3720 C   0  0  0  0  0  0  0  0  0  0  0  0
   38.0440   20.7940   31.7180 N   0  0  0  0  0  0  0  0  0  0  0  0
   36.4850   19.7090   30.0510 C   0  0  0  0  0  0  0  0  0  0  0  0
   36.7402   22.5824   36.9502 H   0  0  0  0  0  0  0  0  0  0  0  0
   37.4192   24.1135   39.1491 H   0  0  0  0  0  0  0  0  0  0  0  0
   37.6563   22.3684   38.9422 H   0  0  0  0  0  0  0  0  0  0  0  0
   39.5850   24.6599   38.3438 H   0  0  0  0  0  0  0  0  0  0  0  0
   39.9746   23.1492   39.0902 H   0  0  0  0  0  0  0  0  0  0  0  0
   40.4707   23.3274   36.4215 H   0  0  0  0  0  0  0  0  0  0  0  0
   39.6047   21.8979   36.8297 H   0  0  0  0  0  0  0  0  0  0  0  0
   40.2188   24.6783   34.5671 H   0  0  0  0  0  0  0  0  0  0  0  0
   40.5133   27.3872   34.5593 H   0  0  0  0  0  0  0  0  0  0  0  0
   38.7512   28.2615   36.2787 H   0  0  0  0  0  0  0  0  0  0  0  0
   38.0209   21.3242   35.7671 H   0  0  0  0  0  0  0  0  0  0  0  0
   36.3976   22.0782   35.7114 H   0  0  0  0  0  0  0  0  0  0  0  0
   39.1713   21.7097   33.2654 H   0  0  0  0  0  0  0  0  0  0  0  0
   35.0432   20.8887   34.1650 H   0  0  0  0  0  0  0  0  0  0  0  0
   35.9524   18.7597   30.2093 H   0  0  0  0  0  0  0  0  0  0  0  0
   35.8427   20.3998   29.4851 H   0  0  0  0  0  0  0  0  0  0  0  0
   37.4093   19.5209   29.4851 H   0  0  0  0  0  0  0  0  0  0  0  0
  1  2  1  0
  3  2  1  0
  4  3  1  0
  5 11  1  6
  5  4  1  0
  5  1  1  0
  6  5  1  0
  6 10  2  0
  7  6  1  0
  8  7  2  0
  8  9  1  0
  9 10  1  0
 11 12  1  0
 13 14  2  0
 14 12  1  0
 15 14  1  0
 16 15  2  0
 17 18  2  0
 17 16  1  0
 18 13  1  0
 19 17  1  0
  1 20  1  0
  2 21  1  0
  2 22  1  0
  3 23  1  0
  3 24  1  0
  4 25  1  0
  4 26  1  0
  7 27  1  0
  8 28  1  0
  9 29  1  0
 12 30  1  0
 12 31  1  0
 13 32  1  0
 15 33  1  0
 19 34  1  0
 19 35  1  0
 19 36  1  0
M  ISO  8  20   5  21  13  22  13  23  13  24  13  25  13  26  13  27  14
M  ISO  8  28  14  29   9  30   8  31   8  32  14  33  14  34   8  35   8
M  ISO  1  36   8
M  END
>  <minimizedAffinity>  (1) 
-4.74815845

>  <minimizedRMSD>  (1) 
0.944816411

$$$$
