
     RDKit          3D

 45 47  0  0  1  0  0  0  0  0999 V2000
   37.2670   23.4490   37.0710 N   0  0  0  0  0  0  0  0  0  0  0  0
   37.8420   23.3380   38.3910 C   0  0  0  0  0  0  0  0  0  0  0  0
   39.3230   23.5890   38.2280 C   0  0  0  0  0  0  0  0  0  0  0  0
   39.5300   23.0550   36.7810 C   0  0  0  0  0  0  0  0  0  0  0  0
   38.3170   23.6690   36.1400 C   0  0  2  0  0  0  0  0  0  0  0  0
   38.5980   25.1600   36.0520 C   0  0  0  0  0  0  0  0  0  0  0  0
   39.5760   25.5190   35.1230 C   0  0  0  0  0  0  0  0  0  0  0  0
   39.7220   26.9150   35.1660 C   0  0  0  0  0  0  0  0  0  0  0  0
   38.8390   27.3420   36.1050 N   0  0  0  0  0  0  0  0  0  0  0  0
   38.2020   26.3180   36.6040 N   0  0  0  0  0  0  0  0  0  0  0  0
   37.9330   23.3040   34.8970 O   0  0  0  0  0  0  0  0  0  0  0  0
   37.3420   22.0510   35.0450 C   0  0  0  0  0  0  0  0  0  0  0  0
   38.6980   21.3010   33.1270 C   0  0  0  0  0  0  0  0  0  0  0  0
   37.4330   21.3470   33.7700 C   0  0  0  0  0  0  0  0  0  0  0  0
   36.3540   20.7720   33.1450 C   0  0  0  0  0  0  0  0  0  0  0  0
   36.5310   20.1750   31.9160 N   0  0  0  0  0  0  0  0  0  0  0  0
   37.7590   20.1660   31.3570 C   0  0  0  0  0  0  0  0  0  0  0  0
   38.8530   20.7000   31.9030 N   0  0  0  0  0  0  0  0  0  0  0  0
   37.9370   19.5090   30.0130 C   0  0  0  0  0  0  0  0  0  0  0  0
   38.7900   20.4560   29.2010 C   0  0  0  0  0  0  0  0  0  0  0  0
   36.6290   19.1720   29.3650 C   0  0  0  0  0  0  0  0  0  0  0  0
   38.7070   18.1950   30.1910 C   0  0  0  0  0  0  0  0  0  0  0  0
   36.7693   22.5788   36.8344 H   0  0  0  0  0  0  0  0  0  0  0  0
   37.3999   24.0876   39.0638 H   0  0  0  0  0  0  0  0  0  0  0  0
   37.6491   22.3482   38.8304 H   0  0  0  0  0  0  0  0  0  0  0  0
   39.5669   24.6587   38.3072 H   0  0  0  0  0  0  0  0  0  0  0  0
   39.9595   23.1176   38.9913 H   0  0  0  0  0  0  0  0  0  0  0  0
   40.4655   23.4222   36.3338 H   0  0  0  0  0  0  0  0  0  0  0  0
   39.6201   21.9630   36.6836 H   0  0  0  0  0  0  0  0  0  0  0  0
   40.1340   24.8299   34.4720 H   0  0  0  0  0  0  0  0  0  0  0  0
   40.4069   27.5321   34.5659 H   0  0  0  0  0  0  0  0  0  0  0  0
   38.6941   28.3237   36.3812 H   0  0  0  0  0  0  0  0  0  0  0  0
   37.8700   21.4805   35.8232 H   0  0  0  0  0  0  0  0  0  0  0  0
   36.2887   22.1619   35.3419 H   0  0  0  0  0  0  0  0  0  0  0  0
   39.5703   21.7557   33.6192 H   0  0  0  0  0  0  0  0  0  0  0  0
   35.3616   20.7878   33.6192 H   0  0  0  0  0  0  0  0  0  0  0  0
   39.3699   21.0998   29.8786 H   0  0  0  0  0  0  0  0  0  0  0  0
   39.4778   19.8776   28.5667 H   0  0  0  0  0  0  0  0  0  0  0  0
   38.1432   21.0798   28.5667 H   0  0  0  0  0  0  0  0  0  0  0  0
   35.8745   18.9776   30.1415 H   0  0  0  0  0  0  0  0  0  0  0  0
   36.3020   20.0152   28.7389 H   0  0  0  0  0  0  0  0  0  0  0  0
   36.7501   18.2757   28.7389 H   0  0  0  0  0  0  0  0  0  0  0  0
   38.8303   17.9847   31.2636 H   0  0  0  0  0  0  0  0  0  0  0  0
   38.1467   17.3748   29.7185 H   0  0  0  0  0  0  0  0  0  0  0  0
   39.6965   18.2829   29.7185 H   0  0  0  0  0  0  0  0  0  0  0  0
  1  2  1  0
  3  2  1  0
  4  3  1  0
  5 11  1  6
  5  4  1  0
  5  1  1  0
  6  5  1  0
  6 10  2  0
  7  8  2  0
  7  6  1  0
  8  9  1  0
  9 10  1  0
 11 12  1  0
 13 14  2  0
 14 12  1  0
 15 14  1  0
 16 15  2  0
 17 18  2  0
 17 16  1  0
 18 13  1  0
 19 22  1  0
 19 17  1  0
 20 19  1  0
 21 19  1  0
  1 23  1  0
  2 24  1  0
  2 25  1  0
  3 26  1  0
  3 27  1  0
  4 28  1  0
  4 29  1  0
  7 30  1  0
  8 31  1  0
  9 32  1  0
 12 33  1  0
 12 34  1  0
 13 35  1  0
 15 36  1  0
 20 37  1  0
 20 38  1  0
 20 39  1  0
 21 40  1  0
 21 41  1  0
 21 42  1  0
 22 43  1  0
 22 44  1  0
 22 45  1  0
M  ISO  8  23   5  24  13  25  13  26  13  27  13  28  13  29  13  30  14
M  ISO  8  31  14  32   9  33   8  34   8  35  14  36  14  37   8  38   8
M  ISO  7  39   8  40   8  41   8  42   8  43   8  44   8  45   8
M  END
>  <minimizedAffinity>  (1) 
-4.67824984

>  <minimizedRMSD>  (1) 
2.04219508

$$$$
