
     RDKit          3D

 48 51  0  0  1  0  0  0  0  0999 V2000
   39.9190   27.4780   31.8920 C   0  0  0  0  0  0  0  0  0  0  0  0
   41.2310   27.1430   31.1730 C   0  0  1  0  0  0  0  0  0  0  0  0
   41.7410   28.3390   30.4260 C   0  0  0  0  0  0  0  0  0  0  0  0
   42.8770   29.0520   31.0610 C   0  0  0  0  0  0  0  0  0  0  0  0
   43.8360   28.1970   31.8370 C   0  0  0  0  0  0  0  0  0  0  0  0
   43.0680   27.3920   32.8490 C   0  0  0  0  0  0  0  0  0  0  0  0
   42.1830   26.4520   32.0740 C   0  0  2  0  0  0  0  0  0  0  0  0
   43.0370   25.4040   31.4230 C   0  0  0  0  0  0  0  0  0  0  0  0
   42.5510   23.9680   31.7160 C   0  0  0  0  0  0  0  0  0  0  0  0
   42.6220   24.5330   30.3330 C   0  0  0  0  0  0  0  0  0  0  0  0
   38.4730   24.5890   33.7880 N   0  0  0  0  0  0  0  0  0  0  0  0
   39.1800   25.7070   33.5660 C   0  0  0  0  0  0  0  0  0  0  0  0
   39.1780   26.2430   32.2790 C   0  0  0  0  0  0  0  0  0  0  0  0
   38.4550   25.6070   31.2880 C   0  0  0  0  0  0  0  0  0  0  0  0
   38.3850   26.0060   30.0880 O   0  0  0  0  0  0  0  0  0  0  0  0
   37.7500   24.4720   31.5550 N   0  0  0  0  0  0  0  0  0  0  0  0
   37.7810   23.9970   32.7990 C   0  0  0  0  0  0  0  0  0  0  0  0
   37.1350   22.9510   33.0550 O   0  0  0  0  0  0  0  0  0  0  0  0
   37.8140   24.8020   36.1060 C   0  0  0  0  0  0  0  0  0  0  0  0
   38.5370   24.1250   35.1170 C   0  0  0  0  0  0  0  0  0  0  0  0
   39.2820   23.0220   35.5180 C   0  0  0  0  0  0  0  0  0  0  0  0
   39.2750   22.6530   36.8380 N   0  0  0  0  0  0  0  0  0  0  0  0
   38.5660   23.3330   37.7570 C   0  0  0  0  0  0  0  0  0  0  0  0
   37.8380   24.4070   37.3780 N   0  0  0  0  0  0  0  0  0  0  0  0
   38.7120   22.7700   39.0510 N   0  0  0  0  0  0  0  0  0  0  0  0
   39.2871   28.0788   31.2214 H   0  0  0  0  0  0  0  0  0  0  0  0
   40.1601   28.0375   32.8079 H   0  0  0  0  0  0  0  0  0  0  0  0
   41.0584   26.3949   30.3853 H   0  0  0  0  0  0  0  0  0  0  0  0
   40.9101   29.0520   30.3199 H   0  0  0  0  0  0  0  0  0  0  0  0
   42.1222   27.9566   29.4676 H   0  0  0  0  0  0  0  0  0  0  0  0
   43.4441   29.5581   30.2659 H   0  0  0  0  0  0  0  0  0  0  0  0
   42.4263   29.7357   31.7954 H   0  0  0  0  0  0  0  0  0  0  0  0
   44.3638   27.5188   31.1503 H   0  0  0  0  0  0  0  0  0  0  0  0
   44.5702   28.8352   32.3504 H   0  0  0  0  0  0  0  0  0  0  0  0
   43.7613   26.8220   33.4849 H   0  0  0  0  0  0  0  0  0  0  0  0
   42.4730   28.0450   33.5044 H   0  0  0  0  0  0  0  0  0  0  0  0
   41.5049   25.9351   32.7690 H   0  0  0  0  0  0  0  0  0  0  0  0
   43.9305   26.0384   31.5187 H   0  0  0  0  0  0  0  0  0  0  0  0
   43.2623   23.1937   32.0392 H   0  0  0  0  0  0  0  0  0  0  0  0
   41.7770   23.5048   32.3456 H   0  0  0  0  0  0  0  0  0  0  0  0
   41.6912   24.7522   29.7894 H   0  0  0  0  0  0  0  0  0  0  0  0
   43.1030   24.2012   29.4010 H   0  0  0  0  0  0  0  0  0  0  0  0
   39.7460   26.1879   34.3774 H   0  0  0  0  0  0  0  0  0  0  0  0
   37.2101   23.9963   30.8180 H   0  0  0  0  0  0  0  0  0  0  0  0
   37.2126   25.6797   35.8267 H   0  0  0  0  0  0  0  0  0  0  0  0
   39.8705   22.4518   34.7842 H   0  0  0  0  0  0  0  0  0  0  0  0
   38.2230   23.1908   39.8539 H   0  0  0  0  0  0  0  0  0  0  0  0
   39.3070   21.9404   39.1876 H   0  0  0  0  0  0  0  0  0  0  0  0
  1 13  1  0
  2  1  1  0
  2  7  1  0
  3  4  1  0
  3  2  1  0
  4  5  1  0
  5  6  1  0
  7  6  1  0
  8  9  1  0
  8  7  1  0
 10  8  1  0
 10  9  1  0
 11 20  1  0
 12 11  1  0
 13 12  2  0
 14 16  1  0
 14 13  1  0
 15 14  2  0
 16 17  1  0
 17 18  2  0
 17 11  1  0
 19 24  2  0
 20 21  2  0
 20 19  1  0
 21 22  1  0
 22 23  2  0
 23 25  1  0
 24 23  1  0
  1 26  1  0
  1 27  1  0
  2 28  1  6
  3 29  1  0
  3 30  1  0
  4 31  1  0
  4 32  1  0
  5 33  1  0
  5 34  1  0
  6 35  1  0
  6 36  1  0
  7 37  1  1
  8 38  1  0
  9 39  1  0
  9 40  1  0
 10 41  1  0
 10 42  1  0
 12 43  1  0
 16 44  1  0
 19 45  1  0
 21 46  1  0
 25 47  1  0
 25 48  1  0
M  ISO  8  26   8  27   8  28  13  29  13  30  13  31  13  32  13  33  13
M  ISO  8  34  13  35  13  36  13  37  13  38  13  39  13  40  13  41  13
M  ISO  5  42  13  43  14  44   9  45  14  46  14
M  END
>  <minimizedAffinity>  (1) 
-4.41644335

>  <minimizedRMSD>  (1) 
0.0437641405

$$$$
