
     RDKit          3D

 47 49  0  0  1  0  0  0  0  0999 V2000
   37.2210   23.4540   36.9910 N   0  0  0  0  0  0  0  0  0  0  0  0
   37.7770   23.3020   38.3100 C   0  0  0  0  0  0  0  0  0  0  0  0
   39.2660   23.5330   38.1670 C   0  0  0  0  0  0  0  0  0  0  0  0
   39.4840   23.0490   36.7080 C   0  0  0  0  0  0  0  0  0  0  0  0
   38.2980   23.6860   36.0740 C   0  0  2  0  0  0  0  0  0  0  0  0
   38.5860   25.1770   36.0270 C   0  0  0  0  0  0  0  0  0  0  0  0
   39.5590   25.5530   35.1060 C   0  0  0  0  0  0  0  0  0  0  0  0
   39.7150   26.9520   35.1770 C   0  0  0  0  0  0  0  0  0  0  0  0
   38.8400   27.3550   36.1270 N   0  0  0  0  0  0  0  0  0  0  0  0
   38.1830   26.3190   36.6200 N   0  0  0  0  0  0  0  0  0  0  0  0
   37.8750   23.3690   34.8280 O   0  0  0  0  0  0  0  0  0  0  0  0
   37.6600   21.9870   34.8530 C   0  0  0  0  0  0  0  0  0  0  0  0
   39.3600   21.7490   33.1210 C   0  0  0  0  0  0  0  0  0  0  0  0
   38.0490   21.4490   33.5640 C   0  0  0  0  0  0  0  0  0  0  0  0
   37.2490   20.6950   32.7490 C   0  0  0  0  0  0  0  0  0  0  0  0
   37.7410   20.2610   31.5420 N   0  0  0  0  0  0  0  0  0  0  0  0
   38.9780   20.5710   31.1710 C   0  0  0  0  0  0  0  0  0  0  0  0
   39.8120   21.2930   31.9030 N   0  0  0  0  0  0  0  0  0  0  0  0
   39.4820   20.1360   29.9120 N   0  0  0  0  0  0  0  0  0  0  0  0
   35.8560   20.3640   33.1820 C   0  0  0  0  0  0  0  0  0  0  0  0
   34.8910   21.3280   32.4670 C   0  0  0  0  0  0  0  0  0  0  0  0
   35.6500   20.6330   34.6500 C   0  0  0  0  0  0  0  0  0  0  0  0
   35.4260   18.9780   32.7550 C   0  0  0  0  0  0  0  0  0  0  0  0
   36.7153   22.5970   36.7251 H   0  0  0  0  0  0  0  0  0  0  0  0
   37.3400   24.0424   38.9962 H   0  0  0  0  0  0  0  0  0  0  0  0
   37.5628   22.3057   38.7240 H   0  0  0  0  0  0  0  0  0  0  0  0
   39.5262   24.5951   38.2865 H   0  0  0  0  0  0  0  0  0  0  0  0
   39.8852   23.0216   38.9187 H   0  0  0  0  0  0  0  0  0  0  0  0
   40.4284   23.4229   36.2858 H   0  0  0  0  0  0  0  0  0  0  0  0
   39.5635   21.9597   36.5770 H   0  0  0  0  0  0  0  0  0  0  0  0
   40.1110   24.8755   34.4380 H   0  0  0  0  0  0  0  0  0  0  0  0
   40.3996   27.5799   34.5879 H   0  0  0  0  0  0  0  0  0  0  0  0
   38.7047   28.3318   36.4244 H   0  0  0  0  0  0  0  0  0  0  0  0
   38.2678   21.5291   35.6473 H   0  0  0  0  0  0  0  0  0  0  0  0
   36.6007   21.7689   35.0539 H   0  0  0  0  0  0  0  0  0  0  0  0
   40.0244   22.3528   33.7567 H   0  0  0  0  0  0  0  0  0  0  0  0
   40.4422   20.3795   29.6297 H   0  0  0  0  0  0  0  0  0  0  0  0
   38.8863   19.5779   29.2838 H   0  0  0  0  0  0  0  0  0  0  0  0
   34.3206   21.8978   33.2153 H   0  0  0  0  0  0  0  0  0  0  0  0
   35.4663   22.0228   31.8375 H   0  0  0  0  0  0  0  0  0  0  0  0
   34.1968   20.7520   31.8375 H   0  0  0  0  0  0  0  0  0  0  0  0
   36.2143   19.8962   35.2405 H   0  0  0  0  0  0  0  0  0  0  0  0
   36.0057   21.6457   34.8907 H   0  0  0  0  0  0  0  0  0  0  0  0
   34.5796   20.5535   34.8907 H   0  0  0  0  0  0  0  0  0  0  0  0
   35.2350   18.3624   33.6464 H   0  0  0  0  0  0  0  0  0  0  0  0
   34.5073   19.0480   32.1540 H   0  0  0  0  0  0  0  0  0  0  0  0
   36.2230   18.5157   32.1540 H   0  0  0  0  0  0  0  0  0  0  0  0
  1  2  1  0
  3  2  1  0
  4  3  1  0
  5 11  1  6
  5  4  1  0
  5  1  1  0
  6  5  1  0
  6 10  2  0
  7  8  2  0
  7  6  1  0
  8  9  1  0
  9 10  1  0
 11 12  1  0
 13 14  2  0
 14 12  1  0
 15 20  1  0
 15 14  1  0
 16 15  2  0
 17 16  1  0
 17 18  2  0
 18 13  1  0
 19 17  1  0
 20 22  1  0
 21 20  1  0
 23 20  1  0
  1 24  1  0
  2 25  1  0
  2 26  1  0
  3 27  1  0
  3 28  1  0
  4 29  1  0
  4 30  1  0
  7 31  1  0
  8 32  1  0
  9 33  1  0
 12 34  1  0
 12 35  1  0
 13 36  1  0
 19 37  1  0
 19 38  1  0
 21 39  1  0
 21 40  1  0
 21 41  1  0
 22 42  1  0
 22 43  1  0
 22 44  1  0
 23 45  1  0
 23 46  1  0
 23 47  1  0
M  ISO  8  24   5  25  13  26  13  27  13  28  13  29  13  30  13  31  14
M  ISO  8  32  14  33   9  34   8  35   8  36  14  39   8  40   8  41   8
M  ISO  6  42   8  43   8  44   8  45   8  46   8  47   8
M  END
>  <minimizedAffinity>  (1) 
-5.48217916

>  <minimizedRMSD>  (1) 
1.48613894

$$$$
