
     RDKit          3D

 36 38  0  0  1  0  0  0  0  0999 V2000
   37.2580   23.5130   37.2160 N   0  0  0  0  0  0  0  0  0  0  0  0
   37.8390   23.4550   38.5420 C   0  0  0  0  0  0  0  0  0  0  0  0
   39.3140   23.7030   38.3730 C   0  0  0  0  0  0  0  0  0  0  0  0
   39.5400   23.1090   36.9440 C   0  0  0  0  0  0  0  0  0  0  0  0
   38.3130   23.6980   36.2930 C   0  0  2  0  0  0  0  0  0  0  0  0
   38.6010   25.1790   36.1290 C   0  0  0  0  0  0  0  0  0  0  0  0
   39.5480   25.5110   35.1830 C   0  0  0  0  0  0  0  0  0  0  0  0
   39.6960   26.9120   35.1570 C   0  0  0  0  0  0  0  0  0  0  0  0
   38.8280   27.3690   36.0910 N   0  0  0  0  0  0  0  0  0  0  0  0
   38.1910   26.3560   36.6560 N   0  0  0  0  0  0  0  0  0  0  0  0
   37.9360   23.2820   35.0630 O   0  0  0  0  0  0  0  0  0  0  0  0
   37.6740   21.9150   35.2020 C   0  0  0  0  0  0  0  0  0  0  0  0
   37.9950   21.7410   32.7860 C   0  0  0  0  0  0  0  0  0  0  0  0
   37.2110   21.4010   33.9330 C   0  0  0  0  0  0  0  0  0  0  0  0
   36.0950   20.6410   33.7410 C   0  0  0  0  0  0  0  0  0  0  0  0
   35.7560   20.2270   32.4790 N   0  0  0  0  0  0  0  0  0  0  0  0
   36.5310   20.5770   31.4390 C   0  0  0  0  0  0  0  0  0  0  0  0
   37.6410   21.3180   31.5280 N   0  0  0  0  0  0  0  0  0  0  0  0
   36.1730   20.1560   30.1230 N   0  0  0  0  0  0  0  0  0  0  0  0
   35.3180   20.2980   34.8400 O   0  0  0  0  0  0  0  0  0  0  0  0
   36.7626   22.6335   37.0111 H   0  0  0  0  0  0  0  0  0  0  0  0
   37.3948   24.2285   39.1858 H   0  0  0  0  0  0  0  0  0  0  0  0
   37.6511   22.4806   39.0166 H   0  0  0  0  0  0  0  0  0  0  0  0
   39.5523   24.7763   38.4092 H   0  0  0  0  0  0  0  0  0  0  0  0
   39.9461   23.2626   39.1581 H   0  0  0  0  0  0  0  0  0  0  0  0
   40.4722   23.4680   36.4834 H   0  0  0  0  0  0  0  0  0  0  0  0
   39.6499   22.0163   36.8807 H   0  0  0  0  0  0  0  0  0  0  0  0
   40.0983   24.7980   34.5515 H   0  0  0  0  0  0  0  0  0  0  0  0
   40.3683   27.5041   34.5188 H   0  0  0  0  0  0  0  0  0  0  0  0
   38.6845   28.3612   36.3273 H   0  0  0  0  0  0  0  0  0  0  0  0
   38.5935   21.3903   35.5007 H   0  0  0  0  0  0  0  0  0  0  0  0
   36.9059   21.7569   35.9734 H   0  0  0  0  0  0  0  0  0  0  0  0
   38.8997   22.3536   32.9139 H   0  0  0  0  0  0  0  0  0  0  0  0
   35.3301   19.5823   29.9773 H   0  0  0  0  0  0  0  0  0  0  0  0
   36.7576   20.4259   29.3191 H   0  0  0  0  0  0  0  0  0  0  0  0
   34.5046   19.7469   34.7185 H   0  0  0  0  0  0  0  0  0  0  0  0
  1  2  1  0
  3  2  1  0
  4  3  1  0
  5 11  1  6
  5  4  1  0
  5  1  1  0
  6  5  1  0
  6 10  2  0
  7  6  1  0
  8  7  2  0
  8  9  1  0
  9 10  1  0
 11 12  1  0
 13 14  2  0
 14 12  1  0
 15 14  1  0
 15 20  1  0
 16 15  2  0
 17 18  2  0
 17 16  1  0
 18 13  1  0
 19 17  1  0
  1 21  1  0
  2 22  1  0
  2 23  1  0
  3 24  1  0
  3 25  1  0
  4 26  1  0
  4 27  1  0
  7 28  1  0
  8 29  1  0
  9 30  1  0
 12 31  1  0
 12 32  1  0
 13 33  1  0
 19 34  1  0
 19 35  1  0
 20 36  1  0
M  ISO  8  21   5  22  13  23  13  24  13  25  13  26  13  27  13  28  14
M  ISO  6  29  14  30   9  31   8  32   8  33  14  36   3
M  END
>  <minimizedAffinity>  (1) 
-5.06859398

>  <minimizedRMSD>  (1) 
0.289507627

$$$$
