
     RDKit          3D

 36 38  0  0  1  0  0  0  0  0999 V2000
   37.2340   23.4800   37.0840 N   0  0  0  0  0  0  0  0  0  0  0  0
   37.8660   23.3190   38.3740 C   0  0  0  0  0  0  0  0  0  0  0  0
   39.3420   23.5390   38.1540 C   0  0  0  0  0  0  0  0  0  0  0  0
   39.4880   23.0330   36.6810 C   0  0  0  0  0  0  0  0  0  0  0  0
   38.2520   23.6990   36.1270 C   0  0  2  0  0  0  0  0  0  0  0  0
   38.5750   25.1770   36.0430 C   0  0  0  0  0  0  0  0  0  0  0  0
   39.5340   25.5430   35.1210 C   0  0  0  0  0  0  0  0  0  0  0  0
   39.7110   26.9350   35.1700 C   0  0  0  0  0  0  0  0  0  0  0  0
   38.8550   27.3530   36.1170 N   0  0  0  0  0  0  0  0  0  0  0  0
   38.1890   26.3320   36.6300 N   0  0  0  0  0  0  0  0  0  0  0  0
   37.8020   23.3670   34.8920 O   0  0  0  0  0  0  0  0  0  0  0  0
   37.8830   21.9750   34.8300 C   0  0  0  0  0  0  0  0  0  0  0  0
   39.2100   21.9430   32.7770 C   0  0  0  0  0  0  0  0  0  0  0  0
   37.9990   21.5840   33.4420 C   0  0  0  0  0  0  0  0  0  0  0  0
   37.0530   20.9120   32.7280 C   0  0  0  0  0  0  0  0  0  0  0  0
   37.3000   20.6100   31.4050 N   0  0  0  0  0  0  0  0  0  0  0  0
   38.4440   20.9700   30.8400 C   0  0  0  0  0  0  0  0  0  0  0  0
   39.4270   21.6300   31.4610 N   0  0  0  0  0  0  0  0  0  0  0  0
   38.6710   20.6480   29.4650 N   0  0  0  0  0  0  0  0  0  0  0  0
   35.5290   20.4490   33.5380 S   0  0  0  0  0  0  0  0  0  0  0  0
   36.7053   22.6291   36.8444 H   0  0  0  0  0  0  0  0  0  0  0  0
   37.4726   24.0597   39.0857 H   0  0  0  0  0  0  0  0  0  0  0  0
   37.6691   22.3213   38.7934 H   0  0  0  0  0  0  0  0  0  0  0  0
   39.6129   24.6010   38.2475 H   0  0  0  0  0  0  0  0  0  0  0  0
   39.9947   23.0322   38.8801 H   0  0  0  0  0  0  0  0  0  0  0  0
   40.4100   23.3947   36.2024 H   0  0  0  0  0  0  0  0  0  0  0  0
   39.5617   21.9443   36.5421 H   0  0  0  0  0  0  0  0  0  0  0  0
   40.0736   24.8544   34.4542 H   0  0  0  0  0  0  0  0  0  0  0  0
   40.3979   27.5471   34.5670 H   0  0  0  0  0  0  0  0  0  0  0  0
   38.7338   28.3346   36.4044 H   0  0  0  0  0  0  0  0  0  0  0  0
   38.7657   21.6293   35.3880 H   0  0  0  0  0  0  0  0  0  0  0  0
   36.9834   21.5246   35.2748 H   0  0  0  0  0  0  0  0  0  0  0  0
   39.9882   22.4843   33.3350 H   0  0  0  0  0  0  0  0  0  0  0  0
   39.5546   20.9207   29.0113 H   0  0  0  0  0  0  0  0  0  0  0  0
   37.9509   20.1435   28.9285 H   0  0  0  0  0  0  0  0  0  0  0  0
   35.6997   20.5009   34.8963 H   0  0  0  0  0  0  0  0  0  0  0  0
  1  2  1  0
  3  2  1  0
  4  3  1  0
  5 11  1  6
  5  4  1  0
  5  1  1  0
  6  5  1  0
  6 10  2  0
  7  8  2  0
  7  6  1  0
  8  9  1  0
  9 10  1  0
 12 11  1  0
 13 14  2  0
 14 12  1  0
 15 14  1  0
 15 20  1  0
 16 15  2  0
 17 16  1  0
 17 18  2  0
 18 13  1  0
 19 17  1  0
  1 21  1  0
  2 22  1  0
  2 23  1  0
  3 24  1  0
  3 25  1  0
  4 26  1  0
  4 27  1  0
  7 28  1  0
  8 29  1  0
  9 30  1  0
 12 31  1  0
 12 32  1  0
 13 33  1  0
 19 34  1  0
 19 35  1  0
 20 36  1  0
M  ISO  8  21   5  22  13  23  13  24  13  25  13  26  13  27  13  28  14
M  ISO  6  29  14  30   9  31   8  32   8  33  14  36  11
M  END
>  <minimizedAffinity>  (1) 
-4.59206486

>  <minimizedRMSD>  (1) 
1.15398383

$$$$
