
     RDKit          3D

 39 41  0  0  1  0  0  0  0  0999 V2000
   37.2690   23.3660   36.7370 N   0  0  0  0  0  0  0  0  0  0  0  0
   37.6200   23.2540   38.1310 C   0  0  0  0  0  0  0  0  0  0  0  0
   39.0780   23.6000   38.2330 C   0  0  0  0  0  0  0  0  0  0  0  0
   39.5840   23.1450   36.8290 C   0  0  0  0  0  0  0  0  0  0  0  0
   38.4590   23.6830   36.0120 C   0  0  2  0  0  0  0  0  0  0  0  0
   38.6540   25.1850   35.9850 C   0  0  0  0  0  0  0  0  0  0  0  0
   39.6030   25.6510   35.0960 C   0  0  0  0  0  0  0  0  0  0  0  0
   39.6570   27.0580   35.1980 C   0  0  0  0  0  0  0  0  0  0  0  0
   38.7270   27.3780   36.1540 N   0  0  0  0  0  0  0  0  0  0  0  0
   38.1470   26.2780   36.6070 N   0  0  0  0  0  0  0  0  0  0  0  0
   38.2890   23.3320   34.7150 O   0  0  0  0  0  0  0  0  0  0  0  0
   38.8010   22.0090   34.6720 C   0  0  0  0  0  0  0  0  0  0  0  0
   39.6770   21.5400   32.4230 C   0  0  0  0  0  0  0  0  0  0  0  0
   38.5780   21.5160   33.3150 C   0  0  0  0  0  0  0  0  0  0  0  0
   37.4040   21.0400   32.8470 C   0  0  0  0  0  0  0  0  0  0  0  0
   37.2920   20.5940   31.5420 N   0  0  0  0  0  0  0  0  0  0  0  0
   38.3660   20.6480   30.7640 C   0  0  0  0  0  0  0  0  0  0  0  0
   39.5430   21.0930   31.1330 N   0  0  0  0  0  0  0  0  0  0  0  0
   38.2440   20.1970   29.4100 N   0  0  0  0  0  0  0  0  0  0  0  0
   36.2050   20.9710   33.6510 C   0  0  0  0  0  0  0  0  0  0  0  0
   35.8850   20.9360   34.8460 O   0  0  0  0  0  0  0  0  0  0  0  0
   34.8990   20.9230   33.0180 N   0  0  0  0  0  0  0  0  0  0  0  0
   36.8808   22.4733   36.4004 H   0  0  0  0  0  0  0  0  0  0  0  0
   37.0204   23.9542   38.7312 H   0  0  0  0  0  0  0  0  0  0  0  0
   37.4244   22.2401   38.5101 H   0  0  0  0  0  0  0  0  0  0  0  0
   39.2284   24.6786   38.3878 H   0  0  0  0  0  0  0  0  0  0  0  0
   39.5998   23.1305   39.0799 H   0  0  0  0  0  0  0  0  0  0  0  0
   40.5472   23.6060   36.5648 H   0  0  0  0  0  0  0  0  0  0  0  0
   39.7880   22.0699   36.7170 H   0  0  0  0  0  0  0  0  0  0  0  0
   40.2132   25.0309   34.4228 H   0  0  0  0  0  0  0  0  0  0  0  0
   40.3033   27.7468   34.6343 H   0  0  0  0  0  0  0  0  0  0  0  0
   38.5117   28.3336   36.4724 H   0  0  0  0  0  0  0  0  0  0  0  0
   39.8766   22.0112   34.9025 H   0  0  0  0  0  0  0  0  0  0  0  0
   38.3016   21.3674   35.4129 H   0  0  0  0  0  0  0  0  0  0  0  0
   40.6493   21.9214   32.7682 H   0  0  0  0  0  0  0  0  0  0  0  0
   37.3421   19.8373   29.0663 H   0  0  0  0  0  0  0  0  0  0  0  0
   39.0581   20.2324   28.7800 H   0  0  0  0  0  0  0  0  0  0  0  0
   34.0480   20.8739   33.5961 H   0  0  0  0  0  0  0  0  0  0  0  0
   34.8237   20.9381   31.9909 H   0  0  0  0  0  0  0  0  0  0  0  0
  1  2  1  0
  2  3  1  0
  4  3  1  0
  5 11  1  6
  5  1  1  0
  5  4  1  0
  6  5  1  0
  6 10  2  0
  7  8  2  0
  7  6  1  0
  8  9  1  0
  9 10  1  0
 12 11  1  0
 13 14  2  0
 14 12  1  0
 15 14  1  0
 15 20  1  0
 16 15  2  0
 17 18  2  0
 17 16  1  0
 18 13  1  0
 19 17  1  0
 20 21  2  0
 22 20  1  0
  1 23  1  0
  2 24  1  0
  2 25  1  0
  3 26  1  0
  3 27  1  0
  4 28  1  0
  4 29  1  0
  7 30  1  0
  8 31  1  0
  9 32  1  0
 12 33  1  0
 12 34  1  0
 13 35  1  0
 19 36  1  0
 19 37  1  0
 22 38  1  0
 22 39  1  0
M  ISO  8  23   5  24  13  25  13  26  13  27  13  28  13  29  13  30  14
M  ISO  5  31  14  32   9  33   8  34   8  35  14
M  END
>  <minimizedAffinity>  (1) 
-4.6295619

>  <minimizedRMSD>  (1) 
0.980858088

$$$$
