
     RDKit          3D

 47 49  0  0  1  0  0  0  0  0999 V2000
   39.9600   27.4600   31.8990 C   0  0  0  0  0  0  0  0  0  0  0  0
   41.2630   27.1230   31.1660 C   0  0  1  0  0  0  0  0  0  0  0  0
   41.7540   28.3050   30.3940 C   0  0  0  0  0  0  0  0  0  0  0  0
   42.8870   29.0490   31.0140 C   0  0  0  0  0  0  0  0  0  0  0  0
   43.8560   28.2400   31.8190 C   0  0  0  0  0  0  0  0  0  0  0  0
   43.1170   27.4260   32.8400 C   0  0  0  0  0  0  0  0  0  0  0  0
   42.2270   26.4790   32.0880 C   0  0  2  0  0  0  0  0  0  0  0  0
   43.0990   25.4780   31.3500 C   0  0  0  0  0  0  0  0  0  0  0  0
   43.5470   24.4080   32.3030 C   0  0  0  0  0  0  0  0  0  0  0  0
   38.5090   24.5860   33.8070 N   0  0  0  0  0  0  0  0  0  0  0  0
   39.2100   25.6910   33.5800 C   0  0  0  0  0  0  0  0  0  0  0  0
   39.2200   26.2330   32.2880 C   0  0  0  0  0  0  0  0  0  0  0  0
   38.4970   25.5950   31.2870 C   0  0  0  0  0  0  0  0  0  0  0  0
   38.4350   25.9890   30.0980 O   0  0  0  0  0  0  0  0  0  0  0  0
   37.7890   24.4620   31.5550 N   0  0  0  0  0  0  0  0  0  0  0  0
   37.8160   23.9870   32.8150 C   0  0  0  0  0  0  0  0  0  0  0  0
   37.1640   22.9460   33.0590 O   0  0  0  0  0  0  0  0  0  0  0  0
   37.8210   24.7940   36.1060 C   0  0  0  0  0  0  0  0  0  0  0  0
   38.5600   24.1210   35.1240 C   0  0  0  0  0  0  0  0  0  0  0  0
   39.2990   23.0230   35.5400 C   0  0  0  0  0  0  0  0  0  0  0  0
   39.2610   22.6700   36.8680 N   0  0  0  0  0  0  0  0  0  0  0  0
   38.5470   23.3350   37.7710 C   0  0  0  0  0  0  0  0  0  0  0  0
   37.8280   24.4010   37.3750 N   0  0  0  0  0  0  0  0  0  0  0  0
   38.6860   22.7620   39.0630 N   0  0  0  0  0  0  0  0  0  0  0  0
   39.3240   28.0658   31.2368 H   0  0  0  0  0  0  0  0  0  0  0  0
   40.2132   28.0145   32.8146 H   0  0  0  0  0  0  0  0  0  0  0  0
   41.0920   26.3602   30.3921 H   0  0  0  0  0  0  0  0  0  0  0  0
   40.9138   29.0048   30.2743 H   0  0  0  0  0  0  0  0  0  0  0  0
   42.1376   27.9072   29.4429 H   0  0  0  0  0  0  0  0  0  0  0  0
   43.4500   29.5362   30.2042 H   0  0  0  0  0  0  0  0  0  0  0  0
   42.4226   29.7437   31.7294 H   0  0  0  0  0  0  0  0  0  0  0  0
   44.4136   27.5676   31.1505 H   0  0  0  0  0  0  0  0  0  0  0  0
   44.5546   28.9172   32.3322 H   0  0  0  0  0  0  0  0  0  0  0  0
   43.8290   26.8624   33.4608 H   0  0  0  0  0  0  0  0  0  0  0  0
   42.5271   28.0736   33.5053 H   0  0  0  0  0  0  0  0  0  0  0  0
   41.5926   25.9793   32.8348 H   0  0  0  0  0  0  0  0  0  0  0  0
   42.5223   25.0224   30.5316 H   0  0  0  0  0  0  0  0  0  0  0  0
   43.9786   25.9925   30.9358 H   0  0  0  0  0  0  0  0  0  0  0  0
   43.4022   24.7539   33.3371 H   0  0  0  0  0  0  0  0  0  0  0  0
   42.9551   23.4962   32.1351 H   0  0  0  0  0  0  0  0  0  0  0  0
   44.6120   24.1899   32.1351 H   0  0  0  0  0  0  0  0  0  0  0  0
   39.7734   26.1727   34.3928 H   0  0  0  0  0  0  0  0  0  0  0  0
   37.2508   23.9844   30.8180 H   0  0  0  0  0  0  0  0  0  0  0  0
   37.2201   25.6695   35.8190 H   0  0  0  0  0  0  0  0  0  0  0  0
   39.9023   22.4473   34.8226 H   0  0  0  0  0  0  0  0  0  0  0  0
   38.1881   23.1736   39.8652 H   0  0  0  0  0  0  0  0  0  0  0  0
   39.2847   21.9348   39.1978 H   0  0  0  0  0  0  0  0  0  0  0  0
  1 12  1  0
  2  1  1  0
  2  7  1  0
  3  4  1  0
  3  2  1  0
  4  5  1  0
  5  6  1  0
  7  6  1  0
  8  7  1  0
  8  9  1  0
 10 19  1  0
 11 10  1  0
 12 11  2  0
 13 15  1  0
 13 12  1  0
 14 13  2  0
 15 16  1  0
 16 17  2  0
 16 10  1  0
 18 23  2  0
 19 20  2  0
 19 18  1  0
 20 21  1  0
 21 22  2  0
 22 24  1  0
 23 22  1  0
  1 25  1  0
  1 26  1  0
  2 27  1  6
  3 28  1  0
  3 29  1  0
  4 30  1  0
  4 31  1  0
  5 32  1  0
  5 33  1  0
  6 34  1  0
  6 35  1  0
  7 36  1  1
  8 37  1  0
  8 38  1  0
  9 39  1  0
  9 40  1  0
  9 41  1  0
 11 42  1  0
 15 43  1  0
 18 44  1  0
 20 45  1  0
 24 46  1  0
 24 47  1  0
M  ISO  8  25   8  26   8  27  13  28  13  29  13  30  13  31  13  32  13
M  ISO  8  33  13  34  13  35  13  36  13  37   8  38   8  39   8  40   8
M  ISO  5  41   8  42  14  43   9  44  14  45  14
M  END
>  <minimizedAffinity>  (1) 
-4.38973331

>  <minimizedRMSD>  (1) 
0.402105361

$$$$
