
     RDKit          3D

 29 30  0  0  1  0  0  0  0  0999 V2000
   38.2470   24.3300   36.8300 C   0  0  1  0  0  0  0  0  0  0  0  0
   41.0400   21.8490   37.4760 C   0  0  0  0  0  0  0  0  0  0  0  0
   39.9800   22.7590   37.7270 C   0  0  0  0  0  0  0  0  0  0  0  0
   39.3450   23.3720   36.6200 C   0  0  0  0  0  0  0  0  0  0  0  0
   39.7890   23.0530   35.3580 N   0  0  0  0  0  0  0  0  0  0  0  0
   40.7930   22.1890   35.1630 C   0  0  0  0  0  0  0  0  0  0  0  0
   41.4280   21.5800   36.2100 N   0  0  0  0  0  0  0  0  0  0  0  0
   37.8310   24.4010   38.2850 C   0  0  0  0  0  0  0  0  0  0  0  0
   38.5860   25.7280   36.3680 C   0  0  0  0  0  0  0  0  0  0  0  0
   37.9030   26.1950   35.1770 C   0  0  0  0  0  0  0  0  0  0  0  0
   37.4050   27.4840   35.2160 C   0  0  0  0  0  0  0  0  0  0  0  0
   36.7470   28.0940   34.1920 C   0  0  0  0  0  0  0  0  0  0  0  0
   36.5470   27.3970   33.0080 C   0  0  0  0  0  0  0  0  0  0  0  0
   37.0270   26.1040   32.9200 C   0  0  0  0  0  0  0  0  0  0  0  0
   37.6900   25.5190   33.9790 C   0  0  0  0  0  0  0  0  0  0  0  0
   37.4167   23.9463   36.2189 H   0  0  0  0  0  0  0  0  0  0  0  0
   41.5496   21.3589   38.3187 H   0  0  0  0  0  0  0  0  0  0  0  0
   39.6600   22.9823   38.7555 H   0  0  0  0  0  0  0  0  0  0  0  0
   41.1150   21.9635   34.1356 H   0  0  0  0  0  0  0  0  0  0  0  0
   38.7122   24.2506   38.9260 H   0  0  0  0  0  0  0  0  0  0  0  0
   37.3905   25.3873   38.4927 H   0  0  0  0  0  0  0  0  0  0  0  0
   37.0883   23.6166   38.4927 H   0  0  0  0  0  0  0  0  0  0  0  0
   38.3418   26.4201   37.1874 H   0  0  0  0  0  0  0  0  0  0  0  0
   39.6527   25.6979   36.1013 H   0  0  0  0  0  0  0  0  0  0  0  0
   37.5511   28.0590   36.1423 H   0  0  0  0  0  0  0  0  0  0  0  0
   36.3789   29.1248   34.3012 H   0  0  0  0  0  0  0  0  0  0  0  0
   36.0201   27.8620   32.1618 H   0  0  0  0  0  0  0  0  0  0  0  0
   36.8782   25.5328   31.9918 H   0  0  0  0  0  0  0  0  0  0  0  0
   38.0609   24.4888   33.8736 H   0  0  0  0  0  0  0  0  0  0  0  0
  1  8  1  0
  2  3  2  0
  4  1  1  0
  4  3  1  0
  5  4  2  0
  6  5  1  0
  6  7  2  0
  7  2  1  0
  9  1  1  0
 10 11  2  0
 10  9  1  0
 12 11  1  0
 13 12  2  0
 14 13  1  0
 14 15  2  0
 15 10  1  0
  1 16  1  6
  2 17  1  0
  3 18  1  0
  6 19  1  0
  8 20  1  0
  8 21  1  0
  8 22  1  0
  9 23  1  0
  9 24  1  0
 11 25  1  0
 12 26  1  0
 13 27  1  0
 14 28  1  0
 15 29  1  0
M  ISO  8  16   8  17  14  18  14  19  14  20   8  21   8  22   8  23   8
M  ISO  6  24   8  25  14  26  14  27  14  28  14  29  14
M  END
>  <minimizedAffinity>  (1) 
-4.35035896

>  <minimizedRMSD>  (1) 
1.18688548

$$$$
