
     RDKit          3D

 54 57  0  0  1  0  0  0  0  0999 V2000
   41.2190   27.1640   31.1740 C   0  0  1  0  0  0  0  0  0  0  0  0
   41.7140   28.3230   30.3810 C   0  0  0  0  0  0  0  0  0  0  0  0
   42.8460   29.0640   30.9870 C   0  0  0  0  0  0  0  0  0  0  0  0
   43.8130   28.3040   31.8120 C   0  0  0  0  0  0  0  0  0  0  0  0
   43.1180   27.4160   32.7870 C   0  0  0  0  0  0  0  0  0  0  0  0
   42.1980   26.4970   32.0640 C   0  0  2  0  0  0  0  0  0  0  0  0
   44.0200   23.1150   30.0920 C   0  0  0  0  0  0  0  0  0  0  0  0
   42.8670   23.6730   29.5830 C   0  0  0  0  0  0  0  0  0  0  0  0
   42.3280   24.7600   30.2630 C   0  0  0  0  0  0  0  0  0  0  0  0
   42.8690   25.3250   31.4270 C   0  0  0  0  0  0  0  0  0  0  0  0
   44.0200   24.7140   31.8760 C   0  0  0  0  0  0  0  0  0  0  0  0
   44.5910   23.6360   31.2340 C   0  0  0  0  0  0  0  0  0  0  0  0
   44.7240   21.7480   29.2590 S   0  0  0  0  0  0  0  0  0  0  0  0
   46.2010   21.6330   29.4690 O   0  0  0  0  0  0  0  0  0  0  0  0
   44.4830   21.8900   27.7780 O   0  0  0  0  0  0  0  0  0  0  0  0
   39.9170   27.4890   31.9020 C   0  0  0  0  0  0  0  0  0  0  0  0
   38.4850   24.5920   33.7940 N   0  0  0  0  0  0  0  0  0  0  0  0
   39.1840   25.7190   33.5790 C   0  0  0  0  0  0  0  0  0  0  0  0
   39.1860   26.2520   32.2980 C   0  0  0  0  0  0  0  0  0  0  0  0
   38.4700   25.6080   31.2850 C   0  0  0  0  0  0  0  0  0  0  0  0
   38.4040   26.0020   30.1000 O   0  0  0  0  0  0  0  0  0  0  0  0
   37.7740   24.4620   31.5570 N   0  0  0  0  0  0  0  0  0  0  0  0
   37.8020   23.9860   32.8090 C   0  0  0  0  0  0  0  0  0  0  0  0
   37.1650   22.9380   33.0580 O   0  0  0  0  0  0  0  0  0  0  0  0
   37.8160   24.8000   36.1030 C   0  0  0  0  0  0  0  0  0  0  0  0
   38.5470   24.1240   35.1210 C   0  0  0  0  0  0  0  0  0  0  0  0
   39.2970   23.0210   35.5250 C   0  0  0  0  0  0  0  0  0  0  0  0
   39.2730   22.6670   36.8510 N   0  0  0  0  0  0  0  0  0  0  0  0
   38.5640   23.3340   37.7610 C   0  0  0  0  0  0  0  0  0  0  0  0
   37.8340   24.4020   37.3820 N   0  0  0  0  0  0  0  0  0  0  0  0
   38.7110   22.7690   39.0500 N   0  0  0  0  0  0  0  0  0  0  0  0
   41.0212   26.4016   30.4061 H   0  0  0  0  0  0  0  0  0  0  0  0
   40.8787   29.0264   30.2483 H   0  0  0  0  0  0  0  0  0  0  0  0
   42.0921   27.9072   29.4354 H   0  0  0  0  0  0  0  0  0  0  0  0
   43.4109   29.5275   30.1648 H   0  0  0  0  0  0  0  0  0  0  0  0
   42.3712   29.7612   31.6930 H   0  0  0  0  0  0  0  0  0  0  0  0
   44.4403   27.6878   31.1511 H   0  0  0  0  0  0  0  0  0  0  0  0
   44.4266   29.0225   32.3752 H   0  0  0  0  0  0  0  0  0  0  0  0
   43.8639   26.8259   33.3397 H   0  0  0  0  0  0  0  0  0  0  0  0
   42.5380   28.0318   33.4901 H   0  0  0  0  0  0  0  0  0  0  0  0
   41.5881   26.0730   32.8753 H   0  0  0  0  0  0  0  0  0  0  0  0
   42.3918   23.2743   28.6746 H   0  0  0  0  0  0  0  0  0  0  0  0
   41.4095   25.2098   29.8579 H   0  0  0  0  0  0  0  0  0  0  0  0
   44.5031   25.1028   32.7845 H   0  0  0  0  0  0  0  0  0  0  0  0
   45.5110   23.1870   31.6365 H   0  0  0  0  0  0  0  0  0  0  0  0
   44.1280   20.6265   29.7726 H   0  0  0  0  0  0  0  0  0  0  0  0
   40.1492   28.0712   32.8059 H   0  0  0  0  0  0  0  0  0  0  0  0
   39.2750   28.0639   31.2184 H   0  0  0  0  0  0  0  0  0  0  0  0
   39.7387   26.2052   34.3950 H   0  0  0  0  0  0  0  0  0  0  0  0
   37.2427   23.9782   30.8190 H   0  0  0  0  0  0  0  0  0  0  0  0
   37.2142   25.6761   35.8195 H   0  0  0  0  0  0  0  0  0  0  0  0
   39.8933   22.4484   34.7994 H   0  0  0  0  0  0  0  0  0  0  0  0
   38.2178   23.1838   39.8534 H   0  0  0  0  0  0  0  0  0  0  0  0
   39.3112   21.9429   39.1848 H   0  0  0  0  0  0  0  0  0  0  0  0
  1 16  1  0
  1  6  1  0
  2  3  1  0
  2  1  1  0
  3  4  1  0
  4  5  1  0
  6  5  1  0
  7 12  2  0
  8  7  1  0
  8  9  2  0
  9 10  1  0
 10 11  2  0
 10  6  1  0
 12 11  1  0
 13 14  2  0
 13  7  1  0
 15 13  2  0
 16 19  1  0
 17 26  1  0
 18 17  1  0
 19 18  2  0
 20 22  1  0
 20 19  1  0
 21 20  2  0
 22 23  1  0
 23 24  2  0
 23 17  1  0
 25 30  2  0
 26 27  2  0
 26 25  1  0
 27 28  1  0
 28 29  2  0
 29 31  1  0
 30 29  1  0
  1 32  1  6
  2 33  1  0
  2 34  1  0
  3 35  1  0
  3 36  1  0
  4 37  1  0
  4 38  1  0
  5 39  1  0
  5 40  1  0
  6 41  1  1
  8 42  1  0
  9 43  1  0
 11 44  1  0
 12 45  1  0
 13 46  1  0
 16 47  1  0
 16 48  1  0
 18 49  1  0
 22 50  1  0
 25 51  1  0
 27 52  1  0
 31 53  1  0
 31 54  1  0
M  ISO  8  32  13  33  13  34  13  35  13  36  13  37  13  38  13  39  13
M  ISO  8  40  13  41  13  42  14  43  14  44  14  45  14  46  11  47   8
M  ISO  5  48   8  49  14  50   9  51  14  52  14
M  END
>  <minimizedAffinity>  (1) 
-4.25641441

>  <minimizedRMSD>  (1) 
0.15596281

$$$$
