
     RDKit          3D

 36 38  0  0  1  0  0  0  0  0999 V2000
   38.1750   26.0410   33.5650 C   0  0  0  0  0  0  0  0  0  0  0  0
   37.1370   25.7440   32.6430 N   0  0  0  0  0  0  0  0  0  0  0  0
   36.7800   24.5280   32.3240 N   0  0  0  0  0  0  0  0  0  0  0  0
   35.7670   24.5010   31.4390 C   0  0  0  0  0  0  0  0  0  0  0  0
   35.4660   25.8090   31.1820 C   0  0  0  0  0  0  0  0  0  0  0  0
   36.3490   26.5730   31.9590 C   0  0  0  0  0  0  0  0  0  0  0  0
   36.2920   28.0250   31.9320 C   0  0  0  0  0  0  0  0  0  0  0  0
   35.6360   28.6270   33.0050 C   0  0  0  0  0  0  0  0  0  0  0  0
   35.4570   29.9840   33.1770 C   0  0  0  0  0  0  0  0  0  0  0  0
   35.9630   30.8320   32.2160 C   0  0  0  0  0  0  0  0  0  0  0  0
   36.6190   30.2710   31.1390 C   0  0  0  0  0  0  0  0  0  0  0  0
   36.7740   28.9230   31.0080 C   0  0  0  0  0  0  0  0  0  0  0  0
   37.7130   26.1340   35.0150 C   0  0  1  0  0  0  0  0  0  0  0  0
   39.9870   23.3760   36.2440 C   0  0  0  0  0  0  0  0  0  0  0  0
   39.4680   24.4450   35.4960 C   0  0  0  0  0  0  0  0  0  0  0  0
   38.2080   25.0230   35.8270 C   0  0  0  0  0  0  0  0  0  0  0  0
   37.5360   24.5070   36.8820 N   0  0  0  0  0  0  0  0  0  0  0  0
   38.0670   23.4630   37.5950 C   0  0  0  0  0  0  0  0  0  0  0  0
   39.2760   22.8980   37.2880 N   0  0  0  0  0  0  0  0  0  0  0  0
   38.0100   27.4840   35.5820 C   0  0  0  0  0  0  0  0  0  0  0  0
   38.6222   27.0055   33.2826 H   0  0  0  0  0  0  0  0  0  0  0  0
   38.8921   25.2085   33.5137 H   0  0  0  0  0  0  0  0  0  0  0  0
   35.2820   23.6112   31.0113 H   0  0  0  0  0  0  0  0  0  0  0  0
   34.6878   26.1867   30.5025 H   0  0  0  0  0  0  0  0  0  0  0  0
   35.2262   27.9632   33.7806 H   0  0  0  0  0  0  0  0  0  0  0  0
   34.9256   30.3777   34.0560 H   0  0  0  0  0  0  0  0  0  0  0  0
   35.8477   31.9224   32.3044 H   0  0  0  0  0  0  0  0  0  0  0  0
   37.0297   30.9324   30.3619 H   0  0  0  0  0  0  0  0  0  0  0  0
   37.3069   28.5371   30.1264 H   0  0  0  0  0  0  0  0  0  0  0  0
   36.6185   26.0260   35.0362 H   0  0  0  0  0  0  0  0  0  0  0  0
   40.9598   22.9337   35.9831 H   0  0  0  0  0  0  0  0  0  0  0  0
   40.0407   24.8410   34.6444 H   0  0  0  0  0  0  0  0  0  0  0  0
   37.4989   23.0633   38.4479 H   0  0  0  0  0  0  0  0  0  0  0  0
   37.9983   27.4309   36.6807 H   0  0  0  0  0  0  0  0  0  0  0  0
   39.0023   27.8145   35.2414 H   0  0  0  0  0  0  0  0  0  0  0  0
   37.2480   28.2005   35.2414 H   0  0  0  0  0  0  0  0  0  0  0  0
  1 13  1  0
  2  1  1  0
  3  2  1  0
  4  3  2  0
  5  4  1  0
  5  6  2  0
  6  2  1  0
  7  6  1  0
  7  8  2  0
  8  9  1  0
 10  9  2  0
 11 10  1  0
 12 11  2  0
 12  7  1  0
 13 20  1  0
 13 16  1  0
 14 19  2  0
 15 16  2  0
 15 14  1  0
 16 17  1  0
 17 18  2  0
 19 18  1  0
  1 21  1  0
  1 22  1  0
  4 23  1  0
  5 24  1  0
  8 25  1  0
  9 26  1  0
 10 27  1  0
 11 28  1  0
 12 29  1  0
 13 30  1  6
 14 31  1  0
 15 32  1  0
 18 33  1  0
 20 34  1  0
 20 35  1  0
 20 36  1  0
M  ISO  8  21   8  22   8  23  14  24  14  25  14  26  14  27  14  28  14
M  ISO  8  29  14  30   8  31  14  32  14  33  14  34   8  35   8  36   8
M  END
>  <minimizedAffinity>  (1) 
-5.13642836

>  <minimizedRMSD>  (1) 
3.77685928

$$$$
