
     RDKit          3D

 40 43  0  0  1  0  0  0  0  0999 V2000
   36.5960   28.9640   32.3290 N   0  0  0  0  0  0  0  0  0  0  0  0
   37.0970   29.0680   31.1300 N   0  0  0  0  0  0  0  0  0  0  0  0
   36.8790   30.2960   30.6020 C   0  0  0  0  0  0  0  0  0  0  0  0
   36.1950   31.0060   31.5400 C   0  0  0  0  0  0  0  0  0  0  0  0
   36.0220   30.1500   32.6280 C   0  0  0  0  0  0  0  0  0  0  0  0
   35.3510   30.4920   33.8390 N   0  0  0  0  0  0  0  0  0  0  0  0
   35.7480   31.2210   34.9240 C   0  0  0  0  0  0  0  0  0  0  0  0
   34.7430   31.2460   35.7940 N   0  0  0  0  0  0  0  0  0  0  0  0
   33.7260   30.5550   35.2890 C   0  0  0  0  0  0  0  0  0  0  0  0
   32.4350   30.2340   35.7230 C   0  0  0  0  0  0  0  0  0  0  0  0
   32.1510   30.7080   36.8730 O   0  0  0  0  0  0  0  0  0  0  0  0
   31.5800   29.4940   34.9910 N   0  0  0  0  0  0  0  0  0  0  0  0
   31.9610   29.0300   33.7820 C   0  0  0  0  0  0  0  0  0  0  0  0
   31.0880   28.2450   32.9760 N   0  0  0  0  0  0  0  0  0  0  0  0
   33.1970   29.3200   33.3320 N   0  0  0  0  0  0  0  0  0  0  0  0
   34.0730   30.0550   34.0380 C   0  0  0  0  0  0  0  0  0  0  0  0
   36.6660   27.7860   33.1400 C   0  0  0  0  0  0  0  0  0  0  0  0
   37.4870   26.6630   32.5160 C   0  0  1  0  0  0  0  0  0  0  0  0
   39.7840   24.4170   34.4950 C   0  0  0  0  0  0  0  0  0  0  0  0
   38.7230   24.8490   33.6710 C   0  0  0  0  0  0  0  0  0  0  0  0
   38.5950   26.2360   33.3730 C   0  0  0  0  0  0  0  0  0  0  0  0
   39.5040   27.1110   33.8940 N   0  0  0  0  0  0  0  0  0  0  0  0
   40.5190   26.6440   34.6910 C   0  0  0  0  0  0  0  0  0  0  0  0
   40.6600   25.3080   34.9910 N   0  0  0  0  0  0  0  0  0  0  0  0
   36.6010   25.5460   32.0670 C   0  0  0  0  0  0  0  0  0  0  0  0
   37.1934   30.6502   29.6092 H   0  0  0  0  0  0  0  0  0  0  0  0
   35.8480   32.0465   31.4570 H   0  0  0  0  0  0  0  0  0  0  0  0
   36.7280   31.7031   35.0549 H   0  0  0  0  0  0  0  0  0  0  0  0
   30.6389   29.2830   35.3525 H   0  0  0  0  0  0  0  0  0  0  0  0
   31.4036   27.9033   32.0570 H   0  0  0  0  0  0  0  0  0  0  0  0
   30.1410   28.0189   33.3120 H   0  0  0  0  0  0  0  0  0  0  0  0
   37.1210   28.0546   34.1048 H   0  0  0  0  0  0  0  0  0  0  0  0
   35.6383   27.4102   33.2522 H   0  0  0  0  0  0  0  0  0  0  0  0
   37.9748   27.0567   31.6121 H   0  0  0  0  0  0  0  0  0  0  0  0
   39.8946   23.3486   34.7321 H   0  0  0  0  0  0  0  0  0  0  0  0
   38.0035   24.1234   33.2637 H   0  0  0  0  0  0  0  0  0  0  0  0
   41.2439   27.3611   35.1037 H   0  0  0  0  0  0  0  0  0  0  0  0
   36.1901   25.0279   32.9461 H   0  0  0  0  0  0  0  0  0  0  0  0
   35.7768   25.9522   31.4623 H   0  0  0  0  0  0  0  0  0  0  0  0
   37.1841   24.8359   31.4623 H   0  0  0  0  0  0  0  0  0  0  0  0
  1  5  1  0
  1 17  1  0
  2  1  1  0
  3  2  2  0
  3  4  1  0
  4  5  2  0
  5  6  1  0
  6 16  1  0
  6  7  1  0
  7  8  2  0
  9 10  1  0
  9  8  1  0
 10 11  2  0
 12 10  1  0
 13 12  1  0
 14 13  1  0
 15 13  2  0
 15 16  1  0
 16  9  2  0
 18 17  1  0
 18 21  1  0
 19 24  2  0
 20 19  1  0
 21 20  2  0
 21 22  1  0
 22 23  2  0
 23 24  1  0
 25 18  1  0
  3 26  1  0
  4 27  1  0
  7 28  1  0
 12 29  1  0
 14 30  1  0
 14 31  1  0
 17 32  1  0
 17 33  1  0
 18 34  1  6
 19 35  1  0
 20 36  1  0
 23 37  1  0
 25 38  1  0
 25 39  1  0
 25 40  1  0
M  ISO  8  26  14  27  14  28  14  29   9  32   8  33   8  34   8  35  14
M  ISO  5  36  14  37  14  38   8  39   8  40   8
M  END
>  <minimizedAffinity>  (1) 
-4.77080345

>  <minimizedRMSD>  (1) 
4.12975025

$$$$
