
     RDKit          3D

 36 38  0  0  1  0  0  0  0  0999 V2000
   38.4320   26.0700   36.6400 C   0  0  0  0  0  0  0  0  0  0  0  0
   38.1270   26.5160   35.3250 N   0  0  0  0  0  0  0  0  0  0  0  0
   36.9080   26.7950   34.8970 N   0  0  0  0  0  0  0  0  0  0  0  0
   36.9070   27.1990   33.6190 C   0  0  0  0  0  0  0  0  0  0  0  0
   38.2010   27.1780   33.2030 C   0  0  0  0  0  0  0  0  0  0  0  0
   38.9510   26.7420   34.3000 C   0  0  0  0  0  0  0  0  0  0  0  0
   40.3980   26.6100   34.2110 C   0  0  0  0  0  0  0  0  0  0  0  0
   41.2610   25.7940   34.9080 C   0  0  0  0  0  0  0  0  0  0  0  0
   42.6200   25.8200   34.6870 C   0  0  0  0  0  0  0  0  0  0  0  0
   43.2020   26.6520   33.7690 C   0  0  0  0  0  0  0  0  0  0  0  0
   42.3880   27.4920   33.0400 C   0  0  0  0  0  0  0  0  0  0  0  0
   41.0300   27.4460   33.2800 C   0  0  0  0  0  0  0  0  0  0  0  0
   37.9820   24.6420   36.9290 C   0  0  1  0  0  0  0  0  0  0  0  0
   40.7400   22.1200   36.3600 C   0  0  0  0  0  0  0  0  0  0  0  0
   39.9110   23.0780   36.9680 C   0  0  0  0  0  0  0  0  0  0  0  0
   38.8170   23.6500   36.2560 C   0  0  0  0  0  0  0  0  0  0  0  0
   38.6060   23.2360   34.9750 N   0  0  0  0  0  0  0  0  0  0  0  0
   39.4300   22.3010   34.4110 C   0  0  0  0  0  0  0  0  0  0  0  0
   40.4890   21.7420   35.0880 N   0  0  0  0  0  0  0  0  0  0  0  0
   37.8380   24.4130   38.3990 C   0  0  0  0  0  0  0  0  0  0  0  0
   37.9361   26.7410   37.3568 H   0  0  0  0  0  0  0  0  0  0  0  0
   39.5277   26.0846   36.7356 H   0  0  0  0  0  0  0  0  0  0  0  0
   36.0298   27.4908   33.0228 H   0  0  0  0  0  0  0  0  0  0  0  0
   38.5808   27.4487   32.2068 H   0  0  0  0  0  0  0  0  0  0  0  0
   40.8541   25.1032   35.6611 H   0  0  0  0  0  0  0  0  0  0  0  0
   43.2632   25.1455   35.2712 H   0  0  0  0  0  0  0  0  0  0  0  0
   44.2914   26.6502   33.6170 H   0  0  0  0  0  0  0  0  0  0  0  0
   42.8081   28.1781   32.2898 H   0  0  0  0  0  0  0  0  0  0  0  0
   40.3905   28.1210   32.6923 H   0  0  0  0  0  0  0  0  0  0  0  0
   36.9801   24.5064   36.4955 H   0  0  0  0  0  0  0  0  0  0  0  0
   41.5839   21.6829   36.9139 H   0  0  0  0  0  0  0  0  0  0  0  0
   40.1085   23.3896   38.0043 H   0  0  0  0  0  0  0  0  0  0  0  0
   39.2382   21.9837   33.3754 H   0  0  0  0  0  0  0  0  0  0  0  0
   38.3456   25.2203   38.9473 H   0  0  0  0  0  0  0  0  0  0  0  0
   36.7709   24.4032   38.6658 H   0  0  0  0  0  0  0  0  0  0  0  0
   38.2915   23.4470   38.6658 H   0  0  0  0  0  0  0  0  0  0  0  0
  1 13  1  0
  2  1  1  0
  3  2  1  0
  4  3  2  0
  5  4  1  0
  5  6  2  0
  6  2  1  0
  7  6  1  0
  7  8  2  0
  9  8  1  0
 10  9  2  0
 11 12  2  0
 11 10  1  0
 12  7  1  0
 13 20  1  0
 14 15  2  0
 16 13  1  0
 16 15  1  0
 17 16  2  0
 18 17  1  0
 18 19  2  0
 19 14  1  0
  1 21  1  0
  1 22  1  0
  4 23  1  0
  5 24  1  0
  8 25  1  0
  9 26  1  0
 10 27  1  0
 11 28  1  0
 12 29  1  0
 13 30  1  6
 14 31  1  0
 15 32  1  0
 18 33  1  0
 20 34  1  0
 20 35  1  0
 20 36  1  0
M  ISO  8  21   8  22   8  23  14  24  14  25  14  26  14  27  14  28  14
M  ISO  8  29  14  30   8  31  14  32  14  33  14  34   8  35   8  36   8
M  END
>  <minimizedAffinity>  (1) 
-4.51370907

>  <minimizedRMSD>  (1) 
4.50629854

$$$$
