
     RDKit          3D

 33 35  0  0  1  0  0  0  0  0999 V2000
   37.9930   24.8730   36.5910 C   0  0  1  0  0  0  0  0  0  0  0  0
   40.7470   22.4760   35.6720 C   0  0  0  0  0  0  0  0  0  0  0  0
   39.9650   23.4080   36.3730 C   0  0  0  0  0  0  0  0  0  0  0  0
   38.7550   23.9110   35.8150 C   0  0  0  0  0  0  0  0  0  0  0  0
   38.3750   23.4660   34.5850 N   0  0  0  0  0  0  0  0  0  0  0  0
   39.1630   22.5530   33.9250 C   0  0  0  0  0  0  0  0  0  0  0  0
   40.3360   22.0550   34.4470 N   0  0  0  0  0  0  0  0  0  0  0  0
   37.7810   24.4900   38.0210 C   0  0  0  0  0  0  0  0  0  0  0  0
   38.5420   26.2910   36.4920 C   0  0  0  0  0  0  0  0  0  0  0  0
   39.1160   26.6020   35.2210 N   0  0  0  0  0  0  0  0  0  0  0  0
   40.3980   26.6180   34.9650 N   0  0  0  0  0  0  0  0  0  0  0  0
   40.6470   26.9490   33.6710 C   0  0  0  0  0  0  0  0  0  0  0  0
   39.4310   27.1530   33.0840 C   0  0  0  0  0  0  0  0  0  0  0  0
   38.5000   26.9280   34.0820 C   0  0  0  0  0  0  0  0  0  0  0  0
   37.0390   27.0510   33.8470 C   0  0  0  0  0  0  0  0  0  0  0  0
   36.5590   28.2070   32.9630 C   0  0  0  0  0  0  0  0  0  0  0  0
   36.3330   28.2840   34.4030 C   0  0  0  0  0  0  0  0  0  0  0  0
   37.0014   24.8571   36.1151 H   0  0  0  0  0  0  0  0  0  0  0  0
   41.6805   22.0915   36.1088 H   0  0  0  0  0  0  0  0  0  0  0  0
   40.2908   23.7538   37.3651 H   0  0  0  0  0  0  0  0  0  0  0  0
   38.8412   22.2037   32.9328 H   0  0  0  0  0  0  0  0  0  0  0  0
   38.2093   25.2637   38.6752 H   0  0  0  0  0  0  0  0  0  0  0  0
   36.7031   24.3972   38.2198 H   0  0  0  0  0  0  0  0  0  0  0  0
   38.2747   23.5273   38.2198 H   0  0  0  0  0  0  0  0  0  0  0  0
   37.7186   26.9953   36.6819 H   0  0  0  0  0  0  0  0  0  0  0  0
   39.3484   26.3739   37.2355 H   0  0  0  0  0  0  0  0  0  0  0  0
   41.6330   27.0355   33.1911 H   0  0  0  0  0  0  0  0  0  0  0  0
   39.2338   27.4361   32.0395 H   0  0  0  0  0  0  0  0  0  0  0  0
   36.8860   25.9624   33.8869 H   0  0  0  0  0  0  0  0  0  0  0  0
   37.2940   28.8740   32.4888 H   0  0  0  0  0  0  0  0  0  0  0  0
   35.9119   28.2816   32.0766 H   0  0  0  0  0  0  0  0  0  0  0  0
   35.3111   28.1944   34.8000 H   0  0  0  0  0  0  0  0  0  0  0  0
   36.5774   29.0234   35.1799 H   0  0  0  0  0  0  0  0  0  0  0  0
  1  8  1  0
  2  3  2  0
  4  3  1  0
  4  1  1  0
  5  4  2  0
  6  7  2  0
  6  5  1  0
  7  2  1  0
  9  1  1  0
 10  9  1  0
 11 10  1  0
 12 11  2  0
 13 12  1  0
 13 14  2  0
 14 10  1  0
 15 14  1  0
 15 17  1  0
 16 15  1  0
 16 17  1  0
  1 18  1  6
  2 19  1  0
  3 20  1  0
  6 21  1  0
  8 22  1  0
  8 23  1  0
  8 24  1  0
  9 25  1  0
  9 26  1  0
 12 27  1  0
 13 28  1  0
 15 29  1  0
 16 30  1  0
 16 31  1  0
 17 32  1  0
 17 33  1  0
M  ISO  8  18   8  19  14  20  14  21  14  22   8  23   8  24   8  25   8
M  ISO  8  26   8  27  14  28  14  29  13  30  13  31  13  32  13  33  13
M  END
>  <minimizedAffinity>  (1) 
-3.99254012

>  <minimizedRMSD>  (1) 
1.37862444

$$$$
