
     RDKit          3D

 33 35  0  0  1  0  0  0  0  0999 V2000
   38.2950   26.0980   36.5200 C   0  0  0  0  0  0  0  0  0  0  0  0
   38.0140   26.5730   35.2090 N   0  0  0  0  0  0  0  0  0  0  0  0
   36.8250   27.0070   34.8250 N   0  0  0  0  0  0  0  0  0  0  0  0
   36.8280   27.4040   33.5450 C   0  0  0  0  0  0  0  0  0  0  0  0
   38.0940   27.2060   33.1000 C   0  0  0  0  0  0  0  0  0  0  0  0
   38.8350   26.6770   34.1700 C   0  0  0  0  0  0  0  0  0  0  0  0
   40.2370   26.3480   33.9900 C   0  0  0  0  0  0  0  0  0  0  0  0
   40.9400   25.4190   33.2670 C   0  0  0  0  0  0  0  0  0  0  0  0
   42.2970   25.5070   33.4160 C   0  0  0  0  0  0  0  0  0  0  0  0
   42.4300   26.5330   34.2670 N   0  0  0  0  0  0  0  0  0  0  0  0
   41.2430   27.0090   34.5900 N   0  0  0  0  0  0  0  0  0  0  0  0
   37.8900   24.6630   36.7630 C   0  0  1  0  0  0  0  0  0  0  0  0
   40.7490   22.4970   35.5660 C   0  0  0  0  0  0  0  0  0  0  0  0
   39.9960   23.4100   36.3340 C   0  0  0  0  0  0  0  0  0  0  0  0
   38.6800   23.7180   35.9530 C   0  0  0  0  0  0  0  0  0  0  0  0
   38.1530   23.1210   34.8340 N   0  0  0  0  0  0  0  0  0  0  0  0
   38.9080   22.2400   34.1100 C   0  0  0  0  0  0  0  0  0  0  0  0
   40.2000   21.9260   34.4710 N   0  0  0  0  0  0  0  0  0  0  0  0
   37.9190   24.3380   38.2310 C   0  0  0  0  0  0  0  0  0  0  0  0
   37.7576   26.7338   37.2390 H   0  0  0  0  0  0  0  0  0  0  0  0
   39.3873   26.1414   36.6427 H   0  0  0  0  0  0  0  0  0  0  0  0
   35.9791   27.8072   32.9733 H   0  0  0  0  0  0  0  0  0  0  0  0
   38.4706   27.4199   32.0889 H   0  0  0  0  0  0  0  0  0  0  0  0
   40.4557   24.6693   32.6241 H   0  0  0  0  0  0  0  0  0  0  0  0
   43.0817   24.8903   32.9534 H   0  0  0  0  0  0  0  0  0  0  0  0
   43.3275   26.8968   34.6177 H   0  0  0  0  0  0  0  0  0  0  0  0
   36.8492   24.5458   36.4269 H   0  0  0  0  0  0  0  0  0  0  0  0
   41.7805   22.2505   35.8578 H   0  0  0  0  0  0  0  0  0  0  0  0
   40.4373   23.8780   37.2263 H   0  0  0  0  0  0  0  0  0  0  0  0
   38.4723   21.7698   33.2161 H   0  0  0  0  0  0  0  0  0  0  0  0
   37.8361   25.2671   38.8139 H   0  0  0  0  0  0  0  0  0  0  0  0
   37.0765   23.6747   38.4764 H   0  0  0  0  0  0  0  0  0  0  0  0
   38.8657   23.8344   38.4764 H   0  0  0  0  0  0  0  0  0  0  0  0
  1 12  1  0
  2  1  1  0
  3  2  1  0
  4  3  2  0
  5  4  1  0
  5  6  2  0
  6  2  1  0
  7  6  1  0
  7 11  2  0
  8  9  2  0
  8  7  1  0
  9 10  1  0
 10 11  1  0
 12 19  1  0
 13 14  2  0
 15 14  1  0
 15 12  1  0
 16 15  2  0
 17 18  2  0
 17 16  1  0
 18 13  1  0
  1 20  1  0
  1 21  1  0
  4 22  1  0
  5 23  1  0
  8 24  1  0
  9 25  1  0
 10 26  1  0
 12 27  1  6
 13 28  1  0
 14 29  1  0
 17 30  1  0
 19 31  1  0
 19 32  1  0
 19 33  1  0
M  ISO  8  20   8  21   8  22  14  23  14  24  14  25  14  26   9  27   8
M  ISO  6  28  14  29  14  30  14  31   8  32   8  33   8
M  END
>  <minimizedAffinity>  (1) 
-3.97538209

>  <minimizedRMSD>  (1) 
3.91601872

$$$$
