
     RDKit          3D

 33 35  0  0  1  0  0  0  0  0999 V2000
   38.3740   26.1280   36.4750 C   0  0  0  0  0  0  0  0  0  0  0  0
   38.0250   26.6490   35.2000 N   0  0  0  0  0  0  0  0  0  0  0  0
   36.8520   27.1970   34.9290 N   0  0  0  0  0  0  0  0  0  0  0  0
   36.7760   27.6160   33.6600 C   0  0  0  0  0  0  0  0  0  0  0  0
   37.9710   27.3150   33.0950 C   0  0  0  0  0  0  0  0  0  0  0  0
   38.7510   26.7000   34.0900 C   0  0  0  0  0  0  0  0  0  0  0  0
   40.0940   26.2390   33.8170 C   0  0  0  0  0  0  0  0  0  0  0  0
   41.2680   26.9280   34.1440 C   0  0  0  0  0  0  0  0  0  0  0  0
   42.3870   26.2800   33.7860 N   0  0  0  0  0  0  0  0  0  0  0  0
   41.9650   25.1420   33.2120 C   0  0  0  0  0  0  0  0  0  0  0  0
   40.6240   25.1520   33.2470 N   0  0  0  0  0  0  0  0  0  0  0  0
   37.9240   24.6960   36.7050 C   0  0  1  0  0  0  0  0  0  0  0  0
   40.7540   22.4520   35.5920 C   0  0  0  0  0  0  0  0  0  0  0  0
   40.0010   23.3770   36.3460 C   0  0  0  0  0  0  0  0  0  0  0  0
   38.7100   23.7370   35.9110 C   0  0  0  0  0  0  0  0  0  0  0  0
   38.2160   23.1760   34.7600 N   0  0  0  0  0  0  0  0  0  0  0  0
   38.9690   22.2860   34.0560 C   0  0  0  0  0  0  0  0  0  0  0  0
   40.2300   21.9190   34.4590 N   0  0  0  0  0  0  0  0  0  0  0  0
   37.9000   24.3670   38.1680 C   0  0  0  0  0  0  0  0  0  0  0  0
   37.9124   26.7629   37.2456 H   0  0  0  0  0  0  0  0  0  0  0  0
   39.4728   26.1270   36.5268 H   0  0  0  0  0  0  0  0  0  0  0  0
   35.9186   28.1050   33.1745 H   0  0  0  0  0  0  0  0  0  0  0  0
   38.2728   27.5140   32.0561 H   0  0  0  0  0  0  0  0  0  0  0  0
   41.2726   27.9067   34.6462 H   0  0  0  0  0  0  0  0  0  0  0  0
   42.6006   24.3489   32.7913 H   0  0  0  0  0  0  0  0  0  0  0  0
   40.0504   24.3859   32.8664 H   0  0  0  0  0  0  0  0  0  0  0  0
   36.8893   24.6041   36.3431 H   0  0  0  0  0  0  0  0  0  0  0  0
   41.7631   22.1636   35.9216 H   0  0  0  0  0  0  0  0  0  0  0  0
   40.4183   23.8133   37.2655 H   0  0  0  0  0  0  0  0  0  0  0  0
   38.5547   21.8474   33.1362 H   0  0  0  0  0  0  0  0  0  0  0  0
   37.9677   25.2956   38.7538 H   0  0  0  0  0  0  0  0  0  0  0  0
   36.9616   23.8474   38.4116 H   0  0  0  0  0  0  0  0  0  0  0  0
   38.7531   23.7167   38.4116 H   0  0  0  0  0  0  0  0  0  0  0  0
  1 12  1  0
  2  1  1  0
  3  2  1  0
  4  3  2  0
  5  4  1  0
  5  6  2  0
  6  2  1  0
  7  6  1  0
  7  8  2  0
  9  8  1  0
 10 11  1  0
 10  9  2  0
 11  7  1  0
 12 19  1  0
 13 14  2  0
 15 14  1  0
 15 12  1  0
 16 15  2  0
 17 18  2  0
 17 16  1  0
 18 13  1  0
  1 20  1  0
  1 21  1  0
  4 22  1  0
  5 23  1  0
  8 24  1  0
 10 25  1  0
 11 26  1  0
 12 27  1  6
 13 28  1  0
 14 29  1  0
 17 30  1  0
 19 31  1  0
 19 32  1  0
 19 33  1  0
M  ISO  8  20   8  21   8  22  14  23  14  24  14  25  14  26   9  27   8
M  ISO  6  28  14  29  14  30  14  31   8  32   8  33   8
M  END
>  <minimizedAffinity>  (1) 
-3.8881433

>  <minimizedRMSD>  (1) 
3.91276574

$$$$
