
     RDKit          3D

 29 30  0  0  1  0  0  0  0  0999 V2000
   37.9870   24.7610   36.8030 C   0  0  1  0  0  0  0  0  0  0  0  0
   40.6580   22.3760   35.6560 C   0  0  0  0  0  0  0  0  0  0  0  0
   39.9350   23.2890   36.4490 C   0  0  0  0  0  0  0  0  0  0  0  0
   38.7060   23.8200   35.9580 C   0  0  0  0  0  0  0  0  0  0  0  0
   38.2600   23.4320   34.7330 N   0  0  0  0  0  0  0  0  0  0  0  0
   38.9900   22.5430   33.9930 C   0  0  0  0  0  0  0  0  0  0  0  0
   40.1810   22.0110   34.4390 N   0  0  0  0  0  0  0  0  0  0  0  0
   37.8690   24.3510   38.2350 C   0  0  0  0  0  0  0  0  0  0  0  0
   38.5260   26.1840   36.7120 C   0  0  0  0  0  0  0  0  0  0  0  0
   38.9630   26.5490   35.3920 N   0  0  0  0  0  0  0  0  0  0  0  0
   40.1990   26.5050   34.9760 N   0  0  0  0  0  0  0  0  0  0  0  0
   40.3210   26.9010   33.6960 C   0  0  0  0  0  0  0  0  0  0  0  0
   39.0660   27.2170   33.2790 C   0  0  0  0  0  0  0  0  0  0  0  0
   38.2310   26.9870   34.3620 C   0  0  0  0  0  0  0  0  0  0  0  0
   36.7730   27.2090   34.3280 C   0  0  0  0  0  0  0  0  0  0  0  0
   36.9706   24.7448   36.3828 H   0  0  0  0  0  0  0  0  0  0  0  0
   41.6078   21.9596   36.0228 H   0  0  0  0  0  0  0  0  0  0  0  0
   40.3147   23.5891   37.4368 H   0  0  0  0  0  0  0  0  0  0  0  0
   38.6126   22.2412   33.0048 H   0  0  0  0  0  0  0  0  0  0  0  0
   38.1149   25.2055   38.8825 H   0  0  0  0  0  0  0  0  0  0  0  0
   36.8395   24.0212   38.4383 H   0  0  0  0  0  0  0  0  0  0  0  0
   38.5657   23.5244   38.4383 H   0  0  0  0  0  0  0  0  0  0  0  0
   37.7299   26.8781   37.0194 H   0  0  0  0  0  0  0  0  0  0  0  0
   39.4054   26.2393   37.3705 H   0  0  0  0  0  0  0  0  0  0  0  0
   41.2479   26.9576   33.1065 H   0  0  0  0  0  0  0  0  0  0  0  0
   38.7723   27.5815   32.2836 H   0  0  0  0  0  0  0  0  0  0  0  0
   36.3870   27.2678   35.3564 H   0  0  0  0  0  0  0  0  0  0  0  0
   36.5576   28.1503   33.8011 H   0  0  0  0  0  0  0  0  0  0  0  0
   36.2872   26.3745   33.8011 H   0  0  0  0  0  0  0  0  0  0  0  0
  1  8  1  0
  2  3  2  0
  4  3  1  0
  4  1  1  0
  5  4  2  0
  6  7  2  0
  6  5  1  0
  7  2  1  0
  9  1  1  0
 10  9  1  0
 11 10  1  0
 12 11  2  0
 13 12  1  0
 13 14  2  0
 14 10  1  0
 15 14  1  0
  1 16  1  6
  2 17  1  0
  3 18  1  0
  6 19  1  0
  8 20  1  0
  8 21  1  0
  8 22  1  0
  9 23  1  0
  9 24  1  0
 12 25  1  0
 13 26  1  0
 15 27  1  0
 15 28  1  0
 15 29  1  0
M  ISO  8  16   8  17  14  18  14  19  14  20   8  21   8  22   8  23   8
M  ISO  6  24   8  25  14  26  14  27   8  28   8  29   8
M  END
>  <minimizedAffinity>  (1) 
-3.49607944

>  <minimizedRMSD>  (1) 
0.972789884

$$$$
