
     RDKit          3D

 44 48  0  0  1  0  0  0  0  0999 V2000
   39.0190   24.5740   35.9030 C   0  0  0  0  0  0  0  0  0  0  0  0
   39.9400   25.4050   35.2040 N   0  0  0  0  0  0  0  0  0  0  0  0
   41.2220   25.1870   35.1500 N   0  0  0  0  0  0  0  0  0  0  0  0
   41.8680   26.1320   34.4180 C   0  0  0  0  0  0  0  0  0  0  0  0
   40.9020   26.9950   33.9920 C   0  0  0  0  0  0  0  0  0  0  0  0
   39.6950   26.5170   34.5000 C   0  0  0  0  0  0  0  0  0  0  0  0
   38.3910   27.1040   34.3110 N   0  0  0  0  0  0  0  0  0  0  0  0
   37.5530   27.7190   35.1600 C   0  0  0  0  0  0  0  0  0  0  0  0
   36.4590   28.0800   34.4690 N   0  0  0  0  0  0  0  0  0  0  0  0
   36.6260   27.6850   33.1920 C   0  0  0  0  0  0  0  0  0  0  0  0
   35.7310   27.8630   32.1410 C   0  0  0  0  0  0  0  0  0  0  0  0
   36.1490   27.3680   30.9540 N   0  0  0  0  0  0  0  0  0  0  0  0
   37.3540   26.7540   30.8350 C   0  0  0  0  0  0  0  0  0  0  0  0
   38.2150   26.5860   31.8530 N   0  0  0  0  0  0  0  0  0  0  0  0
   37.8310   27.0710   33.0700 C   0  0  0  0  0  0  0  0  0  0  0  0
   38.9990   23.1330   35.4390 C   0  0  1  0  0  0  0  0  0  0  0  0
   41.5950   21.4770   37.6130 C   0  0  0  0  0  0  0  0  0  0  0  0
   40.4590   22.1880   37.1950 C   0  0  0  0  0  0  0  0  0  0  0  0
   40.1960   22.3870   35.8010 C   0  0  0  0  0  0  0  0  0  0  0  0
   41.0620   21.8770   34.9060 N   0  0  0  0  0  0  0  0  0  0  0  0
   42.1660   21.1850   35.3520 C   0  0  0  0  0  0  0  0  0  0  0  0
   42.4370   20.9830   36.6770 N   0  0  0  0  0  0  0  0  0  0  0  0
   37.7070   22.4780   35.8570 C   0  0  0  0  0  0  0  0  0  0  0  0
   37.0690   21.6880   34.7710 C   0  0  0  0  0  0  0  0  0  0  0  0
   35.9150   20.9360   34.9380 C   0  0  0  0  0  0  0  0  0  0  0  0
   35.5970   20.3330   33.7380 C   0  0  0  0  0  0  0  0  0  0  0  0
   36.6020   20.7580   32.8640 C   0  0  0  0  0  0  0  0  0  0  0  0
   37.4200   21.5370   33.5210 O   0  0  0  0  0  0  0  0  0  0  0  0
   39.2848   24.5880   36.9703 H   0  0  0  0  0  0  0  0  0  0  0  0
   38.0165   24.9812   35.7050 H   0  0  0  0  0  0  0  0  0  0  0  0
   42.9470   26.1891   34.2117 H   0  0  0  0  0  0  0  0  0  0  0  0
   41.0465   27.8910   33.3705 H   0  0  0  0  0  0  0  0  0  0  0  0
   37.7304   27.8960   36.2311 H   0  0  0  0  0  0  0  0  0  0  0  0
   34.7609   28.3663   32.2660 H   0  0  0  0  0  0  0  0  0  0  0  0
   37.6431   26.3708   29.8453 H   0  0  0  0  0  0  0  0  0  0  0  0
   39.0277   23.1264   34.3394 H   0  0  0  0  0  0  0  0  0  0  0  0
   41.7968   21.3243   38.6835 H   0  0  0  0  0  0  0  0  0  0  0  0
   39.7648   22.5959   37.9445 H   0  0  0  0  0  0  0  0  0  0  0  0
   42.8633   20.7751   34.6065 H   0  0  0  0  0  0  0  0  0  0  0  0
   37.9143   21.8054   36.7023 H   0  0  0  0  0  0  0  0  0  0  0  0
   37.0074   23.2822   36.1286 H   0  0  0  0  0  0  0  0  0  0  0  0
   35.3462   20.8366   35.8743 H   0  0  0  0  0  0  0  0  0  0  0  0
   34.7472   19.6697   33.5193 H   0  0  0  0  0  0  0  0  0  0  0  0
   36.6894   20.4831   31.8025 H   0  0  0  0  0  0  0  0  0  0  0  0
  2  1  1  0
  3  2  1  0
  4  3  2  0
  5  4  1  0
  5  6  2  0
  6  2  1  0
  7  6  1  0
  7  8  1  0
  9  8  2  0
 10  9  1  0
 11 10  2  0
 12 11  1  0
 13 12  2  0
 13 14  1  0
 14 15  2  0
 15 10  1  0
 15  7  1  0
 16 19  1  0
 16 23  1  0
 16  1  1  0
 18 17  2  0
 19 18  1  0
 20 21  1  0
 20 19  2  0
 21 22  2  0
 22 17  1  0
 24 25  2  0
 24 23  1  0
 26 25  1  0
 27 28  1  0
 27 26  2  0
 28 24  1  0
  1 29  1  0
  1 30  1  0
  4 31  1  0
  5 32  1  0
  8 33  1  0
 11 34  1  0
 13 35  1  0
 16 36  1  6
 17 37  1  0
 18 38  1  0
 21 39  1  0
 23 40  1  0
 23 41  1  0
 25 42  1  0
 26 43  1  0
 27 44  1  0
M  ISO  8  29   8  30   8  31  14  32  14  33  14  34  14  35  14  36   8
M  ISO  8  37  14  38  14  39  14  40   8  41   8  42  14  43  14  44  14
M  END
>  <minimizedAffinity>  (1) 
-5.54777813

>  <minimizedRMSD>  (1) 
0.823345006

$$$$
