
     RDKit          3D

 50 54  0  0  1  0  0  0  0  0999 V2000
   39.0390   24.6160   35.7710 C   0  0  0  0  0  0  0  0  0  0  0  0
   39.9510   25.4820   35.1030 N   0  0  0  0  0  0  0  0  0  0  0  0
   41.2330   25.2820   35.0400 N   0  0  0  0  0  0  0  0  0  0  0  0
   41.8670   26.2620   34.3440 C   0  0  0  0  0  0  0  0  0  0  0  0
   40.8900   27.1290   33.9520 C   0  0  0  0  0  0  0  0  0  0  0  0
   39.6950   26.6180   34.4410 C   0  0  0  0  0  0  0  0  0  0  0  0
   38.3820   27.1970   34.2770 N   0  0  0  0  0  0  0  0  0  0  0  0
   37.5320   27.7530   35.1470 C   0  0  0  0  0  0  0  0  0  0  0  0
   36.4330   28.1390   34.4740 N   0  0  0  0  0  0  0  0  0  0  0  0
   36.6130   27.8110   33.1720 C   0  0  0  0  0  0  0  0  0  0  0  0
   35.7150   28.0320   32.1330 C   0  0  0  0  0  0  0  0  0  0  0  0
   36.1510   27.6020   30.9180 N   0  0  0  0  0  0  0  0  0  0  0  0
   37.3670   27.0120   30.7770 C   0  0  0  0  0  0  0  0  0  0  0  0
   38.2270   26.8030   31.7880 N   0  0  0  0  0  0  0  0  0  0  0  0
   37.8280   27.2200   33.0280 C   0  0  0  0  0  0  0  0  0  0  0  0
   39.0310   23.1980   35.2430 C   0  0  1  0  0  0  0  0  0  0  0  0
   41.4750   21.4710   37.5470 C   0  0  0  0  0  0  0  0  0  0  0  0
   40.3790   22.2120   37.0770 C   0  0  0  0  0  0  0  0  0  0  0  0
   40.1930   22.4170   35.6700 C   0  0  0  0  0  0  0  0  0  0  0  0
   41.0920   21.8820   34.8260 N   0  0  0  0  0  0  0  0  0  0  0  0
   42.1560   21.1610   35.3200 C   0  0  0  0  0  0  0  0  0  0  0  0
   42.3560   20.9510   36.6560 N   0  0  0  0  0  0  0  0  0  0  0  0
   37.7080   22.5340   35.5370 C   0  0  0  0  0  0  0  0  0  0  0  0
   37.3880   21.6230   34.3770 C   0  0  0  0  0  0  0  0  0  0  0  0
   36.0380   20.9340   34.5780 C   0  0  0  0  0  0  0  0  0  0  0  0
   35.7430   20.4980   33.1570 C   0  0  0  0  0  0  0  0  0  0  0  0
   35.9240   21.8490   32.4500 C   0  0  0  0  0  0  0  0  0  0  0  0
   37.1870   22.3720   33.0950 C   0  0  0  0  0  0  0  0  0  0  0  0
   39.3095   24.5858   36.8368 H   0  0  0  0  0  0  0  0  0  0  0  0
   38.0319   25.0234   35.5985 H   0  0  0  0  0  0  0  0  0  0  0  0
   42.9450   26.3398   34.1392 H   0  0  0  0  0  0  0  0  0  0  0  0
   41.0223   28.0499   33.3652 H   0  0  0  0  0  0  0  0  0  0  0  0
   37.7022   27.8739   36.2270 H   0  0  0  0  0  0  0  0  0  0  0  0
   34.7368   28.5129   32.2809 H   0  0  0  0  0  0  0  0  0  0  0  0
   37.6665   26.6845   29.7705 H   0  0  0  0  0  0  0  0  0  0  0  0
   39.1325   23.2457   34.1487 H   0  0  0  0  0  0  0  0  0  0  0  0
   41.6178   21.3137   38.6263 H   0  0  0  0  0  0  0  0  0  0  0  0
   39.6593   22.6375   37.7918 H   0  0  0  0  0  0  0  0  0  0  0  0
   42.8776   20.7348   34.6075 H   0  0  0  0  0  0  0  0  0  0  0  0
   37.7802   21.9483   36.4653 H   0  0  0  0  0  0  0  0  0  0  0  0
   36.9173   23.2877   35.6664 H   0  0  0  0  0  0  0  0  0  0  0  0
   38.2416   20.9308   34.3299 H   0  0  0  0  0  0  0  0  0  0  0  0
   36.1173   20.0742   35.2595 H   0  0  0  0  0  0  0  0  0  0  0  0
   35.2625   21.5651   35.0366 H   0  0  0  0  0  0  0  0  0  0  0  0
   36.4609   19.7454   32.7988 H   0  0  0  0  0  0  0  0  0  0  0  0
   34.7690   20.0102   33.0039 H   0  0  0  0  0  0  0  0  0  0  0  0
   35.0713   22.5174   32.6402 H   0  0  0  0  0  0  0  0  0  0  0  0
   35.9834   21.7727   31.3543 H   0  0  0  0  0  0  0  0  0  0  0  0
   38.0449   22.2073   32.4265 H   0  0  0  0  0  0  0  0  0  0  0  0
   37.1019   23.4514   33.2889 H   0  0  0  0  0  0  0  0  0  0  0  0
  2  1  1  0
  3  2  1  0
  4  3  2  0
  5  4  1  0
  5  6  2  0
  6  2  1  0
  7  6  1  0
  7  8  1  0
  9  8  2  0
 10  9  1  0
 11 10  2  0
 12 11  1  0
 13 12  2  0
 13 14  1  0
 14 15  2  0
 15 10  1  0
 15  7  1  0
 16 23  1  0
 16 19  1  0
 16  1  1  0
 18 17  2  0
 19 18  1  0
 20 21  1  0
 20 19  2  0
 21 22  2  0
 22 17  1  0
 24 25  1  0
 24 23  1  0
 26 25  1  0
 27 28  1  0
 27 26  1  0
 28 24  1  0
  1 29  1  0
  1 30  1  0
  4 31  1  0
  5 32  1  0
  8 33  1  0
 11 34  1  0
 13 35  1  0
 16 36  1  6
 17 37  1  0
 18 38  1  0
 21 39  1  0
 23 40  1  0
 23 41  1  0
 24 42  1  0
 25 43  1  0
 25 44  1  0
 26 45  1  0
 26 46  1  0
 27 47  1  0
 27 48  1  0
 28 49  1  0
 28 50  1  0
M  ISO  8  29   8  30   8  31  14  32  14  33  14  34  14  35  14  36   8
M  ISO  8  37  14  38  14  39  14  40   8  41   8  42  13  43  13  44  13
M  ISO  6  45  13  46  13  47  13  48  13  49  13  50  13
M  END
>  <minimizedAffinity>  (1) 
-5.54251528

>  <minimizedRMSD>  (1) 
0.789590001

$$$$
