
     RDKit          3D

 50 54  0  0  1  0  0  0  0  0999 V2000
   39.1270   24.3370   35.4400 C   0  0  0  0  0  0  0  0  0  0  0  0
   40.0530   25.3270   34.9360 N   0  0  0  0  0  0  0  0  0  0  0  0
   41.3350   25.1720   34.9170 N   0  0  0  0  0  0  0  0  0  0  0  0
   41.9710   26.2570   34.4020 C   0  0  0  0  0  0  0  0  0  0  0  0
   40.9820   27.1390   34.0860 C   0  0  0  0  0  0  0  0  0  0  0  0
   39.7730   26.5330   34.4300 C   0  0  0  0  0  0  0  0  0  0  0  0
   38.4550   27.0920   34.2740 N   0  0  0  0  0  0  0  0  0  0  0  0
   37.5890   27.6090   35.1810 C   0  0  0  0  0  0  0  0  0  0  0  0
   36.4890   27.9990   34.5050 N   0  0  0  0  0  0  0  0  0  0  0  0
   36.6850   27.7200   33.1900 C   0  0  0  0  0  0  0  0  0  0  0  0
   35.7880   27.9680   32.1670 C   0  0  0  0  0  0  0  0  0  0  0  0
   36.2390   27.5850   30.9290 N   0  0  0  0  0  0  0  0  0  0  0  0
   37.4590   27.0180   30.7750 C   0  0  0  0  0  0  0  0  0  0  0  0
   38.3140   26.7890   31.7880 N   0  0  0  0  0  0  0  0  0  0  0  0
   37.9050   27.1570   33.0420 C   0  0  0  0  0  0  0  0  0  0  0  0
   39.3250   22.9550   34.8550 C   0  0  1  0  0  0  0  0  0  0  0  0
   41.4610   21.4850   37.6140 C   0  0  0  0  0  0  0  0  0  0  0  0
   40.4470   22.1500   36.9240 C   0  0  0  0  0  0  0  0  0  0  0  0
   40.4340   22.2410   35.5060 C   0  0  0  0  0  0  0  0  0  0  0  0
   41.4630   21.6490   34.8310 N   0  0  0  0  0  0  0  0  0  0  0  0
   42.4470   21.0030   35.5320 C   0  0  0  0  0  0  0  0  0  0  0  0
   42.4570   20.9160   36.8970 N   0  0  0  0  0  0  0  0  0  0  0  0
   38.0660   22.1810   34.8110 C   0  0  0  0  0  0  0  0  0  0  0  0
   37.2370   22.2460   33.6760 N   0  0  0  0  0  0  0  0  0  0  0  0
   36.2840   21.1320   33.6190 C   0  0  0  0  0  0  0  0  0  0  0  0
   35.4120   21.2320   32.3780 C   0  0  0  0  0  0  0  0  0  0  0  0
   36.1380   21.5420   31.2430 O   0  0  0  0  0  0  0  0  0  0  0  0
   37.4580   21.1710   31.4590 C   0  0  0  0  0  0  0  0  0  0  0  0
   38.0550   22.1010   32.4820 C   0  0  0  0  0  0  0  0  0  0  0  0
   39.2503   24.2717   36.5311 H   0  0  0  0  0  0  0  0  0  0  0  0
   38.1190   24.6654   35.1467 H   0  0  0  0  0  0  0  0  0  0  0  0
   43.0543   26.3939   34.2686 H   0  0  0  0  0  0  0  0  0  0  0  0
   41.1117   28.1380   33.6441 H   0  0  0  0  0  0  0  0  0  0  0  0
   37.7532   27.6943   36.2653 H   0  0  0  0  0  0  0  0  0  0  0  0
   34.8032   28.4300   32.3308 H   0  0  0  0  0  0  0  0  0  0  0  0
   37.7696   26.7272   29.7606 H   0  0  0  0  0  0  0  0  0  0  0  0
   39.6252   23.0811   33.8043 H   0  0  0  0  0  0  0  0  0  0  0  0
   41.4508   21.4250   38.7123 H   0  0  0  0  0  0  0  0  0  0  0  0
   39.6322   22.6185   37.4955 H   0  0  0  0  0  0  0  0  0  0  0  0
   43.2676   20.5322   34.9707 H   0  0  0  0  0  0  0  0  0  0  0  0
   38.3390   21.1238   34.9441 H   0  0  0  0  0  0  0  0  0  0  0  0
   37.4548   22.6497   35.5963 H   0  0  0  0  0  0  0  0  0  0  0  0
   36.8395   20.1829   33.5942 H   0  0  0  0  0  0  0  0  0  0  0  0
   35.6383   21.1740   34.5085 H   0  0  0  0  0  0  0  0  0  0  0  0
   34.9089   20.2663   32.2219 H   0  0  0  0  0  0  0  0  0  0  0  0
   34.6883   22.0437   32.5432 H   0  0  0  0  0  0  0  0  0  0  0  0
   37.4965   20.1365   31.8309 H   0  0  0  0  0  0  0  0  0  0  0  0
   38.0251   21.2317   30.5184 H   0  0  0  0  0  0  0  0  0  0  0  0
   39.0388   21.7083   32.7786 H   0  0  0  0  0  0  0  0  0  0  0  0
   38.1282   23.0943   32.0152 H   0  0  0  0  0  0  0  0  0  0  0  0
  2  1  1  0
  3  2  1  0
  4  3  2  0
  5  4  1  0
  5  6  2  0
  6  2  1  0
  7  6  1  0
  7  8  1  0
  9  8  2  0
 10  9  1  0
 11 10  2  0
 12 11  1  0
 13 12  2  0
 13 14  1  0
 14 15  2  0
 15 10  1  0
 15  7  1  0
 16  1  1  0
 16 19  1  0
 18 17  2  0
 19 18  1  0
 20 19  2  0
 20 21  1  0
 21 22  2  0
 22 17  1  0
 23 16  1  0
 24 23  1  0
 25 24  1  0
 26 25  1  0
 27 28  1  0
 27 26  1  0
 28 29  1  0
 29 24  1  0
  1 30  1  0
  1 31  1  0
  4 32  1  0
  5 33  1  0
  8 34  1  0
 11 35  1  0
 13 36  1  0
 16 37  1  6
 17 38  1  0
 18 39  1  0
 21 40  1  0
 23 41  1  0
 23 42  1  0
 25 43  1  0
 25 44  1  0
 26 45  1  0
 26 46  1  0
 28 47  1  0
 28 48  1  0
 29 49  1  0
 29 50  1  0
M  ISO  8  30   8  31   8  32  14  33  14  34  14  35  14  36  14  37   8
M  ISO  8  38  14  39  14  40  14  41   8  42   8  43  13  44  13  45  13
M  ISO  5  46  13  47  13  48  13  49  13  50  13
M  END
>  <minimizedAffinity>  (1) 
-5.36383295

>  <minimizedRMSD>  (1) 
1.11493051

$$$$
