
     RDKit          3D

 38 41  0  0  1  0  0  0  0  0999 V2000
   39.3620   24.6080   35.5770 C   0  0  0  0  0  0  0  0  0  0  0  0
   40.1970   25.5800   34.9540 N   0  0  0  0  0  0  0  0  0  0  0  0
   41.5040   25.4850   34.8770 N   0  0  0  0  0  0  0  0  0  0  0  0
   42.0450   26.5470   34.2340 C   0  0  0  0  0  0  0  0  0  0  0  0
   40.9980   27.3550   33.8910 C   0  0  0  0  0  0  0  0  0  0  0  0
   39.8410   26.7230   34.3570 C   0  0  0  0  0  0  0  0  0  0  0  0
   38.4960   27.2070   34.2220 N   0  0  0  0  0  0  0  0  0  0  0  0
   37.6220   27.6710   35.1370 C   0  0  0  0  0  0  0  0  0  0  0  0
   36.4930   27.9970   34.4840 N   0  0  0  0  0  0  0  0  0  0  0  0
   36.6760   27.7340   33.1710 C   0  0  0  0  0  0  0  0  0  0  0  0
   35.7540   27.9290   32.1520 C   0  0  0  0  0  0  0  0  0  0  0  0
   36.2040   27.5760   30.9110 N   0  0  0  0  0  0  0  0  0  0  0  0
   37.4540   27.0820   30.7340 C   0  0  0  0  0  0  0  0  0  0  0  0
   38.3380   26.8980   31.7300 N   0  0  0  0  0  0  0  0  0  0  0  0
   37.9240   27.2400   32.9920 C   0  0  0  0  0  0  0  0  0  0  0  0
   39.4490   23.2310   34.9540 C   0  0  1  0  0  0  0  0  0  0  0  0
   41.4700   21.4570   37.6020 C   0  0  0  0  0  0  0  0  0  0  0  0
   40.4990   22.2550   36.9750 C   0  0  0  0  0  0  0  0  0  0  0  0
   40.4840   22.3880   35.5480 C   0  0  0  0  0  0  0  0  0  0  0  0
   41.4150   21.7370   34.8280 N   0  0  0  0  0  0  0  0  0  0  0  0
   42.3520   20.9630   35.4840 C   0  0  0  0  0  0  0  0  0  0  0  0
   42.3830   20.8240   36.8380 N   0  0  0  0  0  0  0  0  0  0  0  0
   38.0820   22.5950   34.9170 C   0  0  0  0  0  0  0  0  0  0  0  0
   38.1820   21.5300   34.0030 O   0  0  0  0  0  0  0  0  0  0  0  0
   39.6538   24.5282   36.6346 H   0  0  0  0  0  0  0  0  0  0  0  0
   38.3246   24.9504   35.4484 H   0  0  0  0  0  0  0  0  0  0  0  0
   43.1113   26.7234   34.0293 H   0  0  0  0  0  0  0  0  0  0  0  0
   41.0542   28.3135   33.3542 H   0  0  0  0  0  0  0  0  0  0  0  0
   37.7996   27.7655   36.2184 H   0  0  0  0  0  0  0  0  0  0  0  0
   34.7464   28.3334   32.3285 H   0  0  0  0  0  0  0  0  0  0  0  0
   37.7639   26.8154   29.7128 H   0  0  0  0  0  0  0  0  0  0  0  0
   39.7842   23.3479   33.9129 H   0  0  0  0  0  0  0  0  0  0  0  0
   41.4853   21.3504   38.6967 H   0  0  0  0  0  0  0  0  0  0  0  0
   39.7467   22.7802   37.5818 H   0  0  0  0  0  0  0  0  0  0  0  0
   43.1081   20.4345   34.8849 H   0  0  0  0  0  0  0  0  0  0  0  0
   37.8062   22.2203   35.9138 H   0  0  0  0  0  0  0  0  0  0  0  0
   37.3070   23.3157   34.6173 H   0  0  0  0  0  0  0  0  0  0  0  0
   38.2621   20.6765   34.4982 H   0  0  0  0  0  0  0  0  0  0  0  0
  2  1  1  0
  3  2  1  0
  4  3  2  0
  5  4  1  0
  5  6  2  0
  6  2  1  0
  7  6  1  0
  7  8  1  0
  9  8  2  0
 10  9  1  0
 11 10  2  0
 12 11  1  0
 13 12  2  0
 13 14  1  0
 14 15  2  0
 15 10  1  0
 15  7  1  0
 16 19  1  0
 16  1  1  0
 18 17  2  0
 19 18  1  0
 20 21  1  0
 20 19  2  0
 21 22  2  0
 22 17  1  0
 23 16  1  0
 24 23  1  0
  1 25  1  0
  1 26  1  0
  4 27  1  0
  5 28  1  0
  8 29  1  0
 11 30  1  0
 13 31  1  0
 16 32  1  6
 17 33  1  0
 18 34  1  0
 21 35  1  0
 23 36  1  0
 23 37  1  0
 24 38  1  0
M  ISO  8  25   8  26   8  27  14  28  14  29  14  30  14  31  14  32   8
M  ISO  6  33  14  34  14  35  14  36   8  37   8  38   3
M  END
>  <minimizedAffinity>  (1) 
-4.62596464

>  <minimizedRMSD>  (1) 
0.22935845

$$$$
