
     RDKit          3D

 29 30  0  0  0  0  0  0  0  0999 V2000
   40.0060   22.8110   37.9880 C   0  0  0  0  0  0  0  0  0  0  0  0
   38.9470   23.3620   38.7430 C   0  0  0  0  0  0  0  0  0  0  0  0
   37.6920   23.5390   38.0950 C   0  0  0  0  0  0  0  0  0  0  0  0
   37.6110   23.1590   36.7890 N   0  0  0  0  0  0  0  0  0  0  0  0
   38.6530   22.6370   36.1150 C   0  0  0  0  0  0  0  0  0  0  0  0
   39.8510   22.4600   36.7040 N   0  0  0  0  0  0  0  0  0  0  0  0
   38.5630   22.2290   34.7120 C   0  0  0  0  0  0  0  0  0  0  0  0
   39.5290   21.7820   34.0580 O   0  0  0  0  0  0  0  0  0  0  0  0
   37.3880   22.3020   33.9660 O   0  0  0  0  0  0  0  0  0  0  0  0
   36.8410   21.2400   33.2490 C   0  0  0  0  0  0  0  0  0  0  0  0
   36.4650   21.5350   31.8360 C   0  0  0  0  0  0  0  0  0  0  0  0
   35.0820   21.0580   31.4750 C   0  0  0  0  0  0  0  0  0  0  0  0
   34.7650   19.6640   31.9030 C   0  0  0  0  0  0  0  0  0  0  0  0
   35.4480   19.2810   33.2140 C   0  0  0  0  0  0  0  0  0  0  0  0
   35.6580   20.5980   33.9410 C   0  0  0  0  0  0  0  0  0  0  0  0
   40.9854   22.6659   38.4674 H   0  0  0  0  0  0  0  0  0  0  0  0
   39.0874   23.6449   39.7967 H   0  0  0  0  0  0  0  0  0  0  0  0
   36.8265   23.9635   38.6248 H   0  0  0  0  0  0  0  0  0  0  0  0
   37.6847   20.5349   33.2167 H   0  0  0  0  0  0  0  0  0  0  0  0
   36.5100   22.6233   31.6827 H   0  0  0  0  0  0  0  0  0  0  0  0
   37.1742   20.9958   31.1909 H   0  0  0  0  0  0  0  0  0  0  0  0
   34.3537   21.7340   31.9468 H   0  0  0  0  0  0  0  0  0  0  0  0
   35.0322   21.0615   30.3761 H   0  0  0  0  0  0  0  0  0  0  0  0
   33.6765   19.5749   32.0340 H   0  0  0  0  0  0  0  0  0  0  0  0
   35.1375   18.9838   31.1229 H   0  0  0  0  0  0  0  0  0  0  0  0
   34.8058   18.6107   33.8041 H   0  0  0  0  0  0  0  0  0  0  0  0
   36.3929   18.7428   33.0483 H   0  0  0  0  0  0  0  0  0  0  0  0
   35.8799   20.4223   35.0040 H   0  0  0  0  0  0  0  0  0  0  0  0
   34.7627   21.2363   33.9087 H   0  0  0  0  0  0  0  0  0  0  0  0
  1  2  2  0
  3  2  1  0
  4  3  2  0
  5  6  2  0
  5  4  1  0
  6  1  1  0
  7  5  1  0
  8  7  2  0
  9  7  1  0
 10 15  1  0
 10  9  1  0
 11 10  1  0
 12 11  1  0
 12 13  1  0
 13 14  1  0
 14 15  1  0
  1 16  1  0
  2 17  1  0
  3 18  1  0
 10 19  1  0
 11 20  1  0
 11 21  1  0
 12 22  1  0
 12 23  1  0
 13 24  1  0
 13 25  1  0
 14 26  1  0
 14 27  1  0
 15 28  1  0
 15 29  1  0
M  ISO  8  16  14  17  14  18  14  19  13  20  13  21  13  22  13  23  13
M  ISO  6  24  13  25  13  26  13  27  13  28  13  29  13
M  END
>  <minimizedAffinity>  (1) 
-4.61898136

>  <minimizedRMSD>  (1) 
1.00411022

$$$$
