
     RDKit          3D

 24 26  0  0  0  0  0  0  0  0999 V2000
   38.0040   21.9470   35.0360 C   0  0  0  0  0  0  0  0  0  0  0  0
   38.8170   21.7610   34.1160 O   0  0  0  0  0  0  0  0  0  0  0  0
   39.9920   22.8540   37.9180 C   0  0  0  0  0  0  0  0  0  0  0  0
   39.1290   23.5570   38.7580 C   0  0  0  0  0  0  0  0  0  0  0  0
   37.7910   23.7240   38.2990 C   0  0  0  0  0  0  0  0  0  0  0  0
   37.4610   23.1960   37.1010 N   0  0  0  0  0  0  0  0  0  0  0  0
   38.3500   22.5180   36.3250 C   0  0  0  0  0  0  0  0  0  0  0  0
   39.6090   22.3550   36.7450 N   0  0  0  0  0  0  0  0  0  0  0  0
   36.7120   21.5440   34.6870 O   0  0  0  0  0  0  0  0  0  0  0  0
   35.1330   18.8620   31.2950 N   0  0  0  0  0  0  0  0  0  0  0  0
   35.2220   18.1410   32.4270 C   0  0  0  0  0  0  0  0  0  0  0  0
   35.6910   18.9980   33.3750 N   0  0  0  0  0  0  0  0  0  0  0  0
   35.8820   20.2040   32.8300 C   0  0  0  0  0  0  0  0  0  0  0  0
   36.3300   21.3790   33.3460 C   0  0  0  0  0  0  0  0  0  0  0  0
   36.3990   22.4170   32.4910 N   0  0  0  0  0  0  0  0  0  0  0  0
   36.0700   22.3910   31.2070 C   0  0  0  0  0  0  0  0  0  0  0  0
   35.6230   21.2240   30.6910 N   0  0  0  0  0  0  0  0  0  0  0  0
   35.5250   20.1370   31.4780 C   0  0  0  0  0  0  0  0  0  0  0  0
   41.0338   22.7055   38.2385 H   0  0  0  0  0  0  0  0  0  0  0  0
   39.4640   23.9614   39.7245 H   0  0  0  0  0  0  0  0  0  0  0  0
   37.0487   24.2669   38.9025 H   0  0  0  0  0  0  0  0  0  0  0  0
   34.8041   18.4837   30.3952 H   0  0  0  0  0  0  0  0  0  0  0  0
   34.9683   17.0789   32.5593 H   0  0  0  0  0  0  0  0  0  0  0  0
   36.1580   23.2911   30.5808 H   0  0  0  0  0  0  0  0  0  0  0  0
  1  7  1  0
  2  1  2  0
  3  4  2  0
  5  4  1  0
  6  5  2  0
  7  8  2  0
  7  6  1  0
  8  3  1  0
  9  1  1  0
 10 18  1  0
 10 11  1  0
 11 12  2  0
 13 14  2  0
 13 12  1  0
 14  9  1  0
 15 14  1  0
 16 15  2  0
 17 16  1  0
 17 18  2  0
 18 13  1  0
  3 19  1  0
  4 20  1  0
  5 21  1  0
 10 22  1  0
 11 23  1  0
 16 24  1  0
M  ISO  6  19  14  20  14  21  14  22   9  23  14  24  14
M  END
>  <minimizedAffinity>  (1) 
-4.61077118

>  <minimizedRMSD>  (1) 
0.569303989

$$$$
