
     RDKit          3D

 24 25  0  0  0  0  0  0  0  0999 V2000
   39.9840   22.4100   37.6770 C   0  0  0  0  0  0  0  0  0  0  0  0
   39.1230   23.2030   36.8720 C   0  0  0  0  0  0  0  0  0  0  0  0
   39.7190   23.9500   35.8500 C   0  0  0  0  0  0  0  0  0  0  0  0
   41.0580   23.8920   35.6710 N   0  0  0  0  0  0  0  0  0  0  0  0
   41.8470   23.1190   36.4650 C   0  0  0  0  0  0  0  0  0  0  0  0
   41.3010   22.3960   37.4480 N   0  0  0  0  0  0  0  0  0  0  0  0
   43.2610   23.0200   36.3220 N   0  0  0  0  0  0  0  0  0  0  0  0
   43.9130   24.1860   36.5430 C   0  0  0  0  0  0  0  0  0  0  0  0
   45.3010   24.2010   36.4290 C   0  0  0  0  0  0  0  0  0  0  0  0
   45.9170   23.0140   36.0970 C   0  0  0  0  0  0  0  0  0  0  0  0
   47.3300   22.9420   35.9610 N   0  0  0  0  0  0  0  0  0  0  0  0
   45.2390   21.8510   35.8780 N   0  0  0  0  0  0  0  0  0  0  0  0
   43.8870   21.8740   35.9980 C   0  0  0  0  0  0  0  0  0  0  0  0
   43.1150   20.9040   35.8340 O   0  0  0  0  0  0  0  0  0  0  0  0
   37.6420   23.2700   37.0670 C   0  0  0  0  0  0  0  0  0  0  0  0
   37.4180   23.0880   38.4280 F   0  0  0  0  0  0  0  0  0  0  0  0
   36.9990   22.2740   36.3900 F   0  0  0  0  0  0  0  0  0  0  0  0
   37.1620   24.5410   36.7870 F   0  0  0  0  0  0  0  0  0  0  0  0
   39.5645   21.8039   38.4935 H   0  0  0  0  0  0  0  0  0  0  0  0
   39.1010   24.5817   35.1950 H   0  0  0  0  0  0  0  0  0  0  0  0
   43.3597   25.0995   36.8063 H   0  0  0  0  0  0  0  0  0  0  0  0
   45.8805   25.1208   36.5968 H   0  0  0  0  0  0  0  0  0  0  0  0
   47.7786   22.0488   35.7124 H   0  0  0  0  0  0  0  0  0  0  0  0
   47.9053   23.7831   36.1110 H   0  0  0  0  0  0  0  0  0  0  0  0
  2 15  1  0
  2  1  2  0
  3  2  1  0
  4  3  2  0
  4  5  1  0
  5  6  2  0
  6  1  1  0
  7  5  1  0
  7  8  1  0
  9  8  2  0
 10  9  1  0
 11 10  1  0
 12 13  1  0
 12 10  2  0
 13  7  1  0
 14 13  2  0
 15 16  1  0
 17 15  1  0
 18 15  1  0
  1 19  1  0
  3 20  1  0
  8 21  1  0
  9 22  1  0
 11 23  1  0
 11 24  1  0
M  ISO  4  19  14  20  14  21  14  22  14
M  END
>  <minimizedAffinity>  (1) 
-4.46385384

>  <minimizedRMSD>  (1) 
3.14819407

$$$$
