
     RDKit          3D

 17 17  0  0  0  0  0  0  0  0999 V2000
   39.9140   22.6190   37.2060 C   0  0  0  0  0  0  0  0  0  0  0  0
   39.2060   23.2610   38.2310 C   0  0  0  0  0  0  0  0  0  0  0  0
   37.8000   23.4110   38.0680 C   0  0  0  0  0  0  0  0  0  0  0  0
   37.2310   22.9210   36.9270 N   0  0  0  0  0  0  0  0  0  0  0  0
   37.9780   22.3070   35.9700 C   0  0  0  0  0  0  0  0  0  0  0  0
   39.3010   22.1650   36.1200 N   0  0  0  0  0  0  0  0  0  0  0  0
   37.3890   21.7790   34.7470 C   0  0  0  0  0  0  0  0  0  0  0  0
   37.9300   21.8840   33.6260 O   0  0  0  0  0  0  0  0  0  0  0  0
   36.1590   21.1010   34.7060 O   0  0  0  0  0  0  0  0  0  0  0  0
   35.6080   20.6290   33.5390 C   0  0  0  0  0  0  0  0  0  0  0  0
   35.1520   21.5160   32.5310 N   0  0  0  0  0  0  0  0  0  0  0  0
   35.4950   19.3910   33.3390 O   0  0  0  0  0  0  0  0  0  0  0  0
   41.0018   22.4885   37.3038 H   0  0  0  0  0  0  0  0  0  0  0  0
   39.7185   23.6356   39.1293 H   0  0  0  0  0  0  0  0  0  0  0  0
   37.1900   23.9066   38.8377 H   0  0  0  0  0  0  0  0  0  0  0  0
   34.7419   21.1423   31.6632 H   0  0  0  0  0  0  0  0  0  0  0  0
   35.2309   22.5340   32.6666 H   0  0  0  0  0  0  0  0  0  0  0  0
  1  2  2  0
  3  2  1  0
  4  3  2  0
  5  6  2  0
  5  4  1  0
  6  1  1  0
  7  5  1  0
  8  7  2  0
  9  7  1  0
 10  9  1  0
 11 10  1  0
 12 10  2  0
  1 13  1  0
  2 14  1  0
  3 15  1  0
 11 16  1  0
 11 17  1  0
M  ISO  3  13  14  14  14  15  14
M  END
>  <minimizedAffinity>  (1) 
-3.53939509

>  <minimizedRMSD>  (1) 
0.94578445

$$$$
