
     RDKit          3D

 29 31  0  0  0  0  0  0  0  0999 V2000
   36.7380   21.2570   32.8370 C   0  0  0  0  0  0  0  0  0  0  0  0
   35.7880   20.4300   33.4100 C   0  0  0  0  0  0  0  0  0  0  0  0
   35.6360   19.3450   32.5680 C   0  0  0  0  0  0  0  0  0  0  0  0
   36.4940   19.5420   31.5170 N   0  0  0  0  0  0  0  0  0  0  0  0
   37.1370   20.6710   31.6860 N   0  0  0  0  0  0  0  0  0  0  0  0
   36.5780   18.5910   30.4640 C   0  0  0  0  0  0  0  0  0  0  0  0
   36.6300   18.9750   29.1410 C   0  0  0  0  0  0  0  0  0  0  0  0
   36.7130   18.0040   28.1370 C   0  0  0  0  0  0  0  0  0  0  0  0
   36.7360   16.6820   28.5800 C   0  0  0  0  0  0  0  0  0  0  0  0
   36.6830   16.3010   29.9210 C   0  0  0  0  0  0  0  0  0  0  0  0
   36.6030   17.2880   30.8500 N   0  0  0  0  0  0  0  0  0  0  0  0
   37.0910   22.4360   33.4760 O   0  0  0  0  0  0  0  0  0  0  0  0
   38.1030   22.5020   34.4130 C   0  0  0  0  0  0  0  0  0  0  0  0
   39.0750   21.7880   34.0750 O   0  0  0  0  0  0  0  0  0  0  0  0
   37.7220   23.3000   37.9210 C   0  0  0  0  0  0  0  0  0  0  0  0
   37.9420   24.6750   37.9800 C   0  0  0  0  0  0  0  0  0  0  0  0
   38.2290   25.3460   36.7890 C   0  0  0  0  0  0  0  0  0  0  0  0
   38.2830   24.6380   35.6120 N   0  0  0  0  0  0  0  0  0  0  0  0
   38.0570   23.2890   35.6270 C   0  0  0  0  0  0  0  0  0  0  0  0
   37.7830   22.6450   36.7640 N   0  0  0  0  0  0  0  0  0  0  0  0
   35.2549   20.6035   34.3564 H   0  0  0  0  0  0  0  0  0  0  0  0
   34.9589   18.4902   32.7127 H   0  0  0  0  0  0  0  0  0  0  0  0
   36.6063   20.0422   28.8753 H   0  0  0  0  0  0  0  0  0  0  0  0
   36.7572   18.2660   27.0696 H   0  0  0  0  0  0  0  0  0  0  0  0
   36.8002   15.8872   27.8222 H   0  0  0  0  0  0  0  0  0  0  0  0
   36.7052   15.2411   30.2146 H   0  0  0  0  0  0  0  0  0  0  0  0
   37.4945   22.7477   38.8447 H   0  0  0  0  0  0  0  0  0  0  0  0
   37.8911   25.2159   38.9364 H   0  0  0  0  0  0  0  0  0  0  0  0
   38.4101   26.4310   36.7929 H   0  0  0  0  0  0  0  0  0  0  0  0
  1  2  1  0
  1 12  1  0
  3  2  2  0
  4  5  1  0
  4  3  1  0
  5  1  2  0
  6 11  1  0
  6  4  1  0
  7  6  2  0
  8  9  2  0
  8  7  1  0
  9 10  1  0
 10 11  2  0
 12 13  1  0
 13 19  1  0
 14 13  2  0
 15 16  2  0
 17 16  1  0
 18 19  1  0
 18 17  2  0
 19 20  2  0
 20 15  1  0
  2 21  1  0
  3 22  1  0
  7 23  1  0
  8 24  1  0
  9 25  1  0
 10 26  1  0
 15 27  1  0
 16 28  1  0
 17 29  1  0
M  ISO  8  21  14  22  14  23  14  24  14  25  14  26  14  27  14  28  14
M  ISO  1  29  14
M  END
>  <minimizedAffinity>  (1) 
-4.25377226

>  <minimizedRMSD>  (1) 
3.14440155

$$$$
