
     RDKit          3D

 26 27  0  0  0  0  0  0  0  0999 V2000
   38.4260   22.2160   34.6090 C   0  0  0  0  0  0  0  0  0  0  0  0
   39.3850   21.8090   33.9170 O   0  0  0  0  0  0  0  0  0  0  0  0
   39.9450   22.7870   37.8440 C   0  0  0  0  0  0  0  0  0  0  0  0
   38.9120   23.3170   38.6280 C   0  0  0  0  0  0  0  0  0  0  0  0
   37.6620   23.4770   38.0130 C   0  0  0  0  0  0  0  0  0  0  0  0
   37.5090   23.1180   36.7090 N   0  0  0  0  0  0  0  0  0  0  0  0
   38.5510   22.6100   36.0050 C   0  0  0  0  0  0  0  0  0  0  0  0
   39.7530   22.4480   36.5700 N   0  0  0  0  0  0  0  0  0  0  0  0
   37.2520   22.2410   33.8920 O   0  0  0  0  0  0  0  0  0  0  0  0
   36.7590   21.1120   33.2540 C   0  0  0  0  0  0  0  0  0  0  0  0
   35.6960   20.4560   33.8020 C   0  0  0  0  0  0  0  0  0  0  0  0
   35.4040   19.3800   32.9830 C   0  0  0  0  0  0  0  0  0  0  0  0
   36.3050   19.4080   31.9470 N   0  0  0  0  0  0  0  0  0  0  0  0
   37.0840   20.4320   32.1320 N   0  0  0  0  0  0  0  0  0  0  0  0
   36.3860   18.4790   30.8430 C   0  0  0  0  0  0  0  0  0  0  0  0
   36.6590   19.1680   29.5310 C   0  0  0  0  0  0  0  0  0  0  0  0
   40.9400   22.6472   38.2917 H   0  0  0  0  0  0  0  0  0  0  0  0
   39.0743   23.5954   39.6797 H   0  0  0  0  0  0  0  0  0  0  0  0
   36.8133   23.8887   38.5789 H   0  0  0  0  0  0  0  0  0  0  0  0
   35.1675   20.7321   34.7263 H   0  0  0  0  0  0  0  0  0  0  0  0
   34.6022   18.6420   33.1331 H   0  0  0  0  0  0  0  0  0  0  0  0
   37.1978   17.7638   31.0420 H   0  0  0  0  0  0  0  0  0  0  0  0
   35.4134   17.9720   30.7594 H   0  0  0  0  0  0  0  0  0  0  0  0
   37.0581   20.1751   29.7218 H   0  0  0  0  0  0  0  0  0  0  0  0
   37.3941   18.5851   28.9567 H   0  0  0  0  0  0  0  0  0  0  0  0
   35.7241   19.2468   28.9567 H   0  0  0  0  0  0  0  0  0  0  0  0
  1  7  1  0
  2  1  2  0
  3  4  2  0
  5  4  1  0
  6  5  2  0
  7  8  2  0
  7  6  1  0
  8  3  1  0
  9  1  1  0
 10 11  1  0
 10  9  1  0
 12 11  2  0
 13 14  1  0
 13 12  1  0
 14 10  2  0
 15 13  1  0
 16 15  1  0
  3 17  1  0
  4 18  1  0
  5 19  1  0
 11 20  1  0
 12 21  1  0
 15 22  1  0
 15 23  1  0
 16 24  1  0
 16 25  1  0
 16 26  1  0
M  ISO  8  17  14  18  14  19  14  20  14  21  14  22   8  23   8  24   8
M  ISO  2  25   8  26   8
M  END
>  <minimizedAffinity>  (1) 
-4.16575432

>  <minimizedRMSD>  (1) 
1.62834787

$$$$
