
     RDKit          3D

 32 33  0  0  1  0  0  0  0  0999 V2000
   38.6020   26.1000   35.1070 C   0  0  2  0  0  0  0  0  0  0  0  0
   39.6920   23.0410   36.7960 C   0  0  0  0  0  0  0  0  0  0  0  0
   38.9470   23.0530   38.0180 C   0  0  0  0  0  0  0  0  0  0  0  0
   38.0820   24.1250   38.2290 C   0  0  0  0  0  0  0  0  0  0  0  0
   38.0070   25.0920   37.2470 N   0  0  0  0  0  0  0  0  0  0  0  0
   38.7250   25.0420   36.1160 C   0  0  0  0  0  0  0  0  0  0  0  0
   39.5510   24.0250   35.9060 N   0  0  0  0  0  0  0  0  0  0  0  0
   38.4110   27.4270   35.8150 C   0  0  0  0  0  0  0  0  0  0  0  0
   37.4530   25.9380   34.1720 C   0  0  0  0  0  0  0  0  0  0  0  0
   37.5970   26.5640   32.8900 N   0  0  0  0  0  0  0  0  0  0  0  0
   37.0900   27.8130   32.6450 C   0  0  0  0  0  0  0  0  0  0  0  0
   37.3050   28.2760   31.3750 C   0  0  0  0  0  0  0  0  0  0  0  0
   36.7720   29.6380   31.0470 C   0  0  0  0  0  0  0  0  0  0  0  0
   37.9710   27.5830   30.3850 C   0  0  0  0  0  0  0  0  0  0  0  0
   38.1670   28.0050   29.2260 O   0  0  0  0  0  0  0  0  0  0  0  0
   38.4510   26.3600   30.6710 N   0  0  0  0  0  0  0  0  0  0  0  0
   38.2530   25.8810   31.9120 C   0  0  0  0  0  0  0  0  0  0  0  0
   38.7040   24.7400   32.1730 O   0  0  0  0  0  0  0  0  0  0  0  0
   39.5240   26.0485   34.5092 H   0  0  0  0  0  0  0  0  0  0  0  0
   40.3866   22.2136   36.5888 H   0  0  0  0  0  0  0  0  0  0  0  0
   39.0529   22.2485   38.7607 H   0  0  0  0  0  0  0  0  0  0  0  0
   37.4797   24.1980   39.1466 H   0  0  0  0  0  0  0  0  0  0  0  0
   38.4338   27.2686   36.9033 H   0  0  0  0  0  0  0  0  0  0  0  0
   39.2193   28.1156   35.5277 H   0  0  0  0  0  0  0  0  0  0  0  0
   37.4413   27.8597   35.5277 H   0  0  0  0  0  0  0  0  0  0  0  0
   37.3022   24.8610   34.0064 H   0  0  0  0  0  0  0  0  0  0  0  0
   36.6022   26.4405   34.6553 H   0  0  0  0  0  0  0  0  0  0  0  0
   36.5534   28.3967   33.4075 H   0  0  0  0  0  0  0  0  0  0  0  0
   36.5589   30.1825   31.9787 H   0  0  0  0  0  0  0  0  0  0  0  0
   37.5193   30.1928   30.4608 H   0  0  0  0  0  0  0  0  0  0  0  0
   35.8466   29.5382   30.4608 H   0  0  0  0  0  0  0  0  0  0  0  0
   38.9543   25.8076   29.9622 H   0  0  0  0  0  0  0  0  0  0  0  0
  1  8  1  0
  1  6  1  0
  2  3  2  0
  3  4  1  0
  5  4  2  0
  6  5  1  0
  7  6  2  0
  7  2  1  0
  9  1  1  0
 10  9  1  0
 11 10  1  0
 12 11  2  0
 13 12  1  0
 14 16  1  0
 14 12  1  0
 15 14  2  0
 16 17  1  0
 17 18  2  0
 17 10  1  0
  1 19  1  6
  2 20  1  0
  3 21  1  0
  4 22  1  0
  8 23  1  0
  8 24  1  0
  8 25  1  0
  9 26  1  0
  9 27  1  0
 11 28  1  0
 13 29  1  0
 13 30  1  0
 13 31  1  0
 16 32  1  0
M  ISO  8  19   8  20  14  21  14  22  14  23   8  24   8  25   8  26   8
M  ISO  6  27   8  28  14  29   8  30   8  31   8  32   9
M  END
>  <minimizedAffinity>  (1) 
-4.46532631

>  <minimizedRMSD>  (1) 
3.78972983

$$$$
