
     RDKit          3D

 27 29  0  0  0  0  0  0  0  0999 V2000
   38.6240   22.3870   34.6470 C   0  0  0  0  0  0  0  0  0  0  0  0
   39.6080   21.9380   34.0090 O   0  0  0  0  0  0  0  0  0  0  0  0
   39.9410   22.7940   37.9950 C   0  0  0  0  0  0  0  0  0  0  0  0
   38.9230   23.4120   38.7060 C   0  0  0  0  0  0  0  0  0  0  0  0
   37.7490   23.6920   37.9990 C   0  0  0  0  0  0  0  0  0  0  0  0
   37.6450   23.3610   36.6790 N   0  0  0  0  0  0  0  0  0  0  0  0
   38.6950   22.7550   36.0500 C   0  0  0  0  0  0  0  0  0  0  0  0
   39.8120   22.4840   36.7090 N   0  0  0  0  0  0  0  0  0  0  0  0
   37.4860   22.4840   33.8550 O   0  0  0  0  0  0  0  0  0  0  0  0
   36.9110   21.3570   33.2940 C   0  0  0  0  0  0  0  0  0  0  0  0
   35.8400   20.7660   33.9280 C   0  0  0  0  0  0  0  0  0  0  0  0
   35.4570   19.6720   33.1720 C   0  0  0  0  0  0  0  0  0  0  0  0
   36.2990   19.6280   32.1100 N   0  0  0  0  0  0  0  0  0  0  0  0
   37.1540   20.6110   32.1720 N   0  0  0  0  0  0  0  0  0  0  0  0
   36.2310   18.6190   31.0710 C   0  0  0  0  0  0  0  0  0  0  0  0
   37.5180   18.2470   30.3930 C   0  0  0  0  0  0  0  0  0  0  0  0
   36.5570   19.0770   29.6370 C   0  0  0  0  0  0  0  0  0  0  0  0
   40.8825   22.5534   38.5104 H   0  0  0  0  0  0  0  0  0  0  0  0
   39.0331   23.6685   39.7700 H   0  0  0  0  0  0  0  0  0  0  0  0
   36.9060   24.1811   38.5090 H   0  0  0  0  0  0  0  0  0  0  0  0
   35.3737   21.1029   34.8656 H   0  0  0  0  0  0  0  0  0  0  0  0
   34.6332   18.9763   33.3894 H   0  0  0  0  0  0  0  0  0  0  0  0
   35.4117   18.0716   31.5600 H   0  0  0  0  0  0  0  0  0  0  0  0
   38.4632   18.6897   30.7403 H   0  0  0  0  0  0  0  0  0  0  0  0
   38.0280   17.2934   30.1918 H   0  0  0  0  0  0  0  0  0  0  0  0
   36.7825   20.1344   29.4341 H   0  0  0  0  0  0  0  0  0  0  0  0
   36.0573   18.9976   28.6603 H   0  0  0  0  0  0  0  0  0  0  0  0
  1  7  1  0
  2  1  2  0
  3  4  2  0
  5  4  1  0
  6  5  2  0
  7  6  1  0
  7  8  2  0
  8  3  1  0
  9  1  1  0
 10  9  1  0
 10 11  1  0
 12 11  2  0
 13 14  1  0
 13 12  1  0
 14 10  2  0
 15 13  1  0
 16 15  1  0
 17 16  1  0
 17 15  1  0
  3 18  1  0
  4 19  1  0
  5 20  1  0
 11 21  1  0
 12 22  1  0
 15 23  1  0
 16 24  1  0
 16 25  1  0
 17 26  1  0
 17 27  1  0
M  ISO  8  18  14  19  14  20  14  21  14  22  14  23  13  24  13  25  13
M  ISO  2  26  13  27  13
M  END
>  <minimizedAffinity>  (1) 
-4.1810298

>  <minimizedRMSD>  (1) 
2.16350698

$$$$
