
     RDKit          3D

 41 45  0  0  1  0  0  0  0  0999 V2000
   36.6470   18.5470   30.5010 C   0  0  2  0  0  0  0  0  0  0  0  0
   38.0530   18.2760   30.0240 C   0  0  0  0  0  0  0  0  0  0  0  0
   37.0860   18.8350   29.0590 C   0  0  1  0  0  0  0  0  0  0  0  0
   36.5470   17.9500   28.0460 N   0  0  0  0  0  0  0  0  0  0  0  0
   36.6470   16.5890   28.0400 C   0  0  0  0  0  0  0  0  0  0  0  0
   36.0300   16.1010   26.9470 N   0  0  0  0  0  0  0  0  0  0  0  0
   35.5290   17.1320   26.2400 C   0  0  0  0  0  0  0  0  0  0  0  0
   34.8190   17.1290   25.0550 C   0  0  0  0  0  0  0  0  0  0  0  0
   34.5210   16.0910   24.4250 O   0  0  0  0  0  0  0  0  0  0  0  0
   34.4620   18.3560   24.6140 N   0  0  0  0  0  0  0  0  0  0  0  0
   34.7670   19.4930   25.2670 C   0  0  0  0  0  0  0  0  0  0  0  0
   34.3680   20.7820   24.7660 N   0  0  0  0  0  0  0  0  0  0  0  0
   35.4590   19.4580   26.4200 N   0  0  0  0  0  0  0  0  0  0  0  0
   35.8600   18.2840   26.9400 C   0  0  0  0  0  0  0  0  0  0  0  0
   36.8550   21.4030   32.6800 C   0  0  0  0  0  0  0  0  0  0  0  0
   35.4930   21.3120   32.5040 C   0  0  0  0  0  0  0  0  0  0  0  0
   35.2660   20.2340   31.6710 C   0  0  0  0  0  0  0  0  0  0  0  0
   36.4730   19.7080   31.3660 N   0  0  0  0  0  0  0  0  0  0  0  0
   37.4270   20.3820   31.9510 N   0  0  0  0  0  0  0  0  0  0  0  0
   37.3770   22.4110   33.4820 O   0  0  0  0  0  0  0  0  0  0  0  0
   38.4930   22.1680   34.2780 C   0  0  0  0  0  0  0  0  0  0  0  0
   39.4080   21.5770   33.6500 O   0  0  0  0  0  0  0  0  0  0  0  0
   39.9550   22.6650   37.5500 C   0  0  0  0  0  0  0  0  0  0  0  0
   38.9370   23.2180   38.3250 C   0  0  0  0  0  0  0  0  0  0  0  0
   37.7260   23.4130   37.6740 C   0  0  0  0  0  0  0  0  0  0  0  0
   37.5640   23.0780   36.3620 N   0  0  0  0  0  0  0  0  0  0  0  0
   38.6250   22.5370   35.6760 C   0  0  0  0  0  0  0  0  0  0  0  0
   39.7930   22.3420   36.2760 N   0  0  0  0  0  0  0  0  0  0  0  0
   35.8490   17.9626   30.9824 H   0  0  0  0  0  0  0  0  0  0  0  0
   38.8819   18.9006   30.3885 H   0  0  0  0  0  0  0  0  0  0  0  0
   38.7073   17.3918   30.0289 H   0  0  0  0  0  0  0  0  0  0  0  0
   37.0882   19.7109   28.3935 H   0  0  0  0  0  0  0  0  0  0  0  0
   37.1525   15.9850   28.8079 H   0  0  0  0  0  0  0  0  0  0  0  0
   33.9302   18.4243   23.7346 H   0  0  0  0  0  0  0  0  0  0  0  0
   34.6151   21.6358   25.2864 H   0  0  0  0  0  0  0  0  0  0  0  0
   33.8354   20.8506   23.8871 H   0  0  0  0  0  0  0  0  0  0  0  0
   34.7305   21.9721   32.9431 H   0  0  0  0  0  0  0  0  0  0  0  0
   34.2877   19.8720   31.3218 H   0  0  0  0  0  0  0  0  0  0  0  0
   40.9354   22.4893   38.0168 H   0  0  0  0  0  0  0  0  0  0  0  0
   39.0832   23.4825   39.3827 H   0  0  0  0  0  0  0  0  0  0  0  0
   36.8802   23.8465   38.2278 H   0  0  0  0  0  0  0  0  0  0  0  0
  1 18  1  0
  2  1  1  0
  3  2  1  0
  3  1  1  0
  4  3  1  0
  5  4  1  0
  6  5  2  0
  7 14  2  0
  7  6  1  0
  8  7  1  0
  9  8  2  0
 10  8  1  0
 10 11  1  0
 11 13  2  0
 12 11  1  0
 13 14  1  0
 14  4  1  0
 15 20  1  0
 16 15  1  0
 17 16  2  0
 18 17  1  0
 18 19  1  0
 19 15  2  0
 20 21  1  0
 21 27  1  0
 22 21  2  0
 23 24  2  0
 25 24  1  0
 26 25  2  0
 27 28  2  0
 27 26  1  0
 28 23  1  0
  1 29  1  6
  2 30  1  0
  2 31  1  0
  3 32  1  6
  5 33  1  0
 10 34  1  0
 12 35  1  0
 12 36  1  0
 16 37  1  0
 17 38  1  0
 23 39  1  0
 24 40  1  0
 25 41  1  0
M  ISO  8  29  13  30  13  31  13  32  13  33  14  34   9  37  14  38  14
M  ISO  3  39  14  40  14  41  14
M  END
>  <minimizedAffinity>  (1) 
-5.73742628

>  <minimizedRMSD>  (1) 
2.63374519

$$$$
