
     RDKit          3D

 43 47  0  0  1  0  0  0  0  0999 V2000
   36.8430   20.8650   33.0550 C   0  0  0  0  0  0  0  0  0  0  0  0
   35.5790   20.4100   33.3680 C   0  0  0  0  0  0  0  0  0  0  0  0
   35.3630   19.2390   32.6620 C   0  0  0  0  0  0  0  0  0  0  0  0
   36.4950   19.0160   31.9450 N   0  0  0  0  0  0  0  0  0  0  0  0
   37.3580   19.9560   32.1670 N   0  0  0  0  0  0  0  0  0  0  0  0
   36.6790   17.8860   31.0700 C   0  0  2  0  0  0  0  0  0  0  0  0
   38.0650   17.5420   30.6520 C   0  0  0  0  0  0  0  0  0  0  0  0
   37.1890   18.1910   29.6360 C   0  0  1  0  0  0  0  0  0  0  0  0
   36.6640   17.2910   28.5810 C   0  0  0  0  0  0  0  0  0  0  0  0
   36.6830   15.9670   29.0350 C   0  0  0  0  0  0  0  0  0  0  0  0
   36.1950   14.9280   28.2430 C   0  0  0  0  0  0  0  0  0  0  0  0
   35.6880   15.2390   26.9830 C   0  0  0  0  0  0  0  0  0  0  0  0
   35.6650   16.5390   26.5230 C   0  0  0  0  0  0  0  0  0  0  0  0
   35.1920   16.9330   25.2880 C   0  0  0  0  0  0  0  0  0  0  0  0
   35.2240   18.2800   24.9110 C   0  0  0  0  0  0  0  0  0  0  0  0
   35.7320   19.2710   25.7590 C   0  0  0  0  0  0  0  0  0  0  0  0
   36.2040   18.8770   26.9940 C   0  0  0  0  0  0  0  0  0  0  0  0
   36.1530   17.5430   27.3280 C   0  0  0  0  0  0  0  0  0  0  0  0
   37.3040   22.0310   33.6330 O   0  0  0  0  0  0  0  0  0  0  0  0
   38.4820   22.0380   34.3770 C   0  0  0  0  0  0  0  0  0  0  0  0
   39.4640   21.6200   33.7070 O   0  0  0  0  0  0  0  0  0  0  0  0
   39.9380   22.6990   37.6160 C   0  0  0  0  0  0  0  0  0  0  0  0
   38.9050   23.2520   38.3720 C   0  0  0  0  0  0  0  0  0  0  0  0
   37.6670   23.3960   37.7240 C   0  0  0  0  0  0  0  0  0  0  0  0
   37.5250   23.0020   36.4260 N   0  0  0  0  0  0  0  0  0  0  0  0
   38.5970   22.4660   35.7570 C   0  0  0  0  0  0  0  0  0  0  0  0
   39.7660   22.3270   36.3580 N   0  0  0  0  0  0  0  0  0  0  0  0
   34.8690   20.8919   34.0562 H   0  0  0  0  0  0  0  0  0  0  0  0
   34.4573   18.6149   32.6783 H   0  0  0  0  0  0  0  0  0  0  0  0
   35.8394   17.3303   31.5130 H   0  0  0  0  0  0  0  0  0  0  0  0
   38.9129   18.1018   31.0735 H   0  0  0  0  0  0  0  0  0  0  0  0
   38.6557   16.6142   30.6660 H   0  0  0  0  0  0  0  0  0  0  0  0
   37.2571   19.0813   28.9935 H   0  0  0  0  0  0  0  0  0  0  0  0
   37.0893   15.7425   30.0323 H   0  0  0  0  0  0  0  0  0  0  0  0
   36.2100   13.8890   28.6040 H   0  0  0  0  0  0  0  0  0  0  0  0
   35.2990   14.4330   26.3435 H   0  0  0  0  0  0  0  0  0  0  0  0
   34.7865   16.1819   24.5942 H   0  0  0  0  0  0  0  0  0  0  0  0
   34.8395   18.5680   23.9214 H   0  0  0  0  0  0  0  0  0  0  0  0
   35.7541   20.3269   25.4515 H   0  0  0  0  0  0  0  0  0  0  0  0
   36.6136   19.6156   27.6988 H   0  0  0  0  0  0  0  0  0  0  0  0
   40.9267   22.5680   38.0800 H   0  0  0  0  0  0  0  0  0  0  0  0
   39.0515   23.5586   39.4182 H   0  0  0  0  0  0  0  0  0  0  0  0
   36.8111   23.8270   38.2641 H   0  0  0  0  0  0  0  0  0  0  0  0
  1  2  1  0
  1 19  1  0
  3  2  2  0
  4  5  1  0
  4  3  1  0
  5  1  2  0
  6  4  1  0
  7  6  1  0
  8  7  1  0
  8  6  1  0
  9 10  2  0
  9  8  1  0
 11 10  1  0
 12 11  2  0
 13 12  1  0
 13 18  2  0
 14 13  1  0
 15 14  2  0
 15 16  1  0
 16 17  2  0
 17 18  1  0
 18  9  1  0
 19 20  1  0
 20 26  1  0
 21 20  2  0
 22 23  2  0
 24 23  1  0
 25 24  2  0
 26 27  2  0
 26 25  1  0
 27 22  1  0
  2 28  1  0
  3 29  1  0
  6 30  1  6
  7 31  1  0
  7 32  1  0
  8 33  1  6
 10 34  1  0
 11 35  1  0
 12 36  1  0
 14 37  1  0
 15 38  1  0
 16 39  1  0
 17 40  1  0
 22 41  1  0
 23 42  1  0
 24 43  1  0
M  ISO  8  28  14  29  14  30  13  31  13  32  13  33  13  34  14  35  14
M  ISO  8  36  14  37  14  38  14  39  14  40  14  41  14  42  14  43  14
M  END
>  <minimizedAffinity>  (1) 
-5.32008028

>  <minimizedRMSD>  (1) 
1.29942238

$$$$
