
     RDKit          3D

 40 43  0  0  1  0  0  0  0  0999 V2000
   36.9150   21.5370   33.1790 C   0  0  0  0  0  0  0  0  0  0  0  0
   35.9760   20.7260   33.7860 C   0  0  0  0  0  0  0  0  0  0  0  0
   35.5900   19.7750   32.8600 C   0  0  0  0  0  0  0  0  0  0  0  0
   36.2940   20.0330   31.7360 N   0  0  0  0  0  0  0  0  0  0  0  0
   37.0700   21.0570   31.9070 N   0  0  0  0  0  0  0  0  0  0  0  0
   36.1740   19.2490   30.5150 C   0  0  2  0  0  0  0  0  0  0  0  0
   36.6830   17.8380   30.5550 C   0  0  0  0  0  0  0  0  0  0  0  0
   37.5000   18.8260   29.8410 C   0  0  1  0  0  0  0  0  0  0  0  0
   37.2610   19.2420   25.5910 C   0  0  0  0  0  0  0  0  0  0  0  0
   38.3700   19.7270   26.2550 C   0  0  0  0  0  0  0  0  0  0  0  0
   38.4490   19.5940   27.6250 C   0  0  0  0  0  0  0  0  0  0  0  0
   37.4540   18.9900   28.3660 C   0  0  0  0  0  0  0  0  0  0  0  0
   36.3490   18.5100   27.6610 C   0  0  0  0  0  0  0  0  0  0  0  0
   36.2390   18.6270   26.2910 C   0  0  0  0  0  0  0  0  0  0  0  0
   37.0110   19.3330   23.8580 S   0  0  0  0  0  0  0  0  0  0  0  0
   35.5840   18.9850   23.5050 O   0  0  0  0  0  0  0  0  0  0  0  0
   37.2860   20.7420   23.4170 O   0  0  0  0  0  0  0  0  0  0  0  0
   37.4650   22.5790   33.9030 O   0  0  0  0  0  0  0  0  0  0  0  0
   38.5690   22.3900   34.7140 C   0  0  0  0  0  0  0  0  0  0  0  0
   39.5140   21.8400   34.0850 O   0  0  0  0  0  0  0  0  0  0  0  0
   39.9420   22.8330   38.0260 C   0  0  0  0  0  0  0  0  0  0  0  0
   38.9300   23.4310   38.7590 C   0  0  0  0  0  0  0  0  0  0  0  0
   37.7320   23.6880   38.0760 C   0  0  0  0  0  0  0  0  0  0  0  0
   37.6200   23.3450   36.7570 N   0  0  0  0  0  0  0  0  0  0  0  0
   38.6580   22.7610   36.1060 C   0  0  0  0  0  0  0  0  0  0  0  0
   39.7990   22.5140   36.7450 N   0  0  0  0  0  0  0  0  0  0  0  0
   35.6038   20.8197   34.8169 H   0  0  0  0  0  0  0  0  0  0  0  0
   34.8562   18.9691   33.0086 H   0  0  0  0  0  0  0  0  0  0  0  0
   35.2415   19.7414   30.2019 H   0  0  0  0  0  0  0  0  0  0  0  0
   37.0460   17.4194   31.5053 H   0  0  0  0  0  0  0  0  0  0  0  0
   36.2509   16.8650   30.2783 H   0  0  0  0  0  0  0  0  0  0  0  0
   38.5774   19.0417   29.8939 H   0  0  0  0  0  0  0  0  0  0  0  0
   39.1825   20.2147   25.6965 H   0  0  0  0  0  0  0  0  0  0  0  0
   39.3364   19.9831   28.1456 H   0  0  0  0  0  0  0  0  0  0  0  0
   35.5365   18.0207   28.2181 H   0  0  0  0  0  0  0  0  0  0  0  0
   35.3546   18.2383   25.7649 H   0  0  0  0  0  0  0  0  0  0  0  0
   37.8481   18.4458   23.2343 H   0  0  0  0  0  0  0  0  0  0  0  0
   40.8986   22.6145   38.5231 H   0  0  0  0  0  0  0  0  0  0  0  0
   39.0590   23.6905   39.8201 H   0  0  0  0  0  0  0  0  0  0  0  0
   36.8880   24.1624   38.5981 H   0  0  0  0  0  0  0  0  0  0  0  0
  1  2  1  0
  1 18  1  0
  3  2  2  0
  4  5  1  0
  4  3  1  0
  5  1  2  0
  6  7  1  0
  6  4  1  0
  8  6  1  0
  8  7  1  0
  9 10  2  0
  9 14  1  0
 10 11  1  0
 11 12  2  0
 12  8  1  0
 13 12  1  0
 14 13  2  0
 15  9  1  0
 16 15  2  0
 17 15  2  0
 18 19  1  0
 19 25  1  0
 20 19  2  0
 21 22  2  0
 23 22  1  0
 24 23  2  0
 25 26  2  0
 25 24  1  0
 26 21  1  0
  2 27  1  0
  3 28  1  0
  6 29  1  6
  7 30  1  0
  7 31  1  0
  8 32  1  1
 10 33  1  0
 11 34  1  0
 13 35  1  0
 14 36  1  0
 15 37  1  0
 21 38  1  0
 22 39  1  0
 23 40  1  0
M  ISO  8  27  14  28  14  29  13  30  13  31  13  32  13  33  14  34  14
M  ISO  6  35  14  36  14  37  11  38  14  39  14  40  14
M  END
>  <minimizedAffinity>  (1) 
-5.16783047

>  <minimizedRMSD>  (1) 
2.57412148

$$$$
