
     RDKit          3D

 34 37  0  0  1  0  0  0  0  0999 V2000
   36.8550   21.2610   33.2970 C   0  0  0  0  0  0  0  0  0  0  0  0
   35.7620   20.7370   33.9510 C   0  0  0  0  0  0  0  0  0  0  0  0
   35.3830   19.5990   33.2740 C   0  0  0  0  0  0  0  0  0  0  0  0
   36.2400   19.4580   32.2390 N   0  0  0  0  0  0  0  0  0  0  0  0
   37.1040   20.4220   32.2410 N   0  0  0  0  0  0  0  0  0  0  0  0
   36.1760   18.3740   31.2790 C   0  0  2  0  0  0  0  0  0  0  0  0
   37.2500   17.3220   31.3610 C   0  0  0  0  0  0  0  0  0  0  0  0
   37.2920   18.2930   30.2360 C   0  0  1  0  0  0  0  0  0  0  0  0
   36.8140   17.8830   28.8840 C   0  0  0  0  0  0  0  0  0  0  0  0
   36.5310   18.7140   27.7990 C   0  0  0  0  0  0  0  0  0  0  0  0
   36.1140   17.9390   26.7300 C   0  0  0  0  0  0  0  0  0  0  0  0
   36.1470   16.6650   27.1770 N   0  0  0  0  0  0  0  0  0  0  0  0
   36.5520   16.6490   28.4190 N   0  0  0  0  0  0  0  0  0  0  0  0
   37.4510   22.4230   33.7680 O   0  0  0  0  0  0  0  0  0  0  0  0
   38.6000   22.3670   34.5560 C   0  0  0  0  0  0  0  0  0  0  0  0
   39.6010   21.9800   33.9050 O   0  0  0  0  0  0  0  0  0  0  0  0
   39.9180   22.8350   37.8890 C   0  0  0  0  0  0  0  0  0  0  0  0
   38.8690   23.3350   38.6300 C   0  0  0  0  0  0  0  0  0  0  0  0
   37.6660   23.5150   37.9500 C   0  0  0  0  0  0  0  0  0  0  0  0
   37.5650   23.2040   36.6240 N   0  0  0  0  0  0  0  0  0  0  0  0
   38.6570   22.7130   35.9650 C   0  0  0  0  0  0  0  0  0  0  0  0
   39.8100   22.5370   36.6050 N   0  0  0  0  0  0  0  0  0  0  0  0
   35.2803   21.1512   34.8490 H   0  0  0  0  0  0  0  0  0  0  0  0
   34.5445   18.9335   33.5271 H   0  0  0  0  0  0  0  0  0  0  0  0
   35.0763   18.3768   31.2531 H   0  0  0  0  0  0  0  0  0  0  0  0
   38.0072   17.3759   32.1571 H   0  0  0  0  0  0  0  0  0  0  0  0
   37.2474   16.2241   31.4295 H   0  0  0  0  0  0  0  0  0  0  0  0
   38.0896   18.9403   29.8424 H   0  0  0  0  0  0  0  0  0  0  0  0
   36.6244   19.8100   27.7939 H   0  0  0  0  0  0  0  0  0  0  0  0
   35.8186   18.2871   25.7292 H   0  0  0  0  0  0  0  0  0  0  0  0
   35.8922   15.8342   26.6241 H   0  0  0  0  0  0  0  0  0  0  0  0
   40.8862   22.6771   38.3867 H   0  0  0  0  0  0  0  0  0  0  0  0
   38.9753   23.5782   39.6975 H   0  0  0  0  0  0  0  0  0  0  0  0
   36.7906   23.9108   38.4857 H   0  0  0  0  0  0  0  0  0  0  0  0
  1 14  1  0
  1  2  1  0
  3  2  2  0
  4  5  1  0
  4  3  1  0
  5  1  2  0
  6  7  1  0
  6  4  1  0
  8  6  1  0
  8  7  1  0
  9  8  1  0
 10  9  1  0
 11 12  1  0
 11 10  2  0
 12 13  1  0
 13  9  2  0
 14 15  1  0
 15 21  1  0
 16 15  2  0
 17 18  2  0
 19 18  1  0
 20 19  2  0
 21 22  2  0
 21 20  1  0
 22 17  1  0
  2 23  1  0
  3 24  1  0
  6 25  1  6
  7 26  1  0
  7 27  1  0
  8 28  1  6
 10 29  1  0
 11 30  1  0
 12 31  1  0
 17 32  1  0
 18 33  1  0
 19 34  1  0
M  ISO  8  23  14  24  14  25  13  26  13  27  13  28  13  29  14  30  14
M  ISO  4  31   9  32  14  33  14  34  14
M  END
>  <minimizedAffinity>  (1) 
-4.70750523

>  <minimizedRMSD>  (1) 
0.893595636

$$$$
