
     RDKit          3D

 41 44  0  0  1  0  0  0  0  0999 V2000
   36.9130   21.4290   33.4140 C   0  0  0  0  0  0  0  0  0  0  0  0
   35.8830   20.8970   34.1590 C   0  0  0  0  0  0  0  0  0  0  0  0
   35.4590   19.7560   33.5180 C   0  0  0  0  0  0  0  0  0  0  0  0
   36.2320   19.6220   32.4130 N   0  0  0  0  0  0  0  0  0  0  0  0
   37.0930   20.6010   32.3400 N   0  0  0  0  0  0  0  0  0  0  0  0
   36.0950   18.5330   31.4680 C   0  0  2  0  0  0  0  0  0  0  0  0
   36.8360   17.2640   31.7840 C   0  0  0  0  0  0  0  0  0  0  0  0
   37.3710   18.1120   30.7080 C   0  0  1  0  0  0  0  0  0  0  0  0
   37.2380   17.6440   29.3650 N   0  0  0  0  0  0  0  0  0  0  0  0
   36.5560   18.5290   28.4660 C   0  0  0  0  0  0  0  0  0  0  0  0
   36.5520   17.8350   27.1030 C   0  0  0  0  0  0  0  0  0  0  0  0
   35.7180   16.6400   27.2210 N   0  0  0  0  0  0  0  0  0  0  0  0
   36.3910   15.7070   28.0950 C   0  0  0  0  0  0  0  0  0  0  0  0
   36.6280   16.3310   29.4300 C   0  0  0  0  0  0  0  0  0  0  0  0
   37.5300   22.5970   33.8410 O   0  0  0  0  0  0  0  0  0  0  0  0
   38.6710   22.5650   34.6290 C   0  0  0  0  0  0  0  0  0  0  0  0
   39.6910   22.2380   33.9720 O   0  0  0  0  0  0  0  0  0  0  0  0
   39.9290   22.8310   38.0080 C   0  0  0  0  0  0  0  0  0  0  0  0
   38.8890   23.3990   38.7290 C   0  0  0  0  0  0  0  0  0  0  0  0
   37.7310   23.6920   38.0190 C   0  0  0  0  0  0  0  0  0  0  0  0
   37.6470   23.4270   36.6910 N   0  0  0  0  0  0  0  0  0  0  0  0
   38.7130   22.8660   36.0460 C   0  0  0  0  0  0  0  0  0  0  0  0
   39.8160   22.5840   36.7080 N   0  0  0  0  0  0  0  0  0  0  0  0
   35.4750   21.3088   35.0939 H   0  0  0  0  0  0  0  0  0  0  0  0
   34.6502   19.0835   33.8397 H   0  0  0  0  0  0  0  0  0  0  0  0
   35.0626   18.7995   31.1976 H   0  0  0  0  0  0  0  0  0  0  0  0
   37.3865   17.1787   32.7325 H   0  0  0  0  0  0  0  0  0  0  0  0
   36.5434   16.2055   31.8467 H   0  0  0  0  0  0  0  0  0  0  0  0
   38.3391   18.5883   30.4940 H   0  0  0  0  0  0  0  0  0  0  0  0
   35.5251   18.7008   28.8092 H   0  0  0  0  0  0  0  0  0  0  0  0
   37.0533   19.5089   28.4148 H   0  0  0  0  0  0  0  0  0  0  0  0
   37.5772   17.5514   26.8229 H   0  0  0  0  0  0  0  0  0  0  0  0
   36.1579   18.5075   26.3269 H   0  0  0  0  0  0  0  0  0  0  0  0
   34.8017   16.8917   27.6183 H   0  0  0  0  0  0  0  0  0  0  0  0
   35.7666   14.8099   28.2188 H   0  0  0  0  0  0  0  0  0  0  0  0
   37.3588   15.4323   27.6501 H   0  0  0  0  0  0  0  0  0  0  0  0
   37.2900   15.6699   30.0086 H   0  0  0  0  0  0  0  0  0  0  0  0
   35.6425   16.4600   29.9014 H   0  0  0  0  0  0  0  0  0  0  0  0
   40.8674   22.5798   38.5240 H   0  0  0  0  0  0  0  0  0  0  0  0
   38.9763   23.6065   39.8057 H   0  0  0  0  0  0  0  0  0  0  0  0
   36.8733   24.1436   38.5391 H   0  0  0  0  0  0  0  0  0  0  0  0
  1 15  1  0
  1  2  1  0
  3  2  2  0
  4  3  1  0
  5  4  1  0
  5  1  2  0
  6  7  1  0
  6  4  1  0
  8  6  1  0
  8  7  1  0
  9 14  1  0
  9  8  1  0
 10  9  1  0
 11 12  1  0
 11 10  1  0
 12 13  1  0
 13 14  1  0
 15 16  1  0
 16 22  1  0
 17 16  2  0
 18 19  2  0
 20 19  1  0
 21 20  2  0
 22 21  1  0
 22 23  2  0
 23 18  1  0
  2 24  1  0
  3 25  1  0
  6 26  1  6
  7 27  1  0
  7 28  1  0
  8 29  1  1
 10 30  1  0
 10 31  1  0
 11 32  1  0
 11 33  1  0
 12 34  1  0
 13 35  1  0
 13 36  1  0
 14 37  1  0
 14 38  1  0
 18 39  1  0
 19 40  1  0
 20 41  1  0
M  ISO  8  24  14  25  14  26  13  27  13  28  13  29  13  30  13  31  13
M  ISO  8  32  13  33  13  34   5  35  13  36  13  37  13  38  13  39  14
M  ISO  2  40  14  41  14
M  END
>  <minimizedAffinity>  (1) 
-4.65807199

>  <minimizedRMSD>  (1) 
1.11572003

$$$$
