
     RDKit          3D

 30 32  0  0  1  0  0  0  0  0999 V2000
   36.8000   21.0710   33.1290 C   0  0  0  0  0  0  0  0  0  0  0  0
   35.6540   20.4290   33.5160 C   0  0  0  0  0  0  0  0  0  0  0  0
   35.4620   19.3700   32.6490 C   0  0  0  0  0  0  0  0  0  0  0  0
   36.4830   19.3930   31.7670 N   0  0  0  0  0  0  0  0  0  0  0  0
   37.2800   20.3990   32.0450 N   0  0  0  0  0  0  0  0  0  0  0  0
   36.6520   18.4390   30.6840 C   0  0  2  0  0  0  0  0  0  0  0  0
   38.0150   18.3770   30.0500 C   0  0  0  0  0  0  0  0  0  0  0  0
   36.9370   19.0220   29.2920 C   0  0  1  0  0  0  0  0  0  0  0  0
   36.4320   18.2480   28.1200 C   0  0  0  0  0  0  0  0  0  0  0  0
   36.2810   18.8830   27.0200 O   0  0  0  0  0  0  0  0  0  0  0  0
   36.1060   16.8980   28.1060 O   0  0  0  0  0  0  0  0  0  0  0  0
   37.2240   22.1860   33.8450 O   0  0  0  0  0  0  0  0  0  0  0  0
   38.4110   22.1580   34.5680 C   0  0  0  0  0  0  0  0  0  0  0  0
   39.3730   21.7310   33.8710 O   0  0  0  0  0  0  0  0  0  0  0  0
   39.9360   22.7590   37.7980 C   0  0  0  0  0  0  0  0  0  0  0  0
   38.9330   23.3040   38.5710 C   0  0  0  0  0  0  0  0  0  0  0  0
   37.6920   23.4680   37.9560 C   0  0  0  0  0  0  0  0  0  0  0  0
   37.5080   23.0970   36.6470 N   0  0  0  0  0  0  0  0  0  0  0  0
   38.5630   22.5640   35.9560 C   0  0  0  0  0  0  0  0  0  0  0  0
   39.7510   22.4020   36.5300 N   0  0  0  0  0  0  0  0  0  0  0  0
   35.0060   20.7052   34.3609 H   0  0  0  0  0  0  0  0  0  0  0  0
   34.6342   18.6460   32.6733 H   0  0  0  0  0  0  0  0  0  0  0  0
   35.9416   17.7142   31.1083 H   0  0  0  0  0  0  0  0  0  0  0  0
   38.8332   18.9881   30.4589 H   0  0  0  0  0  0  0  0  0  0  0  0
   38.7206   17.5617   29.8325 H   0  0  0  0  0  0  0  0  0  0  0  0
   36.7821   20.0050   28.8234 H   0  0  0  0  0  0  0  0  0  0  0  0
   35.7777   16.4767   27.2725 H   0  0  0  0  0  0  0  0  0  0  0  0
   40.9292   22.6135   38.2478 H   0  0  0  0  0  0  0  0  0  0  0  0
   39.1026   23.5944   39.6183 H   0  0  0  0  0  0  0  0  0  0  0  0
   36.8540   23.8980   38.5242 H   0  0  0  0  0  0  0  0  0  0  0  0
  1  2  1  0
  1 12  1  0
  3  2  2  0
  4  5  1  0
  4  3  1  0
  5  1  2  0
  6  4  1  0
  7  6  1  0
  8  7  1  0
  8  6  1  0
  9  8  1  0
 10  9  2  0
 11  9  1  0
 12 13  1  0
 13 19  1  0
 14 13  2  0
 15 16  2  0
 17 16  1  0
 18 17  2  0
 19 20  2  0
 19 18  1  0
 20 15  1  0
  2 21  1  0
  3 22  1  0
  6 23  1  6
  7 24  1  0
  7 25  1  0
  8 26  1  1
 11 27  1  0
 15 28  1  0
 16 29  1  0
 17 30  1  0
M  ISO  8  21  14  22  14  23  13  24  13  25  13  26  13  27   3  28  14
M  ISO  2  29  14  30  14
M  END
>  <minimizedAffinity>  (1) 
-4.62083912

>  <minimizedRMSD>  (1) 
0.577630281

$$$$
