
     RDKit          3D

 38 42  0  0  1  0  0  0  0  0999 V2000
   36.2960   21.1980   33.1700 C   0  0  0  0  0  0  0  0  0  0  0  0
   35.1610   21.4370   32.4400 C   0  0  0  0  0  0  0  0  0  0  0  0
   34.6960   20.2200   31.9600 C   0  0  0  0  0  0  0  0  0  0  0  0
   35.5620   19.2800   32.4110 N   0  0  0  0  0  0  0  0  0  0  0  0
   36.4950   19.8470   33.1170 N   0  0  0  0  0  0  0  0  0  0  0  0
   35.4410   17.8640   32.1340 C   0  0  2  0  0  0  0  0  0  0  0  0
   36.6410   17.0100   32.3860 C   0  0  0  0  0  0  0  0  0  0  0  0
   36.2740   17.2920   30.9930 C   0  0  2  0  0  0  0  0  0  0  0  0
   37.1390   18.1440   30.2290 N   0  0  0  0  0  0  0  0  0  0  0  0
   36.7090   18.6550   29.0490 C   0  0  0  0  0  0  0  0  0  0  0  0
   37.7070   19.4060   28.5530 N   0  0  0  0  0  0  0  0  0  0  0  0
   38.7350   19.3570   29.4210 C   0  0  0  0  0  0  0  0  0  0  0  0
   40.0080   19.9330   29.4290 C   0  0  0  0  0  0  0  0  0  0  0  0
   40.8330   19.6880   30.4660 N   0  0  0  0  0  0  0  0  0  0  0  0
   40.4380   18.8920   31.4960 C   0  0  0  0  0  0  0  0  0  0  0  0
   39.2090   18.3040   31.5400 N   0  0  0  0  0  0  0  0  0  0  0  0
   38.3780   18.5460   30.5010 C   0  0  0  0  0  0  0  0  0  0  0  0
   36.9600   22.2570   33.7640 O   0  0  0  0  0  0  0  0  0  0  0  0
   38.1610   22.0770   34.4180 C   0  0  0  0  0  0  0  0  0  0  0  0
   39.0060   21.5160   33.6740 O   0  0  0  0  0  0  0  0  0  0  0  0
   39.9900   22.6140   37.4970 C   0  0  0  0  0  0  0  0  0  0  0  0
   39.0630   23.1900   38.3570 C   0  0  0  0  0  0  0  0  0  0  0  0
   37.7830   23.3920   37.8510 C   0  0  0  0  0  0  0  0  0  0  0  0
   37.4810   23.0300   36.5620 N   0  0  0  0  0  0  0  0  0  0  0  0
   38.4450   22.4700   35.7780 C   0  0  0  0  0  0  0  0  0  0  0  0
   39.6670   22.2740   36.2530 N   0  0  0  0  0  0  0  0  0  0  0  0
   34.6996   22.4201   32.2651 H   0  0  0  0  0  0  0  0  0  0  0  0
   33.8040   20.0524   31.3385 H   0  0  0  0  0  0  0  0  0  0  0  0
   34.3796   17.8409   32.4219 H   0  0  0  0  0  0  0  0  0  0  0  0
   37.5501   17.4601   32.8115 H   0  0  0  0  0  0  0  0  0  0  0  0
   36.8190   16.0887   32.9601 H   0  0  0  0  0  0  0  0  0  0  0  0
   36.0388   16.6957   30.0991 H   0  0  0  0  0  0  0  0  0  0  0  0
   35.7264   18.4863   28.5843 H   0  0  0  0  0  0  0  0  0  0  0  0
   40.3326   20.5782   28.5994 H   0  0  0  0  0  0  0  0  0  0  0  0
   41.1380   18.7159   32.3261 H   0  0  0  0  0  0  0  0  0  0  0  0
   41.0150   22.4352   37.8538 H   0  0  0  0  0  0  0  0  0  0  0  0
   39.3281   23.4722   39.3866 H   0  0  0  0  0  0  0  0  0  0  0  0
   37.0084   23.8445   38.4876 H   0  0  0  0  0  0  0  0  0  0  0  0
  1 18  1  0
  2  1  1  0
  3  4  1  0
  3  2  2  0
  4  5  1  0
  5  1  2  0
  6  7  1  0
  6  4  1  0
  8  6  1  0
  8  7  1  0
  9 17  1  0
  9  8  1  0
 10  9  1  0
 11 10  2  0
 11 12  1  0
 12 13  2  0
 12 17  1  0
 13 14  1  0
 14 15  2  0
 15 16  1  0
 17 16  2  0
 18 19  1  0
 19 25  1  0
 20 19  2  0
 21 22  2  0
 23 22  1  0
 24 23  2  0
 25 26  2  0
 25 24  1  0
 26 21  1  0
  2 27  1  0
  3 28  1  0
  6 29  1  6
  7 30  1  0
  7 31  1  0
  8 32  1  6
 10 33  1  0
 13 34  1  0
 15 35  1  0
 21 36  1  0
 22 37  1  0
 23 38  1  0
M  ISO  8  27  14  28  14  29  13  30  13  31  13  32  13  33  14  34  14
M  ISO  4  35  14  36  14  37  14  38  14
M  END
>  <minimizedAffinity>  (1) 
-4.55600882

>  <minimizedRMSD>  (1) 
2.52352262

$$$$
