
     RDKit          3D

 36 38  0  0  1  0  0  0  0  0999 V2000
   36.1840   20.1340   32.7380 C   0  0  0  0  0  0  0  0  0  0  0  0
   35.4240   19.0130   32.9750 C   0  0  0  0  0  0  0  0  0  0  0  0
   35.6610   18.1310   31.9370 C   0  0  0  0  0  0  0  0  0  0  0  0
   36.5560   18.7400   31.0980 N   0  0  0  0  0  0  0  0  0  0  0  0
   36.8660   19.9090   31.5590 N   0  0  0  0  0  0  0  0  0  0  0  0
   37.0620   18.1410   29.8860 C   0  0  2  0  0  0  0  0  0  0  0  0
   38.0870   18.8860   29.1150 C   0  0  0  0  0  0  0  0  0  0  0  0
   36.7060   18.8450   28.5690 C   0  0  1  0  0  0  0  0  0  0  0  0
   36.3220   17.9000   27.4600 C   0  0  0  0  0  0  0  0  0  0  0  0
   35.8450   18.6330   26.2180 C   0  0  0  0  0  0  0  0  0  0  0  0
   36.1350   21.1800   33.6300 O   0  0  0  0  0  0  0  0  0  0  0  0
   37.1160   22.1650   33.6280 C   0  0  0  0  0  0  0  0  0  0  0  0
   37.0820   22.8970   32.5980 O   0  0  0  0  0  0  0  0  0  0  0  0
   40.3120   22.2790   35.3180 C   0  0  0  0  0  0  0  0  0  0  0  0
   40.0190   22.6830   36.6220 C   0  0  0  0  0  0  0  0  0  0  0  0
   38.6800   22.9140   36.8930 C   0  0  0  0  0  0  0  0  0  0  0  0
   37.7210   22.7560   35.9510 N   0  0  0  0  0  0  0  0  0  0  0  0
   38.0890   22.3540   34.6850 C   0  0  0  0  0  0  0  0  0  0  0  0
   39.3610   22.1270   34.3970 N   0  0  0  0  0  0  0  0  0  0  0  0
   38.3350   23.3360   38.2400 C   0  0  0  0  0  0  0  0  0  0  0  0
   38.0280   24.5390   38.4380 O   0  0  0  0  0  0  0  0  0  0  0  0
   38.3280   22.4710   39.3240 O   0  0  0  0  0  0  0  0  0  0  0  0
   34.7527   18.8486   33.8307 H   0  0  0  0  0  0  0  0  0  0  0  0
   35.2166   17.1329   31.8096 H   0  0  0  0  0  0  0  0  0  0  0  0
   36.9813   17.1193   30.2856 H   0  0  0  0  0  0  0  0  0  0  0  0
   38.4864   19.8305   29.5129 H   0  0  0  0  0  0  0  0  0  0  0  0
   39.0767   18.6272   28.7105 H   0  0  0  0  0  0  0  0  0  0  0  0
   36.0307   19.6331   28.2045 H   0  0  0  0  0  0  0  0  0  0  0  0
   37.1982   17.2896   27.1960 H   0  0  0  0  0  0  0  0  0  0  0  0
   35.4920   17.2755   27.8220 H   0  0  0  0  0  0  0  0  0  0  0  0
   35.2674   19.5207   26.5153 H   0  0  0  0  0  0  0  0  0  0  0  0
   36.7139   18.9444   25.6197 H   0  0  0  0  0  0  0  0  0  0  0  0
   35.2083   17.9647   25.6197 H   0  0  0  0  0  0  0  0  0  0  0  0
   41.3584   22.0804   35.0429 H   0  0  0  0  0  0  0  0  0  0  0  0
   40.8010   22.8097   37.3852 H   0  0  0  0  0  0  0  0  0  0  0  0
   38.0856   22.8064   40.2234 H   0  0  0  0  0  0  0  0  0  0  0  0
  1  2  1  0
  1 11  1  0
  3  2  2  0
  4  5  1  0
  4  3  1  0
  5  1  2  0
  6  4  1  0
  7  6  1  0
  8  7  1  0
  8  6  1  0
  9  8  1  0
 10  9  1  0
 12 11  1  0
 12 18  1  0
 13 12  2  0
 14 15  2  0
 15 16  1  0
 16 20  1  0
 17 16  2  0
 18 17  1  0
 19 18  2  0
 19 14  1  0
 20 21  2  0
 20 22  1  0
  2 23  1  0
  3 24  1  0
  6 25  1  6
  7 26  1  0
  7 27  1  0
  8 28  1  1
  9 29  1  0
  9 30  1  0
 10 31  1  0
 10 32  1  0
 10 33  1  0
 14 34  1  0
 15 35  1  0
 22 36  1  0
M  ISO  8  23  14  24  14  25  13  26  13  27  13  28  13  29   8  30   8
M  ISO  6  31   8  32   8  33   8  34  14  35  14  36   3
M  END
>  <minimizedAffinity>  (1) 
-4.93245411

>  <minimizedRMSD>  (1) 
1.60357177

$$$$
