
     RDKit          3D

 45 48  0  0  1  0  0  0  0  0999 V2000
   39.0320   20.5620   29.6620 C   0  0  0  0  0  0  0  0  0  0  0  0
   38.9390   19.6280   30.6560 C   0  0  0  0  0  0  0  0  0  0  0  0
   38.1350   20.1630   31.6430 C   0  0  0  0  0  0  0  0  0  0  0  0
   37.7570   21.4100   31.2250 N   0  0  0  0  0  0  0  0  0  0  0  0
   38.2830   21.6460   30.0600 N   0  0  0  0  0  0  0  0  0  0  0  0
   36.9070   22.2960   31.9830 C   0  0  2  0  0  0  0  0  0  0  0  0
   35.4720   21.9440   32.1070 C   0  0  0  0  0  0  0  0  0  0  0  0
   35.8270   23.0510   31.1930 C   0  0  1  0  0  0  0  0  0  0  0  0
   35.6960   24.5030   31.5940 C   0  0  0  0  0  0  0  0  0  0  0  0
   34.7080   25.2420   30.7260 C   0  0  0  0  0  0  0  0  0  0  0  0
   39.7840   20.2910   28.5340 O   0  0  0  0  0  0  0  0  0  0  0  0
   39.4870   19.2100   27.7180 C   0  0  0  0  0  0  0  0  0  0  0  0
   40.4420   18.3870   27.6320 O   0  0  0  0  0  0  0  0  0  0  0  0
   36.0370   18.3260   27.1240 C   0  0  0  0  0  0  0  0  0  0  0  0
   35.8080   18.6050   25.7820 C   0  0  0  0  0  0  0  0  0  0  0  0
   36.8890   19.1130   25.0780 C   0  0  0  0  0  0  0  0  0  0  0  0
   38.0880   19.3170   25.6850 N   0  0  0  0  0  0  0  0  0  0  0  0
   38.2280   19.0120   27.0230 C   0  0  0  0  0  0  0  0  0  0  0  0
   37.2040   18.5250   27.7100 N   0  0  0  0  0  0  0  0  0  0  0  0
   36.8340   19.4550   23.6970 N   0  0  0  0  0  0  0  0  0  0  0  0
   36.5320   18.6240   22.5330 C   0  0  0  0  0  0  0  0  0  0  0  0
   35.4740   19.4910   21.8410 C   0  0  0  0  0  0  0  0  0  0  0  0
   35.8450   20.9150   22.1900 C   0  0  0  0  0  0  0  0  0  0  0  0
   37.0720   20.7560   23.0830 C   0  0  0  0  0  0  0  0  0  0  0  0
   39.4152   18.6365   30.6674 H   0  0  0  0  0  0  0  0  0  0  0  0
   37.8514   19.6776   32.5885 H   0  0  0  0  0  0  0  0  0  0  0  0
   37.7068   22.5622   32.6898 H   0  0  0  0  0  0  0  0  0  0  0  0
   35.1085   20.9924   31.6918 H   0  0  0  0  0  0  0  0  0  0  0  0
   34.7807   21.8487   32.9573 H   0  0  0  0  0  0  0  0  0  0  0  0
   35.5462   23.2597   30.1501 H   0  0  0  0  0  0  0  0  0  0  0  0
   35.3576   24.5536   32.6394 H   0  0  0  0  0  0  0  0  0  0  0  0
   36.6797   24.9796   31.4707 H   0  0  0  0  0  0  0  0  0  0  0  0
   33.9900   25.7790   31.3632 H   0  0  0  0  0  0  0  0  0  0  0  0
   35.2447   25.9621   30.0909 H   0  0  0  0  0  0  0  0  0  0  0  0
   34.1688   24.5237   30.0909 H   0  0  0  0  0  0  0  0  0  0  0  0
   35.2094   17.9213   27.7252 H   0  0  0  0  0  0  0  0  0  0  0  0
   34.8303   18.4335   25.3080 H   0  0  0  0  0  0  0  0  0  0  0  0
   37.4175   18.4781   21.8969 H   0  0  0  0  0  0  0  0  0  0  0  0
   36.2038   17.6015   22.7713 H   0  0  0  0  0  0  0  0  0  0  0  0
   34.4693   19.2497   22.2184 H   0  0  0  0  0  0  0  0  0  0  0  0
   35.4505   19.3249   20.7539 H   0  0  0  0  0  0  0  0  0  0  0  0
   36.0895   21.4905   21.2850 H   0  0  0  0  0  0  0  0  0  0  0  0
   35.0267   21.4625   22.6805 H   0  0  0  0  0  0  0  0  0  0  0  0
   37.9994   20.7550   22.4914 H   0  0  0  0  0  0  0  0  0  0  0  0
   37.2006   21.5721   23.8092 H   0  0  0  0  0  0  0  0  0  0  0  0
  1  5  2  0
  1  2  1  0
  2  3  2  0
  4  3  1  0
  4  6  1  0
  5  4  1  0
  6  7  1  0
  8  9  1  0
  8  6  1  0
  8  7  1  0
 10  9  1  0
 11  1  1  0
 12 11  1  0
 13 12  2  0
 14 19  2  0
 15 14  1  0
 16 17  1  0
 16 15  2  0
 17 18  2  0
 18 19  1  0
 18 12  1  0
 20 16  1  0
 21 20  1  0
 22 23  1  0
 22 21  1  0
 23 24  1  0
 24 20  1  0
  2 25  1  0
  3 26  1  0
  6 27  1  1
  7 28  1  0
  7 29  1  0
  8 30  1  6
  9 31  1  0
  9 32  1  0
 10 33  1  0
 10 34  1  0
 10 35  1  0
 14 36  1  0
 15 37  1  0
 21 38  1  0
 21 39  1  0
 22 40  1  0
 22 41  1  0
 23 42  1  0
 23 43  1  0
 24 44  1  0
 24 45  1  0
M  ISO  8  25  14  26  14  27  13  28  13  29  13  30  13  31   8  32   8
M  ISO  8  33   8  34   8  35   8  36  14  37  14  38  13  39  13  40  13
M  ISO  5  41  13  42  13  43  13  44  13  45  13
M  END
>  <minimizedAffinity>  (1) 
-4.21077156

>  <minimizedRMSD>  (1) 
10.7192736

$$$$
