
     RDKit          3D

 34 36  0  0  1  0  0  0  0  0999 V2000
   36.6190   21.1070   32.8720 C   0  0  0  0  0  0  0  0  0  0  0  0
   35.5880   20.3160   33.3020 C   0  0  0  0  0  0  0  0  0  0  0  0
   35.4890   19.2360   32.4520 C   0  0  0  0  0  0  0  0  0  0  0  0
   36.4680   19.3890   31.5150 N   0  0  0  0  0  0  0  0  0  0  0  0
   37.1340   20.4810   31.7540 N   0  0  0  0  0  0  0  0  0  0  0  0
   36.7050   18.4650   30.4370 C   0  0  2  0  0  0  0  0  0  0  0  0
   38.0980   18.3500   29.9120 C   0  0  0  0  0  0  0  0  0  0  0  0
   37.0950   19.0490   29.0860 C   0  0  1  0  0  0  0  0  0  0  0  0
   36.4050   18.4090   27.9060 C   0  0  0  0  0  0  0  0  0  0  0  0
   36.9670   18.8570   26.5880 C   0  0  0  0  0  0  0  0  0  0  0  0
   36.9300   22.2610   33.5560 O   0  0  0  0  0  0  0  0  0  0  0  0
   38.2310   22.5860   33.8600 C   0  0  0  0  0  0  0  0  0  0  0  0
   38.9170   22.8450   32.8240 O   0  0  0  0  0  0  0  0  0  0  0  0
   40.5010   22.0210   36.6210 C   0  0  0  0  0  0  0  0  0  0  0  0
   39.9470   22.7050   37.6930 C   0  0  0  0  0  0  0  0  0  0  0  0
   38.7600   23.3720   37.4330 C   0  0  0  0  0  0  0  0  0  0  0  0
   38.2080   23.3320   36.1970 N   0  0  0  0  0  0  0  0  0  0  0  0
   38.8010   22.6430   35.1860 C   0  0  0  0  0  0  0  0  0  0  0  0
   39.9200   22.0120   35.4230 N   0  0  0  0  0  0  0  0  0  0  0  0
   37.9920   24.2800   38.7880 S   0  0  0  0  0  0  0  0  0  0  0  0
   34.9484   20.5093   34.1759 H   0  0  0  0  0  0  0  0  0  0  0  0
   34.7629   18.4122   32.5166 H   0  0  0  0  0  0  0  0  0  0  0  0
   35.9434   17.7599   30.8013 H   0  0  0  0  0  0  0  0  0  0  0  0
   38.9085   18.9228   30.3864 H   0  0  0  0  0  0  0  0  0  0  0  0
   38.7854   17.5092   29.7370 H   0  0  0  0  0  0  0  0  0  0  0  0
   37.1205   20.0250   28.5792 H   0  0  0  0  0  0  0  0  0  0  0  0
   36.5177   17.3175   27.9830 H   0  0  0  0  0  0  0  0  0  0  0  0
   35.3486   18.7142   27.9356 H   0  0  0  0  0  0  0  0  0  0  0  0
   37.8162   19.5340   26.7626 H   0  0  0  0  0  0  0  0  0  0  0  0
   37.3081   17.9803   26.0178 H   0  0  0  0  0  0  0  0  0  0  0  0
   36.1884   19.3850   26.0178 H   0  0  0  0  0  0  0  0  0  0  0  0
   41.4436   21.4724   36.7641 H   0  0  0  0  0  0  0  0  0  0  0  0
   40.4195   22.7174   38.6863 H   0  0  0  0  0  0  0  0  0  0  0  0
   38.4244   23.7688   39.9832 H   0  0  0  0  0  0  0  0  0  0  0  0
  1  2  1  0
  1 11  1  0
  3  2  2  0
  4  5  1  0
  4  3  1  0
  5  1  2  0
  6  4  1  0
  7  6  1  0
  8  7  1  0
  8  6  1  0
  9  8  1  0
 10  9  1  0
 11 12  1  0
 12 18  1  0
 13 12  2  0
 14 15  2  0
 16 15  1  0
 16 20  1  0
 17 16  2  0
 18 19  2  0
 18 17  1  0
 19 14  1  0
  2 21  1  0
  3 22  1  0
  6 23  1  6
  7 24  1  0
  7 25  1  0
  8 26  1  1
  9 27  1  0
  9 28  1  0
 10 29  1  0
 10 30  1  0
 10 31  1  0
 14 32  1  0
 15 33  1  0
 20 34  1  0
M  ISO  8  21  14  22  14  23  13  24  13  25  13  26  13  27   8  28   8
M  ISO  6  29   8  30   8  31   8  32  14  33  14  34  11
M  END
>  <minimizedAffinity>  (1) 
-4.14693356

>  <minimizedRMSD>  (1) 
0.858087003

$$$$
