
     RDKit          3D

 21 22  0  0  0  0  0  0  0  0999 V2000
   40.5100   22.4920   37.6910 C   0  0  0  0  0  0  0  0  0  0  0  0
   39.2610   23.1020   37.4370 C   0  0  0  0  0  0  0  0  0  0  0  0
   38.8140   23.1610   36.1260 C   0  0  0  0  0  0  0  0  0  0  0  0
   39.5960   22.6280   35.1410 N   0  0  0  0  0  0  0  0  0  0  0  0
   40.7910   22.0490   35.4220 C   0  0  0  0  0  0  0  0  0  0  0  0
   41.2230   21.9920   36.6780 N   0  0  0  0  0  0  0  0  0  0  0  0
   41.5580   21.5080   34.3040 C   0  0  0  0  0  0  0  0  0  0  0  0
   40.9690   21.4000   33.0610 C   0  0  0  0  0  0  0  0  0  0  0  0
   41.7950   20.8690   32.0650 C   0  0  0  0  0  0  0  0  0  0  0  0
   43.0610   20.5020   32.3350 N   0  0  0  0  0  0  0  0  0  0  0  0
   43.6030   20.6190   33.5470 C   0  0  0  0  0  0  0  0  0  0  0  0
   42.8280   21.1310   34.5370 N   0  0  0  0  0  0  0  0  0  0  0  0
   38.4000   23.6870   38.5150 C   0  0  0  0  0  0  0  0  0  0  0  0
   39.2120   23.8540   39.6240 F   0  0  0  0  0  0  0  0  0  0  0  0
   37.3690   22.8600   38.8630 F   0  0  0  0  0  0  0  0  0  0  0  0
   37.9810   24.9730   38.1810 F   0  0  0  0  0  0  0  0  0  0  0  0
   40.8941   22.4290   38.7198 H   0  0  0  0  0  0  0  0  0  0  0  0
   37.8480   23.6281   35.8836 H   0  0  0  0  0  0  0  0  0  0  0  0
   39.9306   21.7076   32.8683 H   0  0  0  0  0  0  0  0  0  0  0  0
   41.4032   20.7495   31.0441 H   0  0  0  0  0  0  0  0  0  0  0  0
   44.6417   20.3115   33.7383 H   0  0  0  0  0  0  0  0  0  0  0  0
  2  1  2  0
  2 13  1  0
  3  2  1  0
  4  5  1  0
  4  3  2  0
  5  6  2  0
  6  1  1  0
  7 12  1  0
  7  5  1  0
  8  7  2  0
  9 10  2  0
  9  8  1  0
 10 11  1  0
 11 12  2  0
 13 15  1  0
 13 14  1  0
 16 13  1  0
  1 17  1  0
  3 18  1  0
  8 19  1  0
  9 20  1  0
 11 21  1  0
M  ISO  5  17  14  18  14  19  14  20  14  21  14
M  END
>  <minimizedAffinity>  (1) 
-3.9230721

>  <minimizedRMSD>  (1) 
0.121679291

$$$$
