
     RDKit          3D

 45 47  0  0  1  0  0  0  0  0999 V2000
   36.0940   20.1180   32.6150 C   0  0  0  0  0  0  0  0  0  0  0  0
   35.4410   18.9340   32.9180 C   0  0  0  0  0  0  0  0  0  0  0  0
   35.7050   18.0410   31.8950 C   0  0  0  0  0  0  0  0  0  0  0  0
   36.5000   18.6860   31.0060 N   0  0  0  0  0  0  0  0  0  0  0  0
   36.7290   19.8960   31.4220 N   0  0  0  0  0  0  0  0  0  0  0  0
   37.0170   18.1160   29.7780 C   0  0  2  0  0  0  0  0  0  0  0  0
   38.0090   18.8890   29.0040 C   0  0  0  0  0  0  0  0  0  0  0  0
   36.6260   18.7970   28.4740 C   0  0  1  0  0  0  0  0  0  0  0  0
   36.2750   17.8610   27.3520 C   0  0  0  0  0  0  0  0  0  0  0  0
   35.7610   18.5750   26.1200 C   0  0  0  0  0  0  0  0  0  0  0  0
   35.9860   21.1820   33.4930 O   0  0  0  0  0  0  0  0  0  0  0  0
   36.9490   22.1580   33.5160 C   0  0  0  0  0  0  0  0  0  0  0  0
   36.8550   22.9920   32.5510 O   0  0  0  0  0  0  0  0  0  0  0  0
   40.2260   21.9900   35.0600 C   0  0  0  0  0  0  0  0  0  0  0  0
   40.0450   22.5050   36.3340 C   0  0  0  0  0  0  0  0  0  0  0  0
   38.7680   22.9110   36.6550 C   0  0  0  0  0  0  0  0  0  0  0  0
   37.7600   22.8060   35.7570 N   0  0  0  0  0  0  0  0  0  0  0  0
   38.0010   22.2890   34.5110 C   0  0  0  0  0  0  0  0  0  0  0  0
   39.2190   21.8960   34.1920 N   0  0  0  0  0  0  0  0  0  0  0  0
   38.5140   23.4630   37.9910 C   0  0  0  0  0  0  0  0  0  0  0  0
   37.3330   22.8820   38.4630 F   0  0  0  0  0  0  0  0  0  0  0  0
   38.1830   24.8140   37.9150 F   0  0  0  0  0  0  0  0  0  0  0  0
   39.5250   23.3480   38.8780 F   0  0  0  0  0  0  0  0  0  0  0  0
   41.2350   22.5850   37.2190 C   0  0  0  0  0  0  0  0  0  0  0  0
   41.8350   21.2510   37.5170 C   0  0  0  0  0  0  0  0  0  0  0  0
   42.3580   23.3280   36.4560 C   0  0  0  0  0  0  0  0  0  0  0  0
   34.8255   18.7398   33.8087 H   0  0  0  0  0  0  0  0  0  0  0  0
   35.3400   17.0062   31.8176 H   0  0  0  0  0  0  0  0  0  0  0  0
   36.9734   17.0923   30.1783 H   0  0  0  0  0  0  0  0  0  0  0  0
   38.3793   19.8475   29.3966 H   0  0  0  0  0  0  0  0  0  0  0  0
   39.0041   18.6644   28.5926 H   0  0  0  0  0  0  0  0  0  0  0  0
   35.9089   19.5538   28.1233 H   0  0  0  0  0  0  0  0  0  0  0  0
   37.1752   17.2920   27.0765 H   0  0  0  0  0  0  0  0  0  0  0  0
   35.4674   17.2066   27.7120 H   0  0  0  0  0  0  0  0  0  0  0  0
   35.1434   19.4329   26.4243 H   0  0  0  0  0  0  0  0  0  0  0  0
   36.6120   18.9302   25.5203 H   0  0  0  0  0  0  0  0  0  0  0  0
   35.1541   17.8807   25.5203 H   0  0  0  0  0  0  0  0  0  0  0  0
   41.2273   21.6498   34.7573 H   0  0  0  0  0  0  0  0  0  0  0  0
   40.8952   23.0718   38.1451 H   0  0  0  0  0  0  0  0  0  0  0  0
   41.8975   21.1121   38.6064 H   0  0  0  0  0  0  0  0  0  0  0  0
   41.2057   20.4605   37.0821 H   0  0  0  0  0  0  0  0  0  0  0  0
   42.8439   21.1973   37.0821 H   0  0  0  0  0  0  0  0  0  0  0  0
   43.0504   23.7861   37.1775 H   0  0  0  0  0  0  0  0  0  0  0  0
   42.9064   22.6139   35.8241 H   0  0  0  0  0  0  0  0  0  0  0  0
   41.9153   24.1120   35.8241 H   0  0  0  0  0  0  0  0  0  0  0  0
  1  2  1  0
  1 11  1  0
  3  2  2  0
  4  5  1  0
  4  3  1  0
  5  1  2  0
  6  4  1  0
  7  6  1  0
  8  7  1  0
  8  6  1  0
  9  8  1  0
 10  9  1  0
 11 12  1  0
 12 18  1  0
 13 12  2  0
 14 15  2  0
 15 16  1  0
 15 24  1  0
 16 20  1  0
 17 16  2  0
 18 17  1  0
 19 18  2  0
 19 14  1  0
 20 21  1  0
 20 23  1  0
 22 20  1  0
 24 25  1  0
 26 24  1  0
  2 27  1  0
  3 28  1  0
  6 29  1  6
  7 30  1  0
  7 31  1  0
  8 32  1  1
  9 33  1  0
  9 34  1  0
 10 35  1  0
 10 36  1  0
 10 37  1  0
 14 38  1  0
 24 39  1  0
 25 40  1  0
 25 41  1  0
 25 42  1  0
 26 43  1  0
 26 44  1  0
 26 45  1  0
M  ISO  8  27  14  28  14  29  13  30  13  31  13  32  13  33   8  34   8
M  ISO  8  35   8  36   8  37   8  38  14  39   8  40   8  41   8  42   8
M  ISO  3  43   8  44   8  45   8
M  END
>  <minimizedAffinity>  (1) 
-5.59523058

>  <minimizedRMSD>  (1) 
0.698276877

$$$$
