
     RDKit          3D

 37 39  0  0  1  0  0  0  0  0999 V2000
   36.2470   20.3670   32.7400 C   0  0  0  0  0  0  0  0  0  0  0  0
   35.4480   19.2560   33.0000 C   0  0  0  0  0  0  0  0  0  0  0  0
   35.6780   18.3480   31.9840 C   0  0  0  0  0  0  0  0  0  0  0  0
   36.5900   18.9080   31.1450 N   0  0  0  0  0  0  0  0  0  0  0  0
   36.9160   20.0770   31.5880 N   0  0  0  0  0  0  0  0  0  0  0  0
   37.1180   18.2980   29.9440 C   0  0  2  0  0  0  0  0  0  0  0  0
   38.1080   19.0490   29.1370 C   0  0  0  0  0  0  0  0  0  0  0  0
   36.7310   18.9340   28.6150 C   0  0  1  0  0  0  0  0  0  0  0  0
   36.3870   17.9470   27.5250 C   0  0  0  0  0  0  0  0  0  0  0  0
   35.8580   18.6200   26.2720 C   0  0  0  0  0  0  0  0  0  0  0  0
   36.1940   21.4290   33.6300 O   0  0  0  0  0  0  0  0  0  0  0  0
   37.2690   22.2990   33.7260 C   0  0  0  0  0  0  0  0  0  0  0  0
   37.4030   23.0360   32.6970 O   0  0  0  0  0  0  0  0  0  0  0  0
   40.2920   22.0200   35.6880 C   0  0  0  0  0  0  0  0  0  0  0  0
   39.9410   22.5230   36.9340 C   0  0  0  0  0  0  0  0  0  0  0  0
   38.6220   22.9680   37.0900 C   0  0  0  0  0  0  0  0  0  0  0  0
   37.7560   22.9010   36.0660 N   0  0  0  0  0  0  0  0  0  0  0  0
   38.1680   22.3910   34.8590 C   0  0  0  0  0  0  0  0  0  0  0  0
   39.4130   21.9680   34.7000 N   0  0  0  0  0  0  0  0  0  0  0  0
   38.1980   23.5150   38.3990 C   0  0  0  0  0  0  0  0  0  0  0  0
   37.1930   22.6710   38.8710 F   0  0  0  0  0  0  0  0  0  0  0  0
   37.5980   24.7510   38.2320 F   0  0  0  0  0  0  0  0  0  0  0  0
   39.2320   23.6710   39.2860 F   0  0  0  0  0  0  0  0  0  0  0  0
   40.8380   22.5980   38.0060 O   0  0  0  0  0  0  0  0  0  0  0  0
   34.7642   19.1262   33.8518 H   0  0  0  0  0  0  0  0  0  0  0  0
   35.2110   17.3581   31.8745 H   0  0  0  0  0  0  0  0  0  0  0  0
   37.0812   17.2903   30.3835 H   0  0  0  0  0  0  0  0  0  0  0  0
   38.4754   20.0224   29.4940 H   0  0  0  0  0  0  0  0  0  0  0  0
   39.1030   18.8131   28.7317 H   0  0  0  0  0  0  0  0  0  0  0  0
   36.0135   19.6775   28.2377 H   0  0  0  0  0  0  0  0  0  0  0  0
   37.2931   17.3803   27.2644 H   0  0  0  0  0  0  0  0  0  0  0  0
   35.5932   17.2899   27.9099 H   0  0  0  0  0  0  0  0  0  0  0  0
   35.2010   19.4559   26.5543 H   0  0  0  0  0  0  0  0  0  0  0  0
   36.7009   19.0010   25.6767 H   0  0  0  0  0  0  0  0  0  0  0  0
   35.2887   17.8910   25.6767 H   0  0  0  0  0  0  0  0  0  0  0  0
   41.3173   21.6589   35.5195 H   0  0  0  0  0  0  0  0  0  0  0  0
   40.5402   22.9649   38.8759 H   0  0  0  0  0  0  0  0  0  0  0  0
  1  2  1  0
  1 11  1  0
  3  2  2  0
  4  5  1  0
  4  3  1  0
  5  1  2  0
  6  4  1  0
  7  6  1  0
  8  7  1  0
  8  6  1  0
  9  8  1  0
 10  9  1  0
 11 12  1  0
 12 18  1  0
 13 12  2  0
 14 15  2  0
 15 16  1  0
 15 24  1  0
 16 20  1  0
 17 16  2  0
 18 17  1  0
 19 18  2  0
 19 14  1  0
 20 21  1  0
 20 23  1  0
 22 20  1  0
  2 25  1  0
  3 26  1  0
  6 27  1  6
  7 28  1  0
  7 29  1  0
  8 30  1  1
  9 31  1  0
  9 32  1  0
 10 33  1  0
 10 34  1  0
 10 35  1  0
 14 36  1  0
 24 37  1  0
M  ISO  8  25  14  26  14  27  13  28  13  29  13  30  13  31   8  32   8
M  ISO  5  33   8  34   8  35   8  36  14  37   3
M  END
>  <minimizedAffinity>  (1) 
-5.37803793

>  <minimizedRMSD>  (1) 
0.217837408

$$$$
