
     RDKit          3D

 28 29  0  0  1  0  0  0  0  0999 V2000
   38.6820   26.0270   35.0650 C   0  0  2  0  0  0  0  0  0  0  0  0
   39.6950   23.0430   36.9360 C   0  0  0  0  0  0  0  0  0  0  0  0
   38.9240   23.0980   38.1170 C   0  0  0  0  0  0  0  0  0  0  0  0
   38.0520   24.1760   38.2570 C   0  0  0  0  0  0  0  0  0  0  0  0
   38.0130   25.0970   37.2370 N   0  0  0  0  0  0  0  0  0  0  0  0
   38.7640   25.0060   36.1290 C   0  0  0  0  0  0  0  0  0  0  0  0
   39.6020   23.9910   35.9720 N   0  0  0  0  0  0  0  0  0  0  0  0
   40.0360   26.6800   34.9090 C   0  0  0  0  0  0  0  0  0  0  0  0
   37.6960   27.1250   35.3720 C   0  0  0  0  0  0  0  0  0  0  0  0
   36.9090   27.5850   34.2220 C   0  0  0  0  0  0  0  0  0  0  0  0
   36.1940   28.7490   34.4500 C   0  0  0  0  0  0  0  0  0  0  0  0
   35.4080   29.2940   33.4450 C   0  0  0  0  0  0  0  0  0  0  0  0
   35.3030   28.7040   32.1820 C   0  0  0  0  0  0  0  0  0  0  0  0
   36.0510   27.5350   32.0240 C   0  0  0  0  0  0  0  0  0  0  0  0
   36.7980   27.0310   33.0010 N   0  0  0  0  0  0  0  0  0  0  0  0
   38.3521   25.5063   34.1540 H   0  0  0  0  0  0  0  0  0  0  0  0
   40.3929   22.2048   36.7937 H   0  0  0  0  0  0  0  0  0  0  0  0
   39.0078   22.3233   38.8934 H   0  0  0  0  0  0  0  0  0  0  0  0
   37.4189   24.2859   39.1498 H   0  0  0  0  0  0  0  0  0  0  0  0
   40.4609   26.8849   35.9027 H   0  0  0  0  0  0  0  0  0  0  0  0
   40.7064   26.0062   34.3554 H   0  0  0  0  0  0  0  0  0  0  0  0
   39.9261   27.6242   34.3554 H   0  0  0  0  0  0  0  0  0  0  0  0
   36.9986   26.7543   36.1376 H   0  0  0  0  0  0  0  0  0  0  0  0
   38.2890   27.9889   35.7067 H   0  0  0  0  0  0  0  0  0  0  0  0
   36.2495   29.2431   35.4312 H   0  0  0  0  0  0  0  0  0  0  0  0
   34.8497   30.2197   33.6484 H   0  0  0  0  0  0  0  0  0  0  0  0
   34.6819   29.1260   31.3781 H   0  0  0  0  0  0  0  0  0  0  0  0
   36.0208   27.0128   31.0563 H   0  0  0  0  0  0  0  0  0  0  0  0
  1  9  1  0
  1  6  1  0
  2  3  2  0
  3  4  1  0
  5  4  2  0
  6  5  1  0
  7  6  2  0
  7  2  1  0
  8  1  1  0
 10 11  2  0
 10  9  1  0
 12 11  1  0
 13 12  2  0
 14 13  1  0
 14 15  2  0
 15 10  1  0
  1 16  1  6
  2 17  1  0
  3 18  1  0
  4 19  1  0
  8 20  1  0
  8 21  1  0
  8 22  1  0
  9 23  1  0
  9 24  1  0
 11 25  1  0
 12 26  1  0
 13 27  1  0
 14 28  1  0
M  ISO  8  16   8  17  14  18  14  19  14  20   8  21   8  22   8  23   8
M  ISO  5  24   8  25  14  26  14  27  14  28  14
M  END
>  <minimizedAffinity>  (1) 
-4.423913

>  <minimizedRMSD>  (1) 
3.38166571

$$$$
