
     RDKit          3D

 49 52  0  0  1  0  0  0  0  0999 V2000
   36.0830   19.4600   32.0980 C   0  0  0  0  0  0  0  0  0  0  0  0
   35.9030   18.1110   32.3890 C   0  0  0  0  0  0  0  0  0  0  0  0
   36.2550   17.3900   31.2610 C   0  0  0  0  0  0  0  0  0  0  0  0
   36.6340   18.2950   30.3240 N   0  0  0  0  0  0  0  0  0  0  0  0
   36.5380   19.5110   30.8010 N   0  0  0  0  0  0  0  0  0  0  0  0
   37.0840   17.9710   28.9830 C   0  0  2  0  0  0  0  0  0  0  0  0
   37.8480   18.9840   28.2330 C   0  0  0  0  0  0  0  0  0  0  0  0
   36.4400   18.7360   27.8410 C   0  0  1  0  0  0  0  0  0  0  0  0
   36.0640   17.9030   26.6440 C   0  0  0  0  0  0  0  0  0  0  0  0
   35.2800   18.6680   25.6030 C   0  0  0  0  0  0  0  0  0  0  0  0
   35.7970   20.3990   33.0730 O   0  0  0  0  0  0  0  0  0  0  0  0
   36.4900   21.5860   33.1140 C   0  0  0  0  0  0  0  0  0  0  0  0
   36.0370   22.4530   32.3210 O   0  0  0  0  0  0  0  0  0  0  0  0
   39.9360   21.8200   34.2340 C   0  0  0  0  0  0  0  0  0  0  0  0
   39.8330   22.3730   35.5190 C   0  0  0  0  0  0  0  0  0  0  0  0
   38.5620   22.6580   35.9800 C   0  0  0  0  0  0  0  0  0  0  0  0
   37.4970   22.4080   35.2130 N   0  0  0  0  0  0  0  0  0  0  0  0
   37.6330   21.8690   33.9650 C   0  0  0  0  0  0  0  0  0  0  0  0
   38.8470   21.5880   33.5030 N   0  0  0  0  0  0  0  0  0  0  0  0
   41.1040   22.5190   36.1340 N   0  0  0  0  0  0  0  0  0  0  0  0
   41.8580   21.6620   37.0280 C   0  0  0  0  0  0  0  0  0  0  0  0
   43.1190   21.2830   36.2630 C   0  0  0  0  0  0  0  0  0  0  0  0
   43.9180   22.4390   36.2830 O   0  0  0  0  0  0  0  0  0  0  0  0
   43.2990   23.3550   35.4350 C   0  0  0  0  0  0  0  0  0  0  0  0
   41.9020   23.7300   35.8870 C   0  0  0  0  0  0  0  0  0  0  0  0
   38.4370   23.2390   37.3180 C   0  0  0  0  0  0  0  0  0  0  0  0
   37.0770   23.1980   37.6500 F   0  0  0  0  0  0  0  0  0  0  0  0
   38.7190   24.6050   37.2860 F   0  0  0  0  0  0  0  0  0  0  0  0
   39.2460   22.7000   38.2690 F   0  0  0  0  0  0  0  0  0  0  0  0
   35.5459   17.6936   33.3421 H   0  0  0  0  0  0  0  0  0  0  0  0
   36.2319   16.2962   31.1466 H   0  0  0  0  0  0  0  0  0  0  0  0
   37.2456   16.9126   29.2352 H   0  0  0  0  0  0  0  0  0  0  0  0
   38.1193   19.9325   28.7195 H   0  0  0  0  0  0  0  0  0  0  0  0
   38.8069   18.9779   27.6940 H   0  0  0  0  0  0  0  0  0  0  0  0
   35.5876   19.4106   27.6727 H   0  0  0  0  0  0  0  0  0  0  0  0
   36.9863   17.5256   26.1782 H   0  0  0  0  0  0  0  0  0  0  0  0
   35.4174   17.0895   27.0046 H   0  0  0  0  0  0  0  0  0  0  0  0
   34.5784   19.3526   26.1022 H   0  0  0  0  0  0  0  0  0  0  0  0
   35.9727   19.2470   24.9745 H   0  0  0  0  0  0  0  0  0  0  0  0
   34.7182   17.9613   24.9745 H   0  0  0  0  0  0  0  0  0  0  0  0
   40.9275   21.5751   33.8253 H   0  0  0  0  0  0  0  0  0  0  0  0
   42.1162   22.2019   37.9509 H   0  0  0  0  0  0  0  0  0  0  0  0
   41.2800   20.7748   37.3261 H   0  0  0  0  0  0  0  0  0  0  0  0
   42.8735   21.0006   35.2286 H   0  0  0  0  0  0  0  0  0  0  0  0
   43.6308   20.4192   36.7123 H   0  0  0  0  0  0  0  0  0  0  0  0
   43.2355   22.9142   34.4292 H   0  0  0  0  0  0  0  0  0  0  0  0
   43.9051   24.2729   35.4435 H   0  0  0  0  0  0  0  0  0  0  0  0
   41.9661   24.3180   36.8145 H   0  0  0  0  0  0  0  0  0  0  0  0
   41.4174   24.3236   35.0978 H   0  0  0  0  0  0  0  0  0  0  0  0
  1  2  1  0
  1 11  1  0
  3  2  2  0
  4  5  1  0
  4  3  1  0
  5  1  2  0
  6  4  1  0
  7  6  1  0
  8  7  1  0
  8  6  1  0
  9  8  1  0
 10  9  1  0
 11 12  1  0
 12 18  1  0
 13 12  2  0
 14 15  2  0
 15 16  1  0
 15 20  1  0
 16 26  1  0
 17 16  2  0
 18 17  1  0
 19 18  2  0
 19 14  1  0
 20 21  1  0
 22 23  1  0
 22 21  1  0
 24 25  1  0
 24 23  1  0
 25 20  1  0
 26 27  1  0
 26 29  1  0
 28 26  1  0
  2 30  1  0
  3 31  1  0
  6 32  1  6
  7 33  1  0
  7 34  1  0
  8 35  1  1
  9 36  1  0
  9 37  1  0
 10 38  1  0
 10 39  1  0
 10 40  1  0
 14 41  1  0
 21 42  1  0
 21 43  1  0
 22 44  1  0
 22 45  1  0
 24 46  1  0
 24 47  1  0
 25 48  1  0
 25 49  1  0
M  ISO  8  30  14  31  14  32  13  33  13  34  13  35  13  36   8  37   8
M  ISO  8  38   8  39   8  40   8  41  14  42  13  43  13  44  13  45  13
M  ISO  4  46  13  47  13  48  13  49  13
M  END
>  <minimizedAffinity>  (1) 
-5.13237762

>  <minimizedRMSD>  (1) 
1.59065759

$$$$
