
     RDKit          3D

 48 50  0  0  1  0  0  0  0  0999 V2000
   35.9850   18.8880   32.2780 C   0  0  0  0  0  0  0  0  0  0  0  0
   35.8290   17.5190   32.4060 C   0  0  0  0  0  0  0  0  0  0  0  0
   36.2240   16.9360   31.2160 C   0  0  0  0  0  0  0  0  0  0  0  0
   36.6070   17.9400   30.3970 N   0  0  0  0  0  0  0  0  0  0  0  0
   36.4700   19.0830   31.0080 N   0  0  0  0  0  0  0  0  0  0  0  0
   37.0950   17.7690   29.0450 C   0  0  2  0  0  0  0  0  0  0  0  0
   37.9240   18.8460   28.4520 C   0  0  0  0  0  0  0  0  0  0  0  0
   36.5210   18.6970   27.9790 C   0  0  1  0  0  0  0  0  0  0  0  0
   36.2070   18.0330   26.6710 C   0  0  0  0  0  0  0  0  0  0  0  0
   35.4010   18.9050   25.7330 C   0  0  0  0  0  0  0  0  0  0  0  0
   35.6540   19.7080   33.3420 O   0  0  0  0  0  0  0  0  0  0  0  0
   36.0570   21.0410   33.3440 C   0  0  0  0  0  0  0  0  0  0  0  0
   35.2620   21.8070   32.7420 O   0  0  0  0  0  0  0  0  0  0  0  0
   39.5530   21.8680   33.8070 C   0  0  0  0  0  0  0  0  0  0  0  0
   39.6280   22.4080   35.0610 C   0  0  0  0  0  0  0  0  0  0  0  0
   38.4550   22.5000   35.7660 C   0  0  0  0  0  0  0  0  0  0  0  0
   37.3020   22.0670   35.2260 N   0  0  0  0  0  0  0  0  0  0  0  0
   37.2760   21.5350   33.9720 C   0  0  0  0  0  0  0  0  0  0  0  0
   38.3940   21.4440   33.2850 N   0  0  0  0  0  0  0  0  0  0  0  0
   38.4800   23.0900   37.0920 C   0  0  0  0  0  0  0  0  0  0  0  0
   37.1830   23.0430   37.6120 F   0  0  0  0  0  0  0  0  0  0  0  0
   38.6760   24.4820   37.0040 F   0  0  0  0  0  0  0  0  0  0  0  0
   39.4020   22.6930   37.9490 F   0  0  0  0  0  0  0  0  0  0  0  0
   40.9870   22.8800   35.4190 C   0  0  0  0  0  0  0  0  0  0  0  0
   41.3920   22.6280   36.8520 C   0  0  0  0  0  0  0  0  0  0  0  0
   42.0380   22.4990   34.4000 C   0  0  0  0  0  0  0  0  0  0  0  0
   41.0410   24.4010   35.3450 C   0  0  0  0  0  0  0  0  0  0  0  0
   35.4572   16.9892   33.2954 H   0  0  0  0  0  0  0  0  0  0  0  0
   36.2260   15.8613   30.9812 H   0  0  0  0  0  0  0  0  0  0  0  0
   37.2105   16.6820   29.1682 H   0  0  0  0  0  0  0  0  0  0  0  0
   38.2037   19.7172   29.0625 H   0  0  0  0  0  0  0  0  0  0  0  0
   38.9034   18.8730   27.9519 H   0  0  0  0  0  0  0  0  0  0  0  0
   35.6897   19.4092   27.8706 H   0  0  0  0  0  0  0  0  0  0  0  0
   37.1541   17.7713   26.1765 H   0  0  0  0  0  0  0  0  0  0  0  0
   35.5963   17.1460   26.8953 H   0  0  0  0  0  0  0  0  0  0  0  0
   34.7693   19.5884   26.3195 H   0  0  0  0  0  0  0  0  0  0  0  0
   36.0834   19.4899   25.0988 H   0  0  0  0  0  0  0  0  0  0  0  0
   34.7643   18.2706   25.0988 H   0  0  0  0  0  0  0  0  0  0  0  0
   40.4718   21.7790   33.2087 H   0  0  0  0  0  0  0  0  0  0  0  0
   40.6548   23.0867   37.5274 H   0  0  0  0  0  0  0  0  0  0  0  0
   41.4336   21.5443   37.0361 H   0  0  0  0  0  0  0  0  0  0  0  0
   42.3826   23.0695   37.0361 H   0  0  0  0  0  0  0  0  0  0  0  0
   42.9496   22.1685   34.9195 H   0  0  0  0  0  0  0  0  0  0  0  0
   41.6583   21.6813   33.7698 H   0  0  0  0  0  0  0  0  0  0  0  0
   42.2705   23.3701   33.7698 H   0  0  0  0  0  0  0  0  0  0  0  0
   41.0558   24.8173   36.3631 H   0  0  0  0  0  0  0  0  0  0  0  0
   41.9507   24.7100   34.8093 H   0  0  0  0  0  0  0  0  0  0  0  0
   40.1555   24.7737   34.8093 H   0  0  0  0  0  0  0  0  0  0  0  0
  1  2  1  0
  1 11  1  0
  3  2  2  0
  4  5  1  0
  4  3  1  0
  5  1  2  0
  6  4  1  0
  7  6  1  0
  8  7  1  0
  8  6  1  0
  9  8  1  0
 10  9  1  0
 11 12  1  0
 12 18  1  0
 13 12  2  0
 14 15  2  0
 15 24  1  0
 15 16  1  0
 16 20  1  0
 17 16  2  0
 18 17  1  0
 19 14  1  0
 19 18  2  0
 20 21  1  0
 20 23  1  0
 22 20  1  0
 24 25  1  0
 26 24  1  0
 27 24  1  0
  2 28  1  0
  3 29  1  0
  6 30  1  6
  7 31  1  0
  7 32  1  0
  8 33  1  1
  9 34  1  0
  9 35  1  0
 10 36  1  0
 10 37  1  0
 10 38  1  0
 14 39  1  0
 25 40  1  0
 25 41  1  0
 25 42  1  0
 26 43  1  0
 26 44  1  0
 26 45  1  0
 27 46  1  0
 27 47  1  0
 27 48  1  0
M  ISO  8  28  14  29  14  30  13  31  13  32  13  33  13  34   8  35   8
M  ISO  8  36   8  37   8  38   8  39  14  40   8  41   8  42   8  43   8
M  ISO  5  44   8  45   8  46   8  47   8  48   8
M  END
>  <minimizedAffinity>  (1) 
-5.10541201

>  <minimizedRMSD>  (1) 
1.88442338

$$$$
