
     RDKit          3D

 30 33  0  0  0  0  0  0  0  0999 V2000
   39.9108   22.6331   37.2225 C   0  0  0  0  0  0  0  0  0  0  0  0
   39.2606   23.2933   38.2735 C   0  0  0  0  0  0  0  0  0  0  0  0
   37.8550   23.4417   38.1924 C   0  0  0  0  0  0  0  0  0  0  0  0
   37.1963   22.9367   37.0975 N   0  0  0  0  0  0  0  0  0  0  0  0
   37.8756   22.3054   36.1070 C   0  0  0  0  0  0  0  0  0  0  0  0
   39.2015   22.1636   36.1800 N   0  0  0  0  0  0  0  0  0  0  0  0
   37.1947   21.7651   34.9413 C   0  0  0  0  0  0  0  0  0  0  0  0
   36.0623   20.9668   35.1702 C   0  0  0  0  0  0  0  0  0  0  0  0
   35.5715   20.5588   33.9289 C   0  0  0  0  0  0  0  0  0  0  0  0
   36.4524   21.1463   33.0268 C   0  0  0  0  0  0  0  0  0  0  0  0
   37.3823   21.8390   33.6447 O   0  0  0  0  0  0  0  0  0  0  0  0
   40.9758   22.4875   37.2227 H   0  0  0  0  0  0  0  0  0  0  0  0
   39.8271   23.6726   39.1140 H   0  0  0  0  0  0  0  0  0  0  0  0
   37.3617   23.9439   38.9922 H   0  0  0  0  0  0  0  0  0  0  0  0
   35.5748   20.6609   36.0838 H   0  0  0  0  0  0  0  0  0  0  0  0
   34.7189   19.9399   33.7138 H   0  0  0  0  0  0  0  0  0  0  0  0
   36.3837   21.0309   31.5940 N   0  0  0  0  0  0  0  0  0  0  0  0
   36.6250   21.9747   30.6476 C   0  0  0  0  0  0  0  0  0  0  0  0
   36.4381   21.4200   29.4278 N   0  0  0  0  0  0  0  0  0  0  0  0
   36.0873   20.1540   29.6265 C   0  0  0  0  0  0  0  0  0  0  0  0
   35.7690   19.0965   28.8008 C   0  0  0  0  0  0  0  0  0  0  0  0
   35.7739   19.2405   27.3911 N   0  0  0  0  0  0  0  0  0  0  0  0
   35.4348   17.8643   29.2809 N   0  0  0  0  0  0  0  0  0  0  0  0
   35.4081   17.6477   30.6278 C   0  0  0  0  0  0  0  0  0  0  0  0
   35.7148   18.6643   31.4528 N   0  0  0  0  0  0  0  0  0  0  0  0
   36.0401   19.8646   30.9753 C   0  0  0  0  0  0  0  0  0  0  0  0
   36.9162   22.9870   30.9087 H   0  0  0  0  0  0  0  0  0  0  0  0
   34.8874   19.7536   27.1764 H   0  0  0  0  0  0  0  0  0  0  0  0
   35.2719   19.6031   26.5768 H   0  0  0  0  0  0  0  0  0  0  0  0
   35.1578   16.7145   31.1037 H   0  0  0  0  0  0  0  0  0  0  0  0
  1  2  2  0
  3  2  1  0
  4  3  2  0
  5  6  2  0
  5  4  1  0
  6  1  1  0
  7  8  2  0
  7  5  1  0
  9  8  1  0
 10 11  1  0
 10  9  2  0
 11  7  1  0
  1 12  1  0
  2 13  1  0
  3 14  1  0
  8 15  1  0
  9 16  1  0
 17 18  1  0
 18 19  2  0
 19 20  1  0
 20 21  2  0
 21 22  1  0
 21 23  1  0
 23 24  2  0
 24 25  1  0
 25 26  2  0
 26 17  1  0
 26 20  1  0
 18 27  1  0
 22 28  1  0
 22 29  1  0
 24 30  1  0
 10 17  1  0
M  END
>  <DihAtoms>  (1) 
10,9,16,17

>  <DihDeg>  (1) 
-38.926165516358324

$$$$
