
     RDKit          3D

 31 34  0  0  0  0  0  0  0  0999 V2000
   37.2710   21.5970   35.1000 C   0  0  0  0  0  0  0  0  0  0  0  0
   35.9560   21.1400   35.2900 C   0  0  0  0  0  0  0  0  0  0  0  0
   35.5540   20.5130   34.1130 C   0  0  0  0  0  0  0  0  0  0  0  0
   36.6820   20.6380   33.2750 C   0  0  0  0  0  0  0  0  0  0  0  0
   37.6490   21.2700   33.8830 O   0  0  0  0  0  0  0  0  0  0  0  0
   36.6720   20.1000   31.9230 C   0  0  0  0  0  0  0  0  0  0  0  0
   35.7690   19.2690   31.2960 C   0  0  0  0  0  0  0  0  0  0  0  0
   36.1530   19.0200   30.0310 N   0  0  0  0  0  0  0  0  0  0  0  0
   37.3040   19.6650   29.7710 C   0  0  0  0  0  0  0  0  0  0  0  0
   38.1540   19.7920   28.6930 C   0  0  0  0  0  0  0  0  0  0  0  0
   39.3100   20.5410   28.6900 C   0  0  0  0  0  0  0  0  0  0  0  0
   39.6110   21.2020   29.8740 C   0  0  0  0  0  0  0  0  0  0  0  0
   38.7960   21.1160   31.0010 C   0  0  0  0  0  0  0  0  0  0  0  0
   37.6370   20.3410   30.9430 C   0  0  0  0  0  0  0  0  0  0  0  0
   39.8600   22.8040   37.3660 C   0  0  0  0  0  0  0  0  0  0  0  0
   39.1550   23.5630   38.3030 C   0  0  0  0  0  0  0  0  0  0  0  0
   37.7640   23.6670   38.1600 C   0  0  0  0  0  0  0  0  0  0  0  0
   37.1990   23.0140   37.1090 N   0  0  0  0  0  0  0  0  0  0  0  0
   37.8920   22.2910   36.2210 C   0  0  0  0  0  0  0  0  0  0  0  0
   39.2330   22.1750   36.3370 N   0  0  0  0  0  0  0  0  0  0  0  0
   35.3533   21.2563   36.2028 H   0  0  0  0  0  0  0  0  0  0  0  0
   34.5886   20.0350   33.8903 H   0  0  0  0  0  0  0  0  0  0  0  0
   34.8597   18.8651   31.7651 H   0  0  0  0  0  0  0  0  0  0  0  0
   35.6426   18.4253   29.3626 H   0  0  0  0  0  0  0  0  0  0  0  0
   37.8901   19.2568   27.7689 H   0  0  0  0  0  0  0  0  0  0  0  0
   39.9564   20.6115   27.8027 H   0  0  0  0  0  0  0  0  0  0  0  0
   40.5236   21.8141   29.9237 H   0  0  0  0  0  0  0  0  0  0  0  0
   39.0627   21.6518   31.9239 H   0  0  0  0  0  0  0  0  0  0  0  0
   40.9519   22.7129   37.4634 H   0  0  0  0  0  0  0  0  0  0  0  0
   39.6769   24.0655   39.1307 H   0  0  0  0  0  0  0  0  0  0  0  0
   37.1563   24.2511   38.8668 H   0  0  0  0  0  0  0  0  0  0  0  0
  1  2  2  0
  1 19  1  0
  3  2  1  0
  4  5  1  0
  4  3  2  0
  5  1  1  0
  6  4  1  0
  7  6  2  0
  8  7  1  0
  9  8  1  0
  9 14  2  0
 10  9  1  0
 11 10  2  0
 11 12  1  0
 12 13  2  0
 14 13  1  0
 14  6  1  0
 15 16  2  0
 17 16  1  0
 18 17  2  0
 19 20  2  0
 19 18  1  0
 20 15  1  0
  2 21  1  0
  3 22  1  0
  7 23  1  0
  8 24  1  0
 10 25  1  0
 11 26  1  0
 12 27  1  0
 13 28  1  0
 15 29  1  0
 16 30  1  0
 17 31  1  0
M  ISO  8  21  14  22  14  23  14  24   9  25  14  26  14  27  14  28  14
M  ISO  3  29  14  30  14  31  14
M  END
>  <minimizedAffinity>  (1) 
-4.79232693

>  <minimizedRMSD>  (1) 
1.1027478

$$$$
