
     RDKit          3D

 26 27  0  0  0  0  0  0  0  0999 V2000
   40.4570   22.4190   37.7240 C   0  0  0  0  0  0  0  0  0  0  0  0
   39.2710   23.1460   37.4540 C   0  0  0  0  0  0  0  0  0  0  0  0
   38.9170   23.3440   36.1280 C   0  0  0  0  0  0  0  0  0  0  0  0
   39.7140   22.8380   35.1510 N   0  0  0  0  0  0  0  0  0  0  0  0
   40.8510   22.1430   35.4450 C   0  0  0  0  0  0  0  0  0  0  0  0
   41.2060   21.9440   36.7310 N   0  0  0  0  0  0  0  0  0  0  0  0
   41.6560   21.6300   34.3440 C   0  0  0  0  0  0  0  0  0  0  0  0
   42.7020   20.6290   34.6970 C   0  0  0  0  0  0  0  0  0  0  0  0
   43.5130   20.5410   33.4090 C   0  0  0  0  0  0  0  0  0  0  0  0
   43.1540   21.7920   32.6020 C   0  0  0  0  0  0  0  0  0  0  0  0
   42.5080   22.7010   33.6570 C   0  0  0  0  0  0  0  0  0  0  0  0
   38.4010   23.6980   38.5280 C   0  0  0  0  0  0  0  0  0  0  0  0
   39.2090   23.8700   39.6580 F   0  0  0  0  0  0  0  0  0  0  0  0
   37.3900   22.8450   38.8680 F   0  0  0  0  0  0  0  0  0  0  0  0
   37.9590   24.9810   38.2040 F   0  0  0  0  0  0  0  0  0  0  0  0
   40.7624   22.2450   38.7663 H   0  0  0  0  0  0  0  0  0  0  0  0
   38.0047   23.9023   35.8710 H   0  0  0  0  0  0  0  0  0  0  0  0
   40.8544   21.1988   33.7264 H   0  0  0  0  0  0  0  0  0  0  0  0
   43.3221   20.9792   35.5354 H   0  0  0  0  0  0  0  0  0  0  0  0
   42.2939   19.6627   35.0282 H   0  0  0  0  0  0  0  0  0  0  0  0
   44.5895   20.5269   33.6347 H   0  0  0  0  0  0  0  0  0  0  0  0
   43.2863   19.6208   32.8506 H   0  0  0  0  0  0  0  0  0  0  0  0
   44.0530   22.2588   32.1732 H   0  0  0  0  0  0  0  0  0  0  0  0
   42.4975   21.5843   31.7442 H   0  0  0  0  0  0  0  0  0  0  0  0
   43.2491   23.1469   34.3367 H   0  0  0  0  0  0  0  0  0  0  0  0
   41.9718   23.5840   33.2791 H   0  0  0  0  0  0  0  0  0  0  0  0
  2  1  2  0
  2 12  1  0
  3  2  1  0
  4  5  1  0
  4  3  2  0
  5  6  2  0
  6  1  1  0
  7  8  1  0
  7  5  1  0
  9  8  1  0
 10  9  1  0
 10 11  1  0
 11  7  1  0
 12 14  1  0
 12 13  1  0
 15 12  1  0
  1 16  1  0
  3 17  1  0
  7 18  1  0
  8 19  1  0
  8 20  1  0
  9 21  1  0
  9 22  1  0
 10 23  1  0
 10 24  1  0
 11 25  1  0
 11 26  1  0
M  ISO  8  16  14  17  14  18  13  19  13  20  13  21  13  22  13  23  13
M  ISO  3  24  13  25  13  26  13
M  END
>  <minimizedAffinity>  (1) 
-3.91997194

>  <minimizedRMSD>  (1) 
0.449054569

$$$$
