
     RDKit          3D

 24 25  0  0  0  0  0  0  0  0999 V2000
   37.1290   21.6340   34.9660 C   0  0  0  0  0  0  0  0  0  0  0  0
   35.9440   20.9470   35.2480 C   0  0  0  0  0  0  0  0  0  0  0  0
   35.4520   20.4670   34.0250 C   0  0  0  0  0  0  0  0  0  0  0  0
   36.3810   20.9020   33.0850 C   0  0  0  0  0  0  0  0  0  0  0  0
   37.3500   21.5800   33.6590 O   0  0  0  0  0  0  0  0  0  0  0  0
   39.8920   22.6400   37.1290 C   0  0  0  0  0  0  0  0  0  0  0  0
   39.2700   23.3340   38.1720 C   0  0  0  0  0  0  0  0  0  0  0  0
   37.8740   23.4530   38.1230 C   0  0  0  0  0  0  0  0  0  0  0  0
   37.2030   22.8930   37.0720 N   0  0  0  0  0  0  0  0  0  0  0  0
   37.8430   22.2360   36.0940 C   0  0  0  0  0  0  0  0  0  0  0  0
   39.1850   22.0970   36.1000 N   0  0  0  0  0  0  0  0  0  0  0  0
   36.3380   20.6690   31.6700 N   0  0  0  0  0  0  0  0  0  0  0  0
   35.8780   19.4480   31.0830 C   0  0  0  0  0  0  0  0  0  0  0  0
   35.0200   18.7820   31.7830 N   0  0  0  0  0  0  0  0  0  0  0  0
   36.3500   19.0190   29.8100 N   0  0  0  0  0  0  0  0  0  0  0  0
   34.6800   17.8900   31.3600 H   0  0  0  0  0  0  0  0  0  0  0  0
   35.4857   20.8094   36.2385 H   0  0  0  0  0  0  0  0  0  0  0  0
   34.5387   19.8798   33.8491 H   0  0  0  0  0  0  0  0  0  0  0  0
   40.9864   22.5295   37.1405 H   0  0  0  0  0  0  0  0  0  0  0  0
   39.8527   23.7689   38.9974 H   0  0  0  0  0  0  0  0  0  0  0  0
   37.3289   23.9869   38.9153 H   0  0  0  0  0  0  0  0  0  0  0  0
   36.6555   21.4216   31.0426 H   0  0  0  0  0  0  0  0  0  0  0  0
   36.0068   18.1368   29.4040 H   0  0  0  0  0  0  0  0  0  0  0  0
   37.0346   19.5909   29.2951 H   0  0  0  0  0  0  0  0  0  0  0  0
  1  2  2  0
  1 10  1  0
  3  2  1  0
  4  5  1  0
  4  3  2  0
  5  1  1  0
  6  7  2  0
  8  7  1  0
  9  8  2  0
 10 11  2  0
 10  9  1  0
 11  6  1  0
 12  4  1  0
 13 12  1  0
 13 14  2  0
 15 13  1  0
 16 14  1  0
  2 17  1  0
  3 18  1  0
  6 19  1  0
  7 20  1  0
  8 21  1  0
 12 22  1  0
 15 23  1  0
 15 24  1  0
M  ISO  5  17  14  18  14  19  14  20  14  21  14
M  END
>  <minimizedAffinity>  (1) 
-4.76688242

>  <minimizedRMSD>  (1) 
0.579067886

$$$$
