
     RDKit          3D

 31 34  0  0  0  0  0  0  0  0999 V2000
   37.0070   21.2350   33.5850 C   0  0  0  0  0  0  0  0  0  0  0  0
   35.6800   20.8640   33.6920 C   0  0  0  0  0  0  0  0  0  0  0  0
   35.4110   19.9550   32.6760 C   0  0  0  0  0  0  0  0  0  0  0  0
   36.6190   19.8220   31.9910 C   0  0  0  0  0  0  0  0  0  0  0  0
   37.4760   20.5750   32.5630 O   0  0  0  0  0  0  0  0  0  0  0  0
   36.6620   18.9130   30.8400 C   0  0  0  0  0  0  0  0  0  0  0  0
   36.5830   19.3370   29.5680 N   0  0  0  0  0  0  0  0  0  0  0  0
   36.6170   18.5500   28.4870 C   0  0  0  0  0  0  0  0  0  0  0  0
   36.7400   17.2160   28.6310 N   0  0  0  0  0  0  0  0  0  0  0  0
   36.8290   16.6700   29.8810 C   0  0  0  0  0  0  0  0  0  0  0  0
   36.9550   15.3060   30.0260 C   0  0  0  0  0  0  0  0  0  0  0  0
   37.0460   14.7370   31.2780 C   0  0  0  0  0  0  0  0  0  0  0  0
   37.0040   15.5990   32.3370 C   0  0  0  0  0  0  0  0  0  0  0  0
   36.8780   16.9520   32.1540 C   0  0  0  0  0  0  0  0  0  0  0  0
   36.7860   17.5500   30.9400 C   0  0  0  0  0  0  0  0  0  0  0  0
   38.7410   24.1490   34.9090 C   0  0  0  0  0  0  0  0  0  0  0  0
   38.5770   24.0360   36.2890 C   0  0  0  0  0  0  0  0  0  0  0  0
   37.8470   22.9190   36.7830 C   0  0  0  0  0  0  0  0  0  0  0  0
   37.3460   22.0200   35.8800 N   0  0  0  0  0  0  0  0  0  0  0  0
   37.5400   22.1900   34.5450 C   0  0  0  0  0  0  0  0  0  0  0  0
   38.2230   23.2310   34.0620 N   0  0  0  0  0  0  0  0  0  0  0  0
   34.9648   21.2238   34.4463 H   0  0  0  0  0  0  0  0  0  0  0  0
   34.4570   19.4518   32.4598 H   0  0  0  0  0  0  0  0  0  0  0  0
   36.5447   18.9912   27.4820 H   0  0  0  0  0  0  0  0  0  0  0  0
   36.9833   14.6641   29.1331 H   0  0  0  0  0  0  0  0  0  0  0  0
   37.1467   13.6504   31.4167 H   0  0  0  0  0  0  0  0  0  0  0  0
   37.0728   15.1987   33.3593 H   0  0  0  0  0  0  0  0  0  0  0  0
   36.8498   17.5927   33.0477 H   0  0  0  0  0  0  0  0  0  0  0  0
   39.3031   25.0021   34.5011 H   0  0  0  0  0  0  0  0  0  0  0  0
   38.9985   24.7864   36.9740 H   0  0  0  0  0  0  0  0  0  0  0  0
   37.6892   22.7813   37.8629 H   0  0  0  0  0  0  0  0  0  0  0  0
  1  2  2  0
  1 20  1  0
  3  2  1  0
  4  5  1  0
  4  3  2  0
  5  1  1  0
  6 15  1  0
  6  4  1  0
  7  6  2  0
  8  9  2  0
  8  7  1  0
  9 10  1  0
 10 11  1  0
 10 15  2  0
 11 12  2  0
 12 13  1  0
 14 13  2  0
 15 14  1  0
 16 17  2  0
 17 18  1  0
 19 18  2  0
 20 19  1  0
 21 20  2  0
 21 16  1  0
  2 22  1  0
  3 23  1  0
  8 24  1  0
 11 25  1  0
 12 26  1  0
 13 27  1  0
 14 28  1  0
 16 29  1  0
 17 30  1  0
 18 31  1  0
M  ISO  8  22  14  23  14  24  14  25  14  26  14  27  14  28  14  29  14
M  ISO  2  30  14  31  14
M  END
>  <minimizedAffinity>  (1) 
-4.73274612

>  <minimizedRMSD>  (1) 
2.67562461

$$$$
