
     RDKit          3D

 20 21  0  0  0  0  0  0  0  0999 V2000
   37.1250   21.8140   34.9040 C   0  0  0  0  0  0  0  0  0  0  0  0
   36.0900   20.9160   35.1270 C   0  0  0  0  0  0  0  0  0  0  0  0
   35.5470   20.5700   33.8980 C   0  0  0  0  0  0  0  0  0  0  0  0
   36.3070   21.2990   32.9870 C   0  0  0  0  0  0  0  0  0  0  0  0
   37.2220   22.0200   33.5960 O   0  0  0  0  0  0  0  0  0  0  0  0
   39.8890   22.6150   37.1490 C   0  0  0  0  0  0  0  0  0  0  0  0
   39.2730   23.2570   38.2230 C   0  0  0  0  0  0  0  0  0  0  0  0
   37.8820   23.4190   38.1790 C   0  0  0  0  0  0  0  0  0  0  0  0
   37.1940   22.9390   37.0830 N   0  0  0  0  0  0  0  0  0  0  0  0
   37.8480   22.3210   36.0650 C   0  0  0  0  0  0  0  0  0  0  0  0
   39.1730   22.1610   36.0980 N   0  0  0  0  0  0  0  0  0  0  0  0
   36.0480   21.2160   31.5280 C   0  0  0  0  0  0  0  0  0  0  0  0
   35.3460   20.0520   31.1910 F   0  0  0  0  0  0  0  0  0  0  0  0
   37.2260   21.1640   30.8090 F   0  0  0  0  0  0  0  0  0  0  0  0
   35.3180   22.2690   31.0580 F   0  0  0  0  0  0  0  0  0  0  0  0
   35.7582   20.5436   36.1074 H   0  0  0  0  0  0  0  0  0  0  0  0
   34.7134   19.8825   33.6920 H   0  0  0  0  0  0  0  0  0  0  0  0
   40.9801   22.4757   37.1583 H   0  0  0  0  0  0  0  0  0  0  0  0
   39.8605   23.6244   39.0773 H   0  0  0  0  0  0  0  0  0  0  0  0
   37.3490   23.9187   39.0014 H   0  0  0  0  0  0  0  0  0  0  0  0
  1  2  2  0
  1 10  1  0
  3  2  1  0
  4  5  1  0
  4  3  2  0
  5  1  1  0
  6  7  2  0
  8  7  1  0
  9  8  2  0
 10 11  2  0
 10  9  1  0
 11  6  1  0
 12  4  1  0
 13 12  1  0
 14 12  1  0
 15 12  1  0
  2 16  1  0
  3 17  1  0
  6 18  1  0
  7 19  1  0
  8 20  1  0
M  ISO  5  16  14  17  14  18  14  19  14  20  14
M  END
>  <minimizedAffinity>  (1) 
-4.64951849

>  <minimizedRMSD>  (1) 
0.252211303

$$$$
