
     RDKit          3D

 33 35  0  0  0  0  0  0  0  0999 V2000
   37.4040   21.7510   34.9980 C   0  0  0  0  0  0  0  0  0  0  0  0
   36.1310   21.1720   35.0730 C   0  0  0  0  0  0  0  0  0  0  0  0
   35.8050   20.6660   33.8170 C   0  0  0  0  0  0  0  0  0  0  0  0
   36.9360   20.9840   33.0460 C   0  0  0  0  0  0  0  0  0  0  0  0
   37.8260   21.6020   33.7540 O   0  0  0  0  0  0  0  0  0  0  0  0
   39.8480   22.7650   37.5000 C   0  0  0  0  0  0  0  0  0  0  0  0
   39.0840   23.4130   38.4690 C   0  0  0  0  0  0  0  0  0  0  0  0
   37.6910   23.5070   38.2630 C   0  0  0  0  0  0  0  0  0  0  0  0
   37.1540   22.9600   37.1240 N   0  0  0  0  0  0  0  0  0  0  0  0
   37.9340   22.3420   36.2130 C   0  0  0  0  0  0  0  0  0  0  0  0
   39.2660   22.2470   36.4010 N   0  0  0  0  0  0  0  0  0  0  0  0
   37.0590   20.6410   31.6160 C   0  0  0  0  0  0  0  0  0  0  0  0
   36.3850   19.3570   31.2570 C   0  0  0  0  0  0  0  0  0  0  0  0
   36.4520   19.1090   29.7930 C   0  0  0  0  0  0  0  0  0  0  0  0
   37.7360   19.4380   29.1190 C   0  0  0  0  0  0  0  0  0  0  0  0
   38.5060   20.5810   29.6710 C   0  0  0  0  0  0  0  0  0  0  0  0
   38.5250   20.5090   31.1990 C   0  0  0  0  0  0  0  0  0  0  0  0
   35.4969   21.1249   35.9706 H   0  0  0  0  0  0  0  0  0  0  0  0
   34.8876   20.1453   33.5052 H   0  0  0  0  0  0  0  0  0  0  0  0
   40.9362   22.6757   37.6338 H   0  0  0  0  0  0  0  0  0  0  0  0
   39.5532   23.8388   39.3682 H   0  0  0  0  0  0  0  0  0  0  0  0
   37.0478   24.0089   39.0009 H   0  0  0  0  0  0  0  0  0  0  0  0
   36.5667   21.4697   31.0861 H   0  0  0  0  0  0  0  0  0  0  0  0
   36.8828   18.5301   31.7847 H   0  0  0  0  0  0  0  0  0  0  0  0
   35.3274   19.4229   31.5523 H   0  0  0  0  0  0  0  0  0  0  0  0
   36.2521   18.0402   29.6263 H   0  0  0  0  0  0  0  0  0  0  0  0
   35.7098   19.7892   29.3498 H   0  0  0  0  0  0  0  0  0  0  0  0
   37.5111   19.6651   28.0665 H   0  0  0  0  0  0  0  0  0  0  0  0
   38.3767   18.5572   29.2727 H   0  0  0  0  0  0  0  0  0  0  0  0
   39.5378   20.5425   29.2915 H   0  0  0  0  0  0  0  0  0  0  0  0
   38.0291   21.5220   29.3595 H   0  0  0  0  0  0  0  0  0  0  0  0
   38.9385   19.5471   31.5363 H   0  0  0  0  0  0  0  0  0  0  0  0
   39.1548   21.2938   31.6433 H   0  0  0  0  0  0  0  0  0  0  0  0
  1  2  2  0
  1 10  1  0
  3  2  1  0
  4  5  1  0
  4  3  2  0
  5  1  1  0
  6  7  2  0
  8  7  1  0
  9  8  2  0
 10 11  2  0
 10  9  1  0
 11  6  1  0
 12  4  1  0
 13 12  1  0
 14 13  1  0
 15 16  1  0
 15 14  1  0
 16 17  1  0
 17 12  1  0
  2 18  1  0
  3 19  1  0
  6 20  1  0
  7 21  1  0
  8 22  1  0
 12 23  1  0
 13 24  1  0
 13 25  1  0
 14 26  1  0
 14 27  1  0
 15 28  1  0
 15 29  1  0
 16 30  1  0
 16 31  1  0
 17 32  1  0
 17 33  1  0
M  ISO  8  18  14  19  14  20  14  21  14  22  14  23  13  24  13  25  13
M  ISO  8  26  13  27  13  28  13  29  13  30  13  31  13  32  13  33  13
M  END
>  <minimizedAffinity>  (1) 
-4.56992722

>  <minimizedRMSD>  (1) 
0.894236743

$$$$
