
     RDKit          3D

 30 32  0  0  0  0  0  0  0  0999 V2000
   37.3400   21.7260   35.0330 C   0  0  0  0  0  0  0  0  0  0  0  0
   36.0980   21.1240   35.1460 C   0  0  0  0  0  0  0  0  0  0  0  0
   35.7280   20.6260   33.9020 C   0  0  0  0  0  0  0  0  0  0  0  0
   36.8130   20.9770   33.0880 C   0  0  0  0  0  0  0  0  0  0  0  0
   37.7370   21.6150   33.7700 O   0  0  0  0  0  0  0  0  0  0  0  0
   39.8570   22.7540   37.4660 C   0  0  0  0  0  0  0  0  0  0  0  0
   39.1170   23.4190   38.4430 C   0  0  0  0  0  0  0  0  0  0  0  0
   37.7300   23.5150   38.2620 C   0  0  0  0  0  0  0  0  0  0  0  0
   37.1590   22.9610   37.1470 N   0  0  0  0  0  0  0  0  0  0  0  0
   37.9340   22.3260   36.2320 C   0  0  0  0  0  0  0  0  0  0  0  0
   39.2660   22.2140   36.3720 N   0  0  0  0  0  0  0  0  0  0  0  0
   36.9200   20.6830   31.6870 N   0  0  0  0  0  0  0  0  0  0  0  0
   38.0040   21.2420   30.8760 C   0  0  0  0  0  0  0  0  0  0  0  0
   38.2600   20.4130   29.6620 C   0  0  0  0  0  0  0  0  0  0  0  0
   37.9430   19.0830   29.9570 O   0  0  0  0  0  0  0  0  0  0  0  0
   36.5310   19.0370   29.9290 C   0  0  0  0  0  0  0  0  0  0  0  0
   35.9340   19.8140   31.0560 C   0  0  0  0  0  0  0  0  0  0  0  0
   35.5025   21.0518   36.0680 H   0  0  0  0  0  0  0  0  0  0  0  0
   34.8092   20.0885   33.6248 H   0  0  0  0  0  0  0  0  0  0  0  0
   40.9469   22.6654   37.5859 H   0  0  0  0  0  0  0  0  0  0  0  0
   39.6057   23.8542   39.3272 H   0  0  0  0  0  0  0  0  0  0  0  0
   37.1067   24.0300   39.0078 H   0  0  0  0  0  0  0  0  0  0  0  0
   37.7281   22.2597   30.5626 H   0  0  0  0  0  0  0  0  0  0  0  0
   38.9199   21.2555   31.4850 H   0  0  0  0  0  0  0  0  0  0  0  0
   39.3203   20.4875   29.3788 H   0  0  0  0  0  0  0  0  0  0  0  0
   37.6425   20.7705   28.8248 H   0  0  0  0  0  0  0  0  0  0  0  0
   36.1787   19.4607   28.9770 H   0  0  0  0  0  0  0  0  0  0  0  0
   36.2185   17.9872   30.0308 H   0  0  0  0  0  0  0  0  0  0  0  0
   35.1101   20.4309   30.6679 H   0  0  0  0  0  0  0  0  0  0  0  0
   35.5682   19.1020   31.8105 H   0  0  0  0  0  0  0  0  0  0  0  0
  1  2  2  0
  1 10  1  0
  3  2  1  0
  4  5  1  0
  4  3  2  0
  5  1  1  0
  6  7  2  0
  8  7  1  0
  9  8  2  0
 10 11  2  0
 10  9  1  0
 11  6  1  0
 12  4  1  0
 13 12  1  0
 14 15  1  0
 14 13  1  0
 16 15  1  0
 16 17  1  0
 17 12  1  0
  2 18  1  0
  3 19  1  0
  6 20  1  0
  7 21  1  0
  8 22  1  0
 13 23  1  0
 13 24  1  0
 14 25  1  0
 14 26  1  0
 16 27  1  0
 16 28  1  0
 17 29  1  0
 17 30  1  0
M  ISO  8  18  14  19  14  20  14  21  14  22  14  23  13  24  13  25  13
M  ISO  5  26  13  27  13  28  13  29  13  30  13
M  END
>  <minimizedAffinity>  (1) 
-4.46157122

>  <minimizedRMSD>  (1) 
1.11254048

$$$$
