
     RDKit          3D

 24 26  0  0  0  0  0  0  0  0999 V2000
   37.2540   21.6180   35.0970 C   0  0  0  0  0  0  0  0  0  0  0  0
   35.9700   21.1100   35.2980 C   0  0  0  0  0  0  0  0  0  0  0  0
   35.5730   20.5160   34.0910 C   0  0  0  0  0  0  0  0  0  0  0  0
   36.6570   20.7140   33.2430 C   0  0  0  0  0  0  0  0  0  0  0  0
   37.6170   21.3560   33.8540 O   0  0  0  0  0  0  0  0  0  0  0  0
   39.8670   22.7880   37.3620 C   0  0  0  0  0  0  0  0  0  0  0  0
   39.1610   23.5270   38.3170 C   0  0  0  0  0  0  0  0  0  0  0  0
   37.7590   23.6320   38.1870 C   0  0  0  0  0  0  0  0  0  0  0  0
   37.1850   22.9960   37.1260 N   0  0  0  0  0  0  0  0  0  0  0  0
   37.8880   22.2920   36.2240 C   0  0  0  0  0  0  0  0  0  0  0  0
   39.2270   22.1810   36.3310 N   0  0  0  0  0  0  0  0  0  0  0  0
   36.6940   20.2540   31.8540 C   0  0  0  0  0  0  0  0  0  0  0  0
   37.6590   20.5270   30.8790 C   0  0  0  0  0  0  0  0  0  0  0  0
   37.2830   19.8870   29.7210 C   0  0  0  0  0  0  0  0  0  0  0  0
   36.1150   19.2370   29.9840 N   0  0  0  0  0  0  0  0  0  0  0  0
   35.7880   19.4690   31.2450 N   0  0  0  0  0  0  0  0  0  0  0  0
   35.3816   21.1649   36.2258 H   0  0  0  0  0  0  0  0  0  0  0  0
   34.6225   20.0098   33.8668 H   0  0  0  0  0  0  0  0  0  0  0  0
   40.9599   22.6974   37.4483 H   0  0  0  0  0  0  0  0  0  0  0  0
   39.6864   24.0155   39.1508 H   0  0  0  0  0  0  0  0  0  0  0  0
   37.1563   24.2017   38.9097 H   0  0  0  0  0  0  0  0  0  0  0  0
   38.5593   21.1443   31.0144 H   0  0  0  0  0  0  0  0  0  0  0  0
   37.8236   19.8980   28.7630 H   0  0  0  0  0  0  0  0  0  0  0  0
   35.5791   18.6640   29.3166 H   0  0  0  0  0  0  0  0  0  0  0  0
  1  2  2  0
  1 10  1  0
  3  2  1  0
  4  5  1  0
  4  3  2  0
  5  1  1  0
  6  7  2  0
  8  7  1  0
  9  8  2  0
 10 11  2  0
 10  9  1  0
 11  6  1  0
 12  4  1  0
 13 12  1  0
 14 15  1  0
 14 13  2  0
 15 16  1  0
 16 12  2  0
  2 17  1  0
  3 18  1  0
  6 19  1  0
  7 20  1  0
  8 21  1  0
 13 22  1  0
 14 23  1  0
 15 24  1  0
M  ISO  8  17  14  18  14  19  14  20  14  21  14  22  14  23  14  24   9
M  END
>  <minimizedAffinity>  (1) 
-4.39202642

>  <minimizedRMSD>  (1) 
0.722920775

$$$$
