
     RDKit          3D

 20 21  0  0  0  0  0  0  0  0999 V2000
   40.5050   22.4890   37.7130 C   0  0  0  0  0  0  0  0  0  0  0  0
   39.2540   23.1030   37.4460 C   0  0  0  0  0  0  0  0  0  0  0  0
   38.8310   23.1500   36.1260 C   0  0  0  0  0  0  0  0  0  0  0  0
   39.6160   22.6160   35.1490 N   0  0  0  0  0  0  0  0  0  0  0  0
   40.8110   22.0370   35.4530 C   0  0  0  0  0  0  0  0  0  0  0  0
   41.2380   21.9800   36.7110 N   0  0  0  0  0  0  0  0  0  0  0  0
   41.5630   21.5010   34.3270 C   0  0  0  0  0  0  0  0  0  0  0  0
   41.1070   21.2380   33.0500 C   0  0  0  0  0  0  0  0  0  0  0  0
   42.1460   20.7300   32.2680 C   0  0  0  0  0  0  0  0  0  0  0  0
   43.1980   20.7200   33.1630 C   0  0  0  0  0  0  0  0  0  0  0  0
   42.8130   21.1690   34.3240 O   0  0  0  0  0  0  0  0  0  0  0  0
   38.3920   23.6890   38.5140 C   0  0  0  0  0  0  0  0  0  0  0  0
   39.1990   23.8730   39.6290 F   0  0  0  0  0  0  0  0  0  0  0  0
   37.3590   22.8810   38.8490 F   0  0  0  0  0  0  0  0  0  0  0  0
   37.9950   24.9930   38.1700 F   0  0  0  0  0  0  0  0  0  0  0  0
   40.8759   22.4300   38.7469 H   0  0  0  0  0  0  0  0  0  0  0  0
   37.8679   23.6155   35.8696 H   0  0  0  0  0  0  0  0  0  0  0  0
   40.0773   21.4043   32.7007 H   0  0  0  0  0  0  0  0  0  0  0  0
   42.1308   20.4186   31.2131 H   0  0  0  0  0  0  0  0  0  0  0  0
   44.2177   20.3806   32.9285 H   0  0  0  0  0  0  0  0  0  0  0  0
  2  1  2  0
  2 12  1  0
  3  2  1  0
  4  5  1  0
  4  3  2  0
  5  6  2  0
  6  1  1  0
  7  5  1  0
  8  7  2  0
  9  8  1  0
  9 10  2  0
 10 11  1  0
 11  7  1  0
 12 14  1  0
 12 13  1  0
 15 12  1  0
  1 16  1  0
  3 17  1  0
  8 18  1  0
  9 19  1  0
 10 20  1  0
M  ISO  5  16  14  17  14  18  14  19  14  20  14
M  END
>  <minimizedAffinity>  (1) 
-3.89695048

>  <minimizedRMSD>  (1) 
0.442691833

$$$$
