
     RDKit          3D

 20 21  0  0  0  0  0  0  0  0999 V2000
   40.4920   22.5000   37.6790 C   0  0  0  0  0  0  0  0  0  0  0  0
   39.2470   23.1050   37.4460 C   0  0  0  0  0  0  0  0  0  0  0  0
   38.7950   23.1630   36.1320 C   0  0  0  0  0  0  0  0  0  0  0  0
   39.5730   22.6350   35.1390 N   0  0  0  0  0  0  0  0  0  0  0  0
   40.7660   22.0620   35.4190 C   0  0  0  0  0  0  0  0  0  0  0  0
   41.2120   21.9990   36.6690 N   0  0  0  0  0  0  0  0  0  0  0  0
   41.5620   21.5110   34.3290 C   0  0  0  0  0  0  0  0  0  0  0  0
   41.1190   21.2440   33.0510 C   0  0  0  0  0  0  0  0  0  0  0  0
   42.1150   20.7500   32.3250 N   0  0  0  0  0  0  0  0  0  0  0  0
   43.2040   20.6920   33.1140 C   0  0  0  0  0  0  0  0  0  0  0  0
   42.8580   21.1570   34.3340 N   0  0  0  0  0  0  0  0  0  0  0  0
   38.3920   23.6860   38.5320 C   0  0  0  0  0  0  0  0  0  0  0  0
   39.2250   23.8600   39.6370 F   0  0  0  0  0  0  0  0  0  0  0  0
   37.3710   22.8730   38.8870 F   0  0  0  0  0  0  0  0  0  0  0  0
   37.9770   24.9860   38.1960 F   0  0  0  0  0  0  0  0  0  0  0  0
   40.8809   22.4370   38.7060 H   0  0  0  0  0  0  0  0  0  0  0  0
   37.8261   23.6267   35.8950 H   0  0  0  0  0  0  0  0  0  0  0  0
   40.0949   21.4145   32.6876 H   0  0  0  0  0  0  0  0  0  0  0  0
   44.1995   20.3300   32.8177 H   0  0  0  0  0  0  0  0  0  0  0  0
   43.4905   21.2291   35.1437 H   0  0  0  0  0  0  0  0  0  0  0  0
  2  1  2  0
  2 12  1  0
  3  2  1  0
  4  5  1  0
  4  3  2  0
  5  6  2  0
  6  1  1  0
  7 11  1  0
  7  5  1  0
  8  7  2  0
  9  8  1  0
  9 10  2  0
 10 11  1  0
 12 14  1  0
 12 13  1  0
 15 12  1  0
  1 16  1  0
  3 17  1  0
  8 18  1  0
 10 19  1  0
 11 20  1  0
M  ISO  5  16  14  17  14  18  14  19  14  20   9
M  END
>  <minimizedAffinity>  (1) 
-3.89510369

>  <minimizedRMSD>  (1) 
0.0375086032

$$$$
