
     RDKit          3D

 45 49  0  0  1  0  0  0  0  0999 V2000
   36.3900   20.6650   32.1670 N   0  0  0  0  0  0  0  0  0  0  0  0
   35.9670   19.2880   31.7930 C   0  0  0  0  0  0  0  0  0  0  0  0
   36.4090   19.0510   30.3950 C   0  0  0  0  0  0  0  0  0  0  0  0
   37.3100   20.2400   30.1410 C   0  0  0  0  0  0  0  0  0  0  0  0
   36.5000   21.3170   30.8790 C   0  0  2  0  0  0  0  0  0  0  0  0
   37.2840   22.5280   30.8690 C   0  0  0  0  0  0  0  0  0  0  0  0
   38.6600   22.3740   30.7540 C   0  0  0  0  0  0  0  0  0  0  0  0
   39.5040   23.4900   30.7020 C   0  0  0  0  0  0  0  0  0  0  0  0
   39.0190   24.7810   30.7620 C   0  0  0  0  0  0  0  0  0  0  0  0
   37.6490   24.9610   30.8780 C   0  0  0  0  0  0  0  0  0  0  0  0
   37.1020   26.2220   30.9410 C   0  0  0  0  0  0  0  0  0  0  0  0
   35.7310   26.4070   31.0550 C   0  0  0  0  0  0  0  0  0  0  0  0
   34.9170   25.2700   31.1030 C   0  0  0  0  0  0  0  0  0  0  0  0
   35.5060   24.0420   31.0370 C   0  0  0  0  0  0  0  0  0  0  0  0
   36.8620   23.8310   30.9240 C   0  0  0  0  0  0  0  0  0  0  0  0
   37.2390   21.7960   35.4210 C   0  0  0  0  0  0  0  0  0  0  0  0
   36.0810   21.0890   35.6860 C   0  0  0  0  0  0  0  0  0  0  0  0
   35.6280   20.5770   34.4660 C   0  0  0  0  0  0  0  0  0  0  0  0
   36.5690   21.0230   33.5220 C   0  0  0  0  0  0  0  0  0  0  0  0
   37.4620   21.7120   34.1360 O   0  0  0  0  0  0  0  0  0  0  0  0
   39.9310   22.7680   37.6990 C   0  0  0  0  0  0  0  0  0  0  0  0
   39.2990   23.6040   38.6060 C   0  0  0  0  0  0  0  0  0  0  0  0
   37.9200   23.8450   38.4370 C   0  0  0  0  0  0  0  0  0  0  0  0
   37.2420   23.2550   37.3960 N   0  0  0  0  0  0  0  0  0  0  0  0
   37.9250   22.4390   36.5360 C   0  0  0  0  0  0  0  0  0  0  0  0
   39.2390   22.2080   36.6920 N   0  0  0  0  0  0  0  0  0  0  0  0
   36.4369   18.5549   32.4651 H   0  0  0  0  0  0  0  0  0  0  0  0
   34.8756   19.1807   31.8784 H   0  0  0  0  0  0  0  0  0  0  0  0
   36.9625   18.1045   30.3063 H   0  0  0  0  0  0  0  0  0  0  0  0
   35.5797   18.9631   29.6777 H   0  0  0  0  0  0  0  0  0  0  0  0
   38.3090   20.1018   30.5803 H   0  0  0  0  0  0  0  0  0  0  0  0
   37.5264   20.4523   29.0836 H   0  0  0  0  0  0  0  0  0  0  0  0
   35.5208   21.6240   30.4829 H   0  0  0  0  0  0  0  0  0  0  0  0
   39.0914   21.3634   30.7032 H   0  0  0  0  0  0  0  0  0  0  0  0
   40.5889   23.3329   30.6104 H   0  0  0  0  0  0  0  0  0  0  0  0
   39.7006   25.6433   30.7190 H   0  0  0  0  0  0  0  0  0  0  0  0
   37.7635   27.0999   30.9003 H   0  0  0  0  0  0  0  0  0  0  0  0
   35.2977   27.4168   31.1060 H   0  0  0  0  0  0  0  0  0  0  0  0
   33.8247   25.3648   31.1921 H   0  0  0  0  0  0  0  0  0  0  0  0
   34.8523   23.1582   31.0768 H   0  0  0  0  0  0  0  0  0  0  0  0
   35.6063   20.9547   36.6692 H   0  0  0  0  0  0  0  0  0  0  0  0
   34.7341   19.9620   34.2854 H   0  0  0  0  0  0  0  0  0  0  0  0
   41.0063   22.5614   37.8040 H   0  0  0  0  0  0  0  0  0  0  0  0
   39.8570   24.0661   39.4337 H   0  0  0  0  0  0  0  0  0  0  0  0
   37.3868   24.5046   39.1374 H   0  0  0  0  0  0  0  0  0  0  0  0
  1 19  1  0
  2  1  1  0
  3  2  1  0
  4  3  1  0
  4  5  1  0
  5  1  1  0
  6  5  1  0
  6 15  1  0
  7  6  2  0
  8  7  1  0
  8  9  2  0
  9 10  1  0
 10 15  2  0
 10 11  1  0
 11 12  2  0
 12 13  1  0
 14 13  2  0
 15 14  1  0
 16 17  2  0
 16 25  1  0
 18 17  1  0
 19 20  1  0
 19 18  2  0
 20 16  1  0
 21 22  2  0
 23 22  1  0
 24 23  2  0
 25 26  2  0
 25 24  1  0
 26 21  1  0
  2 27  1  0
  2 28  1  0
  3 29  1  0
  3 30  1  0
  4 31  1  0
  4 32  1  0
  5 33  1  6
  7 34  1  0
  8 35  1  0
  9 36  1  0
 11 37  1  0
 12 38  1  0
 13 39  1  0
 14 40  1  0
 17 41  1  0
 18 42  1  0
 21 43  1  0
 22 44  1  0
 23 45  1  0
M  ISO  8  27  13  28  13  29  13  30  13  31  13  32  13  33  13  34  14
M  ISO  8  35  14  36  14  37  14  38  14  39  14  40  14  41  14  42  14
M  ISO  3  43  14  44  14  45  14
M  END
>  <minimizedAffinity>  (1) 
-6.53045034

>  <minimizedRMSD>  (1) 
0.478518158

$$$$
