
     RDKit          3D

 20 21  0  0  0  0  0  0  0  0999 V2000
   40.5010   22.4920   37.6960 C   0  0  0  0  0  0  0  0  0  0  0  0
   39.2570   23.1040   37.4500 C   0  0  0  0  0  0  0  0  0  0  0  0
   38.8020   23.1650   36.1290 C   0  0  0  0  0  0  0  0  0  0  0  0
   39.5900   22.6280   35.1530 N   0  0  0  0  0  0  0  0  0  0  0  0
   40.7860   22.0470   35.4410 C   0  0  0  0  0  0  0  0  0  0  0  0
   41.2210   21.9870   36.6940 N   0  0  0  0  0  0  0  0  0  0  0  0
   41.5570   21.5010   34.3370 C   0  0  0  0  0  0  0  0  0  0  0  0
   41.1210   21.2500   33.0510 C   0  0  0  0  0  0  0  0  0  0  0  0
   42.1470   20.7250   32.2670 C   0  0  0  0  0  0  0  0  0  0  0  0
   43.1930   20.6790   33.1330 N   0  0  0  0  0  0  0  0  0  0  0  0
   42.8390   21.1300   34.3250 N   0  0  0  0  0  0  0  0  0  0  0  0
   38.3890   23.6940   38.5160 C   0  0  0  0  0  0  0  0  0  0  0  0
   39.2080   23.8640   39.6350 F   0  0  0  0  0  0  0  0  0  0  0  0
   37.3740   22.8670   38.8810 F   0  0  0  0  0  0  0  0  0  0  0  0
   37.9740   24.9800   38.1760 F   0  0  0  0  0  0  0  0  0  0  0  0
   40.8828   22.4299   38.7257 H   0  0  0  0  0  0  0  0  0  0  0  0
   37.8369   23.6323   35.8839 H   0  0  0  0  0  0  0  0  0  0  0  0
   40.0985   21.4395   32.6924 H   0  0  0  0  0  0  0  0  0  0  0  0
   42.1172   20.4229   31.2097 H   0  0  0  0  0  0  0  0  0  0  0  0
   44.1351   20.3386   32.8934 H   0  0  0  0  0  0  0  0  0  0  0  0
  2  1  2  0
  2 12  1  0
  3  2  1  0
  4  5  1  0
  4  3  2  0
  5  6  2  0
  6  1  1  0
  7  5  1  0
  8  7  1  0
  9  8  2  0
  9 10  1  0
 10 11  1  0
 11  7  2  0
 12 14  1  0
 12 13  1  0
 15 12  1  0
  1 16  1  0
  3 17  1  0
  8 18  1  0
  9 19  1  0
 10 20  1  0
M  ISO  5  16  14  17  14  18  14  19  14  20   9
M  END
>  <minimizedAffinity>  (1) 
-3.89334488

>  <minimizedRMSD>  (1) 
0.0649820641

$$$$
