
     RDKit          3D

 42 46  0  0  1  0  0  0  0  0999 V2000
   36.3960   20.7000   32.1150 N   0  0  0  0  0  0  0  0  0  0  0  0
   35.9280   19.3440   31.7380 C   0  0  0  0  0  0  0  0  0  0  0  0
   36.3860   19.0880   30.3470 C   0  0  0  0  0  0  0  0  0  0  0  0
   37.3600   20.2520   30.1280 C   0  0  0  0  0  0  0  0  0  0  0  0
   36.5440   21.3450   30.8330 C   0  0  2  0  0  0  0  0  0  0  0  0
   37.2540   22.5830   30.8580 N   0  0  0  0  0  0  0  0  0  0  0  0
   38.5950   22.7660   30.8160 C   0  0  0  0  0  0  0  0  0  0  0  0
   38.8270   24.1080   30.8630 N   0  0  0  0  0  0  0  0  0  0  0  0
   37.6490   24.7450   30.9330 C   0  0  0  0  0  0  0  0  0  0  0  0
   37.2460   26.0630   31.0020 C   0  0  0  0  0  0  0  0  0  0  0  0
   35.9340   26.3930   31.0660 N   0  0  0  0  0  0  0  0  0  0  0  0
   34.9720   25.4290   31.0610 C   0  0  0  0  0  0  0  0  0  0  0  0
   35.3600   24.1440   30.9930 N   0  0  0  0  0  0  0  0  0  0  0  0
   36.6540   23.7790   30.9300 C   0  0  0  0  0  0  0  0  0  0  0  0
   38.2400   27.0830   31.0080 N   0  0  0  0  0  0  0  0  0  0  0  0
   37.2580   21.8170   35.3850 C   0  0  0  0  0  0  0  0  0  0  0  0
   36.1020   21.0930   35.6360 C   0  0  0  0  0  0  0  0  0  0  0  0
   35.6400   20.5830   34.4170 C   0  0  0  0  0  0  0  0  0  0  0  0
   36.5810   21.0530   33.4890 C   0  0  0  0  0  0  0  0  0  0  0  0
   37.4880   21.7520   34.0800 O   0  0  0  0  0  0  0  0  0  0  0  0
   39.9190   22.7920   37.6750 C   0  0  0  0  0  0  0  0  0  0  0  0
   39.2780   23.6030   38.5980 C   0  0  0  0  0  0  0  0  0  0  0  0
   37.9060   23.8210   38.4320 C   0  0  0  0  0  0  0  0  0  0  0  0
   37.2530   23.2380   37.3860 N   0  0  0  0  0  0  0  0  0  0  0  0
   37.9310   22.4510   36.5100 C   0  0  0  0  0  0  0  0  0  0  0  0
   39.2330   22.2410   36.6620 N   0  0  0  0  0  0  0  0  0  0  0  0
   36.3574   18.5948   32.4194 H   0  0  0  0  0  0  0  0  0  0  0  0
   34.8320   19.2781   31.8050 H   0  0  0  0  0  0  0  0  0  0  0  0
   36.8953   18.1166   30.2638 H   0  0  0  0  0  0  0  0  0  0  0  0
   35.5724   19.0384   29.6084 H   0  0  0  0  0  0  0  0  0  0  0  0
   38.3322   20.0792   30.6127 H   0  0  0  0  0  0  0  0  0  0  0  0
   37.6429   20.4564   29.0848 H   0  0  0  0  0  0  0  0  0  0  0  0
   35.5909   21.6450   30.3731 H   0  0  0  0  0  0  0  0  0  0  0  0
   39.3578   21.9758   30.7551 H   0  0  0  0  0  0  0  0  0  0  0  0
   33.9058   25.6950   31.1113 H   0  0  0  0  0  0  0  0  0  0  0  0
   37.9614   28.0733   31.0590 H   0  0  0  0  0  0  0  0  0  0  0  0
   39.2374   26.8304   30.9614 H   0  0  0  0  0  0  0  0  0  0  0  0
   35.6314   20.9456   36.6192 H   0  0  0  0  0  0  0  0  0  0  0  0
   34.7513   19.9620   34.2312 H   0  0  0  0  0  0  0  0  0  0  0  0
   40.9974   22.5987   37.7735 H   0  0  0  0  0  0  0  0  0  0  0  0
   39.8293   24.0599   39.4330 H   0  0  0  0  0  0  0  0  0  0  0  0
   37.3573   24.4587   39.1407 H   0  0  0  0  0  0  0  0  0  0  0  0
  1 19  1  0
  2  1  1  0
  3  2  1  0
  4  3  1  0
  4  5  1  0
  5  6  1  0
  5  1  1  0
  6 14  1  0
  7  6  1  0
  7  8  2  0
  8  9  1  0
  9 10  2  0
 10 15  1  0
 10 11  1  0
 12 11  2  0
 13 12  1  0
 14  9  1  0
 14 13  2  0
 16 17  2  0
 16 25  1  0
 18 17  1  0
 19 20  1  0
 19 18  2  0
 20 16  1  0
 21 22  2  0
 23 22  1  0
 24 23  2  0
 25 26  2  0
 25 24  1  0
 26 21  1  0
  2 27  1  0
  2 28  1  0
  3 29  1  0
  3 30  1  0
  4 31  1  0
  4 32  1  0
  5 33  1  6
  7 34  1  0
 12 35  1  0
 15 36  1  0
 15 37  1  0
 17 38  1  0
 18 39  1  0
 21 40  1  0
 22 41  1  0
 23 42  1  0
M  ISO  8  27  13  28  13  29  13  30  13  31  13  32  13  33  13  34  14
M  ISO  6  35  14  38  14  39  14  40  14  41  14  42  14
M  END
>  <minimizedAffinity>  (1) 
-6.32969856

>  <minimizedRMSD>  (1) 
1.51177263

$$$$
