
     RDKit          3D

 43 47  0  0  1  0  0  0  0  0999 V2000
   37.1310   22.0930   32.9910 N   0  0  0  0  0  0  0  0  0  0  0  0
   35.8660   21.4110   33.2810 C   0  0  0  0  0  0  0  0  0  0  0  0
   35.2530   21.0380   31.9790 C   0  0  0  0  0  0  0  0  0  0  0  0
   36.4100   21.2930   31.0050 C   0  0  0  0  0  0  0  0  0  0  0  0
   36.9720   22.5470   31.6130 C   0  0  1  0  0  0  0  0  0  0  0  0
   36.2050   23.7550   31.4250 C   0  0  0  0  0  0  0  0  0  0  0  0
   34.9760   24.0870   30.9010 C   0  0  0  0  0  0  0  0  0  0  0  0
   34.7270   25.3920   30.9690 N   0  0  0  0  0  0  0  0  0  0  0  0
   35.7910   25.9540   31.5420 C   0  0  0  0  0  0  0  0  0  0  0  0
   35.9770   27.3000   31.8170 C   0  0  0  0  0  0  0  0  0  0  0  0
   37.1640   27.7110   32.4260 C   0  0  0  0  0  0  0  0  0  0  0  0
   38.1040   26.7480   32.7280 C   0  0  0  0  0  0  0  0  0  0  0  0
   37.9120   25.4080   32.4510 C   0  0  0  0  0  0  0  0  0  0  0  0
   36.7410   24.9790   31.8460 C   0  0  0  0  0  0  0  0  0  0  0  0
   40.0320   22.3070   35.0370 C   0  0  0  0  0  0  0  0  0  0  0  0
   39.0310   22.2110   35.9910 C   0  0  0  0  0  0  0  0  0  0  0  0
   37.8090   22.1200   35.3230 C   0  0  0  0  0  0  0  0  0  0  0  0
   38.1600   22.1660   33.9840 C   0  0  0  0  0  0  0  0  0  0  0  0
   39.4570   22.2750   33.8470 O   0  0  0  0  0  0  0  0  0  0  0  0
   43.4770   21.3810   35.8190 C   0  0  0  0  0  0  0  0  0  0  0  0
   44.0200   22.5530   36.3380 C   0  0  0  0  0  0  0  0  0  0  0  0
   43.1830   23.6820   36.4190 C   0  0  0  0  0  0  0  0  0  0  0  0
   41.8880   23.5930   35.9940 N   0  0  0  0  0  0  0  0  0  0  0  0
   41.4090   22.4150   35.4930 C   0  0  0  0  0  0  0  0  0  0  0  0
   42.1940   21.3540   35.4170 N   0  0  0  0  0  0  0  0  0  0  0  0
   36.0545   20.5080   33.8802 H   0  0  0  0  0  0  0  0  0  0  0  0
   35.1934   22.0671   33.8530 H   0  0  0  0  0  0  0  0  0  0  0  0
   34.9457   19.9818   31.9686 H   0  0  0  0  0  0  0  0  0  0  0  0
   34.3371   21.5985   31.7403 H   0  0  0  0  0  0  0  0  0  0  0  0
   36.0531   21.4589   29.9778 H   0  0  0  0  0  0  0  0  0  0  0  0
   37.1241   20.4632   30.8977 H   0  0  0  0  0  0  0  0  0  0  0  0
   37.8970   22.9053   31.1377 H   0  0  0  0  0  0  0  0  0  0  0  0
   34.2767   23.3537   30.4731 H   0  0  0  0  0  0  0  0  0  0  0  0
   33.8774   25.8742   30.6424 H   0  0  0  0  0  0  0  0  0  0  0  0
   35.1997   28.0343   31.5588 H   0  0  0  0  0  0  0  0  0  0  0  0
   37.3442   28.7710   32.6580 H   0  0  0  0  0  0  0  0  0  0  0  0
   39.0435   27.0589   33.2083 H   0  0  0  0  0  0  0  0  0  0  0  0
   38.6924   24.6780   32.7119 H   0  0  0  0  0  0  0  0  0  0  0  0
   39.1744   22.2072   37.0816 H   0  0  0  0  0  0  0  0  0  0  0  0
   36.8025   22.0323   35.7582 H   0  0  0  0  0  0  0  0  0  0  0  0
   44.0977   20.4765   35.7377 H   0  0  0  0  0  0  0  0  0  0  0  0
   45.0668   22.5955   36.6732 H   0  0  0  0  0  0  0  0  0  0  0  0
   43.5694   24.6298   36.8220 H   0  0  0  0  0  0  0  0  0  0  0  0
  1  2  1  0
  1 18  1  0
  3  2  1  0
  4  5  1  0
  4  3  1  0
  5  1  1  0
  6  5  1  0
  6 14  1  0
  7  8  1  0
  7  6  2  0
  8  9  1  0
  9 10  1  0
  9 14  2  0
 10 11  2  0
 11 12  1  0
 13 12  2  0
 14 13  1  0
 15 24  1  0
 15 16  2  0
 17 16  1  0
 18 17  2  0
 19 18  1  0
 19 15  1  0
 20 21  2  0
 21 22  1  0
 23 22  2  0
 24 23  1  0
 25 24  2  0
 25 20  1  0
  2 26  1  0
  2 27  1  0
  3 28  1  0
  3 29  1  0
  4 30  1  0
  4 31  1  0
  5 32  1  6
  7 33  1  0
  8 34  1  0
 10 35  1  0
 11 36  1  0
 12 37  1  0
 13 38  1  0
 16 39  1  0
 17 40  1  0
 20 41  1  0
 21 42  1  0
 22 43  1  0
M  ISO  8  26  13  27  13  28  13  29  13  30  13  31  13  32  13  33  14
M  ISO  8  34   9  35  14  36  14  37  14  38  14  39  14  40  14  41  14
M  ISO  2  42  14  43  14
M  END
>  <minimizedAffinity>  (1) 
-5.41125679

>  <minimizedRMSD>  (1) 
3.454005

$$$$
