
     RDKit          3D

 19 20  0  0  0  0  0  0  0  0999 V2000
   40.4790   22.4260   37.7360 C   0  0  0  0  0  0  0  0  0  0  0  0
   39.2940   23.1270   37.4410 C   0  0  0  0  0  0  0  0  0  0  0  0
   38.9360   23.2780   36.1050 C   0  0  0  0  0  0  0  0  0  0  0  0
   39.7420   22.7460   35.1460 N   0  0  0  0  0  0  0  0  0  0  0  0
   40.8760   22.0770   35.4720 C   0  0  0  0  0  0  0  0  0  0  0  0
   41.2310   21.9240   36.7430 N   0  0  0  0  0  0  0  0  0  0  0  0
   41.6170   21.5750   34.3200 C   0  0  0  0  0  0  0  0  0  0  0  0
   41.4390   22.0220   32.9860 C   0  0  0  0  0  0  0  0  0  0  0  0
   42.6910   20.9680   32.0510 S   0  0  0  0  0  0  0  0  0  0  0  0
   43.1970   20.1350   33.6810 C   0  0  0  0  0  0  0  0  0  0  0  0
   42.5340   20.6240   34.5200 N   0  0  0  0  0  0  0  0  0  0  0  0
   38.4090   23.7120   38.5010 C   0  0  0  0  0  0  0  0  0  0  0  0
   39.1870   23.8830   39.6320 F   0  0  0  0  0  0  0  0  0  0  0  0
   37.3750   22.8920   38.8270 F   0  0  0  0  0  0  0  0  0  0  0  0
   37.9820   24.9950   38.1480 F   0  0  0  0  0  0  0  0  0  0  0  0
   40.7895   22.2892   38.7824 H   0  0  0  0  0  0  0  0  0  0  0  0
   38.0181   23.8176   35.8288 H   0  0  0  0  0  0  0  0  0  0  0  0
   40.7492   22.7858   32.5976 H   0  0  0  0  0  0  0  0  0  0  0  0
   43.9580   19.3518   33.8137 H   0  0  0  0  0  0  0  0  0  0  0  0
  2  1  2  0
  2 12  1  0
  3  2  1  0
  4  5  1  0
  4  3  2  0
  5  6  2  0
  6  1  1  0
  7 11  1  0
  7  5  1  0
  8  7  2  0
  9  8  1  0
  9 10  1  0
 10 11  2  0
 12 14  1  0
 12 13  1  0
 15 12  1  0
  1 16  1  0
  3 17  1  0
  8 18  1  0
 10 19  1  0
M  ISO  4  16  14  17  14  18  14  19  14
M  END
>  <minimizedAffinity>  (1) 
-3.88554835

>  <minimizedRMSD>  (1) 
0.315731704

$$$$
