
     RDKit          3D

 42 45  0  0  1  0  0  0  0  0999 V2000
   36.8430   20.7570   31.6900 N   0  0  0  0  0  0  0  0  0  0  0  0
   35.9140   19.7680   31.1460 C   0  0  0  0  0  0  0  0  0  0  0  0
   36.5160   19.2100   29.9100 C   0  0  0  0  0  0  0  0  0  0  0  0
   37.9060   19.8290   29.9180 C   0  0  0  0  0  0  0  0  0  0  0  0
   37.5580   21.1990   30.4880 C   0  0  2  0  0  0  0  0  0  0  0  0
   37.3750   21.7780   35.0630 C   0  0  0  0  0  0  0  0  0  0  0  0
   36.1510   21.1470   35.1460 C   0  0  0  0  0  0  0  0  0  0  0  0
   35.8120   20.6870   33.8660 C   0  0  0  0  0  0  0  0  0  0  0  0
   36.9050   21.0920   33.0720 C   0  0  0  0  0  0  0  0  0  0  0  0
   37.7710   21.7110   33.7960 O   0  0  0  0  0  0  0  0  0  0  0  0
   39.8510   22.7630   37.5440 C   0  0  0  0  0  0  0  0  0  0  0  0
   39.1040   23.4200   38.5070 C   0  0  0  0  0  0  0  0  0  0  0  0
   37.7240   23.5280   38.3040 C   0  0  0  0  0  0  0  0  0  0  0  0
   37.1640   22.9860   37.1740 N   0  0  0  0  0  0  0  0  0  0  0  0
   37.9550   22.3500   36.2590 C   0  0  0  0  0  0  0  0  0  0  0  0
   39.2590   22.2520   36.4580 N   0  0  0  0  0  0  0  0  0  0  0  0
   38.7960   21.8540   30.8300 N   0  0  0  0  0  0  0  0  0  0  0  0
   38.7050   23.2860   30.9000 C   0  0  0  0  0  0  0  0  0  0  0  0
   39.5310   23.9930   29.8380 C   0  0  0  0  0  0  0  0  0  0  0  0
   39.2160   23.5140   28.5860 O   0  0  0  0  0  0  0  0  0  0  0  0
   39.5800   22.1820   28.5250 C   0  0  0  0  0  0  0  0  0  0  0  0
   39.8010   21.5340   29.8580 C   0  0  0  0  0  0  0  0  0  0  0  0
   35.7522   18.9640   31.8791 H   0  0  0  0  0  0  0  0  0  0  0  0
   34.9435   20.2352   30.9229 H   0  0  0  0  0  0  0  0  0  0  0  0
   35.9492   19.5152   29.0180 H   0  0  0  0  0  0  0  0  0  0  0  0
   36.5238   18.1104   29.8816 H   0  0  0  0  0  0  0  0  0  0  0  0
   38.5993   19.2761   30.5689 H   0  0  0  0  0  0  0  0  0  0  0  0
   38.4231   19.8396   28.9472 H   0  0  0  0  0  0  0  0  0  0  0  0
   36.9970   21.8970   29.8492 H   0  0  0  0  0  0  0  0  0  0  0  0
   35.5468   21.0260   36.0572 H   0  0  0  0  0  0  0  0  0  0  0  0
   34.9093   20.1407   33.5551 H   0  0  0  0  0  0  0  0  0  0  0  0
   40.9386   22.6603   37.6725 H   0  0  0  0  0  0  0  0  0  0  0  0
   39.5805   23.8437   39.4034 H   0  0  0  0  0  0  0  0  0  0  0  0
   37.0931   24.0428   39.0436 H   0  0  0  0  0  0  0  0  0  0  0  0
   37.6514   23.5756   30.7731 H   0  0  0  0  0  0  0  0  0  0  0  0
   39.1033   23.5905   31.8791 H   0  0  0  0  0  0  0  0  0  0  0  0
   39.3225   25.0724   29.8760 H   0  0  0  0  0  0  0  0  0  0  0  0
   40.5974   23.8065   30.0331 H   0  0  0  0  0  0  0  0  0  0  0  0
   38.7825   21.6319   28.0041 H   0  0  0  0  0  0  0  0  0  0  0  0
   40.5445   22.1462   27.9973 H   0  0  0  0  0  0  0  0  0  0  0  0
   39.8116   20.4432   29.7161 H   0  0  0  0  0  0  0  0  0  0  0  0
   40.7563   21.9169   30.2463 H   0  0  0  0  0  0  0  0  0  0  0  0
  1  9  1  0
  2  1  1  0
  3  4  1  0
  3  2  1  0
  4  5  1  0
  5 17  1  0
  5  1  1  0
  6  7  2  0
  6 15  1  0
  8  7  1  0
  9 10  1  0
  9  8  2  0
 10  6  1  0
 11 12  2  0
 13 12  1  0
 14 13  2  0
 15 16  2  0
 15 14  1  0
 16 11  1  0
 17 18  1  0
 19 18  1  0
 20 19  1  0
 21 20  1  0
 21 22  1  0
 22 17  1  0
  2 23  1  0
  2 24  1  0
  3 25  1  0
  3 26  1  0
  4 27  1  0
  4 28  1  0
  5 29  1  6
  7 30  1  0
  8 31  1  0
 11 32  1  0
 12 33  1  0
 13 34  1  0
 18 35  1  0
 18 36  1  0
 19 37  1  0
 19 38  1  0
 21 39  1  0
 21 40  1  0
 22 41  1  0
 22 42  1  0
M  ISO  8  23  13  24  13  25  13  26  13  27  13  28  13  29  13  30  14
M  ISO  8  31  14  32  14  33  14  34  14  35  13  36  13  37  13  38  13
M  ISO  4  39  13  40  13  41  13  42  13
M  END
>  <minimizedAffinity>  (1) 
-4.82461357

>  <minimizedRMSD>  (1) 
0.848212779

$$$$
