
     RDKit          3D

 38 40  0  0  1  0  0  0  0  0999 V2000
   37.3170   21.8810   35.3350 C   0  0  0  0  0  0  0  0  0  0  0  0
   36.1600   21.1430   35.5290 C   0  0  0  0  0  0  0  0  0  0  0  0
   35.7540   20.6720   34.2780 C   0  0  0  0  0  0  0  0  0  0  0  0
   36.7160   21.1690   33.3880 C   0  0  0  0  0  0  0  0  0  0  0  0
   37.5820   21.8510   34.0530 O   0  0  0  0  0  0  0  0  0  0  0  0
   36.5820   20.8600   32.0120 N   0  0  0  0  0  0  0  0  0  0  0  0
   35.8470   19.6520   31.5650 C   0  0  0  0  0  0  0  0  0  0  0  0
   36.3710   19.2590   30.2330 C   0  0  0  0  0  0  0  0  0  0  0  0
   37.5930   20.1860   30.1060 C   0  0  0  0  0  0  0  0  0  0  0  0
   36.9880   21.4230   30.7450 C   0  0  2  0  0  0  0  0  0  0  0  0
   37.9610   22.5570   30.8430 C   0  0  0  0  0  0  0  0  0  0  0  0
   37.1160   23.8340   30.7500 C   0  0  0  0  0  0  0  0  0  0  0  0
   38.9680   22.5970   29.7520 C   0  0  0  0  0  0  0  0  0  0  0  0
   39.9050   22.7760   37.7490 C   0  0  0  0  0  0  0  0  0  0  0  0
   39.2270   23.5800   38.6710 C   0  0  0  0  0  0  0  0  0  0  0  0
   37.8580   23.8130   38.4520 C   0  0  0  0  0  0  0  0  0  0  0  0
   37.2290   23.2610   37.3640 N   0  0  0  0  0  0  0  0  0  0  0  0
   37.9460   22.4850   36.5000 C   0  0  0  0  0  0  0  0  0  0  0  0
   39.2540   22.2540   36.6970 N   0  0  0  0  0  0  0  0  0  0  0  0
   35.6553   20.9618   36.4894 H   0  0  0  0  0  0  0  0  0  0  0  0
   34.8768   20.0509   34.0441 H   0  0  0  0  0  0  0  0  0  0  0  0
   36.0032   18.8336   32.2832 H   0  0  0  0  0  0  0  0  0  0  0  0
   34.7693   19.8632   31.5030 H   0  0  0  0  0  0  0  0  0  0  0  0
   36.6652   18.1993   30.2124 H   0  0  0  0  0  0  0  0  0  0  0  0
   35.6427   19.3580   29.4146 H   0  0  0  0  0  0  0  0  0  0  0  0
   38.4613   19.8098   30.6668 H   0  0  0  0  0  0  0  0  0  0  0  0
   37.9968   20.3157   29.0911 H   0  0  0  0  0  0  0  0  0  0  0  0
   36.1685   21.9007   30.1880 H   0  0  0  0  0  0  0  0  0  0  0  0
   38.5290   22.4461   31.7784 H   0  0  0  0  0  0  0  0  0  0  0  0
   36.8793   24.1916   31.7630 H   0  0  0  0  0  0  0  0  0  0  0  0
   37.6804   24.6086   30.2102 H   0  0  0  0  0  0  0  0  0  0  0  0
   36.1824   23.6174   30.2102 H   0  0  0  0  0  0  0  0  0  0  0  0
   39.9778   22.6371   30.1864 H   0  0  0  0  0  0  0  0  0  0  0  0
   38.8716   21.6943   29.1308 H   0  0  0  0  0  0  0  0  0  0  0  0
   38.8004   23.4892   29.1308 H   0  0  0  0  0  0  0  0  0  0  0  0
   40.9768   22.5703   37.8864 H   0  0  0  0  0  0  0  0  0  0  0  0
   39.7469   24.0149   39.5374 H   0  0  0  0  0  0  0  0  0  0  0  0
   37.2892   24.4396   39.1547 H   0  0  0  0  0  0  0  0  0  0  0  0
  1  2  2  0
  1 18  1  0
  3  2  1  0
  4  5  1  0
  4  3  2  0
  5  1  1  0
  6  4  1  0
  7  6  1  0
  8  7  1  0
  9  8  1  0
  9 10  1  0
 10 11  1  0
 10  6  1  0
 12 11  1  0
 13 11  1  0
 14 15  2  0
 16 15  1  0
 17 16  2  0
 18 19  2  0
 18 17  1  0
 19 14  1  0
  2 20  1  0
  3 21  1  0
  7 22  1  0
  7 23  1  0
  8 24  1  0
  8 25  1  0
  9 26  1  0
  9 27  1  0
 10 28  1  6
 11 29  1  0
 12 30  1  0
 12 31  1  0
 12 32  1  0
 13 33  1  0
 13 34  1  0
 13 35  1  0
 14 36  1  0
 15 37  1  0
 16 38  1  0
M  ISO  8  20  14  21  14  22  13  23  13  24  13  25  13  26  13  27  13
M  ISO  8  28  13  29   8  30   8  31   8  32   8  33   8  34   8  35   8
M  ISO  3  36  14  37  14  38  14
M  END
>  <minimizedAffinity>  (1) 
-4.80474472

>  <minimizedRMSD>  (1) 
0.325703293

$$$$
