
     RDKit          3D

 35 37  0  0  1  0  0  0  0  0999 V2000
   37.2520   21.8170   35.4510 C   0  0  0  0  0  0  0  0  0  0  0  0
   36.0840   21.1110   35.7640 C   0  0  0  0  0  0  0  0  0  0  0  0
   35.5770   20.5850   34.5620 C   0  0  0  0  0  0  0  0  0  0  0  0
   36.4930   21.0210   33.6100 C   0  0  0  0  0  0  0  0  0  0  0  0
   37.4390   21.7240   34.1520 O   0  0  0  0  0  0  0  0  0  0  0  0
   36.2610   20.6470   32.2430 N   0  0  0  0  0  0  0  0  0  0  0  0
   35.9960   19.2600   31.8620 C   0  0  0  0  0  0  0  0  0  0  0  0
   36.4020   19.0890   30.4290 C   0  0  0  0  0  0  0  0  0  0  0  0
   37.1430   20.4110   30.1640 C   0  0  0  0  0  0  0  0  0  0  0  0
   36.2050   21.3190   30.9570 C   0  0  2  0  0  0  0  0  0  0  0  0
   36.7410   22.7340   31.0090 C   0  0  0  0  0  0  0  0  0  0  0  0
   35.6080   23.6840   31.2460 C   0  0  0  0  0  0  0  0  0  0  0  0
   40.0050   22.7600   37.6450 C   0  0  0  0  0  0  0  0  0  0  0  0
   39.4120   23.5900   38.5850 C   0  0  0  0  0  0  0  0  0  0  0  0
   38.0310   23.8310   38.4610 C   0  0  0  0  0  0  0  0  0  0  0  0
   37.3270   23.2550   37.4420 N   0  0  0  0  0  0  0  0  0  0  0  0
   37.9560   22.4550   36.5540 C   0  0  0  0  0  0  0  0  0  0  0  0
   39.2730   22.2150   36.6580 N   0  0  0  0  0  0  0  0  0  0  0  0
   35.6442   20.9901   36.7650 H   0  0  0  0  0  0  0  0  0  0  0  0
   34.6737   19.9756   34.4111 H   0  0  0  0  0  0  0  0  0  0  0  0
   36.5797   18.5795   32.4994 H   0  0  0  0  0  0  0  0  0  0  0  0
   34.9286   19.0258   31.9879 H   0  0  0  0  0  0  0  0  0  0  0  0
   37.0668   18.2222   30.2998 H   0  0  0  0  0  0  0  0  0  0  0  0
   35.5631   18.8983   29.7435 H   0  0  0  0  0  0  0  0  0  0  0  0
   38.1658   20.4076   30.5689 H   0  0  0  0  0  0  0  0  0  0  0  0
   37.3081   20.6777   29.1097 H   0  0  0  0  0  0  0  0  0  0  0  0
   35.1895   21.4427   30.5527 H   0  0  0  0  0  0  0  0  0  0  0  0
   37.4706   22.8207   31.8276 H   0  0  0  0  0  0  0  0  0  0  0  0
   37.2324   22.9772   30.0554 H   0  0  0  0  0  0  0  0  0  0  0  0
   35.4564   23.8112   32.3281 H   0  0  0  0  0  0  0  0  0  0  0  0
   35.8448   24.6576   30.7920 H   0  0  0  0  0  0  0  0  0  0  0  0
   34.6906   23.2811   30.7920 H   0  0  0  0  0  0  0  0  0  0  0  0
   41.0822   22.5462   37.7077 H   0  0  0  0  0  0  0  0  0  0  0  0
   39.9994   24.0430   39.3972 H   0  0  0  0  0  0  0  0  0  0  0  0
   37.5189   24.4828   39.1842 H   0  0  0  0  0  0  0  0  0  0  0  0
  1  2  2  0
  1 17  1  0
  3  2  1  0
  4  5  1  0
  4  3  2  0
  5  1  1  0
  6  4  1  0
  7  6  1  0
  8  7  1  0
  9  8  1  0
  9 10  1  0
 10 11  1  0
 10  6  1  0
 11 12  1  0
 13 14  2  0
 15 14  1  0
 16 15  2  0
 17 18  2  0
 17 16  1  0
 18 13  1  0
  2 19  1  0
  3 20  1  0
  7 21  1  0
  7 22  1  0
  8 23  1  0
  8 24  1  0
  9 25  1  0
  9 26  1  0
 10 27  1  6
 11 28  1  0
 11 29  1  0
 12 30  1  0
 12 31  1  0
 12 32  1  0
 13 33  1  0
 14 34  1  0
 15 35  1  0
M  ISO  8  19  14  20  14  21  13  22  13  23  13  24  13  25  13  26  13
M  ISO  8  27  13  28   8  29   8  30   8  31   8  32   8  33  14  34  14
M  ISO  1  35  14
M  END
>  <minimizedAffinity>  (1) 
-4.78701639

>  <minimizedRMSD>  (1) 
0.555125177

$$$$
