
     RDKit          3D

 32 34  0  0  1  0  0  0  0  0999 V2000
   37.3240   21.8070   35.2420 C   0  0  0  0  0  0  0  0  0  0  0  0
   36.1340   21.1180   35.4060 C   0  0  0  0  0  0  0  0  0  0  0  0
   35.7380   20.6530   34.1460 C   0  0  0  0  0  0  0  0  0  0  0  0
   36.7510   21.1100   33.2860 C   0  0  0  0  0  0  0  0  0  0  0  0
   37.6350   21.7630   33.9540 O   0  0  0  0  0  0  0  0  0  0  0  0
   36.6310   20.7880   31.9040 N   0  0  0  0  0  0  0  0  0  0  0  0
   35.8960   19.5900   31.4470 C   0  0  0  0  0  0  0  0  0  0  0  0
   36.4260   19.2080   30.1090 C   0  0  0  0  0  0  0  0  0  0  0  0
   37.6750   20.0940   30.0120 C   0  0  0  0  0  0  0  0  0  0  0  0
   37.0600   21.3450   30.6490 C   0  0  2  0  0  0  0  0  0  0  0  0
   38.0490   22.4370   30.6750 C   0  0  0  0  0  0  0  0  0  0  0  0
   37.4980   23.4960   31.4060 F   0  0  0  0  0  0  0  0  0  0  0  0
   39.1570   22.0470   31.4030 F   0  0  0  0  0  0  0  0  0  0  0  0
   38.4570   22.9240   29.4870 F   0  0  0  0  0  0  0  0  0  0  0  0
   39.9160   22.7610   37.6290 C   0  0  0  0  0  0  0  0  0  0  0  0
   39.2200   23.4900   38.5790 C   0  0  0  0  0  0  0  0  0  0  0  0
   37.8400   23.6590   38.4030 C   0  0  0  0  0  0  0  0  0  0  0  0
   37.2160   23.1110   37.3140 N   0  0  0  0  0  0  0  0  0  0  0  0
   37.9640   22.4040   36.4150 C   0  0  0  0  0  0  0  0  0  0  0  0
   39.2650   22.2400   36.5740 N   0  0  0  0  0  0  0  0  0  0  0  0
   35.5974   20.9640   36.3538 H   0  0  0  0  0  0  0  0  0  0  0  0
   34.8432   20.0670   33.8894 H   0  0  0  0  0  0  0  0  0  0  0  0
   36.0480   18.7648   32.1583 H   0  0  0  0  0  0  0  0  0  0  0  0
   34.8186   19.8031   31.3848 H   0  0  0  0  0  0  0  0  0  0  0  0
   36.6866   18.1400   30.0697 H   0  0  0  0  0  0  0  0  0  0  0  0
   35.7104   19.3490   29.2856 H   0  0  0  0  0  0  0  0  0  0  0  0
   38.5200   19.6967   30.5935 H   0  0  0  0  0  0  0  0  0  0  0  0
   38.1185   20.2154   29.0127 H   0  0  0  0  0  0  0  0  0  0  0  0
   36.2242   21.8441   30.1368 H   0  0  0  0  0  0  0  0  0  0  0  0
   41.0000   22.6084   37.7374 H   0  0  0  0  0  0  0  0  0  0  0  0
   39.7363   23.9244   39.4478 H   0  0  0  0  0  0  0  0  0  0  0  0
   37.2578   24.2320   39.1397 H   0  0  0  0  0  0  0  0  0  0  0  0
  1  2  2  0
  1 19  1  0
  3  2  1  0
  4  5  1  0
  4  3  2  0
  5  1  1  0
  6  4  1  0
  7  6  1  0
  8  7  1  0
  9  8  1  0
  9 10  1  0
 10 11  1  0
 10  6  1  0
 11 13  1  0
 11 12  1  0
 14 11  1  0
 15 16  2  0
 17 16  1  0
 18 17  2  0
 19 20  2  0
 19 18  1  0
 20 15  1  0
  2 21  1  0
  3 22  1  0
  7 23  1  0
  7 24  1  0
  8 25  1  0
  8 26  1  0
  9 27  1  0
  9 28  1  0
 10 29  1  6
 15 30  1  0
 16 31  1  0
 17 32  1  0
M  ISO  8  21  14  22  14  23  13  24  13  25  13  26  13  27  13  28  13
M  ISO  4  29  13  30  14  31  14  32  14
M  END
>  <minimizedAffinity>  (1) 
-4.70308733

>  <minimizedRMSD>  (1) 
0.375439823

$$$$
