
     RDKit          3D

 31 33  0  0  1  0  0  0  0  0999 V2000
   37.2650   21.7690   35.2960 C   0  0  0  0  0  0  0  0  0  0  0  0
   36.0880   21.0690   35.5420 C   0  0  0  0  0  0  0  0  0  0  0  0
   35.6420   20.5680   34.3040 C   0  0  0  0  0  0  0  0  0  0  0  0
   36.6010   21.0120   33.3920 C   0  0  0  0  0  0  0  0  0  0  0  0
   37.5280   21.7060   33.9990 O   0  0  0  0  0  0  0  0  0  0  0  0
   36.4220   20.6580   32.0300 N   0  0  0  0  0  0  0  0  0  0  0  0
   35.8120   19.3730   31.6280 C   0  0  0  0  0  0  0  0  0  0  0  0
   36.3490   19.0270   30.2770 C   0  0  0  0  0  0  0  0  0  0  0  0
   37.4170   20.1050   30.0660 C   0  0  0  0  0  0  0  0  0  0  0  0
   36.6990   21.2690   30.7330 C   0  0  2  0  0  0  0  0  0  0  0  0
   37.5400   22.4430   30.8470 N   0  0  0  0  0  0  0  0  0  0  0  0
   39.9090   22.7850   37.5970 C   0  0  0  0  0  0  0  0  0  0  0  0
   39.2490   23.5430   38.5470 C   0  0  0  0  0  0  0  0  0  0  0  0
   37.8640   23.7130   38.3980 C   0  0  0  0  0  0  0  0  0  0  0  0
   37.2360   23.1290   37.3350 N   0  0  0  0  0  0  0  0  0  0  0  0
   37.9330   22.3920   36.4300 C   0  0  0  0  0  0  0  0  0  0  0  0
   39.2540   22.2210   36.5560 N   0  0  0  0  0  0  0  0  0  0  0  0
   35.5990   20.9329   36.5179 H   0  0  0  0  0  0  0  0  0  0  0  0
   34.7443   19.9653   34.1020 H   0  0  0  0  0  0  0  0  0  0  0  0
   36.0784   18.5878   32.3509 H   0  0  0  0  0  0  0  0  0  0  0  0
   34.7154   19.4551   31.6008 H   0  0  0  0  0  0  0  0  0  0  0  0
   36.7920   18.0202   30.2700 H   0  0  0  0  0  0  0  0  0  0  0  0
   35.5815   19.0064   29.4893 H   0  0  0  0  0  0  0  0  0  0  0  0
   38.3619   19.8566   30.5715 H   0  0  0  0  0  0  0  0  0  0  0  0
   37.7288   20.2704   29.0242 H   0  0  0  0  0  0  0  0  0  0  0  0
   35.8189   21.6495   30.1938 H   0  0  0  0  0  0  0  0  0  0  0  0
   37.6948   22.6591   31.8421 H   0  0  0  0  0  0  0  0  0  0  0  0
   38.4452   22.2626   30.3900 H   0  0  0  0  0  0  0  0  0  0  0  0
   40.9950   22.6367   37.6901 H   0  0  0  0  0  0  0  0  0  0  0  0
   39.7908   23.9968   39.3900 H   0  0  0  0  0  0  0  0  0  0  0  0
   37.2929   24.3075   39.1262 H   0  0  0  0  0  0  0  0  0  0  0  0
  1  2  2  0
  1 16  1  0
  3  2  1  0
  4  5  1  0
  4  3  2  0
  5  1  1  0
  6  4  1  0
  7  6  1  0
  8  7  1  0
  9  8  1  0
  9 10  1  0
 10 11  1  0
 10  6  1  0
 12 13  2  0
 14 13  1  0
 15 14  2  0
 16 17  2  0
 16 15  1  0
 17 12  1  0
  2 18  1  0
  3 19  1  0
  7 20  1  0
  7 21  1  0
  8 22  1  0
  8 23  1  0
  9 24  1  0
  9 25  1  0
 10 26  1  6
 11 27  1  0
 11 28  1  0
 12 29  1  0
 13 30  1  0
 14 31  1  0
M  ISO  8  18  14  19  14  20  13  21  13  22  13  23  13  24  13  25  13
M  ISO  6  26  13  27   5  28   5  29  14  30  14  31  14
M  END
>  <minimizedAffinity>  (1) 
-4.64596224

>  <minimizedRMSD>  (1) 
0.0512383394

$$$$
