
     RDKit          3D

 23 25  0  0  0  0  0  0  0  0999 V2000
   39.7030   22.8070   37.5950 C   0  0  0  0  0  0  0  0  0  0  0  0
   38.9690   23.3610   38.6570 C   0  0  0  0  0  0  0  0  0  0  0  0
   37.9430   24.2650   38.3420 C   0  0  0  0  0  0  0  0  0  0  0  0
   37.7330   24.5420   37.0130 N   0  0  0  0  0  0  0  0  0  0  0  0
   38.4590   23.9880   36.0240 C   0  0  0  0  0  0  0  0  0  0  0  0
   39.4450   23.1190   36.3180 N   0  0  0  0  0  0  0  0  0  0  0  0
   38.1210   24.3750   34.6960 N   0  0  0  0  0  0  0  0  0  0  0  0
   38.2930   23.5590   33.6180 C   0  0  0  0  0  0  0  0  0  0  0  0
   37.8850   24.1950   32.4960 N   0  0  0  0  0  0  0  0  0  0  0  0
   37.4440   25.4280   32.8320 C   0  0  0  0  0  0  0  0  0  0  0  0
   36.9120   26.5350   32.1640 C   0  0  0  0  0  0  0  0  0  0  0  0
   36.5650   27.6460   32.8330 N   0  0  0  0  0  0  0  0  0  0  0  0
   36.7340   27.6870   34.1640 C   0  0  0  0  0  0  0  0  0  0  0  0
   37.2450   26.6390   34.8460 N   0  0  0  0  0  0  0  0  0  0  0  0
   37.6010   25.5150   34.2070 C   0  0  0  0  0  0  0  0  0  0  0  0
   36.8070   26.3020   30.7530 N   0  0  0  0  0  0  0  0  0  0  0  0
   40.5127   22.0967   37.8184 H   0  0  0  0  0  0  0  0  0  0  0  0
   39.1912   23.0950   39.7010 H   0  0  0  0  0  0  0  0  0  0  0  0
   37.3315   24.7330   39.1276 H   0  0  0  0  0  0  0  0  0  0  0  0
   38.7015   22.5383   33.6548 H   0  0  0  0  0  0  0  0  0  0  0  0
   36.4493   28.5967   34.7130 H   0  0  0  0  0  0  0  0  0  0  0  0
   36.4300   27.0359   30.1365 H   0  0  0  0  0  0  0  0  0  0  0  0
   37.1086   25.4007   30.3560 H   0  0  0  0  0  0  0  0  0  0  0  0
  1  2  2  0
  3  2  1  0
  4  3  2  0
  5  6  2  0
  5  4  1  0
  6  1  1  0
  7  5  1  0
  8  7  1  0
  9 10  1  0
  9  8  2  0
 10 15  2  0
 11 10  1  0
 11 12  2  0
 12 13  1  0
 13 14  2  0
 15  7  1  0
 15 14  1  0
 16 11  1  0
  1 17  1  0
  2 18  1  0
  3 19  1  0
  8 20  1  0
 13 21  1  0
 16 22  1  0
 16 23  1  0
M  ISO  5  17  14  18  14  19  14  20  14  21  14
M  END
>  <minimizedAffinity>  (1) 
-5.01471376

>  <minimizedRMSD>  (1) 
3.46907473

$$$$
