
     RDKit          3D

 14 14  0  0  0  0  0  0  0  0999 V2000
   40.5100   22.4850   37.6730 C   0  0  0  0  0  0  0  0  0  0  0  0
   39.2610   23.0920   37.4350 C   0  0  0  0  0  0  0  0  0  0  0  0
   38.8150   23.1380   36.1130 C   0  0  0  0  0  0  0  0  0  0  0  0
   39.6010   22.6010   35.1360 N   0  0  0  0  0  0  0  0  0  0  0  0
   40.7970   22.0270   35.4130 C   0  0  0  0  0  0  0  0  0  0  0  0
   41.2290   21.9790   36.6730 N   0  0  0  0  0  0  0  0  0  0  0  0
   38.4000   23.6800   38.4940 C   0  0  0  0  0  0  0  0  0  0  0  0
   39.2100   23.8500   39.6080 F   0  0  0  0  0  0  0  0  0  0  0  0
   37.3690   22.8810   38.8410 F   0  0  0  0  0  0  0  0  0  0  0  0
   38.0000   24.9680   38.1610 F   0  0  0  0  0  0  0  0  0  0  0  0
   41.4760   21.5250   34.3070 O   0  0  0  0  0  0  0  0  0  0  0  0
   40.8972   22.4282   38.7010 H   0  0  0  0  0  0  0  0  0  0  0  0
   37.8477   23.5987   35.8638 H   0  0  0  0  0  0  0  0  0  0  0  0
   42.3575   21.0896   34.4230 H   0  0  0  0  0  0  0  0  0  0  0  0
  2  1  2  0
  2  7  1  0
  3  2  1  0
  4  5  1  0
  4  3  2  0
  5  6  2  0
  6  1  1  0
  7  9  1  0
  7  8  1  0
 10  7  1  0
 11  5  1  0
  1 12  1  0
  3 13  1  0
 11 14  1  0
M  ISO  3  12  14  13  14  14   3
M  END
>  <minimizedAffinity>  (1) 
-3.84766006

>  <minimizedRMSD>  (1) 
0.0419856273

$$$$
