
     RDKit          3D

 31 33  0  0  1  0  0  0  0  0999 V2000
   37.6280   21.7550   34.8880 C   0  0  0  0  0  0  0  0  0  0  0  0
   36.3170   21.2970   34.8340 C   0  0  0  0  0  0  0  0  0  0  0  0
   36.0910   20.7760   33.5530 C   0  0  0  0  0  0  0  0  0  0  0  0
   37.3170   20.9620   32.9090 C   0  0  0  0  0  0  0  0  0  0  0  0
   38.1660   21.5250   33.7130 O   0  0  0  0  0  0  0  0  0  0  0  0
   37.4290   20.5240   31.5490 N   0  0  0  0  0  0  0  0  0  0  0  0
   36.2540   20.3630   30.6940 C   0  0  0  0  0  0  0  0  0  0  0  0
   36.5870   19.3530   29.6520 C   0  0  0  0  0  0  0  0  0  0  0  0
   37.9270   18.8290   30.1390 C   0  0  0  0  0  0  0  0  0  0  0  0
   38.5300   20.1450   30.6610 C   0  0  1  0  0  0  0  0  0  0  0  0
   38.7630   21.1160   29.5790 C   0  0  0  0  0  0  0  0  0  0  0  0
   39.0470   22.2700   29.7460 O   0  0  0  0  0  0  0  0  0  0  0  0
   39.8930   22.7900   37.5540 C   0  0  0  0  0  0  0  0  0  0  0  0
   39.0650   23.4350   38.4590 C   0  0  0  0  0  0  0  0  0  0  0  0
   37.7020   23.5180   38.1510 C   0  0  0  0  0  0  0  0  0  0  0  0
   37.2360   22.9680   36.9840 N   0  0  0  0  0  0  0  0  0  0  0  0
   38.1000   22.3470   36.1350 C   0  0  0  0  0  0  0  0  0  0  0  0
   39.3890   22.2670   36.4230 N   0  0  0  0  0  0  0  0  0  0  0  0
   35.5846   21.3366   35.6538 H   0  0  0  0  0  0  0  0  0  0  0  0
   35.1701   20.3283   33.1511 H   0  0  0  0  0  0  0  0  0  0  0  0
   35.3995   20.0153   31.2932 H   0  0  0  0  0  0  0  0  0  0  0  0
   35.9824   21.3218   30.2282 H   0  0  0  0  0  0  0  0  0  0  0  0
   36.6762   19.8175   28.6589 H   0  0  0  0  0  0  0  0  0  0  0  0
   35.8223   18.5717   29.5304 H   0  0  0  0  0  0  0  0  0  0  0  0
   37.8112   18.0832   30.9392 H   0  0  0  0  0  0  0  0  0  0  0  0
   38.5290   18.3011   29.3847 H   0  0  0  0  0  0  0  0  0  0  0  0
   39.5221   20.0815   31.1318 H   0  0  0  0  0  0  0  0  0  0  0  0
   38.6701   20.7579   28.5431 H   0  0  0  0  0  0  0  0  0  0  0  0
   40.9697   22.7055   37.7626 H   0  0  0  0  0  0  0  0  0  0  0  0
   39.4653   23.8671   39.3880 H   0  0  0  0  0  0  0  0  0  0  0  0
   37.0086   24.0214   38.8408 H   0  0  0  0  0  0  0  0  0  0  0  0
  1 17  1  0
  2  1  2  0
  3  2  1  0
  4  3  2  0
  4  5  1  0
  5  1  1  0
  6  4  1  0
  7  6  1  0
  8  9  1  0
  8  7  1  0
  9 10  1  0
 10  6  1  0
 11 12  2  0
 11 10  1  0
 13 14  2  0
 15 14  1  0
 16 15  2  0
 17 18  2  0
 17 16  1  0
 18 13  1  0
  2 19  1  0
  3 20  1  0
  7 21  1  0
  7 22  1  0
  8 23  1  0
  8 24  1  0
  9 25  1  0
  9 26  1  0
 10 27  1  1
 11 28  1  0
 13 29  1  0
 14 30  1  0
 15 31  1  0
M  ISO  8  19  14  20  14  21  13  22  13  23  13  24  13  25  13  26  13
M  ISO  5  27  13  28   6  29  14  30  14  31  14
M  END
>  <minimizedAffinity>  (1) 
-4.10457182

>  <minimizedRMSD>  (1) 
1.60283256

$$$$
