
     RDKit          3D

 50 55  0  0  1  0  0  0  0  0999 V2000
   36.0970   20.6280   32.2960 N   0  0  0  0  0  0  0  0  0  0  0  0
   36.1820   19.2180   31.8370 C   0  0  0  0  0  0  0  0  0  0  0  0
   36.4570   19.2360   30.3850 C   0  0  0  0  0  0  0  0  0  0  0  0
   36.6510   20.7220   30.1130 C   0  0  0  0  0  0  0  0  0  0  0  0
   35.6810   21.3330   31.0790 C   0  0  2  0  0  0  0  0  0  0  0  0
   37.2110   21.7810   35.4640 C   0  0  0  0  0  0  0  0  0  0  0  0
   36.0560   21.0860   35.8170 C   0  0  0  0  0  0  0  0  0  0  0  0
   35.4970   20.5650   34.6400 C   0  0  0  0  0  0  0  0  0  0  0  0
   36.3870   21.0000   33.6420 C   0  0  0  0  0  0  0  0  0  0  0  0
   37.3340   21.6810   34.1620 O   0  0  0  0  0  0  0  0  0  0  0  0
   40.0570   22.7500   37.5150 C   0  0  0  0  0  0  0  0  0  0  0  0
   39.4960   23.5600   38.4960 C   0  0  0  0  0  0  0  0  0  0  0  0
   38.1070   23.7820   38.4530 C   0  0  0  0  0  0  0  0  0  0  0  0
   37.3630   23.2010   37.4640 N   0  0  0  0  0  0  0  0  0  0  0  0
   37.9660   22.4120   36.5240 C   0  0  0  0  0  0  0  0  0  0  0  0
   39.2890   22.2010   36.5630 N   0  0  0  0  0  0  0  0  0  0  0  0
   36.0020   22.7490   31.2680 C   0  0  0  0  0  0  0  0  0  0  0  0
   35.1670   23.8120   31.2620 C   0  0  0  0  0  0  0  0  0  0  0  0
   35.9450   24.9560   31.4660 C   0  0  0  0  0  0  0  0  0  0  0  0
   37.2350   24.5190   31.5870 N   0  0  0  0  0  0  0  0  0  0  0  0
   37.2680   23.1920   31.4680 N   0  0  0  0  0  0  0  0  0  0  0  0
   38.2590   25.4840   31.8030 C   0  0  0  0  0  0  0  0  0  0  0  0
   38.5610   26.3520   30.7740 C   0  0  0  0  0  0  0  0  0  0  0  0
   39.5590   27.1820   31.1950 N   0  0  0  0  0  0  0  0  0  0  0  0
   39.8710   26.8400   32.4570 C   0  0  0  0  0  0  0  0  0  0  0  0
   40.7780   27.2970   33.3970 C   0  0  0  0  0  0  0  0  0  0  0  0
   40.8550   26.7110   34.6500 C   0  0  0  0  0  0  0  0  0  0  0  0
   40.0340   25.6540   35.0070 C   0  0  0  0  0  0  0  0  0  0  0  0
   39.1130   25.1660   34.0960 C   0  0  0  0  0  0  0  0  0  0  0  0
   39.0930   25.7910   32.8820 C   0  0  0  0  0  0  0  0  0  0  0  0
   36.9952   18.6997   32.3663 H   0  0  0  0  0  0  0  0  0  0  0  0
   35.2416   18.6868   32.0453 H   0  0  0  0  0  0  0  0  0  0  0  0
   37.3654   18.6644   30.1440 H   0  0  0  0  0  0  0  0  0  0  0  0
   35.6623   18.7762   29.7792 H   0  0  0  0  0  0  0  0  0  0  0  0
   37.6829   21.0379   30.3261 H   0  0  0  0  0  0  0  0  0  0  0  0
   36.4823   21.0115   29.0653 H   0  0  0  0  0  0  0  0  0  0  0  0
   34.6223   21.2604   30.7895 H   0  0  0  0  0  0  0  0  0  0  0  0
   35.6549   20.9672   36.8344 H   0  0  0  0  0  0  0  0  0  0  0  0
   34.5839   19.9624   34.5258 H   0  0  0  0  0  0  0  0  0  0  0  0
   41.1401   22.5580   37.5200 H   0  0  0  0  0  0  0  0  0  0  0  0
   40.1186   24.0133   39.2814 H   0  0  0  0  0  0  0  0  0  0  0  0
   37.6237   24.4180   39.2092 H   0  0  0  0  0  0  0  0  0  0  0  0
   34.0763   23.7826   31.1224 H   0  0  0  0  0  0  0  0  0  0  0  0
   35.5911   25.9962   31.5185 H   0  0  0  0  0  0  0  0  0  0  0  0
   38.0802   26.3716   29.7848 H   0  0  0  0  0  0  0  0  0  0  0  0
   39.9950   27.9355   30.6445 H   0  0  0  0  0  0  0  0  0  0  0  0
   41.4452   28.1349   33.1465 H   0  0  0  0  0  0  0  0  0  0  0  0
   41.5850   27.0940   35.3783 H   0  0  0  0  0  0  0  0  0  0  0  0
   40.1134   25.2052   36.0081 H   0  0  0  0  0  0  0  0  0  0  0  0
   38.4406   24.3288   34.3346 H   0  0  0  0  0  0  0  0  0  0  0  0
  1  9  1  0
  2  1  1  0
  3  2  1  0
  4  3  1  0
  4  5  1  0
  5 17  1  0
  5  1  1  0
  6  7  2  0
  6 15  1  0
  8  7  1  0
  9 10  1  0
  9  8  2  0
 10  6  1  0
 11 12  2  0
 13 12  1  0
 14 13  2  0
 15 16  2  0
 15 14  1  0
 16 11  1  0
 17 21  2  0
 18 17  1  0
 18 19  2  0
 19 20  1  0
 20 22  1  0
 21 20  1  0
 22 30  1  0
 23 24  1  0
 23 22  2  0
 24 25  1  0
 25 30  2  0
 25 26  1  0
 26 27  2  0
 27 28  1  0
 29 28  2  0
 30 29  1  0
  2 31  1  0
  2 32  1  0
  3 33  1  0
  3 34  1  0
  4 35  1  0
  4 36  1  0
  5 37  1  6
  7 38  1  0
  8 39  1  0
 11 40  1  0
 12 41  1  0
 13 42  1  0
 18 43  1  0
 19 44  1  0
 23 45  1  0
 24 46  1  0
 26 47  1  0
 27 48  1  0
 28 49  1  0
 29 50  1  0
M  ISO  8  31  13  32  13  33  13  34  13  35  13  36  13  37  13  38  14
M  ISO  8  39  14  40  14  41  14  42  14  43  14  44  14  45  14  46   9
M  ISO  4  47  14  48  14  49  14  50  14
M  END
>  <minimizedAffinity>  (1) 
-6.69070578

>  <minimizedRMSD>  (1) 
1.18746018

$$$$
