
     RDKit          3D

 46 50  0  0  1  0  0  0  0  0999 V2000
   36.2010   20.4460   32.2290 N   0  0  0  0  0  0  0  0  0  0  0  0
   36.2910   19.0190   31.8380 C   0  0  0  0  0  0  0  0  0  0  0  0
   36.5900   18.9750   30.3920 C   0  0  0  0  0  0  0  0  0  0  0  0
   36.8360   20.4460   30.0710 C   0  0  0  0  0  0  0  0  0  0  0  0
   35.8300   21.1020   30.9730 C   0  0  2  0  0  0  0  0  0  0  0  0
   37.2320   21.7220   35.3840 C   0  0  0  0  0  0  0  0  0  0  0  0
   36.0250   21.1020   35.7190 C   0  0  0  0  0  0  0  0  0  0  0  0
   35.4990   20.5460   34.5480 C   0  0  0  0  0  0  0  0  0  0  0  0
   36.4500   20.8780   33.5680 C   0  0  0  0  0  0  0  0  0  0  0  0
   37.4040   21.5410   34.0990 O   0  0  0  0  0  0  0  0  0  0  0  0
   40.0420   22.7400   37.4560 C   0  0  0  0  0  0  0  0  0  0  0  0
   39.4660   23.5590   38.4200 C   0  0  0  0  0  0  0  0  0  0  0  0
   38.0710   23.7690   38.3560 C   0  0  0  0  0  0  0  0  0  0  0  0
   37.3420   23.1650   37.3590 N   0  0  0  0  0  0  0  0  0  0  0  0
   37.9660   22.3730   36.4430 C   0  0  0  0  0  0  0  0  0  0  0  0
   39.2900   22.1730   36.5030 N   0  0  0  0  0  0  0  0  0  0  0  0
   36.1450   22.5240   31.1110 C   0  0  0  0  0  0  0  0  0  0  0  0
   35.3300   23.5400   31.4720 C   0  0  0  0  0  0  0  0  0  0  0  0
   36.1020   24.7150   31.4330 C   0  0  0  0  0  0  0  0  0  0  0  0
   37.3500   24.3420   31.0470 N   0  0  0  0  0  0  0  0  0  0  0  0
   37.3800   23.0230   30.8520 N   0  0  0  0  0  0  0  0  0  0  0  0
   38.3900   25.3050   30.9060 C   0  0  0  0  0  0  0  0  0  0  0  0
   39.3270   25.4680   29.9030 C   0  0  0  0  0  0  0  0  0  0  0  0
   40.2410   26.4920   30.0020 C   0  0  0  0  0  0  0  0  0  0  0  0
   40.2760   27.3680   31.0460 C   0  0  0  0  0  0  0  0  0  0  0  0
   39.3390   27.2180   32.0640 C   0  0  0  0  0  0  0  0  0  0  0  0
   38.4030   26.1870   31.9860 C   0  0  0  0  0  0  0  0  0  0  0  0
   37.0946   18.5243   32.4033 H   0  0  0  0  0  0  0  0  0  0  0  0
   35.3478   18.4965   32.0556 H   0  0  0  0  0  0  0  0  0  0  0  0
   37.4836   18.3669   30.1875 H   0  0  0  0  0  0  0  0  0  0  0  0
   35.7915   18.5182   29.7889 H   0  0  0  0  0  0  0  0  0  0  0  0
   37.8632   20.7490   30.3220 H   0  0  0  0  0  0  0  0  0  0  0  0
   36.7307   20.7041   29.0069 H   0  0  0  0  0  0  0  0  0  0  0  0
   34.7817   21.0215   30.6495 H   0  0  0  0  0  0  0  0  0  0  0  0
   35.5716   21.0591   36.7203 H   0  0  0  0  0  0  0  0  0  0  0  0
   34.5626   19.9823   34.4237 H   0  0  0  0  0  0  0  0  0  0  0  0
   41.1262   22.5555   37.4757 H   0  0  0  0  0  0  0  0  0  0  0  0
   40.0761   24.0277   39.2062 H   0  0  0  0  0  0  0  0  0  0  0  0
   37.5719   24.4103   39.0974 H   0  0  0  0  0  0  0  0  0  0  0  0
   34.2670   23.4627   31.7441 H   0  0  0  0  0  0  0  0  0  0  0  0
   35.7624   25.7344   31.6685 H   0  0  0  0  0  0  0  0  0  0  0  0
   39.3419   24.7888   29.0379 H   0  0  0  0  0  0  0  0  0  0  0  0
   40.9816   26.6098   29.1972 H   0  0  0  0  0  0  0  0  0  0  0  0
   41.0253   28.1724   31.0828 H   0  0  0  0  0  0  0  0  0  0  0  0
   39.3366   27.9062   32.9221 H   0  0  0  0  0  0  0  0  0  0  0  0
   37.6622   26.0675   32.7903 H   0  0  0  0  0  0  0  0  0  0  0  0
  1  9  1  0
  2  1  1  0
  3  2  1  0
  4  3  1  0
  4  5  1  0
  5 17  1  0
  5  1  1  0
  6  7  2  0
  6 15  1  0
  8  7  1  0
  9 10  1  0
  9  8  2  0
 10  6  1  0
 11 12  2  0
 13 12  1  0
 14 13  2  0
 15 16  2  0
 15 14  1  0
 16 11  1  0
 17 18  1  0
 19 18  2  0
 20 19  1  0
 21 20  1  0
 21 17  2  0
 22 20  1  0
 22 27  2  0
 23 24  2  0
 23 22  1  0
 24 25  1  0
 25 26  2  0
 27 26  1  0
  2 28  1  0
  2 29  1  0
  3 30  1  0
  3 31  1  0
  4 32  1  0
  4 33  1  0
  5 34  1  6
  7 35  1  0
  8 36  1  0
 11 37  1  0
 12 38  1  0
 13 39  1  0
 18 40  1  0
 19 41  1  0
 23 42  1  0
 24 43  1  0
 25 44  1  0
 26 45  1  0
 27 46  1  0
M  ISO  8  28  13  29  13  30  13  31  13  32  13  33  13  34  13  35  14
M  ISO  8  36  14  37  14  38  14  39  14  40  14  41  14  42  14  43  14
M  ISO  3  44  14  45  14  46  14
M  END
>  <minimizedAffinity>  (1) 
-5.9908886

>  <minimizedRMSD>  (1) 
0.183007166

$$$$
