
     RDKit          3D

 52 56  0  0  1  0  0  0  0  0999 V2000
   36.4350   20.6700   32.2400 N   0  0  0  0  0  0  0  0  0  0  0  0
   36.6520   19.2760   31.7830 C   0  0  0  0  0  0  0  0  0  0  0  0
   37.0090   19.3300   30.3510 C   0  0  0  0  0  0  0  0  0  0  0  0
   37.1080   20.8290   30.0960 C   0  0  0  0  0  0  0  0  0  0  0  0
   36.0440   21.3580   31.0080 C   0  0  2  0  0  0  0  0  0  0  0  0
   37.2810   21.8450   35.4870 C   0  0  0  0  0  0  0  0  0  0  0  0
   36.1030   21.1460   35.7500 C   0  0  0  0  0  0  0  0  0  0  0  0
   35.6500   20.6190   34.5330 C   0  0  0  0  0  0  0  0  0  0  0  0
   36.6120   21.0510   33.6060 C   0  0  0  0  0  0  0  0  0  0  0  0
   37.5100   21.7380   34.1990 O   0  0  0  0  0  0  0  0  0  0  0  0
   39.9320   22.8080   37.7810 C   0  0  0  0  0  0  0  0  0  0  0  0
   39.3070   23.6470   38.6930 C   0  0  0  0  0  0  0  0  0  0  0  0
   37.9280   23.8860   38.5060 C   0  0  0  0  0  0  0  0  0  0  0  0
   37.2590   23.3010   37.4610 N   0  0  0  0  0  0  0  0  0  0  0  0
   37.9430   22.4840   36.6010 C   0  0  0  0  0  0  0  0  0  0  0  0
   39.2520   22.2520   36.7720 N   0  0  0  0  0  0  0  0  0  0  0  0
   36.2440   22.7900   31.2240 C   0  0  0  0  0  0  0  0  0  0  0  0
   35.3170   23.7530   31.4340 C   0  0  0  0  0  0  0  0  0  0  0  0
   36.0130   24.9680   31.5630 C   0  0  0  0  0  0  0  0  0  0  0  0
   37.3270   24.6730   31.4230 N   0  0  0  0  0  0  0  0  0  0  0  0
   37.4740   23.3650   31.2180 N   0  0  0  0  0  0  0  0  0  0  0  0
   38.3370   25.6910   31.4990 C   0  0  0  0  0  0  0  0  0  0  0  0
   37.9740   26.9780   30.7970 C   0  0  0  0  0  0  0  0  0  0  0  0
   39.2900   27.6550   30.4650 C   0  0  0  0  0  0  0  0  0  0  0  0
   40.3500   27.2600   31.4380 C   0  0  0  0  0  0  0  0  0  0  0  0
   39.8670   27.0070   32.8350 C   0  0  0  0  0  0  0  0  0  0  0  0
   38.7070   26.0510   32.9090 C   0  0  0  0  0  0  0  0  0  0  0  0
   37.4695   18.8153   32.3570 H   0  0  0  0  0  0  0  0  0  0  0  0
   35.7448   18.6726   31.9341 H   0  0  0  0  0  0  0  0  0  0  0  0
   37.9700   18.8295   30.1611 H   0  0  0  0  0  0  0  0  0  0  0  0
   36.2861   18.8194   29.6978 H   0  0  0  0  0  0  0  0  0  0  0  0
   38.1003   21.2182   30.3679 H   0  0  0  0  0  0  0  0  0  0  0  0
   36.9774   21.1142   29.0417 H   0  0  0  0  0  0  0  0  0  0  0  0
   35.0120   21.2131   30.6558 H   0  0  0  0  0  0  0  0  0  0  0  0
   35.6191   21.0299   36.7310 H   0  0  0  0  0  0  0  0  0  0  0  0
   34.7526   20.0105   34.3477 H   0  0  0  0  0  0  0  0  0  0  0  0
   41.0060   22.5964   37.8898 H   0  0  0  0  0  0  0  0  0  0  0  0
   39.8616   24.1056   39.5249 H   0  0  0  0  0  0  0  0  0  0  0  0
   37.3875   24.5446   39.2018 H   0  0  0  0  0  0  0  0  0  0  0  0
   34.2276   23.6124   31.4926 H   0  0  0  0  0  0  0  0  0  0  0  0
   35.5763   25.9616   31.7422 H   0  0  0  0  0  0  0  0  0  0  0  0
   39.1890   25.2230   30.9842 H   0  0  0  0  0  0  0  0  0  0  0  0
   37.4097   26.7661   29.8768 H   0  0  0  0  0  0  0  0  0  0  0  0
   37.3385   27.6171   31.4277 H   0  0  0  0  0  0  0  0  0  0  0  0
   39.6020   27.3596   29.4524 H   0  0  0  0  0  0  0  0  0  0  0  0
   39.1495   28.7446   30.5202 H   0  0  0  0  0  0  0  0  0  0  0  0
   40.8252   26.3389   31.0694 H   0  0  0  0  0  0  0  0  0  0  0  0
   41.0412   28.1133   31.5020 H   0  0  0  0  0  0  0  0  0  0  0  0
   40.6995   26.5892   33.4202 H   0  0  0  0  0  0  0  0  0  0  0  0
   39.5163   27.9703   33.2338 H   0  0  0  0  0  0  0  0  0  0  0  0
   37.8544   26.5313   33.4113 H   0  0  0  0  0  0  0  0  0  0  0  0
   38.9778   25.1525   33.4829 H   0  0  0  0  0  0  0  0  0  0  0  0
  1  9  1  0
  2  1  1  0
  3  2  1  0
  4  3  1  0
  4  5  1  0
  5 17  1  0
  5  1  1  0
  6  7  2  0
  6 15  1  0
  8  7  1  0
  9 10  1  0
  9  8  2  0
 10  6  1  0
 11 12  2  0
 13 12  1  0
 14 13  2  0
 15 16  2  0
 15 14  1  0
 16 11  1  0
 17 18  1  0
 18 19  2  0
 20 22  1  0
 20 19  1  0
 21 17  2  0
 21 20  1  0
 22 27  1  0
 23 22  1  0
 24 23  1  0
 24 25  1  0
 25 26  1  0
 26 27  1  0
  2 28  1  0
  2 29  1  0
  3 30  1  0
  3 31  1  0
  4 32  1  0
  4 33  1  0
  5 34  1  6
  7 35  1  0
  8 36  1  0
 11 37  1  0
 12 38  1  0
 13 39  1  0
 18 40  1  0
 19 41  1  0
 22 42  1  0
 23 43  1  0
 23 44  1  0
 24 45  1  0
 24 46  1  0
 25 47  1  0
 25 48  1  0
 26 49  1  0
 26 50  1  0
 27 51  1  0
 27 52  1  0
M  ISO  8  28  13  29  13  30  13  31  13  32  13  33  13  34  13  35  14
M  ISO  8  36  14  37  14  38  14  39  14  40  14  41  14  42  13  43  13
M  ISO  8  44  13  45  13  46  13  47  13  48  13  49  13  50  13  51  13
M  ISO  1  52  13
M  END
>  <minimizedAffinity>  (1) 
-5.94054508

>  <minimizedRMSD>  (1) 
0.596152604

$$$$
