
     RDKit          3D

 49 53  0  0  1  0  0  0  0  0999 V2000
   36.1480   20.4350   32.2520 N   0  0  0  0  0  0  0  0  0  0  0  0
   36.1410   18.9960   31.8900 C   0  0  0  0  0  0  0  0  0  0  0  0
   36.4520   18.9010   30.4480 C   0  0  0  0  0  0  0  0  0  0  0  0
   36.7850   20.3460   30.0970 C   0  0  0  0  0  0  0  0  0  0  0  0
   35.8280   21.0920   30.9820 C   0  0  2  0  0  0  0  0  0  0  0  0
   37.2340   21.7140   35.3850 C   0  0  0  0  0  0  0  0  0  0  0  0
   36.0280   21.1120   35.7420 C   0  0  0  0  0  0  0  0  0  0  0  0
   35.4790   20.5550   34.5790 C   0  0  0  0  0  0  0  0  0  0  0  0
   36.4210   20.8730   33.5850 C   0  0  0  0  0  0  0  0  0  0  0  0
   37.3920   21.5280   34.0940 O   0  0  0  0  0  0  0  0  0  0  0  0
   40.0890   22.7210   37.4060 C   0  0  0  0  0  0  0  0  0  0  0  0
   39.5360   23.5570   38.3680 C   0  0  0  0  0  0  0  0  0  0  0  0
   38.1450   23.7840   38.3250 C   0  0  0  0  0  0  0  0  0  0  0  0
   37.3980   23.1810   37.3490 N   0  0  0  0  0  0  0  0  0  0  0  0
   37.9990   22.3670   36.4280 C   0  0  0  0  0  0  0  0  0  0  0  0
   39.3220   22.1510   36.4720 N   0  0  0  0  0  0  0  0  0  0  0  0
   36.2520   22.4890   31.0950 C   0  0  0  0  0  0  0  0  0  0  0  0
   35.5370   23.5550   31.5200 C   0  0  0  0  0  0  0  0  0  0  0  0
   36.3740   24.6760   31.4250 C   0  0  0  0  0  0  0  0  0  0  0  0
   37.5680   24.2230   30.9410 N   0  0  0  0  0  0  0  0  0  0  0  0
   37.4920   22.9070   30.7420 N   0  0  0  0  0  0  0  0  0  0  0  0
   40.6420   27.0170   30.6270 C   0  0  0  0  0  0  0  0  0  0  0  0
   40.5130   26.1120   29.5920 C   0  0  0  0  0  0  0  0  0  0  0  0
   39.5130   25.1600   29.6360 C   0  0  0  0  0  0  0  0  0  0  0  0
   38.6490   25.1260   30.7250 C   0  0  0  0  0  0  0  0  0  0  0  0
   38.7750   26.0400   31.7770 C   0  0  0  0  0  0  0  0  0  0  0  0
   39.7890   26.9990   31.7220 C   0  0  0  0  0  0  0  0  0  0  0  0
   41.9380   28.1850   30.4820 S   0  0  0  0  0  0  0  0  0  0  0  0
   41.5250   29.4450   29.8110 O   0  0  0  0  0  0  0  0  0  0  0  0
   42.4800   28.5490   31.8530 O   0  0  0  0  0  0  0  0  0  0  0  0
   36.9013   18.4576   32.4748 H   0  0  0  0  0  0  0  0  0  0  0  0
   35.1608   18.5461   32.1062 H   0  0  0  0  0  0  0  0  0  0  0  0
   37.3112   18.2382   30.2677 H   0  0  0  0  0  0  0  0  0  0  0  0
   35.6349   18.4765   29.8462 H   0  0  0  0  0  0  0  0  0  0  0  0
   37.8302   20.5886   30.3394 H   0  0  0  0  0  0  0  0  0  0  0  0
   36.6879   20.5836   29.0274 H   0  0  0  0  0  0  0  0  0  0  0  0
   34.7773   21.0838   30.6566 H   0  0  0  0  0  0  0  0  0  0  0  0
   35.5887   21.0802   36.7500 H   0  0  0  0  0  0  0  0  0  0  0  0
   34.5352   20.0007   34.4698 H   0  0  0  0  0  0  0  0  0  0  0  0
   41.1715   22.5259   37.4133 H   0  0  0  0  0  0  0  0  0  0  0  0
   40.1638   24.0272   39.1392 H   0  0  0  0  0  0  0  0  0  0  0  0
   37.6653   24.4385   39.0676 H   0  0  0  0  0  0  0  0  0  0  0  0
   34.4954   23.5448   31.8735 H   0  0  0  0  0  0  0  0  0  0  0  0
   36.1196   25.7134   31.6879 H   0  0  0  0  0  0  0  0  0  0  0  0
   41.2034   26.1490   28.7364 H   0  0  0  0  0  0  0  0  0  0  0  0
   39.4011   24.4349   28.8164 H   0  0  0  0  0  0  0  0  0  0  0  0
   38.0862   26.0038   32.6339 H   0  0  0  0  0  0  0  0  0  0  0  0
   39.9100   27.7299   32.5351 H   0  0  0  0  0  0  0  0  0  0  0  0
   42.8933   27.5777   29.7103 H   0  0  0  0  0  0  0  0  0  0  0  0
  1  9  1  0
  2  1  1  0
  3  2  1  0
  4  3  1  0
  4  5  1  0
  5 17  1  0
  5  1  1  0
  6  7  2  0
  6 15  1  0
  8  7  1  0
  9 10  1  0
  9  8  2  0
 10  6  1  0
 11 12  2  0
 13 12  1  0
 14 13  2  0
 15 16  2  0
 15 14  1  0
 16 11  1  0
 17 18  1  0
 19 18  2  0
 20 19  1  0
 21 20  1  0
 21 17  2  0
 22 27  2  0
 23 24  2  0
 23 22  1  0
 24 25  1  0
 25 20  1  0
 25 26  2  0
 27 26  1  0
 28 22  1  0
 28 30  2  0
 29 28  2  0
  2 31  1  0
  2 32  1  0
  3 33  1  0
  3 34  1  0
  4 35  1  0
  4 36  1  0
  5 37  1  6
  7 38  1  0
  8 39  1  0
 11 40  1  0
 12 41  1  0
 13 42  1  0
 18 43  1  0
 19 44  1  0
 23 45  1  0
 24 46  1  0
 26 47  1  0
 27 48  1  0
 28 49  1  0
M  ISO  8  31  13  32  13  33  13  34  13  35  13  36  13  37  13  38  14
M  ISO  8  39  14  40  14  41  14  42  14  43  14  44  14  45  14  46  14
M  ISO  3  47  14  48  14  49  11
M  END
>  <minimizedAffinity>  (1) 
-5.91176891

>  <minimizedRMSD>  (1) 
0.464745581

$$$$
