
     RDKit          3D

 49 53  0  0  1  0  0  0  0  0999 V2000
   36.2060   20.4690   32.2410 N   0  0  0  0  0  0  0  0  0  0  0  0
   36.3060   19.0390   31.8430 C   0  0  0  0  0  0  0  0  0  0  0  0
   36.6160   18.9980   30.3990 C   0  0  0  0  0  0  0  0  0  0  0  0
   36.8290   20.4740   30.0730 C   0  0  0  0  0  0  0  0  0  0  0  0
   35.8300   21.1240   30.9850 C   0  0  2  0  0  0  0  0  0  0  0  0
   37.2250   21.7270   35.4000 C   0  0  0  0  0  0  0  0  0  0  0  0
   36.0240   21.0990   35.7320 C   0  0  0  0  0  0  0  0  0  0  0  0
   35.5000   20.5450   34.5560 C   0  0  0  0  0  0  0  0  0  0  0  0
   36.4530   20.8930   33.5820 C   0  0  0  0  0  0  0  0  0  0  0  0
   37.4050   21.5590   34.1110 O   0  0  0  0  0  0  0  0  0  0  0  0
   40.0340   22.7520   37.4800 C   0  0  0  0  0  0  0  0  0  0  0  0
   39.4540   23.5710   38.4420 C   0  0  0  0  0  0  0  0  0  0  0  0
   38.0600   23.7760   38.3740 C   0  0  0  0  0  0  0  0  0  0  0  0
   37.3360   23.1770   37.3860 N   0  0  0  0  0  0  0  0  0  0  0  0
   37.9630   22.3800   36.4640 C   0  0  0  0  0  0  0  0  0  0  0  0
   39.2870   22.1820   36.5250 N   0  0  0  0  0  0  0  0  0  0  0  0
   36.1510   22.5450   31.1270 C   0  0  0  0  0  0  0  0  0  0  0  0
   35.3390   23.5620   31.4900 C   0  0  0  0  0  0  0  0  0  0  0  0
   36.1030   24.7350   31.4590 C   0  0  0  0  0  0  0  0  0  0  0  0
   37.3500   24.3680   31.0760 N   0  0  0  0  0  0  0  0  0  0  0  0
   37.3860   23.0480   30.8730 N   0  0  0  0  0  0  0  0  0  0  0  0
   38.3910   25.3710   30.9470 C   0  0  0  0  0  0  0  0  0  0  0  0
   39.2480   25.4760   32.1880 C   0  0  0  0  0  0  0  0  0  0  0  0
   39.0670   26.9070   32.6490 C   0  0  0  0  0  0  0  0  0  0  0  0
   38.9610   27.6080   31.2980 C   0  0  0  0  0  0  0  0  0  0  0  0
   37.8400   26.7560   30.6920 C   0  0  0  0  0  0  0  0  0  0  0  0
   37.1075   18.5462   32.4129 H   0  0  0  0  0  0  0  0  0  0  0  0
   35.3624   18.5132   32.0507 H   0  0  0  0  0  0  0  0  0  0  0  0
   37.5253   18.4109   30.2028 H   0  0  0  0  0  0  0  0  0  0  0  0
   35.8324   18.5204   29.7925 H   0  0  0  0  0  0  0  0  0  0  0  0
   37.8552   20.7939   30.3065 H   0  0  0  0  0  0  0  0  0  0  0  0
   36.6976   20.7239   29.0099 H   0  0  0  0  0  0  0  0  0  0  0  0
   34.7804   21.0405   30.6666 H   0  0  0  0  0  0  0  0  0  0  0  0
   35.5714   21.0481   36.7333 H   0  0  0  0  0  0  0  0  0  0  0  0
   34.5680   19.9753   34.4261 H   0  0  0  0  0  0  0  0  0  0  0  0
   41.1186   22.5699   37.5032 H   0  0  0  0  0  0  0  0  0  0  0  0
   40.0609   24.0428   39.2288 H   0  0  0  0  0  0  0  0  0  0  0  0
   37.5591   24.4164   39.1149 H   0  0  0  0  0  0  0  0  0  0  0  0
   34.2755   23.4832   31.7597 H   0  0  0  0  0  0  0  0  0  0  0  0
   35.7593   25.7522   31.6980 H   0  0  0  0  0  0  0  0  0  0  0  0
   38.9876   25.0300   30.0881 H   0  0  0  0  0  0  0  0  0  0  0  0
   38.9039   24.7717   32.9597 H   0  0  0  0  0  0  0  0  0  0  0  0
   40.3017   25.2279   31.9928 H   0  0  0  0  0  0  0  0  0  0  0  0
   38.1517   27.0310   33.2464 H   0  0  0  0  0  0  0  0  0  0  0  0
   39.8626   27.2863   33.3071 H   0  0  0  0  0  0  0  0  0  0  0  0
   38.6708   28.6641   31.4000 H   0  0  0  0  0  0  0  0  0  0  0  0
   39.8907   27.6634   30.7126 H   0  0  0  0  0  0  0  0  0  0  0  0
   37.7138   26.9530   29.6172 H   0  0  0  0  0  0  0  0  0  0  0  0
   36.8406   26.9403   31.1129 H   0  0  0  0  0  0  0  0  0  0  0  0
  1  9  1  0
  2  1  1  0
  3  2  1  0
  4  3  1  0
  4  5  1  0
  5 17  1  0
  5  1  1  0
  6  7  2  0
  6 15  1  0
  8  7  1  0
  9 10  1  0
  9  8  2  0
 10  6  1  0
 11 12  2  0
 13 12  1  0
 14 13  2  0
 15 16  2  0
 15 14  1  0
 16 11  1  0
 17 18  1  0
 19 18  2  0
 20 19  1  0
 21 20  1  0
 21 17  2  0
 22 20  1  0
 22 23  1  0
 23 24  1  0
 25 24  1  0
 26 22  1  0
 26 25  1  0
  2 27  1  0
  2 28  1  0
  3 29  1  0
  3 30  1  0
  4 31  1  0
  4 32  1  0
  5 33  1  6
  7 34  1  0
  8 35  1  0
 11 36  1  0
 12 37  1  0
 13 38  1  0
 18 39  1  0
 19 40  1  0
 22 41  1  0
 23 42  1  0
 23 43  1  0
 24 44  1  0
 24 45  1  0
 25 46  1  0
 25 47  1  0
 26 48  1  0
 26 49  1  0
M  ISO  8  27  13  28  13  29  13  30  13  31  13  32  13  33  13  34  14
M  ISO  8  35  14  36  14  37  14  38  14  39  14  40  14  41  13  42  13
M  ISO  7  43  13  44  13  45  13  46  13  47  13  48  13  49  13
M  END
>  <minimizedAffinity>  (1) 
-5.89302015

>  <minimizedRMSD>  (1) 
1.26161516

$$$$
