
     RDKit          3D

 43 47  0  0  1  0  0  0  0  0999 V2000
   36.2570   20.4350   32.2240 N   0  0  0  0  0  0  0  0  0  0  0  0
   36.4070   19.0100   31.8370 C   0  0  0  0  0  0  0  0  0  0  0  0
   36.7230   18.9710   30.3930 C   0  0  0  0  0  0  0  0  0  0  0  0
   36.8920   20.4520   30.0630 C   0  0  0  0  0  0  0  0  0  0  0  0
   35.8650   21.0700   30.9670 C   0  0  2  0  0  0  0  0  0  0  0  0
   37.2300   21.7200   35.3850 C   0  0  0  0  0  0  0  0  0  0  0  0
   36.0250   21.1130   35.7070 C   0  0  0  0  0  0  0  0  0  0  0  0
   35.5180   20.5520   34.5300 C   0  0  0  0  0  0  0  0  0  0  0  0
   36.4840   20.8740   33.5640 C   0  0  0  0  0  0  0  0  0  0  0  0
   37.4340   21.5370   34.1010 O   0  0  0  0  0  0  0  0  0  0  0  0
   40.0140   22.7680   37.4900 C   0  0  0  0  0  0  0  0  0  0  0  0
   39.4340   23.5930   38.4400 C   0  0  0  0  0  0  0  0  0  0  0  0
   38.0390   23.7960   38.3560 C   0  0  0  0  0  0  0  0  0  0  0  0
   37.3150   23.1850   37.3590 N   0  0  0  0  0  0  0  0  0  0  0  0
   37.9620   22.3830   36.4560 C   0  0  0  0  0  0  0  0  0  0  0  0
   39.2860   22.1900   36.5360 N   0  0  0  0  0  0  0  0  0  0  0  0
   36.1310   22.5020   31.1020 C   0  0  0  0  0  0  0  0  0  0  0  0
   35.2930   23.4870   31.4950 C   0  0  0  0  0  0  0  0  0  0  0  0
   36.0130   24.6870   31.4390 C   0  0  0  0  0  0  0  0  0  0  0  0
   37.2570   24.3690   31.0140 N   0  0  0  0  0  0  0  0  0  0  0  0
   37.3340   23.0560   30.8100 N   0  0  0  0  0  0  0  0  0  0  0  0
   38.3160   25.2730   30.8140 C   0  0  0  0  0  0  0  0  0  0  0  0
   39.0810   25.9040   31.7580 C   0  0  0  0  0  0  0  0  0  0  0  0
   39.9850   26.6850   31.1270 N   0  0  0  0  0  0  0  0  0  0  0  0
   39.8200   26.5730   29.7980 C   0  0  0  0  0  0  0  0  0  0  0  0
   38.8080   25.7170   29.6380 N   0  0  0  0  0  0  0  0  0  0  0  0
   37.2232   18.5487   32.4124 H   0  0  0  0  0  0  0  0  0  0  0  0
   35.4817   18.4530   32.0457 H   0  0  0  0  0  0  0  0  0  0  0  0
   37.6503   18.4110   30.2021 H   0  0  0  0  0  0  0  0  0  0  0  0
   35.9571   18.4666   29.7856 H   0  0  0  0  0  0  0  0  0  0  0  0
   37.9056   20.8056   30.3030 H   0  0  0  0  0  0  0  0  0  0  0  0
   36.7619   20.6955   28.9982 H   0  0  0  0  0  0  0  0  0  0  0  0
   34.8205   20.9475   30.6446 H   0  0  0  0  0  0  0  0  0  0  0  0
   35.5560   21.0791   36.7014 H   0  0  0  0  0  0  0  0  0  0  0  0
   34.5820   19.9904   34.3936 H   0  0  0  0  0  0  0  0  0  0  0  0
   41.0984   22.5865   37.5243 H   0  0  0  0  0  0  0  0  0  0  0  0
   40.0356   24.0704   39.2275 H   0  0  0  0  0  0  0  0  0  0  0  0
   37.5318   24.4423   39.0875 H   0  0  0  0  0  0  0  0  0  0  0  0
   34.2431   23.3684   31.8012 H   0  0  0  0  0  0  0  0  0  0  0  0
   35.6401   25.6907   31.6911 H   0  0  0  0  0  0  0  0  0  0  0  0
   38.9770   25.7936   32.8475 H   0  0  0  0  0  0  0  0  0  0  0  0
   40.3963   27.0791   29.0095 H   0  0  0  0  0  0  0  0  0  0  0  0
   38.4432   25.4275   28.7193 H   0  0  0  0  0  0  0  0  0  0  0  0
  1  9  1  0
  2  1  1  0
  3  2  1  0
  4  3  1  0
  4  5  1  0
  5 17  1  0
  5  1  1  0
  6  7  2  0
  6 15  1  0
  8  7  1  0
  9 10  1  0
  9  8  2  0
 10  6  1  0
 11 12  2  0
 13 12  1  0
 14 13  2  0
 15 16  2  0
 15 14  1  0
 16 11  1  0
 17 18  1  0
 19 18  2  0
 20 19  1  0
 21 20  1  0
 21 17  2  0
 22 20  1  0
 22 23  2  0
 24 23  1  0
 25 24  2  0
 26 25  1  0
 26 22  1  0
  2 27  1  0
  2 28  1  0
  3 29  1  0
  3 30  1  0
  4 31  1  0
  4 32  1  0
  5 33  1  6
  7 34  1  0
  8 35  1  0
 11 36  1  0
 12 37  1  0
 13 38  1  0
 18 39  1  0
 19 40  1  0
 23 41  1  0
 25 42  1  0
 26 43  1  0
M  ISO  8  27  13  28  13  29  13  30  13  31  13  32  13  33  13  34  14
M  ISO  8  35  14  36  14  37  14  38  14  39  14  40  14  41  14  42  14
M  ISO  1  43   9
M  END
>  <minimizedAffinity>  (1) 
-5.79572296

>  <minimizedRMSD>  (1) 
0.258998603

$$$$
