
     RDKit          3D

 44 48  0  0  1  0  0  0  0  0999 V2000
   36.3010   20.4600   32.2150 N   0  0  0  0  0  0  0  0  0  0  0  0
   36.4960   19.0450   31.8130 C   0  0  0  0  0  0  0  0  0  0  0  0
   36.7850   19.0380   30.3630 C   0  0  0  0  0  0  0  0  0  0  0  0
   36.9260   20.5190   30.0540 C   0  0  0  0  0  0  0  0  0  0  0  0
   35.8820   21.1000   30.9650 C   0  0  2  0  0  0  0  0  0  0  0  0
   37.2520   21.7410   35.3910 C   0  0  0  0  0  0  0  0  0  0  0  0
   36.0400   21.1110   35.6970 C   0  0  0  0  0  0  0  0  0  0  0  0
   35.5410   20.5510   34.5150 C   0  0  0  0  0  0  0  0  0  0  0  0
   36.5180   20.8950   33.5590 C   0  0  0  0  0  0  0  0  0  0  0  0
   37.4580   21.5640   34.1080 O   0  0  0  0  0  0  0  0  0  0  0  0
   40.0100   22.7750   37.5290 C   0  0  0  0  0  0  0  0  0  0  0  0
   39.4050   23.5940   38.4750 C   0  0  0  0  0  0  0  0  0  0  0  0
   38.0120   23.7960   38.3730 C   0  0  0  0  0  0  0  0  0  0  0  0
   37.3060   23.1970   37.3730 N   0  0  0  0  0  0  0  0  0  0  0  0
   37.9600   22.3970   36.4680 C   0  0  0  0  0  0  0  0  0  0  0  0
   39.2840   22.2020   36.5590 N   0  0  0  0  0  0  0  0  0  0  0  0
   36.1120   22.5390   31.1150 C   0  0  0  0  0  0  0  0  0  0  0  0
   35.2290   23.5000   31.4660 C   0  0  0  0  0  0  0  0  0  0  0  0
   35.9110   24.7210   31.4520 C   0  0  0  0  0  0  0  0  0  0  0  0
   37.2020   24.4290   31.0850 N   0  0  0  0  0  0  0  0  0  0  0  0
   37.3180   23.1160   30.8840 N   0  0  0  0  0  0  0  0  0  0  0  0
   38.3090   25.3090   30.9180 C   0  0  0  0  0  0  0  0  0  0  0  0
   39.2960   25.2910   29.9530 C   0  0  0  0  0  0  0  0  0  0  0  0
   40.2630   26.2760   30.0270 C   0  0  0  0  0  0  0  0  0  0  0  0
   40.2690   27.2140   30.9790 N   0  0  0  0  0  0  0  0  0  0  0  0
   39.3100   27.2120   31.8970 C   0  0  0  0  0  0  0  0  0  0  0  0
   38.3460   26.2780   31.8710 N   0  0  0  0  0  0  0  0  0  0  0  0
   37.3398   18.6086   32.3675 H   0  0  0  0  0  0  0  0  0  0  0  0
   35.5986   18.4489   32.0351 H   0  0  0  0  0  0  0  0  0  0  0  0
   37.7165   18.4951   30.1450 H   0  0  0  0  0  0  0  0  0  0  0  0
   36.0133   18.5342   29.7624 H   0  0  0  0  0  0  0  0  0  0  0  0
   37.9313   20.8900   30.3025 H   0  0  0  0  0  0  0  0  0  0  0  0
   36.7966   20.7760   28.9923 H   0  0  0  0  0  0  0  0  0  0  0  0
   34.8396   20.9545   30.6452 H   0  0  0  0  0  0  0  0  0  0  0  0
   35.5651   21.0644   36.6881 H   0  0  0  0  0  0  0  0  0  0  0  0
   34.6119   19.9808   34.3680 H   0  0  0  0  0  0  0  0  0  0  0  0
   41.0942   22.5955   37.5768 H   0  0  0  0  0  0  0  0  0  0  0  0
   39.9916   24.0683   39.2755 H   0  0  0  0  0  0  0  0  0  0  0  0
   37.4953   24.4379   39.1017 H   0  0  0  0  0  0  0  0  0  0  0  0
   34.1686   23.3495   31.7167 H   0  0  0  0  0  0  0  0  0  0  0  0
   35.4977   25.7130   31.6870 H   0  0  0  0  0  0  0  0  0  0  0  0
   39.3122   24.5276   29.1612 H   0  0  0  0  0  0  0  0  0  0  0  0
   41.0613   26.2883   29.2703 H   0  0  0  0  0  0  0  0  0  0  0  0
   39.3052   27.9805   32.6840 H   0  0  0  0  0  0  0  0  0  0  0  0
  1  9  1  0
  2  1  1  0
  3  2  1  0
  4  3  1  0
  4  5  1  0
  5 17  1  0
  5  1  1  0
  6  7  2  0
  6 15  1  0
  8  7  1  0
  9 10  1  0
  9  8  2  0
 10  6  1  0
 11 12  2  0
 13 12  1  0
 14 13  2  0
 15 16  2  0
 15 14  1  0
 16 11  1  0
 17 18  1  0
 19 18  2  0
 20 19  1  0
 21 20  1  0
 21 17  2  0
 22 20  1  0
 22 27  2  0
 23 24  2  0
 23 22  1  0
 24 25  1  0
 25 26  2  0
 27 26  1  0
  2 28  1  0
  2 29  1  0
  3 30  1  0
  3 31  1  0
  4 32  1  0
  4 33  1  0
  5 34  1  6
  7 35  1  0
  8 36  1  0
 11 37  1  0
 12 38  1  0
 13 39  1  0
 18 40  1  0
 19 41  1  0
 23 42  1  0
 24 43  1  0
 26 44  1  0
M  ISO  8  28  13  29  13  30  13  31  13  32  13  33  13  34  13  35  14
M  ISO  8  36  14  37  14  38  14  39  14  40  14  41  14  42  14  43  14
M  ISO  1  44  14
M  END
>  <minimizedAffinity>  (1) 
-5.79143524

>  <minimizedRMSD>  (1) 
0.411840111

$$$$
