
     RDKit          3D

 48 51  0  0  1  0  0  0  0  0999 V2000
   36.1830   20.4820   32.2450 N   0  0  0  0  0  0  0  0  0  0  0  0
   36.2380   19.0550   31.8460 C   0  0  0  0  0  0  0  0  0  0  0  0
   36.5530   19.0090   30.4040 C   0  0  0  0  0  0  0  0  0  0  0  0
   36.8140   20.4720   30.0800 C   0  0  0  0  0  0  0  0  0  0  0  0
   35.8280   21.1480   30.9880 C   0  0  2  0  0  0  0  0  0  0  0  0
   37.2280   21.7300   35.4000 C   0  0  0  0  0  0  0  0  0  0  0  0
   36.0250   21.1010   35.7420 C   0  0  0  0  0  0  0  0  0  0  0  0
   35.4960   20.5550   34.5650 C   0  0  0  0  0  0  0  0  0  0  0  0
   36.4400   20.9030   33.5840 C   0  0  0  0  0  0  0  0  0  0  0  0
   37.3970   21.5650   34.1100 O   0  0  0  0  0  0  0  0  0  0  0  0
   40.0500   22.7380   37.4660 C   0  0  0  0  0  0  0  0  0  0  0  0
   39.4850   23.5610   38.4310 C   0  0  0  0  0  0  0  0  0  0  0  0
   38.0930   23.7760   38.3700 C   0  0  0  0  0  0  0  0  0  0  0  0
   37.3550   23.1820   37.3850 N   0  0  0  0  0  0  0  0  0  0  0  0
   37.9750   22.3780   36.4590 C   0  0  0  0  0  0  0  0  0  0  0  0
   39.2950   22.1740   36.5170 N   0  0  0  0  0  0  0  0  0  0  0  0
   36.1820   22.5620   31.1280 C   0  0  0  0  0  0  0  0  0  0  0  0
   35.3910   23.5940   31.4970 C   0  0  0  0  0  0  0  0  0  0  0  0
   36.1760   24.7530   31.4650 C   0  0  0  0  0  0  0  0  0  0  0  0
   37.4280   24.3520   31.0700 N   0  0  0  0  0  0  0  0  0  0  0  0
   37.4260   23.0360   30.8690 N   0  0  0  0  0  0  0  0  0  0  0  0
   38.6000   25.1810   30.8830 C   0  0  0  0  0  0  0  0  0  0  0  0
   39.6190   25.0180   31.9970 C   0  0  0  0  0  0  0  0  0  0  0  0
   39.3090   24.8260   29.5910 C   0  0  0  0  0  0  0  0  0  0  0  0
   38.2230   26.6420   30.8050 C   0  0  0  0  0  0  0  0  0  0  0  0
   37.0205   18.5350   32.4181 H   0  0  0  0  0  0  0  0  0  0  0  0
   35.2774   18.5588   32.0487 H   0  0  0  0  0  0  0  0  0  0  0  0
   37.4440   18.3935   30.2107 H   0  0  0  0  0  0  0  0  0  0  0  0
   35.7557   18.5592   29.7941 H   0  0  0  0  0  0  0  0  0  0  0  0
   37.8479   20.7606   30.3203 H   0  0  0  0  0  0  0  0  0  0  0  0
   36.6995   20.7278   29.0163 H   0  0  0  0  0  0  0  0  0  0  0  0
   34.7773   21.0917   30.6673 H   0  0  0  0  0  0  0  0  0  0  0  0
   35.5789   21.0458   36.7460 H   0  0  0  0  0  0  0  0  0  0  0  0
   34.5620   19.9877   34.4387 H   0  0  0  0  0  0  0  0  0  0  0  0
   41.1332   22.5473   37.4822 H   0  0  0  0  0  0  0  0  0  0  0  0
   40.1006   24.0279   39.2140 H   0  0  0  0  0  0  0  0  0  0  0  0
   37.6019   24.4206   39.1138 H   0  0  0  0  0  0  0  0  0  0  0  0
   34.3275   23.5344   31.7716 H   0  0  0  0  0  0  0  0  0  0  0  0
   35.8547   25.7768   31.7072 H   0  0  0  0  0  0  0  0  0  0  0  0
   39.1138   25.0988   32.9708 H   0  0  0  0  0  0  0  0  0  0  0  0
   40.0988   24.0317   31.9136 H   0  0  0  0  0  0  0  0  0  0  0  0
   40.3825   25.8054   31.9136 H   0  0  0  0  0  0  0  0  0  0  0  0
   40.2709   24.3444   29.8210 H   0  0  0  0  0  0  0  0  0  0  0  0
   38.6832   24.1349   29.0073 H   0  0  0  0  0  0  0  0  0  0  0  0
   39.4874   25.7411   29.0073 H   0  0  0  0  0  0  0  0  0  0  0  0
   38.1181   27.0484   31.8218 H   0  0  0  0  0  0  0  0  0  0  0  0
   39.0079   27.1951   30.2682 H   0  0  0  0  0  0  0  0  0  0  0  0
   37.2685   26.7462   30.2682 H   0  0  0  0  0  0  0  0  0  0  0  0
  1  9  1  0
  2  1  1  0
  3  2  1  0
  4  3  1  0
  4  5  1  0
  5 17  1  0
  5  1  1  0
  6  7  2  0
  6 15  1  0
  8  7  1  0
  9 10  1  0
  9  8  2  0
 10  6  1  0
 11 12  2  0
 13 12  1  0
 14 13  2  0
 15 16  2  0
 15 14  1  0
 16 11  1  0
 17 18  1  0
 19 18  2  0
 20 19  1  0
 21 20  1  0
 21 17  2  0
 22 20  1  0
 22 23  1  0
 24 22  1  0
 25 22  1  0
  2 26  1  0
  2 27  1  0
  3 28  1  0
  3 29  1  0
  4 30  1  0
  4 31  1  0
  5 32  1  6
  7 33  1  0
  8 34  1  0
 11 35  1  0
 12 36  1  0
 13 37  1  0
 18 38  1  0
 19 39  1  0
 23 40  1  0
 23 41  1  0
 23 42  1  0
 24 43  1  0
 24 44  1  0
 24 45  1  0
 25 46  1  0
 25 47  1  0
 25 48  1  0
M  ISO  8  26  13  27  13  28  13  29  13  30  13  31  13  32  13  33  14
M  ISO  8  34  14  35  14  36  14  37  14  38  14  39  14  40   8  41   8
M  ISO  7  42   8  43   8  44   8  45   8  46   8  47   8  48   8
M  END
>  <minimizedAffinity>  (1) 
-5.59178305

>  <minimizedRMSD>  (1) 
0.124935992

$$$$
