
     RDKit          3D

 43 47  0  0  1  0  0  0  0  0999 V2000
   36.2180   20.5810   32.2510 N   0  0  0  0  0  0  0  0  0  0  0  0
   36.2870   19.1640   31.8240 C   0  0  0  0  0  0  0  0  0  0  0  0
   36.6210   19.1480   30.3840 C   0  0  0  0  0  0  0  0  0  0  0  0
   36.8730   20.6240   30.1000 C   0  0  0  0  0  0  0  0  0  0  0  0
   35.8670   21.2730   31.0080 C   0  0  2  0  0  0  0  0  0  0  0  0
   37.2290   21.7760   35.4420 C   0  0  0  0  0  0  0  0  0  0  0  0
   36.0480   21.1000   35.7630 C   0  0  0  0  0  0  0  0  0  0  0  0
   35.5320   20.5700   34.5770 C   0  0  0  0  0  0  0  0  0  0  0  0
   36.4630   20.9740   33.6050 C   0  0  0  0  0  0  0  0  0  0  0  0
   37.3990   21.6510   34.1470 O   0  0  0  0  0  0  0  0  0  0  0  0
   40.0160   22.7470   37.5740 C   0  0  0  0  0  0  0  0  0  0  0  0
   39.4300   23.5770   38.5240 C   0  0  0  0  0  0  0  0  0  0  0  0
   38.0390   23.8080   38.4270 C   0  0  0  0  0  0  0  0  0  0  0  0
   37.3200   23.2260   37.4280 N   0  0  0  0  0  0  0  0  0  0  0  0
   37.9550   22.4170   36.5200 C   0  0  0  0  0  0  0  0  0  0  0  0
   39.2720   22.1930   36.6050 N   0  0  0  0  0  0  0  0  0  0  0  0
   36.2080   22.6850   31.1850 C   0  0  0  0  0  0  0  0  0  0  0  0
   35.3940   23.7180   31.4960 C   0  0  0  0  0  0  0  0  0  0  0  0
   36.1770   24.8730   31.5330 C   0  0  0  0  0  0  0  0  0  0  0  0
   37.4550   24.4750   31.2370 N   0  0  0  0  0  0  0  0  0  0  0  0
   37.4680   23.1600   31.0280 N   0  0  0  0  0  0  0  0  0  0  0  0
   38.5440   25.4250   31.1850 C   0  0  0  0  0  0  0  0  0  0  0  0
   38.2940   26.7070   30.3900 C   0  0  0  0  0  0  0  0  0  0  0  0
   38.2870   26.7410   31.8850 C   0  0  0  0  0  0  0  0  0  0  0  0
   37.0653   18.6373   32.3956 H   0  0  0  0  0  0  0  0  0  0  0  0
   35.3267   18.6586   32.0039 H   0  0  0  0  0  0  0  0  0  0  0  0
   37.5197   18.5445   30.1890 H   0  0  0  0  0  0  0  0  0  0  0  0
   35.8383   18.7024   29.7524 H   0  0  0  0  0  0  0  0  0  0  0  0
   37.9005   20.9153   30.3634 H   0  0  0  0  0  0  0  0  0  0  0  0
   36.7710   20.9034   29.0410 H   0  0  0  0  0  0  0  0  0  0  0  0
   34.8205   21.2174   30.6736 H   0  0  0  0  0  0  0  0  0  0  0  0
   35.6058   21.0030   36.7655 H   0  0  0  0  0  0  0  0  0  0  0  0
   34.6155   19.9778   34.4377 H   0  0  0  0  0  0  0  0  0  0  0  0
   41.0962   22.5437   37.6176 H   0  0  0  0  0  0  0  0  0  0  0  0
   40.0287   24.0379   39.3235 H   0  0  0  0  0  0  0  0  0  0  0  0
   37.5372   24.4581   39.1588 H   0  0  0  0  0  0  0  0  0  0  0  0
   34.3120   23.6593   31.6854 H   0  0  0  0  0  0  0  0  0  0  0  0
   35.8373   25.8955   31.7548 H   0  0  0  0  0  0  0  0  0  0  0  0
   39.3344   24.6601   31.2004 H   0  0  0  0  0  0  0  0  0  0  0  0
   39.1173   27.1781   29.8330 H   0  0  0  0  0  0  0  0  0  0  0  0
   37.5883   27.0083   29.6018 H   0  0  0  0  0  0  0  0  0  0  0  0
   37.3411   26.8982   32.4241 H   0  0  0  0  0  0  0  0  0  0  0  0
   38.8230   27.3276   32.6457 H   0  0  0  0  0  0  0  0  0  0  0  0
  1  9  1  0
  2  1  1  0
  3  2  1  0
  4  3  1  0
  4  5  1  0
  5 17  1  0
  5  1  1  0
  6  7  2  0
  6 15  1  0
  8  7  1  0
  9 10  1  0
  9  8  2  0
 10  6  1  0
 11 12  2  0
 13 12  1  0
 14 13  2  0
 15 16  2  0
 15 14  1  0
 16 11  1  0
 17 18  1  0
 18 19  2  0
 20 19  1  0
 21 17  2  0
 21 20  1  0
 22 20  1  0
 22 24  1  0
 23 22  1  0
 23 24  1  0
  2 25  1  0
  2 26  1  0
  3 27  1  0
  3 28  1  0
  4 29  1  0
  4 30  1  0
  5 31  1  6
  7 32  1  0
  8 33  1  0
 11 34  1  0
 12 35  1  0
 13 36  1  0
 18 37  1  0
 19 38  1  0
 22 39  1  0
 23 40  1  0
 23 41  1  0
 24 42  1  0
 24 43  1  0
M  ISO  8  25  13  26  13  27  13  28  13  29  13  30  13  31  13  32  14
M  ISO  8  33  14  34  14  35  14  36  14  37  14  38  14  39  13  40  13
M  ISO  3  41  13  42  13  43  13
M  END
>  <minimizedAffinity>  (1) 
-5.45195055

>  <minimizedRMSD>  (1) 
0.17287752

$$$$
