
     RDKit          3D

 42 45  0  0  1  0  0  0  0  0999 V2000
   36.1880   20.4740   32.2370 N   0  0  0  0  0  0  0  0  0  0  0  0
   36.2360   19.0430   31.8500 C   0  0  0  0  0  0  0  0  0  0  0  0
   36.5670   18.9830   30.4110 C   0  0  0  0  0  0  0  0  0  0  0  0
   36.8180   20.4480   30.0740 C   0  0  0  0  0  0  0  0  0  0  0  0
   35.8430   21.1370   30.9790 C   0  0  2  0  0  0  0  0  0  0  0  0
   37.2310   21.7300   35.3910 C   0  0  0  0  0  0  0  0  0  0  0  0
   36.0330   21.1090   35.7320 C   0  0  0  0  0  0  0  0  0  0  0  0
   35.4990   20.5580   34.5600 C   0  0  0  0  0  0  0  0  0  0  0  0
   36.4440   20.8990   33.5760 C   0  0  0  0  0  0  0  0  0  0  0  0
   37.4000   21.5600   34.1020 O   0  0  0  0  0  0  0  0  0  0  0  0
   40.0560   22.7250   37.4630 C   0  0  0  0  0  0  0  0  0  0  0  0
   39.4840   23.5550   38.4230 C   0  0  0  0  0  0  0  0  0  0  0  0
   38.0990   23.7770   38.3570 C   0  0  0  0  0  0  0  0  0  0  0  0
   37.3600   23.1830   37.3690 N   0  0  0  0  0  0  0  0  0  0  0  0
   37.9760   22.3790   36.4540 C   0  0  0  0  0  0  0  0  0  0  0  0
   39.2980   22.1630   36.5120 N   0  0  0  0  0  0  0  0  0  0  0  0
   36.2060   22.5470   31.1150 C   0  0  0  0  0  0  0  0  0  0  0  0
   35.4360   23.5850   31.5120 C   0  0  0  0  0  0  0  0  0  0  0  0
   36.2330   24.7380   31.4560 C   0  0  0  0  0  0  0  0  0  0  0  0
   37.4620   24.3310   31.0210 N   0  0  0  0  0  0  0  0  0  0  0  0
   37.4440   23.0150   30.8160 N   0  0  0  0  0  0  0  0  0  0  0  0
   38.5920   25.2120   30.8200 C   0  0  0  0  0  0  0  0  0  0  0  0
   38.1820   26.6350   31.1350 C   0  0  0  0  0  0  0  0  0  0  0  0
   37.0078   18.5214   32.4350 H   0  0  0  0  0  0  0  0  0  0  0  0
   35.2693   18.5560   32.0459 H   0  0  0  0  0  0  0  0  0  0  0  0
   37.4657   18.3739   30.2340 H   0  0  0  0  0  0  0  0  0  0  0  0
   35.7812   18.5183   29.7973 H   0  0  0  0  0  0  0  0  0  0  0  0
   37.8535   20.7406   30.3024 H   0  0  0  0  0  0  0  0  0  0  0  0
   36.6883   20.6906   29.0090 H   0  0  0  0  0  0  0  0  0  0  0  0
   34.7925   21.0896   30.6563 H   0  0  0  0  0  0  0  0  0  0  0  0
   35.5876   21.0599   36.7366 H   0  0  0  0  0  0  0  0  0  0  0  0
   34.5631   19.9930   34.4383 H   0  0  0  0  0  0  0  0  0  0  0  0
   41.1382   22.5291   37.4854 H   0  0  0  0  0  0  0  0  0  0  0  0
   40.0971   24.0219   39.2079 H   0  0  0  0  0  0  0  0  0  0  0  0
   37.6089   24.4265   39.0972 H   0  0  0  0  0  0  0  0  0  0  0  0
   34.3815   23.5348   31.8212 H   0  0  0  0  0  0  0  0  0  0  0  0
   35.9291   25.7639   31.7112 H   0  0  0  0  0  0  0  0  0  0  0  0
   39.4148   24.9113   31.4853 H   0  0  0  0  0  0  0  0  0  0  0  0
   38.9259   25.1487   29.7738 H   0  0  0  0  0  0  0  0  0  0  0  0
   38.1424   26.7723   32.2257 H   0  0  0  0  0  0  0  0  0  0  0  0
   38.9159   27.3320   30.7041 H   0  0  0  0  0  0  0  0  0  0  0  0
   37.1898   26.8346   30.7041 H   0  0  0  0  0  0  0  0  0  0  0  0
  1  9  1  0
  2  1  1  0
  3  2  1  0
  4  3  1  0
  4  5  1  0
  5 17  1  0
  5  1  1  0
  6  7  2  0
  6 15  1  0
  8  7  1  0
  9 10  1  0
  9  8  2  0
 10  6  1  0
 11 12  2  0
 13 12  1  0
 14 13  2  0
 15 16  2  0
 15 14  1  0
 16 11  1  0
 17 18  1  0
 19 18  2  0
 20 19  1  0
 21 20  1  0
 21 17  2  0
 22 20  1  0
 22 23  1  0
  2 24  1  0
  2 25  1  0
  3 26  1  0
  3 27  1  0
  4 28  1  0
  4 29  1  0
  5 30  1  6
  7 31  1  0
  8 32  1  0
 11 33  1  0
 12 34  1  0
 13 35  1  0
 18 36  1  0
 19 37  1  0
 22 38  1  0
 22 39  1  0
 23 40  1  0
 23 41  1  0
 23 42  1  0
M  ISO  8  24  13  25  13  26  13  27  13  28  13  29  13  30  13  31  14
M  ISO  8  32  14  33  14  34  14  35  14  36  14  37  14  38   8  39   8
M  ISO  3  40   8  41   8  42   8
M  END
>  <minimizedAffinity>  (1) 
-5.34595013

>  <minimizedRMSD>  (1) 
0.0439668745

$$$$
