
     RDKit          3D

 17 17  0  0  0  0  0  0  0  0999 V2000
   40.0940   23.1670   36.6110 C   0  0  0  0  0  0  0  0  0  0  0  0
   39.3460   24.0760   35.8370 C   0  0  0  0  0  0  0  0  0  0  0  0
   38.2210   24.6650   36.4500 C   0  0  0  0  0  0  0  0  0  0  0  0
   37.9230   24.3330   37.7300 N   0  0  0  0  0  0  0  0  0  0  0  0
   38.6690   23.4550   38.4360 C   0  0  0  0  0  0  0  0  0  0  0  0
   39.7450   22.8780   37.8810 N   0  0  0  0  0  0  0  0  0  0  0  0
   37.4000   25.6000   35.7410 N   0  0  0  0  0  0  0  0  0  0  0  0
   37.8760   26.9250   35.5320 C   0  0  0  0  0  0  0  0  0  0  0  0
   38.7880   27.4450   36.2860 N   0  0  0  0  0  0  0  0  0  0  0  0
   37.2950   27.6410   34.4520 N   0  0  0  0  0  0  0  0  0  0  0  0
   39.1680   28.4030   36.1750 H   0  0  0  0  0  0  0  0  0  0  0  0
   40.9791   22.6841   36.1712 H   0  0  0  0  0  0  0  0  0  0  0  0
   39.6270   24.3155   34.8008 H   0  0  0  0  0  0  0  0  0  0  0  0
   38.3920   23.2120   39.4724 H   0  0  0  0  0  0  0  0  0  0  0  0
   36.4754   25.3168   35.3863 H   0  0  0  0  0  0  0  0  0  0  0  0
   37.5982   28.6045   34.2505 H   0  0  0  0  0  0  0  0  0  0  0  0
   36.5704   27.1968   33.8702 H   0  0  0  0  0  0  0  0  0  0  0  0
  1  6  2  0
  2  3  2  0
  2  1  1  0
  3  4  1  0
  4  5  2  0
  6  5  1  0
  7  3  1  0
  8  7  1  0
  8  9  2  0
 10  8  1  0
 11  9  1  0
  1 12  1  0
  2 13  1  0
  5 14  1  0
  7 15  1  0
 10 16  1  0
 10 17  1  0
M  ISO  3  12  14  13  14  14  14
M  END
>  <minimizedAffinity>  (1) 
-3.84750056

>  <minimizedRMSD>  (1) 
4.0850563

$$$$
