
     RDKit          3D

 29 29  0  0  0  0  0  0  0  0999 V2000
   37.9270   24.4740   38.6290 C   0  0  0  0  0  0  0  0  0  0  0  0
   38.6070   23.2420   38.5320 C   0  0  0  0  0  0  0  0  0  0  0  0
   39.3050   22.9880   37.3430 C   0  0  0  0  0  0  0  0  0  0  0  0
   39.2970   23.9210   36.3510 N   0  0  0  0  0  0  0  0  0  0  0  0
   38.6260   25.0940   36.4930 C   0  0  0  0  0  0  0  0  0  0  0  0
   37.9560   25.3530   37.6170 N   0  0  0  0  0  0  0  0  0  0  0  0
   40.0250   21.7580   37.1620 N   0  0  0  0  0  0  0  0  0  0  0  0
   41.4380   21.7770   37.1400 C   0  0  0  0  0  0  0  0  0  0  0  0
   42.0980   22.8410   36.8610 N   0  0  0  0  0  0  0  0  0  0  0  0
   42.0920   20.5440   37.4460 N   0  0  0  0  0  0  0  0  0  0  0  0
   43.1330   22.9140   36.8310 H   0  0  0  0  0  0  0  0  0  0  0  0
   38.7580   25.9570   35.2840 C   0  0  0  0  0  0  0  0  0  0  0  0
   40.1920   26.0150   34.7940 C   0  0  0  0  0  0  0  0  0  0  0  0
   37.8770   25.4180   34.1720 C   0  0  0  0  0  0  0  0  0  0  0  0
   38.2890   27.3620   35.5830 C   0  0  0  0  0  0  0  0  0  0  0  0
   37.3671   24.7161   39.5444 H   0  0  0  0  0  0  0  0  0  0  0  0
   38.5903   22.5116   39.3543 H   0  0  0  0  0  0  0  0  0  0  0  0
   39.5157   20.8698   37.0492 H   0  0  0  0  0  0  0  0  0  0  0  0
   43.1207   20.4930   37.4465 H   0  0  0  0  0  0  0  0  0  0  0  0
   41.5347   19.7062   37.6661 H   0  0  0  0  0  0  0  0  0  0  0  0
   40.8735   26.0426   35.6570 H   0  0  0  0  0  0  0  0  0  0  0  0
   40.4076   25.1248   34.1848 H   0  0  0  0  0  0  0  0  0  0  0  0
   40.3350   26.9197   34.1848 H   0  0  0  0  0  0  0  0  0  0  0  0
   37.0159   24.8912   34.6091 H   0  0  0  0  0  0  0  0  0  0  0  0
   37.5195   26.2522   33.5504 H   0  0  0  0  0  0  0  0  0  0  0  0
   38.4570   24.7199   33.5504 H   0  0  0  0  0  0  0  0  0  0  0  0
   38.2402   27.5083   36.6721 H   0  0  0  0  0  0  0  0  0  0  0  0
   38.9946   28.0846   35.1473 H   0  0  0  0  0  0  0  0  0  0  0  0
   37.2908   27.5159   35.1473 H   0  0  0  0  0  0  0  0  0  0  0  0
  2  1  2  0
  3  2  1  0
  4  5  1  0
  4  3  2  0
  5  6  2  0
  6  1  1  0
  7  3  1  0
  8  7  1  0
  8 10  1  0
  9  8  2  0
 11  9  1  0
 12 15  1  0
 12  5  1  0
 13 12  1  0
 14 12  1  0
  1 16  1  0
  2 17  1  0
  7 18  1  0
 10 19  1  0
 10 20  1  0
 13 21  1  0
 13 22  1  0
 13 23  1  0
 14 24  1  0
 14 25  1  0
 14 26  1  0
 15 27  1  0
 15 28  1  0
 15 29  1  0
M  ISO  8  16  14  17  14  21   8  22   8  23   8  24   8  25   8  26   8
M  ISO  3  27   8  28   8  29   8
M  END
>  <minimizedAffinity>  (1) 
-4.6550169

>  <minimizedRMSD>  (1) 
5.23659182

$$$$
