
     RDKit          3D

 26 26  0  0  0  0  0  0  0  0999 V2000
   39.9820   23.9420   33.8480 C   0  0  0  0  0  0  0  0  0  0  0  0
   39.0360   24.9650   33.7150 C   0  0  0  0  0  0  0  0  0  0  0  0
   38.2020   25.2130   34.8120 C   0  0  0  0  0  0  0  0  0  0  0  0
   38.3490   24.4640   35.9250 N   0  0  0  0  0  0  0  0  0  0  0  0
   39.2710   23.4800   36.0280 C   0  0  0  0  0  0  0  0  0  0  0  0
   40.0850   23.2250   34.9810 N   0  0  0  0  0  0  0  0  0  0  0  0
   37.1960   26.2420   34.7830 N   0  0  0  0  0  0  0  0  0  0  0  0
   37.5270   27.5480   35.2650 C   0  0  0  0  0  0  0  0  0  0  0  0
   38.4940   27.7300   36.1060 N   0  0  0  0  0  0  0  0  0  0  0  0
   36.7450   28.6180   34.7760 N   0  0  0  0  0  0  0  0  0  0  0  0
   38.7750   28.6540   36.4940 H   0  0  0  0  0  0  0  0  0  0  0  0
   39.4050   22.6710   37.2760 C   0  0  0  0  0  0  0  0  0  0  0  0
   38.8050   23.4170   38.4480 C   0  0  0  0  0  0  0  0  0  0  0  0
   40.8520   22.3720   37.5910 C   0  0  0  0  0  0  0  0  0  0  0  0
   40.6559   23.7197   33.0075 H   0  0  0  0  0  0  0  0  0  0  0  0
   38.9513   25.5498   32.7872 H   0  0  0  0  0  0  0  0  0  0  0  0
   36.2528   26.0414   34.4210 H   0  0  0  0  0  0  0  0  0  0  0  0
   36.9371   29.5807   35.0877 H   0  0  0  0  0  0  0  0  0  0  0  0
   35.9828   28.4354   34.1077 H   0  0  0  0  0  0  0  0  0  0  0  0
   38.8712   21.7238   37.1093 H   0  0  0  0  0  0  0  0  0  0  0  0
   39.1630   22.9719   39.3881 H   0  0  0  0  0  0  0  0  0  0  0  0
   39.1078   24.4736   38.4039 H   0  0  0  0  0  0  0  0  0  0  0  0
   37.7081   23.3478   38.4039 H   0  0  0  0  0  0  0  0  0  0  0  0
   40.9914   22.3432   38.6817 H   0  0  0  0  0  0  0  0  0  0  0  0
   41.1273   21.3980   37.1603 H   0  0  0  0  0  0  0  0  0  0  0  0
   41.4908   23.1571   37.1603 H   0  0  0  0  0  0  0  0  0  0  0  0
  1  6  2  0
  2  1  1  0
  2  3  2  0
  3  4  1  0
  4  5  2  0
  5 12  1  0
  6  5  1  0
  7  3  1  0
  7  8  1  0
  8  9  2  0
  9 11  1  0
 10  8  1  0
 12 14  1  0
 12 13  1  0
  1 15  1  0
  2 16  1  0
  7 17  1  0
 10 18  1  0
 10 19  1  0
 12 20  1  0
 13 21  1  0
 13 22  1  0
 13 23  1  0
 14 24  1  0
 14 25  1  0
 14 26  1  0
M  ISO  8  15  14  16  14  20   8  21   8  22   8  23   8  24   8  25   8
M  ISO  1  26   8
M  END
>  <minimizedAffinity>  (1) 
-3.9232626

>  <minimizedRMSD>  (1) 
2.34878349

$$$$
