
     RDKit          3D

 15 15  0  0  0  0  0  0  0  0999 V2000
   40.4740   22.3960   37.7010 C   0  0  0  0  0  0  0  0  0  0  0  0
   39.2960   23.1230   37.4360 C   0  0  0  0  0  0  0  0  0  0  0  0
   38.9510   23.3040   36.1000 C   0  0  0  0  0  0  0  0  0  0  0  0
   39.7330   22.7940   35.1160 N   0  0  0  0  0  0  0  0  0  0  0  0
   40.8720   22.0940   35.4380 C   0  0  0  0  0  0  0  0  0  0  0  0
   41.2200   21.9080   36.7070 N   0  0  0  0  0  0  0  0  0  0  0  0
   38.4130   23.6970   38.4990 C   0  0  0  0  0  0  0  0  0  0  0  0
   39.2210   23.8600   39.6160 F   0  0  0  0  0  0  0  0  0  0  0  0
   37.3850   22.8720   38.8170 F   0  0  0  0  0  0  0  0  0  0  0  0
   38.0020   24.9760   38.1560 F   0  0  0  0  0  0  0  0  0  0  0  0
   41.7420   21.5280   34.4130 C   0  0  0  0  0  0  0  0  0  0  0  0
   42.5560   20.5820   34.6480 O   0  0  0  0  0  0  0  0  0  0  0  0
   40.7836   22.2280   38.7431 H   0  0  0  0  0  0  0  0  0  0  0  0
   38.0399   23.8632   35.8408 H   0  0  0  0  0  0  0  0  0  0  0  0
   41.6908   21.9379   33.3935 H   0  0  0  0  0  0  0  0  0  0  0  0
  2  1  2  0
  2  7  1  0
  3  2  1  0
  4  5  1  0
  4  3  2  0
  5  6  2  0
  6  1  1  0
  7  9  1  0
  7  8  1  0
 10  7  1  0
 11 12  2  0
 11  5  1  0
  1 13  1  0
  3 14  1  0
 11 15  1  0
M  ISO  3  13  14  14  14  15   6
M  END
>  <minimizedAffinity>  (1) 
-3.76329517

>  <minimizedRMSD>  (1) 
0.367926806

$$$$
