
     RDKit          3D

 25 26  0  0  0  0  0  0  0  0999 V2000
   38.0460   24.6330   35.9390 C   0  0  0  0  0  0  0  0  0  0  0  0
   39.3390   24.2390   35.6030 C   0  0  0  0  0  0  0  0  0  0  0  0
   39.9790   24.8880   34.5450 C   0  0  0  0  0  0  0  0  0  0  0  0
   39.3060   25.8730   33.8960 N   0  0  0  0  0  0  0  0  0  0  0  0
   38.0560   26.2370   34.2390 C   0  0  0  0  0  0  0  0  0  0  0  0
   37.4310   25.6290   35.2440 N   0  0  0  0  0  0  0  0  0  0  0  0
   41.3060   24.5490   34.1310 N   0  0  0  0  0  0  0  0  0  0  0  0
   42.3890   25.3900   34.5220 C   0  0  0  0  0  0  0  0  0  0  0  0
   42.2010   26.6320   34.8330 N   0  0  0  0  0  0  0  0  0  0  0  0
   43.6810   24.7820   34.5500 N   0  0  0  0  0  0  0  0  0  0  0  0
   42.9490   27.2910   35.1010 H   0  0  0  0  0  0  0  0  0  0  0  0
   40.0640   23.1840   36.2950 C   0  0  0  0  0  0  0  0  0  0  0  0
   40.0070   22.9910   37.6110 N   0  0  0  0  0  0  0  0  0  0  0  0
   40.7550   21.9780   37.9470 O   0  0  0  0  0  0  0  0  0  0  0  0
   41.3100   21.4970   36.8560 C   0  0  0  0  0  0  0  0  0  0  0  0
   40.8860   22.2440   35.8010 N   0  0  0  0  0  0  0  0  0  0  0  0
   37.3620   27.3310   33.4880 C   0  0  0  0  0  0  0  0  0  0  0  0
   36.9140   28.2410   34.4020 F   0  0  0  0  0  0  0  0  0  0  0  0
   38.1800   27.9260   32.5890 F   0  0  0  0  0  0  0  0  0  0  0  0
   36.2550   26.8010   32.7940 F   0  0  0  0  0  0  0  0  0  0  0  0
   37.5201   24.1378   36.7686 H   0  0  0  0  0  0  0  0  0  0  0  0
   41.4765   23.7097   33.5589 H   0  0  0  0  0  0  0  0  0  0  0  0
   44.5050   25.3359   34.8241 H   0  0  0  0  0  0  0  0  0  0  0  0
   43.7888   23.7896   34.2961 H   0  0  0  0  0  0  0  0  0  0  0  0
   41.9975   20.6398   36.8053 H   0  0  0  0  0  0  0  0  0  0  0  0
  2  1  2  0
  2 12  1  0
  3  2  1  0
  4  5  1  0
  4  3  2  0
  5  6  2  0
  6  1  1  0
  7  8  1  0
  7  3  1  0
  8 10  1  0
  8  9  2  0
  9 11  1  0
 12 13  2  0
 13 14  1  0
 15 14  1  0
 16 12  1  0
 16 15  2  0
 17  5  1  0
 17 18  1  0
 19 17  1  0
 20 17  1  0
  1 21  1  0
  7 22  1  0
 10 23  1  0
 10 24  1  0
 15 25  1  0
M  ISO  2  21  14  25  14
M  END
>  <minimizedAffinity>  (1) 
-4.46812105

>  <minimizedRMSD>  (1) 
3.68166184

$$$$
