
     RDKit          3D

 27 28  0  0  0  0  0  0  0  0999 V2000
   37.7920   26.7780   35.1900 C   0  0  0  0  0  0  0  0  0  0  0  0
   37.7390   25.7800   34.2180 C   0  0  0  0  0  0  0  0  0  0  0  0
   36.9890   26.0400   33.0720 C   0  0  0  0  0  0  0  0  0  0  0  0
   36.3560   27.2370   32.9580 N   0  0  0  0  0  0  0  0  0  0  0  0
   36.4380   28.1740   33.9260 C   0  0  0  0  0  0  0  0  0  0  0  0
   37.1510   27.9390   35.0290 N   0  0  0  0  0  0  0  0  0  0  0  0
   36.8540   25.1000   32.0020 N   0  0  0  0  0  0  0  0  0  0  0  0
   37.6450   25.2820   30.8260 C   0  0  0  0  0  0  0  0  0  0  0  0
   38.1120   26.4350   30.4810 N   0  0  0  0  0  0  0  0  0  0  0  0
   37.8870   24.0970   30.0530 N   0  0  0  0  0  0  0  0  0  0  0  0
   38.6510   26.6240   29.6310 H   0  0  0  0  0  0  0  0  0  0  0  0
   38.4380   24.5170   34.3930 C   0  0  0  0  0  0  0  0  0  0  0  0
   39.8040   24.3940   34.1390 C   0  0  0  0  0  0  0  0  0  0  0  0
   40.2280   23.1390   34.3700 N   0  0  0  0  0  0  0  0  0  0  0  0
   39.1720   22.4500   34.7660 C   0  0  0  0  0  0  0  0  0  0  0  0
   38.1320   23.2690   34.7750 N   0  0  0  0  0  0  0  0  0  0  0  0
   35.7270   29.4860   33.7720 C   0  0  0  0  0  0  0  0  0  0  0  0
   35.9810   30.2280   34.8920 F   0  0  0  0  0  0  0  0  0  0  0  0
   36.1490   30.1510   32.6540 F   0  0  0  0  0  0  0  0  0  0  0  0
   34.3410   29.2750   33.6410 F   0  0  0  0  0  0  0  0  0  0  0  0
   38.3733   26.6060   36.1079 H   0  0  0  0  0  0  0  0  0  0  0  0
   36.1998   24.3080   32.0778 H   0  0  0  0  0  0  0  0  0  0  0  0
   38.4493   24.1499   29.1916 H   0  0  0  0  0  0  0  0  0  0  0  0
   37.4984   23.1938   30.3597 H   0  0  0  0  0  0  0  0  0  0  0  0
   40.4495   25.2156   33.7950 H   0  0  0  0  0  0  0  0  0  0  0  0
   39.1595   21.3847   35.0397 H   0  0  0  0  0  0  0  0  0  0  0  0
   37.1829   22.9767   35.0481 H   0  0  0  0  0  0  0  0  0  0  0  0
  2 12  1  0
  2  1  2  0
  3  2  1  0
  4  3  2  0
  4  5  1  0
  5  6  2  0
  6  1  1  0
  7  3  1  0
  8  7  1  0
  9  8  2  0
 10  8  1  0
 11  9  1  0
 12 16  1  0
 13 14  1  0
 13 12  2  0
 14 15  2  0
 15 16  1  0
 17  5  1  0
 17 18  1  0
 19 17  1  0
 20 17  1  0
  1 21  1  0
  7 22  1  0
 10 23  1  0
 10 24  1  0
 13 25  1  0
 15 26  1  0
 16 27  1  0
M  ISO  4  21  14  25  14  26  14  27   9
M  END
>  <minimizedAffinity>  (1) 
-4.38627481

>  <minimizedRMSD>  (1) 
6.17055178

$$$$
