
     RDKit          3D

 28 29  0  0  0  0  0  0  0  0999 V2000
   38.3660   26.6170   34.0730 C   0  0  0  0  0  0  0  0  0  0  0  0
   37.9170   25.3090   33.7860 C   0  0  0  0  0  0  0  0  0  0  0  0
   37.1490   25.1480   32.6420 C   0  0  0  0  0  0  0  0  0  0  0  0
   36.8810   26.2330   31.8790 N   0  0  0  0  0  0  0  0  0  0  0  0
   37.3250   27.4620   32.1810 C   0  0  0  0  0  0  0  0  0  0  0  0
   38.0630   27.6470   33.2730 N   0  0  0  0  0  0  0  0  0  0  0  0
   36.6350   23.8800   32.2510 N   0  0  0  0  0  0  0  0  0  0  0  0
   37.2820   23.1520   31.2010 C   0  0  0  0  0  0  0  0  0  0  0  0
   37.9820   23.7590   30.3060 N   0  0  0  0  0  0  0  0  0  0  0  0
   37.1010   21.7320   31.2170 N   0  0  0  0  0  0  0  0  0  0  0  0
   38.4820   23.2820   29.5300 H   0  0  0  0  0  0  0  0  0  0  0  0
   38.3100   24.2780   34.7200 C   0  0  0  0  0  0  0  0  0  0  0  0
   38.0990   24.1760   36.0640 C   0  0  0  0  0  0  0  0  0  0  0  0
   38.5060   23.1580   36.8810 C   0  0  0  0  0  0  0  0  0  0  0  0
   39.1950   22.1230   36.3360 N   0  0  0  0  0  0  0  0  0  0  0  0
   39.4250   22.1880   35.0090 C   0  0  0  0  0  0  0  0  0  0  0  0
   38.9970   23.2150   34.2690 N   0  0  0  0  0  0  0  0  0  0  0  0
   36.9980   28.6310   31.3040 C   0  0  0  0  0  0  0  0  0  0  0  0
   38.1340   28.9730   30.6270 F   0  0  0  0  0  0  0  0  0  0  0  0
   35.9950   28.3300   30.4260 F   0  0  0  0  0  0  0  0  0  0  0  0
   36.5750   29.7180   32.0960 F   0  0  0  0  0  0  0  0  0  0  0  0
   38.9764   26.7929   34.9711 H   0  0  0  0  0  0  0  0  0  0  0  0
   35.8049   23.4892   32.7190 H   0  0  0  0  0  0  0  0  0  0  0  0
   37.5395   21.1487   30.4901 H   0  0  0  0  0  0  0  0  0  0  0  0
   36.5323   21.2936   31.9555 H   0  0  0  0  0  0  0  0  0  0  0  0
   37.5439   24.9980   36.5397 H   0  0  0  0  0  0  0  0  0  0  0  0
   38.2799   23.1772   37.9573 H   0  0  0  0  0  0  0  0  0  0  0  0
   39.9804   21.3729   34.5220 H   0  0  0  0  0  0  0  0  0  0  0  0
  2  1  2  0
  2 12  1  0
  3  2  1  0
  4  5  1  0
  4  3  2  0
  5  6  2  0
  6  1  1  0
  7  3  1  0
  8 10  1  0
  8  7  1  0
  9  8  2  0
 11  9  1  0
 12 13  2  0
 13 14  1  0
 15 14  2  0
 16 15  1  0
 17 12  1  0
 17 16  2  0
 18 21  1  0
 18  5  1  0
 19 18  1  0
 20 18  1  0
  1 22  1  0
  7 23  1  0
 10 24  1  0
 10 25  1  0
 13 26  1  0
 14 27  1  0
 16 28  1  0
M  ISO  4  22  14  26  14  27  14  28  14
M  END
>  <minimizedAffinity>  (1) 
-4.36185122

>  <minimizedRMSD>  (1) 
5.94733477

$$$$
