
     RDKit          3D

 32 32  0  0  0  0  0  0  0  0999 V2000
   37.8120   26.0630   36.0850 C   0  0  0  0  0  0  0  0  0  0  0  0
   38.0850   24.7290   35.7070 C   0  0  0  0  0  0  0  0  0  0  0  0
   37.9630   24.4270   34.3500 C   0  0  0  0  0  0  0  0  0  0  0  0
   37.5950   25.3960   33.4680 N   0  0  0  0  0  0  0  0  0  0  0  0
   37.3430   26.6640   33.8850 C   0  0  0  0  0  0  0  0  0  0  0  0
   37.4530   26.9840   35.1790 N   0  0  0  0  0  0  0  0  0  0  0  0
   38.2100   23.1190   33.8330 N   0  0  0  0  0  0  0  0  0  0  0  0
   39.4600   22.8320   33.2090 C   0  0  0  0  0  0  0  0  0  0  0  0
   40.1670   23.7850   32.6590 N   0  0  0  0  0  0  0  0  0  0  0  0
   39.9190   21.4870   33.2000 N   0  0  0  0  0  0  0  0  0  0  0  0
   41.0550   23.6570   32.1570 H   0  0  0  0  0  0  0  0  0  0  0  0
   36.9420   27.7140   32.8980 C   0  0  0  0  0  0  0  0  0  0  0  0
   36.4540   28.7830   33.6300 F   0  0  0  0  0  0  0  0  0  0  0  0
   37.9910   28.1220   32.1480 F   0  0  0  0  0  0  0  0  0  0  0  0
   35.9360   27.2290   32.0560 F   0  0  0  0  0  0  0  0  0  0  0  0
   38.4830   23.6850   36.6690 C   0  0  0  0  0  0  0  0  0  0  0  0
   39.8960   23.2270   36.5860 C   0  0  0  0  0  0  0  0  0  0  0  0
   37.6070   22.4800   36.3820 C   0  0  0  0  0  0  0  0  0  0  0  0
   38.1120   24.1390   38.0680 C   0  0  0  0  0  0  0  0  0  0  0  0
   37.8956   26.3515   37.1432 H   0  0  0  0  0  0  0  0  0  0  0  0
   37.4895   22.3870   33.9103 H   0  0  0  0  0  0  0  0  0  0  0  0
   40.8184   21.2527   32.7560 H   0  0  0  0  0  0  0  0  0  0  0  0
   39.3523   20.7465   33.6375 H   0  0  0  0  0  0  0  0  0  0  0  0
   40.2993   23.0963   37.6010 H   0  0  0  0  0  0  0  0  0  0  0  0
   39.9398   22.2687   36.0478 H   0  0  0  0  0  0  0  0  0  0  0  0
   40.4937   23.9774   36.0478 H   0  0  0  0  0  0  0  0  0  0  0  0
   37.2799   22.0301   37.3310 H   0  0  0  0  0  0  0  0  0  0  0  0
   36.7265   22.7962   35.8035 H   0  0  0  0  0  0  0  0  0  0  0  0
   38.1794   21.7400   35.8035 H   0  0  0  0  0  0  0  0  0  0  0  0
   38.6276   23.5081   38.8070 H   0  0  0  0  0  0  0  0  0  0  0  0
   38.4152   25.1874   38.2057 H   0  0  0  0  0  0  0  0  0  0  0  0
   37.0242   24.0507   38.2057 H   0  0  0  0  0  0  0  0  0  0  0  0
  2  1  2  0
  2 16  1  0
  3  2  1  0
  4  5  1  0
  4  3  2  0
  5  6  2  0
  6  1  1  0
  7  3  1  0
  8  7  1  0
  9  8  2  0
 10  8  1  0
 11  9  1  0
 12 13  1  0
 12  5  1  0
 14 12  1  0
 15 12  1  0
 16 19  1  0
 17 16  1  0
 18 16  1  0
  1 20  1  0
  7 21  1  0
 10 22  1  0
 10 23  1  0
 17 24  1  0
 17 25  1  0
 17 26  1  0
 18 27  1  0
 18 28  1  0
 18 29  1  0
 19 30  1  0
 19 31  1  0
 19 32  1  0
M  ISO  8  20  14  24   8  25   8  26   8  27   8  28   8  29   8  30   8
M  ISO  2  31   8  32   8
M  END
>  <minimizedAffinity>  (1) 
-4.3135848

>  <minimizedRMSD>  (1) 
3.70044494

$$$$
