
     RDKit          3D

 27 28  0  0  0  0  0  0  0  0999 V2000
   38.2380   24.4770   35.8590 C   0  0  0  0  0  0  0  0  0  0  0  0
   39.5540   24.1380   35.5140 C   0  0  0  0  0  0  0  0  0  0  0  0
   40.1640   24.8490   34.4680 C   0  0  0  0  0  0  0  0  0  0  0  0
   39.4690   25.8130   33.8470 N   0  0  0  0  0  0  0  0  0  0  0  0
   38.1960   26.1220   34.1980 C   0  0  0  0  0  0  0  0  0  0  0  0
   37.5910   25.4620   35.1900 N   0  0  0  0  0  0  0  0  0  0  0  0
   41.5070   24.5510   34.0690 N   0  0  0  0  0  0  0  0  0  0  0  0
   42.5510   25.4290   34.4830 C   0  0  0  0  0  0  0  0  0  0  0  0
   42.3240   26.6530   34.8070 N   0  0  0  0  0  0  0  0  0  0  0  0
   43.8680   24.8630   34.5130 N   0  0  0  0  0  0  0  0  0  0  0  0
   43.0460   27.3430   35.0810 H   0  0  0  0  0  0  0  0  0  0  0  0
   40.2640   23.1080   36.1950 N   0  0  0  0  0  0  0  0  0  0  0  0
   40.5150   22.8270   37.5050 C   0  0  0  0  0  0  0  0  0  0  0  0
   41.2760   21.6700   37.5410 C   0  0  0  0  0  0  0  0  0  0  0  0
   41.4890   21.2460   36.2760 N   0  0  0  0  0  0  0  0  0  0  0  0
   40.8730   22.1240   35.4710 C   0  0  0  0  0  0  0  0  0  0  0  0
   37.4580   27.2060   33.4780 C   0  0  0  0  0  0  0  0  0  0  0  0
   37.0130   28.0990   34.4180 F   0  0  0  0  0  0  0  0  0  0  0  0
   38.2600   27.8320   32.5650 F   0  0  0  0  0  0  0  0  0  0  0  0
   36.3560   26.6570   32.7910 F   0  0  0  0  0  0  0  0  0  0  0  0
   37.7295   23.9421   36.6747 H   0  0  0  0  0  0  0  0  0  0  0  0
   41.7138   23.7207   33.4956 H   0  0  0  0  0  0  0  0  0  0  0  0
   44.6702   25.4405   34.8025 H   0  0  0  0  0  0  0  0  0  0  0  0
   44.0119   23.8789   34.2450 H   0  0  0  0  0  0  0  0  0  0  0  0
   40.1759   23.4111   38.3732 H   0  0  0  0  0  0  0  0  0  0  0  0
   41.6466   21.1766   38.4516 H   0  0  0  0  0  0  0  0  0  0  0  0
   40.8602   22.0598   34.3730 H   0  0  0  0  0  0  0  0  0  0  0  0
  2  1  2  0
  2 12  1  0
  3  2  1  0
  4  5  1  0
  4  3  2  0
  5  6  2  0
  6  1  1  0
  7  3  1  0
  7  8  1  0
  8 10  1  0
  8  9  2  0
  9 11  1  0
 12 13  1  0
 13 14  2  0
 15 14  1  0
 16 12  1  0
 16 15  2  0
 17  5  1  0
 17 18  1  0
 19 17  1  0
 20 17  1  0
  1 21  1  0
  7 22  1  0
 10 23  1  0
 10 24  1  0
 13 25  1  0
 14 26  1  0
 16 27  1  0
M  ISO  4  21  14  25  14  26  14  27  14
M  END
>  <minimizedAffinity>  (1) 
-4.19883823

>  <minimizedRMSD>  (1) 
3.78810906

$$$$
