
     RDKit          3D

 35 37  0  0  0  0  0  0  0  0999 V2000
   38.1070   24.6950   35.8310 C   0  0  0  0  0  0  0  0  0  0  0  0
   39.4220   24.4070   35.4550 C   0  0  0  0  0  0  0  0  0  0  0  0
   39.9740   25.1020   34.3910 C   0  0  0  0  0  0  0  0  0  0  0  0
   39.2320   26.0270   33.7580 N   0  0  0  0  0  0  0  0  0  0  0  0
   37.9640   26.2930   34.1350 C   0  0  0  0  0  0  0  0  0  0  0  0
   37.4080   25.6450   35.1490 N   0  0  0  0  0  0  0  0  0  0  0  0
   41.3240   24.8440   33.9610 N   0  0  0  0  0  0  0  0  0  0  0  0
   42.3420   25.7510   34.3090 C   0  0  0  0  0  0  0  0  0  0  0  0
   42.0860   26.9800   34.5910 N   0  0  0  0  0  0  0  0  0  0  0  0
   43.6770   25.2600   34.3370 N   0  0  0  0  0  0  0  0  0  0  0  0
   42.7760   27.7030   34.8760 H   0  0  0  0  0  0  0  0  0  0  0  0
   40.1690   23.4140   36.1580 N   0  0  0  0  0  0  0  0  0  0  0  0
   39.8560   22.8740   37.3420 C   0  0  0  0  0  0  0  0  0  0  0  0
   40.7880   21.9710   37.7030 N   0  0  0  0  0  0  0  0  0  0  0  0
   41.7000   21.9540   36.7150 C   0  0  0  0  0  0  0  0  0  0  0  0
   41.2820   22.8630   35.7720 N   0  0  0  0  0  0  0  0  0  0  0  0
   42.9310   21.1380   36.6050 C   0  0  0  0  0  0  0  0  0  0  0  0
   42.8980   19.8760   37.1640 C   0  0  0  0  0  0  0  0  0  0  0  0
   44.0620   19.1160   37.0570 C   0  0  0  0  0  0  0  0  0  0  0  0
   45.1410   19.6800   36.4060 C   0  0  0  0  0  0  0  0  0  0  0  0
   45.1610   20.9430   35.8510 C   0  0  0  0  0  0  0  0  0  0  0  0
   44.0140   21.6720   35.9670 N   0  0  0  0  0  0  0  0  0  0  0  0
   37.1640   27.3340   33.4050 C   0  0  0  0  0  0  0  0  0  0  0  0
   36.5980   28.1550   34.3420 F   0  0  0  0  0  0  0  0  0  0  0  0
   37.9500   28.0560   32.5540 F   0  0  0  0  0  0  0  0  0  0  0  0
   36.1620   26.7290   32.6410 F   0  0  0  0  0  0  0  0  0  0  0  0
   37.6403   24.1591   36.6706 H   0  0  0  0  0  0  0  0  0  0  0  0
   41.5420   24.0049   33.4049 H   0  0  0  0  0  0  0  0  0  0  0  0
   44.4524   25.8903   34.5866 H   0  0  0  0  0  0  0  0  0  0  0  0
   43.8681   24.2742   34.1076 H   0  0  0  0  0  0  0  0  0  0  0  0
   38.9658   23.1307   37.9349 H   0  0  0  0  0  0  0  0  0  0  0  0
   41.9996   19.4900   37.6679 H   0  0  0  0  0  0  0  0  0  0  0  0
   44.1188   18.1010   37.4772 H   0  0  0  0  0  0  0  0  0  0  0  0
   46.0561   19.0752   36.3234 H   0  0  0  0  0  0  0  0  0  0  0  0
   46.0524   21.3400   35.3432 H   0  0  0  0  0  0  0  0  0  0  0  0
  2  1  2  0
  2 12  1  0
  3  2  1  0
  4  5  1  0
  4  3  2  0
  5  6  2  0
  6  1  1  0
  7  8  1  0
  7  3  1  0
  8 10  1  0
  8  9  2  0
  9 11  1  0
 12 13  1  0
 13 14  2  0
 15 14  1  0
 16 12  1  0
 16 15  2  0
 17 15  1  0
 17 18  2  0
 19 18  1  0
 20 19  2  0
 21 22  2  0
 21 20  1  0
 22 17  1  0
 23  5  1  0
 23 24  1  0
 25 23  1  0
 26 23  1  0
  1 27  1  0
  7 28  1  0
 10 29  1  0
 10 30  1  0
 13 31  1  0
 18 32  1  0
 19 33  1  0
 20 34  1  0
 21 35  1  0
M  ISO  6  27  14  31  14  32  14  33  14  34  14  35  14
M  END
>  <minimizedAffinity>  (1) 
-5.25429153

>  <minimizedRMSD>  (1) 
0.873440742

$$$$
