
     RDKit          3D

 33 35  0  0  0  0  0  0  0  0999 V2000
   38.2760   24.2190   36.0090 C   0  0  0  0  0  0  0  0  0  0  0  0
   39.5900   23.9890   35.6130 C   0  0  0  0  0  0  0  0  0  0  0  0
   40.1150   24.7310   34.5630 C   0  0  0  0  0  0  0  0  0  0  0  0
   39.3230   25.6540   33.9610 N   0  0  0  0  0  0  0  0  0  0  0  0
   38.0490   25.8550   34.3690 C   0  0  0  0  0  0  0  0  0  0  0  0
   37.5390   25.1610   35.3610 N   0  0  0  0  0  0  0  0  0  0  0  0
   41.4560   24.5390   34.1140 N   0  0  0  0  0  0  0  0  0  0  0  0
   42.4580   25.4780   34.4810 C   0  0  0  0  0  0  0  0  0  0  0  0
   42.1600   26.6870   34.8000 N   0  0  0  0  0  0  0  0  0  0  0  0
   43.8070   25.0340   34.4820 N   0  0  0  0  0  0  0  0  0  0  0  0
   42.8200   27.4340   35.1160 H   0  0  0  0  0  0  0  0  0  0  0  0
   40.3850   23.0070   36.2760 N   0  0  0  0  0  0  0  0  0  0  0  0
   40.2760   22.6380   37.5700 C   0  0  0  0  0  0  0  0  0  0  0  0
   41.1820   21.6860   37.8630 N   0  0  0  0  0  0  0  0  0  0  0  0
   41.8620   21.4690   36.7220 C   0  0  0  0  0  0  0  0  0  0  0  0
   41.3500   22.2990   35.7530 N   0  0  0  0  0  0  0  0  0  0  0  0
   42.9210   20.5280   36.5960 N   0  0  0  0  0  0  0  0  0  0  0  0
   44.0850   20.9410   36.1120 N   0  0  0  0  0  0  0  0  0  0  0  0
   44.9750   19.9490   36.0540 C   0  0  0  0  0  0  0  0  0  0  0  0
   44.3350   18.8250   36.5340 C   0  0  0  0  0  0  0  0  0  0  0  0
   43.0360   19.2130   36.8710 C   0  0  0  0  0  0  0  0  0  0  0  0
   37.2050   26.8910   33.6720 C   0  0  0  0  0  0  0  0  0  0  0  0
   36.4720   27.5360   34.6160 F   0  0  0  0  0  0  0  0  0  0  0  0
   37.9740   27.7870   32.9800 F   0  0  0  0  0  0  0  0  0  0  0  0
   36.3500   26.2650   32.7350 F   0  0  0  0  0  0  0  0  0  0  0  0
   37.8374   23.6445   36.8382 H   0  0  0  0  0  0  0  0  0  0  0  0
   41.6959   23.7263   33.5285 H   0  0  0  0  0  0  0  0  0  0  0  0
   44.5628   25.6837   34.7419 H   0  0  0  0  0  0  0  0  0  0  0  0
   44.0296   24.0623   34.2228 H   0  0  0  0  0  0  0  0  0  0  0  0
   39.5503   23.0556   38.2834 H   0  0  0  0  0  0  0  0  0  0  0  0
   46.0127   20.0142   35.6949 H   0  0  0  0  0  0  0  0  0  0  0  0
   44.7648   17.8173   36.6324 H   0  0  0  0  0  0  0  0  0  0  0  0
   42.2503   18.5641   37.2852 H   0  0  0  0  0  0  0  0  0  0  0  0
  2  1  2  0
  2 12  1  0
  3  2  1  0
  4  5  1  0
  4  3  2  0
  5  6  2  0
  6  1  1  0
  7  8  1  0
  7  3  1  0
  8 10  1  0
  8  9  2  0
  9 11  1  0
 12 13  1  0
 13 14  2  0
 15 14  1  0
 16 12  1  0
 16 15  2  0
 17 15  1  0
 17 21  1  0
 18 17  1  0
 19 18  2  0
 19 20  1  0
 20 21  2  0
 22  5  1  0
 22 23  1  0
 24 22  1  0
 25 22  1  0
  1 26  1  0
  7 27  1  0
 10 28  1  0
 10 29  1  0
 13 30  1  0
 19 31  1  0
 20 32  1  0
 21 33  1  0
M  ISO  5  26  14  30  14  31  14  32  14  33  14
M  END
>  <minimizedAffinity>  (1) 
-5.04328632

>  <minimizedRMSD>  (1) 
0.314919531

$$$$
