
     RDKit          3D

 33 35  0  0  0  0  0  0  0  0999 V2000
   38.1110   24.6460   35.8600 C   0  0  0  0  0  0  0  0  0  0  0  0
   39.4240   24.3290   35.5060 C   0  0  0  0  0  0  0  0  0  0  0  0
   40.0020   25.0100   34.4400 C   0  0  0  0  0  0  0  0  0  0  0  0
   39.2770   25.9490   33.7920 N   0  0  0  0  0  0  0  0  0  0  0  0
   38.0030   26.2320   34.1640 C   0  0  0  0  0  0  0  0  0  0  0  0
   37.4310   25.5970   35.1740 N   0  0  0  0  0  0  0  0  0  0  0  0
   41.3480   24.7370   34.0190 N   0  0  0  0  0  0  0  0  0  0  0  0
   42.3740   25.6490   34.3840 C   0  0  0  0  0  0  0  0  0  0  0  0
   42.1320   26.8800   34.6650 N   0  0  0  0  0  0  0  0  0  0  0  0
   43.7140   25.1510   34.4320 N   0  0  0  0  0  0  0  0  0  0  0  0
   42.8230   27.5910   34.9550 H   0  0  0  0  0  0  0  0  0  0  0  0
   40.1530   23.3350   36.2120 N   0  0  0  0  0  0  0  0  0  0  0  0
   39.8750   22.8780   37.4410 C   0  0  0  0  0  0  0  0  0  0  0  0
   40.7680   21.9420   37.8050 N   0  0  0  0  0  0  0  0  0  0  0  0
   41.6180   21.8220   36.7690 C   0  0  0  0  0  0  0  0  0  0  0  0
   41.2160   22.6990   35.7910 N   0  0  0  0  0  0  0  0  0  0  0  0
   42.7670   20.9220   36.6900 C   0  0  0  0  0  0  0  0  0  0  0  0
   43.9320   21.2210   36.0150 C   0  0  0  0  0  0  0  0  0  0  0  0
   44.7330   20.0900   36.2070 C   0  0  0  0  0  0  0  0  0  0  0  0
   44.0650   19.1770   36.9590 N   0  0  0  0  0  0  0  0  0  0  0  0
   42.8680   19.7010   37.2440 N   0  0  0  0  0  0  0  0  0  0  0  0
   37.2270   27.2840   33.4170 C   0  0  0  0  0  0  0  0  0  0  0  0
   36.6680   28.1220   34.3420 F   0  0  0  0  0  0  0  0  0  0  0  0
   38.0250   27.9870   32.5630 F   0  0  0  0  0  0  0  0  0  0  0  0
   36.2140   26.6970   32.6500 F   0  0  0  0  0  0  0  0  0  0  0  0
   37.6272   24.1226   36.6978 H   0  0  0  0  0  0  0  0  0  0  0  0
   41.5647   23.8970   33.4637 H   0  0  0  0  0  0  0  0  0  0  0  0
   44.4878   25.7791   34.6921 H   0  0  0  0  0  0  0  0  0  0  0  0
   43.9051   24.1643   34.2065 H   0  0  0  0  0  0  0  0  0  0  0  0
   39.0351   23.2205   38.0633 H   0  0  0  0  0  0  0  0  0  0  0  0
   44.1750   22.1363   35.4555 H   0  0  0  0  0  0  0  0  0  0  0  0
   45.7502   19.9598   35.8090 H   0  0  0  0  0  0  0  0  0  0  0  0
   44.4148   18.2543   37.2543 H   0  0  0  0  0  0  0  0  0  0  0  0
  2  1  2  0
  2 12  1  0
  3  2  1  0
  4  5  1  0
  4  3  2  0
  5  6  2  0
  6  1  1  0
  7  8  1  0
  7  3  1  0
  8 10  1  0
  8  9  2  0
  9 11  1  0
 12 13  1  0
 13 14  2  0
 15 14  1  0
 16 12  1  0
 16 15  2  0
 17 15  1  0
 17 21  2  0
 18 19  2  0
 18 17  1  0
 19 20  1  0
 20 21  1  0
 22  5  1  0
 22 23  1  0
 24 22  1  0
 25 22  1  0
  1 26  1  0
  7 27  1  0
 10 28  1  0
 10 29  1  0
 13 30  1  0
 18 31  1  0
 19 32  1  0
 20 33  1  0
M  ISO  5  26  14  30  14  31  14  32  14  33   9
M  END
>  <minimizedAffinity>  (1) 
-5.00555706

>  <minimizedRMSD>  (1) 
0.70274967

$$$$
