
     RDKit          3D

 32 34  0  0  0  0  0  0  0  0999 V2000
   38.3290   24.1080   36.0040 C   0  0  0  0  0  0  0  0  0  0  0  0
   39.6450   23.8840   35.5960 C   0  0  0  0  0  0  0  0  0  0  0  0
   40.1610   24.6590   34.5620 C   0  0  0  0  0  0  0  0  0  0  0  0
   39.3640   25.6030   33.9890 N   0  0  0  0  0  0  0  0  0  0  0  0
   38.0970   25.7850   34.4140 C   0  0  0  0  0  0  0  0  0  0  0  0
   37.5830   25.0640   35.3920 N   0  0  0  0  0  0  0  0  0  0  0  0
   41.4990   24.4910   34.0890 N   0  0  0  0  0  0  0  0  0  0  0  0
   42.5040   25.4100   34.4730 C   0  0  0  0  0  0  0  0  0  0  0  0
   42.2050   26.6070   34.8390 N   0  0  0  0  0  0  0  0  0  0  0  0
   43.8520   24.9720   34.4430 N   0  0  0  0  0  0  0  0  0  0  0  0
   42.8630   27.3420   35.1810 H   0  0  0  0  0  0  0  0  0  0  0  0
   40.4400   22.8930   36.2180 N   0  0  0  0  0  0  0  0  0  0  0  0
   40.4820   22.6120   37.5280 C   0  0  0  0  0  0  0  0  0  0  0  0
   41.3410   21.6130   37.7910 N   0  0  0  0  0  0  0  0  0  0  0  0
   41.8570   21.2590   36.5810 C   0  0  0  0  0  0  0  0  0  0  0  0
   41.2760   22.0710   35.6380 N   0  0  0  0  0  0  0  0  0  0  0  0
   42.8420   20.2340   36.2220 C   0  0  0  0  0  0  0  0  0  0  0  0
   43.1870   19.8520   34.9080 C   0  0  0  0  0  0  0  0  0  0  0  0
   44.4340   18.5670   35.1010 S   0  0  0  0  0  0  0  0  0  0  0  0
   44.3080   18.7340   36.9950 C   0  0  0  0  0  0  0  0  0  0  0  0
   43.4760   19.5980   37.1800 N   0  0  0  0  0  0  0  0  0  0  0  0
   37.2420   26.8450   33.7510 C   0  0  0  0  0  0  0  0  0  0  0  0
   36.4940   27.4390   34.7260 F   0  0  0  0  0  0  0  0  0  0  0  0
   38.0130   27.7700   33.0980 F   0  0  0  0  0  0  0  0  0  0  0  0
   36.3970   26.2570   32.7960 F   0  0  0  0  0  0  0  0  0  0  0  0
   37.8965   23.5109   36.8203 H   0  0  0  0  0  0  0  0  0  0  0  0
   41.7315   23.7018   33.4693 H   0  0  0  0  0  0  0  0  0  0  0  0
   44.6087   25.6152   34.7162 H   0  0  0  0  0  0  0  0  0  0  0  0
   44.0747   24.0106   34.1480 H   0  0  0  0  0  0  0  0  0  0  0  0
   39.8875   23.1341   38.2922 H   0  0  0  0  0  0  0  0  0  0  0  0
   42.7813   20.2531   33.9675 H   0  0  0  0  0  0  0  0  0  0  0  0
   44.8678   18.1698   37.7555 H   0  0  0  0  0  0  0  0  0  0  0  0
  2  1  2  0
  2 12  1  0
  3  2  1  0
  4  5  1  0
  4  3  2  0
  5  6  2  0
  6  1  1  0
  7  8  1  0
  7  3  1  0
  8  9  2  0
  9 11  1  0
 10  8  1  0
 12 13  1  0
 13 14  2  0
 15 14  1  0
 16 12  1  0
 16 15  2  0
 17 15  1  0
 17 21  1  0
 18 19  1  0
 18 17  2  0
 19 20  1  0
 20 21  2  0
 22  5  1  0
 22 23  1  0
 24 22  1  0
 25 22  1  0
  1 26  1  0
  7 27  1  0
 10 28  1  0
 10 29  1  0
 13 30  1  0
 18 31  1  0
 20 32  1  0
M  ISO  4  26  14  30  14  31  14  32  14
M  END
>  <minimizedAffinity>  (1) 
-4.71103573

>  <minimizedRMSD>  (1) 
0.293442011

$$$$
