
     RDKit          3D

 29 30  0  0  0  0  0  0  0  0999 V2000
   38.3550   24.0820   36.0100 C   0  0  0  0  0  0  0  0  0  0  0  0
   39.6700   23.8640   35.5930 C   0  0  0  0  0  0  0  0  0  0  0  0
   40.1730   24.6410   34.5590 C   0  0  0  0  0  0  0  0  0  0  0  0
   39.3750   25.5790   33.9900 N   0  0  0  0  0  0  0  0  0  0  0  0
   38.1130   25.7650   34.4120 C   0  0  0  0  0  0  0  0  0  0  0  0
   37.6020   25.0420   35.3960 N   0  0  0  0  0  0  0  0  0  0  0  0
   41.5180   24.4730   34.0800 N   0  0  0  0  0  0  0  0  0  0  0  0
   42.5080   25.4010   34.4690 C   0  0  0  0  0  0  0  0  0  0  0  0
   42.2080   26.6050   34.8450 N   0  0  0  0  0  0  0  0  0  0  0  0
   43.8650   24.9650   34.4310 N   0  0  0  0  0  0  0  0  0  0  0  0
   42.8800   27.3250   35.1410 H   0  0  0  0  0  0  0  0  0  0  0  0
   40.4720   22.8740   36.2130 N   0  0  0  0  0  0  0  0  0  0  0  0
   40.5000   22.5850   37.5340 C   0  0  0  0  0  0  0  0  0  0  0  0
   41.3740   21.5900   37.7770 N   0  0  0  0  0  0  0  0  0  0  0  0
   41.8920   21.2630   36.5770 C   0  0  0  0  0  0  0  0  0  0  0  0
   41.3230   22.0630   35.6440 N   0  0  0  0  0  0  0  0  0  0  0  0
   42.9120   20.2220   36.2380 C   0  0  0  0  0  0  0  0  0  0  0  0
   37.2530   26.8160   33.7580 C   0  0  0  0  0  0  0  0  0  0  0  0
   36.4890   27.3970   34.7410 F   0  0  0  0  0  0  0  0  0  0  0  0
   38.0100   27.7590   33.1370 F   0  0  0  0  0  0  0  0  0  0  0  0
   36.4080   26.2380   32.8090 F   0  0  0  0  0  0  0  0  0  0  0  0
   37.9281   23.4838   36.8285 H   0  0  0  0  0  0  0  0  0  0  0  0
   41.7563   23.6853   33.4607 H   0  0  0  0  0  0  0  0  0  0  0  0
   44.6206   25.6086   34.7063 H   0  0  0  0  0  0  0  0  0  0  0  0
   44.0897   24.0065   34.1283 H   0  0  0  0  0  0  0  0  0  0  0  0
   39.8948   23.0909   38.3007 H   0  0  0  0  0  0  0  0  0  0  0  0
   43.3264   19.7991   37.1651 H   0  0  0  0  0  0  0  0  0  0  0  0
   42.4382   19.4222   35.6499 H   0  0  0  0  0  0  0  0  0  0  0  0
   43.7212   20.6794   35.6499 H   0  0  0  0  0  0  0  0  0  0  0  0
  2  1  2  0
  2 12  1  0
  3  2  1  0
  4  5  1  0
  4  3  2  0
  5  6  2  0
  6  1  1  0
  7  8  1  0
  7  3  1  0
  8  9  2  0
  9 11  1  0
 10  8  1  0
 12 13  1  0
 13 14  2  0
 15 14  1  0
 16 12  1  0
 16 15  2  0
 17 15  1  0
 18  5  1  0
 18 19  1  0
 20 18  1  0
 21 18  1  0
  1 22  1  0
  7 23  1  0
 10 24  1  0
 10 25  1  0
 13 26  1  0
 17 27  1  0
 17 28  1  0
 17 29  1  0
M  ISO  5  22  14  26  14  27   8  28   8  29   8
M  END
>  <minimizedAffinity>  (1) 
-4.49445057

>  <minimizedRMSD>  (1) 
0.02901344

$$$$
