
     RDKit          3D

 30 33  0  0  0  0  0  0  0  0999 V2000
   37.9782   22.3154   36.2108 C   0  0  0  0  0  0  0  0  0  0  0  0
   39.3653   22.1994   36.3285 C   0  0  0  0  0  0  0  0  0  0  0  0
   39.9697   22.7479   37.4485 C   0  0  0  0  0  0  0  0  0  0  0  0
   39.2044   23.3710   38.3812 N   0  0  0  0  0  0  0  0  0  0  0  0
   37.8663   23.4667   38.2388 C   0  0  0  0  0  0  0  0  0  0  0  0
   37.2310   22.9470   37.1630 N   0  0  0  0  0  0  0  0  0  0  0  0
   37.2064   21.7830   35.0804 C   0  0  0  0  0  0  0  0  0  0  0  0
   36.0981   20.9602   35.3010 C   0  0  0  0  0  0  0  0  0  0  0  0
   35.5842   20.6214   34.0556 C   0  0  0  0  0  0  0  0  0  0  0  0
   36.3928   21.2447   33.1643 C   0  0  0  0  0  0  0  0  0  0  0  0
   37.3487   21.9282   33.7979 O   0  0  0  0  0  0  0  0  0  0  0  0
   39.8038   21.6828   35.5093 H   0  0  0  0  0  0  0  0  0  0  0  0
   41.0441   22.6296   37.4890 H   0  0  0  0  0  0  0  0  0  0  0  0
   37.2685   23.9719   39.0003 H   0  0  0  0  0  0  0  0  0  0  0  0
   35.6696   20.6149   36.2492 H   0  0  0  0  0  0  0  0  0  0  0  0
   34.7311   19.9991   33.8765 H   0  0  0  0  0  0  0  0  0  0  0  0
   36.2760   21.2039   31.7363 N   0  0  0  0  0  0  0  0  0  0  0  0
   35.5690   22.0425   30.9397 C   0  0  0  0  0  0  0  0  0  0  0  0
   35.7327   21.6438   29.6445 N   0  0  0  0  0  0  0  0  0  0  0  0
   36.5344   20.5665   29.6340 C   0  0  0  0  0  0  0  0  0  0  0  0
   37.0745   19.7118   28.6940 C   0  0  0  0  0  0  0  0  0  0  0  0
   36.7645   19.9383   27.3240 N   0  0  0  0  0  0  0  0  0  0  0  0
   37.8817   18.6729   29.0147 N   0  0  0  0  0  0  0  0  0  0  0  0
   38.1948   18.4303   30.2990 C   0  0  0  0  0  0  0  0  0  0  0  0
   37.6756   19.2545   31.2208 N   0  0  0  0  0  0  0  0  0  0  0  0
   36.8787   20.2847   30.9386 C   0  0  0  0  0  0  0  0  0  0  0  0
   34.9709   22.8895   31.2607 H   0  0  0  0  0  0  0  0  0  0  0  0
   35.7279   19.7582   27.2024 H   0  0  0  0  0  0  0  0  0  0  0  0
   36.0610   19.9548   26.5818 H   0  0  0  0  0  0  0  0  0  0  0  0
   38.8201   17.6460   30.6961 H   0  0  0  0  0  0  0  0  0  0  0  0
  1  2  2  0
  1  6  1  0
  2  3  1  0
  3  4  2  0
  5  4  1  0
  6  5  2  0
  7  8  2  0
  7  1  1  0
  9  8  1  0
 10 11  1  0
 10  9  2  0
 11  7  1  0
  2 12  1  0
  3 13  1  0
  5 14  1  0
  8 15  1  0
  9 16  1  0
 17 18  1  0
 18 19  2  0
 19 20  1  0
 20 21  2  0
 21 22  1  0
 21 23  1  0
 23 24  2  0
 24 25  1  0
 25 26  2  0
 26 17  1  0
 26 20  1  0
 18 27  1  0
 22 28  1  0
 22 29  1  0
 24 30  1  0
 10 17  1  0
M  END
>  <DihAtoms>  (1) 
10,9,16,17

>  <DihDeg>  (1) 
-15.216690123946309

$$$$
