
     RDKit          3D

 29 30  0  0  0  0  0  0  0  0999 V2000
   37.2430   21.7970   35.1170 C   0  0  0  0  0  0  0  0  0  0  0  0
   36.1310   20.9880   35.2990 C   0  0  0  0  0  0  0  0  0  0  0  0
   35.6100   20.6420   34.0760 C   0  0  0  0  0  0  0  0  0  0  0  0
   36.4450   21.2660   33.1810 C   0  0  0  0  0  0  0  0  0  0  0  0
   37.3960   21.9370   33.8360 O   0  0  0  0  0  0  0  0  0  0  0  0
   38.0070   22.3230   36.2320 C   0  0  0  0  0  0  0  0  0  0  0  0
   39.3890   22.2080   36.3690 C   0  0  0  0  0  0  0  0  0  0  0  0
   40.0000   22.7550   37.4840 C   0  0  0  0  0  0  0  0  0  0  0  0
   39.2220   23.3900   38.4140 N   0  0  0  0  0  0  0  0  0  0  0  0
   37.8740   23.4900   38.2600 C   0  0  0  0  0  0  0  0  0  0  0  0
   37.2770   22.9630   37.1820 N   0  0  0  0  0  0  0  0  0  0  0  0
   36.3410   21.2240   31.6950 C   0  0  0  0  0  0  0  0  0  0  0  0
   37.7360   21.2840   31.1140 C   0  0  0  0  0  0  0  0  0  0  0  0
   35.6690   19.9620   31.2180 C   0  0  0  0  0  0  0  0  0  0  0  0
   35.5930   22.4530   31.2010 C   0  0  0  0  0  0  0  0  0  0  0  0
   35.7284   20.6722   36.2727 H   0  0  0  0  0  0  0  0  0  0  0  0
   34.7322   20.0141   33.8635 H   0  0  0  0  0  0  0  0  0  0  0  0
   39.9851   21.6905   35.6029 H   0  0  0  0  0  0  0  0  0  0  0  0
   41.0890   22.6809   37.6200 H   0  0  0  0  0  0  0  0  0  0  0  0
   37.2719   24.0052   39.0229 H   0  0  0  0  0  0  0  0  0  0  0  0
   38.4723   21.3157   31.9306 H   0  0  0  0  0  0  0  0  0  0  0  0
   37.9138   20.3927   30.4944 H   0  0  0  0  0  0  0  0  0  0  0  0
   37.8366   22.1873   30.4944 H   0  0  0  0  0  0  0  0  0  0  0  0
   35.3513   19.3653   32.0857 H   0  0  0  0  0  0  0  0  0  0  0  0
   34.7899   20.2220   30.6101 H   0  0  0  0  0  0  0  0  0  0  0  0
   36.3754   19.3777   30.6101 H   0  0  0  0  0  0  0  0  0  0  0  0
   35.2376   23.0369   32.0628 H   0  0  0  0  0  0  0  0  0  0  0  0
   36.2675   23.0723   30.5915 H   0  0  0  0  0  0  0  0  0  0  0  0
   34.7330   22.1384   30.5915 H   0  0  0  0  0  0  0  0  0  0  0  0
  1  2  2  0
  1  6  1  0
  3  2  1  0
  4  5  1  0
  4  3  2  0
  5  1  1  0
  6  7  2  0
  6 11  1  0
  7  8  1  0
  8  9  2  0
 10  9  1  0
 11 10  2  0
 12  4  1  0
 13 12  1  0
 14 12  1  0
 15 12  1  0
  2 16  1  0
  3 17  1  0
  7 18  1  0
  8 19  1  0
 10 20  1  0
 13 21  1  0
 13 22  1  0
 13 23  1  0
 14 24  1  0
 14 25  1  0
 14 26  1  0
 15 27  1  0
 15 28  1  0
 15 29  1  0
M  ISO  8  16  14  17  14  18  14  19  14  20  14  21   8  22   8  23   8
M  ISO  6  24   8  25   8  26   8  27   8  28   8  29   8
M  END
>  <minimizedAffinity>  (1) 
-4.61377478

>  <minimizedRMSD>  (1) 
0.0625305101

$$$$
