
     RDKit          3D

 24 25  0  0  0  0  0  0  0  0999 V2000
   37.1410   21.5970   34.9500 C   0  0  0  0  0  0  0  0  0  0  0  0
   35.9250   20.9520   35.2010 C   0  0  0  0  0  0  0  0  0  0  0  0
   35.4420   20.4850   33.9920 C   0  0  0  0  0  0  0  0  0  0  0  0
   36.3730   20.8640   33.0840 C   0  0  0  0  0  0  0  0  0  0  0  0
   37.3770   21.5250   33.6780 O   0  0  0  0  0  0  0  0  0  0  0  0
   37.9140   22.2070   36.0300 C   0  0  0  0  0  0  0  0  0  0  0  0
   39.3030   22.2000   36.1140 C   0  0  0  0  0  0  0  0  0  0  0  0
   39.9020   22.8200   37.1980 C   0  0  0  0  0  0  0  0  0  0  0  0
   39.1070   23.4150   38.1440 N   0  0  0  0  0  0  0  0  0  0  0  0
   37.7700   23.4060   38.0360 C   0  0  0  0  0  0  0  0  0  0  0  0
   37.1590   22.8110   36.9940 N   0  0  0  0  0  0  0  0  0  0  0  0
   36.3720   20.6340   31.6600 N   0  0  0  0  0  0  0  0  0  0  0  0
   35.8880   19.4150   31.0640 C   0  0  0  0  0  0  0  0  0  0  0  0
   35.0600   18.7800   31.8240 N   0  0  0  0  0  0  0  0  0  0  0  0
   36.3390   19.0440   29.7650 N   0  0  0  0  0  0  0  0  0  0  0  0
   34.6620   17.8890   31.4700 H   0  0  0  0  0  0  0  0  0  0  0  0
   35.4409   20.8371   36.1820 H   0  0  0  0  0  0  0  0  0  0  0  0
   34.5102   19.9299   33.8088 H   0  0  0  0  0  0  0  0  0  0  0  0
   39.9112   21.7133   35.3374 H   0  0  0  0  0  0  0  0  0  0  0  0
   40.9973   22.8349   37.2985 H   0  0  0  0  0  0  0  0  0  0  0  0
   37.1620   23.8933   38.8124 H   0  0  0  0  0  0  0  0  0  0  0  0
   36.7334   21.3743   31.0417 H   0  0  0  0  0  0  0  0  0  0  0  0
   35.9986   18.1743   29.3306 H   0  0  0  0  0  0  0  0  0  0  0  0
   37.0055   19.6454   29.2600 H   0  0  0  0  0  0  0  0  0  0  0  0
  1  2  2  0
  1  6  1  0
  3  2  1  0
  4  5  1  0
  4  3  2  0
  5  1  1  0
  6  7  2  0
  6 11  1  0
  7  8  1  0
  8  9  2  0
 10  9  1  0
 11 10  2  0
 12  4  1  0
 13 12  1  0
 13 14  2  0
 15 13  1  0
 16 14  1  0
  2 17  1  0
  3 18  1  0
  7 19  1  0
  8 20  1  0
 10 21  1  0
 12 22  1  0
 15 23  1  0
 15 24  1  0
M  ISO  5  17  14  18  14  19  14  20  14  21  14
M  END
>  <minimizedAffinity>  (1) 
-4.6101737

>  <minimizedRMSD>  (1) 
0.718475938

$$$$
