
     RDKit          3D

 20 21  0  0  0  0  0  0  0  0999 V2000
   37.1550   21.8210   34.8810 C   0  0  0  0  0  0  0  0  0  0  0  0
   36.1240   20.9090   35.0320 C   0  0  0  0  0  0  0  0  0  0  0  0
   35.5660   20.6470   33.8070 C   0  0  0  0  0  0  0  0  0  0  0  0
   36.2980   21.4290   32.9480 C   0  0  0  0  0  0  0  0  0  0  0  0
   37.2360   22.1150   33.6180 O   0  0  0  0  0  0  0  0  0  0  0  0
   37.9360   22.2900   36.0120 C   0  0  0  0  0  0  0  0  0  0  0  0
   39.3200   22.1960   36.1170 C   0  0  0  0  0  0  0  0  0  0  0  0
   39.9540   22.6860   37.2450 C   0  0  0  0  0  0  0  0  0  0  0  0
   39.1760   23.2530   38.2280 N   0  0  0  0  0  0  0  0  0  0  0  0
   37.8350   23.3360   38.1060 C   0  0  0  0  0  0  0  0  0  0  0  0
   37.2020   22.8620   37.0120 N   0  0  0  0  0  0  0  0  0  0  0  0
   36.1820   21.5920   31.4630 C   0  0  0  0  0  0  0  0  0  0  0  0
   37.4740   21.8000   31.0130 F   0  0  0  0  0  0  0  0  0  0  0  0
   35.6150   20.4710   30.9340 F   0  0  0  0  0  0  0  0  0  0  0  0
   35.3410   22.6550   31.1830 F   0  0  0  0  0  0  0  0  0  0  0  0
   35.8028   20.4642   35.9854 H   0  0  0  0  0  0  0  0  0  0  0  0
   34.7311   19.9714   33.5693 H   0  0  0  0  0  0  0  0  0  0  0  0
   39.9065   21.7351   35.3085 H   0  0  0  0  0  0  0  0  0  0  0  0
   41.0470   22.6241   37.3526 H   0  0  0  0  0  0  0  0  0  0  0  0
   37.2469   23.7982   38.9125 H   0  0  0  0  0  0  0  0  0  0  0  0
  1  2  2  0
  1  6  1  0
  3  2  1  0
  4  5  1  0
  4  3  2  0
  5  1  1  0
  6  7  2  0
  6 11  1  0
  7  8  1  0
  8  9  2  0
 10  9  1  0
 11 10  2  0
 12  4  1  0
 13 12  1  0
 14 12  1  0
 15 12  1  0
  2 16  1  0
  3 17  1  0
  7 18  1  0
  8 19  1  0
 10 20  1  0
M  ISO  5  16  14  17  14  18  14  19  14  20  14
M  END
>  <minimizedAffinity>  (1) 
-4.51655817

>  <minimizedRMSD>  (1) 
0.307126373

$$$$
