
     RDKit          3D

 24 26  0  0  0  0  0  0  0  0999 V2000
   37.2320   21.5270   34.9150 C   0  0  0  0  0  0  0  0  0  0  0  0
   35.9210   21.0580   35.0700 C   0  0  0  0  0  0  0  0  0  0  0  0
   35.5250   20.4760   33.8800 C   0  0  0  0  0  0  0  0  0  0  0  0
   36.6140   20.6200   33.0650 C   0  0  0  0  0  0  0  0  0  0  0  0
   37.5850   21.2410   33.7160 O   0  0  0  0  0  0  0  0  0  0  0  0
   37.9180   22.1950   36.0170 C   0  0  0  0  0  0  0  0  0  0  0  0
   39.3210   22.2250   36.1430 C   0  0  0  0  0  0  0  0  0  0  0  0
   39.8490   22.8990   37.2460 C   0  0  0  0  0  0  0  0  0  0  0  0
   39.0030   23.4860   38.1350 N   0  0  0  0  0  0  0  0  0  0  0  0
   37.6610   23.4310   37.9750 C   0  0  0  0  0  0  0  0  0  0  0  0
   37.1150   22.7930   36.9270 N   0  0  0  0  0  0  0  0  0  0  0  0
   36.7240   20.1680   31.6760 C   0  0  0  0  0  0  0  0  0  0  0  0
   37.7320   20.4960   30.7910 C   0  0  0  0  0  0  0  0  0  0  0  0
   37.3860   19.8310   29.6350 C   0  0  0  0  0  0  0  0  0  0  0  0
   36.2430   19.1380   29.7900 N   0  0  0  0  0  0  0  0  0  0  0  0
   35.8520   19.3560   31.0450 N   0  0  0  0  0  0  0  0  0  0  0  0
   35.3113   21.1389   35.9820 H   0  0  0  0  0  0  0  0  0  0  0  0
   34.5588   20.0063   33.6436 H   0  0  0  0  0  0  0  0  0  0  0  0
   39.9732   21.7378   35.4033 H   0  0  0  0  0  0  0  0  0  0  0  0
   40.9375   22.9547   37.3945 H   0  0  0  0  0  0  0  0  0  0  0  0
   37.0070   23.9162   38.7145 H   0  0  0  0  0  0  0  0  0  0  0  0
   38.6072   21.1385   30.9678 H   0  0  0  0  0  0  0  0  0  0  0  0
   37.9701   19.8626   28.7034 H   0  0  0  0  0  0  0  0  0  0  0  0
   35.7679   18.5581   29.0836 H   0  0  0  0  0  0  0  0  0  0  0  0
  1  2  2  0
  1  6  1  0
  3  2  1  0
  4  5  1  0
  4  3  2  0
  5  1  1  0
  6  7  2  0
  6 11  1  0
  7  8  1  0
  8  9  2  0
 10  9  1  0
 11 10  2  0
 12  4  1  0
 13 12  1  0
 14 15  1  0
 14 13  2  0
 15 16  1  0
 16 12  2  0
  2 17  1  0
  3 18  1  0
  7 19  1  0
  8 20  1  0
 10 21  1  0
 13 22  1  0
 14 23  1  0
 15 24  1  0
M  ISO  8  17  14  18  14  19  14  20  14  21  14  22  14  23  14  24   9
M  END
>  <minimizedAffinity>  (1) 
-4.25247049

>  <minimizedRMSD>  (1) 
1.0316124

$$$$
