
     RDKit          3D

 24 26  0  0  0  0  0  0  0  0999 V2000
   37.2950   21.5760   34.9220 C   0  0  0  0  0  0  0  0  0  0  0  0
   35.9860   21.1140   35.0250 C   0  0  0  0  0  0  0  0  0  0  0  0
   35.6200   20.5620   33.8210 C   0  0  0  0  0  0  0  0  0  0  0  0
   36.7280   20.7120   33.0330 C   0  0  0  0  0  0  0  0  0  0  0  0
   37.6910   21.3170   33.7270 O   0  0  0  0  0  0  0  0  0  0  0  0
   37.9600   22.2160   36.0500 C   0  0  0  0  0  0  0  0  0  0  0  0
   39.3600   22.2340   36.2170 C   0  0  0  0  0  0  0  0  0  0  0  0
   39.8510   22.8880   37.3520 C   0  0  0  0  0  0  0  0  0  0  0  0
   38.9910   23.4660   38.2300 N   0  0  0  0  0  0  0  0  0  0  0  0
   37.6540   23.4240   38.0310 C   0  0  0  0  0  0  0  0  0  0  0  0
   37.1330   22.8080   36.9560 N   0  0  0  0  0  0  0  0  0  0  0  0
   36.9740   20.3270   31.6350 C   0  0  0  0  0  0  0  0  0  0  0  0
   36.0620   19.5130   30.9550 C   0  0  0  0  0  0  0  0  0  0  0  0
   36.5790   19.3340   29.6660 C   0  0  0  0  0  0  0  0  0  0  0  0
   37.7610   20.0460   29.6510 C   0  0  0  0  0  0  0  0  0  0  0  0
   37.9570   20.6100   30.8170 O   0  0  0  0  0  0  0  0  0  0  0  0
   35.3507   21.1798   35.9206 H   0  0  0  0  0  0  0  0  0  0  0  0
   34.6565   20.1043   33.5524 H   0  0  0  0  0  0  0  0  0  0  0  0
   40.0336   21.7568   35.4899 H   0  0  0  0  0  0  0  0  0  0  0  0
   40.9349   22.9342   37.5336 H   0  0  0  0  0  0  0  0  0  0  0  0
   36.9827   23.9013   38.7601 H   0  0  0  0  0  0  0  0  0  0  0  0
   35.1252   19.0964   31.3535 H   0  0  0  0  0  0  0  0  0  0  0  0
   36.1383   18.7518   28.8433 H   0  0  0  0  0  0  0  0  0  0  0  0
   38.4381   20.1278   28.7880 H   0  0  0  0  0  0  0  0  0  0  0  0
  1  2  2  0
  1  6  1  0
  3  2  1  0
  4  5  1  0
  4  3  2  0
  5  1  1  0
  6  7  2  0
  6 11  1  0
  7  8  1  0
  8  9  2  0
 10  9  1  0
 11 10  2  0
 12  4  1  0
 13 12  2  0
 14 13  1  0
 15 14  2  0
 15 16  1  0
 16 12  1  0
  2 17  1  0
  3 18  1  0
  7 19  1  0
  8 20  1  0
 10 21  1  0
 13 22  1  0
 14 23  1  0
 15 24  1  0
M  ISO  8  17  14  18  14  19  14  20  14  21  14  22  14  23  14  24  14
M  END
>  <minimizedAffinity>  (1) 
-4.24597931

>  <minimizedRMSD>  (1) 
1.09450924

$$$$
