
     RDKit          3D

 26 28  0  0  0  0  0  0  0  0999 V2000
   37.4100   21.5920   34.7600 C   0  0  0  0  0  0  0  0  0  0  0  0
   36.0830   21.1920   34.7610 C   0  0  0  0  0  0  0  0  0  0  0  0
   35.8050   20.6520   33.5120 C   0  0  0  0  0  0  0  0  0  0  0  0
   36.9700   20.7530   32.8290 C   0  0  0  0  0  0  0  0  0  0  0  0
   37.8940   21.3110   33.5940 O   0  0  0  0  0  0  0  0  0  0  0  0
   38.0320   22.2080   35.9340 C   0  0  0  0  0  0  0  0  0  0  0  0
   39.4110   22.2400   36.1700 C   0  0  0  0  0  0  0  0  0  0  0  0
   39.8490   22.8680   37.3400 C   0  0  0  0  0  0  0  0  0  0  0  0
   38.9300   23.4150   38.1870 N   0  0  0  0  0  0  0  0  0  0  0  0
   37.6100   23.3640   37.9240 C   0  0  0  0  0  0  0  0  0  0  0  0
   37.1480   22.7690   36.8100 N   0  0  0  0  0  0  0  0  0  0  0  0
   37.2400   20.3320   31.4580 C   0  0  0  0  0  0  0  0  0  0  0  0
   36.4150   19.4350   30.8090 C   0  0  0  0  0  0  0  0  0  0  0  0
   36.5680   18.9650   29.5230 C   0  0  0  0  0  0  0  0  0  0  0  0
   37.6590   19.4600   28.8420 C   0  0  0  0  0  0  0  0  0  0  0  0
   38.4900   20.3570   29.4810 C   0  0  0  0  0  0  0  0  0  0  0  0
   38.2890   20.7860   30.7610 N   0  0  0  0  0  0  0  0  0  0  0  0
   35.3774   21.2854   35.5997 H   0  0  0  0  0  0  0  0  0  0  0  0
   34.8511   20.2351   33.1567 H   0  0  0  0  0  0  0  0  0  0  0  0
   40.1225   21.7888   35.4628 H   0  0  0  0  0  0  0  0  0  0  0  0
   40.9224   22.9204   37.5748 H   0  0  0  0  0  0  0  0  0  0  0  0
   36.8990   23.8160   38.6313 H   0  0  0  0  0  0  0  0  0  0  0  0
   35.5500   19.0584   31.3747 H   0  0  0  0  0  0  0  0  0  0  0  0
   35.8688   18.2456   29.0718 H   0  0  0  0  0  0  0  0  0  0  0  0
   37.8636   19.1457   27.8079 H   0  0  0  0  0  0  0  0  0  0  0  0
   39.3592   20.7464   28.9306 H   0  0  0  0  0  0  0  0  0  0  0  0
  1  2  2  0
  1  6  1  0
  3  2  1  0
  4  3  2  0
  4  5  1  0
  5  1  1  0
  6  7  2  0
  6 11  1  0
  7  8  1  0
  8  9  2  0
 10  9  1  0
 11 10  2  0
 12  4  1  0
 13 12  2  0
 14 13  1  0
 15 16  1  0
 15 14  2  0
 16 17  2  0
 17 12  1  0
  2 18  1  0
  3 19  1  0
  7 20  1  0
  8 21  1  0
 10 22  1  0
 13 23  1  0
 14 24  1  0
 15 25  1  0
 16 26  1  0
M  ISO  8  18  14  19  14  20  14  21  14  22  14  23  14  24  14  25  14
M  ISO  1  26  14
M  END
>  <minimizedAffinity>  (1) 
-4.24249458

>  <minimizedRMSD>  (1) 
1.24120378

$$$$
