
     RDKit          3D

 24 26  0  0  0  0  0  0  0  0999 V2000
   37.2520   21.5880   35.0710 C   0  0  0  0  0  0  0  0  0  0  0  0
   35.9460   21.1040   35.2620 C   0  0  0  0  0  0  0  0  0  0  0  0
   35.5510   20.5540   34.0480 C   0  0  0  0  0  0  0  0  0  0  0  0
   36.6120   20.7300   33.2120 C   0  0  0  0  0  0  0  0  0  0  0  0
   37.6040   21.3490   33.8560 O   0  0  0  0  0  0  0  0  0  0  0  0
   37.9630   22.2380   36.1830 C   0  0  0  0  0  0  0  0  0  0  0  0
   39.3580   22.2010   36.3270 C   0  0  0  0  0  0  0  0  0  0  0  0
   39.9100   22.8590   37.4280 C   0  0  0  0  0  0  0  0  0  0  0  0
   39.0700   23.5020   38.3050 N   0  0  0  0  0  0  0  0  0  0  0  0
   37.7290   23.5110   38.1220 C   0  0  0  0  0  0  0  0  0  0  0  0
   37.1890   22.8850   37.0750 N   0  0  0  0  0  0  0  0  0  0  0  0
   36.8680   20.4090   31.8600 N   0  0  0  0  0  0  0  0  0  0  0  0
   37.9350   20.7800   31.1770 N   0  0  0  0  0  0  0  0  0  0  0  0
   37.8910   20.3210   29.9210 C   0  0  0  0  0  0  0  0  0  0  0  0
   36.7180   19.6070   29.7960 C   0  0  0  0  0  0  0  0  0  0  0  0
   36.0870   19.6750   31.0270 C   0  0  0  0  0  0  0  0  0  0  0  0
   35.3543   21.1512   36.1881 H   0  0  0  0  0  0  0  0  0  0  0  0
   34.5875   20.0783   33.8127 H   0  0  0  0  0  0  0  0  0  0  0  0
   39.9930   21.6735   35.6000 H   0  0  0  0  0  0  0  0  0  0  0  0
   40.9979   22.8625   37.5904 H   0  0  0  0  0  0  0  0  0  0  0  0
   37.0818   24.0366   38.8395 H   0  0  0  0  0  0  0  0  0  0  0  0
   38.6463   20.4824   29.1377 H   0  0  0  0  0  0  0  0  0  0  0  0
   36.3554   19.0868   28.8972 H   0  0  0  0  0  0  0  0  0  0  0  0
   35.1217   19.2147   31.2846 H   0  0  0  0  0  0  0  0  0  0  0  0
  1  2  2  0
  1  6  1  0
  3  2  1  0
  4  5  1  0
  4  3  2  0
  5  1  1  0
  6  7  2  0
  6 11  1  0
  7  8  1  0
  8  9  2  0
 10  9  1  0
 11 10  2  0
 12  4  1  0
 13 12  1  0
 14 13  2  0
 15 14  1  0
 15 16  2  0
 16 12  1  0
  2 17  1  0
  3 18  1  0
  7 19  1  0
  8 20  1  0
 10 21  1  0
 14 22  1  0
 15 23  1  0
 16 24  1  0
M  ISO  8  17  14  18  14  19  14  20  14  21  14  22  14  23  14  24  14
M  END
>  <minimizedAffinity>  (1) 
-4.19564199

>  <minimizedRMSD>  (1) 
0.869510472

$$$$
