
     RDKit          3D

 23 25  0  0  0  0  0  0  0  0999 V2000
   37.3630   21.5730   34.7770 C   0  0  0  0  0  0  0  0  0  0  0  0
   36.0430   21.1550   34.8000 C   0  0  0  0  0  0  0  0  0  0  0  0
   35.7400   20.6060   33.5810 C   0  0  0  0  0  0  0  0  0  0  0  0
   36.8920   20.7080   32.8480 C   0  0  0  0  0  0  0  0  0  0  0  0
   37.8170   21.2820   33.5940 O   0  0  0  0  0  0  0  0  0  0  0  0
   37.9980   22.2040   35.9290 C   0  0  0  0  0  0  0  0  0  0  0  0
   39.3840   22.2330   36.1400 C   0  0  0  0  0  0  0  0  0  0  0  0
   39.8390   22.8740   37.2880 C   0  0  0  0  0  0  0  0  0  0  0  0
   38.9390   23.4340   38.1440 N   0  0  0  0  0  0  0  0  0  0  0  0
   37.6200   23.3870   37.9110 C   0  0  0  0  0  0  0  0  0  0  0  0
   37.1520   22.7760   36.8120 N   0  0  0  0  0  0  0  0  0  0  0  0
   37.0830   20.2540   31.4530 C   0  0  0  0  0  0  0  0  0  0  0  0
   36.0900   19.3860   30.8790 C   0  0  0  0  0  0  0  0  0  0  0  0
   36.7430   19.1010   29.1830 S   0  0  0  0  0  0  0  0  0  0  0  0
   38.2450   20.2070   29.5480 C   0  0  0  0  0  0  0  0  0  0  0  0
   38.0680   20.5370   30.6170 N   0  0  0  0  0  0  0  0  0  0  0  0
   35.3540   21.2478   35.6524 H   0  0  0  0  0  0  0  0  0  0  0  0
   34.7792   20.1765   33.2609 H   0  0  0  0  0  0  0  0  0  0  0  0
   40.0821   21.7686   35.4279 H   0  0  0  0  0  0  0  0  0  0  0  0
   40.9165   22.9282   37.5028 H   0  0  0  0  0  0  0  0  0  0  0  0
   36.9200   23.8501   38.6220 H   0  0  0  0  0  0  0  0  0  0  0  0
   35.1715   18.9919   31.3384 H   0  0  0  0  0  0  0  0  0  0  0  0
   39.0825   20.4641   28.8828 H   0  0  0  0  0  0  0  0  0  0  0  0
  1  2  2  0
  1  6  1  0
  3  2  1  0
  4  3  2  0
  4  5  1  0
  5  1  1  0
  6  7  2  0
  6 11  1  0
  7  8  1  0
  8  9  2  0
 10  9  1  0
 11 10  2  0
 12  4  1  0
 13 12  2  0
 14 15  1  0
 14 13  1  0
 15 16  2  0
 16 12  1  0
  2 17  1  0
  3 18  1  0
  7 19  1  0
  8 20  1  0
 10 21  1  0
 13 22  1  0
 15 23  1  0
M  ISO  7  17  14  18  14  19  14  20  14  21  14  22  14  23  14
M  END
>  <minimizedAffinity>  (1) 
-4.04064894

>  <minimizedRMSD>  (1) 
1.13926625

$$$$
