
     RDKit          3D

 24 26  0  0  0  0  0  0  0  0999 V2000
   37.6050   21.6630   34.7680 C   0  0  0  0  0  0  0  0  0  0  0  0
   36.2690   21.3000   34.7060 C   0  0  0  0  0  0  0  0  0  0  0  0
   36.0190   20.7770   33.4420 C   0  0  0  0  0  0  0  0  0  0  0  0
   37.2170   20.8550   32.8160 C   0  0  0  0  0  0  0  0  0  0  0  0
   38.1080   21.3770   33.6280 O   0  0  0  0  0  0  0  0  0  0  0  0
   38.1760   22.2490   35.9840 C   0  0  0  0  0  0  0  0  0  0  0  0
   39.5350   22.2150   36.2990 C   0  0  0  0  0  0  0  0  0  0  0  0
   39.9190   22.8180   37.4960 C   0  0  0  0  0  0  0  0  0  0  0  0
   38.9770   23.4040   38.2930 N   0  0  0  0  0  0  0  0  0  0  0  0
   37.6800   23.4150   37.9510 C   0  0  0  0  0  0  0  0  0  0  0  0
   37.2710   22.8450   36.8100 N   0  0  0  0  0  0  0  0  0  0  0  0
   37.3700   20.4060   31.4700 C   0  0  0  0  0  0  0  0  0  0  0  0
   36.5210   19.5700   30.8560 C   0  0  0  0  0  0  0  0  0  0  0  0
   36.5410   19.0730   29.6200 C   0  0  0  0  0  0  0  0  0  0  0  0
   37.7470   19.6220   28.9450 C   0  0  0  0  0  0  0  0  0  0  0  0
   38.5670   20.7370   30.2860 S   0  0  0  0  0  0  0  0  0  0  0  0
   35.5333   21.4071   35.5167 H   0  0  0  0  0  0  0  0  0  0  0  0
   35.0694   20.3902   33.0436 H   0  0  0  0  0  0  0  0  0  0  0  0
   40.2686   21.7352   35.6344 H   0  0  0  0  0  0  0  0  0  0  0  0
   40.9769   22.8218   37.7975 H   0  0  0  0  0  0  0  0  0  0  0  0
   36.9457   23.8965   38.6135 H   0  0  0  0  0  0  0  0  0  0  0  0
   35.6708   19.2413   31.4718 H   0  0  0  0  0  0  0  0  0  0  0  0
   35.8034   18.3852   29.1809 H   0  0  0  0  0  0  0  0  0  0  0  0
   38.0916   19.4348   27.9173 H   0  0  0  0  0  0  0  0  0  0  0  0
  1  6  1  0
  2  1  2  0
  3  2  1  0
  4  3  2  0
  4  5  1  0
  5  1  1  0
  6  7  2  0
  6 11  1  0
  7  8  1  0
  8  9  2  0
 10  9  1  0
 11 10  2  0
 12  4  1  0
 13 12  2  0
 14 13  1  0
 15 14  2  0
 15 16  1  0
 16 12  1  0
  2 17  1  0
  3 18  1  0
  7 19  1  0
  8 20  1  0
 10 21  1  0
 13 22  1  0
 14 23  1  0
 15 24  1  0
M  ISO  8  17  14  18  14  19  14  20  14  21  14  22  14  23  14  24  14
M  END
>  <minimizedAffinity>  (1) 
-4.02490854

>  <minimizedRMSD>  (1) 
1.17001677

$$$$
