
     RDKit          3D

 24 25  0  0  0  0  0  0  0  0999 V2000
   37.0960   20.9670   32.4830 C   0  0  0  0  0  0  0  0  0  0  0  0
   35.9180   20.3810   33.0260 C   0  0  0  0  0  0  0  0  0  0  0  0
   35.6280   20.6250   34.3590 C   0  0  0  0  0  0  0  0  0  0  0  0
   36.4650   21.4040   35.0950 N   0  0  0  0  0  0  0  0  0  0  0  0
   37.5790   21.9460   34.5420 C   0  0  0  0  0  0  0  0  0  0  0  0
   37.8720   21.7250   33.2720 N   0  0  0  0  0  0  0  0  0  0  0  0
   35.0040   19.5280   32.2060 C   0  0  0  0  0  0  0  0  0  0  0  0
   35.6160   19.2960   31.0040 F   0  0  0  0  0  0  0  0  0  0  0  0
   33.8070   20.1480   31.9820 F   0  0  0  0  0  0  0  0  0  0  0  0
   34.8560   18.2700   32.7880 F   0  0  0  0  0  0  0  0  0  0  0  0
   38.6220   22.9570   35.5850 S   0  0  0  0  0  0  0  0  0  0  0  0
   38.2320   24.6650   35.2100 C   0  0  0  0  0  0  0  0  0  0  0  0
   37.7440   25.0390   33.9750 C   0  0  0  0  0  0  0  0  0  0  0  0
   37.4610   26.3900   33.7490 C   0  0  0  0  0  0  0  0  0  0  0  0
   37.6700   27.3210   34.7500 C   0  0  0  0  0  0  0  0  0  0  0  0
   38.1580   26.9460   35.9850 C   0  0  0  0  0  0  0  0  0  0  0  0
   38.4450   25.6060   36.2230 C   0  0  0  0  0  0  0  0  0  0  0  0
   37.3665   20.8004   31.4299 H   0  0  0  0  0  0  0  0  0  0  0  0
   34.7273   20.1917   34.8183 H   0  0  0  0  0  0  0  0  0  0  0  0
   37.5810   24.2910   33.1852 H   0  0  0  0  0  0  0  0  0  0  0  0
   37.0711   26.7128   32.7724 H   0  0  0  0  0  0  0  0  0  0  0  0
   37.4430   28.3801   34.5581 H   0  0  0  0  0  0  0  0  0  0  0  0
   38.3181   27.6978   36.7719 H   0  0  0  0  0  0  0  0  0  0  0  0
   38.8366   25.2885   37.2007 H   0  0  0  0  0  0  0  0  0  0  0  0
  1  2  2  0
  1  6  1  0
  2  3  1  0
  3  4  2  0
  5  4  1  0
  5 11  1  0
  6  5  2  0
  7 10  1  0
  7  2  1  0
  8  7  1  0
  9  7  1  0
 12 11  1  0
 12 17  1  0
 13 12  2  0
 14 13  1  0
 14 15  2  0
 15 16  1  0
 16 17  2  0
  1 18  1  0
  3 19  1  0
 13 20  1  0
 14 21  1  0
 15 22  1  0
 16 23  1  0
 17 24  1  0
M  ISO  7  18  14  19  14  20  14  21  14  22  14  23  14  24  14
M  END
>  <minimizedAffinity>  (1) 
-4.80565023

>  <minimizedRMSD>  (1) 
7.38704538

$$$$
