
     RDKit          3D

 42 45  0  0  1  0  0  0  0  0999 V2000
   36.4700   21.0520   31.7420 C   0  0  2  0  0  0  0  0  0  0  0  0
   37.2150   21.7370   35.1420 C   0  0  0  0  0  0  0  0  0  0  0  0
   36.0580   20.9820   35.3760 C   0  0  0  0  0  0  0  0  0  0  0  0
   35.5770   20.5940   34.1260 C   0  0  0  0  0  0  0  0  0  0  0  0
   36.4570   21.1260   33.2300 C   0  0  0  0  0  0  0  0  0  0  0  0
   37.3920   21.7830   33.8780 O   0  0  0  0  0  0  0  0  0  0  0  0
   37.9570   22.2950   36.2610 C   0  0  0  0  0  0  0  0  0  0  0  0
   39.3440   22.1950   36.4130 C   0  0  0  0  0  0  0  0  0  0  0  0
   39.9590   22.7690   37.5140 C   0  0  0  0  0  0  0  0  0  0  0  0
   39.1750   23.4130   38.4130 N   0  0  0  0  0  0  0  0  0  0  0  0
   37.8280   23.5080   38.2630 C   0  0  0  0  0  0  0  0  0  0  0  0
   37.2580   22.9460   37.1930 N   0  0  0  0  0  0  0  0  0  0  0  0
   35.4690   22.0160   31.1340 C   0  0  0  0  0  0  0  0  0  0  0  0
   36.0870   19.6560   31.3570 C   0  0  0  0  0  0  0  0  0  0  0  0
   37.1310   18.6400   31.5440 C   0  0  0  0  0  0  0  0  0  0  0  0
   38.4760   18.9540   31.3290 C   0  0  0  0  0  0  0  0  0  0  0  0
   39.4630   17.9930   31.5430 C   0  0  0  0  0  0  0  0  0  0  0  0
   39.1950   16.7240   31.9640 C   0  0  0  0  0  0  0  0  0  0  0  0
   37.8750   16.3840   32.1850 C   0  0  0  0  0  0  0  0  0  0  0  0
   37.5090   15.1140   32.5970 C   0  0  0  0  0  0  0  0  0  0  0  0
   36.1910   14.7270   32.8150 C   0  0  0  0  0  0  0  0  0  0  0  0
   35.1990   15.6800   32.6020 C   0  0  0  0  0  0  0  0  0  0  0  0
   35.5890   16.9390   32.1920 C   0  0  0  0  0  0  0  0  0  0  0  0
   36.8860   17.3440   31.9700 C   0  0  0  0  0  0  0  0  0  0  0  0
   37.4711   21.3193   31.3728 H   0  0  0  0  0  0  0  0  0  0  0  0
   35.6157   20.7423   36.3542 H   0  0  0  0  0  0  0  0  0  0  0  0
   34.6830   19.9906   33.9098 H   0  0  0  0  0  0  0  0  0  0  0  0
   39.9445   21.6624   35.6609 H   0  0  0  0  0  0  0  0  0  0  0  0
   41.0481   22.7042   37.6540 H   0  0  0  0  0  0  0  0  0  0  0  0
   37.2176   24.0380   39.0090 H   0  0  0  0  0  0  0  0  0  0  0  0
   34.9276   22.5374   31.9372 H   0  0  0  0  0  0  0  0  0  0  0  0
   35.9998   22.7518   30.5120 H   0  0  0  0  0  0  0  0  0  0  0  0
   34.7537   21.4579   30.5120 H   0  0  0  0  0  0  0  0  0  0  0  0
   35.8070   19.6625   30.2933 H   0  0  0  0  0  0  0  0  0  0  0  0
   35.2647   19.3717   32.0300 H   0  0  0  0  0  0  0  0  0  0  0  0
   38.7564   19.9622   30.9900 H   0  0  0  0  0  0  0  0  0  0  0  0
   40.5115   18.2727   31.3631 H   0  0  0  0  0  0  0  0  0  0  0  0
   40.0036   15.9952   32.1223 H   0  0  0  0  0  0  0  0  0  0  0  0
   38.3034   14.3709   32.7608 H   0  0  0  0  0  0  0  0  0  0  0  0
   35.9421   13.7070   33.1431 H   0  0  0  0  0  0  0  0  0  0  0  0
   34.1372   15.4373   32.7557 H   0  0  0  0  0  0  0  0  0  0  0  0
   34.7952   17.6828   32.0286 H   0  0  0  0  0  0  0  0  0  0  0  0
  1  5  1  0
  2  3  2  0
  2  7  1  0
  4  3  1  0
  5  6  1  0
  5  4  2  0
  6  2  1  0
  7  8  2  0
  7 12  1  0
  8  9  1  0
  9 10  2  0
 11 10  1  0
 12 11  2  0
 13  1  1  0
 14 15  1  0
 14  1  1  0
 15 24  2  0
 16 17  2  0
 16 15  1  0
 17 18  1  0
 18 19  2  0
 19 20  1  0
 20 21  2  0
 22 21  1  0
 23 22  2  0
 24 19  1  0
 24 23  1  0
  1 25  1  6
  3 26  1  0
  4 27  1  0
  8 28  1  0
  9 29  1  0
 11 30  1  0
 13 31  1  0
 13 32  1  0
 13 33  1  0
 14 34  1  0
 14 35  1  0
 16 36  1  0
 17 37  1  0
 18 38  1  0
 20 39  1  0
 21 40  1  0
 22 41  1  0
 23 42  1  0
M  ISO  8  25   8  26  14  27  14  28  14  29  14  30  14  31   8  32   8
M  ISO  8  33   8  34   8  35   8  36  14  37  14  38  14  39  14  40  14
M  ISO  2  41  14  42  14
M  END
>  <minimizedAffinity>  (1) 
-5.87480068

>  <minimizedRMSD>  (1) 
1.38114715

$$$$
