
     RDKit          3D

 34 36  0  0  1  0  0  0  0  0999 V2000
   37.1230   21.7850   34.9790 C   0  0  0  0  0  0  0  0  0  0  0  0
   36.1040   20.8600   35.2060 C   0  0  0  0  0  0  0  0  0  0  0  0
   35.5380   20.5830   33.9560 C   0  0  0  0  0  0  0  0  0  0  0  0
   36.2630   21.3630   33.0700 C   0  0  0  0  0  0  0  0  0  0  0  0
   37.1760   22.0450   33.7160 O   0  0  0  0  0  0  0  0  0  0  0  0
   37.9200   22.2870   36.0980 C   0  0  0  0  0  0  0  0  0  0  0  0
   39.3120   22.1920   36.1770 C   0  0  0  0  0  0  0  0  0  0  0  0
   39.9390   22.7210   37.3030 C   0  0  0  0  0  0  0  0  0  0  0  0
   39.1900   23.3060   38.2760 N   0  0  0  0  0  0  0  0  0  0  0  0
   37.8460   23.3850   38.1750 C   0  0  0  0  0  0  0  0  0  0  0  0
   37.2560   22.8760   37.0970 N   0  0  0  0  0  0  0  0  0  0  0  0
   36.1020   21.4810   31.5850 C   0  0  2  0  0  0  0  0  0  0  0  0
   36.2840   20.1400   30.9080 C   0  0  0  0  0  0  0  0  0  0  0  0
   37.1230   22.4660   31.1050 C   0  0  0  0  0  0  0  0  0  0  0  0
   36.6580   23.8580   31.0630 C   0  0  0  0  0  0  0  0  0  0  0  0
   35.3200   24.2420   31.0100 C   0  0  0  0  0  0  0  0  0  0  0  0
   34.9420   25.5720   30.9720 C   0  0  0  0  0  0  0  0  0  0  0  0
   35.9060   26.5310   30.9870 N   0  0  0  0  0  0  0  0  0  0  0  0
   37.1970   26.1150   31.0390 C   0  0  0  0  0  0  0  0  0  0  0  0
   37.6070   24.8340   31.0770 N   0  0  0  0  0  0  0  0  0  0  0  0
   35.8047   20.4331   36.1746 H   0  0  0  0  0  0  0  0  0  0  0  0
   34.7059   19.9004   33.7287 H   0  0  0  0  0  0  0  0  0  0  0  0
   39.8944   21.7145   35.3752 H   0  0  0  0  0  0  0  0  0  0  0  0
   41.0329   22.6659   37.4045 H   0  0  0  0  0  0  0  0  0  0  0  0
   37.2508   23.8608   38.9683 H   0  0  0  0  0  0  0  0  0  0  0  0
   35.0870   21.8240   31.3359 H   0  0  0  0  0  0  0  0  0  0  0  0
   36.3905   19.3553   31.6715 H   0  0  0  0  0  0  0  0  0  0  0  0
   35.4069   19.9242   30.2802 H   0  0  0  0  0  0  0  0  0  0  0  0
   37.1869   20.1657   30.2802 H   0  0  0  0  0  0  0  0  0  0  0  0
   37.9918   22.4148   31.7778 H   0  0  0  0  0  0  0  0  0  0  0  0
   37.3624   22.1862   30.0685 H   0  0  0  0  0  0  0  0  0  0  0  0
   34.5415   23.4650   30.9980 H   0  0  0  0  0  0  0  0  0  0  0  0
   33.8784   25.8496   30.9303 H   0  0  0  0  0  0  0  0  0  0  0  0
   37.9753   26.8923   31.0511 H   0  0  0  0  0  0  0  0  0  0  0  0
  1  2  2  0
  1  6  1  0
  3  2  1  0
  4  5  1  0
  4  3  2  0
  5  1  1  0
  6  7  2  0
  6 11  1  0
  7  8  1  0
  8  9  2  0
 10  9  1  0
 11 10  2  0
 12  4  1  0
 13 12  1  0
 14 12  1  0
 15 20  1  0
 15 14  1  0
 16 15  2  0
 17 18  2  0
 17 16  1  0
 18 19  1  0
 19 20  2  0
  2 21  1  0
  3 22  1  0
  7 23  1  0
  8 24  1  0
 10 25  1  0
 12 26  1  1
 13 27  1  0
 13 28  1  0
 13 29  1  0
 14 30  1  0
 14 31  1  0
 16 32  1  0
 17 33  1  0
 19 34  1  0
M  ISO  8  21  14  22  14  23  14  24  14  25  14  26   8  27   8  28   8
M  ISO  6  29   8  30   8  31   8  32  14  33  14  34  14
M  END
>  <minimizedAffinity>  (1) 
-5.44731951

>  <minimizedRMSD>  (1) 
3.72118139

$$$$
