
     RDKit          3D

 37 40  0  0  1  0  0  0  0  0999 V2000
   36.3030   21.2440   31.8180 C   0  0  2  0  0  0  0  0  0  0  0  0
   37.2200   21.7820   35.2170 C   0  0  0  0  0  0  0  0  0  0  0  0
   36.1290   20.9500   35.4760 C   0  0  0  0  0  0  0  0  0  0  0  0
   35.5930   20.6000   34.2450 C   0  0  0  0  0  0  0  0  0  0  0  0
   36.3900   21.2410   33.3060 C   0  0  0  0  0  0  0  0  0  0  0  0
   37.3320   21.9220   33.9390 O   0  0  0  0  0  0  0  0  0  0  0  0
   38.0150   22.3330   36.3160 C   0  0  0  0  0  0  0  0  0  0  0  0
   39.4010   22.1990   36.4220 C   0  0  0  0  0  0  0  0  0  0  0  0
   40.0210   22.7870   37.5310 C   0  0  0  0  0  0  0  0  0  0  0  0
   39.2740   23.4520   38.4460 N   0  0  0  0  0  0  0  0  0  0  0  0
   37.9330   23.5640   38.3140 C   0  0  0  0  0  0  0  0  0  0  0  0
   37.3220   23.0070   37.2570 N   0  0  0  0  0  0  0  0  0  0  0  0
   35.7730   22.5760   31.3210 C   0  0  0  0  0  0  0  0  0  0  0  0
   35.3570   20.1370   31.4480 C   0  0  0  0  0  0  0  0  0  0  0  0
   36.1340   19.1900   30.6320 N   0  0  0  0  0  0  0  0  0  0  0  0
   36.6680   19.2890   29.4070 C   0  0  0  0  0  0  0  0  0  0  0  0
   37.2940   18.1410   29.0930 N   0  0  0  0  0  0  0  0  0  0  0  0
   37.1730   17.2900   30.1090 C   0  0  0  0  0  0  0  0  0  0  0  0
   37.6510   15.9910   30.2450 C   0  0  0  0  0  0  0  0  0  0  0  0
   37.3570   15.3840   31.4120 N   0  0  0  0  0  0  0  0  0  0  0  0
   36.6460   16.0120   32.3700 C   0  0  0  0  0  0  0  0  0  0  0  0
   36.1810   17.2830   32.2300 N   0  0  0  0  0  0  0  0  0  0  0  0
   36.4460   17.9490   31.0740 C   0  0  0  0  0  0  0  0  0  0  0  0
   37.2927   21.0945   31.3617 H   0  0  0  0  0  0  0  0  0  0  0  0
   35.7649   20.6333   36.4645 H   0  0  0  0  0  0  0  0  0  0  0  0
   34.7236   19.9537   34.0541 H   0  0  0  0  0  0  0  0  0  0  0  0
   39.9824   21.6532   35.6643 H   0  0  0  0  0  0  0  0  0  0  0  0
   41.1107   22.7096   37.6594 H   0  0  0  0  0  0  0  0  0  0  0  0
   37.3464   24.1085   39.0686 H   0  0  0  0  0  0  0  0  0  0  0  0
   35.5193   23.2135   32.1808 H   0  0  0  0  0  0  0  0  0  0  0  0
   36.5422   23.0721   30.7110 H   0  0  0  0  0  0  0  0  0  0  0  0
   34.8732   22.4080   30.7110 H   0  0  0  0  0  0  0  0  0  0  0  0
   34.9789   19.6397   32.3534 H   0  0  0  0  0  0  0  0  0  0  0  0
   34.4859   20.5209   30.8968 H   0  0  0  0  0  0  0  0  0  0  0  0
   36.6040   20.1743   28.7573 H   0  0  0  0  0  0  0  0  0  0  0  0
   38.2299   15.4926   29.4535 H   0  0  0  0  0  0  0  0  0  0  0  0
   36.4326   15.4736   33.3052 H   0  0  0  0  0  0  0  0  0  0  0  0
  1  5  1  0
  2  3  2  0
  2  7  1  0
  4  3  1  0
  5  6  1  0
  5  4  2  0
  6  2  1  0
  7  8  2  0
  7 12  1  0
  8  9  1  0
  9 10  2  0
 11 10  1  0
 12 11  2  0
 13  1  1  0
 14  1  1  0
 15 23  1  0
 15 14  1  0
 16 15  1  0
 17 16  2  0
 17 18  1  0
 18 19  2  0
 18 23  1  0
 19 20  1  0
 20 21  2  0
 22 21  1  0
 23 22  2  0
  1 24  1  6
  3 25  1  0
  4 26  1  0
  8 27  1  0
  9 28  1  0
 11 29  1  0
 13 30  1  0
 13 31  1  0
 13 32  1  0
 14 33  1  0
 14 34  1  0
 16 35  1  0
 19 36  1  0
 21 37  1  0
M  ISO  8  24   8  25  14  26  14  27  14  28  14  29  14  30   8  31   8
M  ISO  6  32   8  33   8  34   8  35  14  36  14  37  14
M  END
>  <minimizedAffinity>  (1) 
-5.20589828

>  <minimizedRMSD>  (1) 
2.02904344

$$$$
