
     RDKit          3D

 39 41  0  0  1  0  0  0  0  0999 V2000
   37.2200   21.7640   35.2010 C   0  0  0  0  0  0  0  0  0  0  0  0
   36.0710   21.0170   35.4800 C   0  0  0  0  0  0  0  0  0  0  0  0
   35.5380   20.6350   34.2490 C   0  0  0  0  0  0  0  0  0  0  0  0
   36.4050   21.1800   33.3140 C   0  0  0  0  0  0  0  0  0  0  0  0
   37.3710   21.8290   33.9200 O   0  0  0  0  0  0  0  0  0  0  0  0
   38.0190   22.3190   36.2950 C   0  0  0  0  0  0  0  0  0  0  0  0
   39.4080   22.1930   36.3930 C   0  0  0  0  0  0  0  0  0  0  0  0
   40.0270   22.7850   37.4980 C   0  0  0  0  0  0  0  0  0  0  0  0
   39.2870   23.4420   38.4150 N   0  0  0  0  0  0  0  0  0  0  0  0
   37.9370   23.5480   38.2960 C   0  0  0  0  0  0  0  0  0  0  0  0
   37.3450   22.9870   37.2450 N   0  0  0  0  0  0  0  0  0  0  0  0
   36.3350   21.0990   31.8270 C   0  0  2  0  0  0  0  0  0  0  0  0
   35.6130   22.2930   31.2420 C   0  0  0  0  0  0  0  0  0  0  0  0
   35.6390   19.8240   31.4720 C   0  0  0  0  0  0  0  0  0  0  0  0
   36.5390   18.6420   31.6450 C   0  0  0  0  0  0  0  0  0  0  0  0
   37.0240   18.0970   30.3160 C   0  0  0  0  0  0  0  0  0  0  0  0
   36.6760   16.6230   30.3100 C   0  0  0  0  0  0  0  0  0  0  0  0
   36.5960   16.3020   31.7900 C   0  0  0  0  0  0  0  0  0  0  0  0
   35.8240   17.4920   32.3200 C   0  0  0  0  0  0  0  0  0  0  0  0
   35.6670   20.7778   36.4748 H   0  0  0  0  0  0  0  0  0  0  0  0
   34.6341   20.0366   34.0621 H   0  0  0  0  0  0  0  0  0  0  0  0
   39.9894   21.6509   35.6327 H   0  0  0  0  0  0  0  0  0  0  0  0
   41.1180   22.7151   37.6198 H   0  0  0  0  0  0  0  0  0  0  0  0
   37.3468   24.0860   39.0524 H   0  0  0  0  0  0  0  0  0  0  0  0
   37.3503   21.1094   31.4038 H   0  0  0  0  0  0  0  0  0  0  0  0
   35.2305   22.9255   32.0567 H   0  0  0  0  0  0  0  0  0  0  0  0
   36.3103   22.8755   30.6220 H   0  0  0  0  0  0  0  0  0  0  0  0
   34.7732   21.9461   30.6220 H   0  0  0  0  0  0  0  0  0  0  0  0
   35.3133   19.8747   30.4226 H   0  0  0  0  0  0  0  0  0  0  0  0
   34.7767   19.7027   32.1441 H   0  0  0  0  0  0  0  0  0  0  0  0
   37.3791   19.0086   32.2532 H   0  0  0  0  0  0  0  0  0  0  0  0
   36.5181   18.6114   29.4857 H   0  0  0  0  0  0  0  0  0  0  0  0
   38.1055   18.2535   30.1898 H   0  0  0  0  0  0  0  0  0  0  0  0
   35.7122   16.4436   29.8111 H   0  0  0  0  0  0  0  0  0  0  0  0
   37.4014   16.0021   29.7639 H   0  0  0  0  0  0  0  0  0  0  0  0
   36.0545   15.3611   31.9677 H   0  0  0  0  0  0  0  0  0  0  0  0
   37.5753   16.1553   32.2690 H   0  0  0  0  0  0  0  0  0  0  0  0
   35.8959   17.5618   33.4154 H   0  0  0  0  0  0  0  0  0  0  0  0
   34.7441   17.4532   32.1142 H   0  0  0  0  0  0  0  0  0  0  0  0
  1  2  2  0
  1  6  1  0
  3  2  1  0
  4  5  1  0
  4  3  2  0
  5  1  1  0
  6  7  2  0
  6 11  1  0
  7  8  1  0
  8  9  2  0
 10  9  1  0
 11 10  2  0
 12  4  1  0
 13 12  1  0
 14 15  1  0
 14 12  1  0
 15 19  1  0
 16 15  1  0
 17 16  1  0
 17 18  1  0
 18 19  1  0
  2 20  1  0
  3 21  1  0
  7 22  1  0
  8 23  1  0
 10 24  1  0
 12 25  1  6
 13 26  1  0
 13 27  1  0
 13 28  1  0
 14 29  1  0
 14 30  1  0
 15 31  1  0
 16 32  1  0
 16 33  1  0
 17 34  1  0
 17 35  1  0
 18 36  1  0
 18 37  1  0
 19 38  1  0
 19 39  1  0
M  ISO  8  20  14  21  14  22  14  23  14  24  14  25   8  26   8  27   8
M  ISO  8  28   8  29   8  30   8  31  13  32  13  33  13  34  13  35  13
M  ISO  4  36  13  37  13  38  13  39  13
M  END
>  <minimizedAffinity>  (1) 
-4.98432064

>  <minimizedRMSD>  (1) 
0.642633796

$$$$
