
     RDKit          3D

 33 35  0  0  1  0  0  0  0  0999 V2000
   37.2560   21.8720   35.1860 C   0  0  0  0  0  0  0  0  0  0  0  0
   36.2110   20.9710   35.3900 C   0  0  0  0  0  0  0  0  0  0  0  0
   35.6660   20.7000   34.1320 C   0  0  0  0  0  0  0  0  0  0  0  0
   36.4210   21.4570   33.2500 C   0  0  0  0  0  0  0  0  0  0  0  0
   37.3280   22.1140   33.9230 O   0  0  0  0  0  0  0  0  0  0  0  0
   38.0450   22.3720   36.3060 C   0  0  0  0  0  0  0  0  0  0  0  0
   39.4280   22.2170   36.4220 C   0  0  0  0  0  0  0  0  0  0  0  0
   40.0290   22.7710   37.5630 C   0  0  0  0  0  0  0  0  0  0  0  0
   39.2780   23.4140   38.4810 N   0  0  0  0  0  0  0  0  0  0  0  0
   37.9390   23.5470   38.3400 C   0  0  0  0  0  0  0  0  0  0  0  0
   37.3460   23.0280   37.2640 N   0  0  0  0  0  0  0  0  0  0  0  0
   36.2780   21.5540   31.7830 C   0  0  2  0  0  0  0  0  0  0  0  0
   35.7310   22.9000   31.3620 C   0  0  0  0  0  0  0  0  0  0  0  0
   35.3790   20.4520   31.3180 C   0  0  0  0  0  0  0  0  0  0  0  0
   36.1180   19.3680   30.6200 C   0  0  0  0  0  0  0  0  0  0  0  0
   36.4370   18.2110   31.3120 C   0  0  0  0  0  0  0  0  0  0  0  0
   37.1200   17.3270   30.4900 C   0  0  0  0  0  0  0  0  0  0  0  0
   37.1880   17.9870   29.3220 N   0  0  0  0  0  0  0  0  0  0  0  0
   36.6170   19.1540   29.3920 N   0  0  0  0  0  0  0  0  0  0  0  0
   35.8804   20.5549   36.3531 H   0  0  0  0  0  0  0  0  0  0  0  0
   34.8240   20.0333   33.8943 H   0  0  0  0  0  0  0  0  0  0  0  0
   40.0164   21.6877   35.6581 H   0  0  0  0  0  0  0  0  0  0  0  0
   41.1155   22.6807   37.7092 H   0  0  0  0  0  0  0  0  0  0  0  0
   37.3477   24.0758   39.1021 H   0  0  0  0  0  0  0  0  0  0  0  0
   37.2706   21.4535   31.3197 H   0  0  0  0  0  0  0  0  0  0  0  0
   35.4897   23.4937   32.2561 H   0  0  0  0  0  0  0  0  0  0  0  0
   36.4848   23.4307   30.7619 H   0  0  0  0  0  0  0  0  0  0  0  0
   34.8207   22.7544   30.7619 H   0  0  0  0  0  0  0  0  0  0  0  0
   34.8665   20.0230   32.1917 H   0  0  0  0  0  0  0  0  0  0  0  0
   34.6655   20.8842   30.6010 H   0  0  0  0  0  0  0  0  0  0  0  0
   36.1841   18.0202   32.3654 H   0  0  0  0  0  0  0  0  0  0  0  0
   37.5109   16.3284   30.7349 H   0  0  0  0  0  0  0  0  0  0  0  0
   37.6378   17.6143   28.4736 H   0  0  0  0  0  0  0  0  0  0  0  0
  1  2  2  0
  1  6  1  0
  3  2  1  0
  4  5  1  0
  4  3  2  0
  5  1  1  0
  6  7  2  0
  6 11  1  0
  7  8  1  0
  8  9  2  0
 10  9  1  0
 11 10  2  0
 12  4  1  0
 13 12  1  0
 14 12  1  0
 15 16  1  0
 15 14  1  0
 17 16  2  0
 18 19  1  0
 18 17  1  0
 19 15  2  0
  2 20  1  0
  3 21  1  0
  7 22  1  0
  8 23  1  0
 10 24  1  0
 12 25  1  6
 13 26  1  0
 13 27  1  0
 13 28  1  0
 14 29  1  0
 14 30  1  0
 16 31  1  0
 17 32  1  0
 18 33  1  0
M  ISO  8  20  14  21  14  22  14  23  14  24  14  25   8  26   8  27   8
M  ISO  6  28   8  29   8  30   8  31  14  32  14  33   9
M  END
>  <minimizedAffinity>  (1) 
-4.87225723

>  <minimizedRMSD>  (1) 
1.26890457

$$$$
