
     RDKit          3D

 27 28  0  0  1  0  0  0  0  0999 V2000
   37.2220   21.7510   35.1790 C   0  0  0  0  0  0  0  0  0  0  0  0
   36.0810   20.9760   35.4440 C   0  0  0  0  0  0  0  0  0  0  0  0
   35.5640   20.5980   34.2010 C   0  0  0  0  0  0  0  0  0  0  0  0
   36.4260   21.1680   33.2760 C   0  0  0  0  0  0  0  0  0  0  0  0
   37.3770   21.8290   33.9010 O   0  0  0  0  0  0  0  0  0  0  0  0
   38.0040   22.3090   36.2770 C   0  0  0  0  0  0  0  0  0  0  0  0
   39.3930   22.1970   36.3910 C   0  0  0  0  0  0  0  0  0  0  0  0
   40.0100   22.7860   37.4950 C   0  0  0  0  0  0  0  0  0  0  0  0
   39.2560   23.4370   38.4080 N   0  0  0  0  0  0  0  0  0  0  0  0
   37.9100   23.5310   38.2770 C   0  0  0  0  0  0  0  0  0  0  0  0
   37.3000   22.9730   37.2270 N   0  0  0  0  0  0  0  0  0  0  0  0
   36.3640   21.0980   31.7970 C   0  0  2  0  0  0  0  0  0  0  0  0
   35.6190   22.2780   31.2140 C   0  0  0  0  0  0  0  0  0  0  0  0
   35.7020   19.8090   31.4280 C   0  0  0  0  0  0  0  0  0  0  0  0
   36.8230   18.4250   31.3170 S   0  0  0  0  0  0  0  0  0  0  0  0
   35.6747   20.7177   36.4331 H   0  0  0  0  0  0  0  0  0  0  0  0
   34.6725   19.9853   34.0013 H   0  0  0  0  0  0  0  0  0  0  0  0
   39.9819   21.6603   35.6326 H   0  0  0  0  0  0  0  0  0  0  0  0
   41.1008   22.7210   37.6211 H   0  0  0  0  0  0  0  0  0  0  0  0
   37.3198   24.0667   39.0351 H   0  0  0  0  0  0  0  0  0  0  0  0
   37.3814   21.1374   31.3805 H   0  0  0  0  0  0  0  0  0  0  0  0
   35.2250   22.9021   32.0296 H   0  0  0  0  0  0  0  0  0  0  0  0
   36.3045   22.8745   30.5942 H   0  0  0  0  0  0  0  0  0  0  0  0
   34.7856   21.9156   30.5942 H   0  0  0  0  0  0  0  0  0  0  0  0
   34.9427   19.5792   32.1900 H   0  0  0  0  0  0  0  0  0  0  0  0
   35.2677   19.9487   30.4271 H   0  0  0  0  0  0  0  0  0  0  0  0
   37.1604   18.0084   32.5777 H   0  0  0  0  0  0  0  0  0  0  0  0
  1  2  2  0
  1  6  1  0
  3  2  1  0
  4  5  1  0
  4  3  2  0
  5  1  1  0
  6  7  2  0
  6 11  1  0
  7  8  1  0
  8  9  2  0
 10  9  1  0
 11 10  2  0
 12  4  1  0
 13 12  1  0
 14 12  1  0
 15 14  1  0
  2 16  1  0
  3 17  1  0
  7 18  1  0
  8 19  1  0
 10 20  1  0
 12 21  1  6
 13 22  1  0
 13 23  1  0
 13 24  1  0
 14 25  1  0
 14 26  1  0
 15 27  1  0
M  ISO  8  16  14  17  14  18  14  19  14  20  14  21   8  22   8  23   8
M  ISO  4  24   8  25   8  26   8  27  11
M  END
>  <minimizedAffinity>  (1) 
-4.2917366

>  <minimizedRMSD>  (1) 
0.228646249

$$$$
