
     RDKit          3D

 32 34  0  0  1  0  0  0  0  0999 V2000
   37.2460   21.8560   35.1440 C   0  0  0  0  0  0  0  0  0  0  0  0
   36.1900   20.9680   35.3510 C   0  0  0  0  0  0  0  0  0  0  0  0
   35.6540   20.6910   34.0930 C   0  0  0  0  0  0  0  0  0  0  0  0
   36.4270   21.4340   33.2160 C   0  0  0  0  0  0  0  0  0  0  0  0
   37.3400   22.0930   33.8790 O   0  0  0  0  0  0  0  0  0  0  0  0
   38.0350   22.3580   36.2720 C   0  0  0  0  0  0  0  0  0  0  0  0
   39.4170   22.2120   36.3920 C   0  0  0  0  0  0  0  0  0  0  0  0
   40.0190   22.7610   37.5340 C   0  0  0  0  0  0  0  0  0  0  0  0
   39.2650   23.3980   38.4590 N   0  0  0  0  0  0  0  0  0  0  0  0
   37.9210   23.5220   38.3100 C   0  0  0  0  0  0  0  0  0  0  0  0
   37.3310   23.0080   37.2350 N   0  0  0  0  0  0  0  0  0  0  0  0
   36.2940   21.5180   31.7480 C   0  0  2  0  0  0  0  0  0  0  0  0
   35.7220   22.8440   31.3020 C   0  0  0  0  0  0  0  0  0  0  0  0
   35.4580   20.3820   31.2630 C   0  0  0  0  0  0  0  0  0  0  0  0
   36.1370   19.3700   30.5190 N   0  0  0  0  0  0  0  0  0  0  0  0
   36.6740   19.1080   29.3230 C   0  0  0  0  0  0  0  0  0  0  0  0
   37.1700   17.8600   29.2720 N   0  0  0  0  0  0  0  0  0  0  0  0
   36.9330   17.3100   30.4920 C   0  0  0  0  0  0  0  0  0  0  0  0
   36.3140   18.2370   31.2190 N   0  0  0  0  0  0  0  0  0  0  0  0
   35.8475   20.5656   36.3158 H   0  0  0  0  0  0  0  0  0  0  0  0
   34.8077   20.0309   33.8518 H   0  0  0  0  0  0  0  0  0  0  0  0
   40.0083   21.6898   35.6255 H   0  0  0  0  0  0  0  0  0  0  0  0
   41.1061   22.6733   37.6775 H   0  0  0  0  0  0  0  0  0  0  0  0
   37.3248   24.0438   39.0730 H   0  0  0  0  0  0  0  0  0  0  0  0
   37.2986   21.4484   31.3053 H   0  0  0  0  0  0  0  0  0  0  0  0
   35.4620   23.4467   32.1847 H   0  0  0  0  0  0  0  0  0  0  0  0
   36.4685   23.3809   30.6983 H   0  0  0  0  0  0  0  0  0  0  0  0
   34.8192   22.6694   30.6983 H   0  0  0  0  0  0  0  0  0  0  0  0
   35.0014   19.9028   32.1416 H   0  0  0  0  0  0  0  0  0  0  0  0
   34.7362   20.8270   30.5623 H   0  0  0  0  0  0  0  0  0  0  0  0
   36.7058   19.8227   28.4874 H   0  0  0  0  0  0  0  0  0  0  0  0
   37.2013   16.2937   30.8163 H   0  0  0  0  0  0  0  0  0  0  0  0
  1  2  2  0
  1  6  1  0
  3  2  1  0
  4  5  1  0
  4  3  2  0
  5  1  1  0
  6  7  2  0
  6 11  1  0
  7  8  1  0
  8  9  2  0
 10  9  1  0
 11 10  2  0
 12  4  1  0
 13 12  1  0
 14 12  1  0
 15 19  1  0
 15 14  1  0
 16 15  1  0
 17 16  2  0
 17 18  1  0
 18 19  2  0
  2 20  1  0
  3 21  1  0
  7 22  1  0
  8 23  1  0
 10 24  1  0
 12 25  1  6
 13 26  1  0
 13 27  1  0
 13 28  1  0
 14 29  1  0
 14 30  1  0
 16 31  1  0
 18 32  1  0
M  ISO  8  20  14  21  14  22  14  23  14  24  14  25   8  26   8  27   8
M  ISO  5  28   8  29   8  30   8  31  14  32  14
M  END
>  <minimizedAffinity>  (1) 
-4.77975559

>  <minimizedRMSD>  (1) 
1.26894033

$$$$
