
     RDKit          3D

 45 48  0  0  1  0  0  0  0  0999 V2000
   36.2310   21.1080   31.9500 C   0  0  2  0  0  0  0  0  0  0  0  0
   37.2030   21.7620   35.2800 C   0  0  0  0  0  0  0  0  0  0  0  0
   36.0800   21.0050   35.5720 C   0  0  0  0  0  0  0  0  0  0  0  0
   35.5240   20.6280   34.3450 C   0  0  0  0  0  0  0  0  0  0  0  0
   36.3740   21.2020   33.4020 C   0  0  0  0  0  0  0  0  0  0  0  0
   37.3390   21.8530   33.9910 O   0  0  0  0  0  0  0  0  0  0  0  0
   38.0420   22.3310   36.3480 C   0  0  0  0  0  0  0  0  0  0  0  0
   39.4150   22.2010   36.4340 C   0  0  0  0  0  0  0  0  0  0  0  0
   40.0430   22.8130   37.5240 C   0  0  0  0  0  0  0  0  0  0  0  0
   39.3220   23.4950   38.4390 N   0  0  0  0  0  0  0  0  0  0  0  0
   37.9800   23.6070   38.3290 C   0  0  0  0  0  0  0  0  0  0  0  0
   37.3830   23.0270   37.2970 N   0  0  0  0  0  0  0  0  0  0  0  0
   35.7860   22.4420   31.3420 C   0  0  0  0  0  0  0  0  0  0  0  0
   35.3290   20.0270   31.5370 C   0  0  0  0  0  0  0  0  0  0  0  0
   35.8660   18.7260   31.3780 N   0  0  0  0  0  0  0  0  0  0  0  0
   36.7040   18.1060   30.5290 C   0  0  0  0  0  0  0  0  0  0  0  0
   36.8480   16.8150   30.8800 N   0  0  0  0  0  0  0  0  0  0  0  0
   36.0690   16.6330   31.9890 C   0  0  0  0  0  0  0  0  0  0  0  0
   35.5020   17.8000   32.2500 N   0  0  0  0  0  0  0  0  0  0  0  0
   35.9050   15.4000   32.7240 N   0  0  0  0  0  0  0  0  0  0  0  0
   34.7070   14.9790   33.1430 C   0  0  0  0  0  0  0  0  0  0  0  0
   34.7450   13.7830   33.8270 C   0  0  0  0  0  0  0  0  0  0  0  0
   33.4620   13.2130   34.3450 C   0  0  0  0  0  0  0  0  0  0  0  0
   35.8940   13.0640   34.0720 C   0  0  0  0  0  0  0  0  0  0  0  0
   35.9130   11.9800   34.6940 O   0  0  0  0  0  0  0  0  0  0  0  0
   37.0700   13.5430   33.6220 N   0  0  0  0  0  0  0  0  0  0  0  0
   37.0570   14.7050   32.9550 C   0  0  0  0  0  0  0  0  0  0  0  0
   38.1750   15.1540   32.5300 O   0  0  0  0  0  0  0  0  0  0  0  0
   37.2301   20.8627   31.5605 H   0  0  0  0  0  0  0  0  0  0  0  0
   35.7001   20.7504   36.5724 H   0  0  0  0  0  0  0  0  0  0  0  0
   34.6250   20.0199   34.1662 H   0  0  0  0  0  0  0  0  0  0  0  0
   39.9881   21.6418   35.6798 H   0  0  0  0  0  0  0  0  0  0  0  0
   41.1346   22.7378   37.6365 H   0  0  0  0  0  0  0  0  0  0  0  0
   37.3975   24.1652   39.0767 H   0  0  0  0  0  0  0  0  0  0  0  0
   35.5493   23.1517   32.1484 H   0  0  0  0  0  0  0  0  0  0  0  0
   36.5966   22.8503   30.7205 H   0  0  0  0  0  0  0  0  0  0  0  0
   34.8926   22.2818   30.7205 H   0  0  0  0  0  0  0  0  0  0  0  0
   34.5334   19.9603   32.2936 H   0  0  0  0  0  0  0  0  0  0  0  0
   35.0093   20.3134   30.5242 H   0  0  0  0  0  0  0  0  0  0  0  0
   37.2000   18.5847   29.6718 H   0  0  0  0  0  0  0  0  0  0  0  0
   33.7766   15.5361   32.9587 H   0  0  0  0  0  0  0  0  0  0  0  0
   33.4757   13.2191   35.4449 H   0  0  0  0  0  0  0  0  0  0  0  0
   32.6189   13.8212   33.9854 H   0  0  0  0  0  0  0  0  0  0  0  0
   33.3482   12.1797   33.9854 H   0  0  0  0  0  0  0  0  0  0  0  0
   37.9498   13.0329   33.7853 H   0  0  0  0  0  0  0  0  0  0  0  0
  1  5  1  0
  2  3  2  0
  2  7  1  0
  4  3  1  0
  5  6  1  0
  5  4  2  0
  6  2  1  0
  7  8  2  0
  7 12  1  0
  8  9  1  0
  9 10  2  0
 11 10  1  0
 12 11  2  0
 13  1  1  0
 14  1  1  0
 15 14  1  0
 15 19  1  0
 16 17  2  0
 16 15  1  0
 17 18  1  0
 18 19  2  0
 18 20  1  0
 20 27  1  0
 20 21  1  0
 21 22  2  0
 22 24  1  0
 22 23  1  0
 24 25  2  0
 26 24  1  0
 27 26  1  0
 28 27  2  0
  1 29  1  6
  3 30  1  0
  4 31  1  0
  8 32  1  0
  9 33  1  0
 11 34  1  0
 13 35  1  0
 13 36  1  0
 13 37  1  0
 14 38  1  0
 14 39  1  0
 16 40  1  0
 21 41  1  0
 23 42  1  0
 23 43  1  0
 23 44  1  0
 26 45  1  0
M  ISO  8  29   8  30  14  31  14  32  14  33  14  34  14  35   8  36   8
M  ISO  8  37   8  38   8  39   8  40  14  41  14  42   8  43   8  44   8
M  ISO  1  45   9
M  END
>  <minimizedAffinity>  (1) 
-5.84200191

>  <minimizedRMSD>  (1) 
1.97093451

$$$$
