
     RDKit          3D

 42 45  0  0  1  0  0  0  0  0999 V2000
   36.3120   21.6340   31.7250 C   0  0  2  0  0  0  0  0  0  0  0  0
   37.2610   21.9030   35.1140 C   0  0  0  0  0  0  0  0  0  0  0  0
   36.1840   21.0440   35.3050 C   0  0  0  0  0  0  0  0  0  0  0  0
   35.6460   20.8000   34.0390 C   0  0  0  0  0  0  0  0  0  0  0  0
   36.4530   21.5420   33.1780 C   0  0  0  0  0  0  0  0  0  0  0  0
   37.3840   22.1700   33.8460 O   0  0  0  0  0  0  0  0  0  0  0  0
   38.0720   22.3780   36.2490 C   0  0  0  0  0  0  0  0  0  0  0  0
   39.4380   22.2130   36.3700 C   0  0  0  0  0  0  0  0  0  0  0  0
   40.0410   22.7320   37.5210 C   0  0  0  0  0  0  0  0  0  0  0  0
   39.3060   23.3590   38.4550 N   0  0  0  0  0  0  0  0  0  0  0  0
   37.9650   23.5080   38.3120 C   0  0  0  0  0  0  0  0  0  0  0  0
   37.3860   23.0200   37.2260 N   0  0  0  0  0  0  0  0  0  0  0  0
   35.8240   23.0230   31.2970 C   0  0  0  0  0  0  0  0  0  0  0  0
   35.4270   20.5950   31.1810 C   0  0  0  0  0  0  0  0  0  0  0  0
   35.9780   19.3230   30.8960 N   0  0  0  0  0  0  0  0  0  0  0  0
   36.7190   18.7590   29.9250 C   0  0  0  0  0  0  0  0  0  0  0  0
   36.9400   17.4640   30.1910 N   0  0  0  0  0  0  0  0  0  0  0  0
   36.3150   17.2080   31.3750 C   0  0  0  0  0  0  0  0  0  0  0  0
   35.7560   18.3480   31.7560 N   0  0  0  0  0  0  0  0  0  0  0  0
   36.2710   15.9440   32.0740 N   0  0  0  0  0  0  0  0  0  0  0  0
   35.1210   15.2680   32.2460 C   0  0  0  0  0  0  0  0  0  0  0  0
   35.2450   14.0660   32.9430 C   0  0  0  0  0  0  0  0  0  0  0  0
   36.4440   13.5920   33.4240 C   0  0  0  0  0  0  0  0  0  0  0  0
   36.5490   12.5110   34.0490 O   0  0  0  0  0  0  0  0  0  0  0  0
   37.5660   14.2940   33.2330 N   0  0  0  0  0  0  0  0  0  0  0  0
   37.4310   15.4580   32.5560 C   0  0  0  0  0  0  0  0  0  0  0  0
   38.5020   16.1310   32.3720 O   0  0  0  0  0  0  0  0  0  0  0  0
   37.3156   21.4685   31.3062 H   0  0  0  0  0  0  0  0  0  0  0  0
   35.8268   20.6375   36.2627 H   0  0  0  0  0  0  0  0  0  0  0  0
   34.7837   20.1677   33.7809 H   0  0  0  0  0  0  0  0  0  0  0  0
   40.0254   21.6968   35.5963 H   0  0  0  0  0  0  0  0  0  0  0  0
   41.1267   22.6258   37.6626 H   0  0  0  0  0  0  0  0  0  0  0  0
   37.3717   24.0232   39.0818 H   0  0  0  0  0  0  0  0  0  0  0  0
   35.6113   23.6283   32.1905 H   0  0  0  0  0  0  0  0  0  0  0  0
   36.6026   23.5163   30.6967 H   0  0  0  0  0  0  0  0  0  0  0  0
   34.9079   22.9209   30.6967 H   0  0  0  0  0  0  0  0  0  0  0  0
   34.6176   20.4428   31.9102 H   0  0  0  0  0  0  0  0  0  0  0  0
   35.1246   20.9850   30.1979 H   0  0  0  0  0  0  0  0  0  0  0  0
   37.0921   19.2877   29.0355 H   0  0  0  0  0  0  0  0  0  0  0  0
   34.1562   15.6350   31.8660 H   0  0  0  0  0  0  0  0  0  0  0  0
   34.3389   13.4670   33.1168 H   0  0  0  0  0  0  0  0  0  0  0  0
   38.4791   13.9680   33.5806 H   0  0  0  0  0  0  0  0  0  0  0  0
  1  5  1  0
  2  3  2  0
  2  7  1  0
  4  3  1  0
  5  6  1  0
  5  4  2  0
  6  2  1  0
  7  8  2  0
  7 12  1  0
  8  9  1  0
  9 10  2  0
 11 10  1  0
 12 11  2  0
 13  1  1  0
 14  1  1  0
 15 14  1  0
 15 19  1  0
 16 17  2  0
 16 15  1  0
 17 18  1  0
 18 19  2  0
 18 20  1  0
 20 21  1  0
 20 26  1  0
 21 22  2  0
 22 23  1  0
 23 24  2  0
 25 23  1  0
 26 25  1  0
 27 26  2  0
  1 28  1  6
  3 29  1  0
  4 30  1  0
  8 31  1  0
  9 32  1  0
 11 33  1  0
 13 34  1  0
 13 35  1  0
 13 36  1  0
 14 37  1  0
 14 38  1  0
 16 39  1  0
 21 40  1  0
 22 41  1  0
 25 42  1  0
M  ISO  8  28   8  29  14  30  14  31  14  32  14  33  14  34   8  35   8
M  ISO  7  36   8  37   8  38   8  39  14  40  14  41  14  42   9
M  END
>  <minimizedAffinity>  (1) 
-5.70893002

>  <minimizedRMSD>  (1) 
1.28227746

$$$$
