
     RDKit          3D

 45 48  0  0  1  0  0  0  0  0999 V2000
   36.2990   21.6570   31.6960 C   0  0  2  0  0  0  0  0  0  0  0  0
   37.2680   21.9020   35.0840 C   0  0  0  0  0  0  0  0  0  0  0  0
   36.1890   21.0510   35.2660 C   0  0  0  0  0  0  0  0  0  0  0  0
   35.6420   20.8170   34.0010 C   0  0  0  0  0  0  0  0  0  0  0  0
   36.4520   21.5600   33.1440 C   0  0  0  0  0  0  0  0  0  0  0  0
   37.3820   22.1730   33.8170 O   0  0  0  0  0  0  0  0  0  0  0  0
   38.0860   22.3660   36.2150 C   0  0  0  0  0  0  0  0  0  0  0  0
   39.4550   22.1990   36.3270 C   0  0  0  0  0  0  0  0  0  0  0  0
   40.0560   22.7160   37.4840 C   0  0  0  0  0  0  0  0  0  0  0  0
   39.3270   23.3390   38.4240 N   0  0  0  0  0  0  0  0  0  0  0  0
   37.9820   23.4870   38.2850 C   0  0  0  0  0  0  0  0  0  0  0  0
   37.3830   23.0070   37.1970 N   0  0  0  0  0  0  0  0  0  0  0  0
   35.7940   23.0380   31.2710 C   0  0  0  0  0  0  0  0  0  0  0  0
   35.4450   20.5980   31.1410 C   0  0  0  0  0  0  0  0  0  0  0  0
   36.0220   19.3320   30.8830 N   0  0  0  0  0  0  0  0  0  0  0  0
   36.7430   18.7550   29.9050 C   0  0  0  0  0  0  0  0  0  0  0  0
   37.0140   17.4780   30.2110 N   0  0  0  0  0  0  0  0  0  0  0  0
   36.4380   17.2540   31.4320 C   0  0  0  0  0  0  0  0  0  0  0  0
   35.8590   18.3850   31.7910 N   0  0  0  0  0  0  0  0  0  0  0  0
   36.2010   13.6810   33.6000 C   0  0  0  0  0  0  0  0  0  0  0  0
   35.0430   14.4030   33.3100 C   0  0  0  0  0  0  0  0  0  0  0  0
   35.2030   15.5800   32.5840 C   0  0  0  0  0  0  0  0  0  0  0  0
   36.4650   15.9810   32.1900 C   0  0  0  0  0  0  0  0  0  0  0  0
   37.6020   15.2560   32.4850 C   0  0  0  0  0  0  0  0  0  0  0  0
   37.4570   14.0880   33.2040 C   0  0  0  0  0  0  0  0  0  0  0  0
   35.9680   12.1950   34.5190 S   0  0  0  0  0  0  0  0  0  0  0  0
   37.1960   11.3740   34.3920 O   0  0  0  0  0  0  0  0  0  0  0  0
   35.6850   12.4590   35.9560 O   0  0  0  0  0  0  0  0  0  0  0  0
   37.3053   21.5135   31.2756 H   0  0  0  0  0  0  0  0  0  0  0  0
   35.8320   20.6392   36.2215 H   0  0  0  0  0  0  0  0  0  0  0  0
   34.7745   20.1921   33.7423 H   0  0  0  0  0  0  0  0  0  0  0  0
   40.0413   21.6876   35.5494 H   0  0  0  0  0  0  0  0  0  0  0  0
   41.1419   22.6094   37.6236 H   0  0  0  0  0  0  0  0  0  0  0  0
   37.3955   23.9977   39.0630 H   0  0  0  0  0  0  0  0  0  0  0  0
   35.5741   23.6393   32.1655 H   0  0  0  0  0  0  0  0  0  0  0  0
   36.5660   23.5421   30.6710 H   0  0  0  0  0  0  0  0  0  0  0  0
   34.8790   22.9251   30.6710 H   0  0  0  0  0  0  0  0  0  0  0  0
   34.6200   20.4403   31.8513 H   0  0  0  0  0  0  0  0  0  0  0  0
   35.1624   20.9732   30.1463 H   0  0  0  0  0  0  0  0  0  0  0  0
   37.0654   19.2604   28.9827 H   0  0  0  0  0  0  0  0  0  0  0  0
   34.0514   14.0589   33.6391 H   0  0  0  0  0  0  0  0  0  0  0  0
   34.3254   16.1902   32.3243 H   0  0  0  0  0  0  0  0  0  0  0  0
   38.5940   15.5995   32.1565 H   0  0  0  0  0  0  0  0  0  0  0  0
   38.3398   13.4839   33.4603 H   0  0  0  0  0  0  0  0  0  0  0  0
   34.8794   11.5355   34.0122 H   0  0  0  0  0  0  0  0  0  0  0  0
  1  5  1  0
  2  3  2  0
  2  7  1  0
  4  3  1  0
  5  6  1  0
  5  4  2  0
  6  2  1  0
  7  8  2  0
  7 12  1  0
  8  9  1  0
  9 10  2  0
 11 10  1  0
 12 11  2  0
 13  1  1  0
 14  1  1  0
 15 14  1  0
 15 19  1  0
 16 17  2  0
 16 15  1  0
 17 18  1  0
 18 19  2  0
 18 23  1  0
 20 26  1  0
 21 20  2  0
 22 21  1  0
 23 24  1  0
 23 22  2  0
 24 25  2  0
 25 20  1  0
 26 28  2  0
 27 26  2  0
  1 29  1  6
  3 30  1  0
  4 31  1  0
  8 32  1  0
  9 33  1  0
 11 34  1  0
 13 35  1  0
 13 36  1  0
 13 37  1  0
 14 38  1  0
 14 39  1  0
 16 40  1  0
 21 41  1  0
 22 42  1  0
 24 43  1  0
 25 44  1  0
 26 45  1  0
M  ISO  8  29   8  30  14  31  14  32  14  33  14  34  14  35   8  36   8
M  ISO  8  37   8  38   8  39   8  40  14  41  14  42  14  43  14  44  14
M  ISO  1  45  11
M  END
>  <minimizedAffinity>  (1) 
-5.52486515

>  <minimizedRMSD>  (1) 
1.67382681

$$$$
