
     RDKit          3D

 39 42  0  0  1  0  0  0  0  0999 V2000
   36.1920   21.2380   32.0080 C   0  0  2  0  0  0  0  0  0  0  0  0
   37.2400   21.8030   35.3340 C   0  0  0  0  0  0  0  0  0  0  0  0
   36.1270   21.0340   35.6310 C   0  0  0  0  0  0  0  0  0  0  0  0
   35.5480   20.6940   34.4070 C   0  0  0  0  0  0  0  0  0  0  0  0
   36.3690   21.2910   33.4550 C   0  0  0  0  0  0  0  0  0  0  0  0
   37.3410   21.9260   34.0440 O   0  0  0  0  0  0  0  0  0  0  0  0
   38.1030   22.3450   36.3930 C   0  0  0  0  0  0  0  0  0  0  0  0
   39.4750   22.1830   36.4620 C   0  0  0  0  0  0  0  0  0  0  0  0
   40.1270   22.7750   37.5480 C   0  0  0  0  0  0  0  0  0  0  0  0
   39.4310   23.4650   38.4750 N   0  0  0  0  0  0  0  0  0  0  0  0
   38.0910   23.6080   38.3830 C   0  0  0  0  0  0  0  0  0  0  0  0
   37.4620   23.0520   37.3580 N   0  0  0  0  0  0  0  0  0  0  0  0
   35.7830   22.5990   31.4400 C   0  0  0  0  0  0  0  0  0  0  0  0
   35.2450   20.1980   31.5910 C   0  0  0  0  0  0  0  0  0  0  0  0
   35.6990   18.8580   31.5350 N   0  0  0  0  0  0  0  0  0  0  0  0
   36.6230   18.1530   30.8560 C   0  0  0  0  0  0  0  0  0  0  0  0
   36.6000   16.8670   31.2240 N   0  0  0  0  0  0  0  0  0  0  0  0
   35.6250   16.7600   32.1670 C   0  0  0  0  0  0  0  0  0  0  0  0
   35.1160   17.9730   32.3210 N   0  0  0  0  0  0  0  0  0  0  0  0
   35.2180   15.5290   32.8800 C   0  0  0  0  0  0  0  0  0  0  0  0
   35.9410   14.3550   32.9240 C   0  0  0  0  0  0  0  0  0  0  0  0
   35.2490   13.4600   33.6690 N   0  0  0  0  0  0  0  0  0  0  0  0
   34.1150   14.0800   34.0770 C   0  0  0  0  0  0  0  0  0  0  0  0
   34.0960   15.3370   33.5980 N   0  0  0  0  0  0  0  0  0  0  0  0
   37.1736   20.9692   31.5906 H   0  0  0  0  0  0  0  0  0  0  0  0
   35.7704   20.7482   36.6316 H   0  0  0  0  0  0  0  0  0  0  0  0
   34.6453   20.0897   34.2339 H   0  0  0  0  0  0  0  0  0  0  0  0
   40.0270   21.6152   35.6985 H   0  0  0  0  0  0  0  0  0  0  0  0
   41.2181   22.6772   37.6475 H   0  0  0  0  0  0  0  0  0  0  0  0
   37.5334   24.1744   39.1434 H   0  0  0  0  0  0  0  0  0  0  0  0
   35.5742   23.2937   32.2669 H   0  0  0  0  0  0  0  0  0  0  0  0
   36.6005   22.9993   30.8224 H   0  0  0  0  0  0  0  0  0  0  0  0
   34.8803   22.4823   30.8224 H   0  0  0  0  0  0  0  0  0  0  0  0
   34.4002   20.2261   32.2949 H   0  0  0  0  0  0  0  0  0  0  0  0
   35.0109   20.4484   30.5458 H   0  0  0  0  0  0  0  0  0  0  0  0
   37.3034   18.5760   30.1023 H   0  0  0  0  0  0  0  0  0  0  0  0
   36.9116   14.1765   32.4381 H   0  0  0  0  0  0  0  0  0  0  0  0
   33.3321   13.6261   34.7024 H   0  0  0  0  0  0  0  0  0  0  0  0
   33.3519   16.0319   33.7537 H   0  0  0  0  0  0  0  0  0  0  0  0
  1  5  1  0
  2  3  2  0
  2  7  1  0
  4  3  1  0
  5  6  1  0
  5  4  2  0
  6  2  1  0
  7  8  2  0
  7 12  1  0
  8  9  1  0
  9 10  2  0
 11 10  1  0
 12 11  2  0
 13  1  1  0
 14  1  1  0
 15 14  1  0
 15 19  1  0
 16 17  2  0
 16 15  1  0
 17 18  1  0
 18 19  2  0
 18 20  1  0
 20 21  2  0
 20 24  1  0
 21 22  1  0
 22 23  2  0
 24 23  1  0
  1 25  1  6
  3 26  1  0
  4 27  1  0
  8 28  1  0
  9 29  1  0
 11 30  1  0
 13 31  1  0
 13 32  1  0
 13 33  1  0
 14 34  1  0
 14 35  1  0
 16 36  1  0
 21 37  1  0
 23 38  1  0
 24 39  1  0
M  ISO  8  25   8  26  14  27  14  28  14  29  14  30  14  31   8  32   8
M  ISO  7  33   8  34   8  35   8  36  14  37  14  38  14  39   9
M  END
>  <minimizedAffinity>  (1) 
-5.4563365

>  <minimizedRMSD>  (1) 
1.86802518

$$$$
