
     RDKit          3D

 39 42  0  0  1  0  0  0  0  0999 V2000
   36.2700   21.1960   31.9140 C   0  0  2  0  0  0  0  0  0  0  0  0
   37.2220   21.7840   35.2630 C   0  0  0  0  0  0  0  0  0  0  0  0
   36.1070   21.0060   35.5300 C   0  0  0  0  0  0  0  0  0  0  0  0
   35.5590   20.6510   34.2930 C   0  0  0  0  0  0  0  0  0  0  0  0
   36.4060   21.2560   33.3660 C   0  0  0  0  0  0  0  0  0  0  0  0
   37.3580   21.9040   33.9760 O   0  0  0  0  0  0  0  0  0  0  0  0
   38.0490   22.3390   36.3480 C   0  0  0  0  0  0  0  0  0  0  0  0
   39.4210   22.1990   36.4460 C   0  0  0  0  0  0  0  0  0  0  0  0
   40.0290   22.8040   37.5570 C   0  0  0  0  0  0  0  0  0  0  0  0
   39.2930   23.4790   38.4670 N   0  0  0  0  0  0  0  0  0  0  0  0
   37.9570   23.5960   38.3410 C   0  0  0  0  0  0  0  0  0  0  0  0
   37.3570   23.0320   37.2980 N   0  0  0  0  0  0  0  0  0  0  0  0
   35.7970   22.5330   31.3350 C   0  0  0  0  0  0  0  0  0  0  0  0
   35.3900   20.1040   31.4720 C   0  0  0  0  0  0  0  0  0  0  0  0
   35.9670   18.8300   31.2430 N   0  0  0  0  0  0  0  0  0  0  0  0
   36.7580   18.2660   30.3170 C   0  0  0  0  0  0  0  0  0  0  0  0
   36.9820   16.9740   30.6300 N   0  0  0  0  0  0  0  0  0  0  0  0
   36.3060   16.7330   31.7870 C   0  0  0  0  0  0  0  0  0  0  0  0
   35.7070   17.8750   32.1260 N   0  0  0  0  0  0  0  0  0  0  0  0
   36.2820   15.4780   32.4600 N   0  0  0  0  0  0  0  0  0  0  0  0
   35.1470   14.7940   32.7470 C   0  0  0  0  0  0  0  0  0  0  0  0
   35.5160   13.6240   33.4040 C   0  0  0  0  0  0  0  0  0  0  0  0
   36.8720   13.6570   33.4820 N   0  0  0  0  0  0  0  0  0  0  0  0
   37.3290   14.7870   32.9060 C   0  0  0  0  0  0  0  0  0  0  0  0
   37.2762   20.9843   31.5231 H   0  0  0  0  0  0  0  0  0  0  0  0
   35.7265   20.7225   36.5224 H   0  0  0  0  0  0  0  0  0  0  0  0
   34.6673   20.0373   34.0974 H   0  0  0  0  0  0  0  0  0  0  0  0
   40.0034   21.6446   35.6954 H   0  0  0  0  0  0  0  0  0  0  0  0
   41.1184   22.7276   37.6885 H   0  0  0  0  0  0  0  0  0  0  0  0
   37.3717   24.1498   39.0898 H   0  0  0  0  0  0  0  0  0  0  0  0
   35.5530   23.2226   32.1566 H   0  0  0  0  0  0  0  0  0  0  0  0
   36.5959   22.9678   30.7163 H   0  0  0  0  0  0  0  0  0  0  0  0
   34.9024   22.3687   30.7163 H   0  0  0  0  0  0  0  0  0  0  0  0
   34.6151   19.9774   32.2424 H   0  0  0  0  0  0  0  0  0  0  0  0
   35.0346   20.4243   30.4815 H   0  0  0  0  0  0  0  0  0  0  0  0
   37.1633   18.7814   29.4338 H   0  0  0  0  0  0  0  0  0  0  0  0
   34.1208   15.1071   32.5045 H   0  0  0  0  0  0  0  0  0  0  0  0
   34.8482   12.8358   33.7819 H   0  0  0  0  0  0  0  0  0  0  0  0
   38.3840   15.0862   32.8195 H   0  0  0  0  0  0  0  0  0  0  0  0
  1  5  1  0
  2  3  2  0
  2  7  1  0
  4  3  1  0
  5  6  1  0
  5  4  2  0
  6  2  1  0
  7  8  2  0
  7 12  1  0
  8  9  1  0
  9 10  2  0
 11 10  1  0
 12 11  2  0
 13  1  1  0
 14  1  1  0
 15 14  1  0
 15 19  1  0
 16 17  2  0
 16 15  1  0
 17 18  1  0
 18 19  2  0
 18 20  1  0
 20 21  1  0
 20 24  1  0
 21 22  2  0
 22 23  1  0
 24 23  2  0
  1 25  1  6
  3 26  1  0
  4 27  1  0
  8 28  1  0
  9 29  1  0
 11 30  1  0
 13 31  1  0
 13 32  1  0
 13 33  1  0
 14 34  1  0
 14 35  1  0
 16 36  1  0
 21 37  1  0
 22 38  1  0
 24 39  1  0
M  ISO  8  25   8  26  14  27  14  28  14  29  14  30  14  31   8  32   8
M  ISO  7  33   8  34   8  35   8  36  14  37  14  38  14  39  14
M  END
>  <minimizedAffinity>  (1) 
-5.31575251

>  <minimizedRMSD>  (1) 
1.2875191

$$$$
