
     RDKit          3D

 37 40  0  0  1  0  0  0  0  0999 V2000
   36.2060   21.1170   31.9660 C   0  0  2  0  0  0  0  0  0  0  0  0
   37.2090   21.7650   35.2880 C   0  0  0  0  0  0  0  0  0  0  0  0
   36.0800   21.0000   35.5910 C   0  0  0  0  0  0  0  0  0  0  0  0
   35.5160   20.6280   34.3660 C   0  0  0  0  0  0  0  0  0  0  0  0
   36.3590   21.2050   33.4170 C   0  0  0  0  0  0  0  0  0  0  0  0
   37.3300   21.8570   33.9980 O   0  0  0  0  0  0  0  0  0  0  0  0
   38.0530   22.3290   36.3540 C   0  0  0  0  0  0  0  0  0  0  0  0
   39.4290   22.1960   36.4220 C   0  0  0  0  0  0  0  0  0  0  0  0
   40.0650   22.8070   37.5130 C   0  0  0  0  0  0  0  0  0  0  0  0
   39.3530   23.4840   38.4360 N   0  0  0  0  0  0  0  0  0  0  0  0
   38.0050   23.5950   38.3380 C   0  0  0  0  0  0  0  0  0  0  0  0
   37.3780   23.0260   37.3140 N   0  0  0  0  0  0  0  0  0  0  0  0
   35.7530   22.4500   31.3650 C   0  0  0  0  0  0  0  0  0  0  0  0
   35.3000   20.0340   31.5590 C   0  0  0  0  0  0  0  0  0  0  0  0
   35.8330   18.7310   31.4090 N   0  0  0  0  0  0  0  0  0  0  0  0
   36.7070   18.1100   30.6030 C   0  0  0  0  0  0  0  0  0  0  0  0
   36.8220   16.8180   30.9310 N   0  0  0  0  0  0  0  0  0  0  0  0
   35.9850   16.6230   31.9840 C   0  0  0  0  0  0  0  0  0  0  0  0
   35.4080   17.7950   32.2440 N   0  0  0  0  0  0  0  0  0  0  0  0
   35.7710   15.3480   32.6940 C   0  0  0  0  0  0  0  0  0  0  0  0
   36.6710   14.3910   32.9900 N   0  0  0  0  0  0  0  0  0  0  0  0
   36.1210   13.4160   33.6180 O   0  0  0  0  0  0  0  0  0  0  0  0
   34.8420   13.6560   33.7770 C   0  0  0  0  0  0  0  0  0  0  0  0
   34.6220   14.8620   33.1990 N   0  0  0  0  0  0  0  0  0  0  0  0
   37.2028   20.8776   31.5673 H   0  0  0  0  0  0  0  0  0  0  0  0
   35.7084   20.7415   36.5935 H   0  0  0  0  0  0  0  0  0  0  0  0
   34.6156   20.0207   34.1917 H   0  0  0  0  0  0  0  0  0  0  0  0
   39.9947   21.6399   35.6599 H   0  0  0  0  0  0  0  0  0  0  0  0
   41.1576   22.7328   37.6165 H   0  0  0  0  0  0  0  0  0  0  0  0
   37.4365   24.1504   39.0985 H   0  0  0  0  0  0  0  0  0  0  0  0
   35.5135   23.1548   32.1749 H   0  0  0  0  0  0  0  0  0  0  0  0
   36.5604   22.8655   30.7441 H   0  0  0  0  0  0  0  0  0  0  0  0
   34.8596   22.2875   30.7441 H   0  0  0  0  0  0  0  0  0  0  0  0
   34.5037   19.9745   32.3156 H   0  0  0  0  0  0  0  0  0  0  0  0
   34.9820   20.3146   30.5440 H   0  0  0  0  0  0  0  0  0  0  0  0
   37.2552   18.5971   29.7831 H   0  0  0  0  0  0  0  0  0  0  0  0
   34.1019   13.0128   34.2755 H   0  0  0  0  0  0  0  0  0  0  0  0
  1  5  1  0
  2  3  2  0
  2  7  1  0
  4  3  1  0
  5  6  1  0
  5  4  2  0
  6  2  1  0
  7  8  2  0
  7 12  1  0
  8  9  1  0
  9 10  2  0
 11 10  1  0
 12 11  2  0
 13  1  1  0
 14  1  1  0
 15 14  1  0
 15 19  1  0
 16 17  2  0
 16 15  1  0
 17 18  1  0
 18 19  2  0
 18 20  1  0
 20 21  2  0
 20 24  1  0
 21 22  1  0
 22 23  1  0
 24 23  2  0
  1 25  1  6
  3 26  1  0
  4 27  1  0
  8 28  1  0
  9 29  1  0
 11 30  1  0
 13 31  1  0
 13 32  1  0
 13 33  1  0
 14 34  1  0
 14 35  1  0
 16 36  1  0
 23 37  1  0
M  ISO  8  25   8  26  14  27  14  28  14  29  14  30  14  31   8  32   8
M  ISO  5  33   8  34   8  35   8  36  14  37  14
M  END
>  <minimizedAffinity>  (1) 
-5.1133008

>  <minimizedRMSD>  (1) 
1.59457159

$$$$
