
     RDKit          3D

 39 42  0  0  1  0  0  0  0  0999 V2000
   36.3020   21.5620   31.7160 C   0  0  2  0  0  0  0  0  0  0  0  0
   37.2510   21.8560   35.1130 C   0  0  0  0  0  0  0  0  0  0  0  0
   36.1960   20.9780   35.2920 C   0  0  0  0  0  0  0  0  0  0  0  0
   35.6610   20.7200   34.0270 C   0  0  0  0  0  0  0  0  0  0  0  0
   36.4510   21.4790   33.1660 C   0  0  0  0  0  0  0  0  0  0  0  0
   37.3550   22.1150   33.8440 O   0  0  0  0  0  0  0  0  0  0  0  0
   38.0490   22.3460   36.2390 C   0  0  0  0  0  0  0  0  0  0  0  0
   39.4190   22.2010   36.3620 C   0  0  0  0  0  0  0  0  0  0  0  0
   40.0160   22.7430   37.5090 C   0  0  0  0  0  0  0  0  0  0  0  0
   39.2470   23.3770   38.4410 N   0  0  0  0  0  0  0  0  0  0  0  0
   37.9130   23.5010   38.2920 C   0  0  0  0  0  0  0  0  0  0  0  0
   37.3340   22.9910   37.2060 N   0  0  0  0  0  0  0  0  0  0  0  0
   35.7330   22.9180   31.2890 C   0  0  0  0  0  0  0  0  0  0  0  0
   35.4900   20.4690   31.1640 C   0  0  0  0  0  0  0  0  0  0  0  0
   36.1610   19.3890   30.5400 N   0  0  0  0  0  0  0  0  0  0  0  0
   36.6460   19.1080   29.3190 C   0  0  0  0  0  0  0  0  0  0  0  0
   37.1930   17.8810   29.3080 N   0  0  0  0  0  0  0  0  0  0  0  0
   37.0480   17.3830   30.5540 C   0  0  0  0  0  0  0  0  0  0  0  0
   36.4210   18.3190   31.2730 N   0  0  0  0  0  0  0  0  0  0  0  0
   37.4900   16.0400   31.0810 C   0  0  0  0  0  0  0  0  0  0  0  0
   38.3430   15.9840   32.2890 C   0  0  0  0  0  0  0  0  0  0  0  0
   36.9090   15.5650   32.3890 C   0  0  0  0  0  0  0  0  0  0  0  0
   37.3145   21.4576   31.2990 H   0  0  0  0  0  0  0  0  0  0  0  0
   35.8454   20.5623   36.2482 H   0  0  0  0  0  0  0  0  0  0  0  0
   34.8126   20.0685   33.7704 H   0  0  0  0  0  0  0  0  0  0  0  0
   40.0134   21.6837   35.5945 H   0  0  0  0  0  0  0  0  0  0  0  0
   41.1026   22.6573   37.6573 H   0  0  0  0  0  0  0  0  0  0  0  0
   37.3115   24.0156   39.0558 H   0  0  0  0  0  0  0  0  0  0  0  0
   35.4849   23.5094   32.1827 H   0  0  0  0  0  0  0  0  0  0  0  0
   36.4809   23.4569   30.6888 H   0  0  0  0  0  0  0  0  0  0  0  0
   34.8245   22.7618   30.6888 H   0  0  0  0  0  0  0  0  0  0  0  0
   34.8983   20.0514   31.9919 H   0  0  0  0  0  0  0  0  0  0  0  0
   34.9140   20.9386   30.3530 H   0  0  0  0  0  0  0  0  0  0  0  0
   36.6016   19.7850   28.4531 H   0  0  0  0  0  0  0  0  0  0  0  0
   37.5677   15.6302   30.0631 H   0  0  0  0  0  0  0  0  0  0  0  0
   39.1403   15.2296   32.3619 H   0  0  0  0  0  0  0  0  0  0  0  0
   38.9753   16.7088   32.8228 H   0  0  0  0  0  0  0  0  0  0  0  0
   36.1867   16.1915   32.9329 H   0  0  0  0  0  0  0  0  0  0  0  0
   36.3778   14.6639   32.7293 H   0  0  0  0  0  0  0  0  0  0  0  0
  1  5  1  0
  2  3  2  0
  2  7  1  0
  4  3  1  0
  5  6  1  0
  5  4  2  0
  6  2  1  0
  7  8  2  0
  7 12  1  0
  8  9  1  0
  9 10  2  0
 11 10  1  0
 12 11  2  0
 13  1  1  0
 14  1  1  0
 15 14  1  0
 15 19  1  0
 16 15  1  0
 17 16  2  0
 17 18  1  0
 18 20  1  0
 18 19  2  0
 20 21  1  0
 20 22  1  0
 21 22  1  0
  1 23  1  6
  3 24  1  0
  4 25  1  0
  8 26  1  0
  9 27  1  0
 11 28  1  0
 13 29  1  0
 13 30  1  0
 13 31  1  0
 14 32  1  0
 14 33  1  0
 16 34  1  0
 20 35  1  0
 21 36  1  0
 21 37  1  0
 22 38  1  0
 22 39  1  0
M  ISO  8  23   8  24  14  25  14  26  14  27  14  28  14  29   8  30   8
M  ISO  8  31   8  32   8  33   8  34  14  35  13  36  13  37  13  38  13
M  ISO  1  39  13
M  END
>  <minimizedAffinity>  (1) 
-5.01736593

>  <minimizedRMSD>  (1) 
0.108413331

$$$$
