
     RDKit          3D

 33 35  0  0  1  0  0  0  0  0999 V2000
   36.3010   21.5640   31.7280 C   0  0  2  0  0  0  0  0  0  0  0  0
   37.2570   21.8640   35.1140 C   0  0  0  0  0  0  0  0  0  0  0  0
   36.2020   20.9750   35.3020 C   0  0  0  0  0  0  0  0  0  0  0  0
   35.6670   20.7160   34.0370 C   0  0  0  0  0  0  0  0  0  0  0  0
   36.4550   21.4800   33.1780 C   0  0  0  0  0  0  0  0  0  0  0  0
   37.3650   22.1300   33.8460 O   0  0  0  0  0  0  0  0  0  0  0  0
   38.0540   22.3570   36.2470 C   0  0  0  0  0  0  0  0  0  0  0  0
   39.4220   22.2110   36.3770 C   0  0  0  0  0  0  0  0  0  0  0  0
   40.0080   22.7540   37.5350 C   0  0  0  0  0  0  0  0  0  0  0  0
   39.2410   23.3820   38.4590 N   0  0  0  0  0  0  0  0  0  0  0  0
   37.9090   23.5070   38.2990 C   0  0  0  0  0  0  0  0  0  0  0  0
   37.3380   23.0010   37.2140 N   0  0  0  0  0  0  0  0  0  0  0  0
   35.7540   22.9280   31.2940 C   0  0  0  0  0  0  0  0  0  0  0  0
   35.4840   20.4800   31.1760 C   0  0  0  0  0  0  0  0  0  0  0  0
   36.1360   19.3930   30.5430 N   0  0  0  0  0  0  0  0  0  0  0  0
   36.6880   19.1430   29.3460 C   0  0  0  0  0  0  0  0  0  0  0  0
   37.1710   17.8910   29.3010 N   0  0  0  0  0  0  0  0  0  0  0  0
   36.9070   17.3460   30.5180 C   0  0  0  0  0  0  0  0  0  0  0  0
   36.2850   18.2800   31.2370 N   0  0  0  0  0  0  0  0  0  0  0  0
   37.2400   16.0430   30.9120 O   0  0  0  0  0  0  0  0  0  0  0  0
   37.3126   21.4479   31.3119 H   0  0  0  0  0  0  0  0  0  0  0  0
   35.8568   20.5578   36.2595 H   0  0  0  0  0  0  0  0  0  0  0  0
   34.8211   20.0617   33.7794 H   0  0  0  0  0  0  0  0  0  0  0  0
   40.0229   21.6958   35.6131 H   0  0  0  0  0  0  0  0  0  0  0  0
   41.0935   22.6684   37.6911 H   0  0  0  0  0  0  0  0  0  0  0  0
   37.3027   24.0222   39.0586 H   0  0  0  0  0  0  0  0  0  0  0  0
   35.5138   23.5270   32.1848 H   0  0  0  0  0  0  0  0  0  0  0  0
   36.5114   23.4524   30.6928 H   0  0  0  0  0  0  0  0  0  0  0  0
   34.8442   22.7838   30.6928 H   0  0  0  0  0  0  0  0  0  0  0  0
   34.8931   20.0648   32.0057 H   0  0  0  0  0  0  0  0  0  0  0  0
   34.9150   20.9595   30.3658 H   0  0  0  0  0  0  0  0  0  0  0  0
   36.7380   19.8637   28.5165 H   0  0  0  0  0  0  0  0  0  0  0  0
   37.0091   15.7265   31.8212 H   0  0  0  0  0  0  0  0  0  0  0  0
  1  5  1  0
  2  3  2  0
  2  7  1  0
  4  3  1  0
  5  6  1  0
  5  4  2  0
  6  2  1  0
  7  8  2  0
  7 12  1  0
  8  9  1  0
  9 10  2  0
 11 10  1  0
 12 11  2  0
 13  1  1  0
 14  1  1  0
 15 14  1  0
 15 19  1  0
 16 15  1  0
 17 16  2  0
 17 18  1  0
 18 20  1  0
 18 19  2  0
  1 21  1  6
  3 22  1  0
  4 23  1  0
  8 24  1  0
  9 25  1  0
 11 26  1  0
 13 27  1  0
 13 28  1  0
 13 29  1  0
 14 30  1  0
 14 31  1  0
 16 32  1  0
 20 33  1  0
M  ISO  8  21   8  22  14  23  14  24  14  25  14  26  14  27   8  28   8
M  ISO  5  29   8  30   8  31   8  32  14  33   3
M  END
>  <minimizedAffinity>  (1) 
-4.84713125

>  <minimizedRMSD>  (1) 
0.0607294776

$$$$
