
     RDKit          3D

 33 35  0  0  1  0  0  0  0  0999 V2000
   36.3020   21.5590   31.7320 C   0  0  2  0  0  0  0  0  0  0  0  0
   37.2470   21.8560   35.1180 C   0  0  0  0  0  0  0  0  0  0  0  0
   36.1970   20.9710   35.3060 C   0  0  0  0  0  0  0  0  0  0  0  0
   35.6630   20.7120   34.0400 C   0  0  0  0  0  0  0  0  0  0  0  0
   36.4510   21.4760   33.1820 C   0  0  0  0  0  0  0  0  0  0  0  0
   37.3610   22.1260   33.8510 O   0  0  0  0  0  0  0  0  0  0  0  0
   38.0460   22.3550   36.2510 C   0  0  0  0  0  0  0  0  0  0  0  0
   39.4160   22.2120   36.3800 C   0  0  0  0  0  0  0  0  0  0  0  0
   40.0010   22.7570   37.5330 C   0  0  0  0  0  0  0  0  0  0  0  0
   39.2490   23.3840   38.4540 N   0  0  0  0  0  0  0  0  0  0  0  0
   37.9080   23.5080   38.3010 C   0  0  0  0  0  0  0  0  0  0  0  0
   37.3360   22.9990   37.2150 N   0  0  0  0  0  0  0  0  0  0  0  0
   35.7560   22.9220   31.2970 C   0  0  0  0  0  0  0  0  0  0  0  0
   35.4820   20.4740   31.1800 C   0  0  0  0  0  0  0  0  0  0  0  0
   36.1360   19.3930   30.5430 N   0  0  0  0  0  0  0  0  0  0  0  0
   36.6860   19.1410   29.3430 C   0  0  0  0  0  0  0  0  0  0  0  0
   37.1680   17.8930   29.2990 N   0  0  0  0  0  0  0  0  0  0  0  0
   36.9100   17.3450   30.5200 C   0  0  0  0  0  0  0  0  0  0  0  0
   36.2910   18.2760   31.2340 N   0  0  0  0  0  0  0  0  0  0  0  0
   37.3510   15.6710   31.0070 S   0  0  0  0  0  0  0  0  0  0  0  0
   37.3142   21.4420   31.3175 H   0  0  0  0  0  0  0  0  0  0  0  0
   35.8515   20.5541   36.2635 H   0  0  0  0  0  0  0  0  0  0  0  0
   34.8176   20.0574   33.7816 H   0  0  0  0  0  0  0  0  0  0  0  0
   40.0170   21.6965   35.6164 H   0  0  0  0  0  0  0  0  0  0  0  0
   41.0870   22.6702   37.6849 H   0  0  0  0  0  0  0  0  0  0  0  0
   37.3033   24.0214   39.0631 H   0  0  0  0  0  0  0  0  0  0  0  0
   35.5157   23.5218   32.1872 H   0  0  0  0  0  0  0  0  0  0  0  0
   36.5138   23.4456   30.6957 H   0  0  0  0  0  0  0  0  0  0  0  0
   34.8463   22.7776   30.6957 H   0  0  0  0  0  0  0  0  0  0  0  0
   34.8952   20.0550   32.0107 H   0  0  0  0  0  0  0  0  0  0  0  0
   34.9059   20.9535   30.3749 H   0  0  0  0  0  0  0  0  0  0  0  0
   36.7335   19.8604   28.5122 H   0  0  0  0  0  0  0  0  0  0  0  0
   37.3739   15.5842   32.3741 H   0  0  0  0  0  0  0  0  0  0  0  0
  1  5  1  0
  2  3  2  0
  2  7  1  0
  4  3  1  0
  5  6  1  0
  5  4  2  0
  6  2  1  0
  7  8  2  0
  7 12  1  0
  8  9  1  0
  9 10  2  0
 11 10  1  0
 12 11  2  0
 13  1  1  0
 14  1  1  0
 15 14  1  0
 15 19  1  0
 16 15  1  0
 17 16  2  0
 17 18  1  0
 18 20  1  0
 18 19  2  0
  1 21  1  6
  3 22  1  0
  4 23  1  0
  8 24  1  0
  9 25  1  0
 11 26  1  0
 13 27  1  0
 13 28  1  0
 13 29  1  0
 14 30  1  0
 14 31  1  0
 16 32  1  0
 20 33  1  0
M  ISO  8  21   8  22  14  23  14  24  14  25  14  26  14  27   8  28   8
M  ISO  5  29   8  30   8  31   8  32  14  33  11
M  END
>  <minimizedAffinity>  (1) 
-4.83779573

>  <minimizedRMSD>  (1) 
0.0597124361

$$$$
