
     RDKit          3D

 41 44  0  0  1  0  0  0  0  0999 V2000
   36.5570   20.9770   31.9170 C   0  0  2  0  0  0  0  0  0  0  0  0
   37.2890   21.7530   35.2660 C   0  0  0  0  0  0  0  0  0  0  0  0
   36.0860   21.0890   35.5080 C   0  0  0  0  0  0  0  0  0  0  0  0
   35.6020   20.6770   34.2570 C   0  0  0  0  0  0  0  0  0  0  0  0
   36.5820   21.1430   33.3640 C   0  0  0  0  0  0  0  0  0  0  0  0
   37.5500   21.7660   33.9880 O   0  0  0  0  0  0  0  0  0  0  0  0
   38.0850   22.3280   36.3690 C   0  0  0  0  0  0  0  0  0  0  0  0
   39.4420   22.1950   36.5230 C   0  0  0  0  0  0  0  0  0  0  0  0
   40.0150   22.8170   37.6420 C   0  0  0  0  0  0  0  0  0  0  0  0
   39.2500   23.5090   38.5130 N   0  0  0  0  0  0  0  0  0  0  0  0
   37.9130   23.6250   38.3400 C   0  0  0  0  0  0  0  0  0  0  0  0
   37.3770   23.0380   37.2840 N   0  0  0  0  0  0  0  0  0  0  0  0
   36.3430   22.3420   31.2090 C   0  0  0  0  0  0  0  0  0  0  0  0
   35.5480   20.0420   31.4460 C   0  0  0  0  0  0  0  0  0  0  0  0
   35.8150   18.6570   31.4510 N   0  0  0  0  0  0  0  0  0  0  0  0
   36.5050   17.8550   30.6390 C   0  0  0  0  0  0  0  0  0  0  0  0
   36.4590   16.5890   31.0860 N   0  0  0  0  0  0  0  0  0  0  0  0
   35.7100   16.6160   32.2180 C   0  0  0  0  0  0  0  0  0  0  0  0
   35.3470   17.8730   32.3980 N   0  0  0  0  0  0  0  0  0  0  0  0
   35.4180   15.4680   32.9980 N   0  0  0  0  0  0  0  0  0  0  0  0
   36.2110   14.4170   33.1850 C   0  0  0  0  0  0  0  0  0  0  0  0
   35.5590   13.5510   33.9860 N   0  0  0  0  0  0  0  0  0  0  0  0
   34.3450   14.0770   34.2960 C   0  0  0  0  0  0  0  0  0  0  0  0
   34.2710   15.2770   33.6700 N   0  0  0  0  0  0  0  0  0  0  0  0
   33.3500   13.4110   35.1560 C   0  0  0  0  0  0  0  0  0  0  0  0
   33.3210   12.0560   34.9000 F   0  0  0  0  0  0  0  0  0  0  0  0
   33.5980   13.6690   36.5000 F   0  0  0  0  0  0  0  0  0  0  0  0
   32.0580   13.8810   34.9340 F   0  0  0  0  0  0  0  0  0  0  0  0
   37.5396   20.5547   31.6596 H   0  0  0  0  0  0  0  0  0  0  0  0
   35.6110   20.9216   36.4859 H   0  0  0  0  0  0  0  0  0  0  0  0
   34.6790   20.1233   34.0302 H   0  0  0  0  0  0  0  0  0  0  0  0
   40.0511   21.6280   35.8036 H   0  0  0  0  0  0  0  0  0  0  0  0
   41.0991   22.7402   37.8117 H   0  0  0  0  0  0  0  0  0  0  0  0
   37.2936   24.1883   39.0535 H   0  0  0  0  0  0  0  0  0  0  0  0
   36.2192   23.1316   31.9648 H   0  0  0  0  0  0  0  0  0  0  0  0
   37.2164   22.5699   30.5803 H   0  0  0  0  0  0  0  0  0  0  0  0
   35.4418   22.2917   30.5803 H   0  0  0  0  0  0  0  0  0  0  0  0
   35.3197   20.3180   30.4059 H   0  0  0  0  0  0  0  0  0  0  0  0
   34.7401   20.1472   32.1850 H   0  0  0  0  0  0  0  0  0  0  0  0
   37.0357   18.1831   29.7331 H   0  0  0  0  0  0  0  0  0  0  0  0
   37.2172   14.2793   32.7624 H   0  0  0  0  0  0  0  0  0  0  0  0
  1  5  1  0
  2  3  2  0
  2  7  1  0
  4  3  1  0
  5  6  1  0
  5  4  2  0
  6  2  1  0
  7  8  2  0
  7 12  1  0
  8  9  1  0
  9 10  2  0
 11 10  1  0
 12 11  2  0
 13  1  1  0
 14 15  1  0
 14  1  1  0
 15 19  1  0
 16 17  2  0
 16 15  1  0
 17 18  1  0
 18 19  2  0
 18 20  1  0
 20 21  1  0
 20 24  1  0
 21 22  2  0
 22 23  1  0
 23 25  1  0
 24 23  2  0
 25 27  1  0
 26 25  1  0
 28 25  1  0
  1 29  1  6
  3 30  1  0
  4 31  1  0
  8 32  1  0
  9 33  1  0
 11 34  1  0
 13 35  1  0
 13 36  1  0
 13 37  1  0
 14 38  1  0
 14 39  1  0
 16 40  1  0
 21 41  1  0
M  ISO  8  29   8  30  14  31  14  32  14  33  14  34  14  35   8  36   8
M  ISO  5  37   8  38   8  39   8  40  14  41  14
M  END
>  <minimizedAffinity>  (1) 
-5.93674231

>  <minimizedRMSD>  (1) 
0.61488843

$$$$
