
     RDKit          3D

 39 42  0  0  1  0  0  0  0  0999 V2000
   36.2400   21.0360   31.9930 C   0  0  2  0  0  0  0  0  0  0  0  0
   37.2060   21.7410   35.3040 C   0  0  0  0  0  0  0  0  0  0  0  0
   36.0600   21.0100   35.6140 C   0  0  0  0  0  0  0  0  0  0  0  0
   35.4960   20.6160   34.3920 C   0  0  0  0  0  0  0  0  0  0  0  0
   36.3780   21.1590   33.4410 C   0  0  0  0  0  0  0  0  0  0  0  0
   37.3570   21.8050   34.0100 O   0  0  0  0  0  0  0  0  0  0  0  0
   38.0620   22.3190   36.3570 C   0  0  0  0  0  0  0  0  0  0  0  0
   39.4240   22.1990   36.4330 C   0  0  0  0  0  0  0  0  0  0  0  0
   40.0580   22.8210   37.5120 C   0  0  0  0  0  0  0  0  0  0  0  0
   39.3440   23.5090   38.4340 N   0  0  0  0  0  0  0  0  0  0  0  0
   38.0000   23.6120   38.3350 C   0  0  0  0  0  0  0  0  0  0  0  0
   37.3910   23.0260   37.3180 N   0  0  0  0  0  0  0  0  0  0  0  0
   35.7600   22.3790   31.3760 C   0  0  0  0  0  0  0  0  0  0  0  0
   35.3310   19.9800   31.5750 C   0  0  0  0  0  0  0  0  0  0  0  0
   35.7840   18.6460   31.5180 N   0  0  0  0  0  0  0  0  0  0  0  0
   36.6370   18.0020   30.7230 C   0  0  0  0  0  0  0  0  0  0  0  0
   36.7320   16.7130   31.0830 N   0  0  0  0  0  0  0  0  0  0  0  0
   35.9080   16.5580   32.1370 C   0  0  0  0  0  0  0  0  0  0  0  0
   35.3550   17.7410   32.3690 N   0  0  0  0  0  0  0  0  0  0  0  0
   35.7070   15.3280   32.8260 N   0  0  0  0  0  0  0  0  0  0  0  0
   36.6150   14.3760   33.0230 C   0  0  0  0  0  0  0  0  0  0  0  0
   36.0280   13.3840   33.7130 N   0  0  0  0  0  0  0  0  0  0  0  0
   34.7390   13.7250   33.9470 C   0  0  0  0  0  0  0  0  0  0  0  0
   34.5500   14.9430   33.3870 N   0  0  0  0  0  0  0  0  0  0  0  0
   33.5970   12.6680   34.8450 S   0  0  0  0  0  0  0  0  0  0  0  0
   37.2422   20.7702   31.6257 H   0  0  0  0  0  0  0  0  0  0  0  0
   35.6741   20.7863   36.6195 H   0  0  0  0  0  0  0  0  0  0  0  0
   34.5843   20.0252   34.2193 H   0  0  0  0  0  0  0  0  0  0  0  0
   39.9940   21.6377   35.6780 H   0  0  0  0  0  0  0  0  0  0  0  0
   41.1510   22.7507   37.6135 H   0  0  0  0  0  0  0  0  0  0  0  0
   37.4239   24.1725   39.0860 H   0  0  0  0  0  0  0  0  0  0  0  0
   35.5082   23.0836   32.1823 H   0  0  0  0  0  0  0  0  0  0  0  0
   36.5618   22.8043   30.7545 H   0  0  0  0  0  0  0  0  0  0  0  0
   34.8703   22.1997   30.7545 H   0  0  0  0  0  0  0  0  0  0  0  0
   34.4804   19.9978   32.2722 H   0  0  0  0  0  0  0  0  0  0  0  0
   35.1244   20.2238   30.5224 H   0  0  0  0  0  0  0  0  0  0  0  0
   37.1864   18.4623   29.8886 H   0  0  0  0  0  0  0  0  0  0  0  0
   37.6605   14.3973   32.6816 H   0  0  0  0  0  0  0  0  0  0  0  0
   33.7805   12.8379   36.1920 H   0  0  0  0  0  0  0  0  0  0  0  0
  1  5  1  0
  2  3  2  0
  2  7  1  0
  4  3  1  0
  5  6  1  0
  5  4  2  0
  6  2  1  0
  7  8  2  0
  7 12  1  0
  8  9  1  0
  9 10  2  0
 11 10  1  0
 12 11  2  0
 13  1  1  0
 14  1  1  0
 15 14  1  0
 15 19  1  0
 16 17  2  0
 16 15  1  0
 17 18  1  0
 18 19  2  0
 18 20  1  0
 20 21  1  0
 20 24  1  0
 21 22  2  0
 22 23  1  0
 23 25  1  0
 24 23  2  0
  1 26  1  6
  3 27  1  0
  4 28  1  0
  8 29  1  0
  9 30  1  0
 11 31  1  0
 13 32  1  0
 13 33  1  0
 13 34  1  0
 14 35  1  0
 14 36  1  0
 16 37  1  0
 21 38  1  0
 25 39  1  0
M  ISO  8  26   8  27  14  28  14  29  14  30  14  31  14  32   8  33   8
M  ISO  6  34   8  35   8  36   8  37  14  38  14  39  11
M  END
>  <minimizedAffinity>  (1) 
-5.53126383

>  <minimizedRMSD>  (1) 
0.10226766

$$$$
