
     RDKit          3D

 40 43  0  0  1  0  0  0  0  0999 V2000
   36.2460   21.0920   31.9790 C   0  0  2  0  0  0  0  0  0  0  0  0
   37.2040   21.7500   35.2950 C   0  0  0  0  0  0  0  0  0  0  0  0
   36.0690   21.0090   35.5940 C   0  0  0  0  0  0  0  0  0  0  0  0
   35.5070   20.6280   34.3670 C   0  0  0  0  0  0  0  0  0  0  0  0
   36.3840   21.1940   33.4240 C   0  0  0  0  0  0  0  0  0  0  0  0
   37.3660   21.8430   33.9980 O   0  0  0  0  0  0  0  0  0  0  0  0
   38.0590   22.3230   36.3590 C   0  0  0  0  0  0  0  0  0  0  0  0
   39.4230   22.1960   36.4420 C   0  0  0  0  0  0  0  0  0  0  0  0
   40.0310   22.8260   37.5400 C   0  0  0  0  0  0  0  0  0  0  0  0
   39.3270   23.5060   38.4460 N   0  0  0  0  0  0  0  0  0  0  0  0
   37.9760   23.6160   38.3390 C   0  0  0  0  0  0  0  0  0  0  0  0
   37.3890   23.0290   37.3120 N   0  0  0  0  0  0  0  0  0  0  0  0
   35.7600   22.4370   31.3720 C   0  0  0  0  0  0  0  0  0  0  0  0
   35.3540   20.0310   31.5380 C   0  0  0  0  0  0  0  0  0  0  0  0
   35.8230   18.7020   31.4670 N   0  0  0  0  0  0  0  0  0  0  0  0
   36.6830   18.0760   30.6670 C   0  0  0  0  0  0  0  0  0  0  0  0
   36.7940   16.7850   31.0140 N   0  0  0  0  0  0  0  0  0  0  0  0
   35.9630   16.6080   32.0770 C   0  0  0  0  0  0  0  0  0  0  0  0
   35.4040   17.7830   32.3110 N   0  0  0  0  0  0  0  0  0  0  0  0
   35.7860   15.3710   32.7420 N   0  0  0  0  0  0  0  0  0  0  0  0
   36.7060   14.4300   32.9310 C   0  0  0  0  0  0  0  0  0  0  0  0
   36.1190   13.4210   33.6060 N   0  0  0  0  0  0  0  0  0  0  0  0
   34.8130   13.7430   33.8380 C   0  0  0  0  0  0  0  0  0  0  0  0
   34.6280   14.9650   33.2910 N   0  0  0  0  0  0  0  0  0  0  0  0
   33.7530   13.0570   34.4960 N   0  0  0  0  0  0  0  0  0  0  0  0
   37.2539   20.8417   31.6163 H   0  0  0  0  0  0  0  0  0  0  0  0
   35.6857   20.7680   36.5965 H   0  0  0  0  0  0  0  0  0  0  0  0
   34.6007   20.0315   34.1860 H   0  0  0  0  0  0  0  0  0  0  0  0
   40.0040   21.6355   35.6948 H   0  0  0  0  0  0  0  0  0  0  0  0
   41.1226   22.7564   37.6565 H   0  0  0  0  0  0  0  0  0  0  0  0
   37.3910   24.1757   39.0837 H   0  0  0  0  0  0  0  0  0  0  0  0
   35.5076   23.1355   32.1834 H   0  0  0  0  0  0  0  0  0  0  0  0
   36.5588   22.8691   30.7514 H   0  0  0  0  0  0  0  0  0  0  0  0
   34.8695   22.2587   30.7514 H   0  0  0  0  0  0  0  0  0  0  0  0
   34.4966   20.0293   32.2271 H   0  0  0  0  0  0  0  0  0  0  0  0
   35.1554   20.2867   30.4867 H   0  0  0  0  0  0  0  0  0  0  0  0
   37.2268   18.5510   29.8371 H   0  0  0  0  0  0  0  0  0  0  0  0
   37.7537   14.4676   32.5979 H   0  0  0  0  0  0  0  0  0  0  0  0
   32.8209   13.4904   34.5606 H   0  0  0  0  0  0  0  0  0  0  0  0
   33.9183   12.1273   34.9074 H   0  0  0  0  0  0  0  0  0  0  0  0
  1  5  1  0
  2  3  2  0
  2  7  1  0
  4  3  1  0
  5  6  1  0
  5  4  2  0
  6  2  1  0
  7  8  2  0
  7 12  1  0
  8  9  1  0
  9 10  2  0
 11 10  1  0
 12 11  2  0
 13  1  1  0
 14  1  1  0
 15 14  1  0
 15 19  1  0
 16 17  2  0
 16 15  1  0
 17 18  1  0
 18 19  2  0
 18 20  1  0
 20 21  1  0
 20 24  1  0
 21 22  2  0
 22 23  1  0
 23 25  1  0
 24 23  2  0
  1 26  1  6
  3 27  1  0
  4 28  1  0
  8 29  1  0
  9 30  1  0
 11 31  1  0
 13 32  1  0
 13 33  1  0
 13 34  1  0
 14 35  1  0
 14 36  1  0
 16 37  1  0
 21 38  1  0
 25 39  1  0
 25 40  1  0
M  ISO  8  26   8  27  14  28  14  29  14  30  14  31  14  32   8  33   8
M  ISO  5  34   8  35   8  36   8  37  14  38  14
M  END
>  <minimizedAffinity>  (1) 
-5.4996295

>  <minimizedRMSD>  (1) 
0.028460905

$$$$
