
     RDKit          3D

 30 31  0  0  0  0  0  0  0  0999 V2000
   40.4460   22.4220   37.8160 C   0  0  0  0  0  0  0  0  0  0  0  0
   39.2880   23.1270   37.4360 C   0  0  0  0  0  0  0  0  0  0  0  0
   39.0120   23.2700   36.0930 C   0  0  0  0  0  0  0  0  0  0  0  0
   39.8790   22.7180   35.1830 N   0  0  0  0  0  0  0  0  0  0  0  0
   40.9870   22.0450   35.5930 C   0  0  0  0  0  0  0  0  0  0  0  0
   41.2490   21.9100   36.8780 N   0  0  0  0  0  0  0  0  0  0  0  0
   38.3520   23.7240   38.4480 C   0  0  0  0  0  0  0  0  0  0  0  0
   39.0740   23.9500   39.5920 F   0  0  0  0  0  0  0  0  0  0  0  0
   37.3080   22.9090   38.7390 F   0  0  0  0  0  0  0  0  0  0  0  0
   37.9410   25.0000   38.0260 F   0  0  0  0  0  0  0  0  0  0  0  0
   42.0330   21.3820   34.2920 S   0  0  0  0  0  0  0  0  0  0  0  0
   43.1290   20.1430   35.0760 C   0  0  0  0  0  0  0  0  0  0  0  0
   43.4490   19.1080   34.0190 C   0  0  0  0  0  0  0  0  0  0  0  0
   44.2860   19.7860   32.9580 C   0  0  0  0  0  0  0  0  0  0  0  0
   45.5850   20.2040   33.6080 C   0  0  0  0  0  0  0  0  0  0  0  0
   45.2780   21.3260   34.5760 C   0  0  0  0  0  0  0  0  0  0  0  0
   44.3630   20.7760   35.6370 C   0  0  0  0  0  0  0  0  0  0  0  0
   40.6890   22.2930   38.8810 H   0  0  0  0  0  0  0  0  0  0  0  0
   38.1168   23.8144   35.7579 H   0  0  0  0  0  0  0  0  0  0  0  0
   42.6298   19.6682   35.9336 H   0  0  0  0  0  0  0  0  0  0  0  0
   44.0120   18.2757   34.4666 H   0  0  0  0  0  0  0  0  0  0  0  0
   42.5248   18.7015   33.5824 H   0  0  0  0  0  0  0  0  0  0  0  0
   43.7580   20.6696   32.5699 H   0  0  0  0  0  0  0  0  0  0  0  0
   44.4742   19.1036   32.1160 H   0  0  0  0  0  0  0  0  0  0  0  0
   46.0236   19.3526   34.1490 H   0  0  0  0  0  0  0  0  0  0  0  0
   46.3049   20.5394   32.8469 H   0  0  0  0  0  0  0  0  0  0  0  0
   46.2088   21.6898   35.0356 H   0  0  0  0  0  0  0  0  0  0  0  0
   44.7999   22.1671   34.0525 H   0  0  0  0  0  0  0  0  0  0  0  0
   44.0630   21.5993   36.3019 H   0  0  0  0  0  0  0  0  0  0  0  0
   44.9177   19.9935   36.1755 H   0  0  0  0  0  0  0  0  0  0  0  0
  2  1  2  0
  2  7  1  0
  3  2  1  0
  4  5  1  0
  4  3  2  0
  5  6  2  0
  6  1  1  0
  7  9  1  0
  7  8  1  0
 10  7  1  0
 11 12  1  0
 11  5  1  0
 12 17  1  0
 13 12  1  0
 14 15  1  0
 14 13  1  0
 15 16  1  0
 16 17  1  0
  1 18  1  0
  3 19  1  0
 12 20  1  0
 13 21  1  0
 13 22  1  0
 14 23  1  0
 14 24  1  0
 15 25  1  0
 15 26  1  0
 16 27  1  0
 16 28  1  0
 17 29  1  0
 17 30  1  0
M  ISO  8  18  14  19  14  20  13  21  13  22  13  23  13  24  13  25  13
M  ISO  5  26  13  27  13  28  13  29  13  30  13
M  END
>  <minimizedAffinity>  (1) 
-3.85513496

>  <minimizedRMSD>  (1) 
0.970900297

$$$$
