
     RDKit          3D

 23 25  0  0  0  0  0  0  0  0999 V2000
   37.4010   23.1490   36.9490 C   0  0  0  0  0  0  0  0  0  0  0  0
   38.2070   22.5660   35.9770 C   0  0  0  0  0  0  0  0  0  0  0  0
   39.5480   22.2860   36.2850 C   0  0  0  0  0  0  0  0  0  0  0  0
   39.9960   22.6050   37.5330 N   0  0  0  0  0  0  0  0  0  0  0  0
   39.2010   23.1660   38.4500 C   0  0  0  0  0  0  0  0  0  0  0  0
   37.9240   23.4310   38.1580 N   0  0  0  0  0  0  0  0  0  0  0  0
   37.6050   22.2920   34.7290 N   0  0  0  0  0  0  0  0  0  0  0  0
   37.7510   22.8620   33.4880 C   0  0  0  0  0  0  0  0  0  0  0  0
   36.9440   22.2340   32.6110 N   0  0  0  0  0  0  0  0  0  0  0  0
   36.2950   21.2660   33.3160 C   0  0  0  0  0  0  0  0  0  0  0  0
   36.7190   21.3270   34.6060 N   0  0  0  0  0  0  0  0  0  0  0  0
   35.3050   20.3320   32.7410 C   0  0  0  0  0  0  0  0  0  0  0  0
   35.8900   19.4170   31.6690 C   0  0  0  0  0  0  0  0  0  0  0  0
   35.3880   18.8770   32.9850 C   0  0  0  0  0  0  0  0  0  0  0  0
   36.3470   23.3776   36.7327 H   0  0  0  0  0  0  0  0  0  0  0  0
   40.2160   21.8240   35.5432 H   0  0  0  0  0  0  0  0  0  0  0  0
   39.5986   23.4098   39.4462 H   0  0  0  0  0  0  0  0  0  0  0  0
   38.4218   23.7000   33.2478 H   0  0  0  0  0  0  0  0  0  0  0  0
   34.4745   21.0447   32.8519 H   0  0  0  0  0  0  0  0  0  0  0  0
   35.3325   19.2229   30.7408 H   0  0  0  0  0  0  0  0  0  0  0  0
   36.8332   19.3668   31.1052 H   0  0  0  0  0  0  0  0  0  0  0  0
   36.1037   18.4873   33.7239 H   0  0  0  0  0  0  0  0  0  0  0  0
   34.6614   18.1025   33.2717 H   0  0  0  0  0  0  0  0  0  0  0  0
  1  6  2  0
  2  3  2  0
  2  1  1  0
  3  4  1  0
  4  5  2  0
  6  5  1  0
  7  2  1  0
  8  7  1  0
  9 10  1  0
  9  8  2  0
 10 11  2  0
 11  7  1  0
 12 14  1  0
 12 10  1  0
 13 12  1  0
 13 14  1  0
  1 15  1  0
  3 16  1  0
  5 17  1  0
  8 18  1  0
 12 19  1  0
 13 20  1  0
 13 21  1  0
 14 22  1  0
 14 23  1  0
M  ISO  8  15  14  16  14  17  14  18  14  19  13  20  13  21  13  22  13
M  ISO  1  23  13
M  END
>  <minimizedAffinity>  (1) 
-4.11940765

>  <minimizedRMSD>  (1) 
0.925553501

$$$$
