
     RDKit          3D

 22 23  0  0  0  0  0  0  0  0999 V2000
   37.3870   22.9910   36.8760 C   0  0  0  0  0  0  0  0  0  0  0  0
   38.3690   22.3940   36.0710 C   0  0  0  0  0  0  0  0  0  0  0  0
   39.6690   22.2920   36.5420 C   0  0  0  0  0  0  0  0  0  0  0  0
   39.9340   22.7880   37.7940 N   0  0  0  0  0  0  0  0  0  0  0  0
   38.9840   23.3540   38.5470 C   0  0  0  0  0  0  0  0  0  0  0  0
   37.7130   23.4560   38.0890 N   0  0  0  0  0  0  0  0  0  0  0  0
   37.9350   21.9270   34.7960 N   0  0  0  0  0  0  0  0  0  0  0  0
   38.5460   21.8850   33.5880 C   0  0  0  0  0  0  0  0  0  0  0  0
   37.6940   21.3400   32.6750 N   0  0  0  0  0  0  0  0  0  0  0  0
   36.5520   21.0500   33.3440 C   0  0  0  0  0  0  0  0  0  0  0  0
   36.7150   21.4140   34.6400 N   0  0  0  0  0  0  0  0  0  0  0  0
   35.2840   20.4450   32.8780 C   0  0  0  0  0  0  0  0  0  0  0  0
   35.4010   18.9370   32.8110 C   0  0  0  0  0  0  0  0  0  0  0  0
   36.3525   23.0769   36.5120 H   0  0  0  0  0  0  0  0  0  0  0  0
   40.4603   21.8297   35.9336 H   0  0  0  0  0  0  0  0  0  0  0  0
   39.2368   23.7395   39.5457 H   0  0  0  0  0  0  0  0  0  0  0  0
   39.5673   22.2351   33.3775 H   0  0  0  0  0  0  0  0  0  0  0  0
   34.4780   20.7136   33.5767 H   0  0  0  0  0  0  0  0  0  0  0  0
   35.0603   20.8266   31.8708 H   0  0  0  0  0  0  0  0  0  0  0  0
   35.4329   18.5260   33.8308 H   0  0  0  0  0  0  0  0  0  0  0  0
   34.5321   18.5252   32.2767 H   0  0  0  0  0  0  0  0  0  0  0  0
   36.3230   18.6641   32.2767 H   0  0  0  0  0  0  0  0  0  0  0  0
  1  6  2  0
  2  3  2  0
  2  1  1  0
  3  4  1  0
  4  5  2  0
  6  5  1  0
  7  2  1  0
  8  7  1  0
  9 10  1  0
  9  8  2  0
 10 11  2  0
 11  7  1  0
 12 10  1  0
 13 12  1  0
  1 14  1  0
  3 15  1  0
  5 16  1  0
  8 17  1  0
 12 18  1  0
 12 19  1  0
 13 20  1  0
 13 21  1  0
 13 22  1  0
M  ISO  8  14  14  15  14  16  14  17  14  18   8  19   8  20   8  21   8
M  ISO  1  22   8
M  END
>  <minimizedAffinity>  (1) 
-3.89162135

>  <minimizedRMSD>  (1) 
1.0655818

$$$$
