
     RDKit          3D

 21 22  0  0  0  0  0  0  0  0999 V2000
   40.4280   22.3920   37.7340 C   0  0  0  0  0  0  0  0  0  0  0  0
   39.2830   23.1720   37.4650 C   0  0  0  0  0  0  0  0  0  0  0  0
   39.0040   23.4640   36.1420 C   0  0  0  0  0  0  0  0  0  0  0  0
   39.8310   22.9950   35.1600 N   0  0  0  0  0  0  0  0  0  0  0  0
   40.9260   22.2430   35.4770 C   0  0  0  0  0  0  0  0  0  0  0  0
   41.2110   21.9530   36.7510 N   0  0  0  0  0  0  0  0  0  0  0  0
   38.3860   23.6820   38.5300 C   0  0  0  0  0  0  0  0  0  0  0  0
   39.1650   23.8790   39.6670 F   0  0  0  0  0  0  0  0  0  0  0  0
   37.4010   22.8180   38.8640 F   0  0  0  0  0  0  0  0  0  0  0  0
   37.9270   24.9790   38.2080 F   0  0  0  0  0  0  0  0  0  0  0  0
   41.9250   21.6920   34.0970 S   0  0  0  0  0  0  0  0  0  0  0  0
   43.1530   22.9020   33.7720 C   0  0  0  0  0  0  0  0  0  0  0  0
   44.1310   22.9790   32.8290 C   0  0  0  0  0  0  0  0  0  0  0  0
   44.9760   24.0560   32.7940 C   0  0  0  0  0  0  0  0  0  0  0  0
   44.7680   25.0340   33.7620 C   0  0  0  0  0  0  0  0  0  0  0  0
   43.3360   24.4150   34.7520 S   0  0  0  0  0  0  0  0  0  0  0  0
   40.6782   22.1421   38.7756 H   0  0  0  0  0  0  0  0  0  0  0  0
   38.1230   24.0692   35.8821 H   0  0  0  0  0  0  0  0  0  0  0  0
   44.2435   22.1715   32.0906 H   0  0  0  0  0  0  0  0  0  0  0  0
   45.7747   24.1433   32.0427 H   0  0  0  0  0  0  0  0  0  0  0  0
   45.3310   25.9680   33.9058 H   0  0  0  0  0  0  0  0  0  0  0  0
  2  1  2  0
  2  7  1  0
  3  2  1  0
  4  5  1  0
  4  3  2  0
  5  6  2  0
  6  1  1  0
  7  9  1  0
  7  8  1  0
 10  7  1  0
 11  5  1  0
 12 11  1  0
 12 16  1  0
 13 12  2  0
 14 13  1  0
 14 15  2  0
 15 16  1  0
  1 17  1  0
  3 18  1  0
 13 19  1  0
 14 20  1  0
 15 21  1  0
M  ISO  5  17  14  18  14  19  14  20  14  21  14
M  END
>  <minimizedAffinity>  (1) 
-3.80331373

>  <minimizedRMSD>  (1) 
0.49985674

$$$$
