
     RDKit          3D

 32 34  0  0  0  0  0  0  0  0999 V2000
   38.2650   22.0240   34.6420 N   0  0  0  0  0  0  0  0  0  0  0  0
   39.0670   21.6680   33.5930 C   0  0  0  0  0  0  0  0  0  0  0  0
   38.2780   21.3540   32.5310 N   0  0  0  0  0  0  0  0  0  0  0  0
   36.9880   21.5190   32.9300 C   0  0  0  0  0  0  0  0  0  0  0  0
   36.9930   21.9320   34.2350 N   0  0  0  0  0  0  0  0  0  0  0  0
   37.4970   22.9660   36.7040 C   0  0  0  0  0  0  0  0  0  0  0  0
   38.5460   22.4380   35.9700 C   0  0  0  0  0  0  0  0  0  0  0  0
   39.8010   22.3400   36.5590 C   0  0  0  0  0  0  0  0  0  0  0  0
   39.9720   22.7630   37.8360 N   0  0  0  0  0  0  0  0  0  0  0  0
   38.9210   23.2790   38.5370 C   0  0  0  0  0  0  0  0  0  0  0  0
   37.7090   23.3700   37.9590 N   0  0  0  0  0  0  0  0  0  0  0  0
   35.7680   21.3490   32.2840 O   0  0  0  0  0  0  0  0  0  0  0  0
   36.6270   17.5150   31.6720 N   0  0  0  0  0  0  0  0  0  0  0  0
   35.4420   17.7310   32.4690 C   0  0  0  0  0  0  0  0  0  0  0  0
   35.4720   19.1390   32.9730 C   0  0  0  0  0  0  0  0  0  0  0  0
   35.4080   20.0710   31.7910 C   0  0  0  0  0  0  0  0  0  0  0  0
   36.2780   19.7250   30.6480 C   0  0  0  0  0  0  0  0  0  0  0  0
   36.6490   18.3000   30.4690 C   0  0  0  0  0  0  0  0  0  0  0  0
   40.1666   21.6403   33.6062 H   0  0  0  0  0  0  0  0  0  0  0  0
   36.4959   23.0520   36.2562 H   0  0  0  0  0  0  0  0  0  0  0  0
   40.6480   21.9231   35.9944 H   0  0  0  0  0  0  0  0  0  0  0  0
   39.0642   23.6201   39.5729 H   0  0  0  0  0  0  0  0  0  0  0  0
   37.4518   17.7600   32.2382 H   0  0  0  0  0  0  0  0  0  0  0  0
   34.5444   17.5745   31.8527 H   0  0  0  0  0  0  0  0  0  0  0  0
   35.4154   17.0247   33.3119 H   0  0  0  0  0  0  0  0  0  0  0  0
   34.6092   19.3157   33.6321 H   0  0  0  0  0  0  0  0  0  0  0  0
   36.3961   19.3158   33.5429 H   0  0  0  0  0  0  0  0  0  0  0  0
   34.3900   20.0140   31.3782 H   0  0  0  0  0  0  0  0  0  0  0  0
   35.7605   20.0470   29.7323 H   0  0  0  0  0  0  0  0  0  0  0  0
   37.2295   20.2350   30.8591 H   0  0  0  0  0  0  0  0  0  0  0  0
   35.9441   17.8503   29.7542 H   0  0  0  0  0  0  0  0  0  0  0  0
   37.6904   18.2938   30.1148 H   0  0  0  0  0  0  0  0  0  0  0  0
  1  7  1  0
  2  1  1  0
  3  4  1  0
  3  2  2  0
  4  5  2  0
  5  1  1  0
  6 11  2  0
  7  8  2  0
  7  6  1  0
  8  9  1  0
  9 10  2  0
 11 10  1  0
 12  4  1  0
 13 14  1  0
 14 15  1  0
 16 12  1  0
 16 15  1  0
 17 16  1  0
 18 17  1  0
 18 13  1  0
  2 19  1  0
  6 20  1  0
  8 21  1  0
 10 22  1  0
 13 23  1  0
 14 24  1  0
 14 25  1  0
 15 26  1  0
 15 27  1  0
 16 28  1  0
 17 29  1  0
 17 30  1  0
 18 31  1  0
 18 32  1  0
M  ISO  8  19  14  20  14  21  14  22  14  23   5  24  13  25  13  26  13
M  ISO  6  27  13  28  13  29  13  30  13  31  13  32  13
M  END
>  <minimizedAffinity>  (1) 
-4.59990025

>  <minimizedRMSD>  (1) 
2.30125237

$$$$
