
     RDKit          3D

 20 21  0  0  0  0  0  0  0  0999 V2000
   37.9410   21.9930   34.9570 N   0  0  0  0  0  0  0  0  0  0  0  0
   38.5260   21.9010   33.7480 C   0  0  0  0  0  0  0  0  0  0  0  0
   37.6890   21.3340   32.8690 N   0  0  0  0  0  0  0  0  0  0  0  0
   36.5260   21.0590   33.5600 C   0  0  0  0  0  0  0  0  0  0  0  0
   36.7070   21.4780   34.8530 N   0  0  0  0  0  0  0  0  0  0  0  0
   37.4200   23.1440   37.0080 C   0  0  0  0  0  0  0  0  0  0  0  0
   38.3620   22.4990   36.2290 C   0  0  0  0  0  0  0  0  0  0  0  0
   39.6650   22.3580   36.6980 C   0  0  0  0  0  0  0  0  0  0  0  0
   39.9530   22.8770   37.9320 N   0  0  0  0  0  0  0  0  0  0  0  0
   39.0110   23.5000   38.6650 C   0  0  0  0  0  0  0  0  0  0  0  0
   37.7500   23.6280   38.1940 N   0  0  0  0  0  0  0  0  0  0  0  0
   35.3050   20.4790   33.2010 O   0  0  0  0  0  0  0  0  0  0  0  0
   34.9210   20.4210   31.8370 C   0  0  0  0  0  0  0  0  0  0  0  0
   35.6670   19.4660   31.1610 F   0  0  0  0  0  0  0  0  0  0  0  0
   33.5750   20.0500   31.8360 F   0  0  0  0  0  0  0  0  0  0  0  0
   35.0580   21.6580   31.2090 F   0  0  0  0  0  0  0  0  0  0  0  0
   39.5454   22.2425   33.5152 H   0  0  0  0  0  0  0  0  0  0  0  0
   36.3896   23.2555   36.6395 H   0  0  0  0  0  0  0  0  0  0  0  0
   40.4347   21.8486   36.0996 H   0  0  0  0  0  0  0  0  0  0  0  0
   39.2689   23.9076   39.6536 H   0  0  0  0  0  0  0  0  0  0  0  0
  1  7  1  0
  2  1  1  0
  3  4  1  0
  3  2  2  0
  4  5  2  0
  5  1  1  0
  6 11  2  0
  7  8  2  0
  7  6  1  0
  8  9  1  0
  9 10  2  0
 11 10  1  0
 12  4  1  0
 13 12  1  0
 14 13  1  0
 15 13  1  0
 16 13  1  0
  2 17  1  0
  6 18  1  0
  8 19  1  0
 10 20  1  0
M  ISO  4  17  14  18  14  19  14  20  14
M  END
>  <minimizedAffinity>  (1) 
-4.45802402

>  <minimizedRMSD>  (1) 
0.554942191

$$$$
