
     RDKit          3D

 29 30  0  0  0  0  0  0  0  0999 V2000
   38.1220   22.9540   34.8550 N   0  0  0  0  0  0  0  0  0  0  0  0
   38.2160   23.7320   33.7570 C   0  0  0  0  0  0  0  0  0  0  0  0
   37.8020   23.0360   32.6820 N   0  0  0  0  0  0  0  0  0  0  0  0
   37.4430   21.7870   33.1430 C   0  0  0  0  0  0  0  0  0  0  0  0
   37.6550   21.7790   34.4820 N   0  0  0  0  0  0  0  0  0  0  0  0
   37.5380   23.9390   36.9790 C   0  0  0  0  0  0  0  0  0  0  0  0
   38.4210   23.1760   36.2350 C   0  0  0  0  0  0  0  0  0  0  0  0
   39.5480   22.6660   36.8750 C   0  0  0  0  0  0  0  0  0  0  0  0
   39.7540   22.9260   38.1890 N   0  0  0  0  0  0  0  0  0  0  0  0
   38.8520   23.6850   38.8790 C   0  0  0  0  0  0  0  0  0  0  0  0
   37.7640   24.1780   38.2670 N   0  0  0  0  0  0  0  0  0  0  0  0
   36.9470   20.6460   32.5160 O   0  0  0  0  0  0  0  0  0  0  0  0
   35.9170   20.6690   31.5660 C   0  0  0  0  0  0  0  0  0  0  0  0
   36.4260   19.9430   30.3200 C   0  0  0  0  0  0  0  0  0  0  0  0
   34.7850   19.8210   32.1200 C   0  0  0  0  0  0  0  0  0  0  0  0
   35.4610   22.0280   31.1490 C   0  0  0  0  0  0  0  0  0  0  0  0
   38.5746   24.7718   33.7425 H   0  0  0  0  0  0  0  0  0  0  0  0
   36.6388   24.3525   36.4990 H   0  0  0  0  0  0  0  0  0  0  0  0
   40.2696   22.0532   36.3149 H   0  0  0  0  0  0  0  0  0  0  0  0
   39.0188   23.8941   39.9460 H   0  0  0  0  0  0  0  0  0  0  0  0
   37.0331   19.0770   30.6225 H   0  0  0  0  0  0  0  0  0  0  0  0
   35.5701   19.5993   29.7206 H   0  0  0  0  0  0  0  0  0  0  0  0
   37.0409   20.6305   29.7206 H   0  0  0  0  0  0  0  0  0  0  0  0
   34.8145   19.8431   33.2194 H   0  0  0  0  0  0  0  0  0  0  0  0
   33.8219   20.2217   31.7709 H   0  0  0  0  0  0  0  0  0  0  0  0
   34.8989   18.7841   31.7709 H   0  0  0  0  0  0  0  0  0  0  0  0
   35.2569   22.6364   32.0424 H   0  0  0  0  0  0  0  0  0  0  0  0
   36.2466   22.5102   30.5487 H   0  0  0  0  0  0  0  0  0  0  0  0
   34.5436   21.9388   30.5487 H   0  0  0  0  0  0  0  0  0  0  0  0
  1  7  1  0
  2  1  1  0
  3  4  1  0
  3  2  2  0
  4  5  2  0
  5  1  1  0
  6 11  2  0
  7  8  2  0
  7  6  1  0
  8  9  1  0
  9 10  2  0
 11 10  1  0
 12  4  1  0
 13 15  1  0
 13 12  1  0
 14 13  1  0
 16 13  1  0
  2 17  1  0
  6 18  1  0
  8 19  1  0
 10 20  1  0
 14 21  1  0
 14 22  1  0
 14 23  1  0
 15 24  1  0
 15 25  1  0
 15 26  1  0
 16 27  1  0
 16 28  1  0
 16 29  1  0
M  ISO  8  17  14  18  14  19  14  20  14  21   8  22   8  23   8  24   8
M  ISO  5  25   8  26   8  27   8  28   8  29   8
M  END
>  <minimizedAffinity>  (1) 
-4.34497023

>  <minimizedRMSD>  (1) 
1.17182899

$$$$
