
     RDKit          3D

 23 24  0  0  0  0  0  0  0  0999 V2000
   37.8240   21.8750   34.6880 N   0  0  0  0  0  0  0  0  0  0  0  0
   38.4180   21.7400   33.4670 C   0  0  0  0  0  0  0  0  0  0  0  0
   37.5300   21.2670   32.5800 N   0  0  0  0  0  0  0  0  0  0  0  0
   36.3460   21.1020   33.2660 C   0  0  0  0  0  0  0  0  0  0  0  0
   36.5700   21.4860   34.5550 N   0  0  0  0  0  0  0  0  0  0  0  0
   37.3740   22.9130   36.7990 C   0  0  0  0  0  0  0  0  0  0  0  0
   38.3070   22.3250   35.9350 C   0  0  0  0  0  0  0  0  0  0  0  0
   39.6070   22.2330   36.3580 C   0  0  0  0  0  0  0  0  0  0  0  0
   39.9820   22.6990   37.5780 N   0  0  0  0  0  0  0  0  0  0  0  0
   39.0520   23.2640   38.3920 C   0  0  0  0  0  0  0  0  0  0  0  0
   37.7530   23.3660   37.9900 N   0  0  0  0  0  0  0  0  0  0  0  0
   35.0650   20.6500   32.9080 O   0  0  0  0  0  0  0  0  0  0  0  0
   34.8830   19.5530   32.0540 C   0  0  0  0  0  0  0  0  0  0  0  0
   35.3060   18.2410   32.6610 C   0  0  0  0  0  0  0  0  0  0  0  0
   39.4674   21.9826   33.2437 H   0  0  0  0  0  0  0  0  0  0  0  0
   36.3219   23.0003   36.4902 H   0  0  0  0  0  0  0  0  0  0  0  0
   40.3592   21.7745   35.6993 H   0  0  0  0  0  0  0  0  0  0  0  0
   39.3490   23.6415   39.3816 H   0  0  0  0  0  0  0  0  0  0  0  0
   35.4738   19.7207   31.1414 H   0  0  0  0  0  0  0  0  0  0  0  0
   33.8052   19.4804   31.8465 H   0  0  0  0  0  0  0  0  0  0  0  0
   35.2807   18.3194   33.7579 H   0  0  0  0  0  0  0  0  0  0  0  0
   34.6183   17.4471   32.3342 H   0  0  0  0  0  0  0  0  0  0  0  0
   36.3279   17.9983   32.3342 H   0  0  0  0  0  0  0  0  0  0  0  0
  1  7  1  0
  2  1  1  0
  3  4  1  0
  3  2  2  0
  4  5  2  0
  5  1  1  0
  6 11  2  0
  7  8  2  0
  7  6  1  0
  8  9  1  0
  9 10  2  0
 11 10  1  0
 12  4  1  0
 13 14  1  0
 13 12  1  0
  2 15  1  0
  6 16  1  0
  8 17  1  0
 10 18  1  0
 13 19  1  0
 13 20  1  0
 14 21  1  0
 14 22  1  0
 14 23  1  0
M  ISO  8  15  14  16  14  17  14  18  14  19   8  20   8  21   8  22   8
M  ISO  1  23   8
M  END
>  <minimizedAffinity>  (1) 
-3.86561728

>  <minimizedRMSD>  (1) 
0.543430865

$$$$
