
     RDKit          3D

 24 26  0  0  0  0  0  0  0  0999 V2000
   38.6180   22.0750   34.7550 N   0  0  0  0  0  0  0  0  0  0  0  0
   39.4980   21.8640   33.7560 C   0  0  0  0  0  0  0  0  0  0  0  0
   38.8410   21.4450   32.6540 N   0  0  0  0  0  0  0  0  0  0  0  0
   37.5020   21.3960   32.9890 C   0  0  0  0  0  0  0  0  0  0  0  0
   37.3990   21.7870   34.2810 N   0  0  0  0  0  0  0  0  0  0  0  0
   37.6230   23.0200   36.7220 C   0  0  0  0  0  0  0  0  0  0  0  0
   38.7500   22.5110   36.1070 C   0  0  0  0  0  0  0  0  0  0  0  0
   39.9460   22.4430   36.8150 C   0  0  0  0  0  0  0  0  0  0  0  0
   39.9680   22.8850   38.1040 N   0  0  0  0  0  0  0  0  0  0  0  0
   38.8520   23.3790   38.6820 C   0  0  0  0  0  0  0  0  0  0  0  0
   37.6880   23.4420   37.9850 N   0  0  0  0  0  0  0  0  0  0  0  0
   36.3840   21.0380   32.2550 O   0  0  0  0  0  0  0  0  0  0  0  0
   35.4350   20.2500   32.9730 C   0  0  0  0  0  0  0  0  0  0  0  0
   34.4550   19.5500   32.0450 C   0  0  0  0  0  0  0  0  0  0  0  0
   35.4240   18.7830   32.8850 C   0  0  0  0  0  0  0  0  0  0  0  0
   40.5858   22.0109   33.8279 H   0  0  0  0  0  0  0  0  0  0  0  0
   36.6730   23.0771   36.1705 H   0  0  0  0  0  0  0  0  0  0  0  0
   40.8550   22.0408   36.3440 H   0  0  0  0  0  0  0  0  0  0  0  0
   38.8859   23.7324   39.7232 H   0  0  0  0  0  0  0  0  0  0  0  0
   35.4255   20.9225   33.8434 H   0  0  0  0  0  0  0  0  0  0  0  0
   34.5884   19.6045   30.9545 H   0  0  0  0  0  0  0  0  0  0  0  0
   33.3639   19.5525   31.9053 H   0  0  0  0  0  0  0  0  0  0  0  0
   35.0575   18.1886   33.7349 H   0  0  0  0  0  0  0  0  0  0  0  0
   36.1884   18.0210   32.6729 H   0  0  0  0  0  0  0  0  0  0  0  0
  1  7  1  0
  2  1  1  0
  3  4  1  0
  3  2  2  0
  4  5  2  0
  5  1  1  0
  6 11  2  0
  7  6  1  0
  7  8  2  0
  8  9  1  0
  9 10  2  0
 11 10  1  0
 12 13  1  0
 12  4  1  0
 14 15  1  0
 14 13  1  0
 15 13  1  0
  2 16  1  0
  6 17  1  0
  8 18  1  0
 10 19  1  0
 13 20  1  0
 14 21  1  0
 14 22  1  0
 15 23  1  0
 15 24  1  0
M  ISO  8  16  14  17  14  18  14  19  14  20  13  21  13  22  13  23  13
M  ISO  1  24  13
M  END
>  <minimizedAffinity>  (1) 
-4.13464069

>  <minimizedRMSD>  (1) 
1.3670522

$$$$
