
     RDKit          3D

 33 36  0  0  1  0  0  0  0  0999 V2000
   38.8050   22.1100   34.7630 N   0  0  0  0  0  0  0  0  0  0  0  0
   39.7350   22.0430   33.7800 C   0  0  0  0  0  0  0  0  0  0  0  0
   39.1650   21.5360   32.6600 N   0  0  0  0  0  0  0  0  0  0  0  0
   37.8460   21.2860   32.9760 C   0  0  0  0  0  0  0  0  0  0  0  0
   37.6660   21.6480   34.2570 N   0  0  0  0  0  0  0  0  0  0  0  0
   37.6640   23.0400   36.6470 C   0  0  0  0  0  0  0  0  0  0  0  0
   38.8380   22.5470   36.1280 C   0  0  0  0  0  0  0  0  0  0  0  0
   39.9870   22.4910   36.8890 C   0  0  0  0  0  0  0  0  0  0  0  0
   39.9460   22.9370   38.1840 N   0  0  0  0  0  0  0  0  0  0  0  0
   38.7980   23.4170   38.6850 C   0  0  0  0  0  0  0  0  0  0  0  0
   37.6910   23.4620   37.9230 N   0  0  0  0  0  0  0  0  0  0  0  0
   36.8710   20.7660   32.1730 O   0  0  0  0  0  0  0  0  0  0  0  0
   35.6000   20.5950   32.8200 C   0  0  1  0  0  0  0  0  0  0  0  0
   34.4780   20.2200   31.9010 C   0  0  0  0  0  0  0  0  0  0  0  0
   35.0490   19.1990   32.8470 C   0  0  1  0  0  0  0  0  0  0  0  0
   35.9090   18.1130   32.3490 C   0  0  0  0  0  0  0  0  0  0  0  0
   35.5210   16.7850   32.3450 C   0  0  0  0  0  0  0  0  0  0  0  0
   36.2960   15.7570   31.8870 C   0  0  0  0  0  0  0  0  0  0  0  0
   37.5520   16.0550   31.3920 C   0  0  0  0  0  0  0  0  0  0  0  0
   37.8900   17.3950   31.4200 C   0  0  0  0  0  0  0  0  0  0  0  0
   37.1370   18.3920   31.8650 N   0  0  0  0  0  0  0  0  0  0  0  0
   40.7865   22.3514   33.8759 H   0  0  0  0  0  0  0  0  0  0  0  0
   36.7444   23.0869   36.0453 H   0  0  0  0  0  0  0  0  0  0  0  0
   40.9208   22.0949   36.4634 H   0  0  0  0  0  0  0  0  0  0  0  0
   38.7620   23.7756   39.7243 H   0  0  0  0  0  0  0  0  0  0  0  0
   35.7687   21.3692   33.5830 H   0  0  0  0  0  0  0  0  0  0  0  0
   33.4692   20.6240   32.0713 H   0  0  0  0  0  0  0  0  0  0  0  0
   34.3136   20.2675   30.8144 H   0  0  0  0  0  0  0  0  0  0  0  0
   34.6104   18.5308   33.6027 H   0  0  0  0  0  0  0  0  0  0  0  0
   34.5225   16.5405   32.7364 H   0  0  0  0  0  0  0  0  0  0  0  0
   35.9303   14.7199   31.9115 H   0  0  0  0  0  0  0  0  0  0  0  0
   38.2324   15.2825   31.0043 H   0  0  0  0  0  0  0  0  0  0  0  0
   38.8849   17.6617   31.0339 H   0  0  0  0  0  0  0  0  0  0  0  0
  1  7  1  0
  2  1  1  0
  3  4  1  0
  3  2  2  0
  4  5  2  0
  5  1  1  0
  6 11  2  0
  7  6  1  0
  7  8  2  0
  8  9  1  0
  9 10  2  0
 11 10  1  0
 12 13  1  0
 12  4  1  0
 13 15  1  0
 14 13  1  0
 14 15  1  0
 16 15  1  0
 17 16  2  0
 18 17  1  0
 19 20  1  0
 19 18  2  0
 20 21  2  0
 21 16  1  0
  2 22  1  0
  6 23  1  0
  8 24  1  0
 10 25  1  0
 13 26  1  1
 14 27  1  0
 14 28  1  0
 15 29  1  1
 17 30  1  0
 18 31  1  0
 19 32  1  0
 20 33  1  0
M  ISO  8  22  14  23  14  24  14  25  14  26  13  27  13  28  13  29  13
M  ISO  4  30  14  31  14  32  14  33  14
M  END
>  <minimizedAffinity>  (1) 
-4.77528524

>  <minimizedRMSD>  (1) 
0.706408679

$$$$
