
     RDKit          3D

 31 34  0  0  1  0  0  0  0  0999 V2000
   38.0040   23.1260   34.8790 N   0  0  0  0  0  0  0  0  0  0  0  0
   38.0470   23.9550   33.8190 C   0  0  0  0  0  0  0  0  0  0  0  0
   37.5810   23.3020   32.7250 N   0  0  0  0  0  0  0  0  0  0  0  0
   37.2480   22.0370   33.1440 C   0  0  0  0  0  0  0  0  0  0  0  0
   37.5150   21.9650   34.4560 N   0  0  0  0  0  0  0  0  0  0  0  0
   37.5330   24.0080   37.0560 C   0  0  0  0  0  0  0  0  0  0  0  0
   38.3700   23.2630   36.2600 C   0  0  0  0  0  0  0  0  0  0  0  0
   39.5230   22.6790   36.7860 C   0  0  0  0  0  0  0  0  0  0  0  0
   39.7900   22.8690   38.0990 N   0  0  0  0  0  0  0  0  0  0  0  0
   38.9800   23.5940   38.8800 C   0  0  0  0  0  0  0  0  0  0  0  0
   37.8760   24.1450   38.3490 N   0  0  0  0  0  0  0  0  0  0  0  0
   36.7430   21.0130   32.3970 O   0  0  0  0  0  0  0  0  0  0  0  0
   35.6020   20.3640   32.9610 C   0  0  1  0  0  0  0  0  0  0  0  0
   34.4630   20.1600   32.0100 C   0  0  0  0  0  0  0  0  0  0  0  0
   35.2910   18.9840   32.4550 C   0  0  1  0  0  0  0  0  0  0  0  0
   36.2360   18.3510   31.5330 C   0  0  0  0  0  0  0  0  0  0  0  0
   37.1860   17.3820   31.8480 C   0  0  0  0  0  0  0  0  0  0  0  0
   37.8250   17.1030   30.6660 C   0  0  0  0  0  0  0  0  0  0  0  0
   37.2330   17.9160   29.6960 C   0  0  0  0  0  0  0  0  0  0  0  0
   36.2930   18.6420   30.2540 O   0  0  0  0  0  0  0  0  0  0  0  0
   38.4031   24.9956   33.8371 H   0  0  0  0  0  0  0  0  0  0  0  0
   36.6212   24.4725   36.6524 H   0  0  0  0  0  0  0  0  0  0  0  0
   40.1950   22.0818   36.1521 H   0  0  0  0  0  0  0  0  0  0  0  0
   39.2158   23.7370   39.9449 H   0  0  0  0  0  0  0  0  0  0  0  0
   35.7256   20.8037   33.9617 H   0  0  0  0  0  0  0  0  0  0  0  0
   34.5384   20.5255   30.9752 H   0  0  0  0  0  0  0  0  0  0  0  0
   33.3903   20.4032   32.0179 H   0  0  0  0  0  0  0  0  0  0  0  0
   35.0583   18.0089   32.9078 H   0  0  0  0  0  0  0  0  0  0  0  0
   37.3821   16.9356   32.8340 H   0  0  0  0  0  0  0  0  0  0  0  0
   38.6415   16.3821   30.5126 H   0  0  0  0  0  0  0  0  0  0  0  0
   37.5111   17.9432   28.6321 H   0  0  0  0  0  0  0  0  0  0  0  0
  1  7  1  0
  2  1  1  0
  3  4  1  0
  3  2  2  0
  4  5  2  0
  5  1  1  0
  6 11  2  0
  7  8  2  0
  7  6  1  0
  8  9  1  0
  9 10  2  0
 11 10  1  0
 12 13  1  0
 12  4  1  0
 14 15  1  0
 14 13  1  0
 15 13  1  0
 16 17  2  0
 16 15  1  0
 18 17  1  0
 19 20  1  0
 19 18  2  0
 20 16  1  0
  2 21  1  0
  6 22  1  0
  8 23  1  0
 10 24  1  0
 13 25  1  1
 14 26  1  0
 14 27  1  0
 15 28  1  1
 17 29  1  0
 18 30  1  0
 19 31  1  0
M  ISO  8  21  14  22  14  23  14  24  14  25  13  26  13  27  13  28  13
M  ISO  3  29  14  30  14  31  14
M  END
>  <minimizedAffinity>  (1) 
-4.73051977

>  <minimizedRMSD>  (1) 
1.26806569

$$$$
