
     RDKit          3D

 41 45  0  0  1  0  0  0  0  0999 V2000
   36.3370   21.8900   32.2500 C   0  0  1  0  0  0  0  0  0  0  0  0
   35.4270   21.8400   31.0860 C   0  0  0  0  0  0  0  0  0  0  0  0
   35.4260   20.7080   32.0280 C   0  0  1  0  0  0  0  0  0  0  0  0
   35.7770   19.4240   31.6760 N   0  0  0  0  0  0  0  0  0  0  0  0
   35.4480   18.4240   32.5670 C   0  0  0  0  0  0  0  0  0  0  0  0
   35.8920   17.2150   32.0330 C   0  0  0  0  0  0  0  0  0  0  0  0
   36.4780   17.5100   30.8300 N   0  0  0  0  0  0  0  0  0  0  0  0
   36.3810   18.8380   30.6650 C   0  0  0  0  0  0  0  0  0  0  0  0
   37.0080   18.9960   29.3780 C   0  0  0  0  0  0  0  0  0  0  0  0
   36.5040   18.4520   28.1870 C   0  0  0  0  0  0  0  0  0  0  0  0
   37.0540   18.5300   26.9480 C   0  0  0  0  0  0  0  0  0  0  0  0
   38.2290   19.2300   26.9310 C   0  0  0  0  0  0  0  0  0  0  0  0
   38.8600   19.8210   27.9780 C   0  0  0  0  0  0  0  0  0  0  0  0
   38.2290   19.6950   29.2150 C   0  0  0  0  0  0  0  0  0  0  0  0
   37.6930   21.5780   32.0830 O   0  0  0  0  0  0  0  0  0  0  0  0
   39.1590   22.4690   35.1170 N   0  0  0  0  0  0  0  0  0  0  0  0
   40.2350   22.0630   34.4350 C   0  0  0  0  0  0  0  0  0  0  0  0
   39.8710   21.6760   33.2140 N   0  0  0  0  0  0  0  0  0  0  0  0
   38.5130   21.8470   33.1390 C   0  0  0  0  0  0  0  0  0  0  0  0
   38.0820   22.3370   34.3110 N   0  0  0  0  0  0  0  0  0  0  0  0
   37.7970   23.7490   36.6450 C   0  0  0  0  0  0  0  0  0  0  0  0
   38.9230   22.9860   36.4470 C   0  0  0  0  0  0  0  0  0  0  0  0
   39.8160   22.7150   37.4900 C   0  0  0  0  0  0  0  0  0  0  0  0
   39.5140   23.2450   38.7200 N   0  0  0  0  0  0  0  0  0  0  0  0
   38.3910   23.9960   38.8850 C   0  0  0  0  0  0  0  0  0  0  0  0
   37.5580   24.2360   37.8620 N   0  0  0  0  0  0  0  0  0  0  0  0
   36.5214   22.6517   33.0218 H   0  0  0  0  0  0  0  0  0  0  0  0
   35.8405   21.7086   30.0752 H   0  0  0  0  0  0  0  0  0  0  0  0
   34.6505   22.5096   30.6878 H   0  0  0  0  0  0  0  0  0  0  0  0
   34.6971   20.1826   32.6625 H   0  0  0  0  0  0  0  0  0  0  0  0
   34.9282   18.5566   33.5273 H   0  0  0  0  0  0  0  0  0  0  0  0
   35.7915   16.2188   32.4885 H   0  0  0  0  0  0  0  0  0  0  0  0
   35.5559   17.8998   28.2659 H   0  0  0  0  0  0  0  0  0  0  0  0
   36.6024   18.0780   26.0526 H   0  0  0  0  0  0  0  0  0  0  0  0
   38.7216   19.3256   25.9521 H   0  0  0  0  0  0  0  0  0  0  0  0
   39.8087   20.3646   27.8580 H   0  0  0  0  0  0  0  0  0  0  0  0
   38.6971   20.1558   30.0974 H   0  0  0  0  0  0  0  0  0  0  0  0
   41.2641   22.0506   34.8234 H   0  0  0  0  0  0  0  0  0  0  0  0
   37.1059   23.9538   35.8141 H   0  0  0  0  0  0  0  0  0  0  0  0
   40.7180   22.1056   37.3316 H   0  0  0  0  0  0  0  0  0  0  0  0
   38.1624   24.4141   39.8764 H   0  0  0  0  0  0  0  0  0  0  0  0
  2  3  1  0
  2  1  1  0
  3  1  1  0
  4  3  1  0
  4  5  1  0
  6  5  2  0
  7  6  1  0
  8  7  2  0
  8  4  1  0
  9  8  1  0
 10  9  2  0
 11 10  1  0
 12 11  2  0
 12 13  1  0
 13 14  2  0
 14  9  1  0
 15  1  1  0
 15 19  1  0
 16 22  1  0
 17 16  1  0
 18 17  2  0
 19 18  1  0
 19 20  2  0
 20 16  1  0
 21 26  2  0
 22 21  1  0
 22 23  2  0
 23 24  1  0
 24 25  2  0
 26 25  1  0
  1 27  1  1
  2 28  1  0
  2 29  1  0
  3 30  1  1
  5 31  1  0
  6 32  1  0
 10 33  1  0
 11 34  1  0
 12 35  1  0
 13 36  1  0
 14 37  1  0
 17 38  1  0
 21 39  1  0
 23 40  1  0
 25 41  1  0
M  ISO  8  27  13  28  13  29  13  30  13  31  14  32  14  33  14  34  14
M  ISO  7  35  14  36  14  37  14  38  14  39  14  40  14  41  14
M  END
>  <minimizedAffinity>  (1) 
-5.0640707

>  <minimizedRMSD>  (1) 
1.93214154

$$$$
