
     RDKit          3D

 38 42  0  0  1  0  0  0  0  0999 V2000
   36.3680   21.9120   32.3030 C   0  0  1  0  0  0  0  0  0  0  0  0
   35.5080   21.8560   31.0970 C   0  0  0  0  0  0  0  0  0  0  0  0
   35.4210   20.7620   32.0830 C   0  0  1  0  0  0  0  0  0  0  0  0
   35.7440   19.4540   31.7780 N   0  0  0  0  0  0  0  0  0  0  0  0
   35.3450   18.4920   32.6880 C   0  0  0  0  0  0  0  0  0  0  0  0
   35.7700   17.2570   32.2110 C   0  0  0  0  0  0  0  0  0  0  0  0
   36.4040   17.4890   31.0440 N   0  0  0  0  0  0  0  0  0  0  0  0
   36.3670   18.8230   30.8140 C   0  0  0  0  0  0  0  0  0  0  0  0
   37.0150   18.9460   29.5750 N   0  0  0  0  0  0  0  0  0  0  0  0
   38.1750   19.5910   29.2200 C   0  0  0  0  0  0  0  0  0  0  0  0
   38.4400   19.5050   27.8820 C   0  0  0  0  0  0  0  0  0  0  0  0
   37.4470   18.7990   27.3600 N   0  0  0  0  0  0  0  0  0  0  0  0
   36.6110   18.4720   28.3510 C   0  0  0  0  0  0  0  0  0  0  0  0
   37.7190   21.5510   32.1900 O   0  0  0  0  0  0  0  0  0  0  0  0
   39.1400   22.5620   35.2040 N   0  0  0  0  0  0  0  0  0  0  0  0
   40.2280   22.1340   34.5550 C   0  0  0  0  0  0  0  0  0  0  0  0
   39.8850   21.6950   33.3400 N   0  0  0  0  0  0  0  0  0  0  0  0
   38.5340   21.8560   33.2320 C   0  0  0  0  0  0  0  0  0  0  0  0
   38.0820   22.3910   34.3850 N   0  0  0  0  0  0  0  0  0  0  0  0
   37.8540   24.0210   36.6200 C   0  0  0  0  0  0  0  0  0  0  0  0
   38.8910   23.1260   36.5040 C   0  0  0  0  0  0  0  0  0  0  0  0
   39.6750   22.7680   37.6110 C   0  0  0  0  0  0  0  0  0  0  0  0
   39.3620   23.3480   38.8140 N   0  0  0  0  0  0  0  0  0  0  0  0
   38.3370   24.2230   38.8940 C   0  0  0  0  0  0  0  0  0  0  0  0
   37.6030   24.5520   37.8300 N   0  0  0  0  0  0  0  0  0  0  0  0
   36.5479   22.6861   33.0635 H   0  0  0  0  0  0  0  0  0  0  0  0
   35.9598   21.6691   30.1116 H   0  0  0  0  0  0  0  0  0  0  0  0
   34.7786   22.5397   30.6382 H   0  0  0  0  0  0  0  0  0  0  0  0
   34.6464   20.2928   32.7074 H   0  0  0  0  0  0  0  0  0  0  0  0
   34.7911   18.6716   33.6212 H   0  0  0  0  0  0  0  0  0  0  0  0
   35.6183   16.2797   32.6926 H   0  0  0  0  0  0  0  0  0  0  0  0
   38.8212   20.1200   29.9360 H   0  0  0  0  0  0  0  0  0  0  0  0
   39.3008   19.9337   27.3479 H   0  0  0  0  0  0  0  0  0  0  0  0
   35.6937   17.8837   28.2012 H   0  0  0  0  0  0  0  0  0  0  0  0
   41.2508   22.1420   34.9599 H   0  0  0  0  0  0  0  0  0  0  0  0
   37.2453   24.2957   35.7459 H   0  0  0  0  0  0  0  0  0  0  0  0
   40.5054   22.0526   37.5182 H   0  0  0  0  0  0  0  0  0  0  0  0
   38.0999   24.6787   39.8667 H   0  0  0  0  0  0  0  0  0  0  0  0
  2  3  1  0
  2  1  1  0
  3  1  1  0
  4  3  1  0
  4  5  1  0
  6  5  2  0
  7  6  1  0
  8  7  2  0
  8  4  1  0
  9  8  1  0
 10  9  1  0
 11 10  2  0
 12 11  1  0
 12 13  2  0
 13  9  1  0
 14  1  1  0
 14 18  1  0
 15 21  1  0
 16 15  1  0
 17 16  2  0
 18 17  1  0
 18 19  2  0
 19 15  1  0
 20 25  2  0
 21 20  1  0
 21 22  2  0
 22 23  1  0
 23 24  2  0
 25 24  1  0
  1 26  1  1
  2 27  1  0
  2 28  1  0
  3 29  1  1
  5 30  1  0
  6 31  1  0
 10 32  1  0
 11 33  1  0
 13 34  1  0
 16 35  1  0
 20 36  1  0
 22 37  1  0
 24 38  1  0
M  ISO  8  26  13  27  13  28  13  29  13  30  14  31  14  32  14  33  14
M  ISO  5  34  14  35  14  36  14  37  14  38  14
M  END
>  <minimizedAffinity>  (1) 
-4.95615101

>  <minimizedRMSD>  (1) 
1.74957776

$$$$
