
     RDKit          3D

 38 42  0  0  1  0  0  0  0  0999 V2000
   36.2790   21.8670   32.1920 C   0  0  1  0  0  0  0  0  0  0  0  0
   35.3560   21.7580   31.0360 C   0  0  0  0  0  0  0  0  0  0  0  0
   35.3740   20.6720   32.0320 C   0  0  1  0  0  0  0  0  0  0  0  0
   35.7410   19.3780   31.7180 N   0  0  0  0  0  0  0  0  0  0  0  0
   35.3310   18.3900   32.5970 C   0  0  0  0  0  0  0  0  0  0  0  0
   35.7990   17.1740   32.1270 C   0  0  0  0  0  0  0  0  0  0  0  0
   36.4680   17.4480   30.9900 N   0  0  0  0  0  0  0  0  0  0  0  0
   36.4150   18.7650   30.7710 C   0  0  0  0  0  0  0  0  0  0  0  0
   37.1280   18.9450   29.5200 C   0  0  0  0  0  0  0  0  0  0  0  0
   36.5240   18.4920   28.2120 C   0  0  0  0  0  0  0  0  0  0  0  0
   37.3020   18.7590   27.1470 C   0  0  0  0  0  0  0  0  0  0  0  0
   38.5550   19.4030   27.2910 C   0  0  0  0  0  0  0  0  0  0  0  0
   38.6380   19.6450   29.0270 S   0  0  0  0  0  0  0  0  0  0  0  0
   37.6410   21.5640   31.9860 O   0  0  0  0  0  0  0  0  0  0  0  0
   39.1570   22.4160   35.0080 N   0  0  0  0  0  0  0  0  0  0  0  0
   40.2290   22.0570   34.2870 C   0  0  0  0  0  0  0  0  0  0  0  0
   39.8390   21.6930   33.0660 N   0  0  0  0  0  0  0  0  0  0  0  0
   38.4780   21.8290   33.0300 C   0  0  0  0  0  0  0  0  0  0  0  0
   38.0650   22.2760   34.2290 N   0  0  0  0  0  0  0  0  0  0  0  0
   37.7880   23.5930   36.6040 C   0  0  0  0  0  0  0  0  0  0  0  0
   38.9520   22.8930   36.3520 C   0  0  0  0  0  0  0  0  0  0  0  0
   39.8920   22.6580   37.3550 C   0  0  0  0  0  0  0  0  0  0  0  0
   39.6060   23.1550   38.6060 N   0  0  0  0  0  0  0  0  0  0  0  0
   38.4470   23.8430   38.8250 C   0  0  0  0  0  0  0  0  0  0  0  0
   37.5650   24.0500   37.8330 N   0  0  0  0  0  0  0  0  0  0  0  0
   36.4654   22.6513   32.9404 H   0  0  0  0  0  0  0  0  0  0  0  0
   35.7607   21.5820   30.0284 H   0  0  0  0  0  0  0  0  0  0  0  0
   34.5711   22.4027   30.6138 H   0  0  0  0  0  0  0  0  0  0  0  0
   34.6570   20.1742   32.7014 H   0  0  0  0  0  0  0  0  0  0  0  0
   34.7369   18.5439   33.5099 H   0  0  0  0  0  0  0  0  0  0  0  0
   35.6540   16.1859   32.5881 H   0  0  0  0  0  0  0  0  0  0  0  0
   35.5462   17.9938   28.1374 H   0  0  0  0  0  0  0  0  0  0  0  0
   36.9573   18.4708   26.1429 H   0  0  0  0  0  0  0  0  0  0  0  0
   39.2857   19.6794   26.5166 H   0  0  0  0  0  0  0  0  0  0  0  0
   41.2683   22.0622   34.6473 H   0  0  0  0  0  0  0  0  0  0  0  0
   37.0572   23.7696   35.8010 H   0  0  0  0  0  0  0  0  0  0  0  0
   40.8193   22.1010   37.1554 H   0  0  0  0  0  0  0  0  0  0  0  0
   38.2320   24.2342   39.8303 H   0  0  0  0  0  0  0  0  0  0  0  0
  2  3  1  0
  2  1  1  0
  3  1  1  0
  4  3  1  0
  4  5  1  0
  6  5  2  0
  7  6  1  0
  8  7  2  0
  8  4  1  0
  9  8  1  0
 10  9  2  0
 11 12  2  0
 11 10  1  0
 12 13  1  0
 13  9  1  0
 14  1  1  0
 14 18  1  0
 15 21  1  0
 16 15  1  0
 17 16  2  0
 18 17  1  0
 18 19  2  0
 19 15  1  0
 20 25  2  0
 21 20  1  0
 21 22  2  0
 22 23  1  0
 23 24  2  0
 25 24  1  0
  1 26  1  1
  2 27  1  0
  2 28  1  0
  3 29  1  1
  5 30  1  0
  6 31  1  0
 10 32  1  0
 11 33  1  0
 12 34  1  0
 16 35  1  0
 20 36  1  0
 22 37  1  0
 24 38  1  0
M  ISO  8  26  13  27  13  28  13  29  13  30  14  31  14  32  14  33  14
M  ISO  5  34  14  35  14  36  14  37  14  38  14
M  END
>  <minimizedAffinity>  (1) 
-4.84096146

>  <minimizedRMSD>  (1) 
1.76477492

$$$$
