
     RDKit          3D

 38 42  0  0  1  0  0  0  0  0999 V2000
   36.2940   21.9030   32.1810 C   0  0  1  0  0  0  0  0  0  0  0  0
   35.3700   21.7930   31.0250 C   0  0  0  0  0  0  0  0  0  0  0  0
   35.3720   20.7200   32.0370 C   0  0  1  0  0  0  0  0  0  0  0  0
   35.7150   19.4180   31.7440 N   0  0  0  0  0  0  0  0  0  0  0  0
   35.3800   18.4610   32.6900 C   0  0  0  0  0  0  0  0  0  0  0  0
   35.8200   17.2270   32.2170 C   0  0  0  0  0  0  0  0  0  0  0  0
   36.4010   17.4610   31.0100 N   0  0  0  0  0  0  0  0  0  0  0  0
   36.3130   18.7770   30.7670 C   0  0  0  0  0  0  0  0  0  0  0  0
   36.9080   18.8930   29.4610 C   0  0  0  0  0  0  0  0  0  0  0  0
   38.1390   19.4770   29.1640 C   0  0  0  0  0  0  0  0  0  0  0  0
   38.4620   19.4910   27.8300 C   0  0  0  0  0  0  0  0  0  0  0  0
   37.3750   18.8910   27.3180 N   0  0  0  0  0  0  0  0  0  0  0  0
   36.4600   18.5340   28.2390 N   0  0  0  0  0  0  0  0  0  0  0  0
   37.6470   21.5790   31.9930 O   0  0  0  0  0  0  0  0  0  0  0  0
   39.1510   22.4150   35.0190 N   0  0  0  0  0  0  0  0  0  0  0  0
   40.2330   22.0530   34.2990 C   0  0  0  0  0  0  0  0  0  0  0  0
   39.8500   21.6930   33.0750 N   0  0  0  0  0  0  0  0  0  0  0  0
   38.4870   21.8340   33.0350 C   0  0  0  0  0  0  0  0  0  0  0  0
   38.0680   22.2790   34.2340 N   0  0  0  0  0  0  0  0  0  0  0  0
   37.7710   23.5480   36.6300 C   0  0  0  0  0  0  0  0  0  0  0  0
   38.9490   22.8820   36.3610 C   0  0  0  0  0  0  0  0  0  0  0  0
   39.9040   22.6750   37.3620 C   0  0  0  0  0  0  0  0  0  0  0  0
   39.6120   23.1620   38.6110 N   0  0  0  0  0  0  0  0  0  0  0  0
   38.4450   23.8130   38.8450 C   0  0  0  0  0  0  0  0  0  0  0  0
   37.5410   23.9970   37.8530 N   0  0  0  0  0  0  0  0  0  0  0  0
   36.4913   22.6973   32.9159 H   0  0  0  0  0  0  0  0  0  0  0  0
   35.7726   21.5974   30.0202 H   0  0  0  0  0  0  0  0  0  0  0  0
   34.5952   22.4436   30.5932 H   0  0  0  0  0  0  0  0  0  0  0  0
   34.6482   20.2419   32.7134 H   0  0  0  0  0  0  0  0  0  0  0  0
   34.8605   18.6435   33.6422 H   0  0  0  0  0  0  0  0  0  0  0  0
   35.7176   16.2545   32.7207 H   0  0  0  0  0  0  0  0  0  0  0  0
   38.7997   19.8939   29.9384 H   0  0  0  0  0  0  0  0  0  0  0  0
   39.3569   19.8824   27.3241 H   0  0  0  0  0  0  0  0  0  0  0  0
   37.2522   18.7191   26.3099 H   0  0  0  0  0  0  0  0  0  0  0  0
   41.2701   22.0548   34.6656 H   0  0  0  0  0  0  0  0  0  0  0  0
   37.0286   23.7045   35.8335 H   0  0  0  0  0  0  0  0  0  0  0  0
   40.8463   22.1458   37.1571 H   0  0  0  0  0  0  0  0  0  0  0  0
   38.2300   24.1964   39.8533 H   0  0  0  0  0  0  0  0  0  0  0  0
  2  3  1  0
  2  1  1  0
  3  1  1  0
  4  3  1  0
  4  5  1  0
  6  5  2  0
  7  6  1  0
  8  7  2  0
  8  4  1  0
  9  8  1  0
 10  9  1  0
 11 10  2  0
 12 11  1  0
 12 13  1  0
 13  9  2  0
 14  1  1  0
 14 18  1  0
 15 21  1  0
 16 15  1  0
 17 16  2  0
 18 17  1  0
 18 19  2  0
 19 15  1  0
 20 25  2  0
 21 20  1  0
 21 22  2  0
 22 23  1  0
 23 24  2  0
 25 24  1  0
  1 26  1  1
  2 27  1  0
  2 28  1  0
  3 29  1  1
  5 30  1  0
  6 31  1  0
 10 32  1  0
 11 33  1  0
 12 34  1  0
 16 35  1  0
 20 36  1  0
 22 37  1  0
 24 38  1  0
M  ISO  8  26  13  27  13  28  13  29  13  30  14  31  14  32  14  33  14
M  ISO  5  34   9  35  14  36  14  37  14  38  14
M  END
>  <minimizedAffinity>  (1) 
-4.83312321

>  <minimizedRMSD>  (1) 
1.74185681

$$$$
