
     RDKit          3D

 32 35  0  0  1  0  0  0  0  0999 V2000
   36.7730   20.7940   32.1750 O   0  0  0  0  0  0  0  0  0  0  0  0
   35.6200   20.3040   32.8280 C   0  0  1  0  0  0  0  0  0  0  0  0
   34.4700   19.8930   31.9810 C   0  0  0  0  0  0  0  0  0  0  0  0
   35.3380   18.8480   32.5550 C   0  0  1  0  0  0  0  0  0  0  0  0
   36.0890   17.9990   31.7610 N   0  0  0  0  0  0  0  0  0  0  0  0
   36.3960   16.7600   32.3010 C   0  0  0  0  0  0  0  0  0  0  0  0
   37.1480   16.0580   31.3550 C   0  0  0  0  0  0  0  0  0  0  0  0
   37.2800   16.8840   30.2600 N   0  0  0  0  0  0  0  0  0  0  0  0
   36.6290   18.0120   30.5660 C   0  0  0  0  0  0  0  0  0  0  0  0
   36.7590   18.9880   29.1030 S   0  0  0  0  0  0  0  0  0  0  0  0
   38.7620   22.0670   34.7360 N   0  0  0  0  0  0  0  0  0  0  0  0
   39.6760   21.9040   33.7770 C   0  0  0  0  0  0  0  0  0  0  0  0
   39.0980   21.4140   32.6810 N   0  0  0  0  0  0  0  0  0  0  0  0
   37.7540   21.2690   32.9870 C   0  0  0  0  0  0  0  0  0  0  0  0
   37.5630   21.6730   34.2500 N   0  0  0  0  0  0  0  0  0  0  0  0
   37.6230   23.0290   36.6320 C   0  0  0  0  0  0  0  0  0  0  0  0
   38.7880   22.5370   36.1020 C   0  0  0  0  0  0  0  0  0  0  0  0
   39.9690   22.4800   36.8610 C   0  0  0  0  0  0  0  0  0  0  0  0
   39.9000   22.9410   38.1490 N   0  0  0  0  0  0  0  0  0  0  0  0
   38.7360   23.4230   38.6490 C   0  0  0  0  0  0  0  0  0  0  0  0
   37.6230   23.4620   37.8920 N   0  0  0  0  0  0  0  0  0  0  0  0
   35.7251   20.9542   33.7091 H   0  0  0  0  0  0  0  0  0  0  0  0
   34.4914   20.0875   30.8985 H   0  0  0  0  0  0  0  0  0  0  0  0
   33.3885   20.0928   32.0005 H   0  0  0  0  0  0  0  0  0  0  0  0
   35.2209   17.9676   33.2040 H   0  0  0  0  0  0  0  0  0  0  0  0
   36.1007   16.3947   33.2957 H   0  0  0  0  0  0  0  0  0  0  0  0
   37.5558   15.0422   31.4636 H   0  0  0  0  0  0  0  0  0  0  0  0
   36.9341   20.3029   29.4453 H   0  0  0  0  0  0  0  0  0  0  0  0
   40.7460   22.1390   33.8766 H   0  0  0  0  0  0  0  0  0  0  0  0
   36.7047   23.0655   36.0276 H   0  0  0  0  0  0  0  0  0  0  0  0
   40.9051   22.0838   36.4406 H   0  0  0  0  0  0  0  0  0  0  0  0
   38.7001   23.7870   39.6864 H   0  0  0  0  0  0  0  0  0  0  0  0
  1  2  1  0
  1 14  1  0
  3  4  1  0
  3  2  1  0
  4  2  1  0
  5  6  1  0
  5  4  1  0
  7  6  2  0
  8  9  2  0
  8  7  1  0
  9  5  1  0
 10  9  1  0
 11 17  1  0
 12 11  1  0
 13 14  1  0
 13 12  2  0
 14 15  2  0
 15 11  1  0
 16 21  2  0
 17 16  1  0
 17 18  2  0
 18 19  1  0
 19 20  2  0
 21 20  1  0
  2 22  1  1
  3 23  1  0
  3 24  1  0
  4 25  1  1
  6 26  1  0
  7 27  1  0
 10 28  1  0
 12 29  1  0
 16 30  1  0
 18 31  1  0
 20 32  1  0
M  ISO  8  22  13  23  13  24  13  25  13  26  14  27  14  28  11  29  14
M  ISO  3  30  14  31  14  32  14
M  END
>  <minimizedAffinity>  (1) 
-4.63402557

>  <minimizedRMSD>  (1) 
0.716673136

$$$$
