
     RDKit          3D

 32 35  0  0  1  0  0  0  0  0999 V2000
   36.4320   21.0460   32.1990 O   0  0  0  0  0  0  0  0  0  0  0  0
   35.3430   20.4260   32.8760 C   0  0  1  0  0  0  0  0  0  0  0  0
   34.2640   19.8480   32.0430 C   0  0  0  0  0  0  0  0  0  0  0  0
   35.2570   18.9310   32.6670 C   0  0  1  0  0  0  0  0  0  0  0  0
   36.1220   18.1720   31.8850 N   0  0  0  0  0  0  0  0  0  0  0  0
   36.1290   16.8200   32.1160 C   0  0  0  0  0  0  0  0  0  0  0  0
   37.0390   16.2240   31.2450 C   0  0  0  0  0  0  0  0  0  0  0  0
   37.5760   17.2330   30.4870 N   0  0  0  0  0  0  0  0  0  0  0  0
   36.9960   18.3640   30.9100 C   0  0  0  0  0  0  0  0  0  0  0  0
   37.4480   19.4560   30.2230 O   0  0  0  0  0  0  0  0  0  0  0  0
   38.6150   22.0590   34.7270 N   0  0  0  0  0  0  0  0  0  0  0  0
   39.4820   21.8000   33.7410 C   0  0  0  0  0  0  0  0  0  0  0  0
   38.8230   21.3850   32.6450 N   0  0  0  0  0  0  0  0  0  0  0  0
   37.4780   21.3980   32.9970 C   0  0  0  0  0  0  0  0  0  0  0  0
   37.3700   21.8100   34.2650 N   0  0  0  0  0  0  0  0  0  0  0  0
   37.6050   23.0130   36.6970 C   0  0  0  0  0  0  0  0  0  0  0  0
   38.7270   22.5110   36.0960 C   0  0  0  0  0  0  0  0  0  0  0  0
   39.9550   22.4260   36.7760 C   0  0  0  0  0  0  0  0  0  0  0  0
   39.9740   22.8710   38.0740 N   0  0  0  0  0  0  0  0  0  0  0  0
   38.8480   23.3640   38.6470 C   0  0  0  0  0  0  0  0  0  0  0  0
   37.7000   23.4290   37.9670 N   0  0  0  0  0  0  0  0  0  0  0  0
   35.3584   21.1144   33.7338 H   0  0  0  0  0  0  0  0  0  0  0  0
   34.2718   20.0028   30.9540 H   0  0  0  0  0  0  0  0  0  0  0  0
   33.1660   19.9144   32.0495 H   0  0  0  0  0  0  0  0  0  0  0  0
   35.2476   18.0703   33.3520 H   0  0  0  0  0  0  0  0  0  0  0  0
   35.5180   16.2938   32.8642 H   0  0  0  0  0  0  0  0  0  0  0  0
   37.2798   15.1527   31.1784 H   0  0  0  0  0  0  0  0  0  0  0  0
   37.0978   20.3565   30.4390 H   0  0  0  0  0  0  0  0  0  0  0  0
   40.5739   21.9105   33.8162 H   0  0  0  0  0  0  0  0  0  0  0  0
   36.6512   23.0734   36.1524 H   0  0  0  0  0  0  0  0  0  0  0  0
   40.8562   22.0226   36.2912 H   0  0  0  0  0  0  0  0  0  0  0  0
   38.8805   23.7161   39.6886 H   0  0  0  0  0  0  0  0  0  0  0  0
  1  2  1  0
  1 14  1  0
  3  4  1  0
  3  2  1  0
  4  2  1  0
  5  6  1  0
  5  4  1  0
  7  6  2  0
  8  9  2  0
  8  7  1  0
  9  5  1  0
 10  9  1  0
 11 17  1  0
 12 11  1  0
 13 14  1  0
 13 12  2  0
 14 15  2  0
 15 11  1  0
 16 21  2  0
 17 16  1  0
 17 18  2  0
 18 19  1  0
 19 20  2  0
 21 20  1  0
  2 22  1  1
  3 23  1  0
  3 24  1  0
  4 25  1  1
  6 26  1  0
  7 27  1  0
 10 28  1  0
 12 29  1  0
 16 30  1  0
 18 31  1  0
 20 32  1  0
M  ISO  8  22  13  23  13  24  13  25  13  26  14  27  14  28   3  29  14
M  ISO  3  30  14  31  14  32  14
M  END
>  <minimizedAffinity>  (1) 
-4.55565119

>  <minimizedRMSD>  (1) 
0.525837243

$$$$
