
     RDKit          3D

 36 39  0  0  0  0  0  0  0  0999 V2000
   37.7360   22.6600   34.7860 C   0  0  0  0  0  0  0  0  0  0  0  0
   37.1940   21.4400   34.4720 C   0  0  0  0  0  0  0  0  0  0  0  0
   36.7460   21.1680   33.1980 C   0  0  0  0  0  0  0  0  0  0  0  0
   36.8470   22.1400   32.2310 C   0  0  0  0  0  0  0  0  0  0  0  0
   37.3890   23.3560   32.5510 C   0  0  0  0  0  0  0  0  0  0  0  0
   37.8460   23.6510   33.8260 C   0  0  0  0  0  0  0  0  0  0  0  0
   38.4350   24.9210   34.2470 C   0  0  0  0  0  0  0  0  0  0  0  0
   37.5190   25.8260   34.7640 C   0  0  0  0  0  0  0  0  0  0  0  0
   37.9150   27.0720   35.2070 C   0  0  0  0  0  0  0  0  0  0  0  0
   39.2700   27.3920   35.1160 C   0  0  0  0  0  0  0  0  0  0  0  0
   40.1650   26.4830   34.6000 C   0  0  0  0  0  0  0  0  0  0  0  0
   41.5270   26.7550   34.4870 C   0  0  0  0  0  0  0  0  0  0  0  0
   42.4290   25.8350   33.9650 C   0  0  0  0  0  0  0  0  0  0  0  0
   41.9560   24.6120   33.5450 C   0  0  0  0  0  0  0  0  0  0  0  0
   40.6230   24.2760   33.6260 C   0  0  0  0  0  0  0  0  0  0  0  0
   39.7700   25.2290   34.1540 C   0  0  0  0  0  0  0  0  0  0  0  0
   39.9300   22.6970   37.7140 C   0  0  0  0  0  0  0  0  0  0  0  0
   39.1230   23.2410   38.7230 C   0  0  0  0  0  0  0  0  0  0  0  0
   37.8210   23.5940   38.3800 C   0  0  0  0  0  0  0  0  0  0  0  0
   37.3900   23.4000   37.1120 N   0  0  0  0  0  0  0  0  0  0  0  0
   38.1890   22.8740   36.1620 C   0  0  0  0  0  0  0  0  0  0  0  0
   39.4530   22.5270   36.4760 N   0  0  0  0  0  0  0  0  0  0  0  0
   37.1157   20.6662   35.2499 H   0  0  0  0  0  0  0  0  0  0  0  0
   36.3131   20.1858   32.9575 H   0  0  0  0  0  0  0  0  0  0  0  0
   36.4950   21.9423   31.2078 H   0  0  0  0  0  0  0  0  0  0  0  0
   37.4644   24.1258   31.7689 H   0  0  0  0  0  0  0  0  0  0  0  0
   36.4570   25.5452   34.8220 H   0  0  0  0  0  0  0  0  0  0  0  0
   37.1875   27.7877   35.6175 H   0  0  0  0  0  0  0  0  0  0  0  0
   39.6245   28.3755   35.4583 H   0  0  0  0  0  0  0  0  0  0  0  0
   41.9019   27.7330   34.8230 H   0  0  0  0  0  0  0  0  0  0  0  0
   43.4989   26.0791   33.8890 H   0  0  0  0  0  0  0  0  0  0  0  0
   42.6655   23.8801   33.1316 H   0  0  0  0  0  0  0  0  0  0  0  0
   40.2539   23.2967   33.2871 H   0  0  0  0  0  0  0  0  0  0  0  0
   40.9661   22.4070   37.9427 H   0  0  0  0  0  0  0  0  0  0  0  0
   39.5036   23.3832   39.7452 H   0  0  0  0  0  0  0  0  0  0  0  0
   37.1475   24.0274   39.1340 H   0  0  0  0  0  0  0  0  0  0  0  0
  1 21  1  0
  2  1  2  0
  3  2  1  0
  4  5  1  0
  4  3  2  0
  5  6  2  0
  6  7  1  0
  6  1  1  0
  7  8  2  0
  8  9  1  0
 10  9  2  0
 11 10  1  0
 12 11  2  0
 13 12  1  0
 14 15  1  0
 14 13  2  0
 15 16  2  0
 16  7  1  0
 16 11  1  0
 17 18  2  0
 19 18  1  0
 20 19  2  0
 21 22  2  0
 21 20  1  0
 22 17  1  0
  2 23  1  0
  3 24  1  0
  4 25  1  0
  5 26  1  0
  8 27  1  0
  9 28  1  0
 10 29  1  0
 12 30  1  0
 13 31  1  0
 14 32  1  0
 15 33  1  0
 17 34  1  0
 18 35  1  0
 19 36  1  0
M  ISO  8  23  14  24  14  25  14  26  14  27  14  28  14  29  14  30  14
M  ISO  6  31  14  32  14  33  14  34  14  35  14  36  14
M  END
>  <minimizedAffinity>  (1) 
-5.56966877

>  <minimizedRMSD>  (1) 
2.1039753

$$$$
