
     RDKit          3D

 36 38  0  0  0  0  0  0  0  0999 V2000
   37.8440   22.8710   34.3790 C   0  0  0  0  0  0  0  0  0  0  0  0
   37.4890   21.5810   34.0010 C   0  0  0  0  0  0  0  0  0  0  0  0
   37.0710   21.3620   32.6930 C   0  0  0  0  0  0  0  0  0  0  0  0
   37.0170   22.4140   31.7980 C   0  0  0  0  0  0  0  0  0  0  0  0
   37.3810   23.6760   32.2270 C   0  0  0  0  0  0  0  0  0  0  0  0
   37.8060   23.9570   33.5180 C   0  0  0  0  0  0  0  0  0  0  0  0
   39.9540   22.7920   37.3760 C   0  0  0  0  0  0  0  0  0  0  0  0
   39.1340   23.3070   38.3780 C   0  0  0  0  0  0  0  0  0  0  0  0
   37.8510   23.6840   38.0210 C   0  0  0  0  0  0  0  0  0  0  0  0
   37.4380   23.5440   36.7370 N   0  0  0  0  0  0  0  0  0  0  0  0
   38.2690   23.0330   35.7750 C   0  0  0  0  0  0  0  0  0  0  0  0
   39.5010   22.6760   36.1330 N   0  0  0  0  0  0  0  0  0  0  0  0
   38.1980   25.3240   33.9250 C   0  0  0  0  0  0  0  0  0  0  0  0
   37.2160   25.9930   34.8190 C   0  0  0  0  0  0  0  0  0  0  0  0
   37.7190   27.4270   35.0290 C   0  0  0  0  0  0  0  0  0  0  0  0
   38.9700   27.2850   35.8720 C   0  0  0  0  0  0  0  0  0  0  0  0
   40.0210   26.6310   35.0470 C   0  0  0  0  0  0  0  0  0  0  0  0
   39.6020   25.3180   34.4390 C   0  0  0  0  0  0  0  0  0  0  0  0
   37.5378   20.7512   34.7214 H   0  0  0  0  0  0  0  0  0  0  0  0
   36.7830   20.3506   32.3702 H   0  0  0  0  0  0  0  0  0  0  0  0
   36.6895   22.2491   30.7609 H   0  0  0  0  0  0  0  0  0  0  0  0
   37.3312   24.5043   31.5049 H   0  0  0  0  0  0  0  0  0  0  0  0
   40.9813   22.4801   37.6157 H   0  0  0  0  0  0  0  0  0  0  0  0
   39.4925   23.4100   39.4128 H   0  0  0  0  0  0  0  0  0  0  0  0
   37.1674   24.0965   38.7777 H   0  0  0  0  0  0  0  0  0  0  0  0
   38.1798   25.9631   33.0299 H   0  0  0  0  0  0  0  0  0  0  0  0
   36.2216   26.0048   34.3489 H   0  0  0  0  0  0  0  0  0  0  0  0
   37.1254   25.4605   35.7772 H   0  0  0  0  0  0  0  0  0  0  0  0
   37.9548   27.8991   34.0639 H   0  0  0  0  0  0  0  0  0  0  0  0
   36.9638   28.0625   35.5146 H   0  0  0  0  0  0  0  0  0  0  0  0
   39.3154   28.2784   36.1943 H   0  0  0  0  0  0  0  0  0  0  0  0
   38.7575   26.6774   36.7640 H   0  0  0  0  0  0  0  0  0  0  0  0
   40.2956   27.3165   34.2317 H   0  0  0  0  0  0  0  0  0  0  0  0
   40.8616   26.4124   35.7220 H   0  0  0  0  0  0  0  0  0  0  0  0
   39.6893   24.5346   35.2062 H   0  0  0  0  0  0  0  0  0  0  0  0
   40.2623   25.1324   33.5791 H   0  0  0  0  0  0  0  0  0  0  0  0
  1 11  1  0
  2  1  2  0
  3  2  1  0
  4  5  1  0
  4  3  2  0
  5  6  2  0
  6 13  1  0
  6  1  1  0
  7  8  2  0
  9  8  1  0
 10  9  2  0
 11 12  2  0
 11 10  1  0
 12  7  1  0
 13 18  1  0
 13 14  1  0
 14 15  1  0
 15 16  1  0
 17 16  1  0
 18 17  1  0
  2 19  1  0
  3 20  1  0
  4 21  1  0
  5 22  1  0
  7 23  1  0
  8 24  1  0
  9 25  1  0
 13 26  1  0
 14 27  1  0
 14 28  1  0
 15 29  1  0
 15 30  1  0
 16 31  1  0
 16 32  1  0
 17 33  1  0
 17 34  1  0
 18 35  1  0
 18 36  1  0
M  ISO  8  19  14  20  14  21  14  22  14  23  14  24  14  25  14  26  13
M  ISO  8  27  13  28  13  29  13  30  13  31  13  32  13  33  13  34  13
M  ISO  2  35  13  36  13
M  END
>  <minimizedAffinity>  (1) 
-5.07867765

>  <minimizedRMSD>  (1) 
2.20159936

$$$$
