
     RDKit          3D

 34 37  0  0  0  0  0  0  0  0999 V2000
   43.2950   22.1750   34.0140 C   0  0  0  0  0  0  0  0  0  0  0  0
   43.8800   22.5260   32.7890 C   0  0  0  0  0  0  0  0  0  0  0  0
   45.5860   23.1080   33.3410 S   0  0  0  0  0  0  0  0  0  0  0  0
   45.1340   22.7500   35.1180 C   0  0  0  0  0  0  0  0  0  0  0  0
   44.1100   22.3780   34.9920 N   0  0  0  0  0  0  0  0  0  0  0  0
   46.2560   23.0710   36.0820 C   0  0  0  0  0  0  0  0  0  0  0  0
   47.4520   22.4740   36.0690 N   0  0  0  0  0  0  0  0  0  0  0  0
   48.3740   22.8390   36.9710 C   0  0  0  0  0  0  0  0  0  0  0  0
   48.1770   23.7950   37.9210 N   0  0  0  0  0  0  0  0  0  0  0  0
   46.9710   24.4330   37.9730 C   0  0  0  0  0  0  0  0  0  0  0  0
   46.7350   25.4040   38.9210 C   0  0  0  0  0  0  0  0  0  0  0  0
   45.5120   26.0410   38.9640 C   0  0  0  0  0  0  0  0  0  0  0  0
   44.5680   25.6450   38.0150 C   0  0  0  0  0  0  0  0  0  0  0  0
   44.8340   24.6690   37.0790 C   0  0  0  0  0  0  0  0  0  0  0  0
   46.0480   24.0340   37.0340 C   0  0  0  0  0  0  0  0  0  0  0  0
   41.6140   21.5420   33.9710 S   0  0  0  0  0  0  0  0  0  0  0  0
   40.3850   22.3950   37.6560 C   0  0  0  0  0  0  0  0  0  0  0  0
   39.2130   23.1330   37.4630 C   0  0  0  0  0  0  0  0  0  0  0  0
   38.8180   23.3580   36.1630 C   0  0  0  0  0  0  0  0  0  0  0  0
   39.5550   22.8700   35.1160 N   0  0  0  0  0  0  0  0  0  0  0  0
   40.7000   22.1510   35.3630 C   0  0  0  0  0  0  0  0  0  0  0  0
   41.0700   21.9420   36.6150 N   0  0  0  0  0  0  0  0  0  0  0  0
   38.3890   23.6770   38.5740 C   0  0  0  0  0  0  0  0  0  0  0  0
   39.2520   23.8690   39.6520 F   0  0  0  0  0  0  0  0  0  0  0  0
   37.3750   22.8760   38.9430 F   0  0  0  0  0  0  0  0  0  0  0  0
   37.9720   25.0000   38.2820 F   0  0  0  0  0  0  0  0  0  0  0  0
   43.4561   22.4752   31.7752 H   0  0  0  0  0  0  0  0  0  0  0  0
   49.3512   22.3347   36.9421 H   0  0  0  0  0  0  0  0  0  0  0  0
   47.5207   25.6712   39.6429 H   0  0  0  0  0  0  0  0  0  0  0  0
   45.2921   26.8209   39.7079 H   0  0  0  0  0  0  0  0  0  0  0  0
   43.5796   26.1277   38.0142 H   0  0  0  0  0  0  0  0  0  0  0  0
   44.0554   24.3937   36.3524 H   0  0  0  0  0  0  0  0  0  0  0  0
   40.7404   22.1893   38.6765 H   0  0  0  0  0  0  0  0  0  0  0  0
   37.9027   23.9346   35.9634 H   0  0  0  0  0  0  0  0  0  0  0  0
  1  5  1  0
  2  3  1  0
  2  1  2  0
  3  4  1  0
  4  6  1  0
  5  4  2  0
  6 15  1  0
  7  6  2  0
  7  8  1  0
  8  9  2  0
  9 10  1  0
 10 11  2  0
 11 12  1  0
 13 12  2  0
 14 13  1  0
 15 14  2  0
 15 10  1  0
 16  1  1  0
 16 21  1  0
 18 17  2  0
 18 23  1  0
 19 18  1  0
 20 21  1  0
 20 19  2  0
 21 22  2  0
 22 17  1  0
 23 25  1  0
 23 24  1  0
 26 23  1  0
  2 27  1  0
  8 28  1  0
 11 29  1  0
 12 30  1  0
 13 31  1  0
 14 32  1  0
 17 33  1  0
 19 34  1  0
M  ISO  8  27  14  28  14  29  14  30  14  31  14  32  14  33  14  34  14
M  END
>  <minimizedAffinity>  (1) 
-6.08379173

>  <minimizedRMSD>  (1) 
3.61406732

$$$$
