
     RDKit          3D

 34 36  0  0  0  0  0  0  0  0999 V2000
   37.2260   21.9840   34.7210 C   0  0  0  0  0  0  0  0  0  0  0  0
   36.3350   20.9520   34.8550 C   0  0  0  0  0  0  0  0  0  0  0  0
   35.5810   20.5360   33.7780 C   0  0  0  0  0  0  0  0  0  0  0  0
   35.7220   21.1560   32.5650 C   0  0  0  0  0  0  0  0  0  0  0  0
   36.6160   22.1830   32.4500 C   0  0  0  0  0  0  0  0  0  0  0  0
   37.3910   22.6290   33.5110 C   0  0  0  0  0  0  0  0  0  0  0  0
   40.0120   22.4060   37.0490 C   0  0  0  0  0  0  0  0  0  0  0  0
   39.4540   23.1240   38.1040 C   0  0  0  0  0  0  0  0  0  0  0  0
   38.1180   23.4680   38.0140 C   0  0  0  0  0  0  0  0  0  0  0  0
   37.4110   23.0960   36.9180 N   0  0  0  0  0  0  0  0  0  0  0  0
   37.9910   22.3900   35.8980 C   0  0  0  0  0  0  0  0  0  0  0  0
   39.2770   22.0560   35.9770 N   0  0  0  0  0  0  0  0  0  0  0  0
   38.2790   23.7040   33.2460 N   0  0  0  0  0  0  0  0  0  0  0  0
   39.6300   23.8810   32.7880 C   0  0  0  0  0  0  0  0  0  0  0  0
   39.7570   24.9420   31.7220 C   0  0  0  0  0  0  0  0  0  0  0  0
   38.4490   25.1870   31.1700 N   0  0  0  0  0  0  0  0  0  0  0  0
   37.6040   25.8000   32.1860 C   0  0  0  0  0  0  0  0  0  0  0  0
   37.7030   25.0300   33.4910 C   0  0  0  0  0  0  0  0  0  0  0  0
   36.2203   20.4520   35.8280 H   0  0  0  0  0  0  0  0  0  0  0  0
   34.8671   19.7071   33.8930 H   0  0  0  0  0  0  0  0  0  0  0  0
   35.1261   20.8330   31.6986 H   0  0  0  0  0  0  0  0  0  0  0  0
   36.7261   22.6777   31.4737 H   0  0  0  0  0  0  0  0  0  0  0  0
   41.0732   22.1196   37.0926 H   0  0  0  0  0  0  0  0  0  0  0  0
   40.0562   23.4079   38.9796 H   0  0  0  0  0  0  0  0  0  0  0  0
   37.6341   24.0367   38.8218 H   0  0  0  0  0  0  0  0  0  0  0  0
   40.2560   24.1689   33.6455 H   0  0  0  0  0  0  0  0  0  0  0  0
   39.9546   22.9282   32.3443 H   0  0  0  0  0  0  0  0  0  0  0  0
   40.1536   25.8679   32.1641 H   0  0  0  0  0  0  0  0  0  0  0  0
   40.4449   24.6056   30.9323 H   0  0  0  0  0  0  0  0  0  0  0  0
   38.5299   25.8205   30.3619 H   0  0  0  0  0  0  0  0  0  0  0  0
   37.9304   26.8373   32.3514 H   0  0  0  0  0  0  0  0  0  0  0  0
   36.5600   25.7832   31.8398 H   0  0  0  0  0  0  0  0  0  0  0  0
   36.6985   24.9168   33.9247 H   0  0  0  0  0  0  0  0  0  0  0  0
   38.3495   25.5822   34.1890 H   0  0  0  0  0  0  0  0  0  0  0  0
  1  2  2  0
  1 11  1  0
  3  2  1  0
  4  3  2  0
  5  4  1  0
  5  6  2  0
  6  1  1  0
  7  8  2  0
  9  8  1  0
 10  9  2  0
 11 12  2  0
 11 10  1  0
 12  7  1  0
 13 18  1  0
 13  6  1  0
 14 13  1  0
 15 14  1  0
 16 15  1  0
 16 17  1  0
 17 18  1  0
  2 19  1  0
  3 20  1  0
  4 21  1  0
  5 22  1  0
  7 23  1  0
  8 24  1  0
  9 25  1  0
 14 26  1  0
 14 27  1  0
 15 28  1  0
 15 29  1  0
 16 30  1  0
 17 31  1  0
 17 32  1  0
 18 33  1  0
 18 34  1  0
M  ISO  8  19  14  20  14  21  14  22  14  23  14  24  14  25  14  26  13
M  ISO  8  27  13  28  13  29  13  30   5  31  13  32  13  33  13  34  13
M  END
>  <minimizedAffinity>  (1) 
-4.59348154

>  <minimizedRMSD>  (1) 
1.14324915

$$$$
