
     RDKit          3D

 27 28  0  0  0  0  0  0  0  0999 V2000
   37.2380   21.9260   34.9110 C   0  0  0  0  0  0  0  0  0  0  0  0
   36.2430   21.0030   35.0920 C   0  0  0  0  0  0  0  0  0  0  0  0
   35.5340   20.4930   34.0340 C   0  0  0  0  0  0  0  0  0  0  0  0
   35.8480   20.9330   32.7620 C   0  0  0  0  0  0  0  0  0  0  0  0
   36.8530   21.8620   32.6020 C   0  0  0  0  0  0  0  0  0  0  0  0
   37.5900   22.4000   33.6470 C   0  0  0  0  0  0  0  0  0  0  0  0
   39.9580   22.5890   37.2730 C   0  0  0  0  0  0  0  0  0  0  0  0
   39.3120   23.2570   38.3320 C   0  0  0  0  0  0  0  0  0  0  0  0
   37.9490   23.4760   38.2290 C   0  0  0  0  0  0  0  0  0  0  0  0
   37.3000   23.0410   37.1200 N   0  0  0  0  0  0  0  0  0  0  0  0
   37.9380   22.4020   36.1160 C   0  0  0  0  0  0  0  0  0  0  0  0
   39.2710   22.1840   36.2090 N   0  0  0  0  0  0  0  0  0  0  0  0
   38.6140   23.3620   33.4730 N   0  0  0  0  0  0  0  0  0  0  0  0
   38.4760   24.7620   33.7050 C   0  0  0  0  0  0  0  0  0  0  0  0
   37.3750   25.2660   33.2450 N   0  0  0  0  0  0  0  0  0  0  0  0
   39.5480   25.4300   34.4040 N   0  0  0  0  0  0  0  0  0  0  0  0
   37.0890   26.2540   33.3120 H   0  0  0  0  0  0  0  0  0  0  0  0
   36.0063   20.6620   36.1107 H   0  0  0  0  0  0  0  0  0  0  0  0
   34.7361   19.7529   34.1940 H   0  0  0  0  0  0  0  0  0  0  0  0
   35.3025   20.5465   31.8885 H   0  0  0  0  0  0  0  0  0  0  0  0
   37.0857   22.1984   31.5809 H   0  0  0  0  0  0  0  0  0  0  0  0
   41.0404   22.4008   37.3269 H   0  0  0  0  0  0  0  0  0  0  0  0
   39.8744   23.5947   39.2150 H   0  0  0  0  0  0  0  0  0  0  0  0
   37.4024   23.9931   39.0314 H   0  0  0  0  0  0  0  0  0  0  0  0
   39.5326   23.0233   33.1531 H   0  0  0  0  0  0  0  0  0  0  0  0
   39.4888   26.4409   34.5924 H   0  0  0  0  0  0  0  0  0  0  0  0
   40.3721   24.8957   34.7143 H   0  0  0  0  0  0  0  0  0  0  0  0
  1  2  2  0
  1 11  1  0
  3  2  1  0
  4  3  2  0
  5  4  1  0
  5  6  2  0
  6  1  1  0
  7  8  2  0
  9  8  1  0
 10  9  2  0
 11 12  2  0
 11 10  1  0
 12  7  1  0
 13  6  1  0
 13 14  1  0
 14 16  1  0
 15 17  1  0
 15 14  2  0
  2 18  1  0
  3 19  1  0
  4 20  1  0
  5 21  1  0
  7 22  1  0
  8 23  1  0
  9 24  1  0
 13 25  1  0
 16 26  1  0
 16 27  1  0
M  ISO  7  18  14  19  14  20  14  21  14  22  14  23  14  24  14
M  END
>  <minimizedAffinity>  (1) 
-4.48554993

>  <minimizedRMSD>  (1) 
0.21561484

$$$$
