
     RDKit          3D

 26 28  0  0  0  0  0  0  0  0999 V2000
   37.1930   21.9620   34.7060 C   0  0  0  0  0  0  0  0  0  0  0  0
   36.3240   20.9100   34.8530 C   0  0  0  0  0  0  0  0  0  0  0  0
   35.5700   20.4780   33.7760 C   0  0  0  0  0  0  0  0  0  0  0  0
   35.6930   21.1020   32.5570 C   0  0  0  0  0  0  0  0  0  0  0  0
   36.5650   22.1490   32.4300 C   0  0  0  0  0  0  0  0  0  0  0  0
   37.3350   22.6090   33.4870 C   0  0  0  0  0  0  0  0  0  0  0  0
   39.9910   22.3660   37.0230 C   0  0  0  0  0  0  0  0  0  0  0  0
   39.4520   23.1350   38.0560 C   0  0  0  0  0  0  0  0  0  0  0  0
   38.1210   23.5160   37.9540 C   0  0  0  0  0  0  0  0  0  0  0  0
   37.4250   23.1230   36.8670 N   0  0  0  0  0  0  0  0  0  0  0  0
   37.9660   22.3800   35.8800 C   0  0  0  0  0  0  0  0  0  0  0  0
   39.2480   22.0080   35.9690 N   0  0  0  0  0  0  0  0  0  0  0  0
   38.2500   23.6940   33.3870 N   0  0  0  0  0  0  0  0  0  0  0  0
   37.7570   24.9450   33.5920 C   0  0  0  0  0  0  0  0  0  0  0  0
   38.7880   25.8270   33.4500 N   0  0  0  0  0  0  0  0  0  0  0  0
   39.8880   25.1260   33.1650 C   0  0  0  0  0  0  0  0  0  0  0  0
   39.5570   23.8200   33.1260 N   0  0  0  0  0  0  0  0  0  0  0  0
   36.2267   20.4097   35.8278 H   0  0  0  0  0  0  0  0  0  0  0  0
   34.8726   19.6358   33.8951 H   0  0  0  0  0  0  0  0  0  0  0  0
   35.0984   20.7642   31.6954 H   0  0  0  0  0  0  0  0  0  0  0  0
   36.6585   22.6443   31.4523 H   0  0  0  0  0  0  0  0  0  0  0  0
   41.0431   22.0493   37.0762 H   0  0  0  0  0  0  0  0  0  0  0  0
   40.0622   23.4295   38.9226 H   0  0  0  0  0  0  0  0  0  0  0  0
   37.6460   24.1226   38.7391 H   0  0  0  0  0  0  0  0  0  0  0  0
   36.7137   25.1999   33.8297 H   0  0  0  0  0  0  0  0  0  0  0  0
   40.8913   25.5425   32.9919 H   0  0  0  0  0  0  0  0  0  0  0  0
  1  2  2  0
  1 11  1  0
  3  2  1  0
  4  3  2  0
  5  4  1  0
  5  6  2  0
  6  1  1  0
  7  8  2  0
  9  8  1  0
 10  9  2  0
 11 12  2  0
 11 10  1  0
 12  7  1  0
 13  6  1  0
 13 14  1  0
 15 14  2  0
 16 15  1  0
 17 16  2  0
 17 13  1  0
  2 18  1  0
  3 19  1  0
  4 20  1  0
  5 21  1  0
  7 22  1  0
  8 23  1  0
  9 24  1  0
 14 25  1  0
 16 26  1  0
M  ISO  8  18  14  19  14  20  14  21  14  22  14  23  14  24  14  25  14
M  ISO  1  26  14
M  END
>  <minimizedAffinity>  (1) 
-4.39510965

>  <minimizedRMSD>  (1) 
0.729207635

$$$$
