
     RDKit          3D

 29 30  0  0  0  0  0  0  0  0999 V2000
   37.2250   21.9770   34.8720 C   0  0  0  0  0  0  0  0  0  0  0  0
   36.3020   20.9610   35.0540 C   0  0  0  0  0  0  0  0  0  0  0  0
   35.5700   20.5120   33.9590 C   0  0  0  0  0  0  0  0  0  0  0  0
   35.7670   21.0780   32.7040 C   0  0  0  0  0  0  0  0  0  0  0  0
   36.6900   22.0790   32.5680 C   0  0  0  0  0  0  0  0  0  0  0  0
   37.4350   22.5510   33.6310 C   0  0  0  0  0  0  0  0  0  0  0  0
   37.9680   23.5610   38.0780 C   0  0  0  0  0  0  0  0  0  0  0  0
   39.3130   23.2740   38.2980 C   0  0  0  0  0  0  0  0  0  0  0  0
   39.9590   22.5280   37.3280 C   0  0  0  0  0  0  0  0  0  0  0  0
   39.2910   22.1030   36.2160 N   0  0  0  0  0  0  0  0  0  0  0  0
   37.9700   22.4150   36.0520 C   0  0  0  0  0  0  0  0  0  0  0  0
   37.3430   23.1360   36.9860 N   0  0  0  0  0  0  0  0  0  0  0  0
   38.4360   23.6450   33.4510 C   0  0  0  0  0  0  0  0  0  0  0  0
   39.2540   23.3920   32.2020 C   0  0  0  0  0  0  0  0  0  0  0  0
   37.7670   24.9850   33.2840 C   0  0  0  0  0  0  0  0  0  0  0  0
   36.1498   20.5159   36.0483 H   0  0  0  0  0  0  0  0  0  0  0  0
   34.8324   19.7060   34.0866 H   0  0  0  0  0  0  0  0  0  0  0  0
   35.1906   20.7269   31.8354 H   0  0  0  0  0  0  0  0  0  0  0  0
   36.8445   22.5247   31.5743 H   0  0  0  0  0  0  0  0  0  0  0  0
   37.4131   24.1507   38.8226 H   0  0  0  0  0  0  0  0  0  0  0  0
   39.8368   23.6237   39.1999 H   0  0  0  0  0  0  0  0  0  0  0  0
   41.0220   22.2748   37.4543 H   0  0  0  0  0  0  0  0  0  0  0  0
   39.0692   23.6563   34.3504 H   0  0  0  0  0  0  0  0  0  0  0  0
   40.2693   23.0780   32.4860 H   0  0  0  0  0  0  0  0  0  0  0  0
   38.7781   22.5991   31.6064 H   0  0  0  0  0  0  0  0  0  0  0  0
   39.3089   24.3152   31.6064 H   0  0  0  0  0  0  0  0  0  0  0  0
   37.5529   25.4139   34.2741 H   0  0  0  0  0  0  0  0  0  0  0  0
   38.4335   25.6608   32.7280 H   0  0  0  0  0  0  0  0  0  0  0  0
   36.8263   24.8584   32.7280 H   0  0  0  0  0  0  0  0  0  0  0  0
  1  2  2  0
  1 11  1  0
  3  2  1  0
  4  3  2  0
  5  4  1  0
  5  6  2  0
  6  1  1  0
  7  8  2  0
  9  8  1  0
 10  9  2  0
 11 10  1  0
 11 12  2  0
 12  7  1  0
 13  6  1  0
 14 13  1  0
 15 13  1  0
  2 16  1  0
  3 17  1  0
  4 18  1  0
  5 19  1  0
  7 20  1  0
  8 21  1  0
  9 22  1  0
 13 23  1  0
 14 24  1  0
 14 25  1  0
 14 26  1  0
 15 27  1  0
 15 28  1  0
 15 29  1  0
M  ISO  8  16  14  17  14  18  14  19  14  20  14  21  14  22  14  23   8
M  ISO  6  24   8  25   8  26   8  27   8  28   8  29   8
M  END
>  <minimizedAffinity>  (1) 
-4.17738581

>  <minimizedRMSD>  (1) 
1.64181304

$$$$
