
     RDKit          3D

 34 37  0  0  0  0  0  0  0  0999 V2000
   43.6560   23.5740   34.2670 C   0  0  0  0  0  0  0  0  0  0  0  0
   43.7740   24.7840   33.5470 C   0  0  0  0  0  0  0  0  0  0  0  0
   45.4860   25.3990   34.0590 S   0  0  0  0  0  0  0  0  0  0  0  0
   45.6780   23.8760   35.1470 C   0  0  0  0  0  0  0  0  0  0  0  0
   44.7180   23.3560   34.9720 N   0  0  0  0  0  0  0  0  0  0  0  0
   46.8390   23.5840   35.9530 N   0  0  0  0  0  0  0  0  0  0  0  0
   47.1760   22.3430   36.3230 C   0  0  0  0  0  0  0  0  0  0  0  0
   48.2980   22.4860   37.0520 N   0  0  0  0  0  0  0  0  0  0  0  0
   48.6550   23.7750   37.1390 C   0  0  0  0  0  0  0  0  0  0  0  0
   49.7350   24.3690   37.7870 C   0  0  0  0  0  0  0  0  0  0  0  0
   50.5940   23.7290   38.4330 O   0  0  0  0  0  0  0  0  0  0  0  0
   49.8090   25.7060   37.6790 N   0  0  0  0  0  0  0  0  0  0  0  0
   48.8900   26.3980   36.9870 C   0  0  0  0  0  0  0  0  0  0  0  0
   48.9810   27.8230   36.8790 N   0  0  0  0  0  0  0  0  0  0  0  0
   47.8260   25.8350   36.3450 N   0  0  0  0  0  0  0  0  0  0  0  0
   47.7120   24.4910   36.4270 C   0  0  0  0  0  0  0  0  0  0  0  0
   42.1430   22.6460   34.0620 S   0  0  0  0  0  0  0  0  0  0  0  0
   40.4510   22.5740   37.6650 C   0  0  0  0  0  0  0  0  0  0  0  0
   39.3200   23.4090   37.5220 C   0  0  0  0  0  0  0  0  0  0  0  0
   39.1080   23.9870   36.2770 C   0  0  0  0  0  0  0  0  0  0  0  0
   39.9770   23.7400   35.2530 N   0  0  0  0  0  0  0  0  0  0  0  0
   41.0590   22.9170   35.4570 C   0  0  0  0  0  0  0  0  0  0  0  0
   41.2680   22.3610   36.6380 N   0  0  0  0  0  0  0  0  0  0  0  0
   38.3640   23.6910   38.6260 C   0  0  0  0  0  0  0  0  0  0  0  0
   39.1380   23.8740   39.7750 F   0  0  0  0  0  0  0  0  0  0  0  0
   37.4880   22.6860   38.8550 F   0  0  0  0  0  0  0  0  0  0  0  0
   37.7400   24.9380   38.4360 F   0  0  0  0  0  0  0  0  0  0  0  0
   43.0514   25.2505   32.8612 H   0  0  0  0  0  0  0  0  0  0  0  0
   46.6494   21.4076   36.0830 H   0  0  0  0  0  0  0  0  0  0  0  0
   50.5839   26.2087   38.1348 H   0  0  0  0  0  0  0  0  0  0  0  0
   48.2712   28.3455   36.3460 H   0  0  0  0  0  0  0  0  0  0  0  0
   49.7562   28.3255   37.3344 H   0  0  0  0  0  0  0  0  0  0  0  0
   40.6572   22.0962   38.6341 H   0  0  0  0  0  0  0  0  0  0  0  0
   38.2403   24.6436   36.1159 H   0  0  0  0  0  0  0  0  0  0  0  0
  1  5  1  0
  2  3  1  0
  2  1  2  0
  3  4  1  0
  4  6  1  0
  5  4  2  0
  6  7  1  0
  6 16  1  0
  7  8  2  0
  8  9  1  0
  9 10  1  0
 10 11  2  0
 12 10  1  0
 13 12  1  0
 14 13  1  0
 15 16  1  0
 15 13  2  0
 16  9  2  0
 17  1  1  0
 17 22  1  0
 19 18  2  0
 19 24  1  0
 20 19  1  0
 21 22  1  0
 21 20  2  0
 22 23  2  0
 23 18  1  0
 24 26  1  0
 24 25  1  0
 27 24  1  0
  2 28  1  0
  7 29  1  0
 12 30  1  0
 14 31  1  0
 14 32  1  0
 18 33  1  0
 20 34  1  0
M  ISO  5  28  14  29  14  30   9  33  14  34  14
M  END
>  <minimizedAffinity>  (1) 
-5.19669724

>  <minimizedRMSD>  (1) 
3.54144788

$$$$
