
     RDKit          3D

 21 22  0  0  0  0  0  0  0  0999 V2000
   37.2490   21.9770   35.0420 C   0  0  0  0  0  0  0  0  0  0  0  0
   36.2920   20.9940   35.2600 C   0  0  0  0  0  0  0  0  0  0  0  0
   35.5910   20.4920   34.1760 C   0  0  0  0  0  0  0  0  0  0  0  0
   35.8400   20.9580   32.9070 C   0  0  0  0  0  0  0  0  0  0  0  0
   36.7870   21.9250   32.7240 C   0  0  0  0  0  0  0  0  0  0  0  0
   37.5130   22.4580   33.7730 C   0  0  0  0  0  0  0  0  0  0  0  0
   39.9650   22.5340   37.4260 C   0  0  0  0  0  0  0  0  0  0  0  0
   39.3720   23.3750   38.3940 C   0  0  0  0  0  0  0  0  0  0  0  0
   38.0490   23.7430   38.2190 C   0  0  0  0  0  0  0  0  0  0  0  0
   37.3810   23.2850   37.1370 N   0  0  0  0  0  0  0  0  0  0  0  0
   37.9680   22.4810   36.2260 C   0  0  0  0  0  0  0  0  0  0  0  0
   39.2630   22.1030   36.3660 N   0  0  0  0  0  0  0  0  0  0  0  0
   38.7660   23.7350   33.5410 S   0  0  0  0  0  0  0  0  0  0  0  0
   36.0944   20.6208   36.2757 H   0  0  0  0  0  0  0  0  0  0  0  0
   34.8289   19.7142   34.3319 H   0  0  0  0  0  0  0  0  0  0  0  0
   35.2825   20.5564   32.0480 H   0  0  0  0  0  0  0  0  0  0  0  0
   36.9790   22.2930   31.7053 H   0  0  0  0  0  0  0  0  0  0  0  0
   41.0153   22.2285   37.5424 H   0  0  0  0  0  0  0  0  0  0  0  0
   39.9461   23.7279   39.2634 H   0  0  0  0  0  0  0  0  0  0  0  0
   37.5496   24.3974   38.9486 H   0  0  0  0  0  0  0  0  0  0  0  0
   39.1995   24.1768   34.7632 H   0  0  0  0  0  0  0  0  0  0  0  0
  1  2  2  0
  1 11  1  0
  3  2  1  0
  4  3  2  0
  5  4  1  0
  5  6  2  0
  6  1  1  0
  7  8  2  0
  9  8  1  0
 10  9  2  0
 11 12  2  0
 11 10  1  0
 12  7  1  0
 13  6  1  0
  2 14  1  0
  3 15  1  0
  4 16  1  0
  5 17  1  0
  7 18  1  0
  8 19  1  0
  9 20  1  0
 13 21  1  0
M  ISO  8  14  14  15  14  16  14  17  14  18  14  19  14  20  14  21  11
M  END
>  <minimizedAffinity>  (1) 
-4.05234241

>  <minimizedRMSD>  (1) 
0.218449533

$$$$
