
     RDKit          3D

 26 27  0  0  1  0  0  0  0  0999 V2000
   38.4990   25.8860   35.0580 C   0  0  2  0  0  0  0  0  0  0  0  0
   39.7140   23.0090   36.9750 C   0  0  0  0  0  0  0  0  0  0  0  0
   38.9720   23.0850   38.1960 C   0  0  0  0  0  0  0  0  0  0  0  0
   38.0530   24.1480   38.3370 C   0  0  0  0  0  0  0  0  0  0  0  0
   37.9500   25.0150   37.2880 N   0  0  0  0  0  0  0  0  0  0  0  0
   38.6680   24.9100   36.1500 C   0  0  0  0  0  0  0  0  0  0  0  0
   39.5380   23.9120   36.0070 N   0  0  0  0  0  0  0  0  0  0  0  0
   39.6050   26.9060   35.1220 C   0  0  0  0  0  0  0  0  0  0  0  0
   37.1790   26.6030   35.0990 C   0  0  0  0  0  0  0  0  0  0  0  0
   36.8910   27.4890   34.0010 C   0  0  0  0  0  0  0  0  0  0  0  0
   36.1280   28.5740   34.2050 C   0  0  0  0  0  0  0  0  0  0  0  0
   35.7120   29.5570   33.3670 C   0  0  0  0  0  0  0  0  0  0  0  0
   36.3110   29.2000   32.0060 C   0  0  0  0  0  0  0  0  0  0  0  0
   37.2680   27.6240   32.2700 S   0  0  0  0  0  0  0  0  0  0  0  0
   38.5330   25.3151   34.1184 H   0  0  0  0  0  0  0  0  0  0  0  0
   40.4399   22.1950   36.8316 H   0  0  0  0  0  0  0  0  0  0  0  0
   39.1122   22.3427   38.9956 H   0  0  0  0  0  0  0  0  0  0  0  0
   37.4494   24.2712   39.2483 H   0  0  0  0  0  0  0  0  0  0  0  0
   39.8419   27.1245   36.1737 H   0  0  0  0  0  0  0  0  0  0  0  0
   40.4994   26.5091   34.6195 H   0  0  0  0  0  0  0  0  0  0  0  0
   39.2816   27.8295   34.6195 H   0  0  0  0  0  0  0  0  0  0  0  0
   36.3863   25.8409   35.1294 H   0  0  0  0  0  0  0  0  0  0  0  0
   37.2282   27.2496   35.9875 H   0  0  0  0  0  0  0  0  0  0  0  0
   35.7754   28.6872   35.2408 H   0  0  0  0  0  0  0  0  0  0  0  0
   35.0805   30.4233   33.6134 H   0  0  0  0  0  0  0  0  0  0  0  0
   36.1996   29.7588   31.0651 H   0  0  0  0  0  0  0  0  0  0  0  0
  1  9  1  0
  1  8  1  0
  1  6  1  0
  2  3  2  0
  3  4  1  0
  5  4  2  0
  6  5  1  0
  7  6  2  0
  7  2  1  0
 10 11  2  0
 10  9  1  0
 12 11  1  0
 13 14  1  0
 13 12  2  0
 14 10  1  0
  1 15  1  6
  2 16  1  0
  3 17  1  0
  4 18  1  0
  8 19  1  0
  8 20  1  0
  8 21  1  0
  9 22  1  0
  9 23  1  0
 11 24  1  0
 12 25  1  0
 13 26  1  0
M  ISO  8  15   8  16  14  17  14  18  14  19   8  20   8  21   8  22   8
M  ISO  4  23   8  24  14  25  14  26  14
M  END
>  <minimizedAffinity>  (1) 
-4.17895079

>  <minimizedRMSD>  (1) 
2.50942397

$$$$
