
     RDKit          3D

 37 40  0  0  0  0  0  0  0  0999 V2000
   37.2330   22.0650   34.9200 C   0  0  0  0  0  0  0  0  0  0  0  0
   36.4090   20.9810   34.9690 C   0  0  0  0  0  0  0  0  0  0  0  0
   35.7110   20.5900   33.8470 C   0  0  0  0  0  0  0  0  0  0  0  0
   35.8430   21.2920   32.6750 C   0  0  0  0  0  0  0  0  0  0  0  0
   36.6750   22.3790   32.6480 C   0  0  0  0  0  0  0  0  0  0  0  0
   37.4060   22.8180   33.7530 C   0  0  0  0  0  0  0  0  0  0  0  0
   39.9650   22.5580   37.3030 C   0  0  0  0  0  0  0  0  0  0  0  0
   39.3330   23.1670   38.4050 C   0  0  0  0  0  0  0  0  0  0  0  0
   37.9560   23.4060   38.3170 C   0  0  0  0  0  0  0  0  0  0  0  0
   37.2970   23.0420   37.1870 N   0  0  0  0  0  0  0  0  0  0  0  0
   37.9660   22.4500   36.1440 C   0  0  0  0  0  0  0  0  0  0  0  0
   39.2760   22.2180   36.2120 N   0  0  0  0  0  0  0  0  0  0  0  0
   38.2260   23.9000   33.6930 O   0  0  0  0  0  0  0  0  0  0  0  0
   38.0990   25.1290   34.2590 C   0  0  0  0  0  0  0  0  0  0  0  0
   38.5920   25.6430   35.4390 C   0  0  0  0  0  0  0  0  0  0  0  0
   38.3580   26.9330   35.8580 C   0  0  0  0  0  0  0  0  0  0  0  0
   37.5970   27.7890   35.0890 C   0  0  0  0  0  0  0  0  0  0  0  0
   37.0880   27.3060   33.9000 C   0  0  0  0  0  0  0  0  0  0  0  0
   36.3380   28.2160   33.1880 C   0  0  0  0  0  0  0  0  0  0  0  0
   35.7900   27.8220   31.9870 C   0  0  0  0  0  0  0  0  0  0  0  0
   36.0000   26.5380   31.5330 C   0  0  0  0  0  0  0  0  0  0  0  0
   36.7550   25.6520   32.2710 C   0  0  0  0  0  0  0  0  0  0  0  0
   37.3250   25.9980   33.4770 C   0  0  0  0  0  0  0  0  0  0  0  0
   36.3006   20.4164   35.9068 H   0  0  0  0  0  0  0  0  0  0  0  0
   35.0471   19.7140   33.8907 H   0  0  0  0  0  0  0  0  0  0  0  0
   35.2905   20.9869   31.7740 H   0  0  0  0  0  0  0  0  0  0  0  0
   36.7726   22.9363   31.7047 H   0  0  0  0  0  0  0  0  0  0  0  0
   41.0461   22.3591   37.3426 H   0  0  0  0  0  0  0  0  0  0  0  0
   39.9020   23.4454   39.3043 H   0  0  0  0  0  0  0  0  0  0  0  0
   37.4169   23.8810   39.1499 H   0  0  0  0  0  0  0  0  0  0  0  0
   39.2034   24.9892   36.0783 H   0  0  0  0  0  0  0  0  0  0  0  0
   38.7802   27.2834   36.8114 H   0  0  0  0  0  0  0  0  0  0  0  0
   37.4022   28.8222   35.4125 H   0  0  0  0  0  0  0  0  0  0  0  0
   36.1800   29.2353   33.5702 H   0  0  0  0  0  0  0  0  0  0  0  0
   35.1890   28.5275   31.3945 H   0  0  0  0  0  0  0  0  0  0  0  0
   35.5624   26.2182   30.5758 H   0  0  0  0  0  0  0  0  0  0  0  0
   36.9078   24.6337   31.8840 H   0  0  0  0  0  0  0  0  0  0  0  0
  1  2  2  0
  1 11  1  0
  3  2  1  0
  4  3  2  0
  5  4  1  0
  5  6  2  0
  6  1  1  0
  7  8  2  0
  9  8  1  0
 10  9  2  0
 11 12  2  0
 11 10  1  0
 12  7  1  0
 13  6  1  0
 13 14  1  0
 14 15  2  0
 15 16  1  0
 17 16  2  0
 18 17  1  0
 19 18  2  0
 20 19  1  0
 21 20  2  0
 21 22  1  0
 22 23  2  0
 23 18  1  0
 23 14  1  0
  2 24  1  0
  3 25  1  0
  4 26  1  0
  5 27  1  0
  7 28  1  0
  8 29  1  0
  9 30  1  0
 15 31  1  0
 16 32  1  0
 17 33  1  0
 19 34  1  0
 20 35  1  0
 21 36  1  0
 22 37  1  0
M  ISO  8  24  14  25  14  26  14  27  14  28  14  29  14  30  14  31  14
M  ISO  6  32  14  33  14  34  14  35  14  36  14  37  14
M  END
>  <minimizedAffinity>  (1) 
-6.38537931

>  <minimizedRMSD>  (1) 
0.752105892

$$$$
