
     RDKit          3D

 35 38  0  0  0  0  0  0  0  0999 V2000
   37.1870   21.9790   34.8930 C   0  0  0  0  0  0  0  0  0  0  0  0
   36.3290   20.9290   34.9770 C   0  0  0  0  0  0  0  0  0  0  0  0
   35.6170   20.4900   33.8880 C   0  0  0  0  0  0  0  0  0  0  0  0
   35.7800   21.1330   32.6730 C   0  0  0  0  0  0  0  0  0  0  0  0
   36.6480   22.1930   32.5890 C   0  0  0  0  0  0  0  0  0  0  0  0
   37.3590   22.6300   33.6840 C   0  0  0  0  0  0  0  0  0  0  0  0
   39.9020   22.5670   37.2550 C   0  0  0  0  0  0  0  0  0  0  0  0
   39.2840   23.2230   38.3270 C   0  0  0  0  0  0  0  0  0  0  0  0
   37.9240   23.4550   38.2150 C   0  0  0  0  0  0  0  0  0  0  0  0
   37.2700   23.0470   37.1040 N   0  0  0  0  0  0  0  0  0  0  0  0
   37.9190   22.4100   36.0860 C   0  0  0  0  0  0  0  0  0  0  0  0
   39.2330   22.1700   36.1610 N   0  0  0  0  0  0  0  0  0  0  0  0
   38.2250   23.7010   33.5580 O   0  0  0  0  0  0  0  0  0  0  0  0
   38.0040   24.9940   33.9460 C   0  0  0  0  0  0  0  0  0  0  0  0
   38.4000   25.7770   35.0380 C   0  0  0  0  0  0  0  0  0  0  0  0
   37.8990   26.9990   34.9340 N   0  0  0  0  0  0  0  0  0  0  0  0
   37.1660   27.1270   33.8240 C   0  0  0  0  0  0  0  0  0  0  0  0
   36.4650   28.1770   33.2980 C   0  0  0  0  0  0  0  0  0  0  0  0
   35.7810   28.0410   32.1150 C   0  0  0  0  0  0  0  0  0  0  0  0
   35.8130   26.8260   31.4630 C   0  0  0  0  0  0  0  0  0  0  0  0
   36.5270   25.7810   32.0150 C   0  0  0  0  0  0  0  0  0  0  0  0
   37.2260   25.8850   33.2030 C   0  0  0  0  0  0  0  0  0  0  0  0
   36.2014   20.4173   35.9423 H   0  0  0  0  0  0  0  0  0  0  0  0
   34.9264   19.6388   33.9799 H   0  0  0  0  0  0  0  0  0  0  0  0
   35.2212   20.7988   31.7864 H   0  0  0  0  0  0  0  0  0  0  0  0
   36.7786   22.7053   31.6244 H   0  0  0  0  0  0  0  0  0  0  0  0
   40.9824   22.3685   37.3120 H   0  0  0  0  0  0  0  0  0  0  0  0
   39.8517   23.5385   39.2148 H   0  0  0  0  0  0  0  0  0  0  0  0
   37.3800   23.9667   39.0226 H   0  0  0  0  0  0  0  0  0  0  0  0
   39.0363   25.4270   35.8642 H   0  0  0  0  0  0  0  0  0  0  0  0
   38.0542   27.7521   35.6193 H   0  0  0  0  0  0  0  0  0  0  0  0
   36.4489   29.1407   33.8282 H   0  0  0  0  0  0  0  0  0  0  0  0
   35.2171   28.8867   31.6945 H   0  0  0  0  0  0  0  0  0  0  0  0
   35.2752   26.6909   30.5130 H   0  0  0  0  0  0  0  0  0  0  0  0
   36.5402   24.8182   31.4831 H   0  0  0  0  0  0  0  0  0  0  0  0
  1  2  2  0
  1 11  1  0
  3  2  1  0
  4  3  2  0
  5  4  1  0
  5  6  2  0
  6  1  1  0
  7  8  2  0
  9  8  1  0
 10  9  2  0
 11 12  2  0
 11 10  1  0
 12  7  1  0
 13  6  1  0
 13 14  1  0
 14 15  2  0
 16 15  1  0
 17 16  1  0
 18 17  2  0
 19 18  1  0
 20 21  1  0
 20 19  2  0
 21 22  2  0
 22 17  1  0
 22 14  1  0
  2 23  1  0
  3 24  1  0
  4 25  1  0
  5 26  1  0
  7 27  1  0
  8 28  1  0
  9 29  1  0
 15 30  1  0
 16 31  1  0
 18 32  1  0
 19 33  1  0
 20 34  1  0
 21 35  1  0
M  ISO  8  23  14  24  14  25  14  26  14  27  14  28  14  29  14  30  14
M  ISO  5  31   9  32  14  33  14  34  14  35  14
M  END
>  <minimizedAffinity>  (1) 
-5.74247217

>  <minimizedRMSD>  (1) 
1.07159436

$$$$
