
     RDKit          3D

 30 32  0  0  0  0  0  0  0  0999 V2000
   37.3570   22.1790   34.8290 C   0  0  0  0  0  0  0  0  0  0  0  0
   36.5070   21.0950   34.8250 C   0  0  0  0  0  0  0  0  0  0  0  0
   35.8530   20.7020   33.6880 C   0  0  0  0  0  0  0  0  0  0  0  0
   36.0580   21.4220   32.5150 C   0  0  0  0  0  0  0  0  0  0  0  0
   36.9120   22.5090   32.5280 C   0  0  0  0  0  0  0  0  0  0  0  0
   37.5760   22.9080   33.6780 C   0  0  0  0  0  0  0  0  0  0  0  0
   39.9520   22.5150   37.3670 C   0  0  0  0  0  0  0  0  0  0  0  0
   39.3050   23.1790   38.4290 C   0  0  0  0  0  0  0  0  0  0  0  0
   37.9750   23.5040   38.2520 C   0  0  0  0  0  0  0  0  0  0  0  0
   37.3610   23.1720   37.0830 N   0  0  0  0  0  0  0  0  0  0  0  0
   38.0150   22.5320   36.0810 C   0  0  0  0  0  0  0  0  0  0  0  0
   39.2980   22.2180   36.2470 N   0  0  0  0  0  0  0  0  0  0  0  0
   38.4120   23.9860   33.6560 O   0  0  0  0  0  0  0  0  0  0  0  0
   38.1530   25.2460   34.1620 C   0  0  0  0  0  0  0  0  0  0  0  0
   39.0650   25.7450   35.0760 C   0  0  0  0  0  0  0  0  0  0  0  0
   38.9380   26.9870   35.6650 C   0  0  0  0  0  0  0  0  0  0  0  0
   37.8590   27.7850   35.3440 C   0  0  0  0  0  0  0  0  0  0  0  0
   36.9780   27.2600   34.4390 C   0  0  0  0  0  0  0  0  0  0  0  0
   37.1210   26.0610   33.8830 N   0  0  0  0  0  0  0  0  0  0  0  0
   36.3500   20.5320   35.7569 H   0  0  0  0  0  0  0  0  0  0  0  0
   35.1782   19.8334   33.7016 H   0  0  0  0  0  0  0  0  0  0  0  0
   35.5456   21.1292   31.5867 H   0  0  0  0  0  0  0  0  0  0  0  0
   37.0696   23.0746   31.5978 H   0  0  0  0  0  0  0  0  0  0  0  0
   41.0121   22.2386   37.4656 H   0  0  0  0  0  0  0  0  0  0  0  0
   39.8372   23.4276   39.3590 H   0  0  0  0  0  0  0  0  0  0  0  0
   37.4184   24.0245   39.0453 H   0  0  0  0  0  0  0  0  0  0  0  0
   39.9312   25.1229   35.3455 H   0  0  0  0  0  0  0  0  0  0  0  0
   39.6917   27.3381   36.3852 H   0  0  0  0  0  0  0  0  0  0  0  0
   37.7163   28.7812   35.7882 H   0  0  0  0  0  0  0  0  0  0  0  0
   36.1029   27.8632   34.1556 H   0  0  0  0  0  0  0  0  0  0  0  0
  1 11  1  0
  2  1  2  0
  3  2  1  0
  4  5  1  0
  4  3  2  0
  5  6  2  0
  6  1  1  0
  7  8  2  0
  9  8  1  0
 10  9  2  0
 11 12  2  0
 11 10  1  0
 12  7  1  0
 13  6  1  0
 13 14  1  0
 14 15  2  0
 15 16  1  0
 17 16  2  0
 18 17  1  0
 19 14  1  0
 19 18  2  0
  2 20  1  0
  3 21  1  0
  4 22  1  0
  5 23  1  0
  7 24  1  0
  8 25  1  0
  9 26  1  0
 15 27  1  0
 16 28  1  0
 17 29  1  0
 18 30  1  0
M  ISO  8  20  14  21  14  22  14  23  14  24  14  25  14  26  14  27  14
M  ISO  3  28  14  29  14  30  14
M  END
>  <minimizedAffinity>  (1) 
-5.32205963

>  <minimizedRMSD>  (1) 
0.778780937

$$$$
