
     RDKit          3D

 31 33  0  0  0  0  0  0  0  0999 V2000
   37.2280   22.0770   34.6630 C   0  0  0  0  0  0  0  0  0  0  0  0
   36.3720   20.9990   34.7380 C   0  0  0  0  0  0  0  0  0  0  0  0
   35.6200   20.6110   33.6600 C   0  0  0  0  0  0  0  0  0  0  0  0
   35.7240   21.3110   32.4810 C   0  0  0  0  0  0  0  0  0  0  0  0
   36.5770   22.3800   32.4180 C   0  0  0  0  0  0  0  0  0  0  0  0
   37.3530   22.8010   33.4910 C   0  0  0  0  0  0  0  0  0  0  0  0
   40.0340   22.4010   36.9720 C   0  0  0  0  0  0  0  0  0  0  0  0
   39.4690   23.0570   38.0890 C   0  0  0  0  0  0  0  0  0  0  0  0
   38.1240   23.3790   38.0300 C   0  0  0  0  0  0  0  0  0  0  0  0
   37.4080   23.0600   36.9220 N   0  0  0  0  0  0  0  0  0  0  0  0
   37.9930   22.4240   35.8600 C   0  0  0  0  0  0  0  0  0  0  0  0
   39.2880   22.1080   35.9060 N   0  0  0  0  0  0  0  0  0  0  0  0
   38.2010   23.8700   33.4160 O   0  0  0  0  0  0  0  0  0  0  0  0
   37.7220   25.1660   33.5530 C   0  0  0  0  0  0  0  0  0  0  0  0
   37.7240   25.8490   34.7650 C   0  0  0  0  0  0  0  0  0  0  0  0
   37.2370   27.1320   34.8350 C   0  0  0  0  0  0  0  0  0  0  0  0
   36.7310   27.7780   33.7110 C   0  0  0  0  0  0  0  0  0  0  0  0
   36.7240   27.1060   32.4940 C   0  0  0  0  0  0  0  0  0  0  0  0
   37.2190   25.8040   32.4210 C   0  0  0  0  0  0  0  0  0  0  0  0
   36.2910   20.4393   35.6815 H   0  0  0  0  0  0  0  0  0  0  0  0
   34.9408   19.7492   33.7370 H   0  0  0  0  0  0  0  0  0  0  0  0
   35.1312   21.0167   31.6024 H   0  0  0  0  0  0  0  0  0  0  0  0
   36.6518   22.9334   31.4703 H   0  0  0  0  0  0  0  0  0  0  0  0
   41.0999   22.1293   36.9819 H   0  0  0  0  0  0  0  0  0  0  0  0
   40.0758   23.3027   38.9730 H   0  0  0  0  0  0  0  0  0  0  0  0
   37.6390   23.8897   38.8750 H   0  0  0  0  0  0  0  0  0  0  0  0
   38.1163   25.3609   35.6693 H   0  0  0  0  0  0  0  0  0  0  0  0
   37.2473   27.6597   35.8001 H   0  0  0  0  0  0  0  0  0  0  0  0
   36.3426   28.8045   33.7844 H   0  0  0  0  0  0  0  0  0  0  0  0
   36.3300   27.5987   31.5929 H   0  0  0  0  0  0  0  0  0  0  0  0
   37.2122   25.2739   31.4572 H   0  0  0  0  0  0  0  0  0  0  0  0
  1  2  2  0
  1 11  1  0
  3  2  1  0
  4  3  2  0
  5  4  1  0
  5  6  2  0
  6  1  1  0
  7  8  2  0
  9  8  1  0
 10  9  2  0
 11 12  2  0
 11 10  1  0
 12  7  1  0
 13  6  1  0
 13 14  1  0
 14 15  2  0
 15 16  1  0
 17 16  2  0
 18 17  1  0
 19 18  2  0
 19 14  1  0
  2 20  1  0
  3 21  1  0
  4 22  1  0
  5 23  1  0
  7 24  1  0
  8 25  1  0
  9 26  1  0
 15 27  1  0
 16 28  1  0
 17 29  1  0
 18 30  1  0
 19 31  1  0
M  ISO  8  20  14  21  14  22  14  23  14  24  14  25  14  26  14  27  14
M  ISO  4  28  14  29  14  30  14  31  14
M  END
>  <minimizedAffinity>  (1) 
-5.14933586

>  <minimizedRMSD>  (1) 
2.57515359

$$$$
