
     RDKit          3D

 31 33  0  0  0  0  0  0  0  0999 V2000
   37.1930   22.0400   34.6760 C   0  0  0  0  0  0  0  0  0  0  0  0
   36.3780   20.9280   34.7560 C   0  0  0  0  0  0  0  0  0  0  0  0
   35.6310   20.5010   33.6880 C   0  0  0  0  0  0  0  0  0  0  0  0
   35.7060   21.2190   32.4940 C   0  0  0  0  0  0  0  0  0  0  0  0
   36.5240   22.3290   32.4220 C   0  0  0  0  0  0  0  0  0  0  0  0
   37.2700   22.7500   33.5010 C   0  0  0  0  0  0  0  0  0  0  0  0
   40.0030   22.4290   36.9660 C   0  0  0  0  0  0  0  0  0  0  0  0
   39.4420   23.0870   38.0680 C   0  0  0  0  0  0  0  0  0  0  0  0
   38.0770   23.3990   38.0150 C   0  0  0  0  0  0  0  0  0  0  0  0
   37.3630   23.0520   36.9100 N   0  0  0  0  0  0  0  0  0  0  0  0
   37.9500   22.4150   35.8660 C   0  0  0  0  0  0  0  0  0  0  0  0
   39.2670   22.1060   35.8990 N   0  0  0  0  0  0  0  0  0  0  0  0
   38.0760   23.8530   33.4140 O   0  0  0  0  0  0  0  0  0  0  0  0
   37.7000   25.1470   33.5820 C   0  0  0  0  0  0  0  0  0  0  0  0
   37.6370   25.8940   34.7450 C   0  0  0  0  0  0  0  0  0  0  0  0
   37.2300   27.2130   34.7430 C   0  0  0  0  0  0  0  0  0  0  0  0
   36.8660   27.8450   33.5760 C   0  0  0  0  0  0  0  0  0  0  0  0
   36.9240   27.1140   32.4060 C   0  0  0  0  0  0  0  0  0  0  0  0
   37.3300   25.7980   32.4040 C   0  0  0  0  0  0  0  0  0  0  0  0
   36.3266   20.3694   35.7022 H   0  0  0  0  0  0  0  0  0  0  0  0
   34.9874   19.6128   33.7708 H   0  0  0  0  0  0  0  0  0  0  0  0
   35.1192   20.9038   31.6186 H   0  0  0  0  0  0  0  0  0  0  0  0
   36.5815   22.8918   31.4786 H   0  0  0  0  0  0  0  0  0  0  0  0
   41.0726   22.1727   36.9795 H   0  0  0  0  0  0  0  0  0  0  0  0
   40.0520   23.3498   38.9448 H   0  0  0  0  0  0  0  0  0  0  0  0
   37.5899   23.9168   38.8544 H   0  0  0  0  0  0  0  0  0  0  0  0
   37.9193   25.4234   35.6983 H   0  0  0  0  0  0  0  0  0  0  0  0
   37.1960   27.7691   35.6915 H   0  0  0  0  0  0  0  0  0  0  0  0
   36.5403   28.8957   33.5753 H   0  0  0  0  0  0  0  0  0  0  0  0
   36.6403   27.5922   31.4569 H   0  0  0  0  0  0  0  0  0  0  0  0
   37.3635   25.2473   31.4523 H   0  0  0  0  0  0  0  0  0  0  0  0
  1  2  2  0
  1 11  1  0
  3  2  1  0
  4  3  2  0
  5  4  1  0
  5  6  2  0
  6  1  1  0
  7  8  2  0
  9  8  1  0
 10  9  2  0
 11 12  2  0
 11 10  1  0
 12  7  1  0
 13  6  1  0
 13 14  1  0
 14 15  2  0
 16 15  1  0
 17 16  2  0
 18 17  1  0
 19 18  2  0
 19 14  1  0
  2 20  1  0
  3 21  1  0
  4 22  1  0
  5 23  1  0
  7 24  1  0
  8 25  1  0
  9 26  1  0
 15 27  1  0
 16 28  1  0
 17 29  1  0
 18 30  1  0
 19 31  1  0
M  ISO  8  20  14  21  14  22  14  23  14  24  14  25  14  26  14  27  14
M  ISO  4  28  14  29  14  30  14  31  14
M  END
>  <minimizedAffinity>  (1) 
-5.09241819

>  <minimizedRMSD>  (1) 
2.56524491

$$$$
