
     RDKit          3D

 33 36  0  0  0  0  0  0  0  0999 V2000
   43.4720   23.3380   34.0100 C   0  0  0  0  0  0  0  0  0  0  0  0
   43.5550   24.3450   33.0360 C   0  0  0  0  0  0  0  0  0  0  0  0
   45.1990   25.1760   33.4160 S   0  0  0  0  0  0  0  0  0  0  0  0
   45.4540   23.9700   34.8470 C   0  0  0  0  0  0  0  0  0  0  0  0
   44.5310   23.3640   34.7780 N   0  0  0  0  0  0  0  0  0  0  0  0
   46.5840   23.8950   35.7710 N   0  0  0  0  0  0  0  0  0  0  0  0
   46.9550   22.7660   36.3640 C   0  0  0  0  0  0  0  0  0  0  0  0
   48.0090   23.0570   37.1330 N   0  0  0  0  0  0  0  0  0  0  0  0
   48.2460   24.3890   36.9750 C   0  0  0  0  0  0  0  0  0  0  0  0
   49.2360   25.1820   37.5600 C   0  0  0  0  0  0  0  0  0  0  0  0
   49.2390   26.4860   37.2220 N   0  0  0  0  0  0  0  0  0  0  0  0
   48.3370   27.0260   36.3590 C   0  0  0  0  0  0  0  0  0  0  0  0
   47.3700   26.2570   35.7850 N   0  0  0  0  0  0  0  0  0  0  0  0
   47.3230   24.9490   36.0890 C   0  0  0  0  0  0  0  0  0  0  0  0
   50.1930   24.6350   38.4700 N   0  0  0  0  0  0  0  0  0  0  0  0
   42.0250   22.2900   34.0010 S   0  0  0  0  0  0  0  0  0  0  0  0
   40.4120   22.4170   37.6380 C   0  0  0  0  0  0  0  0  0  0  0  0
   39.3240   23.3070   37.4750 C   0  0  0  0  0  0  0  0  0  0  0  0
   39.1150   23.8560   36.2160 C   0  0  0  0  0  0  0  0  0  0  0  0
   39.9540   23.5250   35.1870 N   0  0  0  0  0  0  0  0  0  0  0  0
   40.9970   22.6540   35.4000 C   0  0  0  0  0  0  0  0  0  0  0  0
   41.2020   22.1260   36.6030 N   0  0  0  0  0  0  0  0  0  0  0  0
   38.4030   23.6750   38.5860 C   0  0  0  0  0  0  0  0  0  0  0  0
   39.1960   23.8810   39.7100 F   0  0  0  0  0  0  0  0  0  0  0  0
   37.4740   22.7320   38.8580 F   0  0  0  0  0  0  0  0  0  0  0  0
   37.8490   24.9480   38.3560 F   0  0  0  0  0  0  0  0  0  0  0  0
   42.8334   24.5892   32.2425 H   0  0  0  0  0  0  0  0  0  0  0  0
   46.4843   21.7789   36.2450 H   0  0  0  0  0  0  0  0  0  0  0  0
   48.3890   28.0987   36.1212 H   0  0  0  0  0  0  0  0  0  0  0  0
   50.9127   25.2424   38.8872 H   0  0  0  0  0  0  0  0  0  0  0  0
   50.1629   23.6335   38.7086 H   0  0  0  0  0  0  0  0  0  0  0  0
   40.6070   21.9637   38.6211 H   0  0  0  0  0  0  0  0  0  0  0  0
   38.2803   24.5524   36.0474 H   0  0  0  0  0  0  0  0  0  0  0  0
  1  5  1  0
  2  3  1  0
  2  1  2  0
  3  4  1  0
  4  6  1  0
  5  4  2  0
  6 14  1  0
  6  7  1  0
  7  8  2  0
  9  8  1  0
  9 10  2  0
 10 15  1  0
 11 10  1  0
 12 11  2  0
 13 14  2  0
 13 12  1  0
 14  9  1  0
 16  1  1  0
 16 21  1  0
 18 17  2  0
 18 23  1  0
 19 18  1  0
 20 21  1  0
 20 19  2  0
 21 22  2  0
 22 17  1  0
 23 25  1  0
 23 24  1  0
 26 23  1  0
  2 27  1  0
  7 28  1  0
 12 29  1  0
 15 30  1  0
 15 31  1  0
 17 32  1  0
 19 33  1  0
M  ISO  5  27  14  28  14  29  14  32  14  33  14
M  END
>  <minimizedAffinity>  (1) 
-5.1106801

>  <minimizedRMSD>  (1) 
3.55928946

$$$$
