
     RDKit          3D

 29 31  0  0  0  0  0  0  0  0999 V2000
   37.4800   22.2260   34.8080 C   0  0  0  0  0  0  0  0  0  0  0  0
   36.5860   21.2050   34.7930 C   0  0  0  0  0  0  0  0  0  0  0  0
   35.8900   20.8590   33.6720 C   0  0  0  0  0  0  0  0  0  0  0  0
   36.1170   21.5940   32.5070 C   0  0  0  0  0  0  0  0  0  0  0  0
   37.0310   22.6410   32.5170 C   0  0  0  0  0  0  0  0  0  0  0  0
   37.7330   22.9850   33.6590 C   0  0  0  0  0  0  0  0  0  0  0  0
   40.1550   22.4260   37.2910 C   0  0  0  0  0  0  0  0  0  0  0  0
   39.5590   23.0900   38.3610 C   0  0  0  0  0  0  0  0  0  0  0  0
   38.2110   23.4750   38.2390 C   0  0  0  0  0  0  0  0  0  0  0  0
   37.5680   23.1770   37.0800 N   0  0  0  0  0  0  0  0  0  0  0  0
   38.1950   22.5270   36.0640 C   0  0  0  0  0  0  0  0  0  0  0  0
   39.4710   22.1580   36.1740 N   0  0  0  0  0  0  0  0  0  0  0  0
   38.6270   24.0110   33.6550 O   0  0  0  0  0  0  0  0  0  0  0  0
   38.4950   25.2230   34.3020 C   0  0  0  0  0  0  0  0  0  0  0  0
   39.2710   25.8840   35.2290 C   0  0  0  0  0  0  0  0  0  0  0  0
   38.8560   27.1120   35.6940 C   0  0  0  0  0  0  0  0  0  0  0  0
   37.7220   27.6850   35.2750 N   0  0  0  0  0  0  0  0  0  0  0  0
   36.9730   27.0360   34.3720 C   0  0  0  0  0  0  0  0  0  0  0  0
   37.3500   25.8320   33.8960 N   0  0  0  0  0  0  0  0  0  0  0  0
   36.4164   20.6356   35.7188 H   0  0  0  0  0  0  0  0  0  0  0  0
   35.1716   20.0261   33.6856 H   0  0  0  0  0  0  0  0  0  0  0  0
   35.5738   21.3451   31.5834 H   0  0  0  0  0  0  0  0  0  0  0  0
   37.2010   23.2117   31.5921 H   0  0  0  0  0  0  0  0  0  0  0  0
   41.2079   22.1165   37.3666 H   0  0  0  0  0  0  0  0  0  0  0  0
   40.1273   23.3076   39.2773 H   0  0  0  0  0  0  0  0  0  0  0  0
   37.6945   24.0004   39.0558 H   0  0  0  0  0  0  0  0  0  0  0  0
   40.2083   25.4374   35.5923 H   0  0  0  0  0  0  0  0  0  0  0  0
   39.4768   27.6387   36.4337 H   0  0  0  0  0  0  0  0  0  0  0  0
   36.0380   27.4920   34.0145 H   0  0  0  0  0  0  0  0  0  0  0  0
  1 11  1  0
  2  1  2  0
  3  2  1  0
  4  5  1  0
  4  3  2  0
  5  6  2  0
  6  1  1  0
  7  8  2  0
  9  8  1  0
 10  9  2  0
 11 12  2  0
 11 10  1  0
 12  7  1  0
 13  6  1  0
 13 14  1  0
 14 15  2  0
 15 16  1  0
 17 16  2  0
 18 17  1  0
 19 14  1  0
 19 18  2  0
  2 20  1  0
  3 21  1  0
  4 22  1  0
  5 23  1  0
  7 24  1  0
  8 25  1  0
  9 26  1  0
 15 27  1  0
 16 28  1  0
 18 29  1  0
M  ISO  8  20  14  21  14  22  14  23  14  24  14  25  14  26  14  27  14
M  ISO  2  28  14  29  14
M  END
>  <minimizedAffinity>  (1) 
-5.06613016

>  <minimizedRMSD>  (1) 
0.683686137

$$$$
