
     RDKit          3D

 28 30  0  0  0  0  0  0  0  0999 V2000
   37.7390   22.5930   34.7830 C   0  0  0  0  0  0  0  0  0  0  0  0
   36.9820   21.4590   34.5770 C   0  0  0  0  0  0  0  0  0  0  0  0
   36.4890   21.1470   33.3360 C   0  0  0  0  0  0  0  0  0  0  0  0
   36.7670   22.0030   32.2700 C   0  0  0  0  0  0  0  0  0  0  0  0
   37.5240   23.1310   32.4940 C   0  0  0  0  0  0  0  0  0  0  0  0
   38.0260   23.4540   33.7440 C   0  0  0  0  0  0  0  0  0  0  0  0
   39.9520   22.6840   37.6830 C   0  0  0  0  0  0  0  0  0  0  0  0
   39.1740   23.3150   38.6750 C   0  0  0  0  0  0  0  0  0  0  0  0
   37.8870   23.7040   38.3300 C   0  0  0  0  0  0  0  0  0  0  0  0
   37.4590   23.4580   37.0760 N   0  0  0  0  0  0  0  0  0  0  0  0
   38.2220   22.8500   36.1330 C   0  0  0  0  0  0  0  0  0  0  0  0
   39.4750   22.4640   36.4500 N   0  0  0  0  0  0  0  0  0  0  0  0
   38.7730   24.5780   33.9370 O   0  0  0  0  0  0  0  0  0  0  0  0
   38.1420   25.7560   34.3080 C   0  0  0  0  0  0  0  0  0  0  0  0
   38.7100   26.4720   35.3400 C   0  0  0  0  0  0  0  0  0  0  0  0
   37.9390   27.5920   35.5480 C   0  0  0  0  0  0  0  0  0  0  0  0
   36.9140   27.5020   34.6120 C   0  0  0  0  0  0  0  0  0  0  0  0
   37.0810   26.4200   33.9210 O   0  0  0  0  0  0  0  0  0  0  0  0
   36.7694   20.7914   35.4250 H   0  0  0  0  0  0  0  0  0  0  0  0
   35.8861   20.2396   33.1840 H   0  0  0  0  0  0  0  0  0  0  0  0
   36.3860   21.7794   31.2626 H   0  0  0  0  0  0  0  0  0  0  0  0
   37.7383   23.8011   31.6484 H   0  0  0  0  0  0  0  0  0  0  0  0
   40.9758   22.3643   37.9270 H   0  0  0  0  0  0  0  0  0  0  0  0
   39.5721   23.4925   39.6850 H   0  0  0  0  0  0  0  0  0  0  0  0
   37.2329   24.2006   39.0618 H   0  0  0  0  0  0  0  0  0  0  0  0
   39.6175   26.1969   35.8975 H   0  0  0  0  0  0  0  0  0  0  0  0
   38.0983   28.3860   36.2925 H   0  0  0  0  0  0  0  0  0  0  0  0
   36.0984   28.2283   34.4809 H   0  0  0  0  0  0  0  0  0  0  0  0
  1 11  1  0
  2  1  2  0
  3  2  1  0
  4  5  1  0
  4  3  2  0
  5  6  2  0
  6 13  1  0
  6  1  1  0
  7  8  2  0
  9  8  1  0
 10  9  2  0
 11 12  2  0
 11 10  1  0
 12  7  1  0
 13 14  1  0
 14 15  2  0
 15 16  1  0
 17 16  2  0
 18 14  1  0
 18 17  1  0
  2 19  1  0
  3 20  1  0
  4 21  1  0
  5 22  1  0
  7 23  1  0
  8 24  1  0
  9 25  1  0
 15 26  1  0
 16 27  1  0
 17 28  1  0
M  ISO  8  19  14  20  14  21  14  22  14  23  14  24  14  25  14  26  14
M  ISO  2  27  14  28  14
M  END
>  <minimizedAffinity>  (1) 
-4.88413239

>  <minimizedRMSD>  (1) 
1.22273743

$$$$
