
     RDKit          3D

 23 24  0  0  0  0  0  0  0  0999 V2000
   37.1960   21.9460   34.8710 C   0  0  0  0  0  0  0  0  0  0  0  0
   36.2750   20.9320   35.0280 C   0  0  0  0  0  0  0  0  0  0  0  0
   35.5570   20.4530   33.9620 C   0  0  0  0  0  0  0  0  0  0  0  0
   35.7670   21.0010   32.7100 C   0  0  0  0  0  0  0  0  0  0  0  0
   36.6960   22.0210   32.5540 C   0  0  0  0  0  0  0  0  0  0  0  0
   37.4310   22.5180   33.6280 C   0  0  0  0  0  0  0  0  0  0  0  0
   39.9260   22.5280   37.2200 C   0  0  0  0  0  0  0  0  0  0  0  0
   39.3140   23.2640   38.2600 C   0  0  0  0  0  0  0  0  0  0  0  0
   37.9690   23.5500   38.1370 C   0  0  0  0  0  0  0  0  0  0  0  0
   37.3050   23.1160   37.0370 N   0  0  0  0  0  0  0  0  0  0  0  0
   37.9300   22.4100   36.0590 C   0  0  0  0  0  0  0  0  0  0  0  0
   39.2330   22.1160   36.1460 N   0  0  0  0  0  0  0  0  0  0  0  0
   38.3400   23.5210   33.4570 O   0  0  0  0  0  0  0  0  0  0  0  0
   37.8430   24.8130   33.2640 C   0  0  0  0  0  0  0  0  0  0  0  0
   37.0700   25.7920   33.2960 O   0  0  0  0  0  0  0  0  0  0  0  0
   36.1131   20.4993   36.0263 H   0  0  0  0  0  0  0  0  0  0  0  0
   34.8244   19.6443   34.1011 H   0  0  0  0  0  0  0  0  0  0  0  0
   35.2012   20.6309   31.8423 H   0  0  0  0  0  0  0  0  0  0  0  0
   36.8563   22.4490   31.5535 H   0  0  0  0  0  0  0  0  0  0  0  0
   40.9968   22.2866   37.2922 H   0  0  0  0  0  0  0  0  0  0  0  0
   39.8891   23.5972   39.1365 H   0  0  0  0  0  0  0  0  0  0  0  0
   37.4448   24.1203   38.9180 H   0  0  0  0  0  0  0  0  0  0  0  0
   38.6953   25.2645   32.7352 H   0  0  0  0  0  0  0  0  0  0  0  0
  1  2  2  0
  1 11  1  0
  3  2  1  0
  4  3  2  0
  5  4  1  0
  5  6  2  0
  6  1  1  0
  7  8  2  0
  9  8  1  0
 10  9  2  0
 11 12  2  0
 11 10  1  0
 12  7  1  0
 13  6  1  0
 14 15  2  0
 14 13  1  0
  2 16  1  0
  3 17  1  0
  4 18  1  0
  5 19  1  0
  7 20  1  0
  8 21  1  0
  9 22  1  0
 14 23  1  0
M  ISO  8  16  14  17  14  18  14  19  14  20  14  21  14  22  14  23   6
M  END
>  <minimizedAffinity>  (1) 
-4.11002207

>  <minimizedRMSD>  (1) 
0.263530642

$$$$
