
     RDKit          3D

 42 46  0  0  0  0  0  0  0  0999 V2000
   38.3090   23.2380   33.2010 O   0  0  0  0  0  0  0  0  0  0  0  0
   37.1310   21.8100   34.7310 C   0  0  0  0  0  0  0  0  0  0  0  0
   36.1750   20.8570   34.9830 C   0  0  0  0  0  0  0  0  0  0  0  0
   35.4120   20.3540   33.9660 C   0  0  0  0  0  0  0  0  0  0  0  0
   35.6290   20.8270   32.6770 C   0  0  0  0  0  0  0  0  0  0  0  0
   36.5900   21.7800   32.4380 C   0  0  0  0  0  0  0  0  0  0  0  0
   37.3710   22.3010   33.4620 C   0  0  0  0  0  0  0  0  0  0  0  0
   39.9690   22.4360   36.9440 C   0  0  0  0  0  0  0  0  0  0  0  0
   39.4230   23.2030   37.9920 C   0  0  0  0  0  0  0  0  0  0  0  0
   38.0690   23.5010   37.9280 C   0  0  0  0  0  0  0  0  0  0  0  0
   37.3740   23.0370   36.8690 N   0  0  0  0  0  0  0  0  0  0  0  0
   37.9150   22.3100   35.8830 C   0  0  0  0  0  0  0  0  0  0  0  0
   39.2300   22.0020   35.9170 N   0  0  0  0  0  0  0  0  0  0  0  0
   37.6990   25.5790   30.6450 N   0  0  0  0  0  0  0  0  0  0  0  0
   38.0590   24.3670   30.9160 N   0  0  0  0  0  0  0  0  0  0  0  0
   38.0440   24.2330   32.2740 C   0  0  0  0  0  0  0  0  0  0  0  0
   37.6480   25.4480   32.7830 C   0  0  0  0  0  0  0  0  0  0  0  0
   37.4210   26.3340   31.7420 C   0  0  0  0  0  0  0  0  0  0  0  0
   37.0280   27.6930   31.3710 C   0  0  0  0  0  0  0  0  0  0  0  0
   37.2170   28.0960   30.1520 N   0  0  0  0  0  0  0  0  0  0  0  0
   36.9550   29.3380   29.6590 C   0  0  0  0  0  0  0  0  0  0  0  0
   36.4510   30.2340   30.5100 N   0  0  0  0  0  0  0  0  0  0  0  0
   36.2030   29.9630   31.7930 C   0  0  0  0  0  0  0  0  0  0  0  0
   35.6870   30.8730   32.6820 C   0  0  0  0  0  0  0  0  0  0  0  0
   35.4390   30.5630   34.0190 C   0  0  0  0  0  0  0  0  0  0  0  0
   35.7470   29.2750   34.3910 C   0  0  0  0  0  0  0  0  0  0  0  0
   36.2620   28.3870   33.4810 C   0  0  0  0  0  0  0  0  0  0  0  0
   36.5100   28.6800   32.1630 C   0  0  0  0  0  0  0  0  0  0  0  0
   36.0219   20.4956   36.0106 H   0  0  0  0  0  0  0  0  0  0  0  0
   34.6436   19.5920   34.1634 H   0  0  0  0  0  0  0  0  0  0  0  0
   35.0277   20.4360   31.8430 H   0  0  0  0  0  0  0  0  0  0  0  0
   36.7447   22.1393   31.4099 H   0  0  0  0  0  0  0  0  0  0  0  0
   41.0397   22.1854   36.9712 H   0  0  0  0  0  0  0  0  0  0  0  0
   40.0458   23.5522   38.8287 H   0  0  0  0  0  0  0  0  0  0  0  0
   37.5794   24.0951   38.7137 H   0  0  0  0  0  0  0  0  0  0  0  0
   37.6289   25.9409   29.6832 H   0  0  0  0  0  0  0  0  0  0  0  0
   37.5298   25.6805   33.8516 H   0  0  0  0  0  0  0  0  0  0  0  0
   37.1500   29.5914   28.6065 H   0  0  0  0  0  0  0  0  0  0  0  0
   35.4598   31.8884   32.3252 H   0  0  0  0  0  0  0  0  0  0  0  0
   35.0260   31.2971   34.7265 H   0  0  0  0  0  0  0  0  0  0  0  0
   35.5785   28.9536   35.4294 H   0  0  0  0  0  0  0  0  0  0  0  0
   36.4921   27.3701   33.8316 H   0  0  0  0  0  0  0  0  0  0  0  0
  1  7  1  0
  2  3  2  0
  2 12  1  0
  4  3  1  0
  5  4  2  0
  6  5  1  0
  6  7  2  0
  7  2  1  0
  8  9  2  0
 10  9  1  0
 11 10  2  0
 12 13  2  0
 12 11  1  0
 13  8  1  0
 14 15  1  0
 14 18  1  0
 15 16  2  0
 16 17  1  0
 16  1  1  0
 18 17  2  0
 19 18  1  0
 19 28  1  0
 20 19  2  0
 21 20  1  0
 21 22  2  0
 22 23  1  0
 23 28  2  0
 23 24  1  0
 24 25  2  0
 25 26  1  0
 27 26  2  0
 28 27  1  0
  3 29  1  0
  4 30  1  0
  5 31  1  0
  6 32  1  0
  8 33  1  0
  9 34  1  0
 10 35  1  0
 14 36  1  0
 17 37  1  0
 21 38  1  0
 24 39  1  0
 25 40  1  0
 26 41  1  0
 27 42  1  0
M  ISO  8  29  14  30  14  31  14  32  14  33  14  34  14  35  14  36   9
M  ISO  6  37  14  38  14  39  14  40  14  41  14  42  14
M  END
>  <minimizedAffinity>  (1) 
-6.69881153

>  <minimizedRMSD>  (1) 
2.78464746

$$$$
