
     RDKit          3D

 41 44  0  0  0  0  0  0  0  0999 V2000
   37.2090   21.8660   34.6910 C   0  0  0  0  0  0  0  0  0  0  0  0
   36.2390   20.9250   34.9030 C   0  0  0  0  0  0  0  0  0  0  0  0
   35.4870   20.4450   33.8530 C   0  0  0  0  0  0  0  0  0  0  0  0
   35.7410   20.9390   32.5770 C   0  0  0  0  0  0  0  0  0  0  0  0
   36.7160   21.8820   32.3830 C   0  0  0  0  0  0  0  0  0  0  0  0
   37.4850   22.3770   33.4350 C   0  0  0  0  0  0  0  0  0  0  0  0
   40.0080   22.4030   36.9840 C   0  0  0  0  0  0  0  0  0  0  0  0
   39.4480   23.1610   38.0240 C   0  0  0  0  0  0  0  0  0  0  0  0
   38.1010   23.4890   37.9340 C   0  0  0  0  0  0  0  0  0  0  0  0
   37.4160   23.0550   36.8490 N   0  0  0  0  0  0  0  0  0  0  0  0
   37.9690   22.3290   35.8630 C   0  0  0  0  0  0  0  0  0  0  0  0
   39.2860   21.9950   35.9250 N   0  0  0  0  0  0  0  0  0  0  0  0
   38.4560   23.3170   33.2270 O   0  0  0  0  0  0  0  0  0  0  0  0
   37.6880   26.3100   31.5450 N   0  0  0  0  0  0  0  0  0  0  0  0
   38.2340   25.1420   31.4520 N   0  0  0  0  0  0  0  0  0  0  0  0
   38.1140   24.5220   32.6480 C   0  0  0  0  0  0  0  0  0  0  0  0
   37.4460   25.3900   33.5110 C   0  0  0  0  0  0  0  0  0  0  0  0
   37.1780   26.5510   32.7710 C   0  0  0  0  0  0  0  0  0  0  0  0
   36.5320   27.7820   33.0810 N   0  0  0  0  0  0  0  0  0  0  0  0
   35.8690   28.5220   32.1440 C   0  0  0  0  0  0  0  0  0  0  0  0
   35.2510   29.7120   32.4730 C   0  0  0  0  0  0  0  0  0  0  0  0
   34.5400   30.4850   31.4180 C   0  0  0  0  0  0  0  0  0  0  0  0
   35.2940   30.1850   33.7820 C   0  0  0  0  0  0  0  0  0  0  0  0
   34.7520   31.2520   34.1210 O   0  0  0  0  0  0  0  0  0  0  0  0
   35.9720   29.3950   34.6560 N   0  0  0  0  0  0  0  0  0  0  0  0
   36.5790   28.2340   34.3600 C   0  0  0  0  0  0  0  0  0  0  0  0
   37.1720   27.6180   35.3040 O   0  0  0  0  0  0  0  0  0  0  0  0
   36.0578   20.5483   35.9205 H   0  0  0  0  0  0  0  0  0  0  0  0
   34.7048   19.6896   34.0193 H   0  0  0  0  0  0  0  0  0  0  0  0
   35.1567   20.5710   31.7207 H   0  0  0  0  0  0  0  0  0  0  0  0
   36.8974   22.2600   31.3660 H   0  0  0  0  0  0  0  0  0  0  0  0
   41.0732   22.1335   37.0367 H   0  0  0  0  0  0  0  0  0  0  0  0
   40.0555   23.4847   38.8820 H   0  0  0  0  0  0  0  0  0  0  0  0
   37.6070   24.0816   38.7180 H   0  0  0  0  0  0  0  0  0  0  0  0
   37.6466   26.9840   30.7673 H   0  0  0  0  0  0  0  0  0  0  0  0
   37.1820   25.2018   34.5621 H   0  0  0  0  0  0  0  0  0  0  0  0
   35.8265   28.1624   31.1053 H   0  0  0  0  0  0  0  0  0  0  0  0
   33.8673   31.2163   31.8898 H   0  0  0  0  0  0  0  0  0  0  0  0
   35.2747   31.0129   30.7923 H   0  0  0  0  0  0  0  0  0  0  0  0
   33.9526   29.7969   30.7923 H   0  0  0  0  0  0  0  0  0  0  0  0
   36.0250   29.7156   35.6334 H   0  0  0  0  0  0  0  0  0  0  0  0
  1  2  2  0
  1 11  1  0
  3  2  1  0
  4  3  2  0
  5  4  1  0
  5  6  2  0
  6  1  1  0
  7  8  2  0
  9  8  1  0
 10  9  2  0
 11 12  2  0
 11 10  1  0
 12  7  1  0
 13  6  1  0
 14 18  1  0
 15 14  1  0
 15 16  2  0
 16 13  1  0
 16 17  1  0
 18 19  1  0
 18 17  2  0
 19 26  1  0
 20 21  2  0
 20 19  1  0
 21 23  1  0
 22 21  1  0
 23 24  2  0
 23 25  1  0
 26 25  1  0
 26 27  2  0
  2 28  1  0
  3 29  1  0
  4 30  1  0
  5 31  1  0
  7 32  1  0
  8 33  1  0
  9 34  1  0
 14 35  1  0
 17 36  1  0
 20 37  1  0
 22 38  1  0
 22 39  1  0
 22 40  1  0
 25 41  1  0
M  ISO  8  28  14  29  14  30  14  31  14  32  14  33  14  34  14  35   9
M  ISO  6  36  14  37  14  38   8  39   8  40   8  41   9
M  END
>  <minimizedAffinity>  (1) 
-6.06191254

>  <minimizedRMSD>  (1) 
1.81624949

$$$$
