
     RDKit          3D

 39 43  0  0  0  0  0  0  0  0999 V2000
   37.2270   21.8830   34.7340 C   0  0  0  0  0  0  0  0  0  0  0  0
   36.2350   20.9400   34.9350 C   0  0  0  0  0  0  0  0  0  0  0  0
   35.4940   20.4710   33.8760 C   0  0  0  0  0  0  0  0  0  0  0  0
   35.7600   20.9590   32.5890 C   0  0  0  0  0  0  0  0  0  0  0  0
   36.7490   21.8930   32.4150 C   0  0  0  0  0  0  0  0  0  0  0  0
   37.5110   22.3810   33.4800 C   0  0  0  0  0  0  0  0  0  0  0  0
   40.0100   22.4040   37.0330 C   0  0  0  0  0  0  0  0  0  0  0  0
   39.4460   23.1680   38.0680 C   0  0  0  0  0  0  0  0  0  0  0  0
   38.0960   23.5030   37.9670 C   0  0  0  0  0  0  0  0  0  0  0  0
   37.4200   23.0700   36.8820 N   0  0  0  0  0  0  0  0  0  0  0  0
   37.9790   22.3400   35.9020 C   0  0  0  0  0  0  0  0  0  0  0  0
   39.2800   22.0100   35.9850 N   0  0  0  0  0  0  0  0  0  0  0  0
   38.4790   23.3040   33.2580 O   0  0  0  0  0  0  0  0  0  0  0  0
   37.7170   26.2870   31.5390 N   0  0  0  0  0  0  0  0  0  0  0  0
   38.2190   25.0960   31.4480 N   0  0  0  0  0  0  0  0  0  0  0  0
   38.1420   24.5170   32.6630 C   0  0  0  0  0  0  0  0  0  0  0  0
   37.5510   25.4340   33.5380 C   0  0  0  0  0  0  0  0  0  0  0  0
   37.2830   26.5860   32.7750 C   0  0  0  0  0  0  0  0  0  0  0  0
   36.6790   27.8090   33.2120 N   0  0  0  0  0  0  0  0  0  0  0  0
   36.3260   28.1970   34.4720 C   0  0  0  0  0  0  0  0  0  0  0  0
   35.7920   29.4300   34.4050 N   0  0  0  0  0  0  0  0  0  0  0  0
   35.8030   29.8240   33.1190 C   0  0  0  0  0  0  0  0  0  0  0  0
   35.3440   31.0280   32.6190 C   0  0  0  0  0  0  0  0  0  0  0  0
   35.4770   31.1690   31.2690 N   0  0  0  0  0  0  0  0  0  0  0  0
   36.0270   30.1690   30.5190 C   0  0  0  0  0  0  0  0  0  0  0  0
   36.4650   28.9990   31.0570 N   0  0  0  0  0  0  0  0  0  0  0  0
   36.3590   28.8090   32.3690 C   0  0  0  0  0  0  0  0  0  0  0  0
   36.0376   20.5627   35.9492 H   0  0  0  0  0  0  0  0  0  0  0  0
   34.7034   19.7232   34.0364 H   0  0  0  0  0  0  0  0  0  0  0  0
   35.1810   20.5962   31.7269 H   0  0  0  0  0  0  0  0  0  0  0  0
   36.9495   22.2713   31.4017 H   0  0  0  0  0  0  0  0  0  0  0  0
   41.0726   22.1247   37.0860 H   0  0  0  0  0  0  0  0  0  0  0  0
   40.0490   23.4913   38.9294 H   0  0  0  0  0  0  0  0  0  0  0  0
   37.5988   24.1001   38.7456 H   0  0  0  0  0  0  0  0  0  0  0  0
   37.6567   26.9390   30.7439 H   0  0  0  0  0  0  0  0  0  0  0  0
   37.3385   25.2850   34.6069 H   0  0  0  0  0  0  0  0  0  0  0  0
   36.4562   27.6019   35.3879 H   0  0  0  0  0  0  0  0  0  0  0  0
   34.9068   31.8093   33.2582 H   0  0  0  0  0  0  0  0  0  0  0  0
   36.1198   30.3161   29.4328 H   0  0  0  0  0  0  0  0  0  0  0  0
  1  2  2  0
  1 11  1  0
  3  2  1  0
  4  3  2  0
  5  4  1  0
  5  6  2  0
  6  1  1  0
  7  8  2  0
  9  8  1  0
 10  9  2  0
 11 12  2  0
 11 10  1  0
 12  7  1  0
 13  6  1  0
 14 18  1  0
 15 14  1  0
 15 16  2  0
 16 13  1  0
 16 17  1  0
 18 19  1  0
 18 17  2  0
 19 20  1  0
 21 20  2  0
 22 21  1  0
 23 22  2  0
 24 23  1  0
 25 26  1  0
 25 24  2  0
 26 27  2  0
 27 22  1  0
 27 19  1  0
  2 28  1  0
  3 29  1  0
  4 30  1  0
  5 31  1  0
  7 32  1  0
  8 33  1  0
  9 34  1  0
 14 35  1  0
 17 36  1  0
 20 37  1  0
 23 38  1  0
 25 39  1  0
M  ISO  8  28  14  29  14  30  14  31  14  32  14  33  14  34  14  35   9
M  ISO  4  36  14  37  14  38  14  39  14
M  END
>  <minimizedAffinity>  (1) 
-5.98271322

>  <minimizedRMSD>  (1) 
1.79990137

$$$$
