
     RDKit          3D

 44 47  0  0  0  0  0  0  0  0999 V2000
   37.1260   21.8640   34.7500 C   0  0  0  0  0  0  0  0  0  0  0  0
   36.2170   20.8400   34.9780 C   0  0  0  0  0  0  0  0  0  0  0  0
   35.4480   20.3480   33.9470 C   0  0  0  0  0  0  0  0  0  0  0  0
   35.6040   20.9020   32.6710 C   0  0  0  0  0  0  0  0  0  0  0  0
   36.5050   21.9070   32.4800 C   0  0  0  0  0  0  0  0  0  0  0  0
   37.3000   22.4280   33.5030 C   0  0  0  0  0  0  0  0  0  0  0  0
   39.9720   22.4370   36.9560 C   0  0  0  0  0  0  0  0  0  0  0  0
   39.4230   23.1990   38.0220 C   0  0  0  0  0  0  0  0  0  0  0  0
   38.0630   23.5010   37.9510 C   0  0  0  0  0  0  0  0  0  0  0  0
   37.3700   23.0550   36.8920 N   0  0  0  0  0  0  0  0  0  0  0  0
   37.9070   22.3350   35.8920 C   0  0  0  0  0  0  0  0  0  0  0  0
   39.2200   22.0290   35.9360 N   0  0  0  0  0  0  0  0  0  0  0  0
   38.1860   23.4310   33.2640 O   0  0  0  0  0  0  0  0  0  0  0  0
   37.6270   25.5650   30.5020 N   0  0  0  0  0  0  0  0  0  0  0  0
   38.1190   24.4390   30.9020 N   0  0  0  0  0  0  0  0  0  0  0  0
   37.9210   24.3380   32.2390 C   0  0  0  0  0  0  0  0  0  0  0  0
   37.2650   25.4910   32.6560 C   0  0  0  0  0  0  0  0  0  0  0  0
   37.0860   26.2730   31.5100 C   0  0  0  0  0  0  0  0  0  0  0  0
   36.4410   27.6030   31.3880 C   0  0  0  0  0  0  0  0  0  0  0  0
   37.4450   28.6340   30.8570 C   0  0  0  0  0  0  0  0  0  0  0  0
   36.5790   29.7380   30.2610 C   0  0  0  0  0  0  0  0  0  0  0  0
   35.6700   30.2650   31.3280 C   0  0  0  0  0  0  0  0  0  0  0  0
   35.9350   29.6550   32.6880 C   0  0  0  0  0  0  0  0  0  0  0  0
   35.9020   28.1430   32.6700 C   0  0  0  0  0  0  0  0  0  0  0  0
   36.1103   20.4189   35.9886 H   0  0  0  0  0  0  0  0  0  0  0  0
   34.7263   19.5366   34.1225 H   0  0  0  0  0  0  0  0  0  0  0  0
   35.0036   20.5289   31.8282 H   0  0  0  0  0  0  0  0  0  0  0  0
   36.6111   22.3286   31.4696 H   0  0  0  0  0  0  0  0  0  0  0  0
   41.0411   22.1786   36.9738 H   0  0  0  0  0  0  0  0  0  0  0  0
   40.0429   23.5359   38.8659 H   0  0  0  0  0  0  0  0  0  0  0  0
   37.5723   24.0884   38.7411 H   0  0  0  0  0  0  0  0  0  0  0  0
   37.6468   25.8841   29.5229 H   0  0  0  0  0  0  0  0  0  0  0  0
   36.9502   25.7383   33.6806 H   0  0  0  0  0  0  0  0  0  0  0  0
   35.5984   27.4440   30.6990 H   0  0  0  0  0  0  0  0  0  0  0  0
   38.0679   29.0268   31.6741 H   0  0  0  0  0  0  0  0  0  0  0  0
   38.1380   28.2020   30.1200 H   0  0  0  0  0  0  0  0  0  0  0  0
   37.2201   30.5498   29.8869 H   0  0  0  0  0  0  0  0  0  0  0  0
   35.9844   29.3381   29.4264 H   0  0  0  0  0  0  0  0  0  0  0  0
   35.8085   31.3539   31.3996 H   0  0  0  0  0  0  0  0  0  0  0  0
   34.6413   29.9987   31.0437 H   0  0  0  0  0  0  0  0  0  0  0  0
   36.9280   29.9806   33.0315 H   0  0  0  0  0  0  0  0  0  0  0  0
   35.1368   29.9951   33.3642 H   0  0  0  0  0  0  0  0  0  0  0  0
   34.8619   27.8061   32.7913 H   0  0  0  0  0  0  0  0  0  0  0  0
   36.5303   27.7727   33.4935 H   0  0  0  0  0  0  0  0  0  0  0  0
  1  2  2  0
  1 11  1  0
  3  2  1  0
  4  3  2  0
  5  4  1  0
  5  6  2  0
  6  1  1  0
  7  8  2  0
  9  8  1  0
 10  9  2  0
 11 12  2  0
 11 10  1  0
 12  7  1  0
 13  6  1  0
 14 15  1  0
 14 18  1  0
 15 16  2  0
 16 17  1  0
 16 13  1  0
 18 17  2  0
 19 18  1  0
 19 24  1  0
 20 19  1  0
 21 20  1  0
 21 22  1  0
 22 23  1  0
 24 23  1  0
  2 25  1  0
  3 26  1  0
  4 27  1  0
  5 28  1  0
  7 29  1  0
  8 30  1  0
  9 31  1  0
 14 32  1  0
 17 33  1  0
 19 34  1  0
 20 35  1  0
 20 36  1  0
 21 37  1  0
 21 38  1  0
 22 39  1  0
 22 40  1  0
 23 41  1  0
 23 42  1  0
 24 43  1  0
 24 44  1  0
M  ISO  8  25  14  26  14  27  14  28  14  29  14  30  14  31  14  32   9
M  ISO  8  33  14  34  13  35  13  36  13  37  13  38  13  39  13  40  13
M  ISO  4  41  13  42  13  43  13  44  13
M  END
>  <minimizedAffinity>  (1) 
-5.8821969

>  <minimizedRMSD>  (1) 
2.66346574

$$$$
