
     RDKit          3D

 35 38  0  0  0  0  0  0  0  0999 V2000
   37.1160   21.7990   34.7610 C   0  0  0  0  0  0  0  0  0  0  0  0
   36.1770   20.8240   35.0320 C   0  0  0  0  0  0  0  0  0  0  0  0
   35.4030   20.3150   34.0090 C   0  0  0  0  0  0  0  0  0  0  0  0
   35.5880   20.8010   32.7090 C   0  0  0  0  0  0  0  0  0  0  0  0
   36.5260   21.7660   32.4730 C   0  0  0  0  0  0  0  0  0  0  0  0
   37.3240   22.2990   33.4960 C   0  0  0  0  0  0  0  0  0  0  0  0
   39.9790   22.4360   36.9400 C   0  0  0  0  0  0  0  0  0  0  0  0
   39.4310   23.2040   37.9960 C   0  0  0  0  0  0  0  0  0  0  0  0
   38.0710   23.4930   37.9420 C   0  0  0  0  0  0  0  0  0  0  0  0
   37.3690   23.0270   36.8940 N   0  0  0  0  0  0  0  0  0  0  0  0
   37.9050   22.2960   35.8940 C   0  0  0  0  0  0  0  0  0  0  0  0
   39.2200   21.9980   35.9180 N   0  0  0  0  0  0  0  0  0  0  0  0
   38.2470   23.2580   33.2240 O   0  0  0  0  0  0  0  0  0  0  0  0
   37.7830   25.2250   30.3250 N   0  0  0  0  0  0  0  0  0  0  0  0
   38.1190   24.0650   30.7890 N   0  0  0  0  0  0  0  0  0  0  0  0
   38.0380   24.1080   32.1390 C   0  0  0  0  0  0  0  0  0  0  0  0
   37.6220   25.3950   32.4870 C   0  0  0  0  0  0  0  0  0  0  0  0
   37.4670   26.0900   31.2910 C   0  0  0  0  0  0  0  0  0  0  0  0
   37.0430   27.4930   31.0860 C   0  0  0  0  0  0  0  0  0  0  0  0
   36.9760   28.4330   32.1160 C   0  0  0  0  0  0  0  0  0  0  0  0
   36.5470   29.5810   31.5130 N   0  0  0  0  0  0  0  0  0  0  0  0
   36.3810   29.3100   30.2220 C   0  0  0  0  0  0  0  0  0  0  0  0
   36.6690   28.0470   29.9050 N   0  0  0  0  0  0  0  0  0  0  0  0
   36.0462   20.4541   36.0597 H   0  0  0  0  0  0  0  0  0  0  0  0
   34.6511   19.5382   34.2121 H   0  0  0  0  0  0  0  0  0  0  0  0
   34.9804   20.4074   31.8808 H   0  0  0  0  0  0  0  0  0  0  0  0
   36.6599   22.1374   31.4463 H   0  0  0  0  0  0  0  0  0  0  0  0
   41.0513   22.1913   36.9551 H   0  0  0  0  0  0  0  0  0  0  0  0
   40.0571   23.5589   38.8279 H   0  0  0  0  0  0  0  0  0  0  0  0
   37.5851   24.0843   38.7321 H   0  0  0  0  0  0  0  0  0  0  0  0
   37.7617   25.4554   29.3213 H   0  0  0  0  0  0  0  0  0  0  0  0
   37.4511   25.7818   33.5025 H   0  0  0  0  0  0  0  0  0  0  0  0
   37.2158   28.2823   33.1789 H   0  0  0  0  0  0  0  0  0  0  0  0
   36.0397   30.0544   29.4875 H   0  0  0  0  0  0  0  0  0  0  0  0
   36.6192   27.5971   28.9798 H   0  0  0  0  0  0  0  0  0  0  0  0
  1  2  2  0
  1 11  1  0
  3  2  1  0
  4  3  2  0
  5  4  1  0
  5  6  2  0
  6  1  1  0
  7  8  2  0
  9  8  1  0
 10  9  2  0
 11 12  2  0
 11 10  1  0
 12  7  1  0
 13  6  1  0
 14 15  1  0
 14 18  1  0
 15 16  2  0
 16 17  1  0
 16 13  1  0
 18 17  2  0
 19 18  1  0
 19 20  2  0
 21 20  1  0
 22 21  2  0
 23 22  1  0
 23 19  1  0
  2 24  1  0
  3 25  1  0
  4 26  1  0
  5 27  1  0
  7 28  1  0
  8 29  1  0
  9 30  1  0
 14 31  1  0
 17 32  1  0
 20 33  1  0
 22 34  1  0
 23 35  1  0
M  ISO  8  24  14  25  14  26  14  27  14  28  14  29  14  30  14  31   9
M  ISO  4  32  14  33  14  34  14  35   9
M  END
>  <minimizedAffinity>  (1) 
-5.63465881

>  <minimizedRMSD>  (1) 
2.68648601

$$$$
