
     RDKit          3D

 41 44  0  0  0  0  0  0  0  0999 V2000
   37.1390   21.8210   34.7510 C   0  0  0  0  0  0  0  0  0  0  0  0
   36.1930   20.8510   35.0120 C   0  0  0  0  0  0  0  0  0  0  0  0
   35.4280   20.3490   33.9810 C   0  0  0  0  0  0  0  0  0  0  0  0
   35.6260   20.8360   32.6840 C   0  0  0  0  0  0  0  0  0  0  0  0
   36.5700   21.7970   32.4590 C   0  0  0  0  0  0  0  0  0  0  0  0
   37.3560   22.3200   33.4820 C   0  0  0  0  0  0  0  0  0  0  0  0
   39.9750   22.4480   36.9650 C   0  0  0  0  0  0  0  0  0  0  0  0
   39.4230   23.2050   38.0160 C   0  0  0  0  0  0  0  0  0  0  0  0
   38.0610   23.4950   37.9480 C   0  0  0  0  0  0  0  0  0  0  0  0
   37.3680   23.0350   36.8900 N   0  0  0  0  0  0  0  0  0  0  0  0
   37.9150   22.3090   35.8920 C   0  0  0  0  0  0  0  0  0  0  0  0
   39.2370   22.0150   35.9360 N   0  0  0  0  0  0  0  0  0  0  0  0
   38.2880   23.2740   33.2320 O   0  0  0  0  0  0  0  0  0  0  0  0
   37.7190   25.6250   30.6510 N   0  0  0  0  0  0  0  0  0  0  0  0
   38.2020   24.4560   30.9600 N   0  0  0  0  0  0  0  0  0  0  0  0
   38.0240   24.2550   32.2830 C   0  0  0  0  0  0  0  0  0  0  0  0
   37.3910   25.3900   32.7900 C   0  0  0  0  0  0  0  0  0  0  0  0
   37.2110   26.2470   31.7150 C   0  0  0  0  0  0  0  0  0  0  0  0
   36.6170   27.5410   31.6700 N   0  0  0  0  0  0  0  0  0  0  0  0
   36.5050   28.2080   30.4100 C   0  0  0  0  0  0  0  0  0  0  0  0
   36.3780   29.6990   30.7540 C   0  0  0  0  0  0  0  0  0  0  0  0
   35.2830   29.9860   31.5260 O   0  0  0  0  0  0  0  0  0  0  0  0
   34.8830   28.9720   32.3600 C   0  0  0  0  0  0  0  0  0  0  0  0
   36.1160   28.2200   32.8510 C   0  0  0  0  0  0  0  0  0  0  0  0
   36.0500   20.4802   36.0377 H   0  0  0  0  0  0  0  0  0  0  0  0
   34.6710   19.5749   34.1754 H   0  0  0  0  0  0  0  0  0  0  0  0
   35.0241   20.4466   31.8497 H   0  0  0  0  0  0  0  0  0  0  0  0
   36.7141   22.1705   31.4344 H   0  0  0  0  0  0  0  0  0  0  0  0
   41.0474   22.2046   36.9905 H   0  0  0  0  0  0  0  0  0  0  0  0
   40.0412   23.5534   38.8565 H   0  0  0  0  0  0  0  0  0  0  0  0
   37.5673   24.0826   38.7360 H   0  0  0  0  0  0  0  0  0  0  0  0
   37.7283   26.0210   29.7002 H   0  0  0  0  0  0  0  0  0  0  0  0
   37.0940   25.5693   33.8339 H   0  0  0  0  0  0  0  0  0  0  0  0
   35.6138   27.8600   29.8672 H   0  0  0  0  0  0  0  0  0  0  0  0
   37.3700   28.0080   29.7605 H   0  0  0  0  0  0  0  0  0  0  0  0
   37.2811   30.0095   31.2999 H   0  0  0  0  0  0  0  0  0  0  0  0
   36.2593   30.2431   29.8054 H   0  0  0  0  0  0  0  0  0  0  0  0
   34.3409   29.3931   33.2195 H   0  0  0  0  0  0  0  0  0  0  0  0
   34.2184   28.2836   31.8173 H   0  0  0  0  0  0  0  0  0  0  0  0
   35.8444   27.4943   33.6317 H   0  0  0  0  0  0  0  0  0  0  0  0
   36.8648   28.8891   33.3000 H   0  0  0  0  0  0  0  0  0  0  0  0
  1  2  2  0
  1 11  1  0
  3  2  1  0
  4  3  2  0
  5  4  1  0
  5  6  2  0
  6  1  1  0
  7  8  2  0
  9  8  1  0
 10  9  2  0
 11 12  2  0
 11 10  1  0
 12  7  1  0
 13  6  1  0
 14 15  1  0
 14 18  1  0
 15 16  2  0
 16 17  1  0
 16 13  1  0
 18 17  2  0
 19 18  1  0
 19 24  1  0
 20 21  1  0
 20 19  1  0
 21 22  1  0
 22 23  1  0
 23 24  1  0
  2 25  1  0
  3 26  1  0
  4 27  1  0
  5 28  1  0
  7 29  1  0
  8 30  1  0
  9 31  1  0
 14 32  1  0
 17 33  1  0
 20 34  1  0
 20 35  1  0
 21 36  1  0
 21 37  1  0
 23 38  1  0
 23 39  1  0
 24 40  1  0
 24 41  1  0
M  ISO  8  25  14  26  14  27  14  28  14  29  14  30  14  31  14  32   9
M  ISO  8  33  14  34  13  35  13  36  13  37  13  38  13  39  13  40  13
M  ISO  1  41  13
M  END
>  <minimizedAffinity>  (1) 
-5.6248951

>  <minimizedRMSD>  (1) 
2.51976395

$$$$
