
     RDKit          3D

 35 38  0  0  0  0  0  0  0  0999 V2000
   37.2240   21.9130   34.7290 C   0  0  0  0  0  0  0  0  0  0  0  0
   36.2560   20.9460   34.9190 C   0  0  0  0  0  0  0  0  0  0  0  0
   35.5180   20.4870   33.8550 C   0  0  0  0  0  0  0  0  0  0  0  0
   35.7580   21.0070   32.5920 C   0  0  0  0  0  0  0  0  0  0  0  0
   36.7240   21.9660   32.4290 C   0  0  0  0  0  0  0  0  0  0  0  0
   37.4870   22.4490   33.4890 C   0  0  0  0  0  0  0  0  0  0  0  0
   40.0040   22.4130   37.0420 C   0  0  0  0  0  0  0  0  0  0  0  0
   39.4450   23.1680   38.0840 C   0  0  0  0  0  0  0  0  0  0  0  0
   38.0900   23.5120   37.9890 C   0  0  0  0  0  0  0  0  0  0  0  0
   37.4340   23.0830   36.8950 N   0  0  0  0  0  0  0  0  0  0  0  0
   37.9740   22.3580   35.9000 C   0  0  0  0  0  0  0  0  0  0  0  0
   39.2840   22.0220   35.9850 N   0  0  0  0  0  0  0  0  0  0  0  0
   38.4330   23.4000   33.2840 O   0  0  0  0  0  0  0  0  0  0  0  0
   37.6390   26.3460   31.5170 N   0  0  0  0  0  0  0  0  0  0  0  0
   38.1680   25.1700   31.4470 N   0  0  0  0  0  0  0  0  0  0  0  0
   38.0820   24.5960   32.6720 C   0  0  0  0  0  0  0  0  0  0  0  0
   37.4510   25.5170   33.5210 C   0  0  0  0  0  0  0  0  0  0  0  0
   37.1810   26.6330   32.7410 C   0  0  0  0  0  0  0  0  0  0  0  0
   36.5400   27.8990   33.0790 C   0  0  0  0  0  0  0  0  0  0  0  0
   36.3640   28.2830   34.4090 C   0  0  0  0  0  0  0  0  0  0  0  0
   35.7320   29.5200   34.4150 C   0  0  0  0  0  0  0  0  0  0  0  0
   35.5620   29.8120   33.0580 C   0  0  0  0  0  0  0  0  0  0  0  0
   36.0520   28.8320   32.3360 O   0  0  0  0  0  0  0  0  0  0  0  0
   36.0754   20.5420   35.9260 H   0  0  0  0  0  0  0  0  0  0  0  0
   34.7466   19.7169   34.0030 H   0  0  0  0  0  0  0  0  0  0  0  0
   35.1776   20.6526   31.7274 H   0  0  0  0  0  0  0  0  0  0  0  0
   36.9034   22.3697   31.4216 H   0  0  0  0  0  0  0  0  0  0  0  0
   41.0667   22.1342   37.0960 H   0  0  0  0  0  0  0  0  0  0  0  0
   40.0508   23.4798   38.9476 H   0  0  0  0  0  0  0  0  0  0  0  0
   37.5878   24.1029   38.7692 H   0  0  0  0  0  0  0  0  0  0  0  0
   37.5765   26.9926   30.7177 H   0  0  0  0  0  0  0  0  0  0  0  0
   37.2177   25.3824   34.5875 H   0  0  0  0  0  0  0  0  0  0  0  0
   36.6712   27.7083   35.2952 H   0  0  0  0  0  0  0  0  0  0  0  0
   35.4351   30.1270   35.2830 H   0  0  0  0  0  0  0  0  0  0  0  0
   35.0907   30.7219   32.6580 H   0  0  0  0  0  0  0  0  0  0  0  0
  1  2  2  0
  1 11  1  0
  3  2  1  0
  4  3  2  0
  5  4  1  0
  5  6  2  0
  6  1  1  0
  7  8  2  0
  9  8  1  0
 10  9  2  0
 11 12  2  0
 11 10  1  0
 12  7  1  0
 13  6  1  0
 14 18  1  0
 15 14  1  0
 15 16  2  0
 16 13  1  0
 16 17  1  0
 18 19  1  0
 18 17  2  0
 19 20  2  0
 20 21  1  0
 22 21  2  0
 23 22  1  0
 23 19  1  0
  2 24  1  0
  3 25  1  0
  4 26  1  0
  5 27  1  0
  7 28  1  0
  8 29  1  0
  9 30  1  0
 14 31  1  0
 17 32  1  0
 20 33  1  0
 21 34  1  0
 22 35  1  0
M  ISO  8  24  14  25  14  26  14  27  14  28  14  29  14  30  14  31   9
M  ISO  4  32  14  33  14  34  14  35  14
M  END
>  <minimizedAffinity>  (1) 
-5.60884237

>  <minimizedRMSD>  (1) 
1.47486591

$$$$
