
     RDKit          3D

 41 44  0  0  0  0  0  0  0  0999 V2000
   37.0800   21.7590   34.5080 C   0  0  0  0  0  0  0  0  0  0  0  0
   36.1300   20.7970   34.7510 C   0  0  0  0  0  0  0  0  0  0  0  0
   35.3520   20.3020   33.7180 C   0  0  0  0  0  0  0  0  0  0  0  0
   35.5550   20.7990   32.4340 C   0  0  0  0  0  0  0  0  0  0  0  0
   36.5020   21.7540   32.2120 C   0  0  0  0  0  0  0  0  0  0  0  0
   37.2990   22.2690   33.2360 C   0  0  0  0  0  0  0  0  0  0  0  0
   39.9410   22.3650   36.6940 C   0  0  0  0  0  0  0  0  0  0  0  0
   39.3920   23.1190   37.7600 C   0  0  0  0  0  0  0  0  0  0  0  0
   38.0350   23.4090   37.7090 C   0  0  0  0  0  0  0  0  0  0  0  0
   37.3240   22.9590   36.6570 N   0  0  0  0  0  0  0  0  0  0  0  0
   37.8640   22.2360   35.6380 C   0  0  0  0  0  0  0  0  0  0  0  0
   39.1900   21.9420   35.6690 N   0  0  0  0  0  0  0  0  0  0  0  0
   38.2430   23.2250   32.9950 O   0  0  0  0  0  0  0  0  0  0  0  0
   37.3470   25.9090   30.9020 N   0  0  0  0  0  0  0  0  0  0  0  0
   37.5060   24.6270   30.9810 N   0  0  0  0  0  0  0  0  0  0  0  0
   37.9060   24.3360   32.2420 C   0  0  0  0  0  0  0  0  0  0  0  0
   37.9890   25.5380   32.9550 C   0  0  0  0  0  0  0  0  0  0  0  0
   37.6180   26.5430   32.0480 C   0  0  0  0  0  0  0  0  0  0  0  0
   37.5000   28.0200   32.1740 C   0  0  0  0  0  0  0  0  0  0  0  0
   37.2940   28.6850   30.8350 C   0  0  0  0  0  0  0  0  0  0  0  0
   36.0060   29.4390   30.8720 C   0  0  0  0  0  0  0  0  0  0  0  0
   35.3150   29.0010   32.1220 C   0  0  0  0  0  0  0  0  0  0  0  0
   36.3570   28.4110   33.0480 C   0  0  0  0  0  0  0  0  0  0  0  0
   35.9863   20.4172   35.7733 H   0  0  0  0  0  0  0  0  0  0  0  0
   34.5896   19.5322   33.9082 H   0  0  0  0  0  0  0  0  0  0  0  0
   34.9502   20.4205   31.5968 H   0  0  0  0  0  0  0  0  0  0  0  0
   36.6433   22.1326   31.1889 H   0  0  0  0  0  0  0  0  0  0  0  0
   41.0133   22.1202   36.7084 H   0  0  0  0  0  0  0  0  0  0  0  0
   40.0175   23.4621   38.5973 H   0  0  0  0  0  0  0  0  0  0  0  0
   37.5526   23.9916   38.5077 H   0  0  0  0  0  0  0  0  0  0  0  0
   37.0429   26.3916   30.0444 H   0  0  0  0  0  0  0  0  0  0  0  0
   38.2836   25.6678   34.0068 H   0  0  0  0  0  0  0  0  0  0  0  0
   38.4490   28.3545   32.6185 H   0  0  0  0  0  0  0  0  0  0  0  0
   37.2541   27.9215   30.0441 H   0  0  0  0  0  0  0  0  0  0  0  0
   38.1265   29.3724   30.6243 H   0  0  0  0  0  0  0  0  0  0  0  0
   36.1966   30.5220   30.8988 H   0  0  0  0  0  0  0  0  0  0  0  0
   35.3942   29.2402   29.9797 H   0  0  0  0  0  0  0  0  0  0  0  0
   34.8324   29.8639   32.6041 H   0  0  0  0  0  0  0  0  0  0  0  0
   34.5416   28.2539   31.8903 H   0  0  0  0  0  0  0  0  0  0  0  0
   35.9530   27.5298   33.5678 H   0  0  0  0  0  0  0  0  0  0  0  0
   36.6654   29.1295   33.8217 H   0  0  0  0  0  0  0  0  0  0  0  0
  1  2  2  0
  1 11  1  0
  3  2  1  0
  4  3  2  0
  5  4  1  0
  5  6  2  0
  6  1  1  0
  7  8  2  0
  9  8  1  0
 10  9  2  0
 11 12  2  0
 11 10  1  0
 12  7  1  0
 13  6  1  0
 14 15  1  0
 14 18  1  0
 15 16  2  0
 16 17  1  0
 16 13  1  0
 18 19  1  0
 18 17  2  0
 19 23  1  0
 20 21  1  0
 20 19  1  0
 21 22  1  0
 22 23  1  0
  2 24  1  0
  3 25  1  0
  4 26  1  0
  5 27  1  0
  7 28  1  0
  8 29  1  0
  9 30  1  0
 14 31  1  0
 17 32  1  0
 19 33  1  0
 20 34  1  0
 20 35  1  0
 21 36  1  0
 21 37  1  0
 22 38  1  0
 22 39  1  0
 23 40  1  0
 23 41  1  0
M  ISO  8  24  14  25  14  26  14  27  14  28  14  29  14  30  14  31   9
M  ISO  8  32  14  33  13  34  13  35  13  36  13  37  13  38  13  39  13
M  ISO  2  40  13  41  13
M  END
>  <minimizedAffinity>  (1) 
-5.57065868

>  <minimizedRMSD>  (1) 
1.79658842

$$$$
