
     RDKit          3D

 35 38  0  0  0  0  0  0  0  0999 V2000
   37.0790   21.8120   34.5150 C   0  0  0  0  0  0  0  0  0  0  0  0
   36.1680   20.7930   34.7270 C   0  0  0  0  0  0  0  0  0  0  0  0
   35.3900   20.3130   33.7120 C   0  0  0  0  0  0  0  0  0  0  0  0
   35.5380   20.8800   32.4380 C   0  0  0  0  0  0  0  0  0  0  0  0
   36.4460   21.8900   32.2420 C   0  0  0  0  0  0  0  0  0  0  0  0
   37.2380   22.3820   33.2730 C   0  0  0  0  0  0  0  0  0  0  0  0
   39.9350   22.3490   36.7220 C   0  0  0  0  0  0  0  0  0  0  0  0
   39.4050   23.0970   37.7850 C   0  0  0  0  0  0  0  0  0  0  0  0
   38.0480   23.4170   37.7360 C   0  0  0  0  0  0  0  0  0  0  0  0
   37.3520   22.9810   36.6690 N   0  0  0  0  0  0  0  0  0  0  0  0
   37.8690   22.2660   35.6560 C   0  0  0  0  0  0  0  0  0  0  0  0
   39.1850   21.9480   35.6920 N   0  0  0  0  0  0  0  0  0  0  0  0
   38.1310   23.3890   33.0430 O   0  0  0  0  0  0  0  0  0  0  0  0
   37.6070   25.5240   30.2780 N   0  0  0  0  0  0  0  0  0  0  0  0
   38.0400   24.3770   30.6830 N   0  0  0  0  0  0  0  0  0  0  0  0
   37.8860   24.3000   32.0190 C   0  0  0  0  0  0  0  0  0  0  0  0
   37.3140   25.5050   32.4460 C   0  0  0  0  0  0  0  0  0  0  0  0
   37.1440   26.2840   31.2850 C   0  0  0  0  0  0  0  0  0  0  0  0
   36.5870   27.6130   31.2180 N   0  0  0  0  0  0  0  0  0  0  0  0
   35.7690   27.8770   32.2220 N   0  0  0  0  0  0  0  0  0  0  0  0
   35.2890   29.1250   32.0970 C   0  0  0  0  0  0  0  0  0  0  0  0
   35.8630   29.6430   30.9350 C   0  0  0  0  0  0  0  0  0  0  0  0
   36.6890   28.6640   30.3870 C   0  0  0  0  0  0  0  0  0  0  0  0
   36.0680   20.3604   35.7334 H   0  0  0  0  0  0  0  0  0  0  0  0
   34.6668   19.5034   33.8892 H   0  0  0  0  0  0  0  0  0  0  0  0
   34.9279   20.5161   31.5981 H   0  0  0  0  0  0  0  0  0  0  0  0
   36.5505   22.3242   31.2368 H   0  0  0  0  0  0  0  0  0  0  0  0
   41.0026   22.0845   36.7377 H   0  0  0  0  0  0  0  0  0  0  0  0
   40.0366   23.4191   38.6260 H   0  0  0  0  0  0  0  0  0  0  0  0
   37.5672   24.0006   38.5349 H   0  0  0  0  0  0  0  0  0  0  0  0
   37.6155   25.8233   29.2925 H   0  0  0  0  0  0  0  0  0  0  0  0
   37.0514   25.7855   33.4767 H   0  0  0  0  0  0  0  0  0  0  0  0
   34.5866   29.6350   32.7727 H   0  0  0  0  0  0  0  0  0  0  0  0
   35.6929   30.6489   30.5236 H   0  0  0  0  0  0  0  0  0  0  0  0
   37.2943   28.7359   29.4713 H   0  0  0  0  0  0  0  0  0  0  0  0
  1  2  2  0
  1 11  1  0
  3  2  1  0
  4  3  2  0
  5  4  1  0
  5  6  2  0
  6  1  1  0
  7  8  2  0
  9  8  1  0
 10  9  2  0
 11 12  2  0
 11 10  1  0
 12  7  1  0
 13  6  1  0
 14 15  1  0
 14 18  1  0
 15 16  2  0
 16 17  1  0
 16 13  1  0
 18 17  2  0
 19 18  1  0
 19 20  1  0
 21 20  2  0
 22 21  1  0
 23 22  2  0
 23 19  1  0
  2 24  1  0
  3 25  1  0
  4 26  1  0
  5 27  1  0
  7 28  1  0
  8 29  1  0
  9 30  1  0
 14 31  1  0
 17 32  1  0
 21 33  1  0
 22 34  1  0
 23 35  1  0
M  ISO  8  24  14  25  14  26  14  27  14  28  14  29  14  30  14  31   9
M  ISO  4  32  14  33  14  34  14  35  14
M  END
>  <minimizedAffinity>  (1) 
-5.50519276

>  <minimizedRMSD>  (1) 
2.5328548

$$$$
