
     RDKit          3D

 28 30  0  0  0  0  0  0  0  0999 V2000
   41.9840   21.5110   34.2340 S   0  0  0  0  0  0  0  0  0  0  0  0
   40.3830   22.3970   37.7700 C   0  0  0  0  0  0  0  0  0  0  0  0
   39.2390   23.1280   37.4460 C   0  0  0  0  0  0  0  0  0  0  0  0
   38.9780   23.3380   36.1110 C   0  0  0  0  0  0  0  0  0  0  0  0
   39.8210   22.8400   35.1730 N   0  0  0  0  0  0  0  0  0  0  0  0
   40.9290   22.1310   35.5330 C   0  0  0  0  0  0  0  0  0  0  0  0
   41.1820   21.9270   36.8130 N   0  0  0  0  0  0  0  0  0  0  0  0
   38.3130   23.6760   38.4800 C   0  0  0  0  0  0  0  0  0  0  0  0
   39.0650   23.9340   39.6160 F   0  0  0  0  0  0  0  0  0  0  0  0
   37.2910   22.8480   38.7860 F   0  0  0  0  0  0  0  0  0  0  0  0
   37.8790   24.9780   38.0980 F   0  0  0  0  0  0  0  0  0  0  0  0
   43.6440   22.1720   34.4190 C   0  0  0  0  0  0  0  0  0  0  0  0
   44.6100   21.7730   33.4770 C   0  0  0  0  0  0  0  0  0  0  0  0
   46.1390   22.6960   34.0660 S   0  0  0  0  0  0  0  0  0  0  0  0
   45.1440   23.4310   35.4720 C   0  0  0  0  0  0  0  0  0  0  0  0
   44.1520   22.9820   35.2880 N   0  0  0  0  0  0  0  0  0  0  0  0
   45.7510   24.3600   36.4590 C   0  0  0  0  0  0  0  0  0  0  0  0
   45.0180   24.8590   37.5040 C   0  0  0  0  0  0  0  0  0  0  0  0
   45.6520   25.7150   38.3780 C   0  0  0  0  0  0  0  0  0  0  0  0
   46.9490   26.0590   38.2230 N   0  0  0  0  0  0  0  0  0  0  0  0
   47.6170   25.5400   37.1800 C   0  0  0  0  0  0  0  0  0  0  0  0
   47.0450   24.7020   36.3010 N   0  0  0  0  0  0  0  0  0  0  0  0
   40.6273   22.2071   38.8256 H   0  0  0  0  0  0  0  0  0  0  0  0
   38.0881   23.9082   35.8059 H   0  0  0  0  0  0  0  0  0  0  0  0
   44.4994   21.0956   32.6174 H   0  0  0  0  0  0  0  0  0  0  0  0
   43.9612   24.5859   37.6402 H   0  0  0  0  0  0  0  0  0  0  0  0
   45.0863   26.1297   39.2254 H   0  0  0  0  0  0  0  0  0  0  0  0
   48.6737   25.8121   37.0406 H   0  0  0  0  0  0  0  0  0  0  0  0
  1 12  1  0
  1  6  1  0
  3  2  2  0
  3  8  1  0
  4  3  1  0
  5  6  1  0
  5  4  2  0
  6  7  2  0
  7  2  1  0
  8 10  1  0
  8  9  1  0
 11  8  1  0
 12 16  1  0
 13 14  1  0
 13 12  2  0
 14 15  1  0
 15 17  1  0
 16 15  2  0
 17 18  2  0
 18 19  1  0
 20 19  2  0
 21 20  1  0
 22 17  1  0
 22 21  2  0
  2 23  1  0
  4 24  1  0
 13 25  1  0
 18 26  1  0
 19 27  1  0
 21 28  1  0
M  ISO  6  23  14  24  14  25  14  26  14  27  14  28  14
M  END
>  <minimizedAffinity>  (1) 
-4.88732147

>  <minimizedRMSD>  (1) 
3.70000434

$$$$
