
     RDKit          3D

 41 44  0  0  0  0  0  0  0  0999 V2000
   37.4600   26.1380   30.8350 N   0  0  0  0  0  0  0  0  0  0  0  0
   37.9620   24.9630   30.5850 N   0  0  0  0  0  0  0  0  0  0  0  0
   37.8550   24.2290   31.6940 C   0  0  0  0  0  0  0  0  0  0  0  0
   37.2470   25.0160   32.6500 C   0  0  0  0  0  0  0  0  0  0  0  0
   36.9960   26.2540   32.0930 C   0  0  0  0  0  0  0  0  0  0  0  0
   36.3960   27.4280   32.6820 C   0  0  0  0  0  0  0  0  0  0  0  0
   35.4110   28.0950   31.9740 C   0  0  0  0  0  0  0  0  0  0  0  0
   34.7620   29.2020   32.4840 C   0  0  0  0  0  0  0  0  0  0  0  0
   35.1560   29.6010   33.7460 C   0  0  0  0  0  0  0  0  0  0  0  0
   36.1430   28.9370   34.4550 C   0  0  0  0  0  0  0  0  0  0  0  0
   36.7830   27.8340   33.9300 C   0  0  0  0  0  0  0  0  0  0  0  0
   37.7810   27.3070   34.8770 C   0  0  0  0  0  0  0  0  0  0  0  0
   37.9190   28.1860   36.0050 F   0  0  0  0  0  0  0  0  0  0  0  0
   39.0620   27.2360   34.4600 F   0  0  0  0  0  0  0  0  0  0  0  0
   37.3020   26.1920   35.5980 F   0  0  0  0  0  0  0  0  0  0  0  0
   38.1890   22.9350   32.1170 O   0  0  0  0  0  0  0  0  0  0  0  0
   37.0380   21.6260   33.7590 C   0  0  0  0  0  0  0  0  0  0  0  0
   36.0320   20.7380   34.0940 C   0  0  0  0  0  0  0  0  0  0  0  0
   35.1730   20.2680   33.1290 C   0  0  0  0  0  0  0  0  0  0  0  0
   35.3390   20.7100   31.7930 C   0  0  0  0  0  0  0  0  0  0  0  0
   36.3470   21.5920   31.4960 C   0  0  0  0  0  0  0  0  0  0  0  0
   37.2120   22.0670   32.4590 C   0  0  0  0  0  0  0  0  0  0  0  0
   40.0500   22.3050   35.6800 C   0  0  0  0  0  0  0  0  0  0  0  0
   39.5660   22.9340   36.8470 C   0  0  0  0  0  0  0  0  0  0  0  0
   38.2030   23.1150   36.9580 C   0  0  0  0  0  0  0  0  0  0  0  0
   37.4170   22.6820   35.9480 N   0  0  0  0  0  0  0  0  0  0  0  0
   37.9110   22.0780   34.8330 C   0  0  0  0  0  0  0  0  0  0  0  0
   39.2390   21.8910   34.7030 N   0  0  0  0  0  0  0  0  0  0  0  0
   37.4219   26.8993   30.1423 H   0  0  0  0  0  0  0  0  0  0  0  0
   37.0042   24.7100   33.6783 H   0  0  0  0  0  0  0  0  0  0  0  0
   35.1364   27.7314   30.9728 H   0  0  0  0  0  0  0  0  0  0  0  0
   33.9804   29.7326   31.9205 H   0  0  0  0  0  0  0  0  0  0  0  0
   34.6697   30.4753   34.2033 H   0  0  0  0  0  0  0  0  0  0  0  0
   36.4220   29.2964   35.4565 H   0  0  0  0  0  0  0  0  0  0  0  0
   35.9187   20.4065   35.1367 H   0  0  0  0  0  0  0  0  0  0  0  0
   34.3711   19.5614   33.3894 H   0  0  0  0  0  0  0  0  0  0  0  0
   34.6659   20.3493   31.0013 H   0  0  0  0  0  0  0  0  0  0  0  0
   36.4690   21.9310   30.4567 H   0  0  0  0  0  0  0  0  0  0  0  0
   41.1336   22.1502   35.5713 H   0  0  0  0  0  0  0  0  0  0  0  0
   40.2513   23.2681   37.6399 H   0  0  0  0  0  0  0  0  0  0  0  0
   37.7678   23.5988   37.8449 H   0  0  0  0  0  0  0  0  0  0  0  0
  1  5  1  0
  2  1  1  0
  2  3  2  0
  3 16  1  0
  3  4  1  0
  5  4  2  0
  5  6  1  0
  6 11  2  0
  7  8  2  0
  7  6  1  0
  8  9  1  0
  9 10  2  0
 11 10  1  0
 11 12  1  0
 12 15  1  0
 12 13  1  0
 14 12  1  0
 16 22  1  0
 17 18  2  0
 17 27  1  0
 19 18  1  0
 20 19  2  0
 21 20  1  0
 21 22  2  0
 22 17  1  0
 23 24  2  0
 24 25  1  0
 26 25  2  0
 27 26  1  0
 28 27  2  0
 28 23  1  0
  1 29  1  0
  4 30  1  0
  7 31  1  0
  8 32  1  0
  9 33  1  0
 10 34  1  0
 18 35  1  0
 19 36  1  0
 20 37  1  0
 21 38  1  0
 23 39  1  0
 24 40  1  0
 25 41  1  0
M  ISO  8  29   9  30  14  31  14  32  14  33  14  34  14  35  14  36  14
M  ISO  5  37  14  38  14  39  14  40  14  41  14
M  END
>  <minimizedAffinity>  (1) 
-6.40095758

>  <minimizedRMSD>  (1) 
1.22007895

$$$$
