
     RDKit          3D

 47 50  0  0  0  0  0  0  0  0999 V2000
   38.8740   22.5170   33.2610 O   0  0  0  0  0  0  0  0  0  0  0  0
   37.2280   21.6020   34.7350 C   0  0  0  0  0  0  0  0  0  0  0  0
   36.0720   20.8660   34.9370 C   0  0  0  0  0  0  0  0  0  0  0  0
   35.4110   20.3110   33.8670 C   0  0  0  0  0  0  0  0  0  0  0  0
   35.9340   20.5060   32.5650 C   0  0  0  0  0  0  0  0  0  0  0  0
   37.0800   21.2400   32.4060 C   0  0  0  0  0  0  0  0  0  0  0  0
   37.7490   21.8010   33.4720 C   0  0  0  0  0  0  0  0  0  0  0  0
   39.8200   22.5980   37.0830 C   0  0  0  0  0  0  0  0  0  0  0  0
   39.1070   23.2060   38.1360 C   0  0  0  0  0  0  0  0  0  0  0  0
   37.7210   23.2630   38.0230 C   0  0  0  0  0  0  0  0  0  0  0  0
   37.1520   22.7370   36.9190 N   0  0  0  0  0  0  0  0  0  0  0  0
   37.8770   22.1530   35.9140 C   0  0  0  0  0  0  0  0  0  0  0  0
   39.2240   22.0880   36.0070 N   0  0  0  0  0  0  0  0  0  0  0  0
   38.8540   25.7610   31.8830 N   0  0  0  0  0  0  0  0  0  0  0  0
   39.3970   24.5790   31.8540 N   0  0  0  0  0  0  0  0  0  0  0  0
   38.7890   23.8250   32.7680 C   0  0  0  0  0  0  0  0  0  0  0  0
   37.8210   24.6080   33.3670 C   0  0  0  0  0  0  0  0  0  0  0  0
   37.8690   25.8610   32.7970 C   0  0  0  0  0  0  0  0  0  0  0  0
   37.0860   27.0440   33.0790 C   0  0  0  0  0  0  0  0  0  0  0  0
   36.1250   27.4490   32.1550 C   0  0  0  0  0  0  0  0  0  0  0  0
   35.2900   28.5110   32.3940 C   0  0  0  0  0  0  0  0  0  0  0  0
   35.4600   29.1550   33.6030 C   0  0  0  0  0  0  0  0  0  0  0  0
   36.4140   28.7680   34.5270 C   0  0  0  0  0  0  0  0  0  0  0  0
   37.2480   27.6960   34.2690 C   0  0  0  0  0  0  0  0  0  0  0  0
   38.2020   27.5020   35.3710 C   0  0  0  0  0  0  0  0  0  0  0  0
   39.5750   27.1940   34.8350 C   0  0  0  0  0  0  0  0  0  0  0  0
   37.8410   26.1970   36.1590 C   0  0  0  0  0  0  0  0  0  0  0  0
   35.6820   20.7253   35.9559 H   0  0  0  0  0  0  0  0  0  0  0  0
   34.4921   19.7258   34.0192 H   0  0  0  0  0  0  0  0  0  0  0  0
   35.4255   20.0728   31.6910 H   0  0  0  0  0  0  0  0  0  0  0  0
   37.4800   21.3866   31.3918 H   0  0  0  0  0  0  0  0  0  0  0  0
   40.9164   22.5424   37.1532 H   0  0  0  0  0  0  0  0  0  0  0  0
   39.6260   23.6195   39.0133 H   0  0  0  0  0  0  0  0  0  0  0  0
   37.1074   23.7237   38.8112 H   0  0  0  0  0  0  0  0  0  0  0  0
   39.1459   26.5375   31.2724 H   0  0  0  0  0  0  0  0  0  0  0  0
   37.1315   24.2865   34.1614 H   0  0  0  0  0  0  0  0  0  0  0  0
   36.0331   26.9010   31.2057 H   0  0  0  0  0  0  0  0  0  0  0  0
   34.5302   28.8303   31.6655 H   0  0  0  0  0  0  0  0  0  0  0  0
   34.8107   30.0104   33.8413 H   0  0  0  0  0  0  0  0  0  0  0  0
   36.5098   29.3178   35.4749 H   0  0  0  0  0  0  0  0  0  0  0  0
   38.1690   28.4175   35.9800 H   0  0  0  0  0  0  0  0  0  0  0  0
   40.2696   27.0382   35.6736 H   0  0  0  0  0  0  0  0  0  0  0  0
   39.5326   26.2830   34.2199 H   0  0  0  0  0  0  0  0  0  0  0  0
   39.9258   28.0358   34.2199 H   0  0  0  0  0  0  0  0  0  0  0  0
   37.8956   26.3943   37.2398 H   0  0  0  0  0  0  0  0  0  0  0  0
   36.8213   25.8796   35.8953 H   0  0  0  0  0  0  0  0  0  0  0  0
   38.5526   25.4007   35.8953 H   0  0  0  0  0  0  0  0  0  0  0  0
  1  7  1  0
  2  3  2  0
  2 12  1  0
  4  3  1  0
  5  4  2  0
  6  5  1  0
  6  7  2  0
  7  2  1  0
  8  9  2  0
 10  9  1  0
 11 10  2  0
 12 13  2  0
 12 11  1  0
 13  8  1  0
 14 18  1  0
 15 14  1  0
 15 16  2  0
 16  1  1  0
 16 17  1  0
 18 19  1  0
 18 17  2  0
 19 24  2  0
 20 21  2  0
 20 19  1  0
 21 22  1  0
 22 23  2  0
 24 23  1  0
 24 25  1  0
 25 27  1  0
 26 25  1  0
  3 28  1  0
  4 29  1  0
  5 30  1  0
  6 31  1  0
  8 32  1  0
  9 33  1  0
 10 34  1  0
 14 35  1  0
 17 36  1  0
 20 37  1  0
 21 38  1  0
 22 39  1  0
 23 40  1  0
 25 41  1  0
 26 42  1  0
 26 43  1  0
 26 44  1  0
 27 45  1  0
 27 46  1  0
 27 47  1  0
M  ISO  8  28  14  29  14  30  14  31  14  32  14  33  14  34  14  35   9
M  ISO  8  36  14  37  14  38  14  39  14  40  14  41   8  42   8  43   8
M  ISO  4  44   8  45   8  46   8  47   8
M  END
>  <minimizedAffinity>  (1) 
-6.39047098

>  <minimizedRMSD>  (1) 
1.14110744

$$$$
