
     RDKit          3D

 39 42  0  0  0  0  0  0  0  0999 V2000
   38.5810   23.2990   33.2490 O   0  0  0  0  0  0  0  0  0  0  0  0
   37.2820   21.9070   34.7010 C   0  0  0  0  0  0  0  0  0  0  0  0
   36.2630   20.9780   34.8990 C   0  0  0  0  0  0  0  0  0  0  0  0
   35.5290   20.5150   33.8390 C   0  0  0  0  0  0  0  0  0  0  0  0
   35.8370   21.0060   32.5580 C   0  0  0  0  0  0  0  0  0  0  0  0
   36.8480   21.9230   32.3930 C   0  0  0  0  0  0  0  0  0  0  0  0
   37.5980   22.3980   33.4630 C   0  0  0  0  0  0  0  0  0  0  0  0
   40.0140   22.4080   37.0650 C   0  0  0  0  0  0  0  0  0  0  0  0
   39.4200   23.1650   38.1010 C   0  0  0  0  0  0  0  0  0  0  0  0
   38.0810   23.4970   37.9730 C   0  0  0  0  0  0  0  0  0  0  0  0
   37.4290   23.0790   36.8750 N   0  0  0  0  0  0  0  0  0  0  0  0
   38.0160   22.3500   35.8870 C   0  0  0  0  0  0  0  0  0  0  0  0
   39.3230   22.0150   35.9930 N   0  0  0  0  0  0  0  0  0  0  0  0
   37.9410   26.3420   31.5820 N   0  0  0  0  0  0  0  0  0  0  0  0
   38.5550   25.2080   31.5400 N   0  0  0  0  0  0  0  0  0  0  0  0
   38.2620   24.5380   32.6730 C   0  0  0  0  0  0  0  0  0  0  0  0
   37.4060   25.3500   33.4400 C   0  0  0  0  0  0  0  0  0  0  0  0
   37.2200   26.5080   32.7050 C   0  0  0  0  0  0  0  0  0  0  0  0
   36.4230   27.6660   33.0540 C   0  0  0  0  0  0  0  0  0  0  0  0
   35.5090   28.1450   32.1490 C   0  0  0  0  0  0  0  0  0  0  0  0
   34.7220   29.2400   32.4170 C   0  0  0  0  0  0  0  0  0  0  0  0
   34.8900   29.8580   33.6670 C   0  0  0  0  0  0  0  0  0  0  0  0
   35.8220   29.3730   34.5950 C   0  0  0  0  0  0  0  0  0  0  0  0
   36.5910   28.2650   34.2740 C   0  0  0  0  0  0  0  0  0  0  0  0
   37.4640   27.8960   35.2740 O   0  0  0  0  0  0  0  0  0  0  0  0
   36.0461   20.6135   35.9140 H   0  0  0  0  0  0  0  0  0  0  0  0
   34.7228   19.7811   33.9857 H   0  0  0  0  0  0  0  0  0  0  0  0
   35.2672   20.6553   31.6849 H   0  0  0  0  0  0  0  0  0  0  0  0
   37.0708   22.2930   31.3813 H   0  0  0  0  0  0  0  0  0  0  0  0
   41.0766   22.1350   37.1449 H   0  0  0  0  0  0  0  0  0  0  0  0
   40.0019   23.4800   38.9797 H   0  0  0  0  0  0  0  0  0  0  0  0
   37.5669   24.0853   38.7473 H   0  0  0  0  0  0  0  0  0  0  0  0
   37.9972   27.0470   30.8332 H   0  0  0  0  0  0  0  0  0  0  0  0
   36.9731   25.1128   34.4230 H   0  0  0  0  0  0  0  0  0  0  0  0
   35.4029   27.6370   31.1791 H   0  0  0  0  0  0  0  0  0  0  0  0
   33.9926   29.6157   31.6844 H   0  0  0  0  0  0  0  0  0  0  0  0
   34.2801   30.7372   33.9220 H   0  0  0  0  0  0  0  0  0  0  0  0
   35.9422   29.8676   35.5701 H   0  0  0  0  0  0  0  0  0  0  0  0
   37.4949   28.4109   36.1190 H   0  0  0  0  0  0  0  0  0  0  0  0
  1  7  1  0
  2  3  2  0
  2 12  1  0
  4  3  1  0
  5  4  2  0
  6  5  1  0
  6  7  2  0
  7  2  1  0
  8  9  2  0
 10  9  1  0
 11 10  2  0
 12 13  2  0
 12 11  1  0
 13  8  1  0
 14 18  1  0
 15 14  1  0
 15 16  2  0
 16  1  1  0
 16 17  1  0
 18 19  1  0
 18 17  2  0
 19 24  2  0
 20 21  2  0
 20 19  1  0
 21 22  1  0
 22 23  2  0
 24 23  1  0
 24 25  1  0
  3 26  1  0
  4 27  1  0
  5 28  1  0
  6 29  1  0
  8 30  1  0
  9 31  1  0
 10 32  1  0
 14 33  1  0
 17 34  1  0
 20 35  1  0
 21 36  1  0
 22 37  1  0
 23 38  1  0
 25 39  1  0
M  ISO  8  26  14  27  14  28  14  29  14  30  14  31  14  32  14  33   9
M  ISO  6  34  14  35  14  36  14  37  14  38  14  39   3
M  END
>  <minimizedAffinity>  (1) 
-5.98739576

>  <minimizedRMSD>  (1) 
0.497527033

$$$$
