
     RDKit          3D

 45 49  0  0  0  0  0  0  0  0999 V2000
   38.2580   25.6030   30.0270 N   0  0  0  0  0  0  0  0  0  0  0  0
   38.6630   24.3720   29.9940 N   0  0  0  0  0  0  0  0  0  0  0  0
   38.3500   23.7990   31.1620 C   0  0  0  0  0  0  0  0  0  0  0  0
   37.7180   24.7630   31.9310 C   0  0  0  0  0  0  0  0  0  0  0  0
   37.6640   25.9230   31.1910 C   0  0  0  0  0  0  0  0  0  0  0  0
   37.1090   27.2110   31.5420 C   0  0  0  0  0  0  0  0  0  0  0  0
   36.4860   27.9570   30.5740 C   0  0  0  0  0  0  0  0  0  0  0  0
   35.9300   29.1910   30.8440 C   0  0  0  0  0  0  0  0  0  0  0  0
   36.0230   29.6580   32.1490 C   0  0  0  0  0  0  0  0  0  0  0  0
   36.6620   28.8910   33.1410 C   0  0  0  0  0  0  0  0  0  0  0  0
   37.2070   27.6610   32.8300 C   0  0  0  0  0  0  0  0  0  0  0  0
   37.7790   27.1470   34.0090 N   0  0  0  0  0  0  0  0  0  0  0  0
   37.1560   26.5730   35.0890 C   0  0  0  0  0  0  0  0  0  0  0  0
   38.2080   26.2990   35.9710 C   0  0  0  0  0  0  0  0  0  0  0  0
   39.3890   26.6810   35.4560 N   0  0  0  0  0  0  0  0  0  0  0  0
   39.1300   27.2050   34.2460 C   0  0  0  0  0  0  0  0  0  0  0  0
   38.4950   22.5440   31.7670 O   0  0  0  0  0  0  0  0  0  0  0  0
   37.1040   21.5510   33.4640 C   0  0  0  0  0  0  0  0  0  0  0  0
   35.9780   20.8450   33.8240 C   0  0  0  0  0  0  0  0  0  0  0  0
   35.0910   20.4130   32.8690 C   0  0  0  0  0  0  0  0  0  0  0  0
   35.3620   20.7090   31.5160 C   0  0  0  0  0  0  0  0  0  0  0  0
   36.4950   21.4150   31.1830 C   0  0  0  0  0  0  0  0  0  0  0  0
   37.3960   21.8540   32.1460 C   0  0  0  0  0  0  0  0  0  0  0  0
   40.1690   22.2750   35.2880 C   0  0  0  0  0  0  0  0  0  0  0  0
   39.7100   22.7670   36.5310 C   0  0  0  0  0  0  0  0  0  0  0  0
   38.3380   22.8420   36.7230 C   0  0  0  0  0  0  0  0  0  0  0  0
   37.5340   22.4430   35.7190 N   0  0  0  0  0  0  0  0  0  0  0  0
   38.0000   21.9730   34.5310 C   0  0  0  0  0  0  0  0  0  0  0  0
   39.3300   21.8920   34.3200 N   0  0  0  0  0  0  0  0  0  0  0  0
   38.3780   26.2645   29.2466 H   0  0  0  0  0  0  0  0  0  0  0  0
   37.3288   24.6260   32.9507 H   0  0  0  0  0  0  0  0  0  0  0  0
   36.4277   27.5591   29.5501 H   0  0  0  0  0  0  0  0  0  0  0  0
   35.4339   29.7801   30.0586 H   0  0  0  0  0  0  0  0  0  0  0  0
   35.5932   30.6365   32.4095 H   0  0  0  0  0  0  0  0  0  0  0  0
   36.7277   29.2736   34.1702 H   0  0  0  0  0  0  0  0  0  0  0  0
   36.0830   26.3750   35.2286 H   0  0  0  0  0  0  0  0  0  0  0  0
   38.0839   25.8311   36.9588 H   0  0  0  0  0  0  0  0  0  0  0  0
   39.8812   27.6153   33.5551 H   0  0  0  0  0  0  0  0  0  0  0  0
   35.7876   20.6254   34.8849 H   0  0  0  0  0  0  0  0  0  0  0  0
   34.1899   19.8492   33.1520 H   0  0  0  0  0  0  0  0  0  0  0  0
   34.6689   20.3760   30.7294 H   0  0  0  0  0  0  0  0  0  0  0  0
   36.6934   21.6384   30.1244 H   0  0  0  0  0  0  0  0  0  0  0  0
   41.2524   22.2049   35.1112 H   0  0  0  0  0  0  0  0  0  0  0  0
   40.4141   23.0787   37.3166 H   0  0  0  0  0  0  0  0  0  0  0  0
   37.9188   23.2167   37.6684 H   0  0  0  0  0  0  0  0  0  0  0  0
  1  5  1  0
  2  1  1  0
  2  3  2  0
  3 17  1  0
  3  4  1  0
  5  6  1  0
  5  4  2  0
  6 11  2  0
  7  8  2  0
  7  6  1  0
  8  9  1  0
  9 10  2  0
 11 10  1  0
 11 12  1  0
 12 16  1  0
 12 13  1  0
 13 14  2  0
 15 14  1  0
 16 15  2  0
 17 23  1  0
 18 19  2  0
 18 28  1  0
 20 19  1  0
 21 20  2  0
 22 21  1  0
 22 23  2  0
 23 18  1  0
 24 25  2  0
 25 26  1  0
 27 26  2  0
 28 27  1  0
 29 28  2  0
 29 24  1  0
  1 30  1  0
  4 31  1  0
  7 32  1  0
  8 33  1  0
  9 34  1  0
 10 35  1  0
 13 36  1  0
 14 37  1  0
 16 38  1  0
 19 39  1  0
 20 40  1  0
 21 41  1  0
 22 42  1  0
 24 43  1  0
 25 44  1  0
 26 45  1  0
M  ISO  8  30   9  31  14  32  14  33  14  34  14  35  14  36  14  37  14
M  ISO  8  38  14  39  14  40  14  41  14  42  14  43  14  44  14  45  14
M  END
>  <minimizedAffinity>  (1) 
-5.95045948

>  <minimizedRMSD>  (1) 
1.78387308

$$$$
