
     RDKit          3D

 36 39  0  0  1  0  0  0  0  0999 V2000
   39.1920   24.6530   34.4910 C   0  0  1  0  0  0  0  0  0  0  0  0
   40.5750   24.8680   33.9560 C   0  0  0  0  0  0  0  0  0  0  0  0
   41.4910   23.9880   34.7670 C   0  0  0  0  0  0  0  0  0  0  0  0
   40.6440   23.3130   35.7900 C   0  0  0  0  0  0  0  0  0  0  0  0
   39.4610   24.2310   35.9040 C   0  0  2  0  0  0  0  0  0  0  0  0
   38.2610   26.8520   35.3270 C   0  0  0  0  0  0  0  0  0  0  0  0
   38.3320   25.8360   34.3730 C   0  0  0  0  0  0  0  0  0  0  0  0
   37.5180   25.9610   33.2250 C   0  0  0  0  0  0  0  0  0  0  0  0
   36.7130   27.0510   33.1020 N   0  0  0  0  0  0  0  0  0  0  0  0
   36.6860   28.0070   34.0590 C   0  0  0  0  0  0  0  0  0  0  0  0
   37.4580   27.8910   35.1520 N   0  0  0  0  0  0  0  0  0  0  0  0
   38.4010   23.4440   36.4980 N   0  0  0  0  0  0  0  0  0  0  0  0
   38.0800   23.5010   37.8260 C   0  0  0  0  0  0  0  0  0  0  0  0
   37.0630   22.6640   38.1020 N   0  0  0  0  0  0  0  0  0  0  0  0
   36.6940   22.0450   36.9830 C   0  0  0  0  0  0  0  0  0  0  0  0
   35.7580   21.1070   36.5960 C   0  0  0  0  0  0  0  0  0  0  0  0
   35.6450   20.6710   35.3080 N   0  0  0  0  0  0  0  0  0  0  0  0
   36.4920   21.1880   34.3790 C   0  0  0  0  0  0  0  0  0  0  0  0
   37.3880   22.0870   34.7580 N   0  0  0  0  0  0  0  0  0  0  0  0
   37.5340   22.5420   36.0110 C   0  0  0  0  0  0  0  0  0  0  0  0
   34.8790   20.5830   37.6000 N   0  0  0  0  0  0  0  0  0  0  0  0
   38.6148   23.9060   33.9263 H   0  0  0  0  0  0  0  0  0  0  0  0
   40.6194   24.5856   32.8938 H   0  0  0  0  0  0  0  0  0  0  0  0
   40.8702   25.9250   34.0316 H   0  0  0  0  0  0  0  0  0  0  0  0
   41.9699   23.2398   34.1182 H   0  0  0  0  0  0  0  0  0  0  0  0
   42.2881   24.5789   35.2417 H   0  0  0  0  0  0  0  0  0  0  0  0
   40.3373   22.3121   35.4521 H   0  0  0  0  0  0  0  0  0  0  0  0
   41.1630   23.1520   36.7464 H   0  0  0  0  0  0  0  0  0  0  0  0
   39.5882   25.1276   36.5284 H   0  0  0  0  0  0  0  0  0  0  0  0
   38.8790   26.7894   36.2348 H   0  0  0  0  0  0  0  0  0  0  0  0
   37.5348   25.1884   32.4421 H   0  0  0  0  0  0  0  0  0  0  0  0
   36.0298   28.8820   33.9416 H   0  0  0  0  0  0  0  0  0  0  0  0
   38.5829   24.1416   38.5654 H   0  0  0  0  0  0  0  0  0  0  0  0
   36.4343   20.8649   33.3291 H   0  0  0  0  0  0  0  0  0  0  0  0
   34.1684   19.8816   37.3471 H   0  0  0  0  0  0  0  0  0  0  0  0
   34.9581   20.9080   38.5742 H   0  0  0  0  0  0  0  0  0  0  0  0
  1  5  1  0
  2  1  1  0
  2  3  1  0
  3  4  1  0
  4  5  1  0
  5 12  1  0
  7  1  1  0
  7  6  2  0
  8  7  1  0
  9  8  2  0
  9 10  1  0
 10 11  2  0
 11  6  1  0
 12 13  1  0
 13 14  2  0
 15 14  1  0
 16 15  2  0
 16 21  1  0
 17 16  1  0
 18 19  1  0
 18 17  2  0
 19 20  2  0
 20 12  1  0
 20 15  1  0
  1 22  1  6
  2 23  1  0
  2 24  1  0
  3 25  1  0
  3 26  1  0
  4 27  1  0
  4 28  1  0
  5 29  1  1
  6 30  1  0
  8 31  1  0
 10 32  1  0
 13 33  1  0
 18 34  1  0
 21 35  1  0
 21 36  1  0
M  ISO  8  22  13  23  13  24  13  25  13  26  13  27  13  28  13  29  13
M  ISO  5  30  14  31  14  32  14  33  14  34  14
M  END
>  <minimizedAffinity>  (1) 
-5.28397226

>  <minimizedRMSD>  (1) 
2.02699256

$$$$
