
     RDKit          3D

 31 33  0  0  1  0  0  0  0  0999 V2000
   39.1930   23.9690   35.1120 C   0  0  1  0  0  0  0  0  0  0  0  0
   40.6320   24.2190   35.4400 C   0  0  0  0  0  0  0  0  0  0  0  0
   41.0910   23.0190   36.2280 C   0  0  0  0  0  0  0  0  0  0  0  0
   39.9000   22.1370   36.3840 C   0  0  0  0  0  0  0  0  0  0  0  0
   38.7280   23.0960   36.2440 C   0  0  2  0  0  0  0  0  0  0  0  0
   37.7000   25.3850   33.7350 C   0  0  0  0  0  0  0  0  0  0  0  0
   38.4260   25.1940   34.9090 C   0  0  0  0  0  0  0  0  0  0  0  0
   38.4290   26.2040   35.8780 C   0  0  0  0  0  0  0  0  0  0  0  0
   37.7160   27.3390   35.6280 N   0  0  0  0  0  0  0  0  0  0  0  0
   37.0130   27.5070   34.4740 C   0  0  0  0  0  0  0  0  0  0  0  0
   37.0070   26.5260   33.5300 N   0  0  0  0  0  0  0  0  0  0  0  0
   37.6130   22.2510   35.7390 C   0  0  0  0  0  0  0  0  0  0  0  0
   37.6280   21.8840   34.4010 C   0  0  0  0  0  0  0  0  0  0  0  0
   36.5540   21.0940   33.9950 C   0  0  0  0  0  0  0  0  0  0  0  0
   35.5920   20.7360   34.8750 N   0  0  0  0  0  0  0  0  0  0  0  0
   35.6270   21.1230   36.1720 C   0  0  0  0  0  0  0  0  0  0  0  0
   36.6530   21.8930   36.6120 N   0  0  0  0  0  0  0  0  0  0  0  0
   39.0457   23.4731   34.1413 H   0  0  0  0  0  0  0  0  0  0  0  0
   41.2227   24.3197   34.5175 H   0  0  0  0  0  0  0  0  0  0  0  0
   40.7599   25.1502   36.0114 H   0  0  0  0  0  0  0  0  0  0  0  0
   41.8879   22.4896   35.6851 H   0  0  0  0  0  0  0  0  0  0  0  0
   41.4979   23.3161   37.2059 H   0  0  0  0  0  0  0  0  0  0  0  0
   39.8747   21.3677   35.5982 H   0  0  0  0  0  0  0  0  0  0  0  0
   39.8942   21.5893   37.3380 H   0  0  0  0  0  0  0  0  0  0  0  0
   38.4305   23.6525   37.1450 H   0  0  0  0  0  0  0  0  0  0  0  0
   37.6912   24.5978   32.9667 H   0  0  0  0  0  0  0  0  0  0  0  0
   38.9914   26.0853   36.8159 H   0  0  0  0  0  0  0  0  0  0  0  0
   36.4494   28.4363   34.3043 H   0  0  0  0  0  0  0  0  0  0  0  0
   38.4278   22.1934   33.7121 H   0  0  0  0  0  0  0  0  0  0  0  0
   36.4884   20.7588   32.9494 H   0  0  0  0  0  0  0  0  0  0  0  0
   34.8291   20.8151   36.8638 H   0  0  0  0  0  0  0  0  0  0  0  0
  1  2  1  0
  1  5  1  0
  2  3  1  0
  3  4  1  0
  5  4  1  0
  6  7  2  0
  7  1  1  0
  7  8  1  0
  9  8  2  0
 10  9  1  0
 11  6  1  0
 11 10  2  0
 12  5  1  0
 12 17  1  0
 13 12  2  0
 14 13  1  0
 14 15  2  0
 15 16  1  0
 16 17  2  0
  1 18  1  6
  2 19  1  0
  2 20  1  0
  3 21  1  0
  3 22  1  0
  4 23  1  0
  4 24  1  0
  5 25  1  1
  6 26  1  0
  8 27  1  0
 10 28  1  0
 13 29  1  0
 14 30  1  0
 16 31  1  0
M  ISO  8  18  13  19  13  20  13  21  13  22  13  23  13  24  13  25  13
M  ISO  6  26  14  27  14  28  14  29  14  30  14  31  14
M  END
>  <minimizedAffinity>  (1) 
-4.40245533

>  <minimizedRMSD>  (1) 
2.22438145

$$$$
