
     RDKit          3D

 30 31  0  0  1  0  0  0  0  0999 V2000
   40.1160   23.4710   35.6870 C   0  0  1  0  0  0  0  0  0  0  0  0
   41.6040   23.4900   35.5300 C   0  0  0  0  0  0  0  0  0  0  0  0
   42.1490   22.5540   36.5870 C   0  0  0  0  0  0  0  0  0  0  0  0
   40.9890   22.1380   37.4310 C   0  0  0  0  0  0  0  0  0  0  0  0
   39.9460   23.1860   37.1660 C   0  0  2  0  0  0  0  0  0  0  0  0
   38.1200   24.8390   34.9580 C   0  0  0  0  0  0  0  0  0  0  0  0
   39.4750   24.7250   35.2630 C   0  0  0  0  0  0  0  0  0  0  0  0
   40.2610   25.9030   35.1360 C   0  0  0  0  0  0  0  0  0  0  0  0
   39.6510   27.0360   34.7340 N   0  0  0  0  0  0  0  0  0  0  0  0
   38.3420   27.1040   34.4500 C   0  0  0  0  0  0  0  0  0  0  0  0
   37.5990   25.9930   34.5690 N   0  0  0  0  0  0  0  0  0  0  0  0
   38.6650   22.4790   37.3460 N   0  0  0  0  0  0  0  0  0  0  0  0
   37.7970   23.0680   38.3110 C   0  0  0  0  0  0  0  0  0  0  0  0
   37.9300   24.3300   38.6020 N   0  0  0  0  0  0  0  0  0  0  0  0
   36.7930   22.2900   38.9530 N   0  0  0  0  0  0  0  0  0  0  0  0
   37.2940   24.7480   39.3060 H   0  0  0  0  0  0  0  0  0  0  0  0
   39.6243   22.7250   35.0454 H   0  0  0  0  0  0  0  0  0  0  0  0
   41.8866   23.1389   34.5266 H   0  0  0  0  0  0  0  0  0  0  0  0
   42.0076   24.5066   35.6464 H   0  0  0  0  0  0  0  0  0  0  0  0
   42.6084   21.6738   36.1135 H   0  0  0  0  0  0  0  0  0  0  0  0
   42.9221   23.0488   37.1931 H   0  0  0  0  0  0  0  0  0  0  0  0
   40.6268   21.1430   37.1331 H   0  0  0  0  0  0  0  0  0  0  0  0
   41.2492   22.0626   38.4971 H   0  0  0  0  0  0  0  0  0  0  0  0
   40.0032   24.0925   37.7865 H   0  0  0  0  0  0  0  0  0  0  0  0
   37.4713   23.9546   35.0418 H   0  0  0  0  0  0  0  0  0  0  0  0
   41.3379   25.8902   35.3598 H   0  0  0  0  0  0  0  0  0  0  0  0
   37.8866   28.0515   34.1260 H   0  0  0  0  0  0  0  0  0  0  0  0
   38.4177   21.6298   36.8182 H   0  0  0  0  0  0  0  0  0  0  0  0
   36.1708   22.7252   39.6490 H   0  0  0  0  0  0  0  0  0  0  0  0
   36.6886   21.2918   38.7217 H   0  0  0  0  0  0  0  0  0  0  0  0
  1  5  1  0
  2  1  1  0
  2  3  1  0
  3  4  1  0
  5 12  1  0
  5  4  1  0
  6  7  2  0
  7  1  1  0
  8  7  1  0
  9  8  2  0
 10 11  2  0
 10  9  1  0
 11  6  1  0
 12 13  1  0
 13 14  2  0
 13 15  1  0
 14 16  1  0
  1 17  1  6
  2 18  1  0
  2 19  1  0
  3 20  1  0
  3 21  1  0
  4 22  1  0
  4 23  1  0
  5 24  1  1
  6 25  1  0
  8 26  1  0
 10 27  1  0
 12 28  1  0
 15 29  1  0
 15 30  1  0
M  ISO  8  17  13  18  13  19  13  20  13  21  13  22  13  23  13  24  13
M  ISO  3  25  14  26  14  27  14
M  END
>  <minimizedAffinity>  (1) 
-4.3626523

>  <minimizedRMSD>  (1) 
0.570006609

$$$$
