
     RDKit          3D

 30 32  0  0  1  0  0  0  0  0999 V2000
   38.7710   24.8520   33.6960 C   0  0  1  0  0  0  0  0  0  0  0  0
   39.2030   26.0310   32.8630 C   0  0  0  0  0  0  0  0  0  0  0  0
   39.7100   27.0620   33.8320 C   0  0  0  0  0  0  0  0  0  0  0  0
   39.4550   26.5300   35.2070 C   0  0  0  0  0  0  0  0  0  0  0  0
   38.3570   25.5120   34.9820 C   0  0  2  0  0  0  0  0  0  0  0  0
   37.5860   22.6830   33.2570 C   0  0  0  0  0  0  0  0  0  0  0  0
   37.7220   24.0570   33.0650 C   0  0  0  0  0  0  0  0  0  0  0  0
   36.7890   24.6960   32.2040 C   0  0  0  0  0  0  0  0  0  0  0  0
   35.8220   23.9490   31.6160 N   0  0  0  0  0  0  0  0  0  0  0  0
   35.7340   22.6100   31.8380 C   0  0  0  0  0  0  0  0  0  0  0  0
   36.6110   21.9980   32.6480 N   0  0  0  0  0  0  0  0  0  0  0  0
   38.4880   24.5630   36.0730 N   0  0  0  0  0  0  0  0  0  0  0  0
   39.5700   23.7810   36.2350 N   0  0  0  0  0  0  0  0  0  0  0  0
   39.3390   23.0360   37.3310 C   0  0  0  0  0  0  0  0  0  0  0  0
   38.1050   23.3270   37.8920 C   0  0  0  0  0  0  0  0  0  0  0  0
   37.5930   24.3080   37.0580 C   0  0  0  0  0  0  0  0  0  0  0  0
   39.5589   24.0982   33.8406 H   0  0  0  0  0  0  0  0  0  0  0  0
   40.0022   25.7349   32.1676 H   0  0  0  0  0  0  0  0  0  0  0  0
   38.3716   26.4222   32.2582 H   0  0  0  0  0  0  0  0  0  0  0  0
   40.7878   27.2233   33.6829 H   0  0  0  0  0  0  0  0  0  0  0  0
   39.2015   28.0259   33.6826 H   0  0  0  0  0  0  0  0  0  0  0  0
   40.3566   26.0539   35.6199 H   0  0  0  0  0  0  0  0  0  0  0  0
   39.1786   27.3122   35.9293 H   0  0  0  0  0  0  0  0  0  0  0  0
   37.3313   25.9072   34.9399 H   0  0  0  0  0  0  0  0  0  0  0  0
   38.2893   22.1550   33.9177 H   0  0  0  0  0  0  0  0  0  0  0  0
   36.8503   25.7784   32.0177 H   0  0  0  0  0  0  0  0  0  0  0  0
   34.9395   22.0258   31.3508 H   0  0  0  0  0  0  0  0  0  0  0  0
   40.0409   22.2898   37.7317 H   0  0  0  0  0  0  0  0  0  0  0  0
   37.6424   22.8844   38.7865 H   0  0  0  0  0  0  0  0  0  0  0  0
   36.6167   24.8007   37.1765 H   0  0  0  0  0  0  0  0  0  0  0  0
  1  5  1  0
  2  1  1  0
  2  3  1  0
  3  4  1  0
  5  4  1  0
  5 12  1  0
  7  6  2  0
  7  1  1  0
  8  7  1  0
  9 10  1  0
  9  8  2  0
 10 11  2  0
 11  6  1  0
 12 13  1  0
 12 16  1  0
 13 14  2  0
 14 15  1  0
 16 15  2  0
  1 17  1  1
  2 18  1  0
  2 19  1  0
  3 20  1  0
  3 21  1  0
  4 22  1  0
  4 23  1  0
  5 24  1  6
  6 25  1  0
  8 26  1  0
 10 27  1  0
 14 28  1  0
 15 29  1  0
 16 30  1  0
M  ISO  8  17  13  18  13  19  13  20  13  21  13  22  13  23  13  24  13
M  ISO  6  25  14  26  14  27  14  28  14  29  14  30  14
M  END
>  <minimizedAffinity>  (1) 
-4.2926302

>  <minimizedRMSD>  (1) 
4.34769344

$$$$
