
     RDKit          3D

 30 32  0  0  0  0  0  0  0  0999 V2000
   43.6940   21.8520   34.5940 C   0  0  0  0  0  0  0  0  0  0  0  0
   44.2200   23.0960   34.2240 C   0  0  0  0  0  0  0  0  0  0  0  0
   46.0010   22.9740   34.8160 S   0  0  0  0  0  0  0  0  0  0  0  0
   45.6680   21.2450   35.4490 C   0  0  0  0  0  0  0  0  0  0  0  0
   44.6040   21.1230   35.1800 N   0  0  0  0  0  0  0  0  0  0  0  0
   46.7020   20.4100   36.1180 C   0  0  0  0  0  0  0  0  0  0  0  0
   46.3840   19.1140   36.3820 C   0  0  0  0  0  0  0  0  0  0  0  0
   47.3590   18.3590   37.0030 C   0  0  0  0  0  0  0  0  0  0  0  0
   48.5760   18.9270   37.3210 C   0  0  0  0  0  0  0  0  0  0  0  0
   48.8820   20.2340   37.0480 C   0  0  0  0  0  0  0  0  0  0  0  0
   47.9070   20.9980   36.4250 C   0  0  0  0  0  0  0  0  0  0  0  0
   41.9680   21.5210   34.2120 S   0  0  0  0  0  0  0  0  0  0  0  0
   40.4360   22.4430   37.7700 C   0  0  0  0  0  0  0  0  0  0  0  0
   39.2620   23.1420   37.4580 C   0  0  0  0  0  0  0  0  0  0  0  0
   38.9650   23.3160   36.1240 C   0  0  0  0  0  0  0  0  0  0  0  0
   39.8060   22.8110   35.1700 N   0  0  0  0  0  0  0  0  0  0  0  0
   40.9310   22.1420   35.5190 C   0  0  0  0  0  0  0  0  0  0  0  0
   41.2190   21.9740   36.7970 N   0  0  0  0  0  0  0  0  0  0  0  0
   38.3490   23.6890   38.4940 C   0  0  0  0  0  0  0  0  0  0  0  0
   39.1160   23.9250   39.6400 F   0  0  0  0  0  0  0  0  0  0  0  0
   37.3290   22.8630   38.8110 F   0  0  0  0  0  0  0  0  0  0  0  0
   37.9230   24.9850   38.1370 F   0  0  0  0  0  0  0  0  0  0  0  0
   43.7185   23.9327   33.7158 H   0  0  0  0  0  0  0  0  0  0  0  0
   45.4042   18.6909   36.1155 H   0  0  0  0  0  0  0  0  0  0  0  0
   47.1656   17.3034   37.2446 H   0  0  0  0  0  0  0  0  0  0  0  0
   49.3341   18.3022   37.8158 H   0  0  0  0  0  0  0  0  0  0  0  0
   49.8611   20.6600   37.3122 H   0  0  0  0  0  0  0  0  0  0  0  0
   48.0936   22.0542   36.1809 H   0  0  0  0  0  0  0  0  0  0  0  0
   40.7131   22.2803   38.8220 H   0  0  0  0  0  0  0  0  0  0  0  0
   38.0555   23.8587   35.8270 H   0  0  0  0  0  0  0  0  0  0  0  0
  1  5  1  0
  2  1  2  0
  2  3  1  0
  3  4  1  0
  4  6  1  0
  5  4  2  0
  6  7  2  0
  6 11  1  0
  7  8  1  0
  8  9  2  0
 10  9  1  0
 11 10  2  0
 12  1  1  0
 12 17  1  0
 14 13  2  0
 14 19  1  0
 15 14  1  0
 16 17  1  0
 16 15  2  0
 17 18  2  0
 18 13  1  0
 19 21  1  0
 19 20  1  0
 22 19  1  0
  2 23  1  0
  7 24  1  0
  8 25  1  0
  9 26  1  0
 10 27  1  0
 11 28  1  0
 13 29  1  0
 15 30  1  0
M  ISO  8  23  14  24  14  25  14  26  14  27  14  28  14  29  14  30  14
M  END
>  <minimizedAffinity>  (1) 
-4.2790122

>  <minimizedRMSD>  (1) 
3.47660017

$$$$
