
     RDKit          3D

 37 40  0  0  1  0  0  0  0  0999 V2000
   39.5710   24.0480   36.1330 C   0  0  1  0  0  0  0  0  0  0  0  0
   39.1100   22.6450   35.9520 C   0  0  0  0  0  0  0  0  0  0  0  0
   40.2560   21.7780   36.4550 C   0  0  0  0  0  0  0  0  0  0  0  0
   41.3520   22.7080   36.8620 C   0  0  0  0  0  0  0  0  0  0  0  0
   41.0630   23.9400   36.0710 C   0  0  1  0  0  0  0  0  0  0  0  0
   41.6350   23.9690   34.7530 N   0  0  0  0  0  0  0  0  0  0  0  0
   41.4390   23.1450   33.7040 C   0  0  0  0  0  0  0  0  0  0  0  0
   42.1650   23.5080   32.6300 N   0  0  0  0  0  0  0  0  0  0  0  0
   42.8680   24.5990   32.9530 C   0  0  0  0  0  0  0  0  0  0  0  0
   43.7610   25.4200   32.3220 C   0  0  0  0  0  0  0  0  0  0  0  0
   44.0720   25.1860   31.1440 O   0  0  0  0  0  0  0  0  0  0  0  0
   44.3380   26.4930   32.9150 N   0  0  0  0  0  0  0  0  0  0  0  0
   43.9870   26.7280   34.1910 C   0  0  0  0  0  0  0  0  0  0  0  0
   44.5550   27.8370   34.8720 N   0  0  0  0  0  0  0  0  0  0  0  0
   43.1150   25.9380   34.8300 N   0  0  0  0  0  0  0  0  0  0  0  0
   42.5340   24.8720   34.2590 C   0  0  0  0  0  0  0  0  0  0  0  0
   39.2650   26.3760   35.2130 C   0  0  0  0  0  0  0  0  0  0  0  0
   38.9920   25.0080   35.1790 C   0  0  0  0  0  0  0  0  0  0  0  0
   38.1080   24.5130   34.1810 C   0  0  0  0  0  0  0  0  0  0  0  0
   37.5720   25.3900   33.3100 N   0  0  0  0  0  0  0  0  0  0  0  0
   37.8570   26.7180   33.3660 C   0  0  0  0  0  0  0  0  0  0  0  0
   38.6920   27.1790   34.3110 N   0  0  0  0  0  0  0  0  0  0  0  0
   39.2262   24.4746   37.0864 H   0  0  0  0  0  0  0  0  0  0  0  0
   38.1994   22.4596   36.5406 H   0  0  0  0  0  0  0  0  0  0  0  0
   38.8606   22.4272   34.9030 H   0  0  0  0  0  0  0  0  0  0  0  0
   39.9278   21.1787   37.3171 H   0  0  0  0  0  0  0  0  0  0  0  0
   40.5974   21.0820   35.6746 H   0  0  0  0  0  0  0  0  0  0  0  0
   41.3140   22.9143   37.9418 H   0  0  0  0  0  0  0  0  0  0  0  0
   42.3563   22.3002   36.6749 H   0  0  0  0  0  0  0  0  0  0  0  0
   41.5545   24.8301   36.4907 H   0  0  0  0  0  0  0  0  0  0  0  0
   40.7640   22.2767   33.7235 H   0  0  0  0  0  0  0  0  0  0  0  0
   45.0082   27.0950   32.4158 H   0  0  0  0  0  0  0  0  0  0  0  0
   44.2951   28.0290   35.8500 H   0  0  0  0  0  0  0  0  0  0  0  0
   45.2269   28.4495   34.3880 H   0  0  0  0  0  0  0  0  0  0  0  0
   39.9441   26.7889   35.9735 H   0  0  0  0  0  0  0  0  0  0  0  0
   37.8679   23.4412   34.1217 H   0  0  0  0  0  0  0  0  0  0  0  0
   37.4059   27.4113   32.6409 H   0  0  0  0  0  0  0  0  0  0  0  0
  2  1  1  0
  2  3  1  0
  3  4  1  0
  5  1  1  0
  5  4  1  0
  6  5  1  0
  7  6  1  0
  8  9  1  0
  8  7  2  0
  9 16  2  0
 10 12  1  0
 10  9  1  0
 11 10  2  0
 12 13  1  0
 13 15  2  0
 13 14  1  0
 16  6  1  0
 16 15  1  0
 18 17  2  0
 18  1  1  0
 19 18  1  0
 20 21  1  0
 20 19  2  0
 21 22  2  0
 22 17  1  0
  1 23  1  1
  2 24  1  0
  2 25  1  0
  3 26  1  0
  3 27  1  0
  4 28  1  0
  4 29  1  0
  5 30  1  1
  7 31  1  0
 12 32  1  0
 14 33  1  0
 14 34  1  0
 17 35  1  0
 19 36  1  0
 21 37  1  0
M  ISO  8  23  13  24  13  25  13  26  13  27  13  28  13  29  13  30  13
M  ISO  5  31  14  32   9  35  14  36  14  37  14
M  END
>  <minimizedAffinity>  (1) 
-4.08045864

>  <minimizedRMSD>  (1) 
5.51715469

$$$$
