
     RDKit          3D

 26 28  0  0  0  0  0  0  0  0999 V2000
   40.4600   22.4350   37.7880 C   0  0  0  0  0  0  0  0  0  0  0  0
   39.2790   23.1270   37.4520 C   0  0  0  0  0  0  0  0  0  0  0  0
   38.9890   23.2730   36.1050 C   0  0  0  0  0  0  0  0  0  0  0  0
   39.8330   22.7560   35.1640 N   0  0  0  0  0  0  0  0  0  0  0  0
   40.9680   22.0920   35.5490 C   0  0  0  0  0  0  0  0  0  0  0  0
   41.2610   21.9440   36.8410 N   0  0  0  0  0  0  0  0  0  0  0  0
   38.3510   23.6960   38.4670 C   0  0  0  0  0  0  0  0  0  0  0  0
   39.1020   23.9340   39.6070 F   0  0  0  0  0  0  0  0  0  0  0  0
   37.3190   22.8710   38.7770 F   0  0  0  0  0  0  0  0  0  0  0  0
   37.9310   24.9850   38.0760 F   0  0  0  0  0  0  0  0  0  0  0  0
   42.0030   21.4550   34.2520 S   0  0  0  0  0  0  0  0  0  0  0  0
   43.7230   21.6980   34.6650 C   0  0  0  0  0  0  0  0  0  0  0  0
   44.3100   22.9290   34.3380 C   0  0  0  0  0  0  0  0  0  0  0  0
   46.0810   22.7440   34.9420 S   0  0  0  0  0  0  0  0  0  0  0  0
   45.6680   20.9940   35.5340 C   0  0  0  0  0  0  0  0  0  0  0  0
   44.6030   20.9170   35.2470 N   0  0  0  0  0  0  0  0  0  0  0  0
   46.5620   20.0500   36.1870 N   0  0  0  0  0  0  0  0  0  0  0  0
   46.3020   18.7810   36.5420 C   0  0  0  0  0  0  0  0  0  0  0  0
   47.3870   18.2400   37.1210 N   0  0  0  0  0  0  0  0  0  0  0  0
   48.3310   19.1710   37.1280 C   0  0  0  0  0  0  0  0  0  0  0  0
   47.8280   20.2870   36.5540 N   0  0  0  0  0  0  0  0  0  0  0  0
   40.7251   22.2978   38.8467 H   0  0  0  0  0  0  0  0  0  0  0  0
   38.0784   23.8057   35.7934 H   0  0  0  0  0  0  0  0  0  0  0  0
   43.8452   23.7959   33.8456 H   0  0  0  0  0  0  0  0  0  0  0  0
   45.3449   18.2627   36.3827 H   0  0  0  0  0  0  0  0  0  0  0  0
   49.3479   19.0554   37.5312 H   0  0  0  0  0  0  0  0  0  0  0  0
  2  1  2  0
  2  7  1  0
  3  2  1  0
  4  5  1  0
  4  3  2  0
  5  6  2  0
  6  1  1  0
  7  9  1  0
  7  8  1  0
 10  7  1  0
 11 12  1  0
 11  5  1  0
 12 16  1  0
 13 12  2  0
 13 14  1  0
 14 15  1  0
 15 17  1  0
 16 15  2  0
 17 18  1  0
 17 21  1  0
 18 19  2  0
 19 20  1  0
 21 20  2  0
  1 22  1  0
  3 23  1  0
 13 24  1  0
 18 25  1  0
 20 26  1  0
M  ISO  5  22  14  23  14  24  14  25  14  26  14
M  END
>  <minimizedAffinity>  (1) 
-4.24819803

>  <minimizedRMSD>  (1) 
3.25357771

$$$$
