
     RDKit          3D

 25 26  0  0  1  0  0  0  0  0999 V2000
   40.5840   23.0780   35.7690 C   0  0  1  0  0  0  0  0  0  0  0  0
   42.0250   23.4280   35.9130 C   0  0  0  0  0  0  0  0  0  0  0  0
   42.6500   22.3020   36.7310 C   0  0  0  0  0  0  0  0  0  0  0  0
   41.5480   21.3040   36.9640 C   0  0  0  0  0  0  0  0  0  0  0  0
   40.3340   22.1920   36.9750 C   0  0  1  0  0  0  0  0  0  0  0  0
   38.3250   24.1880   36.0550 C   0  0  0  0  0  0  0  0  0  0  0  0
   39.6790   24.2380   35.7160 C   0  0  0  0  0  0  0  0  0  0  0  0
   40.2050   25.4710   35.2870 C   0  0  0  0  0  0  0  0  0  0  0  0
   39.3890   26.5550   35.2180 N   0  0  0  0  0  0  0  0  0  0  0  0
   38.0750   26.4650   35.5590 C   0  0  0  0  0  0  0  0  0  0  0  0
   37.5840   25.2820   35.9670 N   0  0  0  0  0  0  0  0  0  0  0  0
   40.1220   22.9270   38.1750 N   0  0  0  0  0  0  0  0  0  0  0  0
   40.3732   22.5852   34.8084 H   0  0  0  0  0  0  0  0  0  0  0  0
   42.5033   23.4936   34.9246 H   0  0  0  0  0  0  0  0  0  0  0  0
   42.1562   24.4038   36.4035 H   0  0  0  0  0  0  0  0  0  0  0  0
   43.4765   21.8369   36.1737 H   0  0  0  0  0  0  0  0  0  0  0  0
   43.0669   22.6734   37.6788 H   0  0  0  0  0  0  0  0  0  0  0  0
   41.4973   20.5647   36.1510 H   0  0  0  0  0  0  0  0  0  0  0  0
   41.6726   20.7046   37.8779 H   0  0  0  0  0  0  0  0  0  0  0  0
   39.3999   21.6130   36.9284 H   0  0  0  0  0  0  0  0  0  0  0  0
   37.8756   23.2430   36.3940 H   0  0  0  0  0  0  0  0  0  0  0  0
   41.2662   25.5561   35.0103 H   0  0  0  0  0  0  0  0  0  0  0  0
   37.4228   27.3489   35.5016 H   0  0  0  0  0  0  0  0  0  0  0  0
   40.2978   22.3175   38.9865 H   0  0  0  0  0  0  0  0  0  0  0  0
   40.7654   23.7308   38.2035 H   0  0  0  0  0  0  0  0  0  0  0  0
  1  2  1  0
  1  5  1  0
  2  3  1  0
  3  4  1  0
  4  5  1  0
  5 12  1  0
  7  1  1  0
  7  6  2  0
  8  7  1  0
  9  8  2  0
  9 10  1  0
 10 11  2  0
 11  6  1  0
  1 13  1  6
  2 14  1  0
  2 15  1  0
  3 16  1  0
  3 17  1  0
  4 18  1  0
  4 19  1  0
  5 20  1  6
  6 21  1  0
  8 22  1  0
 10 23  1  0
 12 24  1  0
 12 25  1  0
M  ISO  8  13  13  14  13  15  13  16  13  17  13  18  13  19  13  20  13
M  ISO  5  21  14  22  14  23  14  24   5  25   5
M  END
>  <minimizedAffinity>  (1) 
-3.55069327

>  <minimizedRMSD>  (1) 
0.701847613

$$$$
