
     RDKit          3D

 33 35  0  0  0  0  0  0  0  0999 V2000
   43.7240   22.0330   34.4950 C   0  0  0  0  0  0  0  0  0  0  0  0
   44.0900   23.2620   33.9200 C   0  0  0  0  0  0  0  0  0  0  0  0
   45.8960   23.4070   34.4410 S   0  0  0  0  0  0  0  0  0  0  0  0
   45.7730   21.7650   35.3300 C   0  0  0  0  0  0  0  0  0  0  0  0
   44.7180   21.5030   35.1260 N   0  0  0  0  0  0  0  0  0  0  0  0
   49.0410   19.9770   37.3720 C   0  0  0  0  0  0  0  0  0  0  0  0
   49.0260   21.3140   37.1340 C   0  0  0  0  0  0  0  0  0  0  0  0
   47.9770   21.9490   36.4670 C   0  0  0  0  0  0  0  0  0  0  0  0
   46.9240   21.1890   36.0410 C   0  0  0  0  0  0  0  0  0  0  0  0
   46.9530   19.8130   36.2920 C   0  0  0  0  0  0  0  0  0  0  0  0
   47.9920   19.1890   36.9510 C   0  0  0  0  0  0  0  0  0  0  0  0
   50.4210   19.3550   38.2110 S   0  0  0  0  0  0  0  0  0  0  0  0
   51.1150   20.4200   39.0070 O   0  0  0  0  0  0  0  0  0  0  0  0
   49.9680   18.2020   39.0550 O   0  0  0  0  0  0  0  0  0  0  0  0
   42.0320   21.4790   34.2440 S   0  0  0  0  0  0  0  0  0  0  0  0
   40.4580   22.4280   37.7880 C   0  0  0  0  0  0  0  0  0  0  0  0
   39.2910   23.1230   37.4560 C   0  0  0  0  0  0  0  0  0  0  0  0
   39.0130   23.2860   36.1170 C   0  0  0  0  0  0  0  0  0  0  0  0
   39.8650   22.7740   35.1830 N   0  0  0  0  0  0  0  0  0  0  0  0
   40.9890   22.1050   35.5540 C   0  0  0  0  0  0  0  0  0  0  0  0
   41.2580   21.9480   36.8390 N   0  0  0  0  0  0  0  0  0  0  0  0
   38.3550   23.6840   38.4670 C   0  0  0  0  0  0  0  0  0  0  0  0
   39.0970   23.9350   39.6100 F   0  0  0  0  0  0  0  0  0  0  0  0
   37.3230   22.8630   38.7680 F   0  0  0  0  0  0  0  0  0  0  0  0
   37.9310   24.9850   38.0760 F   0  0  0  0  0  0  0  0  0  0  0  0
   43.4820   23.9572   33.3225 H   0  0  0  0  0  0  0  0  0  0  0  0
   49.8751   21.9212   37.4810 H   0  0  0  0  0  0  0  0  0  0  0  0
   47.9974   23.0343   36.2887 H   0  0  0  0  0  0  0  0  0  0  0  0
   46.1073   19.1996   35.9476 H   0  0  0  0  0  0  0  0  0  0  0  0
   47.9833   18.1043   37.1333 H   0  0  0  0  0  0  0  0  0  0  0  0
   51.3582   18.9131   37.3148 H   0  0  0  0  0  0  0  0  0  0  0  0
   40.7179   22.2762   38.8460 H   0  0  0  0  0  0  0  0  0  0  0  0
   38.1081   23.8265   35.8023 H   0  0  0  0  0  0  0  0  0  0  0  0
  1  5  1  0
  2  3  1  0
  2  1  2  0
  3  4  1  0
  4  9  1  0
  5  4  2  0
  6 12  1  0
  7  6  2  0
  8  7  1  0
  9 10  1  0
  9  8  2  0
 10 11  2  0
 11  6  1  0
 12 13  2  0
 12 14  2  0
 15  1  1  0
 15 20  1  0
 17 16  2  0
 17 22  1  0
 18 17  1  0
 19 20  1  0
 19 18  2  0
 20 21  2  0
 21 16  1  0
 22 24  1  0
 22 23  1  0
 25 22  1  0
  2 26  1  0
  7 27  1  0
  8 28  1  0
 10 29  1  0
 11 30  1  0
 12 31  1  0
 16 32  1  0
 18 33  1  0
M  ISO  8  26  14  27  14  28  14  29  14  30  14  31  11  32  14  33  14
M  END
>  <minimizedAffinity>  (1) 
-4.17804909

>  <minimizedRMSD>  (1) 
4.45249128

$$$$
