
     RDKit          3D

 43 46  0  0  1  0  0  0  0  0999 V2000
   39.3770   22.9820   37.0060 C   0  0  1  0  0  0  0  0  0  0  0  0
   39.1780   23.2090   38.5000 C   0  0  0  0  0  0  0  0  0  0  0  0
   37.9630   24.0850   38.6160 C   0  0  0  0  0  0  0  0  0  0  0  0
   37.4920   24.3310   37.2190 C   0  0  0  0  0  0  0  0  0  0  0  0
   38.8070   24.2200   36.4340 C   0  0  2  0  0  0  0  0  0  0  0  0
   38.4110   24.0350   35.0330 C   0  0  0  0  0  0  0  0  0  0  0  0
   38.0310   22.7470   34.6210 C   0  0  0  0  0  0  0  0  0  0  0  0
   37.6490   23.0320   32.8710 S   0  0  0  0  0  0  0  0  0  0  0  0
   38.0690   24.8610   32.9820 C   0  0  0  0  0  0  0  0  0  0  0  0
   38.4110   25.0370   34.1820 N   0  0  0  0  0  0  0  0  0  0  0  0
   37.9410   25.6940   31.7690 N   0  0  0  0  0  0  0  0  0  0  0  0
   36.7050   26.3430   31.4890 C   0  0  0  0  0  0  0  0  0  0  0  0
   36.9290   27.5540   30.6090 C   0  0  0  0  0  0  0  0  0  0  0  0
   38.3260   27.8600   30.4090 N   0  0  0  0  0  0  0  0  0  0  0  0
   39.0880   26.7380   29.9090 C   0  0  0  0  0  0  0  0  0  0  0  0
   39.1570   25.7050   31.0430 C   0  0  0  0  0  0  0  0  0  0  0  0
   41.4960   23.5920   35.8730 C   0  0  0  0  0  0  0  0  0  0  0  0
   40.7870   22.6870   36.6770 C   0  0  0  0  0  0  0  0  0  0  0  0
   41.4120   21.5330   37.1650 C   0  0  0  0  0  0  0  0  0  0  0  0
   42.7070   21.3490   36.8200 N   0  0  0  0  0  0  0  0  0  0  0  0
   43.3990   22.2270   36.0380 C   0  0  0  0  0  0  0  0  0  0  0  0
   42.7850   23.3580   35.5610 N   0  0  0  0  0  0  0  0  0  0  0  0
   38.8822   22.0932   36.5874 H   0  0  0  0  0  0  0  0  0  0  0  0
   39.0119   22.2515   39.0153 H   0  0  0  0  0  0  0  0  0  0  0  0
   40.0611   23.6737   38.9628 H   0  0  0  0  0  0  0  0  0  0  0  0
   37.1805   23.5766   39.1984 H   0  0  0  0  0  0  0  0  0  0  0  0
   38.1962   25.0278   39.1325 H   0  0  0  0  0  0  0  0  0  0  0  0
   36.7663   23.5689   36.8987 H   0  0  0  0  0  0  0  0  0  0  0  0
   36.9656   25.2872   37.0830 H   0  0  0  0  0  0  0  0  0  0  0  0
   39.5091   25.0651   36.4875 H   0  0  0  0  0  0  0  0  0  0  0  0
   37.9790   21.8153   35.2035 H   0  0  0  0  0  0  0  0  0  0  0  0
   36.0356   25.6393   30.9727 H   0  0  0  0  0  0  0  0  0  0  0  0
   36.2529   26.6709   32.4367 H   0  0  0  0  0  0  0  0  0  0  0  0
   36.4687   27.3637   29.6282 H   0  0  0  0  0  0  0  0  0  0  0  0
   36.4744   28.4169   31.1177 H   0  0  0  0  0  0  0  0  0  0  0  0
   38.3983   28.6328   29.7319 H   0  0  0  0  0  0  0  0  0  0  0  0
   38.5886   26.3029   29.0308 H   0  0  0  0  0  0  0  0  0  0  0  0
   40.0961   27.0526   29.6010 H   0  0  0  0  0  0  0  0  0  0  0  0
   39.3339   24.7071   30.6153 H   0  0  0  0  0  0  0  0  0  0  0  0
   39.9789   25.9730   31.7232 H   0  0  0  0  0  0  0  0  0  0  0  0
   40.9969   24.4967   35.4958 H   0  0  0  0  0  0  0  0  0  0  0  0
   40.8759   20.8109   37.7983 H   0  0  0  0  0  0  0  0  0  0  0  0
   44.4518   22.0279   35.7891 H   0  0  0  0  0  0  0  0  0  0  0  0
  1  2  1  0
  2  3  1  0
  4  3  1  0
  5  1  1  0
  5  4  1  0
  6  5  1  0
  7  6  2  0
  8  9  1  0
  8  7  1  0
  9 10  2  0
 10  6  1  0
 11  9  1  0
 12 11  1  0
 13 12  1  0
 14 13  1  0
 15 14  1  0
 15 16  1  0
 16 11  1  0
 17 18  2  0
 18  1  1  0
 18 19  1  0
 20 19  2  0
 21 20  1  0
 22 17  1  0
 22 21  2  0
  1 23  1  6
  2 24  1  0
  2 25  1  0
  3 26  1  0
  3 27  1  0
  4 28  1  0
  4 29  1  0
  5 30  1  6
  7 31  1  0
 12 32  1  0
 12 33  1  0
 13 34  1  0
 13 35  1  0
 14 36  1  0
 15 37  1  0
 15 38  1  0
 16 39  1  0
 16 40  1  0
 17 41  1  0
 19 42  1  0
 21 43  1  0
M  ISO  8  23  13  24  13  25  13  26  13  27  13  28  13  29  13  30  13
M  ISO  8  31  14  32  13  33  13  34  13  35  13  36   5  37  13  38  13
M  ISO  5  39  13  40  13  41  14  42  14  43  14
M  END
>  <minimizedAffinity>  (1) 
-5.38152647

>  <minimizedRMSD>  (1) 
1.44730306

$$$$
