
     RDKit          3D

 39 42  0  0  1  0  0  0  0  0999 V2000
   39.4030   23.0300   36.9990 C   0  0  1  0  0  0  0  0  0  0  0  0
   39.1050   23.1770   38.4880 C   0  0  0  0  0  0  0  0  0  0  0  0
   37.9320   24.1110   38.5710 C   0  0  0  0  0  0  0  0  0  0  0  0
   37.5880   24.4760   37.1650 C   0  0  0  0  0  0  0  0  0  0  0  0
   38.9530   24.3360   36.4700 C   0  0  2  0  0  0  0  0  0  0  0  0
   41.6120   23.5330   36.0140 C   0  0  0  0  0  0  0  0  0  0  0  0
   40.8020   22.6540   36.7490 C   0  0  0  0  0  0  0  0  0  0  0  0
   41.3350   21.4540   37.2350 C   0  0  0  0  0  0  0  0  0  0  0  0
   42.6310   21.2010   36.9640 N   0  0  0  0  0  0  0  0  0  0  0  0
   43.4220   22.0540   36.2490 C   0  0  0  0  0  0  0  0  0  0  0  0
   42.9020   23.2320   35.7710 N   0  0  0  0  0  0  0  0  0  0  0  0
   38.6450   24.2470   35.0350 C   0  0  0  0  0  0  0  0  0  0  0  0
   38.1140   23.0460   34.5370 C   0  0  0  0  0  0  0  0  0  0  0  0
   37.9170   23.4420   32.7820 S   0  0  0  0  0  0  0  0  0  0  0  0
   38.5890   25.1830   32.9990 C   0  0  0  0  0  0  0  0  0  0  0  0
   38.8560   25.2630   34.2260 N   0  0  0  0  0  0  0  0  0  0  0  0
   38.6730   26.0550   31.8030 C   0  0  0  0  0  0  0  0  0  0  0  0
   39.3340   25.6600   30.6650 C   0  0  0  0  0  0  0  0  0  0  0  0
   39.3060   26.6050   29.6590 C   0  0  0  0  0  0  0  0  0  0  0  0
   38.6850   27.8350   29.7550 C   0  0  0  0  0  0  0  0  0  0  0  0
   38.0350   28.1600   30.9500 C   0  0  0  0  0  0  0  0  0  0  0  0
   38.0370   27.2340   31.9980 C   0  0  0  0  0  0  0  0  0  0  0  0
   38.8870   22.2042   36.4873 H   0  0  0  0  0  0  0  0  0  0  0  0
   38.8515   22.2011   38.9277 H   0  0  0  0  0  0  0  0  0  0  0  0
   39.9736   23.5618   39.0424 H   0  0  0  0  0  0  0  0  0  0  0  0
   37.0799   23.6105   39.0541 H   0  0  0  0  0  0  0  0  0  0  0  0
   38.1720   25.0027   39.1687 H   0  0  0  0  0  0  0  0  0  0  0  0
   36.8473   23.7829   36.7395 H   0  0  0  0  0  0  0  0  0  0  0  0
   37.1301   25.4705   37.0587 H   0  0  0  0  0  0  0  0  0  0  0  0
   39.6945   25.1334   36.6257 H   0  0  0  0  0  0  0  0  0  0  0  0
   41.1902   24.4749   35.6335 H   0  0  0  0  0  0  0  0  0  0  0  0
   40.7219   20.7474   37.8137 H   0  0  0  0  0  0  0  0  0  0  0  0
   44.4743   21.7981   36.0561 H   0  0  0  0  0  0  0  0  0  0  0  0
   37.8802   22.1133   35.0712 H   0  0  0  0  0  0  0  0  0  0  0  0
   39.8362   24.6864   30.5653 H   0  0  0  0  0  0  0  0  0  0  0  0
   39.8141   26.3612   28.7143 H   0  0  0  0  0  0  0  0  0  0  0  0
   38.7013   28.5417   28.9122 H   0  0  0  0  0  0  0  0  0  0  0  0
   37.5294   29.1302   31.0639 H   0  0  0  0  0  0  0  0  0  0  0  0
   37.5368   27.4570   32.9520 H   0  0  0  0  0  0  0  0  0  0  0  0
  1  2  1  0
  2  3  1  0
  4  3  1  0
  5  1  1  0
  5  4  1  0
  6  7  2  0
  7  1  1  0
  7  8  1  0
  9  8  2  0
 10  9  1  0
 11  6  1  0
 11 10  2  0
 12  5  1  0
 13 12  2  0
 14 15  1  0
 14 13  1  0
 15 16  2  0
 16 12  1  0
 17 22  1  0
 17 15  1  0
 18 17  2  0
 19 20  2  0
 19 18  1  0
 20 21  1  0
 21 22  2  0
  1 23  1  6
  2 24  1  0
  2 25  1  0
  3 26  1  0
  3 27  1  0
  4 28  1  0
  4 29  1  0
  5 30  1  6
  6 31  1  0
  8 32  1  0
 10 33  1  0
 13 34  1  0
 18 35  1  0
 19 36  1  0
 20 37  1  0
 21 38  1  0
 22 39  1  0
M  ISO  8  23  13  24  13  25  13  26  13  27  13  28  13  29  13  30  13
M  ISO  8  31  14  32  14  33  14  34  14  35  14  36  14  37  14  38  14
M  ISO  1  39  14
M  END
>  <minimizedAffinity>  (1) 
-5.15703678

>  <minimizedRMSD>  (1) 
1.78765702

$$$$
