
     RDKit          3D

 36 39  0  0  1  0  0  0  0  0999 V2000
   39.4440   22.8150   37.2320 C   0  0  1  0  0  0  0  0  0  0  0  0
   39.2680   23.4150   38.6250 C   0  0  0  0  0  0  0  0  0  0  0  0
   37.9800   24.1860   38.5670 C   0  0  0  0  0  0  0  0  0  0  0  0
   37.4730   24.0570   37.1660 C   0  0  0  0  0  0  0  0  0  0  0  0
   38.7780   23.8240   36.3850 C   0  0  2  0  0  0  0  0  0  0  0  0
   38.3570   23.2420   35.1050 C   0  0  0  0  0  0  0  0  0  0  0  0
   37.5950   22.0650   35.1180 C   0  0  0  0  0  0  0  0  0  0  0  0
   37.3290   21.7660   33.3570 S   0  0  0  0  0  0  0  0  0  0  0  0
   38.3130   23.3180   32.8500 C   0  0  0  0  0  0  0  0  0  0  0  0
   38.6690   23.7980   33.9580 N   0  0  0  0  0  0  0  0  0  0  0  0
   38.6070   23.8540   31.5340 N   0  0  0  0  0  0  0  0  0  0  0  0
   39.0480   25.0770   31.3070 C   0  0  0  0  0  0  0  0  0  0  0  0
   39.1630   25.0790   29.9140 C   0  0  0  0  0  0  0  0  0  0  0  0
   38.7960   23.8920   29.3990 N   0  0  0  0  0  0  0  0  0  0  0  0
   38.4410   23.1100   30.4330 C   0  0  0  0  0  0  0  0  0  0  0  0
   41.6140   23.4840   36.2530 C   0  0  0  0  0  0  0  0  0  0  0  0
   40.8540   22.5230   36.9360 C   0  0  0  0  0  0  0  0  0  0  0  0
   41.4500   21.3180   37.3260 C   0  0  0  0  0  0  0  0  0  0  0  0
   42.7530   21.1470   37.0140 N   0  0  0  0  0  0  0  0  0  0  0  0
   43.4890   22.0840   36.3480 C   0  0  0  0  0  0  0  0  0  0  0  0
   42.9100   23.2670   35.9630 N   0  0  0  0  0  0  0  0  0  0  0  0
   38.9993   21.8210   37.0767 H   0  0  0  0  0  0  0  0  0  0  0  0
   39.2065   22.6192   39.3819 H   0  0  0  0  0  0  0  0  0  0  0  0
   40.1167   24.0565   38.9045 H   0  0  0  0  0  0  0  0  0  0  0  0
   37.2519   23.7640   39.2754 H   0  0  0  0  0  0  0  0  0  0  0  0
   38.1340   25.2405   38.8397 H   0  0  0  0  0  0  0  0  0  0  0  0
   36.7866   23.2034   37.0645 H   0  0  0  0  0  0  0  0  0  0  0  0
   36.8923   24.9242   36.8186 H   0  0  0  0  0  0  0  0  0  0  0  0
   39.4198   24.6955   36.1885 H   0  0  0  0  0  0  0  0  0  0  0  0
   37.2483   21.4753   35.9795 H   0  0  0  0  0  0  0  0  0  0  0  0
   39.2671   25.8818   32.0242 H   0  0  0  0  0  0  0  0  0  0  0  0
   39.5077   25.9371   29.3183 H   0  0  0  0  0  0  0  0  0  0  0  0
   38.0861   22.0699   30.3846 H   0  0  0  0  0  0  0  0  0  0  0  0
   41.1429   24.4305   35.9495 H   0  0  0  0  0  0  0  0  0  0  0  0
   40.8820   20.5441   37.8631 H   0  0  0  0  0  0  0  0  0  0  0  0
   44.5475   21.8905   36.1197 H   0  0  0  0  0  0  0  0  0  0  0  0
  1  2  1  0
  3  2  1  0
  4  3  1  0
  5  4  1  0
  5  1  1  0
  6  7  2  0
  6  5  1  0
  8  7  1  0
  9  8  1  0
  9 10  2  0
 10  6  1  0
 11  9  1  0
 12 11  1  0
 13 12  2  0
 14 13  1  0
 14 15  2  0
 15 11  1  0
 16 17  2  0
 17  1  1  0
 17 18  1  0
 19 18  2  0
 20 19  1  0
 21 16  1  0
 21 20  2  0
  1 22  1  1
  2 23  1  0
  2 24  1  0
  3 25  1  0
  3 26  1  0
  4 27  1  0
  4 28  1  0
  5 29  1  6
  7 30  1  0
 12 31  1  0
 13 32  1  0
 15 33  1  0
 16 34  1  0
 18 35  1  0
 20 36  1  0
M  ISO  8  22  13  23  13  24  13  25  13  26  13  27  13  28  13  29  13
M  ISO  7  30  14  31  14  32  14  33  14  34  14  35  14  36  14
M  END
>  <minimizedAffinity>  (1) 
-5.11181307

>  <minimizedRMSD>  (1) 
0.310459852

$$$$
