
     RDKit          3D

 38 41  0  0  1  0  0  0  0  0999 V2000
   39.4630   22.9800   36.9220 C   0  0  1  0  0  0  0  0  0  0  0  0
   39.1420   23.1680   38.3970 C   0  0  0  0  0  0  0  0  0  0  0  0
   37.9510   24.0800   38.4410 C   0  0  0  0  0  0  0  0  0  0  0  0
   37.6020   24.3750   37.0170 C   0  0  0  0  0  0  0  0  0  0  0  0
   38.9700   24.2430   36.3360 C   0  0  2  0  0  0  0  0  0  0  0  0
   41.6930   23.5800   36.0360 C   0  0  0  0  0  0  0  0  0  0  0  0
   40.8830   22.6480   36.7010 C   0  0  0  0  0  0  0  0  0  0  0  0
   41.4250   21.4360   37.1470 C   0  0  0  0  0  0  0  0  0  0  0  0
   42.7430   21.2360   36.8980 N   0  0  0  0  0  0  0  0  0  0  0  0
   43.5250   22.1380   36.2560 C   0  0  0  0  0  0  0  0  0  0  0  0
   42.9940   23.3260   35.8180 N   0  0  0  0  0  0  0  0  0  0  0  0
   38.6800   24.0910   34.9040 C   0  0  0  0  0  0  0  0  0  0  0  0
   38.0190   22.9240   34.4890 C   0  0  0  0  0  0  0  0  0  0  0  0
   37.9000   23.1970   32.7010 S   0  0  0  0  0  0  0  0  0  0  0  0
   38.7720   24.8650   32.8070 C   0  0  0  0  0  0  0  0  0  0  0  0
   39.0260   25.0120   34.0310 N   0  0  0  0  0  0  0  0  0  0  0  0
   38.9730   25.6170   31.5350 C   0  0  0  0  0  0  0  0  0  0  0  0
   39.4110   25.0180   30.3980 C   0  0  0  0  0  0  0  0  0  0  0  0
   39.5430   25.8600   29.3110 C   0  0  0  0  0  0  0  0  0  0  0  0
   39.2260   27.2150   29.4600 C   0  0  0  0  0  0  0  0  0  0  0  0
   38.7800   27.7700   30.6560 C   0  0  0  0  0  0  0  0  0  0  0  0
   38.6640   26.9010   31.7080 N   0  0  0  0  0  0  0  0  0  0  0  0
   38.9841   22.1165   36.4372 H   0  0  0  0  0  0  0  0  0  0  0  0
   38.9020   22.2011   38.8634 H   0  0  0  0  0  0  0  0  0  0  0  0
   39.9961   23.5891   38.9476 H   0  0  0  0  0  0  0  0  0  0  0  0
   37.1088   23.5840   38.9457 H   0  0  0  0  0  0  0  0  0  0  0  0
   38.1707   25.0014   39.0002 H   0  0  0  0  0  0  0  0  0  0  0  0
   36.8825   23.6440   36.6194 H   0  0  0  0  0  0  0  0  0  0  0  0
   37.1170   25.3507   36.8659 H   0  0  0  0  0  0  0  0  0  0  0  0
   39.6853   25.0690   36.4630 H   0  0  0  0  0  0  0  0  0  0  0  0
   41.2584   24.5291   35.6892 H   0  0  0  0  0  0  0  0  0  0  0  0
   40.8142   20.6863   37.6713 H   0  0  0  0  0  0  0  0  0  0  0  0
   44.5890   21.9174   36.0853 H   0  0  0  0  0  0  0  0  0  0  0  0
   37.6672   22.0716   35.0887 H   0  0  0  0  0  0  0  0  0  0  0  0
   39.6431   23.9440   30.3464 H   0  0  0  0  0  0  0  0  0  0  0  0
   39.8920   25.4714   28.3429 H   0  0  0  0  0  0  0  0  0  0  0  0
   39.3349   27.8753   28.5870 H   0  0  0  0  0  0  0  0  0  0  0  0
   38.5362   28.8385   30.7502 H   0  0  0  0  0  0  0  0  0  0  0  0
  1  2  1  0
  2  3  1  0
  4  3  1  0
  5  1  1  0
  5  4  1  0
  6  7  2  0
  7  1  1  0
  7  8  1  0
  9  8  2  0
 10  9  1  0
 11  6  1  0
 11 10  2  0
 12  5  1  0
 13 12  2  0
 14 15  1  0
 14 13  1  0
 15 16  2  0
 16 12  1  0
 17 22  1  0
 17 15  1  0
 18 17  2  0
 19 20  2  0
 19 18  1  0
 20 21  1  0
 21 22  2  0
  1 23  1  6
  2 24  1  0
  2 25  1  0
  3 26  1  0
  3 27  1  0
  4 28  1  0
  4 29  1  0
  5 30  1  6
  6 31  1  0
  8 32  1  0
 10 33  1  0
 13 34  1  0
 18 35  1  0
 19 36  1  0
 20 37  1  0
 21 38  1  0
M  ISO  8  23  13  24  13  25  13  26  13  27  13  28  13  29  13  30  13
M  ISO  8  31  14  32  14  33  14  34  14  35  14  36  14  37  14  38  14
M  END
>  <minimizedAffinity>  (1) 
-4.93676186

>  <minimizedRMSD>  (1) 
1.61488545

$$$$
