
     RDKit          3D

 36 39  0  0  1  0  0  0  0  0999 V2000
   39.4650   22.9650   36.9290 C   0  0  1  0  0  0  0  0  0  0  0  0
   39.1610   23.1790   38.4070 C   0  0  0  0  0  0  0  0  0  0  0  0
   37.9480   24.0630   38.4430 C   0  0  0  0  0  0  0  0  0  0  0  0
   37.6010   24.3540   37.0140 C   0  0  0  0  0  0  0  0  0  0  0  0
   38.9680   24.2200   36.3340 C   0  0  2  0  0  0  0  0  0  0  0  0
   41.6960   23.5690   36.0320 C   0  0  0  0  0  0  0  0  0  0  0  0
   40.8880   22.6390   36.7040 C   0  0  0  0  0  0  0  0  0  0  0  0
   41.4330   21.4290   37.1530 C   0  0  0  0  0  0  0  0  0  0  0  0
   42.7470   21.2210   36.9070 N   0  0  0  0  0  0  0  0  0  0  0  0
   43.5300   22.1280   36.2520 C   0  0  0  0  0  0  0  0  0  0  0  0
   42.9960   23.3130   35.8110 N   0  0  0  0  0  0  0  0  0  0  0  0
   38.6740   24.0570   34.9010 C   0  0  0  0  0  0  0  0  0  0  0  0
   38.0160   22.8870   34.4940 C   0  0  0  0  0  0  0  0  0  0  0  0
   37.8980   23.1570   32.7030 S   0  0  0  0  0  0  0  0  0  0  0  0
   38.7670   24.8240   32.8050 C   0  0  0  0  0  0  0  0  0  0  0  0
   39.0210   24.9780   34.0260 N   0  0  0  0  0  0  0  0  0  0  0  0
   38.9670   25.5680   31.5390 C   0  0  0  0  0  0  0  0  0  0  0  0
   39.4060   25.2950   30.3520 C   0  0  0  0  0  0  0  0  0  0  0  0
   39.4230   26.3190   29.4440 C   0  0  0  0  0  0  0  0  0  0  0  0
   38.9970   27.5430   29.7910 C   0  0  0  0  0  0  0  0  0  0  0  0
   38.5190   27.2500   31.5760 S   0  0  0  0  0  0  0  0  0  0  0  0
   38.9825   22.0943   36.4610 H   0  0  0  0  0  0  0  0  0  0  0  0
   38.9511   22.2180   38.8994 H   0  0  0  0  0  0  0  0  0  0  0  0
   40.0118   23.6317   38.9373 H   0  0  0  0  0  0  0  0  0  0  0  0
   37.1140   23.5462   38.9404 H   0  0  0  0  0  0  0  0  0  0  0  0
   38.1425   24.9884   39.0050 H   0  0  0  0  0  0  0  0  0  0  0  0
   36.8818   23.6219   36.6181 H   0  0  0  0  0  0  0  0  0  0  0  0
   37.1172   25.3298   36.8598 H   0  0  0  0  0  0  0  0  0  0  0  0
   39.6826   25.0476   36.4538 H   0  0  0  0  0  0  0  0  0  0  0  0
   41.2605   24.5169   35.6828 H   0  0  0  0  0  0  0  0  0  0  0  0
   40.8211   20.6828   37.6810 H   0  0  0  0  0  0  0  0  0  0  0  0
   44.5935   21.9079   36.0770 H   0  0  0  0  0  0  0  0  0  0  0  0
   37.6662   22.0361   35.0970 H   0  0  0  0  0  0  0  0  0  0  0  0
   39.7501   24.2849   30.0851 H   0  0  0  0  0  0  0  0  0  0  0  0
   39.7885   26.1372   28.4226 H   0  0  0  0  0  0  0  0  0  0  0  0
   38.9436   28.4640   29.1918 H   0  0  0  0  0  0  0  0  0  0  0  0
  1  2  1  0
  2  3  1  0
  4  3  1  0
  5  1  1  0
  5  4  1  0
  6  7  2  0
  7  1  1  0
  7  8  1  0
  9  8  2  0
 10  9  1  0
 11  6  1  0
 11 10  2  0
 12  5  1  0
 13 12  2  0
 14 15  1  0
 14 13  1  0
 15 16  2  0
 16 12  1  0
 17 21  1  0
 17 15  1  0
 18 17  2  0
 19 20  2  0
 19 18  1  0
 20 21  1  0
  1 22  1  6
  2 23  1  0
  2 24  1  0
  3 25  1  0
  3 26  1  0
  4 27  1  0
  4 28  1  0
  5 29  1  6
  6 30  1  0
  8 31  1  0
 10 32  1  0
 13 33  1  0
 18 34  1  0
 19 35  1  0
 20 36  1  0
M  ISO  8  22  13  23  13  24  13  25  13  26  13  27  13  28  13  29  13
M  ISO  7  30  14  31  14  32  14  33  14  34  14  35  14  36  14
M  END
>  <minimizedAffinity>  (1) 
-4.8142333

>  <minimizedRMSD>  (1) 
1.54811466

$$$$
