
     RDKit          3D

 32 34  0  0  1  0  0  0  0  0999 V2000
   39.3800   22.8680   37.1780 C   0  0  1  0  0  0  0  0  0  0  0  0
   39.2250   23.3860   38.6000 C   0  0  0  0  0  0  0  0  0  0  0  0
   37.9820   24.2260   38.5880 C   0  0  0  0  0  0  0  0  0  0  0  0
   37.4490   24.1750   37.1920 C   0  0  0  0  0  0  0  0  0  0  0  0
   38.7380   23.9420   36.3890 C   0  0  2  0  0  0  0  0  0  0  0  0
   41.5100   23.4500   36.0620 C   0  0  0  0  0  0  0  0  0  0  0  0
   40.7780   22.5480   36.8500 C   0  0  0  0  0  0  0  0  0  0  0  0
   41.3820   21.3730   37.3190 C   0  0  0  0  0  0  0  0  0  0  0  0
   42.6720   21.1670   36.9750 N   0  0  0  0  0  0  0  0  0  0  0  0
   43.3860   22.0420   36.2090 C   0  0  0  0  0  0  0  0  0  0  0  0
   42.7930   23.1920   35.7510 N   0  0  0  0  0  0  0  0  0  0  0  0
   38.2920   23.4490   35.0850 C   0  0  0  0  0  0  0  0  0  0  0  0
   37.8370   22.1260   34.9860 C   0  0  0  0  0  0  0  0  0  0  0  0
   37.4080   21.9990   33.2380 S   0  0  0  0  0  0  0  0  0  0  0  0
   37.9170   23.7940   32.8880 C   0  0  0  0  0  0  0  0  0  0  0  0
   38.3030   24.2110   34.0120 N   0  0  0  0  0  0  0  0  0  0  0  0
   37.8460   24.4500   31.6020 C   0  0  0  0  0  0  0  0  0  0  0  0
   38.4350   25.5070   31.3160 O   0  0  0  0  0  0  0  0  0  0  0  0
   37.0620   23.8590   30.6080 O   0  0  0  0  0  0  0  0  0  0  0  0
   38.9059   21.8966   36.9739 H   0  0  0  0  0  0  0  0  0  0  0  0
   39.1159   22.5482   39.3045 H   0  0  0  0  0  0  0  0  0  0  0  0
   40.1043   23.9633   38.9219 H   0  0  0  0  0  0  0  0  0  0  0  0
   37.2416   23.8193   39.2926 H   0  0  0  0  0  0  0  0  0  0  0  0
   38.1977   25.2603   38.8940 H   0  0  0  0  0  0  0  0  0  0  0  0
   36.7377   23.3461   37.0621 H   0  0  0  0  0  0  0  0  0  0  0  0
   36.8851   25.0702   36.8910 H   0  0  0  0  0  0  0  0  0  0  0  0
   39.4071   24.8011   36.2333 H   0  0  0  0  0  0  0  0  0  0  0  0
   41.0326   24.3715   35.6974 H   0  0  0  0  0  0  0  0  0  0  0  0
   40.8303   20.6512   37.9392 H   0  0  0  0  0  0  0  0  0  0  0  0
   44.4352   21.8260   35.9590 H   0  0  0  0  0  0  0  0  0  0  0  0
   37.7611   21.3612   35.7730 H   0  0  0  0  0  0  0  0  0  0  0  0
   36.9917   24.2824   29.7159 H   0  0  0  0  0  0  0  0  0  0  0  0
  1  2  1  0
  3  2  1  0
  4  3  1  0
  5  1  1  0
  5  4  1  0
  6  7  2  0
  7  1  1  0
  7  8  1  0
  9  8  2  0
 10  9  1  0
 11  6  1  0
 11 10  2  0
 12  5  1  0
 13 12  2  0
 14 13  1  0
 15 14  1  0
 15 16  2  0
 16 12  1  0
 17 15  1  0
 18 17  2  0
 19 17  1  0
  1 20  1  1
  2 21  1  0
  2 22  1  0
  3 23  1  0
  3 24  1  0
  4 25  1  0
  4 26  1  0
  5 27  1  6
  6 28  1  0
  8 29  1  0
 10 30  1  0
 13 31  1  0
 19 32  1  0
M  ISO  8  20  13  21  13  22  13  23  13  24  13  25  13  26  13  27  13
M  ISO  5  28  14  29  14  30  14  31  14  32   3
M  END
>  <minimizedAffinity>  (1) 
-4.79371786

>  <minimizedRMSD>  (1) 
0.386378855

$$$$
