
     RDKit          3D

 39 41  0  0  1  0  0  0  0  0999 V2000
   39.5760   22.9680   37.4010 C   0  0  1  0  0  0  0  0  0  0  0  0
   39.5010   23.7170   38.7420 C   0  0  0  0  0  0  0  0  0  0  0  0
   38.2410   24.5110   38.6750 C   0  0  0  0  0  0  0  0  0  0  0  0
   37.6800   24.3240   37.3050 C   0  0  0  0  0  0  0  0  0  0  0  0
   38.9200   23.8900   36.5130 C   0  0  2  0  0  0  0  0  0  0  0  0
   41.7820   23.4740   36.4260 C   0  0  0  0  0  0  0  0  0  0  0  0
   40.9660   22.5660   37.0770 C   0  0  0  0  0  0  0  0  0  0  0  0
   41.4250   21.2810   37.4410 C   0  0  0  0  0  0  0  0  0  0  0  0
   42.6980   20.9890   37.1200 N   0  0  0  0  0  0  0  0  0  0  0  0
   43.5160   21.8780   36.4770 C   0  0  0  0  0  0  0  0  0  0  0  0
   43.0500   23.1290   36.1290 N   0  0  0  0  0  0  0  0  0  0  0  0
   38.4320   23.2990   35.2720 C   0  0  0  0  0  0  0  0  0  0  0  0
   37.6530   22.1880   35.3840 C   0  0  0  0  0  0  0  0  0  0  0  0
   37.3330   21.8260   33.6270 S   0  0  0  0  0  0  0  0  0  0  0  0
   38.3430   23.3050   33.0200 C   0  0  0  0  0  0  0  0  0  0  0  0
   38.7280   23.7870   34.0940 N   0  0  0  0  0  0  0  0  0  0  0  0
   36.9680   21.3630   36.2560 N   0  0  0  0  0  0  0  0  0  0  0  0
   35.6540   20.8230   36.1080 C   0  0  0  0  0  0  0  0  0  0  0  0
   35.2090   20.5100   34.9440 N   0  0  0  0  0  0  0  0  0  0  0  0
   34.7470   20.5790   37.2120 N   0  0  0  0  0  0  0  0  0  0  0  0
   35.7980   20.6440   34.1110 H   0  0  0  0  0  0  0  0  0  0  0  0
   38.5250   23.6800   31.5800 C   0  0  0  0  0  0  0  0  0  0  0  0
   37.2810   23.6770   30.9350 F   0  0  0  0  0  0  0  0  0  0  0  0
   38.9600   24.9950   31.4750 F   0  0  0  0  0  0  0  0  0  0  0  0
   39.3630   22.8280   30.9470 F   0  0  0  0  0  0  0  0  0  0  0  0
   39.0806   21.9867   37.3596 H   0  0  0  0  0  0  0  0  0  0  0  0
   39.4646   23.0054   39.5800 H   0  0  0  0  0  0  0  0  0  0  0  0
   40.3815   24.3554   38.9067 H   0  0  0  0  0  0  0  0  0  0  0  0
   37.5260   24.1493   39.4286 H   0  0  0  0  0  0  0  0  0  0  0  0
   38.4358   25.5745   38.8777 H   0  0  0  0  0  0  0  0  0  0  0  0
   36.9043   23.5442   37.2931 H   0  0  0  0  0  0  0  0  0  0  0  0
   37.1850   25.2194   36.9010 H   0  0  0  0  0  0  0  0  0  0  0  0
   39.6294   24.6783   36.2209 H   0  0  0  0  0  0  0  0  0  0  0  0
   41.3990   24.4685   36.1534 H   0  0  0  0  0  0  0  0  0  0  0  0
   40.7769   20.5585   37.9587 H   0  0  0  0  0  0  0  0  0  0  0  0
   44.5509   21.5935   36.2363 H   0  0  0  0  0  0  0  0  0  0  0  0
   37.4669   21.1057   37.1196 H   0  0  0  0  0  0  0  0  0  0  0  0
   33.8116   20.1867   37.0330 H   0  0  0  0  0  0  0  0  0  0  0  0
   35.0379   20.7979   38.1755 H   0  0  0  0  0  0  0  0  0  0  0  0
  1  2  1  0
  3  2  1  0
  4  3  1  0
  5  4  1  0
  5  1  1  0
  6  7  2  0
  7  1  1  0
  7  8  1  0
  9  8  2  0
 10  9  1  0
 11  6  1  0
 11 10  2  0
 12 13  2  0
 12  5  1  0
 13 17  1  0
 14 13  1  0
 15 14  1  0
 15 16  2  0
 16 12  1  0
 18 17  1  0
 18 20  1  0
 19 18  2  0
 21 19  1  0
 22 15  1  0
 23 22  1  0
 24 22  1  0
 25 22  1  0
  1 26  1  1
  2 27  1  0
  2 28  1  0
  3 29  1  0
  3 30  1  0
  4 31  1  0
  4 32  1  0
  5 33  1  6
  6 34  1  0
  8 35  1  0
 10 36  1  0
 17 37  1  0
 20 38  1  0
 20 39  1  0
M  ISO  8  26  13  27  13  28  13  29  13  30  13  31  13  32  13  33  13
M  ISO  3  34  14  35  14  36  14
M  END
>  <minimizedAffinity>  (1) 
-5.87869835

>  <minimizedRMSD>  (1) 
0.766360462

$$$$
