
     RDKit          3D

 40 43  0  0  1  0  0  0  0  0999 V2000
   39.3140   24.9700   34.2320 C   0  0  1  0  0  0  0  0  0  0  0  0
   40.8230   24.6670   34.3030 C   0  0  0  0  0  0  0  0  0  0  0  0
   41.3510   25.0150   32.9550 C   0  0  0  0  0  0  0  0  0  0  0  0
   40.1740   25.2930   32.0790 C   0  0  0  0  0  0  0  0  0  0  0  0
   39.0330   24.6510   32.8630 C   0  0  2  0  0  0  0  0  0  0  0  0
   38.2390   22.9050   35.0610 C   0  0  0  0  0  0  0  0  0  0  0  0
   38.5700   24.2270   35.2790 C   0  0  0  0  0  0  0  0  0  0  0  0
   38.2230   24.8910   36.4770 C   0  0  0  0  0  0  0  0  0  0  0  0
   37.5550   24.1640   37.3910 N   0  0  0  0  0  0  0  0  0  0  0  0
   37.2230   22.8560   37.1870 C   0  0  0  0  0  0  0  0  0  0  0  0
   37.5690   22.2320   36.0170 N   0  0  0  0  0  0  0  0  0  0  0  0
   37.7940   25.1740   32.3240 C   0  0  0  0  0  0  0  0  0  0  0  0
   36.9520   24.2750   31.7820 C   0  0  0  0  0  0  0  0  0  0  0  0
   35.6080   25.3710   31.2200 S   0  0  0  0  0  0  0  0  0  0  0  0
   36.4590   26.9380   31.8620 C   0  0  0  0  0  0  0  0  0  0  0  0
   37.4960   26.4560   32.3340 N   0  0  0  0  0  0  0  0  0  0  0  0
   36.6290   22.9080   31.4900 C   0  0  0  0  0  0  0  0  0  0  0  0
   35.4660   22.3020   31.9330 C   0  0  0  0  0  0  0  0  0  0  0  0
   35.1530   20.9780   31.7570 C   0  0  0  0  0  0  0  0  0  0  0  0
   36.0500   20.2300   31.1040 N   0  0  0  0  0  0  0  0  0  0  0  0
   37.1940   20.7360   30.6430 C   0  0  0  0  0  0  0  0  0  0  0  0
   37.3840   22.0050   30.8690 N   0  0  0  0  0  0  0  0  0  0  0  0
   35.8790   28.3180   31.7790 C   0  0  0  0  0  0  0  0  0  0  0  0
   34.5470   28.2920   32.2230 F   0  0  0  0  0  0  0  0  0  0  0  0
   36.5170   29.1590   32.6830 F   0  0  0  0  0  0  0  0  0  0  0  0
   35.9330   28.7960   30.5180 F   0  0  0  0  0  0  0  0  0  0  0  0
   38.9986   25.9990   34.4594 H   0  0  0  0  0  0  0  0  0  0  0  0
   41.3046   25.2822   35.0773 H   0  0  0  0  0  0  0  0  0  0  0  0
   41.0213   23.6173   34.5655 H   0  0  0  0  0  0  0  0  0  0  0  0
   41.9918   25.9067   33.0197 H   0  0  0  0  0  0  0  0  0  0  0  0
   41.9557   24.1914   32.5475 H   0  0  0  0  0  0  0  0  0  0  0  0
   40.2924   24.8247   31.0907 H   0  0  0  0  0  0  0  0  0  0  0  0
   40.0207   26.3620   31.8699 H   0  0  0  0  0  0  0  0  0  0  0  0
   38.9366   23.5578   32.7876 H   0  0  0  0  0  0  0  0  0  0  0  0
   38.5181   22.4078   34.1203 H   0  0  0  0  0  0  0  0  0  0  0  0
   38.4847   25.9448   36.6528 H   0  0  0  0  0  0  0  0  0  0  0  0
   36.6763   22.3012   37.9637 H   0  0  0  0  0  0  0  0  0  0  0  0
   34.7374   22.9298   32.4668 H   0  0  0  0  0  0  0  0  0  0  0  0
   34.2113   20.5524   32.1340 H   0  0  0  0  0  0  0  0  0  0  0  0
   37.9310   20.1210   30.1058 H   0  0  0  0  0  0  0  0  0  0  0  0
  1  2  1  0
  1  7  1  0
  3  2  1  0
  4  5  1  0
  4  3  1  0
  5  1  1  0
  6  7  2  0
  6 11  1  0
  7  8  1  0
  8  9  2  0
 10  9  1  0
 11 10  2  0
 12 16  1  0
 12  5  1  0
 13 12  2  0
 14 13  1  0
 14 15  1  0
 15 16  2  0
 17 13  1  0
 17 18  2  0
 19 18  1  0
 20 19  2  0
 21 22  2  0
 21 20  1  0
 22 17  1  0
 23 15  1  0
 23 24  1  0
 23 25  1  0
 26 23  1  0
  1 27  1  6
  2 28  1  0
  2 29  1  0
  3 30  1  0
  3 31  1  0
  4 32  1  0
  4 33  1  0
  5 34  1  1
  6 35  1  0
  8 36  1  0
 10 37  1  0
 18 38  1  0
 19 39  1  0
 21 40  1  0
M  ISO  8  27  13  28  13  29  13  30  13  31  13  32  13  33  13  34  13
M  ISO  6  35  14  36  14  37  14  38  14  39  14  40  14
M  END
>  <minimizedAffinity>  (1) 
-5.47719097

>  <minimizedRMSD>  (1) 
5.03975058

$$$$
