
     RDKit          3D

 38 41  0  0  1  0  0  0  0  0999 V2000
   39.5120   23.0140   36.8720 C   0  0  1  0  0  0  0  0  0  0  0  0
   39.1520   23.2530   38.3460 C   0  0  0  0  0  0  0  0  0  0  0  0
   37.9650   24.1540   38.3110 C   0  0  0  0  0  0  0  0  0  0  0  0
   37.7520   24.5460   36.9020 C   0  0  0  0  0  0  0  0  0  0  0  0
   39.1070   24.2570   36.2610 C   0  0  2  0  0  0  0  0  0  0  0  0
   41.8020   23.4580   36.1040 C   0  0  0  0  0  0  0  0  0  0  0  0
   40.9110   22.5820   36.7120 C   0  0  0  0  0  0  0  0  0  0  0  0
   41.3230   21.3170   37.1710 C   0  0  0  0  0  0  0  0  0  0  0  0
   42.6320   21.0140   36.9840 N   0  0  0  0  0  0  0  0  0  0  0  0
   43.5170   21.8730   36.3850 C   0  0  0  0  0  0  0  0  0  0  0  0
   43.0930   23.1120   35.9400 N   0  0  0  0  0  0  0  0  0  0  0  0
   38.9000   24.1860   34.8270 C   0  0  0  0  0  0  0  0  0  0  0  0
   38.0340   23.2360   34.3720 C   0  0  0  0  0  0  0  0  0  0  0  0
   38.0830   23.5010   32.5830 S   0  0  0  0  0  0  0  0  0  0  0  0
   39.3390   24.9410   32.7520 C   0  0  0  0  0  0  0  0  0  0  0  0
   39.4980   24.9810   33.9820 N   0  0  0  0  0  0  0  0  0  0  0  0
   37.1630   22.1960   34.6910 N   0  0  0  0  0  0  0  0  0  0  0  0
   36.5070   21.3680   33.8100 C   0  0  0  0  0  0  0  0  0  0  0  0
   35.7600   20.4780   34.4870 N   0  0  0  0  0  0  0  0  0  0  0  0
   35.9590   20.7620   35.7930 C   0  0  0  0  0  0  0  0  0  0  0  0
   36.8040   21.7970   35.9350 N   0  0  0  0  0  0  0  0  0  0  0  0
   39.9010   25.7360   31.6070 C   0  0  0  0  0  0  0  0  0  0  0  0
   38.9230   25.8360   30.5990 F   0  0  0  0  0  0  0  0  0  0  0  0
   40.1280   27.0330   31.9880 F   0  0  0  0  0  0  0  0  0  0  0  0
   40.9980   25.1460   31.0810 F   0  0  0  0  0  0  0  0  0  0  0  0
   39.0066   22.1728   36.3750 H   0  0  0  0  0  0  0  0  0  0  0  0
   38.9024   22.3035   38.8421 H   0  0  0  0  0  0  0  0  0  0  0  0
   39.9881   23.6922   38.9100 H   0  0  0  0  0  0  0  0  0  0  0  0
   37.0793   23.6248   38.6925 H   0  0  0  0  0  0  0  0  0  0  0  0
   38.1303   25.0404   38.9411 H   0  0  0  0  0  0  0  0  0  0  0  0
   36.9578   23.9422   36.4386 H   0  0  0  0  0  0  0  0  0  0  0  0
   37.4294   25.5911   36.7851 H   0  0  0  0  0  0  0  0  0  0  0  0
   39.8922   25.0122   36.4131 H   0  0  0  0  0  0  0  0  0  0  0  0
   41.4506   24.4400   35.7546 H   0  0  0  0  0  0  0  0  0  0  0  0
   40.6254   20.6160   37.6525 H   0  0  0  0  0  0  0  0  0  0  0  0
   44.5684   21.5756   36.2579 H   0  0  0  0  0  0  0  0  0  0  0  0
   36.5823   21.4254   32.7141 H   0  0  0  0  0  0  0  0  0  0  0  0
   35.4920   20.2188   36.6278 H   0  0  0  0  0  0  0  0  0  0  0  0
  1  2  1  0
  3  2  1  0
  4  3  1  0
  5  1  1  0
  5  4  1  0
  6  7  2  0
  7  1  1  0
  7  8  1  0
  9  8  2  0
 10  9  1  0
 11  6  1  0
 11 10  2  0
 12  5  1  0
 13 17  1  0
 13 12  2  0
 14 15  1  0
 14 13  1  0
 15 16  2  0
 16 12  1  0
 17 21  1  0
 18 19  2  0
 18 17  1  0
 19 20  1  0
 20 21  2  0
 22 24  1  0
 22 15  1  0
 23 22  1  0
 25 22  1  0
  1 26  1  6
  2 27  1  0
  2 28  1  0
  3 29  1  0
  3 30  1  0
  4 31  1  0
  4 32  1  0
  5 33  1  6
  6 34  1  0
  8 35  1  0
 10 36  1  0
 18 37  1  0
 20 38  1  0
M  ISO  8  26  13  27  13  28  13  29  13  30  13  31  13  32  13  33  13
M  ISO  5  34  14  35  14  36  14  37  14  38  14
M  END
>  <minimizedAffinity>  (1) 
-5.17796469

>  <minimizedRMSD>  (1) 
1.96786058

$$$$
