
     RDKit          3D

 39 42  0  0  1  0  0  0  0  0999 V2000
   39.4790   23.0260   36.8270 C   0  0  1  0  0  0  0  0  0  0  0  0
   39.1170   23.2690   38.3010 C   0  0  0  0  0  0  0  0  0  0  0  0
   37.9340   24.1760   38.2670 C   0  0  0  0  0  0  0  0  0  0  0  0
   37.7040   24.5360   36.8430 C   0  0  0  0  0  0  0  0  0  0  0  0
   39.0830   24.2660   36.2200 C   0  0  2  0  0  0  0  0  0  0  0  0
   41.7780   23.4790   36.0710 C   0  0  0  0  0  0  0  0  0  0  0  0
   40.8790   22.5920   36.6770 C   0  0  0  0  0  0  0  0  0  0  0  0
   41.2980   21.3370   37.1380 C   0  0  0  0  0  0  0  0  0  0  0  0
   42.6040   21.0350   36.9670 N   0  0  0  0  0  0  0  0  0  0  0  0
   43.4900   21.8930   36.3770 C   0  0  0  0  0  0  0  0  0  0  0  0
   43.0690   23.1280   35.9260 N   0  0  0  0  0  0  0  0  0  0  0  0
   38.8920   24.2080   34.7880 C   0  0  0  0  0  0  0  0  0  0  0  0
   38.0480   23.2650   34.3040 C   0  0  0  0  0  0  0  0  0  0  0  0
   38.1300   23.5690   32.5180 S   0  0  0  0  0  0  0  0  0  0  0  0
   39.3670   25.0130   32.7290 C   0  0  0  0  0  0  0  0  0  0  0  0
   39.5030   25.0310   33.9620 N   0  0  0  0  0  0  0  0  0  0  0  0
   37.1970   22.2290   34.5800 N   0  0  0  0  0  0  0  0  0  0  0  0
   36.5100   21.3730   33.7560 C   0  0  0  0  0  0  0  0  0  0  0  0
   35.7780   20.4750   34.5010 C   0  0  0  0  0  0  0  0  0  0  0  0
   36.0010   20.7610   35.7960 N   0  0  0  0  0  0  0  0  0  0  0  0
   36.8480   21.8080   35.8460 C   0  0  0  0  0  0  0  0  0  0  0  0
   39.9400   25.8320   31.6070 C   0  0  0  0  0  0  0  0  0  0  0  0
   39.0040   25.8730   30.5560 F   0  0  0  0  0  0  0  0  0  0  0  0
   40.0800   27.1380   31.9890 F   0  0  0  0  0  0  0  0  0  0  0  0
   41.0890   25.2940   31.1390 F   0  0  0  0  0  0  0  0  0  0  0  0
   38.9728   22.1878   36.3259 H   0  0  0  0  0  0  0  0  0  0  0  0
   38.8624   22.3209   38.7973 H   0  0  0  0  0  0  0  0  0  0  0  0
   39.9548   23.7060   38.8641 H   0  0  0  0  0  0  0  0  0  0  0  0
   37.0512   23.6611   38.6739 H   0  0  0  0  0  0  0  0  0  0  0  0
   38.1105   25.0749   38.8759 H   0  0  0  0  0  0  0  0  0  0  0  0
   36.9290   23.9003   36.3899 H   0  0  0  0  0  0  0  0  0  0  0  0
   37.3449   25.5655   36.6976 H   0  0  0  0  0  0  0  0  0  0  0  0
   39.8649   25.0212   36.3886 H   0  0  0  0  0  0  0  0  0  0  0  0
   41.4297   24.4597   35.7147 H   0  0  0  0  0  0  0  0  0  0  0  0
   40.5996   20.6335   37.6147 H   0  0  0  0  0  0  0  0  0  0  0  0
   44.5433   21.5979   36.2611 H   0  0  0  0  0  0  0  0  0  0  0  0
   36.5397   21.4002   32.6567 H   0  0  0  0  0  0  0  0  0  0  0  0
   35.1325   19.6746   34.1103 H   0  0  0  0  0  0  0  0  0  0  0  0
   37.2136   22.2673   36.7762 H   0  0  0  0  0  0  0  0  0  0  0  0
  1  2  1  0
  3  2  1  0
  4  3  1  0
  5  1  1  0
  5  4  1  0
  6  7  2  0
  7  1  1  0
  7  8  1  0
  9  8  2  0
 10  9  1  0
 11  6  1  0
 11 10  2  0
 12  5  1  0
 13 17  1  0
 13 12  2  0
 14 15  1  0
 14 13  1  0
 15 16  2  0
 16 12  1  0
 17 21  1  0
 18 19  2  0
 18 17  1  0
 19 20  1  0
 20 21  2  0
 22 24  1  0
 22 15  1  0
 23 22  1  0
 25 22  1  0
  1 26  1  6
  2 27  1  0
  2 28  1  0
  3 29  1  0
  3 30  1  0
  4 31  1  0
  4 32  1  0
  5 33  1  6
  6 34  1  0
  8 35  1  0
 10 36  1  0
 18 37  1  0
 19 38  1  0
 21 39  1  0
M  ISO  8  26  13  27  13  28  13  29  13  30  13  31  13  32  13  33  13
M  ISO  6  34  14  35  14  36  14  37  14  38  14  39  14
M  END
>  <minimizedAffinity>  (1) 
-5.09106302

>  <minimizedRMSD>  (1) 
2.00740886

$$$$
