
     RDKit          3D

 38 40  0  0  1  0  0  0  0  0999 V2000
   39.3880   22.8500   37.1380 C   0  0  1  0  0  0  0  0  0  0  0  0
   39.2440   23.4630   38.5410 C   0  0  0  0  0  0  0  0  0  0  0  0
   37.9320   24.1720   38.5010 C   0  0  0  0  0  0  0  0  0  0  0  0
   37.4860   24.2090   37.0930 C   0  0  0  0  0  0  0  0  0  0  0  0
   38.7300   23.8290   36.3240 C   0  0  2  0  0  0  0  0  0  0  0  0
   41.5490   23.4170   36.0890 C   0  0  0  0  0  0  0  0  0  0  0  0
   40.7920   22.5230   36.8380 C   0  0  0  0  0  0  0  0  0  0  0  0
   41.3680   21.3300   37.2970 C   0  0  0  0  0  0  0  0  0  0  0  0
   42.6550   21.1050   36.9800 N   0  0  0  0  0  0  0  0  0  0  0  0
   43.4000   21.9680   36.2520 C   0  0  0  0  0  0  0  0  0  0  0  0
   42.8360   23.1450   35.7970 N   0  0  0  0  0  0  0  0  0  0  0  0
   38.3330   23.4030   34.9970 C   0  0  0  0  0  0  0  0  0  0  0  0
   37.5040   22.3190   34.9660 C   0  0  0  0  0  0  0  0  0  0  0  0
   37.3140   22.1370   33.1610 S   0  0  0  0  0  0  0  0  0  0  0  0
   38.4250   23.6230   32.7610 C   0  0  0  0  0  0  0  0  0  0  0  0
   38.7390   23.9870   33.8930 N   0  0  0  0  0  0  0  0  0  0  0  0
   38.7170   24.1220   31.3730 C   0  0  0  0  0  0  0  0  0  0  0  0
   37.5690   23.9510   30.5760 F   0  0  0  0  0  0  0  0  0  0  0  0
   38.9100   25.4930   31.3940 F   0  0  0  0  0  0  0  0  0  0  0  0
   39.7560   23.4590   30.8250 F   0  0  0  0  0  0  0  0  0  0  0  0
   36.7650   21.2500   35.5470 C   0  0  0  0  0  0  0  0  0  0  0  0
   35.7520   20.7270   34.5520 C   0  0  0  0  0  0  0  0  0  0  0  0
   38.9282   21.8638   36.9767 H   0  0  0  0  0  0  0  0  0  0  0  0
   39.2389   22.6773   39.3108 H   0  0  0  0  0  0  0  0  0  0  0  0
   40.0773   24.1353   38.7933 H   0  0  0  0  0  0  0  0  0  0  0  0
   37.1951   23.6319   39.1136 H   0  0  0  0  0  0  0  0  0  0  0  0
   38.0320   25.1918   38.9011 H   0  0  0  0  0  0  0  0  0  0  0  0
   36.6772   23.4846   36.9167 H   0  0  0  0  0  0  0  0  0  0  0  0
   37.0784   25.1866   36.7962 H   0  0  0  0  0  0  0  0  0  0  0  0
   39.4465   24.6438   36.1430 H   0  0  0  0  0  0  0  0  0  0  0  0
   41.0941   24.3528   35.7323 H   0  0  0  0  0  0  0  0  0  0  0  0
   40.7904   20.6075   37.8923 H   0  0  0  0  0  0  0  0  0  0  0  0
   44.4502   21.7341   36.0231 H   0  0  0  0  0  0  0  0  0  0  0  0
   37.4540   20.4395   35.8269 H   0  0  0  0  0  0  0  0  0  0  0  0
   36.2399   21.6156   36.4418 H   0  0  0  0  0  0  0  0  0  0  0  0
   34.9006   20.2874   35.0923 H   0  0  0  0  0  0  0  0  0  0  0  0
   35.3975   21.5547   33.9202 H   0  0  0  0  0  0  0  0  0  0  0  0
   36.2215   19.9586   33.9202 H   0  0  0  0  0  0  0  0  0  0  0  0
  1  2  1  0
  3  2  1  0
  4  3  1  0
  5  4  1  0
  5  1  1  0
  6  7  2  0
  7  1  1  0
  7  8  1  0
  9  8  2  0
 10  9  1  0
 11  6  1  0
 11 10  2  0
 12  5  1  0
 13 12  2  0
 13 21  1  0
 14 13  1  0
 15 14  1  0
 15 16  2  0
 16 12  1  0
 17 19  1  0
 17 15  1  0
 18 17  1  0
 20 17  1  0
 22 21  1  0
  1 23  1  1
  2 24  1  0
  2 25  1  0
  3 26  1  0
  3 27  1  0
  4 28  1  0
  4 29  1  0
  5 30  1  6
  6 31  1  0
  8 32  1  0
 10 33  1  0
 21 34  1  0
 21 35  1  0
 22 36  1  0
 22 37  1  0
 22 38  1  0
M  ISO  8  23  13  24  13  25  13  26  13  27  13  28  13  29  13  30  13
M  ISO  8  31  14  32  14  33  14  34   8  35   8  36   8  37   8  38   8
M  END
>  <minimizedAffinity>  (1) 
-4.89340591

>  <minimizedRMSD>  (1) 
0.76281774

$$$$
