
     RDKit          3D

 39 42  0  0  1  0  0  0  0  0999 V2000
   39.5560   23.1550   36.5310 C   0  0  1  0  0  0  0  0  0  0  0  0
   39.0550   23.2580   37.9810 C   0  0  0  0  0  0  0  0  0  0  0  0
   37.8770   24.1720   37.9160 C   0  0  0  0  0  0  0  0  0  0  0  0
   37.8310   24.7450   36.5410 C   0  0  0  0  0  0  0  0  0  0  0  0
   39.2450   24.4680   36.0290 C   0  0  2  0  0  0  0  0  0  0  0  0
   41.9200   23.5740   35.9780 C   0  0  0  0  0  0  0  0  0  0  0  0
   40.9670   22.7090   36.4760 C   0  0  0  0  0  0  0  0  0  0  0  0
   41.3110   21.4200   36.9350 C   0  0  0  0  0  0  0  0  0  0  0  0
   42.6120   21.0860   36.8620 N   0  0  0  0  0  0  0  0  0  0  0  0
   43.5600   21.9300   36.3750 C   0  0  0  0  0  0  0  0  0  0  0  0
   43.2080   23.1850   35.9300 N   0  0  0  0  0  0  0  0  0  0  0  0
   39.1880   24.5630   34.5730 C   0  0  0  0  0  0  0  0  0  0  0  0
   38.4440   23.6330   33.9220 C   0  0  0  0  0  0  0  0  0  0  0  0
   38.7250   24.1360   32.1900 S   0  0  0  0  0  0  0  0  0  0  0  0
   39.8410   25.5850   32.6650 C   0  0  0  0  0  0  0  0  0  0  0  0
   39.8360   25.4790   33.8950 N   0  0  0  0  0  0  0  0  0  0  0  0
   37.4540   22.5900   34.0250 C   0  0  0  0  0  0  0  0  0  0  0  0
   36.7140   22.1330   32.8850 C   0  0  0  0  0  0  0  0  0  0  0  0
   35.8720   21.0940   33.1180 C   0  0  0  0  0  0  0  0  0  0  0  0
   35.7360   20.5250   34.3330 C   0  0  0  0  0  0  0  0  0  0  0  0
   36.8920   21.4990   35.3430 S   0  0  0  0  0  0  0  0  0  0  0  0
   40.4640   26.5390   31.6900 C   0  0  0  0  0  0  0  0  0  0  0  0
   39.4570   27.1060   30.8900 F   0  0  0  0  0  0  0  0  0  0  0  0
   41.0140   27.6220   32.3640 F   0  0  0  0  0  0  0  0  0  0  0  0
   41.3740   25.9180   30.9080 F   0  0  0  0  0  0  0  0  0  0  0  0
   39.0894   22.3855   35.8984 H   0  0  0  0  0  0  0  0  0  0  0  0
   38.7570   22.2688   38.3587 H   0  0  0  0  0  0  0  0  0  0  0  0
   39.8330   23.6328   38.6624 H   0  0  0  0  0  0  0  0  0  0  0  0
   36.9537   23.6100   38.1199 H   0  0  0  0  0  0  0  0  0  0  0  0
   37.9646   24.9714   38.6665 H   0  0  0  0  0  0  0  0  0  0  0  0
   37.0761   24.2376   35.9224 H   0  0  0  0  0  0  0  0  0  0  0  0
   37.5520   25.8087   36.5147 H   0  0  0  0  0  0  0  0  0  0  0  0
   40.0290   25.1661   36.3578 H   0  0  0  0  0  0  0  0  0  0  0  0
   41.6295   24.5738   35.6229 H   0  0  0  0  0  0  0  0  0  0  0  0
   40.5558   20.7253   37.3313 H   0  0  0  0  0  0  0  0  0  0  0  0
   44.6116   21.6095   36.3362 H   0  0  0  0  0  0  0  0  0  0  0  0
   36.8211   22.5922   31.8912 H   0  0  0  0  0  0  0  0  0  0  0  0
   35.2762   20.7001   32.2814 H   0  0  0  0  0  0  0  0  0  0  0  0
   35.0911   19.6867   34.6354 H   0  0  0  0  0  0  0  0  0  0  0  0
  1  2  1  0
  3  2  1  0
  4  3  1  0
  5  1  1  0
  5  4  1  0
  6  7  2  0
  7  1  1  0
  7  8  1  0
  9  8  2  0
 10  9  1  0
 11  6  1  0
 11 10  2  0
 12  5  1  0
 13 17  1  0
 13 12  2  0
 14 15  1  0
 14 13  1  0
 15 16  2  0
 16 12  1  0
 17 21  1  0
 18 19  1  0
 18 17  2  0
 19 20  2  0
 20 21  1  0
 22 24  1  0
 22 15  1  0
 23 22  1  0
 25 22  1  0
  1 26  1  6
  2 27  1  0
  2 28  1  0
  3 29  1  0
  3 30  1  0
  4 31  1  0
  4 32  1  0
  5 33  1  1
  6 34  1  0
  8 35  1  0
 10 36  1  0
 18 37  1  0
 19 38  1  0
 20 39  1  0
M  ISO  8  26  13  27  13  28  13  29  13  30  13  31  13  32  13  33  13
M  ISO  6  34  14  35  14  36  14  37  14  38  14  39  14
M  END
>  <minimizedAffinity>  (1) 
-4.83417606

>  <minimizedRMSD>  (1) 
2.71549153

$$$$
