
     RDKit          3D

 35 37  0  0  1  0  0  0  0  0999 V2000
   39.3910   22.9450   37.0640 C   0  0  1  0  0  0  0  0  0  0  0  0
   39.2340   23.4550   38.5060 C   0  0  0  0  0  0  0  0  0  0  0  0
   37.9380   24.1880   38.4920 C   0  0  0  0  0  0  0  0  0  0  0  0
   37.5350   24.3570   37.0790 C   0  0  0  0  0  0  0  0  0  0  0  0
   38.7890   24.0010   36.3150 C   0  0  2  0  0  0  0  0  0  0  0  0
   41.5500   23.4620   36.0090 C   0  0  0  0  0  0  0  0  0  0  0  0
   40.7920   22.5850   36.7670 C   0  0  0  0  0  0  0  0  0  0  0  0
   41.3390   21.3820   37.2540 C   0  0  0  0  0  0  0  0  0  0  0  0
   42.6240   21.1340   36.9450 N   0  0  0  0  0  0  0  0  0  0  0  0
   43.3800   21.9890   36.2010 C   0  0  0  0  0  0  0  0  0  0  0  0
   42.8360   23.1570   35.7330 N   0  0  0  0  0  0  0  0  0  0  0  0
   38.3880   23.6520   34.9560 C   0  0  0  0  0  0  0  0  0  0  0  0
   37.6590   22.5140   34.8070 C   0  0  0  0  0  0  0  0  0  0  0  0
   37.4620   22.5000   32.9990 S   0  0  0  0  0  0  0  0  0  0  0  0
   38.4310   24.1040   32.7490 C   0  0  0  0  0  0  0  0  0  0  0  0
   38.7340   24.3870   33.9180 N   0  0  0  0  0  0  0  0  0  0  0  0
   38.6680   24.7610   31.4220 C   0  0  0  0  0  0  0  0  0  0  0  0
   37.6130   24.4340   30.5470 F   0  0  0  0  0  0  0  0  0  0  0  0
   38.5750   26.1390   31.5440 F   0  0  0  0  0  0  0  0  0  0  0  0
   39.8440   24.3720   30.8860 F   0  0  0  0  0  0  0  0  0  0  0  0
   37.0200   21.4220   35.4470 C   0  0  0  0  0  0  0  0  0  0  0  0
   38.9010   21.9910   36.8194 H   0  0  0  0  0  0  0  0  0  0  0  0
   39.2002   22.6153   39.2158 H   0  0  0  0  0  0  0  0  0  0  0  0
   40.0747   24.0892   38.8237 H   0  0  0  0  0  0  0  0  0  0  0  0
   37.1744   23.6101   39.0333 H   0  0  0  0  0  0  0  0  0  0  0  0
   38.0423   25.1665   38.9836 H   0  0  0  0  0  0  0  0  0  0  0  0
   36.7098   23.6772   36.8206 H   0  0  0  0  0  0  0  0  0  0  0  0
   37.1668   25.3689   36.8545 H   0  0  0  0  0  0  0  0  0  0  0  0
   39.5299   24.8070   36.2077 H   0  0  0  0  0  0  0  0  0  0  0  0
   41.1087   24.3978   35.6355 H   0  0  0  0  0  0  0  0  0  0  0  0
   40.7445   20.6801   37.8572 H   0  0  0  0  0  0  0  0  0  0  0  0
   44.4279   21.7419   35.9756 H   0  0  0  0  0  0  0  0  0  0  0  0
   37.0912   21.5436   36.5379 H   0  0  0  0  0  0  0  0  0  0  0  0
   35.9614   21.3912   35.1498 H   0  0  0  0  0  0  0  0  0  0  0  0
   37.5117   20.4840   35.1498 H   0  0  0  0  0  0  0  0  0  0  0  0
  1  2  1  0
  3  2  1  0
  4  3  1  0
  5  1  1  0
  5  4  1  0
  6  7  2  0
  7  1  1  0
  7  8  1  0
  9  8  2  0
 10  9  1  0
 11  6  1  0
 11 10  2  0
 12  5  1  0
 13 12  2  0
 13 21  1  0
 14 13  1  0
 15 14  1  0
 15 16  2  0
 16 12  1  0
 17 19  1  0
 17 15  1  0
 18 17  1  0
 20 17  1  0
  1 22  1  1
  2 23  1  0
  2 24  1  0
  3 25  1  0
  3 26  1  0
  4 27  1  0
  4 28  1  0
  5 29  1  6
  6 30  1  0
  8 31  1  0
 10 32  1  0
 21 33  1  0
 21 34  1  0
 21 35  1  0
M  ISO  8  22  13  23  13  24  13  25  13  26  13  27  13  28  13  29  13
M  ISO  6  30  14  31  14  32  14  33   8  34   8  35   8
M  END
>  <minimizedAffinity>  (1) 
-4.77994585

>  <minimizedRMSD>  (1) 
0.831887245

$$$$
