
     RDKit          3D

 38 41  0  0  1  0  0  0  0  0999 V2000
   39.5920   23.0410   36.9270 C   0  0  1  0  0  0  0  0  0  0  0  0
   39.2470   23.1830   38.4220 C   0  0  0  0  0  0  0  0  0  0  0  0
   38.1070   24.1420   38.4700 C   0  0  0  0  0  0  0  0  0  0  0  0
   37.9040   24.6550   37.0860 C   0  0  0  0  0  0  0  0  0  0  0  0
   39.2550   24.3510   36.4340 C   0  0  2  0  0  0  0  0  0  0  0  0
   41.8900   23.3880   36.1010 C   0  0  0  0  0  0  0  0  0  0  0  0
   40.9820   22.5670   36.7300 C   0  0  0  0  0  0  0  0  0  0  0  0
   41.3420   21.2830   37.1950 C   0  0  0  0  0  0  0  0  0  0  0  0
   42.6140   20.9030   36.9910 N   0  0  0  0  0  0  0  0  0  0  0  0
   43.5250   21.7090   36.3680 C   0  0  0  0  0  0  0  0  0  0  0  0
   43.1530   22.9650   35.9190 N   0  0  0  0  0  0  0  0  0  0  0  0
   39.0510   24.4330   34.9940 C   0  0  0  0  0  0  0  0  0  0  0  0
   38.2020   23.5350   34.4440 C   0  0  0  0  0  0  0  0  0  0  0  0
   38.3140   24.0060   32.6870 S   0  0  0  0  0  0  0  0  0  0  0  0
   39.5440   25.4130   33.0180 C   0  0  0  0  0  0  0  0  0  0  0  0
   39.6630   25.3120   34.2380 N   0  0  0  0  0  0  0  0  0  0  0  0
   37.2530   22.4430   34.6750 C   0  0  0  0  0  0  0  0  0  0  0  0
   36.7530   22.3700   36.1070 C   0  0  0  0  0  0  0  0  0  0  0  0
   35.7060   20.8000   35.9940 S   0  0  0  0  0  0  0  0  0  0  0  0
   36.0900   20.5230   34.1700 C   0  0  0  0  0  0  0  0  0  0  0  0
   36.8680   21.5100   33.8570 N   0  0  0  0  0  0  0  0  0  0  0  0
   40.0860   26.3230   31.9600 C   0  0  0  0  0  0  0  0  0  0  0  0
   39.0580   26.6820   31.0730 F   0  0  0  0  0  0  0  0  0  0  0  0
   40.4820   27.5270   32.5280 F   0  0  0  0  0  0  0  0  0  0  0  0
   41.0950   25.7390   31.2800 F   0  0  0  0  0  0  0  0  0  0  0  0
   39.0475   22.2673   36.3658 H   0  0  0  0  0  0  0  0  0  0  0  0
   38.9516   22.2110   38.8438 H   0  0  0  0  0  0  0  0  0  0  0  0
   40.1065   23.5359   39.0108 H   0  0  0  0  0  0  0  0  0  0  0  0
   37.1982   23.6299   38.8192 H   0  0  0  0  0  0  0  0  0  0  0  0
   38.3203   24.9675   39.1650 H   0  0  0  0  0  0  0  0  0  0  0  0
   37.0861   24.1228   36.5782 H   0  0  0  0  0  0  0  0  0  0  0  0
   37.6192   25.7166   37.0433 H   0  0  0  0  0  0  0  0  0  0  0  0
   40.0823   25.0382   36.6649 H   0  0  0  0  0  0  0  0  0  0  0  0
   41.5841   24.3844   35.7493 H   0  0  0  0  0  0  0  0  0  0  0  0
   40.6170   20.6270   37.6990 H   0  0  0  0  0  0  0  0  0  0  0  0
   44.5576   21.3587   36.2227 H   0  0  0  0  0  0  0  0  0  0  0  0
   36.9443   23.0364   36.9610 H   0  0  0  0  0  0  0  0  0  0  0  0
   35.7348   19.7096   33.5202 H   0  0  0  0  0  0  0  0  0  0  0  0
  1  2  1  0
  2  3  1  0
  4  3  1  0
  5  1  1  0
  5  4  1  0
  6  7  2  0
  7  1  1  0
  7  8  1  0
  9  8  2  0
 10  9  1  0
 11  6  1  0
 11 10  2  0
 12  5  1  0
 13 17  1  0
 13 12  2  0
 14 15  1  0
 14 13  1  0
 15 16  2  0
 16 12  1  0
 17 18  2  0
 19 18  1  0
 20 19  1  0
 21 20  2  0
 21 17  1  0
 22 24  1  0
 22 15  1  0
 23 22  1  0
 25 22  1  0
  1 26  1  6
  2 27  1  0
  2 28  1  0
  3 29  1  0
  3 30  1  0
  4 31  1  0
  4 32  1  0
  5 33  1  1
  6 34  1  0
  8 35  1  0
 10 36  1  0
 18 37  1  0
 20 38  1  0
M  ISO  8  26  13  27  13  28  13  29  13  30  13  31  13  32  13  33  13
M  ISO  5  34  14  35  14  36  14  37  14  38  14
M  END
>  <minimizedAffinity>  (1) 
-4.47654438

>  <minimizedRMSD>  (1) 
2.26695895

$$$$
