
     RDKit          3D

 34 38  0  0  0  0  0  0  0  0999 V2000
   38.6552   24.5224   36.6074 N   0  0  0  0  0  0  0  0  0  0  0  0
   38.1365   24.1818   37.7996 C   0  0  0  0  0  0  0  0  0  0  0  0
   38.8075   23.1654   38.3690 N   0  0  0  0  0  0  0  0  0  0  0  0
   39.7847   22.8480   37.5131 C   0  0  0  0  0  0  0  0  0  0  0  0
   40.7937   21.9103   37.5133 C   0  0  0  0  0  0  0  0  0  0  0  0
   41.6949   21.7641   36.5116 N   0  0  0  0  0  0  0  0  0  0  0  0
   41.5557   22.6153   35.4654 C   0  0  0  0  0  0  0  0  0  0  0  0
   40.5725   23.5236   35.4730 N   0  0  0  0  0  0  0  0  0  0  0  0
   39.6747   23.7013   36.4246 C   0  0  0  0  0  0  0  0  0  0  0  0
   37.6459   25.2134   34.5141 C   0  0  0  0  0  0  0  0  0  0  0  0
   38.1862   25.5329   35.7744 C   0  0  0  0  0  0  0  0  0  0  0  0
   38.2269   26.8631   36.1344 C   0  0  0  0  0  0  0  0  0  0  0  0
   37.7578   27.8080   35.2881 N   0  0  0  0  0  0  0  0  0  0  0  0
   37.2424   27.4830   34.0815 C   0  0  0  0  0  0  0  0  0  0  0  0
   37.1863   26.1915   33.6955 N   0  0  0  0  0  0  0  0  0  0  0  0
   37.2843   24.6192   38.3132 H   0  0  0  0  0  0  0  0  0  0  0  0
   40.9274   21.2187   38.3357 H   0  0  0  0  0  0  0  0  0  0  0  0
   42.1727   22.6605   34.5691 H   0  0  0  0  0  0  0  0  0  0  0  0
   37.6280   24.1460   34.2578 H   0  0  0  0  0  0  0  0  0  0  0  0
   38.6497   27.0997   37.1180 H   0  0  0  0  0  0  0  0  0  0  0  0
   36.7583   28.5066   33.2178 N   0  0  0  0  0  0  0  0  0  0  0  0
   37.0813   28.7080   31.9153 C   0  0  0  0  0  0  0  0  0  0  0  0
   36.4115   29.7918   31.4265 N   0  0  0  0  0  0  0  0  0  0  0  0
   35.6813   30.2357   32.4606 C   0  0  0  0  0  0  0  0  0  0  0  0
   34.8018   31.2838   32.6154 C   0  0  0  0  0  0  0  0  0  0  0  0
   34.4971   32.1695   31.5589 N   0  0  0  0  0  0  0  0  0  0  0  0
   34.1826   31.5194   33.7913 N   0  0  0  0  0  0  0  0  0  0  0  0
   34.3980   30.7371   34.8701 C   0  0  0  0  0  0  0  0  0  0  0  0
   35.2529   29.7046   34.7486 N   0  0  0  0  0  0  0  0  0  0  0  0
   35.8658   29.4682   33.5914 C   0  0  0  0  0  0  0  0  0  0  0  0
   37.7880   28.0650   31.3680 H   0  0  0  0  0  0  0  0  0  0  0  0
   34.0210   32.2356   30.6395 H   0  0  0  0  0  0  0  0  0  0  0  0
   33.9467   31.6019   30.8535 H   0  0  0  0  0  0  0  0  0  0  0  0
   33.9442   30.8564   35.8453 H   0  0  0  0  0  0  0  0  0  0  0  0
  1  2  1  0
  2  3  2  0
  4  5  2  0
  4  3  1  0
  6  5  1  0
  7  6  2  0
  8  7  1  0
  8  9  2  0
  9  1  1  0
  9  4  1  0
 10 11  2  0
 11 12  1  0
 11  1  1  0
 13 12  2  0
 14 13  1  0
 15 14  2  0
 15 10  1  0
  2 16  1  0
  5 17  1  0
  7 18  1  0
 10 19  1  0
 12 20  1  0
 21 22  1  0
 22 23  2  0
 23 24  1  0
 24 25  2  0
 25 26  1  0
 25 27  1  0
 27 28  2  0
 28 29  1  0
 29 30  2  0
 30 21  1  0
 30 24  1  0
 22 31  1  0
 26 32  1  0
 26 33  1  0
 28 34  1  0
 14 21  1  0
M  END
>  <DihAtoms>  (1) 
12,13,20,21

>  <DihDeg>  (1) 
-156.61195988623257

$$$$
