
     RDKit          3D

 35 39  0  0  0  0  0  0  0  0999 V2000
   37.5890   25.1580   34.5580 C   0  0  0  0  0  0  0  0  0  0  0  0
   38.1890   25.4740   35.7690 C   0  0  0  0  0  0  0  0  0  0  0  0
   38.2990   26.8100   36.0890 C   0  0  0  0  0  0  0  0  0  0  0  0
   37.8310   27.7500   35.2340 N   0  0  0  0  0  0  0  0  0  0  0  0
   37.2560   27.4230   34.0700 C   0  0  0  0  0  0  0  0  0  0  0  0
   37.1430   26.1480   33.7490 N   0  0  0  0  0  0  0  0  0  0  0  0
   38.6700   24.4750   36.6100 N   0  0  0  0  0  0  0  0  0  0  0  0
   38.1840   24.1350   37.8040 C   0  0  0  0  0  0  0  0  0  0  0  0
   38.8710   23.1340   38.3680 N   0  0  0  0  0  0  0  0  0  0  0  0
   39.8370   22.8110   37.5100 C   0  0  0  0  0  0  0  0  0  0  0  0
   40.8530   21.8810   37.5010 C   0  0  0  0  0  0  0  0  0  0  0  0
   41.7380   21.7320   36.4860 N   0  0  0  0  0  0  0  0  0  0  0  0
   41.5760   22.5760   35.4310 C   0  0  0  0  0  0  0  0  0  0  0  0
   40.5980   23.4770   35.4310 N   0  0  0  0  0  0  0  0  0  0  0  0
   39.7100   23.6530   36.4100 C   0  0  0  0  0  0  0  0  0  0  0  0
   36.6880   28.2700   33.0050 C   0  0  0  0  0  0  0  0  0  0  0  0
   36.9500   28.1260   31.6930 N   0  0  0  0  0  0  0  0  0  0  0  0
   36.4580   28.8660   30.7060 C   0  0  0  0  0  0  0  0  0  0  0  0
   35.6070   29.8760   30.9870 N   0  0  0  0  0  0  0  0  0  0  0  0
   35.2590   30.1290   32.2840 C   0  0  0  0  0  0  0  0  0  0  0  0
   34.3900   31.1660   32.5330 C   0  0  0  0  0  0  0  0  0  0  0  0
   34.0220   31.4430   33.8320 C   0  0  0  0  0  0  0  0  0  0  0  0
   34.5660   30.6350   34.8370 C   0  0  0  0  0  0  0  0  0  0  0  0
   35.4180   29.6280   34.5110 C   0  0  0  0  0  0  0  0  0  0  0  0
   35.8170   29.3100   33.2410 C   0  0  0  0  0  0  0  0  0  0  0  0
   37.4761   24.1062   34.2563 H   0  0  0  0  0  0  0  0  0  0  0  0
   38.7664   27.1124   37.0378 H   0  0  0  0  0  0  0  0  0  0  0  0
   37.3163   24.6221   38.2729 H   0  0  0  0  0  0  0  0  0  0  0  0
   40.9521   21.2175   38.3728 H   0  0  0  0  0  0  0  0  0  0  0  0
   42.2594   22.5125   34.5714 H   0  0  0  0  0  0  0  0  0  0  0  0
   36.7425   28.6570   29.6642 H   0  0  0  0  0  0  0  0  0  0  0  0
   33.9925   31.7686   31.7030 H   0  0  0  0  0  0  0  0  0  0  0  0
   33.3299   32.2645   34.0689 H   0  0  0  0  0  0  0  0  0  0  0  0
   34.3040   30.8151   35.8901 H   0  0  0  0  0  0  0  0  0  0  0  0
   35.8196   29.0191   35.3344 H   0  0  0  0  0  0  0  0  0  0  0  0
  1  2  2  0
  2  3  1  0
  2  7  1  0
  4  3  2  0
  5  4  1  0
  6  5  2  0
  6  1  1  0
  7  8  1  0
  8  9  2  0
 10  9  1  0
 11 10  2  0
 12 11  1  0
 13 14  1  0
 13 12  2  0
 14 15  2  0
 15  7  1  0
 15 10  1  0
 16 25  1  0
 16  5  1  0
 17 16  2  0
 18 19  2  0
 18 17  1  0
 19 20  1  0
 20 21  1  0
 20 25  2  0
 21 22  2  0
 22 23  1  0
 24 23  2  0
 25 24  1  0
  1 26  1  0
  3 27  1  0
  8 28  1  0
 11 29  1  0
 13 30  1  0
 18 31  1  0
 21 32  1  0
 22 33  1  0
 23 34  1  0
 24 35  1  0
M  ISO  8  26  14  27  14  28  14  29  14  30  14  31  14  32  14  33  14
M  ISO  2  34  14  35  14
M  END
>  <minimizedAffinity>  (1) 
-6.22179413

>  <minimizedRMSD>  (1) 
0.356761664

$$$$
