
     RDKit          3D

 34 37  0  0  0  0  0  0  0  0999 V2000
   37.6140   25.1030   34.5100 C   0  0  0  0  0  0  0  0  0  0  0  0
   38.1970   25.4550   35.7370 C   0  0  0  0  0  0  0  0  0  0  0  0
   38.2710   26.8010   36.0750 C   0  0  0  0  0  0  0  0  0  0  0  0
   37.7720   27.7110   35.1910 N   0  0  0  0  0  0  0  0  0  0  0  0
   37.2160   27.3450   34.0150 C   0  0  0  0  0  0  0  0  0  0  0  0
   37.1390   26.0600   33.6830 N   0  0  0  0  0  0  0  0  0  0  0  0
   36.7150   28.3530   33.1430 N   0  0  0  0  0  0  0  0  0  0  0  0
   37.2390   28.5150   31.8020 C   0  0  0  0  0  0  0  0  0  0  0  0
   36.1920   28.9760   30.8200 C   0  0  0  0  0  0  0  0  0  0  0  0
   35.2040   29.7570   31.3630 O   0  0  0  0  0  0  0  0  0  0  0  0
   34.6030   29.2120   32.4840 C   0  0  0  0  0  0  0  0  0  0  0  0
   35.6600   29.2420   33.5910 C   0  0  0  0  0  0  0  0  0  0  0  0
   38.6870   24.4600   36.5910 N   0  0  0  0  0  0  0  0  0  0  0  0
   38.1870   24.1360   37.7990 C   0  0  0  0  0  0  0  0  0  0  0  0
   38.8750   23.1380   38.3790 N   0  0  0  0  0  0  0  0  0  0  0  0
   39.8550   22.8090   37.5100 C   0  0  0  0  0  0  0  0  0  0  0  0
   40.8680   21.8810   37.5250 C   0  0  0  0  0  0  0  0  0  0  0  0
   41.7470   21.7310   36.5200 N   0  0  0  0  0  0  0  0  0  0  0  0
   41.5860   22.5650   35.4520 C   0  0  0  0  0  0  0  0  0  0  0  0
   40.6020   23.4570   35.4520 N   0  0  0  0  0  0  0  0  0  0  0  0
   39.7180   23.6420   36.4090 C   0  0  0  0  0  0  0  0  0  0  0  0
   37.5435   24.0441   34.2205 H   0  0  0  0  0  0  0  0  0  0  0  0
   38.7187   27.1224   37.0270 H   0  0  0  0  0  0  0  0  0  0  0  0
   38.0488   29.2590   31.8281 H   0  0  0  0  0  0  0  0  0  0  0  0
   37.6003   27.5321   31.4655 H   0  0  0  0  0  0  0  0  0  0  0  0
   35.7212   28.0858   30.3774 H   0  0  0  0  0  0  0  0  0  0  0  0
   36.7127   29.6018   30.0803 H   0  0  0  0  0  0  0  0  0  0  0  0
   33.7273   29.8101   32.7763 H   0  0  0  0  0  0  0  0  0  0  0  0
   34.2512   28.1875   32.2927 H   0  0  0  0  0  0  0  0  0  0  0  0
   35.2333   28.8848   34.5399 H   0  0  0  0  0  0  0  0  0  0  0  0
   36.0336   30.2608   33.7713 H   0  0  0  0  0  0  0  0  0  0  0  0
   37.3176   24.6303   38.2570 H   0  0  0  0  0  0  0  0  0  0  0  0
   40.9643   21.2275   38.4046 H   0  0  0  0  0  0  0  0  0  0  0  0
   42.2698   22.4986   34.5929 H   0  0  0  0  0  0  0  0  0  0  0  0
  1  2  2  0
  2  3  1  0
  2 13  1  0
  4  3  2  0
  5  4  1  0
  6  5  2  0
  6  1  1  0
  7 12  1  0
  7  5  1  0
  8  7  1  0
  9 10  1  0
  9  8  1  0
 10 11  1  0
 11 12  1  0
 13 14  1  0
 14 15  2  0
 16 17  2  0
 16 15  1  0
 18 17  1  0
 19 20  1  0
 19 18  2  0
 20 21  2  0
 21 13  1  0
 21 16  1  0
  1 22  1  0
  3 23  1  0
  8 24  1  0
  8 25  1  0
  9 26  1  0
  9 27  1  0
 11 28  1  0
 11 29  1  0
 12 30  1  0
 12 31  1  0
 14 32  1  0
 17 33  1  0
 19 34  1  0
M  ISO  8  22  14  23  14  24  13  25  13  26  13  27  13  28  13  29  13
M  ISO  5  30  13  31  13  32  14  33  14  34  14
M  END
>  <minimizedAffinity>  (1) 
-5.539042

>  <minimizedRMSD>  (1) 
0.135721207

$$$$
