
     RDKit          3D

 34 37  0  0  0  0  0  0  0  0999 V2000
   37.7630   24.7470   34.1350 C   0  0  0  0  0  0  0  0  0  0  0  0
   38.0920   25.2010   35.4090 C   0  0  0  0  0  0  0  0  0  0  0  0
   37.8830   26.5370   35.6960 C   0  0  0  0  0  0  0  0  0  0  0  0
   37.3710   27.3480   34.7390 N   0  0  0  0  0  0  0  0  0  0  0  0
   37.0600   26.8800   33.5090 C   0  0  0  0  0  0  0  0  0  0  0  0
   37.2560   25.5830   33.2070 N   0  0  0  0  0  0  0  0  0  0  0  0
   38.6170   24.3220   36.3570 N   0  0  0  0  0  0  0  0  0  0  0  0
   38.1260   24.1100   37.6020 C   0  0  0  0  0  0  0  0  0  0  0  0
   38.8550   23.2010   38.2760 N   0  0  0  0  0  0  0  0  0  0  0  0
   39.8410   22.8200   37.4430 C   0  0  0  0  0  0  0  0  0  0  0  0
   40.8910   21.9350   37.5420 C   0  0  0  0  0  0  0  0  0  0  0  0
   41.7770   21.7070   36.5570 N   0  0  0  0  0  0  0  0  0  0  0  0
   41.5890   22.4120   35.4140 C   0  0  0  0  0  0  0  0  0  0  0  0
   40.5740   23.2670   35.3190 N   0  0  0  0  0  0  0  0  0  0  0  0
   39.6740   23.5280   36.2600 C   0  0  0  0  0  0  0  0  0  0  0  0
   36.4940   27.7580   32.4370 C   0  0  0  0  0  0  0  0  0  0  0  0
   36.0270   29.0730   32.9680 C   0  0  0  0  0  0  0  0  0  0  0  0
   35.8590   29.8580   31.6600 C   0  0  0  0  0  0  0  0  0  0  0  0
   37.0850   29.4270   30.8450 C   0  0  0  0  0  0  0  0  0  0  0  0
   37.5710   28.1500   31.4490 C   0  0  0  0  0  0  0  0  0  0  0  0
   37.9194   23.6882   33.8812 H   0  0  0  0  0  0  0  0  0  0  0  0
   38.1297   26.9373   36.6904 H   0  0  0  0  0  0  0  0  0  0  0  0
   37.2406   24.6182   38.0116 H   0  0  0  0  0  0  0  0  0  0  0  0
   41.0123   21.3808   38.4844 H   0  0  0  0  0  0  0  0  0  0  0  0
   42.2757   22.2770   34.5653 H   0  0  0  0  0  0  0  0  0  0  0  0
   35.6735   27.1739   31.9947 H   0  0  0  0  0  0  0  0  0  0  0  0
   35.0743   28.9773   33.5096 H   0  0  0  0  0  0  0  0  0  0  0  0
   36.7040   29.5391   33.6990 H   0  0  0  0  0  0  0  0  0  0  0  0
   34.9256   29.5804   31.1484 H   0  0  0  0  0  0  0  0  0  0  0  0
   35.7964   30.9459   31.8100 H   0  0  0  0  0  0  0  0  0  0  0  0
   37.8688   30.1966   30.9025 H   0  0  0  0  0  0  0  0  0  0  0  0
   36.8287   29.2918   29.7839 H   0  0  0  0  0  0  0  0  0  0  0  0
   37.6892   27.3758   30.6765 H   0  0  0  0  0  0  0  0  0  0  0  0
   38.5542   28.2643   31.9288 H   0  0  0  0  0  0  0  0  0  0  0  0
  1  2  2  0
  2  3  1  0
  2  7  1  0
  4  3  2  0
  5  4  1  0
  6  5  2  0
  6  1  1  0
  7  8  1  0
  8  9  2  0
 10 11  2  0
 10  9  1  0
 12 11  1  0
 13 12  2  0
 14 13  1  0
 14 15  2  0
 15  7  1  0
 15 10  1  0
 16 17  1  0
 16  5  1  0
 18 17  1  0
 19 20  1  0
 19 18  1  0
 20 16  1  0
  1 21  1  0
  3 22  1  0
  8 23  1  0
 11 24  1  0
 13 25  1  0
 16 26  1  0
 17 27  1  0
 17 28  1  0
 18 29  1  0
 18 30  1  0
 19 31  1  0
 19 32  1  0
 20 33  1  0
 20 34  1  0
M  ISO  8  21  14  22  14  23  14  24  14  25  14  26  13  27  13  28  13
M  ISO  6  29  13  30  13  31  13  32  13  33  13  34  13
M  END
>  <minimizedAffinity>  (1) 
-5.26535368

>  <minimizedRMSD>  (1) 
0.737214983

$$$$
