
     RDKit          3D

 37 40  0  0  0  0  0  0  0  0999 V2000
   37.6190   24.6150   33.7590 C   0  0  0  0  0  0  0  0  0  0  0  0
   37.7800   25.1580   35.0430 C   0  0  0  0  0  0  0  0  0  0  0  0
   37.4190   26.4730   35.2600 C   0  0  0  0  0  0  0  0  0  0  0  0
   36.9190   27.1990   34.2220 N   0  0  0  0  0  0  0  0  0  0  0  0
   36.7730   26.6550   32.9930 C   0  0  0  0  0  0  0  0  0  0  0  0
   37.1190   25.3900   32.7780 N   0  0  0  0  0  0  0  0  0  0  0  0
   38.3010   24.3640   36.0790 N   0  0  0  0  0  0  0  0  0  0  0  0
   37.6550   24.0170   37.2160 C   0  0  0  0  0  0  0  0  0  0  0  0
   38.4290   23.2520   38.0000 N   0  0  0  0  0  0  0  0  0  0  0  0
   39.6040   23.1000   37.3520 C   0  0  0  0  0  0  0  0  0  0  0  0
   40.7690   22.4370   37.6460 C   0  0  0  0  0  0  0  0  0  0  0  0
   41.8320   22.4230   36.8380 N   0  0  0  0  0  0  0  0  0  0  0  0
   41.7120   23.1170   35.6710 C   0  0  0  0  0  0  0  0  0  0  0  0
   40.5760   23.7590   35.3950 N   0  0  0  0  0  0  0  0  0  0  0  0
   39.5010   23.7990   36.1650 C   0  0  0  0  0  0  0  0  0  0  0  0
   36.2230   27.4560   31.8540 C   0  0  0  0  0  0  0  0  0  0  0  0
   37.0210   27.1630   30.6010 C   0  0  0  0  0  0  0  0  0  0  0  0
   38.2690   27.9860   30.5010 C   0  0  0  0  0  0  0  0  0  0  0  0
   37.8950   29.4200   30.2250 C   0  0  0  0  0  0  0  0  0  0  0  0
   36.5510   29.6930   30.8720 C   0  0  0  0  0  0  0  0  0  0  0  0
   36.4350   28.9250   32.1770 C   0  0  0  0  0  0  0  0  0  0  0  0
   37.8975   23.5703   33.5567 H   0  0  0  0  0  0  0  0  0  0  0  0
   37.5335   26.9269   36.2554 H   0  0  0  0  0  0  0  0  0  0  0  0
   36.6281   24.3227   37.4651 H   0  0  0  0  0  0  0  0  0  0  0  0
   40.8304   21.8882   38.5973 H   0  0  0  0  0  0  0  0  0  0  0  0
   42.5498   23.1475   34.9588 H   0  0  0  0  0  0  0  0  0  0  0  0
   35.1612   27.2110   31.7042 H   0  0  0  0  0  0  0  0  0  0  0  0
   37.3009   26.0992   30.6035 H   0  0  0  0  0  0  0  0  0  0  0  0
   36.3874   27.4166   29.7383 H   0  0  0  0  0  0  0  0  0  0  0  0
   38.8260   27.9265   31.4477 H   0  0  0  0  0  0  0  0  0  0  0  0
   38.8995   27.6043   29.6844 H   0  0  0  0  0  0  0  0  0  0  0  0
   38.6558   30.0914   30.6497 H   0  0  0  0  0  0  0  0  0  0  0  0
   37.8368   29.5952   29.1406 H   0  0  0  0  0  0  0  0  0  0  0  0
   36.4564   30.7702   31.0740 H   0  0  0  0  0  0  0  0  0  0  0  0
   35.7507   29.3686   30.1907 H   0  0  0  0  0  0  0  0  0  0  0  0
   35.5805   29.3047   32.7564 H   0  0  0  0  0  0  0  0  0  0  0  0
   37.3515   29.0518   32.7719 H   0  0  0  0  0  0  0  0  0  0  0  0
  1  2  2  0
  2  3  1  0
  2  7  1  0
  4  3  2  0
  5  4  1  0
  6  5  2  0
  6  1  1  0
  7 15  1  0
  7  8  1  0
  8  9  2  0
 10 11  2  0
 10  9  1  0
 12 11  1  0
 13 12  2  0
 14 13  1  0
 14 15  2  0
 15 10  1  0
 16 21  1  0
 16  5  1  0
 17 16  1  0
 18 17  1  0
 19 18  1  0
 19 20  1  0
 20 21  1  0
  1 22  1  0
  3 23  1  0
  8 24  1  0
 11 25  1  0
 13 26  1  0
 16 27  1  0
 17 28  1  0
 17 29  1  0
 18 30  1  0
 18 31  1  0
 19 32  1  0
 19 33  1  0
 20 34  1  0
 20 35  1  0
 21 36  1  0
 21 37  1  0
M  ISO  8  22  14  23  14  24  14  25  14  26  14  27  13  28  13  29  13
M  ISO  8  30  13  31  13  32  13  33  13  34  13  35  13  36  13  37  13
M  END
>  <minimizedAffinity>  (1) 
-5.1310668

>  <minimizedRMSD>  (1) 
1.04894829

$$$$
