
     RDKit          3D

 33 35  0  0  0  0  0  0  0  0999 V2000
   38.5900   24.3540   36.3740 N   0  0  0  0  0  0  0  0  0  0  0  0
   38.0590   24.1590   37.5970 C   0  0  0  0  0  0  0  0  0  0  0  0
   38.7510   23.2430   38.3030 N   0  0  0  0  0  0  0  0  0  0  0  0
   39.7600   22.8400   37.5000 C   0  0  0  0  0  0  0  0  0  0  0  0
   40.7930   21.9380   37.6430 C   0  0  0  0  0  0  0  0  0  0  0  0
   41.7020   21.6920   36.6890 N   0  0  0  0  0  0  0  0  0  0  0  0
   41.5630   22.3900   35.5370 C   0  0  0  0  0  0  0  0  0  0  0  0
   40.5630   23.2620   35.4030 N   0  0  0  0  0  0  0  0  0  0  0  0
   39.6440   23.5350   36.3210 C   0  0  0  0  0  0  0  0  0  0  0  0
   37.7820   24.7610   34.1330 C   0  0  0  0  0  0  0  0  0  0  0  0
   38.1130   25.2310   35.4060 C   0  0  0  0  0  0  0  0  0  0  0  0
   37.9480   26.5790   35.6590 C   0  0  0  0  0  0  0  0  0  0  0  0
   37.4800   27.3930   34.6840 N   0  0  0  0  0  0  0  0  0  0  0  0
   37.1650   26.9190   33.4600 C   0  0  0  0  0  0  0  0  0  0  0  0
   37.3180   25.6070   33.1870 N   0  0  0  0  0  0  0  0  0  0  0  0
   36.6470   27.7440   32.3380 C   0  0  0  0  0  0  0  0  0  0  0  0
   37.8120   28.1520   31.4260 C   0  0  0  0  0  0  0  0  0  0  0  0
   36.0230   29.0110   32.8470 C   0  0  0  0  0  0  0  0  0  0  0  0
   35.6810   26.9790   31.4650 C   0  0  0  0  0  0  0  0  0  0  0  0
   37.1686   24.6838   37.9735 H   0  0  0  0  0  0  0  0  0  0  0  0
   40.8758   21.3896   38.5930 H   0  0  0  0  0  0  0  0  0  0  0  0
   42.2746   22.2378   34.7121 H   0  0  0  0  0  0  0  0  0  0  0  0
   37.9001   23.6928   33.8985 H   0  0  0  0  0  0  0  0  0  0  0  0
   38.1960   26.9893   36.6490 H   0  0  0  0  0  0  0  0  0  0  0  0
   38.6720   28.4532   32.0422 H   0  0  0  0  0  0  0  0  0  0  0  0
   38.0964   27.3000   30.7911 H   0  0  0  0  0  0  0  0  0  0  0  0
   37.5026   28.9953   30.7911 H   0  0  0  0  0  0  0  0  0  0  0  0
   36.0260   29.0050   33.9470 H   0  0  0  0  0  0  0  0  0  0  0  0
   36.5986   29.8750   32.4835 H   0  0  0  0  0  0  0  0  0  0  0  0
   34.9872   29.0814   32.4835 H   0  0  0  0  0  0  0  0  0  0  0  0
   34.9764   26.4210   32.0993 H   0  0  0  0  0  0  0  0  0  0  0  0
   35.1239   27.6835   30.8299 H   0  0  0  0  0  0  0  0  0  0  0  0
   36.2390   26.2753   30.8299 H   0  0  0  0  0  0  0  0  0  0  0  0
  1  2  1  0
  2  3  2  0
  4  5  2  0
  4  3  1  0
  6  5  1  0
  7  6  2  0
  8  7  1  0
  8  9  2  0
  9  1  1  0
  9  4  1  0
 10 11  2  0
 11 12  1  0
 11  1  1  0
 13 12  2  0
 14 13  1  0
 15 14  2  0
 15 10  1  0
 16 18  1  0
 16 14  1  0
 17 16  1  0
 19 16  1  0
  2 20  1  0
  5 21  1  0
  7 22  1  0
 10 23  1  0
 12 24  1  0
 17 25  1  0
 17 26  1  0
 17 27  1  0
 18 28  1  0
 18 29  1  0
 18 30  1  0
 19 31  1  0
 19 32  1  0
 19 33  1  0
M  ISO  8  20  14  21  14  22  14  23  14  24  14  25   8  26   8  27   8
M  ISO  6  28   8  29   8  30   8  31   8  32   8  33   8
M  END
>  <minimizedAffinity>  (1) 
-4.98980904

>  <minimizedRMSD>  (1) 
0.670288563

$$$$
