
     RDKit          3D

 24 26  0  0  0  0  0  0  0  0999 V2000
   38.1990   24.4880   35.9000 N   0  0  0  0  0  0  0  0  0  0  0  0
   37.4410   24.0280   36.9170 C   0  0  0  0  0  0  0  0  0  0  0  0
   38.1390   23.2180   37.7310 N   0  0  0  0  0  0  0  0  0  0  0  0
   39.3720   23.1540   37.2290 C   0  0  0  0  0  0  0  0  0  0  0  0
   40.5310   22.5030   37.5960 C   0  0  0  0  0  0  0  0  0  0  0  0
   41.6940   22.5880   36.9180 N   0  0  0  0  0  0  0  0  0  0  0  0
   41.6720   23.3710   35.8150 C   0  0  0  0  0  0  0  0  0  0  0  0
   40.5620   24.0020   35.4530 N   0  0  0  0  0  0  0  0  0  0  0  0
   39.4020   23.9480   36.0890 C   0  0  0  0  0  0  0  0  0  0  0  0
   37.7470   24.9000   33.5550 C   0  0  0  0  0  0  0  0  0  0  0  0
   37.7790   25.3470   34.8830 C   0  0  0  0  0  0  0  0  0  0  0  0
   37.3850   26.6430   35.1430 C   0  0  0  0  0  0  0  0  0  0  0  0
   36.9840   27.4360   34.1100 N   0  0  0  0  0  0  0  0  0  0  0  0
   36.9640   26.9770   32.8400 C   0  0  0  0  0  0  0  0  0  0  0  0
   37.3390   25.7300   32.5660 N   0  0  0  0  0  0  0  0  0  0  0  0
   36.5160   27.9130   31.8140 C   0  0  0  0  0  0  0  0  0  0  0  0
   36.5690   29.1460   32.0480 O   0  0  0  0  0  0  0  0  0  0  0  0
   36.0290   27.5200   30.5790 O   0  0  0  0  0  0  0  0  0  0  0  0
   36.3812   24.2846   37.0621 H   0  0  0  0  0  0  0  0  0  0  0  0
   40.5055   21.8748   38.4986 H   0  0  0  0  0  0  0  0  0  0  0  0
   42.5844   23.4859   35.2114 H   0  0  0  0  0  0  0  0  0  0  0  0
   38.0544   23.8714   33.3154 H   0  0  0  0  0  0  0  0  0  0  0  0
   37.3944   27.0318   36.1720 H   0  0  0  0  0  0  0  0  0  0  0  0
   35.9702   26.5578   30.3534 H   0  0  0  0  0  0  0  0  0  0  0  0
  1  9  1  0
  1  2  1  0
  2  3  2  0
  4  5  2  0
  4  3  1  0
  6  5  1  0
  7  6  2  0
  8  7  1  0
  8  9  2  0
  9  4  1  0
 10 11  2  0
 11 12  1  0
 11  1  1  0
 13 12  2  0
 14 13  1  0
 15 14  2  0
 15 10  1  0
 16 17  2  0
 16 14  1  0
 18 16  1  0
  2 19  1  0
  5 20  1  0
  7 21  1  0
 10 22  1  0
 12 23  1  0
 18 24  1  0
M  ISO  6  19  14  20  14  21  14  22  14  23  14  24   3
M  END
>  <minimizedAffinity>  (1) 
-4.66793299

>  <minimizedRMSD>  (1) 
1.14152074

$$$$
