
     RDKit          3D

 23 24  0  0  0  0  0  0  0  0999 V2000
   40.4310   22.3560   37.8420 C   0  0  0  0  0  0  0  0  0  0  0  0
   39.5190   23.1550   37.1510 C   0  0  0  0  0  0  0  0  0  0  0  0
   39.8040   23.4540   35.8340 C   0  0  0  0  0  0  0  0  0  0  0  0
   40.9410   22.9720   35.2570 N   0  0  0  0  0  0  0  0  0  0  0  0
   41.8010   22.1970   35.9700 C   0  0  0  0  0  0  0  0  0  0  0  0
   41.5300   21.9050   37.2440 N   0  0  0  0  0  0  0  0  0  0  0  0
   38.2770   23.6850   37.7670 C   0  0  0  0  0  0  0  0  0  0  0  0
   38.4630   23.6720   39.1510 F   0  0  0  0  0  0  0  0  0  0  0  0
   37.1700   22.9770   37.4650 F   0  0  0  0  0  0  0  0  0  0  0  0
   38.1460   25.0720   37.4820 F   0  0  0  0  0  0  0  0  0  0  0  0
   43.2600   21.6150   35.1300 S   0  0  0  0  0  0  0  0  0  0  0  0
   44.7100   22.5030   35.7080 C   0  0  0  0  0  0  0  0  0  0  0  0
   44.4950   23.7950   36.2220 C   0  0  0  0  0  0  0  0  0  0  0  0
   46.2510   24.3300   36.6960 S   0  0  0  0  0  0  0  0  0  0  0  0
   46.9040   22.6830   36.0950 C   0  0  0  0  0  0  0  0  0  0  0  0
   45.9690   22.1980   35.7580 N   0  0  0  0  0  0  0  0  0  0  0  0
   48.3230   22.2150   36.1000 C   0  0  0  0  0  0  0  0  0  0  0  0
   48.6950   21.0400   35.9580 O   0  0  0  0  0  0  0  0  0  0  0  0
   49.3170   23.1680   36.2760 O   0  0  0  0  0  0  0  0  0  0  0  0
   40.2386   22.0962   38.8934 H   0  0  0  0  0  0  0  0  0  0  0  0
   39.1139   24.0810   35.2503 H   0  0  0  0  0  0  0  0  0  0  0  0
   43.5514   24.3513   36.3228 H   0  0  0  0  0  0  0  0  0  0  0  0
   50.2686   22.8949   36.2848 H   0  0  0  0  0  0  0  0  0  0  0  0
  2  7  1  0
  2  1  2  0
  3  2  1  0
  4  3  2  0
  4  5  1  0
  5  6  2  0
  6  1  1  0
  7  8  1  0
  9  7  1  0
 10  7  1  0
 11 12  1  0
 11  5  1  0
 12 16  1  0
 12 13  2  0
 13 14  1  0
 15 17  1  0
 15 14  1  0
 16 15  2  0
 17 19  1  0
 18 17  2  0
  1 20  1  0
  3 21  1  0
 13 22  1  0
 19 23  1  0
M  ISO  4  20  14  21  14  22  14  23   3
M  END
>  <minimizedAffinity>  (1) 
-3.6509397

>  <minimizedRMSD>  (1) 
2.50848055

$$$$
