
     RDKit          3D

 37 40  0  0  0  0  0  0  0  0999 V2000
   37.5270   25.2380   34.3580 C   0  0  0  0  0  0  0  0  0  0  0  0
   38.0400   25.5750   35.6230 C   0  0  0  0  0  0  0  0  0  0  0  0
   38.0240   26.9030   35.9720 C   0  0  0  0  0  0  0  0  0  0  0  0
   37.5360   27.8400   35.1270 N   0  0  0  0  0  0  0  0  0  0  0  0
   37.0480   27.4820   33.9120 C   0  0  0  0  0  0  0  0  0  0  0  0
   37.0420   26.2010   33.5270 N   0  0  0  0  0  0  0  0  0  0  0  0
   38.5310   24.5940   36.4620 N   0  0  0  0  0  0  0  0  0  0  0  0
   38.0560   24.2860   37.6860 C   0  0  0  0  0  0  0  0  0  0  0  0
   38.7460   23.2810   38.2590 N   0  0  0  0  0  0  0  0  0  0  0  0
   39.7030   22.9380   37.3550 C   0  0  0  0  0  0  0  0  0  0  0  0
   40.7030   21.9930   37.3640 C   0  0  0  0  0  0  0  0  0  0  0  0
   41.5570   21.8210   36.3430 N   0  0  0  0  0  0  0  0  0  0  0  0
   41.3820   22.6430   35.2810 C   0  0  0  0  0  0  0  0  0  0  0  0
   40.4150   23.5540   35.2760 N   0  0  0  0  0  0  0  0  0  0  0  0
   39.5530   23.7510   36.2690 C   0  0  0  0  0  0  0  0  0  0  0  0
   36.3760   28.6060   32.6920 S   0  0  0  0  0  0  0  0  0  0  0  0
   35.0910   30.5280   30.8770 N   0  0  0  0  0  0  0  0  0  0  0  0
   33.8410   30.4490   31.6000 C   0  0  0  0  0  0  0  0  0  0  0  0
   33.9520   29.7110   32.9160 C   0  0  0  0  0  0  0  0  0  0  0  0
   35.3650   29.8610   33.4940 C   0  0  0  0  0  0  0  0  0  0  0  0
   35.8520   31.2270   33.1010 C   0  0  0  0  0  0  0  0  0  0  0  0
   36.1350   31.1980   31.6130 C   0  0  0  0  0  0  0  0  0  0  0  0
   37.5175   24.1860   34.0367 H   0  0  0  0  0  0  0  0  0  0  0  0
   38.4140   27.2096   36.9538 H   0  0  0  0  0  0  0  0  0  0  0  0
   37.2048   24.7958   38.1609 H   0  0  0  0  0  0  0  0  0  0  0  0
   40.8074   21.3484   38.2492 H   0  0  0  0  0  0  0  0  0  0  0  0
   42.0494   22.5552   34.4110 H   0  0  0  0  0  0  0  0  0  0  0  0
   35.4052   29.5710   30.6620 H   0  0  0  0  0  0  0  0  0  0  0  0
   33.4905   31.4718   31.8026 H   0  0  0  0  0  0  0  0  0  0  0  0
   33.1375   29.8846   30.9703 H   0  0  0  0  0  0  0  0  0  0  0  0
   33.2231   30.1264   33.6274 H   0  0  0  0  0  0  0  0  0  0  0  0
   33.7469   28.6438   32.7457 H   0  0  0  0  0  0  0  0  0  0  0  0
   35.4007   29.7458   34.5874 H   0  0  0  0  0  0  0  0  0  0  0  0
   35.0802   31.9790   33.3221 H   0  0  0  0  0  0  0  0  0  0  0  0
   36.7596   31.4917   33.6632 H   0  0  0  0  0  0  0  0  0  0  0  0
   37.0847   30.6699   31.4424 H   0  0  0  0  0  0  0  0  0  0  0  0
   36.1880   32.2375   31.2571 H   0  0  0  0  0  0  0  0  0  0  0  0
  1  2  2  0
  2  3  1  0
  2  7  1  0
  4  3  2  0
  5  4  1  0
  6  5  2  0
  6  1  1  0
  7  8  1  0
  8  9  2  0
 10 11  2  0
 10  9  1  0
 12 11  1  0
 13 12  2  0
 14 13  1  0
 14 15  2  0
 15  7  1  0
 15 10  1  0
 16 20  1  0
 16  5  1  0
 17 18  1  0
 17 22  1  0
 18 19  1  0
 19 20  1  0
 21 20  1  0
 22 21  1  0
  1 23  1  0
  3 24  1  0
  8 25  1  0
 11 26  1  0
 13 27  1  0
 17 28  1  0
 18 29  1  0
 18 30  1  0
 19 31  1  0
 19 32  1  0
 20 33  1  0
 21 34  1  0
 21 35  1  0
 22 36  1  0
 22 37  1  0
M  ISO  8  23  14  24  14  25  14  26  14  27  14  28   5  29  13  30  13
M  ISO  7  31  13  32  13  33  13  34  13  35  13  36  13  37  13
M  END
>  <minimizedAffinity>  (1) 
-5.07827616

>  <minimizedRMSD>  (1) 
0.634594381

$$$$
