
     RDKit          3D

 34 37  0  0  1  0  0  0  0  0999 V2000
   37.4700   25.1370   33.6010 C   0  0  0  0  0  0  0  0  0  0  0  0
   37.7440   25.4880   34.9200 C   0  0  0  0  0  0  0  0  0  0  0  0
   37.4290   26.7770   35.3380 C   0  0  0  0  0  0  0  0  0  0  0  0
   36.8680   27.6430   34.4600 N   0  0  0  0  0  0  0  0  0  0  0  0
   36.6130   27.2740   33.1800 C   0  0  0  0  0  0  0  0  0  0  0  0
   36.9110   26.0230   32.7460 N   0  0  0  0  0  0  0  0  0  0  0  0
   38.3170   24.5800   35.7990 N   0  0  0  0  0  0  0  0  0  0  0  0
   37.7040   23.9560   36.8290 C   0  0  0  0  0  0  0  0  0  0  0  0
   38.5240   23.1340   37.5010 N   0  0  0  0  0  0  0  0  0  0  0  0
   39.7160   23.2300   36.8790 C   0  0  0  0  0  0  0  0  0  0  0  0
   40.9370   22.6420   37.0880 C   0  0  0  0  0  0  0  0  0  0  0  0
   42.0140   22.8890   36.3250 N   0  0  0  0  0  0  0  0  0  0  0  0
   41.8440   23.7760   35.3000 C   0  0  0  0  0  0  0  0  0  0  0  0
   40.6500   24.3440   35.1050 N   0  0  0  0  0  0  0  0  0  0  0  0
   39.5730   24.1200   35.8380 C   0  0  0  0  0  0  0  0  0  0  0  0
   35.8840   28.3260   31.9470 S   0  0  0  0  0  0  0  0  0  0  0  0
   36.8820   28.0990   29.4430 N   0  0  0  0  0  0  0  0  0  0  0  0
   37.8370   28.7490   28.5680 C   0  0  0  0  0  0  0  0  0  0  0  0
   38.0680   30.1420   29.1180 C   0  0  0  0  0  0  0  0  0  0  0  0
   37.1700   30.1880   30.3530 C   0  0  0  0  0  0  0  0  0  0  0  0
   37.1660   28.7160   30.7250 C   0  0  1  0  0  0  0  0  0  0  0  0
   37.7119   24.1233   33.2489 H   0  0  0  0  0  0  0  0  0  0  0  0
   37.6336   27.0903   36.3724 H   0  0  0  0  0  0  0  0  0  0  0  0
   36.6457   24.1060   37.0887 H   0  0  0  0  0  0  0  0  0  0  0  0
   41.0393   21.9325   37.9224 H   0  0  0  0  0  0  0  0  0  0  0  0
   42.6869   24.0219   34.6374 H   0  0  0  0  0  0  0  0  0  0  0  0
   37.0389   27.0816   29.4760 H   0  0  0  0  0  0  0  0  0  0  0  0
   37.4332   28.8087   27.5465 H   0  0  0  0  0  0  0  0  0  0  0  0
   38.7792   28.1828   28.5269 H   0  0  0  0  0  0  0  0  0  0  0  0
   39.1232   30.2867   29.3929 H   0  0  0  0  0  0  0  0  0  0  0  0
   37.8389   30.9346   28.3905 H   0  0  0  0  0  0  0  0  0  0  0  0
   37.6026   30.8102   31.1503 H   0  0  0  0  0  0  0  0  0  0  0  0
   36.1757   30.6290   30.1890 H   0  0  0  0  0  0  0  0  0  0  0  0
   38.0993   28.3746   31.1966 H   0  0  0  0  0  0  0  0  0  0  0  0
  1  2  2  0
  2  3  1  0
  2  7  1  0
  4  3  2  0
  5  4  1  0
  6  5  2  0
  6  1  1  0
  7 15  1  0
  7  8  1  0
  8  9  2  0
 10 11  2  0
 10  9  1  0
 12 11  1  0
 13 12  2  0
 14 13  1  0
 14 15  2  0
 15 10  1  0
 16  5  1  0
 17 21  1  0
 18 19  1  0
 18 17  1  0
 19 20  1  0
 20 21  1  0
 21 16  1  0
  1 22  1  0
  3 23  1  0
  8 24  1  0
 11 25  1  0
 13 26  1  0
 17 27  1  0
 18 28  1  0
 18 29  1  0
 19 30  1  0
 19 31  1  0
 20 32  1  0
 20 33  1  0
 21 34  1  1
M  ISO  8  22  14  23  14  24  14  25  14  26  14  27   5  28  13  29  13
M  ISO  5  30  13  31  13  32  13  33  13  34  13
M  END
>  <minimizedAffinity>  (1) 
-5.06613111

>  <minimizedRMSD>  (1) 
1.21873581

$$$$
