
     RDKit          3D

 29 32  0  0  0  0  0  0  0  0999 V2000
   37.6380   25.0660   34.4340 C   0  0  0  0  0  0  0  0  0  0  0  0
   38.1630   25.4290   35.6720 C   0  0  0  0  0  0  0  0  0  0  0  0
   38.1670   26.7740   35.9960 C   0  0  0  0  0  0  0  0  0  0  0  0
   37.6730   27.6800   35.1220 N   0  0  0  0  0  0  0  0  0  0  0  0
   37.1690   27.2920   33.9240 C   0  0  0  0  0  0  0  0  0  0  0  0
   37.1490   25.9900   33.5740 N   0  0  0  0  0  0  0  0  0  0  0  0
   38.6590   24.4580   36.5350 N   0  0  0  0  0  0  0  0  0  0  0  0
   38.1570   24.1490   37.7530 C   0  0  0  0  0  0  0  0  0  0  0  0
   38.8530   23.1650   38.3510 N   0  0  0  0  0  0  0  0  0  0  0  0
   39.8330   22.8370   37.4800 C   0  0  0  0  0  0  0  0  0  0  0  0
   40.8580   21.9100   37.5150 C   0  0  0  0  0  0  0  0  0  0  0  0
   41.7420   21.7520   36.5070 N   0  0  0  0  0  0  0  0  0  0  0  0
   41.5750   22.5600   35.4380 C   0  0  0  0  0  0  0  0  0  0  0  0
   40.5860   23.4540   35.4030 N   0  0  0  0  0  0  0  0  0  0  0  0
   39.6960   23.6440   36.3690 C   0  0  0  0  0  0  0  0  0  0  0  0
   36.5000   28.4230   32.7190 S   0  0  0  0  0  0  0  0  0  0  0  0
   32.9220   29.8250   33.6510 N   0  0  0  0  0  0  0  0  0  0  0  0
   33.6850   29.1200   32.8020 N   0  0  0  0  0  0  0  0  0  0  0  0
   34.9540   29.1150   33.2610 C   0  0  0  0  0  0  0  0  0  0  0  0
   34.9800   29.8400   34.4340 C   0  0  0  0  0  0  0  0  0  0  0  0
   33.6800   30.2900   34.6780 C   0  0  0  0  0  0  0  0  0  0  0  0
   37.6203   24.0038   34.1485 H   0  0  0  0  0  0  0  0  0  0  0  0
   38.5716   27.1061   36.9635 H   0  0  0  0  0  0  0  0  0  0  0  0
   37.2829   24.6439   38.2014 H   0  0  0  0  0  0  0  0  0  0  0  0
   40.9579   21.2717   38.4053 H   0  0  0  0  0  0  0  0  0  0  0  0
   42.2641   22.4797   34.5844 H   0  0  0  0  0  0  0  0  0  0  0  0
   31.9112   29.9893   33.5405 H   0  0  0  0  0  0  0  0  0  0  0  0
   35.8627   30.0293   35.0624 H   0  0  0  0  0  0  0  0  0  0  0  0
   33.3393   30.8977   35.5292 H   0  0  0  0  0  0  0  0  0  0  0  0
  1  2  2  0
  2  3  1  0
  2  7  1  0
  4  3  2  0
  5  4  1  0
  6  5  2  0
  6  1  1  0
  7  8  1  0
  8  9  2  0
 10 11  2  0
 10  9  1  0
 12 11  1  0
 13 12  2  0
 14 13  1  0
 14 15  2  0
 15  7  1  0
 15 10  1  0
 16 19  1  0
 16  5  1  0
 17 21  1  0
 18 19  2  0
 18 17  1  0
 19 20  1  0
 20 21  2  0
  1 22  1  0
  3 23  1  0
  8 24  1  0
 11 25  1  0
 13 26  1  0
 17 27  1  0
 20 28  1  0
 21 29  1  0
M  ISO  8  22  14  23  14  24  14  25  14  26  14  27   9  28  14  29  14
M  END
>  <minimizedAffinity>  (1) 
-5.02335072

>  <minimizedRMSD>  (1) 
1.5497545

$$$$
