
     RDKit          3D

 28 31  0  0  0  0  0  0  0  0999 V2000
   37.5870   25.1080   34.4700 C   0  0  0  0  0  0  0  0  0  0  0  0
   38.1360   25.4700   35.7130 C   0  0  0  0  0  0  0  0  0  0  0  0
   38.1420   26.8040   36.0600 C   0  0  0  0  0  0  0  0  0  0  0  0
   37.6300   27.7210   35.2130 N   0  0  0  0  0  0  0  0  0  0  0  0
   37.1080   27.3560   34.0250 C   0  0  0  0  0  0  0  0  0  0  0  0
   37.0840   26.0610   33.6510 N   0  0  0  0  0  0  0  0  0  0  0  0
   38.6480   24.4900   36.5470 N   0  0  0  0  0  0  0  0  0  0  0  0
   38.1680   24.1690   37.7840 C   0  0  0  0  0  0  0  0  0  0  0  0
   38.8660   23.1790   38.3630 N   0  0  0  0  0  0  0  0  0  0  0  0
   39.8310   22.8500   37.4680 C   0  0  0  0  0  0  0  0  0  0  0  0
   40.8450   21.9220   37.4800 C   0  0  0  0  0  0  0  0  0  0  0  0
   41.7090   21.7670   36.4510 N   0  0  0  0  0  0  0  0  0  0  0  0
   41.5240   22.5860   35.3920 C   0  0  0  0  0  0  0  0  0  0  0  0
   40.5410   23.4830   35.3850 N   0  0  0  0  0  0  0  0  0  0  0  0
   39.6750   23.6610   36.3790 C   0  0  0  0  0  0  0  0  0  0  0  0
   36.4010   28.4820   32.8180 S   0  0  0  0  0  0  0  0  0  0  0  0
   37.3550   28.3940   31.3080 C   0  0  0  0  0  0  0  0  0  0  0  0
   36.7520   29.0420   30.1890 C   0  0  0  0  0  0  0  0  0  0  0  0
   38.0050   28.7580   28.7980 S   0  0  0  0  0  0  0  0  0  0  0  0
   39.0930   27.8140   30.0310 C   0  0  0  0  0  0  0  0  0  0  0  0
   38.5220   27.8490   30.9950 N   0  0  0  0  0  0  0  0  0  0  0  0
   37.5664   24.0517   34.1637 H   0  0  0  0  0  0  0  0  0  0  0  0
   38.5634   27.1203   37.0256 H   0  0  0  0  0  0  0  0  0  0  0  0
   37.3062   24.6657   38.2536 H   0  0  0  0  0  0  0  0  0  0  0  0
   40.9586   21.2778   38.3644 H   0  0  0  0  0  0  0  0  0  0  0  0
   42.1952   22.5101   34.5238 H   0  0  0  0  0  0  0  0  0  0  0  0
   35.7919   29.5770   30.1450 H   0  0  0  0  0  0  0  0  0  0  0  0
   40.0668   27.3384   29.8425 H   0  0  0  0  0  0  0  0  0  0  0  0
  1  2  2  0
  2  3  1  0
  2  7  1  0
  4  3  2  0
  5  4  1  0
  6  5  2  0
  6  1  1  0
  7  8  1  0
  8  9  2  0
 10 11  2  0
 10  9  1  0
 12 11  1  0
 13 12  2  0
 14 13  1  0
 14 15  2  0
 15  7  1  0
 15 10  1  0
 16  5  1  0
 17 16  1  0
 18 17  2  0
 19 20  1  0
 19 18  1  0
 20 21  2  0
 21 17  1  0
  1 22  1  0
  3 23  1  0
  8 24  1  0
 11 25  1  0
 13 26  1  0
 18 27  1  0
 20 28  1  0
M  ISO  7  22  14  23  14  24  14  25  14  26  14  27  14  28  14
M  END
>  <minimizedAffinity>  (1) 
-4.97392082

>  <minimizedRMSD>  (1) 
0.718695939

$$$$
