
     RDKit          3D

 43 46  0  0  1  0  0  0  0  0999 V2000
   37.6150   24.9990   34.4150 C   0  0  0  0  0  0  0  0  0  0  0  0
   38.1680   25.4080   35.6510 C   0  0  0  0  0  0  0  0  0  0  0  0
   38.1940   26.7510   35.9240 C   0  0  0  0  0  0  0  0  0  0  0  0
   37.6980   27.6330   35.0170 N   0  0  0  0  0  0  0  0  0  0  0  0
   37.1730   27.1960   33.8350 C   0  0  0  0  0  0  0  0  0  0  0  0
   37.1290   25.8980   33.5340 N   0  0  0  0  0  0  0  0  0  0  0  0
   38.6600   24.4520   36.5380 N   0  0  0  0  0  0  0  0  0  0  0  0
   38.1390   24.1880   37.7550 C   0  0  0  0  0  0  0  0  0  0  0  0
   38.8190   23.2140   38.3910 N   0  0  0  0  0  0  0  0  0  0  0  0
   39.8130   22.8460   37.5430 C   0  0  0  0  0  0  0  0  0  0  0  0
   40.8090   21.9270   37.6200 C   0  0  0  0  0  0  0  0  0  0  0  0
   41.7060   21.7320   36.6220 N   0  0  0  0  0  0  0  0  0  0  0  0
   41.5530   22.5170   35.5220 C   0  0  0  0  0  0  0  0  0  0  0  0
   40.5700   23.4160   35.4580 N   0  0  0  0  0  0  0  0  0  0  0  0
   39.6860   23.6270   36.4110 C   0  0  0  0  0  0  0  0  0  0  0  0
   36.5170   28.3370   32.6330 S   0  0  0  0  0  0  0  0  0  0  0  0
   37.2010   27.9380   31.0070 C   0  0  1  0  0  0  0  0  0  0  0  0
   36.8240   29.0710   30.0520 C   0  0  0  0  0  0  0  0  0  0  0  0
   38.6950   27.7910   31.0790 C   0  0  0  0  0  0  0  0  0  0  0  0
   39.2510   26.7070   30.3930 N   0  0  0  0  0  0  0  0  0  0  0  0
   38.6020   25.4640   30.4140 C   0  0  0  0  0  0  0  0  0  0  0  0
   39.4110   24.6040   29.4700 C   0  0  0  0  0  0  0  0  0  0  0  0
   39.9080   25.6210   28.4710 C   0  0  0  0  0  0  0  0  0  0  0  0
   40.0080   26.9200   29.2390 C   0  0  0  0  0  0  0  0  0  0  0  0
   37.5805   23.9278   34.1674 H   0  0  0  0  0  0  0  0  0  0  0  0
   38.6147   27.1134   36.8736 H   0  0  0  0  0  0  0  0  0  0  0  0
   37.2648   24.7056   38.1766 H   0  0  0  0  0  0  0  0  0  0  0  0
   40.8919   21.3148   38.5301 H   0  0  0  0  0  0  0  0  0  0  0  0
   42.2476   22.4092   34.6759 H   0  0  0  0  0  0  0  0  0  0  0  0
   36.7920   26.9813   30.6500 H   0  0  0  0  0  0  0  0  0  0  0  0
   36.5291   29.9573   30.6329 H   0  0  0  0  0  0  0  0  0  0  0  0
   37.6881   29.3190   29.4180 H   0  0  0  0  0  0  0  0  0  0  0  0
   35.9836   28.7518   29.4180 H   0  0  0  0  0  0  0  0  0  0  0  0
   39.1409   28.7094   30.6694 H   0  0  0  0  0  0  0  0  0  0  0  0
   38.9176   27.6076   32.1405 H   0  0  0  0  0  0  0  0  0  0  0  0
   38.6064   25.0392   31.4287 H   0  0  0  0  0  0  0  0  0  0  0  0
   37.5457   25.5364   30.1157 H   0  0  0  0  0  0  0  0  0  0  0  0
   40.2464   24.1141   29.9916 H   0  0  0  0  0  0  0  0  0  0  0  0
   38.8389   23.7801   29.0184 H   0  0  0  0  0  0  0  0  0  0  0  0
   39.1979   25.7204   27.6368 H   0  0  0  0  0  0  0  0  0  0  0  0
   40.8739   25.3279   28.0339 H   0  0  0  0  0  0  0  0  0  0  0  0
   41.0548   27.1392   29.4964 H   0  0  0  0  0  0  0  0  0  0  0  0
   39.6450   27.7785   28.6549 H   0  0  0  0  0  0  0  0  0  0  0  0
  1  2  2  0
  2  3  1  0
  2  7  1  0
  4  3  2  0
  5  4  1  0
  6  5  2  0
  6  1  1  0
  7  8  1  0
  8  9  2  0
 10 11  2  0
 10  9  1  0
 12 11  1  0
 13 12  2  0
 14 13  1  0
 14 15  2  0
 15  7  1  0
 15 10  1  0
 16  5  1  0
 17 19  1  0
 17 16  1  0
 18 17  1  0
 20 21  1  0
 20 19  1  0
 22 21  1  0
 23 24  1  0
 23 22  1  0
 24 20  1  0
  1 25  1  0
  3 26  1  0
  8 27  1  0
 11 28  1  0
 13 29  1  0
 17 30  1  6
 18 31  1  0
 18 32  1  0
 18 33  1  0
 19 34  1  0
 19 35  1  0
 21 36  1  0
 21 37  1  0
 22 38  1  0
 22 39  1  0
 23 40  1  0
 23 41  1  0
 24 42  1  0
 24 43  1  0
M  ISO  8  25  14  26  14  27  14  28  14  29  14  30   8  31   8  32   8
M  ISO  8  33   8  34   8  35   8  36  13  37  13  38  13  39  13  40  13
M  ISO  3  41  13  42  13  43  13
M  END
>  <minimizedAffinity>  (1) 
-4.77885962

>  <minimizedRMSD>  (1) 
0.801560998

$$$$
