
     RDKit          3D

 27 29  0  0  0  0  0  0  0  0999 V2000
   40.4700   22.3800   37.7140 C   0  0  0  0  0  0  0  0  0  0  0  0
   39.3110   23.1330   37.4460 C   0  0  0  0  0  0  0  0  0  0  0  0
   39.0020   23.3830   36.1170 C   0  0  0  0  0  0  0  0  0  0  0  0
   39.8090   22.9050   35.1200 N   0  0  0  0  0  0  0  0  0  0  0  0
   40.9310   22.1750   35.4400 C   0  0  0  0  0  0  0  0  0  0  0  0
   41.2380   21.9280   36.7230 N   0  0  0  0  0  0  0  0  0  0  0  0
   38.4150   23.6650   38.5060 C   0  0  0  0  0  0  0  0  0  0  0  0
   39.2070   23.8620   39.6270 F   0  0  0  0  0  0  0  0  0  0  0  0
   37.3960   22.8300   38.8160 F   0  0  0  0  0  0  0  0  0  0  0  0
   37.9830   24.9660   38.1730 F   0  0  0  0  0  0  0  0  0  0  0  0
   41.9220   21.5930   34.0850 S   0  0  0  0  0  0  0  0  0  0  0  0
   43.3580   22.6400   33.8760 C   0  0  0  0  0  0  0  0  0  0  0  0
   43.2970   23.9390   34.4120 C   0  0  0  0  0  0  0  0  0  0  0  0
   44.9800   24.6540   33.9650 S   0  0  0  0  0  0  0  0  0  0  0  0
   45.4260   23.0140   33.1290 C   0  0  0  0  0  0  0  0  0  0  0  0
   44.5010   22.4380   33.3030 N   0  0  0  0  0  0  0  0  0  0  0  0
   46.6830   22.6850   32.4560 N   0  0  0  0  0  0  0  0  0  0  0  0
   47.5780   22.0520   33.2340 C   0  0  0  0  0  0  0  0  0  0  0  0
   48.6940   21.8150   32.4600 C   0  0  0  0  0  0  0  0  0  0  0  0
   48.4200   22.3190   31.2450 N   0  0  0  0  0  0  0  0  0  0  0  0
   47.1820   22.8610   31.2200 C   0  0  0  0  0  0  0  0  0  0  0  0
   40.7456   22.1616   38.7563 H   0  0  0  0  0  0  0  0  0  0  0  0
   38.1053   23.9674   35.8634 H   0  0  0  0  0  0  0  0  0  0  0  0
   42.4706   24.4183   34.9573 H   0  0  0  0  0  0  0  0  0  0  0  0
   47.4449   21.7750   34.2902 H   0  0  0  0  0  0  0  0  0  0  0  0
   49.6217   21.3142   32.7739 H   0  0  0  0  0  0  0  0  0  0  0  0
   46.6859   23.3454   30.3660 H   0  0  0  0  0  0  0  0  0  0  0  0
  2  1  2  0
  2  7  1  0
  3  2  1  0
  4  5  1  0
  4  3  2  0
  5  6  2  0
  6  1  1  0
  7  9  1  0
  7  8  1  0
 10  7  1  0
 11  5  1  0
 12 11  1  0
 12 13  2  0
 14 13  1  0
 15 16  2  0
 15 14  1  0
 16 12  1  0
 17 15  1  0
 17 18  1  0
 19 18  2  0
 20 19  1  0
 21 20  2  0
 21 17  1  0
  1 22  1  0
  3 23  1  0
 13 24  1  0
 18 25  1  0
 19 26  1  0
 21 27  1  0
M  ISO  6  22  14  23  14  24  14  25  14  26  14  27  14
M  END
>  <minimizedAffinity>  (1) 
-3.80745816

>  <minimizedRMSD>  (1) 
0.295295835

$$$$
