
     RDKit          3D

 42 45  0  0  1  0  0  0  0  0999 V2000
   36.4410   28.4430   32.7520 S   0  0  0  0  0  0  0  0  0  0  0  0
   37.5840   25.0660   34.4690 C   0  0  0  0  0  0  0  0  0  0  0  0
   38.1580   25.4520   35.6830 C   0  0  0  0  0  0  0  0  0  0  0  0
   38.1940   26.7820   35.9840 C   0  0  0  0  0  0  0  0  0  0  0  0
   37.6710   27.6680   35.0870 N   0  0  0  0  0  0  0  0  0  0  0  0
   37.1230   27.2770   33.9210 C   0  0  0  0  0  0  0  0  0  0  0  0
   37.0840   25.9960   33.6250 N   0  0  0  0  0  0  0  0  0  0  0  0
   38.6650   24.4740   36.5330 N   0  0  0  0  0  0  0  0  0  0  0  0
   38.1550   24.1700   37.7650 C   0  0  0  0  0  0  0  0  0  0  0  0
   38.8480   23.1860   38.3530 N   0  0  0  0  0  0  0  0  0  0  0  0
   39.8380   22.8420   37.4750 C   0  0  0  0  0  0  0  0  0  0  0  0
   40.8290   21.9200   37.5300 C   0  0  0  0  0  0  0  0  0  0  0  0
   41.6990   21.7660   36.5160 N   0  0  0  0  0  0  0  0  0  0  0  0
   41.5430   22.5710   35.4350 C   0  0  0  0  0  0  0  0  0  0  0  0
   40.5590   23.4660   35.4160 N   0  0  0  0  0  0  0  0  0  0  0  0
   39.6920   23.6540   36.3700 C   0  0  0  0  0  0  0  0  0  0  0  0
   37.0030   27.9730   31.0990 C   0  0  1  0  0  0  0  0  0  0  0  0
   36.7080   29.1810   30.1710 C   0  0  0  0  0  0  0  0  0  0  0  0
   38.5050   27.7420   31.0950 C   0  0  0  0  0  0  0  0  0  0  0  0
   38.9000   26.6090   30.3330 N   0  0  0  0  0  0  0  0  0  0  0  0
   38.7290   25.3360   30.5320 C   0  0  0  0  0  0  0  0  0  0  0  0
   39.3100   24.6230   29.4830 C   0  0  0  0  0  0  0  0  0  0  0  0
   39.8270   25.5580   28.6660 N   0  0  0  0  0  0  0  0  0  0  0  0
   39.5790   26.7560   29.1790 C   0  0  0  0  0  0  0  0  0  0  0  0
   40.0110   27.9720   28.5290 N   0  0  0  0  0  0  0  0  0  0  0  0
   39.3710   23.2110   29.2730 N   0  0  0  0  0  0  0  0  0  0  0  0
   37.5388   24.0006   34.1989 H   0  0  0  0  0  0  0  0  0  0  0  0
   38.6348   27.1328   36.9288 H   0  0  0  0  0  0  0  0  0  0  0  0
   37.2855   24.6704   38.2161 H   0  0  0  0  0  0  0  0  0  0  0  0
   40.9241   21.2841   38.4225 H   0  0  0  0  0  0  0  0  0  0  0  0
   42.2272   22.4839   34.5781 H   0  0  0  0  0  0  0  0  0  0  0  0
   36.4968   27.0523   30.7734 H   0  0  0  0  0  0  0  0  0  0  0  0
   36.4911   30.0690   30.7829 H   0  0  0  0  0  0  0  0  0  0  0  0
   37.5844   29.3783   29.5361 H   0  0  0  0  0  0  0  0  0  0  0  0
   35.8394   28.9521   29.5361 H   0  0  0  0  0  0  0  0  0  0  0  0
   38.9937   28.6330   30.6739 H   0  0  0  0  0  0  0  0  0  0  0  0
   38.8074   27.5547   32.1359 H   0  0  0  0  0  0  0  0  0  0  0  0
   38.2080   24.8907   31.3924 H   0  0  0  0  0  0  0  0  0  0  0  0
   39.8016   28.8861   28.9550 H   0  0  0  0  0  0  0  0  0  0  0  0
   40.5284   27.9247   27.6396 H   0  0  0  0  0  0  0  0  0  0  0  0
   39.8418   22.8344   28.4379 H   0  0  0  0  0  0  0  0  0  0  0  0
   38.9441   22.5697   29.9567 H   0  0  0  0  0  0  0  0  0  0  0  0
  1  6  1  0
  2  3  2  0
  3  4  1  0
  3  8  1  0
  5  4  2  0
  6  5  1  0
  7  6  2  0
  7  2  1  0
  8  9  1  0
  9 10  2  0
 11 12  2  0
 11 10  1  0
 13 12  1  0
 14 13  2  0
 15 14  1  0
 15 16  2  0
 16  8  1  0
 16 11  1  0
 17  1  1  0
 18 17  1  0
 19 17  1  0
 20 21  1  0
 20 19  1  0
 22 21  2  0
 23 24  2  0
 23 22  1  0
 24 20  1  0
 25 24  1  0
 26 22  1  0
  2 27  1  0
  4 28  1  0
  9 29  1  0
 12 30  1  0
 14 31  1  0
 17 32  1  6
 18 33  1  0
 18 34  1  0
 18 35  1  0
 19 36  1  0
 19 37  1  0
 21 38  1  0
 25 39  1  0
 25 40  1  0
 26 41  1  0
 26 42  1  0
M  ISO  8  27  14  28  14  29  14  30  14  31  14  32   8  33   8  34   8
M  ISO  4  35   8  36   8  37   8  38  14
M  END
>  <minimizedAffinity>  (1) 
-4.99197388

>  <minimizedRMSD>  (1) 
0.0443965867

$$$$
