
     RDKit          3D

 16 16  0  0  0  0  0  0  0  0999 V2000
   40.4010   22.5020   37.6650 C   0  0  0  0  0  0  0  0  0  0  0  0
   39.3130   23.2910   37.2880 C   0  0  0  0  0  0  0  0  0  0  0  0
   39.3730   23.9870   36.0820 C   0  0  0  0  0  0  0  0  0  0  0  0
   40.5190   23.8460   35.3340 N   0  0  0  0  0  0  0  0  0  0  0  0
   41.5420   23.0780   35.7310 C   0  0  0  0  0  0  0  0  0  0  0  0
   41.4810   22.4130   36.8860 N   0  0  0  0  0  0  0  0  0  0  0  0
   38.2490   24.8490   35.6180 C   0  0  0  0  0  0  0  0  0  0  0  0
   38.0610   23.4750   38.0560 C   0  0  0  0  0  0  0  0  0  0  0  0
   36.9500   23.0810   37.3260 F   0  0  0  0  0  0  0  0  0  0  0  0
   38.0500   22.6850   39.2030 F   0  0  0  0  0  0  0  0  0  0  0  0
   37.8600   24.7610   38.4830 F   0  0  0  0  0  0  0  0  0  0  0  0
   40.3679   21.9476   38.6145 H   0  0  0  0  0  0  0  0  0  0  0  0
   42.4392   22.9949   35.1000 H   0  0  0  0  0  0  0  0  0  0  0  0
   37.7163   25.2575   36.4894 H   0  0  0  0  0  0  0  0  0  0  0  0
   38.6472   25.6755   35.0111 H   0  0  0  0  0  0  0  0  0  0  0  0
   37.5540   24.2501   35.0111 H   0  0  0  0  0  0  0  0  0  0  0  0
  2  1  2  0
  2  8  1  0
  3  2  1  0
  4  5  1  0
  4  3  2  0
  5  6  2  0
  6  1  1  0
  7  3  1  0
  8 11  1  0
  8 10  1  0
  9  8  1  0
  1 12  1  0
  5 13  1  0
  7 14  1  0
  7 15  1  0
  7 16  1  0
M  ISO  5  12  14  13  14  14   8  15   8  16   8
M  END
>  <minimizedAffinity>  (1) 
-3.64182758

>  <minimizedRMSD>  (1) 
2.65160871

$$$$
