
     RDKit          3D

 26 27  0  0  0  0  0  0  0  0999 V2000
   37.9300   23.6320   33.7040 C   0  0  0  0  0  0  0  0  0  0  0  0
   37.3890   24.5490   32.8050 C   0  0  0  0  0  0  0  0  0  0  0  0
   37.1900   25.8650   33.2470 C   0  0  0  0  0  0  0  0  0  0  0  0
   37.5390   26.1670   34.5350 N   0  0  0  0  0  0  0  0  0  0  0  0
   38.0590   25.2440   35.3670 C   0  0  0  0  0  0  0  0  0  0  0  0
   38.2490   23.9930   34.9460 N   0  0  0  0  0  0  0  0  0  0  0  0
   36.9990   24.2810   31.4220 C   0  0  0  0  0  0  0  0  0  0  0  0
   35.5560   23.8030   31.4310 C   0  0  0  0  0  0  0  0  0  0  0  0
   35.6150   22.2970   31.5040 C   0  0  0  0  0  0  0  0  0  0  0  0
   36.9510   21.8840   30.9730 C   0  0  0  0  0  0  0  0  0  0  0  0
   37.8180   23.1180   30.9140 C   0  0  0  0  0  0  0  0  0  0  0  0
   36.6110   26.9070   32.3330 C   0  0  0  0  0  0  0  0  0  0  0  0
   38.0964   22.5931   33.3829 H   0  0  0  0  0  0  0  0  0  0  0  0
   38.3277   25.5230   36.3966 H   0  0  0  0  0  0  0  0  0  0  0  0
   37.1392   25.1818   30.8064 H   0  0  0  0  0  0  0  0  0  0  0  0
   35.0253   24.2072   32.3056 H   0  0  0  0  0  0  0  0  0  0  0  0
   35.0148   24.1412   30.5350 H   0  0  0  0  0  0  0  0  0  0  0  0
   35.5042   21.9650   32.5468 H   0  0  0  0  0  0  0  0  0  0  0  0
   34.8027   21.8440   30.9167 H   0  0  0  0  0  0  0  0  0  0  0  0
   37.4058   21.1373   31.6405 H   0  0  0  0  0  0  0  0  0  0  0  0
   36.8485   21.4349   29.9741 H   0  0  0  0  0  0  0  0  0  0  0  0
   38.7072   22.9814   31.5470 H   0  0  0  0  0  0  0  0  0  0  0  0
   38.1524   23.3043   29.8827 H   0  0  0  0  0  0  0  0  0  0  0  0
   36.1632   27.7129   32.9329 H   0  0  0  0  0  0  0  0  0  0  0  0
   37.4080   27.3218   31.6984 H   0  0  0  0  0  0  0  0  0  0  0  0
   35.8378   26.4493   31.6984 H   0  0  0  0  0  0  0  0  0  0  0  0
  1  6  2  0
  2  3  2  0
  2  1  1  0
  3  4  1  0
  4  5  2  0
  6  5  1  0
  7  8  1  0
  7  2  1  0
  8  9  1  0
 10  9  1  0
 11 10  1  0
 11  7  1  0
 12  3  1  0
  1 13  1  0
  5 14  1  0
  7 15  1  0
  8 16  1  0
  8 17  1  0
  9 18  1  0
  9 19  1  0
 10 20  1  0
 10 21  1  0
 11 22  1  0
 11 23  1  0
 12 24  1  0
 12 25  1  0
 12 26  1  0
M  ISO  8  13  14  14  14  15  13  16  13  17  13  18  13  19  13  20  13
M  ISO  6  21  13  22  13  23  13  24   8  25   8  26   8
M  END
>  <minimizedAffinity>  (1) 
-3.28120756

>  <minimizedRMSD>  (1) 
7.20285749

$$$$
