
     RDKit          3D

 14 14  0  0  0  0  0  0  0  0999 V2000
   40.7670   22.1210   37.5230 C   0  0  0  0  0  0  0  0  0  0  0  0
   39.6620   22.9120   37.8360 C   0  0  0  0  0  0  0  0  0  0  0  0
   38.8690   23.3740   36.7680 C   0  0  0  0  0  0  0  0  0  0  0  0
   39.2490   23.0090   35.5000 N   0  0  0  0  0  0  0  0  0  0  0  0
   40.3200   22.2480   35.2540 C   0  0  0  0  0  0  0  0  0  0  0  0
   41.0750   21.8070   36.2710 N   0  0  0  0  0  0  0  0  0  0  0  0
   37.6660   24.2250   36.9940 C   0  0  0  0  0  0  0  0  0  0  0  0
   39.2310   23.3100   39.0850 O   0  0  0  0  0  0  0  0  0  0  0  0
   41.4026   21.7460   38.3387 H   0  0  0  0  0  0  0  0  0  0  0  0
   40.5818   21.9838   34.2188 H   0  0  0  0  0  0  0  0  0  0  0  0
   37.4985   24.3435   38.0747 H   0  0  0  0  0  0  0  0  0  0  0  0
   37.8246   25.2129   36.5370 H   0  0  0  0  0  0  0  0  0  0  0  0
   36.7873   23.7465   36.5370 H   0  0  0  0  0  0  0  0  0  0  0  0
   38.4239   23.8766   39.1728 H   0  0  0  0  0  0  0  0  0  0  0  0
  1  2  2  0
  2  8  1  0
  3  7  1  0
  3  2  1  0
  4  3  2  0
  5  4  1  0
  5  6  2  0
  6  1  1  0
  1  9  1  0
  5 10  1  0
  7 11  1  0
  7 12  1  0
  7 13  1  0
  8 14  1  0
M  ISO  6   9  14  10  14  11   8  12   8  13   8  14   3
M  END
>  <minimizedAffinity>  (1) 
-3.02536631

>  <minimizedRMSD>  (1) 
1.16637063

$$$$
