
     RDKit          3D

 15 15  0  0  0  0  0  0  0  0999 V2000
   38.0510   23.7950   36.1080 C   0  0  0  0  0  0  0  0  0  0  0  0
   39.2130   23.0220   36.1600 C   0  0  0  0  0  0  0  0  0  0  0  0
   39.7870   22.7210   37.3910 C   0  0  0  0  0  0  0  0  0  0  0  0
   39.1620   23.2120   38.4990 N   0  0  0  0  0  0  0  0  0  0  0  0
   38.0330   23.9620   38.4270 C   0  0  0  0  0  0  0  0  0  0  0  0
   37.4890   24.2450   37.2320 N   0  0  0  0  0  0  0  0  0  0  0  0
   41.0200   21.9050   37.4940 C   0  0  0  0  0  0  0  0  0  0  0  0
   39.8040   22.5460   34.9250 C   0  0  0  0  0  0  0  0  0  0  0  0
   40.3360   23.3350   34.1030 O   0  0  0  0  0  0  0  0  0  0  0  0
   37.5964   24.0343   35.1354 H   0  0  0  0  0  0  0  0  0  0  0  0
   37.5633   24.3382   39.3478 H   0  0  0  0  0  0  0  0  0  0  0  0
   41.2649   21.7429   38.5541 H   0  0  0  0  0  0  0  0  0  0  0  0
   40.8594   20.9343   37.0022 H   0  0  0  0  0  0  0  0  0  0  0  0
   41.8508   22.4322   37.0022 H   0  0  0  0  0  0  0  0  0  0  0  0
   39.7867   21.4691   34.7016 H   0  0  0  0  0  0  0  0  0  0  0  0
  1  2  2  0
  1  6  1  0
  2  3  1  0
  3  7  1  0
  3  4  2  0
  5  4  1  0
  6  5  2  0
  8  2  1  0
  9  8  2  0
  1 10  1  0
  5 11  1  0
  7 12  1  0
  7 13  1  0
  7 14  1  0
  8 15  1  0
M  ISO  6  10  14  11  14  12   8  13   8  14   8  15   6
M  END
>  <minimizedAffinity>  (1) 
-3.01928234

>  <minimizedRMSD>  (1) 
3.6135056

$$$$
