
     RDKit          3D

 20 21  0  0  0  0  0  0  0  0999 V2000
   38.2280   24.2800   34.4980 C   0  0  0  0  0  0  0  0  0  0  0  0
   37.7140   24.1400   33.2040 C   0  0  0  0  0  0  0  0  0  0  0  0
   37.2480   22.8990   32.7700 C   0  0  0  0  0  0  0  0  0  0  0  0
   37.3220   21.8640   33.6590 N   0  0  0  0  0  0  0  0  0  0  0  0
   37.8170   22.0170   34.8950 C   0  0  0  0  0  0  0  0  0  0  0  0
   38.2630   23.2060   35.3070 N   0  0  0  0  0  0  0  0  0  0  0  0
   37.6400   25.2270   32.2810 N   0  0  0  0  0  0  0  0  0  0  0  0
   38.7700   25.4820   31.6020 C   0  0  0  0  0  0  0  0  0  0  0  0
   38.4970   26.5640   30.7650 C   0  0  0  0  0  0  0  0  0  0  0  0
   37.2150   26.9310   30.9590 N   0  0  0  0  0  0  0  0  0  0  0  0
   36.7150   26.1160   31.8750 C   0  0  0  0  0  0  0  0  0  0  0  0
   36.6950   22.7190   31.3960 C   0  0  0  0  0  0  0  0  0  0  0  0
   38.5982   25.2547   34.8486 H   0  0  0  0  0  0  0  0  0  0  0  0
   37.8562   21.1545   35.5766 H   0  0  0  0  0  0  0  0  0  0  0  0
   39.7248   24.9428   31.6889 H   0  0  0  0  0  0  0  0  0  0  0  0
   39.2051   27.0357   30.0678 H   0  0  0  0  0  0  0  0  0  0  0  0
   35.6829   26.1597   32.2530 H   0  0  0  0  0  0  0  0  0  0  0  0
   35.6509   22.3792   31.4626 H   0  0  0  0  0  0  0  0  0  0  0  0
   36.7352   23.6766   30.8562 H   0  0  0  0  0  0  0  0  0  0  0  0
   37.2912   21.9685   30.8562 H   0  0  0  0  0  0  0  0  0  0  0  0
  1  6  2  0
  2  1  1  0
  3  2  2  0
  3  4  1  0
  4  5  2  0
  5  6  1  0
  7  2  1  0
  8  7  1  0
  9 10  1  0
  9  8  2  0
 10 11  2  0
 11  7  1  0
 12  3  1  0
  1 13  1  0
  5 14  1  0
  8 15  1  0
  9 16  1  0
 11 17  1  0
 12 18  1  0
 12 19  1  0
 12 20  1  0
M  ISO  8  13  14  14  14  15  14  16  14  17  14  18   8  19   8  20   8
M  END
>  <minimizedAffinity>  (1) 
-2.67523551

>  <minimizedRMSD>  (1) 
7.23545694

$$$$
