
     RDKit          3D

 32 33  0  0  0  0  0  0  0  0999 V2000
   39.6000   22.5170   34.8980 C   0  0  0  0  0  0  0  0  0  0  0  0
   37.9660   23.8680   36.2140 C   0  0  0  0  0  0  0  0  0  0  0  0
   39.0880   23.0590   36.1390 C   0  0  0  0  0  0  0  0  0  0  0  0
   39.7220   22.7440   37.3370 C   0  0  0  0  0  0  0  0  0  0  0  0
   39.2240   23.2350   38.5060 N   0  0  0  0  0  0  0  0  0  0  0  0
   38.1390   24.0120   38.5450 C   0  0  0  0  0  0  0  0  0  0  0  0
   37.4960   24.3400   37.3990 N   0  0  0  0  0  0  0  0  0  0  0  0
   40.9550   21.8680   37.3080 C   0  0  0  0  0  0  0  0  0  0  0  0
   39.1630   23.1050   33.6350 C   0  0  0  0  0  0  0  0  0  0  0  0
   38.2590   22.2000   32.9330 N   0  0  0  0  0  0  0  0  0  0  0  0
   37.2920   21.4180   33.4470 C   0  0  0  0  0  0  0  0  0  0  0  0
   36.5420   20.6310   32.5980 C   0  0  0  0  0  0  0  0  0  0  0  0
   35.4930   19.7890   33.2100 C   0  0  0  0  0  0  0  0  0  0  0  0
   36.7520   20.6180   31.2360 C   0  0  0  0  0  0  0  0  0  0  0  0
   36.0740   19.9060   30.4780 O   0  0  0  0  0  0  0  0  0  0  0  0
   37.7270   21.4140   30.7700 N   0  0  0  0  0  0  0  0  0  0  0  0
   38.4590   22.1820   31.5910 C   0  0  0  0  0  0  0  0  0  0  0  0
   39.3370   22.8750   31.0010 O   0  0  0  0  0  0  0  0  0  0  0  0
   40.6956   22.6084   34.9341 H   0  0  0  0  0  0  0  0  0  0  0  0
   39.1927   21.4956   34.8683 H   0  0  0  0  0  0  0  0  0  0  0  0
   37.4393   24.1366   35.2864 H   0  0  0  0  0  0  0  0  0  0  0  0
   37.7665   24.3866   39.5099 H   0  0  0  0  0  0  0  0  0  0  0  0
   41.2701   21.6442   38.3379 H   0  0  0  0  0  0  0  0  0  0  0  0
   40.7256   20.9293   36.7825 H   0  0  0  0  0  0  0  0  0  0  0  0
   41.7659   22.3936   36.7825 H   0  0  0  0  0  0  0  0  0  0  0  0
   38.6410   24.0516   33.8384 H   0  0  0  0  0  0  0  0  0  0  0  0
   40.0455   23.2853   33.0035 H   0  0  0  0  0  0  0  0  0  0  0  0
   37.1021   21.4065   34.5304 H   0  0  0  0  0  0  0  0  0  0  0  0
   35.5677   19.8489   34.3058 H   0  0  0  0  0  0  0  0  0  0  0  0
   34.5031   20.1461   32.8899 H   0  0  0  0  0  0  0  0  0  0  0  0
   35.6275   18.7452   32.8899 H   0  0  0  0  0  0  0  0  0  0  0  0
   37.9177   21.4357   29.7580 H   0  0  0  0  0  0  0  0  0  0  0  0
  1  3  1  0
  2  7  2  0
  3  2  1  0
  3  4  2  0
  4  5  1  0
  5  6  2  0
  7  6  1  0
  8  4  1  0
  9  1  1  0
 10 11  1  0
 10  9  1  0
 12 13  1  0
 12 11  2  0
 14 12  1  0
 15 14  2  0
 16 14  1  0
 16 17  1  0
 17 10  1  0
 18 17  2  0
  1 19  1  0
  1 20  1  0
  2 21  1  0
  6 22  1  0
  8 23  1  0
  8 24  1  0
  8 25  1  0
  9 26  1  0
  9 27  1  0
 11 28  1  0
 13 29  1  0
 13 30  1  0
 13 31  1  0
 16 32  1  0
M  ISO  8  19   8  20   8  21  14  22  14  23   8  24   8  25   8  26   8
M  ISO  6  27   8  28  14  29   8  30   8  31   8  32   9
M  END
>  <minimizedAffinity>  (1) 
-4.41921139

>  <minimizedRMSD>  (1) 
3.65976954

$$$$
