
     RDKit          3D

 31 32  0  0  0  0  0  0  0  0999 V2000
   37.7610   23.6520   36.6810 C   0  0  0  0  0  0  0  0  0  0  0  0
   38.8430   22.9110   36.1950 C   0  0  0  0  0  0  0  0  0  0  0  0
   39.8380   22.5930   37.1010 C   0  0  0  0  0  0  0  0  0  0  0  0
   39.7320   22.9970   38.3800 N   0  0  0  0  0  0  0  0  0  0  0  0
   38.6780   23.7140   38.8340 C   0  0  0  0  0  0  0  0  0  0  0  0
   37.6900   24.0400   37.9750 N   0  0  0  0  0  0  0  0  0  0  0  0
   41.0320   21.7950   36.6420 C   0  0  0  0  0  0  0  0  0  0  0  0
   38.9460   22.4760   34.8060 C   0  0  0  0  0  0  0  0  0  0  0  0
   37.9460   22.9580   33.8490 C   0  0  0  0  0  0  0  0  0  0  0  0
   37.2380   21.8870   33.2210 N   0  0  0  0  0  0  0  0  0  0  0  0
   36.3370   22.2810   32.1690 C   0  0  0  0  0  0  0  0  0  0  0  0
   35.1440   21.3880   32.1950 C   0  0  0  0  0  0  0  0  0  0  0  0
   35.3790   20.4300   33.3130 C   0  0  0  0  0  0  0  0  0  0  0  0
   36.4690   21.0830   34.1490 C   0  0  0  0  0  0  0  0  0  0  0  0
   36.9471   23.9262   35.9937 H   0  0  0  0  0  0  0  0  0  0  0  0
   38.6275   24.0263   39.8875 H   0  0  0  0  0  0  0  0  0  0  0  0
   41.5849   21.4255   37.5182 H   0  0  0  0  0  0  0  0  0  0  0  0
   40.6921   20.9419   36.0364 H   0  0  0  0  0  0  0  0  0  0  0  0
   41.6902   22.4354   36.0364 H   0  0  0  0  0  0  0  0  0  0  0  0
   39.9311   22.7974   34.4367 H   0  0  0  0  0  0  0  0  0  0  0  0
   38.7774   21.3899   34.8494 H   0  0  0  0  0  0  0  0  0  0  0  0
   37.2246   23.5951   34.3815 H   0  0  0  0  0  0  0  0  0  0  0  0
   38.4737   23.5195   33.0640 H   0  0  0  0  0  0  0  0  0  0  0  0
   36.8435   22.1922   31.1966 H   0  0  0  0  0  0  0  0  0  0  0  0
   36.0242   23.3250   32.3180 H   0  0  0  0  0  0  0  0  0  0  0  0
   34.2309   21.9736   32.3777 H   0  0  0  0  0  0  0  0  0  0  0  0
   35.0074   20.8663   31.2363 H   0  0  0  0  0  0  0  0  0  0  0  0
   34.4632   20.2925   33.9066 H   0  0  0  0  0  0  0  0  0  0  0  0
   35.6677   19.4308   32.9548 H   0  0  0  0  0  0  0  0  0  0  0  0
   37.1070   20.3175   34.6149 H   0  0  0  0  0  0  0  0  0  0  0  0
   36.0496   21.6899   34.9649 H   0  0  0  0  0  0  0  0  0  0  0  0
  1  6  2  0
  2  1  1  0
  2  3  2  0
  3  4  1  0
  4  5  2  0
  6  5  1  0
  7  3  1  0
  8  2  1  0
  9  8  1  0
 10  9  1  0
 10 14  1  0
 11 12  1  0
 11 10  1  0
 12 13  1  0
 13 14  1  0
  1 15  1  0
  5 16  1  0
  7 17  1  0
  7 18  1  0
  7 19  1  0
  8 20  1  0
  8 21  1  0
  9 22  1  0
  9 23  1  0
 11 24  1  0
 11 25  1  0
 12 26  1  0
 12 27  1  0
 13 28  1  0
 13 29  1  0
 14 30  1  0
 14 31  1  0
M  ISO  8  15  14  16  14  17   8  18   8  19   8  20   8  21   8  22   8
M  ISO  8  23   8  24  13  25  13  26  13  27  13  28  13  29  13  30  13
M  ISO  1  31  13
M  END
>  <minimizedAffinity>  (1) 
-3.87005258

>  <minimizedRMSD>  (1) 
3.17135715

$$$$
