
     RDKit          3D

 25 26  0  0  0  0  0  0  0  0999 V2000
   37.9370   24.4820   36.6780 C   0  0  0  0  0  0  0  0  0  0  0  0
   38.9270   23.8820   35.9200 C   0  0  0  0  0  0  0  0  0  0  0  0
   39.8120   23.0340   36.6080 C   0  0  0  0  0  0  0  0  0  0  0  0
   39.6440   22.8590   37.9330 N   0  0  0  0  0  0  0  0  0  0  0  0
   38.6750   23.4570   38.6280 C   0  0  0  0  0  0  0  0  0  0  0  0
   37.8160   24.2700   38.0120 N   0  0  0  0  0  0  0  0  0  0  0  0
   40.9170   22.3410   35.8510 C   0  0  0  0  0  0  0  0  0  0  0  0
   39.1070   24.0700   34.4840 C   0  0  0  0  0  0  0  0  0  0  0  0
   38.3430   25.1540   33.8460 C   0  0  0  0  0  0  0  0  0  0  0  0
   37.3580   24.5660   32.8630 C   0  0  0  0  0  0  0  0  0  0  0  0
   37.3290   23.1510   32.6020 C   0  0  0  0  0  0  0  0  0  0  0  0
   36.0140   22.9900   31.3940 S   0  0  0  0  0  0  0  0  0  0  0  0
   35.6840   24.8660   31.4100 C   0  0  0  0  0  0  0  0  0  0  0  0
   36.5250   25.4220   32.2570 N   0  0  0  0  0  0  0  0  0  0  0  0
   37.2228   25.1548   36.1809 H   0  0  0  0  0  0  0  0  0  0  0  0
   38.5845   23.2794   39.7098 H   0  0  0  0  0  0  0  0  0  0  0  0
   41.6267   21.8959   36.5639 H   0  0  0  0  0  0  0  0  0  0  0  0
   40.4880   21.5499   35.2185 H   0  0  0  0  0  0  0  0  0  0  0  0
   41.4423   23.0717   35.2185 H   0  0  0  0  0  0  0  0  0  0  0  0
   40.1743   24.2694   34.3077 H   0  0  0  0  0  0  0  0  0  0  0  0
   38.7231   23.1460   34.0271 H   0  0  0  0  0  0  0  0  0  0  0  0
   37.7987   25.7209   34.6156 H   0  0  0  0  0  0  0  0  0  0  0  0
   39.0337   25.8257   33.3151 H   0  0  0  0  0  0  0  0  0  0  0  0
   37.9593   22.3615   33.0371 H   0  0  0  0  0  0  0  0  0  0  0  0
   34.9234   25.3930   30.8153 H   0  0  0  0  0  0  0  0  0  0  0  0
  1  6  2  0
  2  3  2  0
  2  1  1  0
  3  4  1  0
  4  5  2  0
  6  5  1  0
  7  3  1  0
  8  2  1  0
  9  8  1  0
 10  9  1  0
 11 10  2  0
 12 13  1  0
 12 11  1  0
 13 14  2  0
 14 10  1  0
  1 15  1  0
  5 16  1  0
  7 17  1  0
  7 18  1  0
  7 19  1  0
  8 20  1  0
  8 21  1  0
  9 22  1  0
  9 23  1  0
 11 24  1  0
 13 25  1  0
M  ISO  8  15  14  16  14  17   8  18   8  19   8  20   8  21   8  22   8
M  ISO  3  23   8  24  14  25  14
M  END
>  <minimizedAffinity>  (1) 
-3.74033666

>  <minimizedRMSD>  (1) 
3.5264442

$$$$
