
     RDKit          3D

 41 45  0  0  0  0  0  0  0  0999 V2000
   42.4200   23.1360   33.1550 C   0  0  0  0  0  0  0  0  0  0  0  0
   43.3860   24.0490   33.5420 C   0  0  0  0  0  0  0  0  0  0  0  0
   43.5050   25.1820   32.0640 S   0  0  0  0  0  0  0  0  0  0  0  0
   42.1570   24.1420   31.1910 C   0  0  0  0  0  0  0  0  0  0  0  0
   41.9850   23.4030   31.9770 N   0  0  0  0  0  0  0  0  0  0  0  0
   41.5840   24.3560   29.8670 N   0  0  0  0  0  0  0  0  0  0  0  0
   42.1370   23.6670   28.8870 C   0  0  0  0  0  0  0  0  0  0  0  0
   41.4540   24.0110   27.7350 C   0  0  0  0  0  0  0  0  0  0  0  0
   40.5220   24.8970   28.0930 N   0  0  0  0  0  0  0  0  0  0  0  0
   40.5750   25.1340   29.4120 C   0  0  0  0  0  0  0  0  0  0  0  0
   39.8900   25.9310   30.3600 N   0  0  0  0  0  0  0  0  0  0  0  0
   40.1290   27.1290   30.9610 C   0  0  0  0  0  0  0  0  0  0  0  0
   39.1290   27.4260   31.7980 N   0  0  0  0  0  0  0  0  0  0  0  0
   38.2100   26.4440   31.7780 C   0  0  0  0  0  0  0  0  0  0  0  0
   37.0100   26.2350   32.4270 C   0  0  0  0  0  0  0  0  0  0  0  0
   36.5650   27.0680   33.2430 O   0  0  0  0  0  0  0  0  0  0  0  0
   36.2690   25.1320   32.2140 N   0  0  0  0  0  0  0  0  0  0  0  0
   36.7600   24.2420   31.3330 C   0  0  0  0  0  0  0  0  0  0  0  0
   36.0880   23.0110   30.9940 N   0  0  0  0  0  0  0  0  0  0  0  0
   37.9240   24.4210   30.6880 N   0  0  0  0  0  0  0  0  0  0  0  0
   38.7010   25.5210   30.8760 C   0  0  0  0  0  0  0  0  0  0  0  0
   42.1190   21.8740   34.3500 S   0  0  0  0  0  0  0  0  0  0  0  0
   40.0460   22.5770   37.6740 C   0  0  0  0  0  0  0  0  0  0  0  0
   39.0590   23.4730   37.2160 C   0  0  0  0  0  0  0  0  0  0  0  0
   39.0590   23.8430   35.8830 C   0  0  0  0  0  0  0  0  0  0  0  0
   40.0030   23.3190   35.0500 N   0  0  0  0  0  0  0  0  0  0  0  0
   40.9200   22.4510   35.5540 C   0  0  0  0  0  0  0  0  0  0  0  0
   40.9100   22.1060   36.8720 N   0  0  0  0  0  0  0  0  0  0  0  0
   37.8530   23.7640   38.0560 C   0  0  0  0  0  0  0  0  0  0  0  0
   36.9260   24.2310   37.1320 F   0  0  0  0  0  0  0  0  0  0  0  0
   37.3640   22.8640   38.7720 F   0  0  0  0  0  0  0  0  0  0  0  0
   38.2870   24.9300   38.7270 F   0  0  0  0  0  0  0  0  0  0  0  0
   43.9456   24.0952   34.4879 H   0  0  0  0  0  0  0  0  0  0  0  0
   42.9751   22.9594   28.9700 H   0  0  0  0  0  0  0  0  0  0  0  0
   41.6421   23.6289   26.7208 H   0  0  0  0  0  0  0  0  0  0  0  0
   41.0132   27.7591   30.7844 H   0  0  0  0  0  0  0  0  0  0  0  0
   35.3739   24.9776   32.6996 H   0  0  0  0  0  0  0  0  0  0  0  0
   36.5099   22.3649   30.3118 H   0  0  0  0  0  0  0  0  0  0  0  0
   35.1863   22.7783   31.4342 H   0  0  0  0  0  0  0  0  0  0  0  0
   40.0678   22.2838   38.7340 H   0  0  0  0  0  0  0  0  0  0  0  0
   38.3081   24.5499   35.5004 H   0  0  0  0  0  0  0  0  0  0  0  0
  1  2  2  0
  1 22  1  0
  3  2  1  0
  4  5  2  0
  4  3  1  0
  5  1  1  0
  6  4  1  0
  7  6  1  0
  8  9  1  0
  8  7  2  0
  9 10  2  0
 10  6  1  0
 10 11  1  0
 11 21  1  0
 11 12  1  0
 12 13  2  0
 14 13  1  0
 14 15  1  0
 15 16  2  0
 17 15  1  0
 18 17  1  0
 19 18  1  0
 20 21  1  0
 20 18  2  0
 21 14  2  0
 22 27  1  0
 24 23  2  0
 24 29  1  0
 25 24  1  0
 26 27  1  0
 26 25  2  0
 27 28  2  0
 28 23  1  0
 29 32  1  0
 29 31  1  0
 30 29  1  0
  2 33  1  0
  7 34  1  0
  8 35  1  0
 12 36  1  0
 17 37  1  0
 19 38  1  0
 19 39  1  0
 23 40  1  0
 25 41  1  0
M  ISO  7  33  14  34  14  35  14  36  14  37   9  40  14  41  14
M  END
>  <minimizedAffinity>  (1) 
-5.79658461

>  <minimizedRMSD>  (1) 
5.94035149

$$$$
