
     RDKit          3D

 34 36  0  0  0  0  0  0  0  0999 V2000
   41.0480   24.5350   34.2690 C   0  0  0  0  0  0  0  0  0  0  0  0
   42.3340   25.1720   34.5900 C   0  0  0  0  0  0  0  0  0  0  0  0
   43.1790   26.1080   34.1630 N   0  0  0  0  0  0  0  0  0  0  0  0
   44.2100   26.2150   34.9170 O   0  0  0  0  0  0  0  0  0  0  0  0
   44.0850   25.3520   35.8750 C   0  0  0  0  0  0  0  0  0  0  0  0
   42.9560   24.7050   35.6980 N   0  0  0  0  0  0  0  0  0  0  0  0
   45.0810   25.1700   36.9540 C   0  0  0  0  0  0  0  0  0  0  0  0
   46.2350   24.4500   36.6510 C   0  0  0  0  0  0  0  0  0  0  0  0
   47.1650   24.2770   37.6510 C   0  0  0  0  0  0  0  0  0  0  0  0
   46.9900   24.7920   38.9300 C   0  0  0  0  0  0  0  0  0  0  0  0
   45.8370   25.4990   39.1970 C   0  0  0  0  0  0  0  0  0  0  0  0
   44.8820   25.6880   38.2070 C   0  0  0  0  0  0  0  0  0  0  0  0
   40.6640   23.3950   35.1070 C   0  0  0  0  0  0  0  0  0  0  0  0
   38.6570   24.5150   36.1280 C   0  0  0  0  0  0  0  0  0  0  0  0
   39.7180   23.6340   36.1730 C   0  0  0  0  0  0  0  0  0  0  0  0
   39.8730   22.9150   37.3470 C   0  0  0  0  0  0  0  0  0  0  0  0
   38.9710   23.1260   38.3700 N   0  0  0  0  0  0  0  0  0  0  0  0
   37.9590   23.9860   38.2850 C   0  0  0  0  0  0  0  0  0  0  0  0
   37.7960   24.6930   37.1490 N   0  0  0  0  0  0  0  0  0  0  0  0
   40.9340   21.9190   37.5450 C   0  0  0  0  0  0  0  0  0  0  0  0
   40.2624   25.2994   34.3615 H   0  0  0  0  0  0  0  0  0  0  0  0
   41.1660   24.1280   33.2539 H   0  0  0  0  0  0  0  0  0  0  0  0
   46.3974   24.0336   35.6459 H   0  0  0  0  0  0  0  0  0  0  0  0
   48.0811   23.7098   37.4295 H   0  0  0  0  0  0  0  0  0  0  0  0
   47.7516   24.6395   39.7089 H   0  0  0  0  0  0  0  0  0  0  0  0
   45.6724   25.9163   40.2014 H   0  0  0  0  0  0  0  0  0  0  0  0
   43.9651   26.2539   38.4286 H   0  0  0  0  0  0  0  0  0  0  0  0
   40.2274   22.6328   34.4449 H   0  0  0  0  0  0  0  0  0  0  0  0
   41.5920   23.1011   35.6192 H   0  0  0  0  0  0  0  0  0  0  0  0
   38.5062   25.1028   35.2105 H   0  0  0  0  0  0  0  0  0  0  0  0
   37.2660   24.1179   39.1290 H   0  0  0  0  0  0  0  0  0  0  0  0
   41.0969   21.7660   38.6221 H   0  0  0  0  0  0  0  0  0  0  0  0
   40.6352   20.9677   37.0806 H   0  0  0  0  0  0  0  0  0  0  0  0
   41.8646   22.2773   37.0806 H   0  0  0  0  0  0  0  0  0  0  0  0
  1  2  1  0
  1 13  1  0
  2  6  1  0
  3  2  2  0
  3  4  1  0
  4  5  1  0
  5  7  1  0
  6  5  2  0
  7 12  1  0
  8  7  2  0
  8  9  1  0
  9 10  2  0
 10 11  1  0
 12 11  2  0
 13 15  1  0
 14 15  2  0
 14 19  1  0
 15 16  1  0
 16 20  1  0
 16 17  2  0
 18 17  1  0
 19 18  2  0
  1 21  1  0
  1 22  1  0
  8 23  1  0
  9 24  1  0
 10 25  1  0
 11 26  1  0
 12 27  1  0
 13 28  1  0
 13 29  1  0
 14 30  1  0
 18 31  1  0
 20 32  1  0
 20 33  1  0
 20 34  1  0
M  ISO  8  21   8  22   8  23  14  24  14  25  14  26  14  27  14  28   8
M  ISO  6  29   8  30  14  31  14  32   8  33   8  34   8
M  END
>  <minimizedAffinity>  (1) 
-5.64288902

>  <minimizedRMSD>  (1) 
2.24571562

$$$$
