
     RDKit          3D

 37 39  0  0  0  0  0  0  0  0999 V2000
   41.9030   24.5090   34.8960 C   0  0  0  0  0  0  0  0  0  0  0  0
   43.1100   24.5080   35.7400 C   0  0  0  0  0  0  0  0  0  0  0  0
   43.6430   23.8920   36.8110 N   0  0  0  0  0  0  0  0  0  0  0  0
   44.8000   24.3640   37.0910 O   0  0  0  0  0  0  0  0  0  0  0  0
   45.0960   25.3030   36.2370 C   0  0  0  0  0  0  0  0  0  0  0  0
   44.0700   25.4010   35.4050 N   0  0  0  0  0  0  0  0  0  0  0  0
   46.3450   25.9840   36.3460 N   0  0  0  0  0  0  0  0  0  0  0  0
   46.7370   26.7160   35.2650 C   0  0  0  0  0  0  0  0  0  0  0  0
   47.9300   27.4070   35.2790 C   0  0  0  0  0  0  0  0  0  0  0  0
   48.3780   28.2130   34.1090 C   0  0  0  0  0  0  0  0  0  0  0  0
   48.7220   27.3430   36.4120 C   0  0  0  0  0  0  0  0  0  0  0  0
   49.8200   27.9570   36.4750 O   0  0  0  0  0  0  0  0  0  0  0  0
   48.3100   26.6120   37.4650 N   0  0  0  0  0  0  0  0  0  0  0  0
   47.1490   25.9450   37.4390 C   0  0  0  0  0  0  0  0  0  0  0  0
   46.6640   25.2310   38.3650 O   0  0  0  0  0  0  0  0  0  0  0  0
   40.9540   23.4350   35.1260 C   0  0  0  0  0  0  0  0  0  0  0  0
   38.8910   24.5750   36.0020 C   0  0  0  0  0  0  0  0  0  0  0  0
   39.9100   23.6390   36.1260 C   0  0  0  0  0  0  0  0  0  0  0  0
   39.9140   22.8680   37.2840 C   0  0  0  0  0  0  0  0  0  0  0  0
   38.9250   23.0980   38.1860 N   0  0  0  0  0  0  0  0  0  0  0  0
   37.9700   23.9960   38.0380 C   0  0  0  0  0  0  0  0  0  0  0  0
   37.9430   24.7510   36.9340 N   0  0  0  0  0  0  0  0  0  0  0  0
   40.9570   21.8340   37.5100 C   0  0  0  0  0  0  0  0  0  0  0  0
   42.2282   24.4494   33.8468 H   0  0  0  0  0  0  0  0  0  0  0  0
   41.3663   25.4337   35.1546 H   0  0  0  0  0  0  0  0  0  0  0  0
   46.0951   26.7558   34.3726 H   0  0  0  0  0  0  0  0  0  0  0  0
   48.8840   29.1233   34.4630 H   0  0  0  0  0  0  0  0  0  0  0  0
   49.0754   27.6191   33.5000 H   0  0  0  0  0  0  0  0  0  0  0  0
   47.5054   28.4918   33.5000 H   0  0  0  0  0  0  0  0  0  0  0  0
   48.9000   26.5648   38.3080 H   0  0  0  0  0  0  0  0  0  0  0  0
   40.4528   23.2319   34.1681 H   0  0  0  0  0  0  0  0  0  0  0  0
   41.5640   22.6148   35.5324 H   0  0  0  0  0  0  0  0  0  0  0  0
   38.8603   25.2006   35.0977 H   0  0  0  0  0  0  0  0  0  0  0  0
   37.2025   24.1229   38.8157 H   0  0  0  0  0  0  0  0  0  0  0  0
   41.1023   21.6899   38.5908 H   0  0  0  0  0  0  0  0  0  0  0  0
   40.6380   20.8855   37.0533 H   0  0  0  0  0  0  0  0  0  0  0  0
   41.9027   22.1612   37.0533 H   0  0  0  0  0  0  0  0  0  0  0  0
  1 16  1  0
  1  2  1  0
  2  3  2  0
  3  4  1  0
  5  7  1  0
  5  4  1  0
  6  2  1  0
  6  5  2  0
  7 14  1  0
  8  9  2  0
  8  7  1  0
  9 11  1  0
 10  9  1  0
 11 12  2  0
 11 13  1  0
 14 13  1  0
 14 15  2  0
 16 18  1  0
 17 18  2  0
 17 22  1  0
 18 19  1  0
 19 23  1  0
 19 20  2  0
 21 20  1  0
 22 21  2  0
  1 24  1  0
  1 25  1  0
  8 26  1  0
 10 27  1  0
 10 28  1  0
 10 29  1  0
 13 30  1  0
 16 31  1  0
 16 32  1  0
 17 33  1  0
 21 34  1  0
 23 35  1  0
 23 36  1  0
 23 37  1  0
M  ISO  8  24   8  25   8  26  14  27   8  28   8  29   8  30   9  31   8
M  ISO  6  32   8  33  14  34  14  35   8  36   8  37   8
M  END
>  <minimizedAffinity>  (1) 
-5.25845861

>  <minimizedRMSD>  (1) 
0.620566428

$$$$
