
     RDKit          3D

 34 36  0  0  0  0  0  0  0  0999 V2000
   41.9210   24.5760   34.9570 C   0  0  0  0  0  0  0  0  0  0  0  0
   43.1520   24.5170   35.7580 C   0  0  0  0  0  0  0  0  0  0  0  0
   43.7250   23.8330   36.7720 N   0  0  0  0  0  0  0  0  0  0  0  0
   44.8960   24.2900   37.0390 O   0  0  0  0  0  0  0  0  0  0  0  0
   45.1390   25.2780   36.2260 C   0  0  0  0  0  0  0  0  0  0  0  0
   44.0970   25.4350   35.4400 N   0  0  0  0  0  0  0  0  0  0  0  0
   46.3800   26.0220   36.2570 N   0  0  0  0  0  0  0  0  0  0  0  0
   46.7500   26.7460   35.1840 C   0  0  0  0  0  0  0  0  0  0  0  0
   47.9420   27.4630   35.2080 C   0  0  0  0  0  0  0  0  0  0  0  0
   48.6710   27.3650   36.3760 C   0  0  0  0  0  0  0  0  0  0  0  0
   49.7570   28.0400   36.3530 O   0  0  0  0  0  0  0  0  0  0  0  0
   48.2890   26.6360   37.4410 N   0  0  0  0  0  0  0  0  0  0  0  0
   47.1170   25.9480   37.3810 C   0  0  0  0  0  0  0  0  0  0  0  0
   46.8150   25.2870   38.4040 O   0  0  0  0  0  0  0  0  0  0  0  0
   40.9650   23.4920   35.1530 C   0  0  0  0  0  0  0  0  0  0  0  0
   38.8820   24.5930   36.0110 C   0  0  0  0  0  0  0  0  0  0  0  0
   39.9140   23.6690   36.1320 C   0  0  0  0  0  0  0  0  0  0  0  0
   39.8990   22.8920   37.2780 C   0  0  0  0  0  0  0  0  0  0  0  0
   38.8870   23.0990   38.1750 N   0  0  0  0  0  0  0  0  0  0  0  0
   37.9240   23.9880   38.0220 C   0  0  0  0  0  0  0  0  0  0  0  0
   37.9080   24.7520   36.9310 N   0  0  0  0  0  0  0  0  0  0  0  0
   40.9470   21.8660   37.5170 C   0  0  0  0  0  0  0  0  0  0  0  0
   42.2121   24.5772   33.8962 H   0  0  0  0  0  0  0  0  0  0  0  0
   41.4009   25.4867   35.2888 H   0  0  0  0  0  0  0  0  0  0  0  0
   46.1106   26.7706   34.2893 H   0  0  0  0  0  0  0  0  0  0  0  0
   48.2807   28.0674   34.3536 H   0  0  0  0  0  0  0  0  0  0  0  0
   48.8745   26.5996   38.2876 H   0  0  0  0  0  0  0  0  0  0  0  0
   40.4787   23.3082   34.1836 H   0  0  0  0  0  0  0  0  0  0  0  0
   41.5713   22.6664   35.5539 H   0  0  0  0  0  0  0  0  0  0  0  0
   38.8584   25.2302   35.1147 H   0  0  0  0  0  0  0  0  0  0  0  0
   37.1421   24.0971   38.7879 H   0  0  0  0  0  0  0  0  0  0  0  0
   41.0864   21.7295   38.5996 H   0  0  0  0  0  0  0  0  0  0  0  0
   40.6369   20.9127   37.0642 H   0  0  0  0  0  0  0  0  0  0  0  0
   41.8935   22.1963   37.0642 H   0  0  0  0  0  0  0  0  0  0  0  0
  1 15  1  0
  1  2  1  0
  2  3  2  0
  3  4  1  0
  5  7  1  0
  5  4  1  0
  6  2  1  0
  6  5  2  0
  7 13  1  0
  8  9  2  0
  8  7  1  0
  9 10  1  0
 10 12  1  0
 11 10  2  0
 13 12  1  0
 13 14  2  0
 15 17  1  0
 16 17  2  0
 16 21  1  0
 17 18  1  0
 18 22  1  0
 18 19  2  0
 20 19  1  0
 21 20  2  0
  1 23  1  0
  1 24  1  0
  8 25  1  0
  9 26  1  0
 12 27  1  0
 15 28  1  0
 15 29  1  0
 16 30  1  0
 20 31  1  0
 22 32  1  0
 22 33  1  0
 22 34  1  0
M  ISO  8  23   8  24   8  25  14  26  14  27   9  28   8  29   8  30  14
M  ISO  4  31  14  32   8  33   8  34   8
M  END
>  <minimizedAffinity>  (1) 
-5.16165495

>  <minimizedRMSD>  (1) 
0.595676482

$$$$
