
     RDKit          3D

 39 41  0  0  0  0  0  0  0  0999 V2000
   40.6890   23.3660   35.1550 C   0  0  0  0  0  0  0  0  0  0  0  0
   38.6930   24.5390   36.1500 C   0  0  0  0  0  0  0  0  0  0  0  0
   39.7220   23.6050   36.2240 C   0  0  0  0  0  0  0  0  0  0  0  0
   39.8160   22.8710   37.4010 C   0  0  0  0  0  0  0  0  0  0  0  0
   38.8920   23.1360   38.3690 N   0  0  0  0  0  0  0  0  0  0  0  0
   37.9290   24.0290   38.2660 C   0  0  0  0  0  0  0  0  0  0  0  0
   37.8240   24.7390   37.1490 N   0  0  0  0  0  0  0  0  0  0  0  0
   40.8750   21.8440   37.5800 C   0  0  0  0  0  0  0  0  0  0  0  0
   41.6850   24.3820   34.8770 C   0  0  0  0  0  0  0  0  0  0  0  0
   42.9480   24.2810   35.6250 C   0  0  0  0  0  0  0  0  0  0  0  0
   43.6030   23.4510   36.4660 N   0  0  0  0  0  0  0  0  0  0  0  0
   44.7510   23.9600   36.8050 O   0  0  0  0  0  0  0  0  0  0  0  0
   44.8790   25.0950   36.2210 C   0  0  0  0  0  0  0  0  0  0  0  0
   43.8120   25.3380   35.4920 N   0  0  0  0  0  0  0  0  0  0  0  0
   46.0410   25.9440   36.3720 N   0  0  0  0  0  0  0  0  0  0  0  0
   46.7790   25.9000   37.6180 C   0  0  0  0  0  0  0  0  0  0  0  0
   48.2650   26.0070   37.4160 C   0  0  0  0  0  0  0  0  0  0  0  0
   48.6450   25.8820   35.9500 C   0  0  0  0  0  0  0  0  0  0  0  0
   47.9550   27.0470   35.2710 C   0  0  0  0  0  0  0  0  0  0  0  0
   46.4860   26.8260   35.3360 C   0  0  0  0  0  0  0  0  0  0  0  0
   41.2305   22.4427   35.4087 H   0  0  0  0  0  0  0  0  0  0  0  0
   40.0759   23.3363   34.2422 H   0  0  0  0  0  0  0  0  0  0  0  0
   38.5892   25.1377   35.2330 H   0  0  0  0  0  0  0  0  0  0  0  0
   37.2217   24.1843   39.0940 H   0  0  0  0  0  0  0  0  0  0  0  0
   41.0466   21.6776   38.6537 H   0  0  0  0  0  0  0  0  0  0  0  0
   40.5559   20.9024   37.1094 H   0  0  0  0  0  0  0  0  0  0  0  0
   41.8064   22.1919   37.1094 H   0  0  0  0  0  0  0  0  0  0  0  0
   41.9258   24.3303   33.8049 H   0  0  0  0  0  0  0  0  0  0  0  0
   41.2311   25.3317   35.1963 H   0  0  0  0  0  0  0  0  0  0  0  0
   46.4489   26.7359   38.2523 H   0  0  0  0  0  0  0  0  0  0  0  0
   46.5769   24.9271   38.0898 H   0  0  0  0  0  0  0  0  0  0  0  0
   48.6059   26.9836   37.7903 H   0  0  0  0  0  0  0  0  0  0  0  0
   48.7452   25.1838   37.9654 H   0  0  0  0  0  0  0  0  0  0  0  0
   49.7357   25.9513   35.8251 H   0  0  0  0  0  0  0  0  0  0  0  0
   48.3424   24.9142   35.5236 H   0  0  0  0  0  0  0  0  0  0  0  0
   48.2754   27.1073   34.2204 H   0  0  0  0  0  0  0  0  0  0  0  0
   48.2180   27.9881   35.7761 H   0  0  0  0  0  0  0  0  0  0  0  0
   46.0029   27.8020   35.4911 H   0  0  0  0  0  0  0  0  0  0  0  0
   46.2112   26.3411   34.3877 H   0  0  0  0  0  0  0  0  0  0  0  0
  1  3  1  0
  2  3  2  0
  2  7  1  0
  3  4  1  0
  4  8  1  0
  4  5  2  0
  6  5  1  0
  7  6  2  0
  9  1  1  0
  9 10  1  0
 10 11  2  0
 11 12  1  0
 13 15  1  0
 13 12  1  0
 14 10  1  0
 14 13  2  0
 15 16  1  0
 17 16  1  0
 18 17  1  0
 19 20  1  0
 19 18  1  0
 20 15  1  0
  1 21  1  0
  1 22  1  0
  2 23  1  0
  6 24  1  0
  8 25  1  0
  8 26  1  0
  8 27  1  0
  9 28  1  0
  9 29  1  0
 16 30  1  0
 16 31  1  0
 17 32  1  0
 17 33  1  0
 18 34  1  0
 18 35  1  0
 19 36  1  0
 19 37  1  0
 20 38  1  0
 20 39  1  0
M  ISO  8  21   8  22   8  23  14  24  14  25   8  26   8  27   8  28   8
M  ISO  8  29   8  30  13  31  13  32  13  33  13  34  13  35  13  36  13
M  ISO  3  37  13  38  13  39  13
M  END
>  <minimizedAffinity>  (1) 
-4.77362061

>  <minimizedRMSD>  (1) 
0.50266391

$$$$
