
     RDKit          3D

 30 32  0  0  0  0  0  0  0  0999 V2000
   41.0390   23.5770   35.1560 C   0  0  0  0  0  0  0  0  0  0  0  0
   38.9000   24.6440   35.9180 C   0  0  0  0  0  0  0  0  0  0  0  0
   39.9330   23.7290   36.0780 C   0  0  0  0  0  0  0  0  0  0  0  0
   39.8700   22.9160   37.2210 C   0  0  0  0  0  0  0  0  0  0  0  0
   38.8070   23.0920   38.0700 N   0  0  0  0  0  0  0  0  0  0  0  0
   37.8520   23.9810   37.8670 C   0  0  0  0  0  0  0  0  0  0  0  0
   37.8850   24.7670   36.7900 N   0  0  0  0  0  0  0  0  0  0  0  0
   40.9200   21.9000   37.4880 C   0  0  0  0  0  0  0  0  0  0  0  0
   41.9850   24.6780   35.0380 C   0  0  0  0  0  0  0  0  0  0  0  0
   43.2090   24.5890   35.8490 C   0  0  0  0  0  0  0  0  0  0  0  0
   43.7490   23.9050   36.8590 N   0  0  0  0  0  0  0  0  0  0  0  0
   44.9370   24.3310   37.1290 O   0  0  0  0  0  0  0  0  0  0  0  0
   45.2160   25.2970   36.3180 C   0  0  0  0  0  0  0  0  0  0  0  0
   44.1870   25.4830   35.5210 N   0  0  0  0  0  0  0  0  0  0  0  0
   46.4760   25.9980   36.3520 N   0  0  0  0  0  0  0  0  0  0  0  0
   47.0610   26.7450   35.3980 C   0  0  0  0  0  0  0  0  0  0  0  0
   48.2400   27.2190   35.8520 N   0  0  0  0  0  0  0  0  0  0  0  0
   48.3920   26.7550   37.1190 C   0  0  0  0  0  0  0  0  0  0  0  0
   47.3060   26.0190   37.3920 N   0  0  0  0  0  0  0  0  0  0  0  0
   41.6074   22.6892   35.4700 H   0  0  0  0  0  0  0  0  0  0  0  0
   40.5651   23.5136   34.1653 H   0  0  0  0  0  0  0  0  0  0  0  0
   38.9136   25.2995   35.0348 H   0  0  0  0  0  0  0  0  0  0  0  0
   37.0267   24.0736   38.5883 H   0  0  0  0  0  0  0  0  0  0  0  0
   41.0452   21.7788   38.5741 H   0  0  0  0  0  0  0  0  0  0  0  0
   40.6217   20.9389   37.0438 H   0  0  0  0  0  0  0  0  0  0  0  0
   41.8708   22.2298   37.0438 H   0  0  0  0  0  0  0  0  0  0  0  0
   42.2887   24.7445   33.9829 H   0  0  0  0  0  0  0  0  0  0  0  0
   41.4499   25.5601   35.4194 H   0  0  0  0  0  0  0  0  0  0  0  0
   46.6419   26.9397   34.3998 H   0  0  0  0  0  0  0  0  0  0  0  0
   49.2417   26.9462   37.7909 H   0  0  0  0  0  0  0  0  0  0  0  0
  1  3  1  0
  2  3  2  0
  2  7  1  0
  3  4  1  0
  4  8  1  0
  4  5  2  0
  6  5  1  0
  7  6  2  0
  9  1  1  0
  9 10  1  0
 10 11  2  0
 11 12  1  0
 13 15  1  0
 13 12  1  0
 14 10  1  0
 14 13  2  0
 15 19  1  0
 16 17  2  0
 16 15  1  0
 17 18  1  0
 18 19  2  0
  1 20  1  0
  1 21  1  0
  2 22  1  0
  6 23  1  0
  8 24  1  0
  8 25  1  0
  8 26  1  0
  9 27  1  0
  9 28  1  0
 16 29  1  0
 18 30  1  0
M  ISO  8  20   8  21   8  22  14  23  14  24   8  25   8  26   8  27   8
M  ISO  3  28   8  29  14  30  14
M  END
>  <minimizedAffinity>  (1) 
-4.6766758

>  <minimizedRMSD>  (1) 
0.529627502

$$$$
