
     RDKit          3D

 37 39  0  0  0  0  0  0  0  0999 V2000
   40.8630   23.4130   35.1410 C   0  0  0  0  0  0  0  0  0  0  0  0
   38.8260   24.5710   36.0170 C   0  0  0  0  0  0  0  0  0  0  0  0
   39.8430   23.6320   36.1510 C   0  0  0  0  0  0  0  0  0  0  0  0
   39.8530   22.8860   37.3150 C   0  0  0  0  0  0  0  0  0  0  0  0
   38.8700   23.1340   38.2330 N   0  0  0  0  0  0  0  0  0  0  0  0
   37.9170   24.0340   38.0760 C   0  0  0  0  0  0  0  0  0  0  0  0
   37.8880   24.7680   36.9540 N   0  0  0  0  0  0  0  0  0  0  0  0
   40.8940   21.8540   37.5550 C   0  0  0  0  0  0  0  0  0  0  0  0
   41.8510   24.4580   34.9190 C   0  0  0  0  0  0  0  0  0  0  0  0
   43.0690   24.4050   35.7410 C   0  0  0  0  0  0  0  0  0  0  0  0
   43.6870   23.6500   36.6570 N   0  0  0  0  0  0  0  0  0  0  0  0
   44.8030   24.1630   37.0280 O   0  0  0  0  0  0  0  0  0  0  0  0
   44.9710   25.2780   36.3750 C   0  0  0  0  0  0  0  0  0  0  0  0
   43.9310   25.4420   35.5890 N   0  0  0  0  0  0  0  0  0  0  0  0
   46.1680   26.1820   36.5300 C   0  0  0  0  0  0  0  0  0  0  0  0
   46.9980   26.2150   35.2720 C   0  0  0  0  0  0  0  0  0  0  0  0
   48.2430   26.9470   35.7910 C   0  0  0  0  0  0  0  0  0  0  0  0
   48.3390   26.5750   37.2590 C   0  0  0  0  0  0  0  0  0  0  0  0
   47.1830   25.6050   37.4970 C   0  0  0  0  0  0  0  0  0  0  0  0
   41.4108   22.5020   35.4238 H   0  0  0  0  0  0  0  0  0  0  0  0
   40.3024   23.3648   34.1958 H   0  0  0  0  0  0  0  0  0  0  0  0
   38.7897   25.1792   35.1012 H   0  0  0  0  0  0  0  0  0  0  0  0
   37.1556   24.1801   38.8564 H   0  0  0  0  0  0  0  0  0  0  0  0
   41.0320   21.7172   38.6377 H   0  0  0  0  0  0  0  0  0  0  0  0
   40.5782   20.9024   37.1025 H   0  0  0  0  0  0  0  0  0  0  0  0
   41.8428   22.1781   37.1025 H   0  0  0  0  0  0  0  0  0  0  0  0
   42.1590   24.4060   33.8643 H   0  0  0  0  0  0  0  0  0  0  0  0
   41.3498   25.3937   35.2076 H   0  0  0  0  0  0  0  0  0  0  0  0
   45.7380   27.1484   36.8320 H   0  0  0  0  0  0  0  0  0  0  0  0
   46.4993   26.7774   34.4689 H   0  0  0  0  0  0  0  0  0  0  0  0
   47.1942   25.2309   34.8213 H   0  0  0  0  0  0  0  0  0  0  0  0
   49.1404   26.6140   35.2490 H   0  0  0  0  0  0  0  0  0  0  0  0
   48.1710   28.0350   35.6461 H   0  0  0  0  0  0  0  0  0  0  0  0
   49.3022   26.0885   37.4725 H   0  0  0  0  0  0  0  0  0  0  0  0
   48.2800   27.4570   37.9137 H   0  0  0  0  0  0  0  0  0  0  0  0
   46.8253   25.6403   38.5366 H   0  0  0  0  0  0  0  0  0  0  0  0
   47.4243   24.5428   37.3434 H   0  0  0  0  0  0  0  0  0  0  0  0
  1  3  1  0
  2  3  2  0
  2  7  1  0
  3  4  1  0
  4  8  1  0
  4  5  2  0
  6  5  1  0
  7  6  2  0
  9  1  1  0
  9 10  1  0
 10 11  2  0
 11 12  1  0
 13 15  1  0
 13 12  1  0
 14 10  1  0
 14 13  2  0
 15 19  1  0
 16 17  1  0
 16 15  1  0
 17 18  1  0
 18 19  1  0
  1 20  1  0
  1 21  1  0
  2 22  1  0
  6 23  1  0
  8 24  1  0
  8 25  1  0
  8 26  1  0
  9 27  1  0
  9 28  1  0
 15 29  1  0
 16 30  1  0
 16 31  1  0
 17 32  1  0
 17 33  1  0
 18 34  1  0
 18 35  1  0
 19 36  1  0
 19 37  1  0
M  ISO  8  20   8  21   8  22  14  23  14  24   8  25   8  26   8  27   8
M  ISO  8  28   8  29  13  30  13  31  13  32  13  33  13  34  13  35  13
M  ISO  2  36  13  37  13
M  END
>  <minimizedAffinity>  (1) 
-4.53052092

>  <minimizedRMSD>  (1) 
0.704883039

$$$$
