
     RDKit          3D

 30 32  0  0  0  0  0  0  0  0999 V2000
   41.0530   23.5960   35.1630 C   0  0  0  0  0  0  0  0  0  0  0  0
   38.9040   24.6440   35.9280 C   0  0  0  0  0  0  0  0  0  0  0  0
   39.9430   23.7360   36.0830 C   0  0  0  0  0  0  0  0  0  0  0  0
   39.8710   22.9170   37.2180 C   0  0  0  0  0  0  0  0  0  0  0  0
   38.8070   23.0910   38.0440 N   0  0  0  0  0  0  0  0  0  0  0  0
   37.8390   23.9700   37.8590 C   0  0  0  0  0  0  0  0  0  0  0  0
   37.8940   24.7520   36.7880 N   0  0  0  0  0  0  0  0  0  0  0  0
   40.9210   21.9050   37.4860 C   0  0  0  0  0  0  0  0  0  0  0  0
   41.9960   24.6970   35.0380 C   0  0  0  0  0  0  0  0  0  0  0  0
   43.2310   24.5790   35.8420 C   0  0  0  0  0  0  0  0  0  0  0  0
   43.7800   23.8740   36.8390 N   0  0  0  0  0  0  0  0  0  0  0  0
   44.9630   24.2880   37.1010 O   0  0  0  0  0  0  0  0  0  0  0  0
   45.2630   25.2760   36.3030 C   0  0  0  0  0  0  0  0  0  0  0  0
   44.2010   25.4650   35.5240 N   0  0  0  0  0  0  0  0  0  0  0  0
   46.5440   26.0330   36.2860 C   0  0  0  0  0  0  0  0  0  0  0  0
   47.4300   25.9620   37.3800 C   0  0  0  0  0  0  0  0  0  0  0  0
   48.8210   27.0450   36.8720 S   0  0  0  0  0  0  0  0  0  0  0  0
   47.9470   27.4210   35.2260 C   0  0  0  0  0  0  0  0  0  0  0  0
   46.9620   26.8030   35.3050 N   0  0  0  0  0  0  0  0  0  0  0  0
   41.6264   22.7119   35.4786 H   0  0  0  0  0  0  0  0  0  0  0  0
   40.5760   23.5372   34.1735 H   0  0  0  0  0  0  0  0  0  0  0  0
   38.9163   25.3072   35.0505 H   0  0  0  0  0  0  0  0  0  0  0  0
   37.0077   24.0520   38.5747 H   0  0  0  0  0  0  0  0  0  0  0  0
   41.0457   21.7848   38.5723 H   0  0  0  0  0  0  0  0  0  0  0  0
   40.6249   20.9430   37.0423 H   0  0  0  0  0  0  0  0  0  0  0  0
   41.8714   22.2364   37.0423 H   0  0  0  0  0  0  0  0  0  0  0  0
   42.2877   24.7735   33.9801 H   0  0  0  0  0  0  0  0  0  0  0  0
   41.4723   25.5848   35.4222 H   0  0  0  0  0  0  0  0  0  0  0  0
   47.3149   25.3934   38.3146 H   0  0  0  0  0  0  0  0  0  0  0  0
   48.2875   28.0642   34.4012 H   0  0  0  0  0  0  0  0  0  0  0  0
  1  3  1  0
  2  3  2  0
  2  7  1  0
  3  4  1  0
  4  8  1  0
  4  5  2  0
  6  5  1  0
  7  6  2  0
  9  1  1  0
  9 10  1  0
 10 11  2  0
 11 12  1  0
 13 12  1  0
 14 10  1  0
 14 13  2  0
 15 13  1  0
 15 16  2  0
 17 16  1  0
 18 19  2  0
 18 17  1  0
 19 15  1  0
  1 20  1  0
  1 21  1  0
  2 22  1  0
  6 23  1  0
  8 24  1  0
  8 25  1  0
  8 26  1  0
  9 27  1  0
  9 28  1  0
 16 29  1  0
 18 30  1  0
M  ISO  8  20   8  21   8  22  14  23  14  24   8  25   8  26   8  27   8
M  ISO  3  28   8  29  14  30  14
M  END
>  <minimizedAffinity>  (1) 
-4.43850803

>  <minimizedRMSD>  (1) 
0.647422254

$$$$
