
     RDKit          3D

 30 31  0  0  0  0  0  0  0  0999 V2000
   40.7530   23.2230   35.0590 C   0  0  0  0  0  0  0  0  0  0  0  0
   38.7890   24.4730   36.0180 C   0  0  0  0  0  0  0  0  0  0  0  0
   39.8000   23.5320   36.1230 C   0  0  0  0  0  0  0  0  0  0  0  0
   39.9080   22.8450   37.3310 C   0  0  0  0  0  0  0  0  0  0  0  0
   39.0020   23.1640   38.3110 N   0  0  0  0  0  0  0  0  0  0  0  0
   38.0530   24.0700   38.1670 C   0  0  0  0  0  0  0  0  0  0  0  0
   37.9330   24.7340   37.0240 N   0  0  0  0  0  0  0  0  0  0  0  0
   40.9530   21.8120   37.5480 C   0  0  0  0  0  0  0  0  0  0  0  0
   41.8000   24.1920   34.7940 C   0  0  0  0  0  0  0  0  0  0  0  0
   43.0540   24.0280   35.5500 C   0  0  0  0  0  0  0  0  0  0  0  0
   43.9440   23.0970   35.9140 N   0  0  0  0  0  0  0  0  0  0  0  0
   44.8930   23.5930   36.6200 O   0  0  0  0  0  0  0  0  0  0  0  0
   44.6770   24.8610   36.7560 C   0  0  0  0  0  0  0  0  0  0  0  0
   43.5530   25.1620   36.1090 N   0  0  0  0  0  0  0  0  0  0  0  0
   45.5780   25.7820   37.5220 C   0  0  0  0  0  0  0  0  0  0  0  0
   44.9200   26.1220   38.8560 C   0  0  0  0  0  0  0  0  0  0  0  0
   41.2420   22.2730   35.3206 H   0  0  0  0  0  0  0  0  0  0  0  0
   40.1495   23.2046   34.1395 H   0  0  0  0  0  0  0  0  0  0  0  0
   38.6812   25.0292   35.0751 H   0  0  0  0  0  0  0  0  0  0  0  0
   37.3599   24.2752   38.9962 H   0  0  0  0  0  0  0  0  0  0  0  0
   41.1032   21.6635   38.6275 H   0  0  0  0  0  0  0  0  0  0  0  0
   40.6334   20.8650   37.0886 H   0  0  0  0  0  0  0  0  0  0  0  0
   41.8963   22.1425   37.0886 H   0  0  0  0  0  0  0  0  0  0  0  0
   42.0453   24.1346   33.7232 H   0  0  0  0  0  0  0  0  0  0  0  0
   41.3895   25.1600   35.1173 H   0  0  0  0  0  0  0  0  0  0  0  0
   46.5440   25.2877   37.7023 H   0  0  0  0  0  0  0  0  0  0  0  0
   45.7468   26.7030   36.9447 H   0  0  0  0  0  0  0  0  0  0  0  0
   45.5674   25.7875   39.6800 H   0  0  0  0  0  0  0  0  0  0  0  0
   44.7714   27.2097   38.9249 H   0  0  0  0  0  0  0  0  0  0  0  0
   43.9468   25.6139   38.9249 H   0  0  0  0  0  0  0  0  0  0  0  0
  1  3  1  0
  2  3  2  0
  2  7  1  0
  3  4  1  0
  4  8  1  0
  4  5  2  0
  6  5  1  0
  7  6  2  0
  9  1  1  0
  9 10  1  0
 10 11  2  0
 10 14  1  0
 11 12  1  0
 12 13  1  0
 13 15  1  0
 14 13  2  0
 15 16  1  0
  1 17  1  0
  1 18  1  0
  2 19  1  0
  6 20  1  0
  8 21  1  0
  8 22  1  0
  8 23  1  0
  9 24  1  0
  9 25  1  0
 15 26  1  0
 15 27  1  0
 16 28  1  0
 16 29  1  0
 16 30  1  0
M  ISO  8  17   8  18   8  19  14  20  14  21   8  22   8  23   8  24   8
M  ISO  6  25   8  26   8  27   8  28   8  29   8  30   8
M  END
>  <minimizedAffinity>  (1) 
-4.38284636

>  <minimizedRMSD>  (1) 
0.74974978

$$$$
