
     RDKit          3D

 26 27  0  0  0  0  0  0  0  0999 V2000
   41.0710   23.4220   35.1510 C   0  0  0  0  0  0  0  0  0  0  0  0
   38.9740   24.5420   35.9780 C   0  0  0  0  0  0  0  0  0  0  0  0
   40.0030   23.6190   36.1260 C   0  0  0  0  0  0  0  0  0  0  0  0
   39.9870   22.8550   37.2870 C   0  0  0  0  0  0  0  0  0  0  0  0
   38.9740   23.0790   38.1650 N   0  0  0  0  0  0  0  0  0  0  0  0
   38.0090   23.9620   38.0000 C   0  0  0  0  0  0  0  0  0  0  0  0
   38.0040   24.7140   36.8820 N   0  0  0  0  0  0  0  0  0  0  0  0
   41.0370   21.8360   37.5400 C   0  0  0  0  0  0  0  0  0  0  0  0
   42.1100   24.4310   35.0540 C   0  0  0  0  0  0  0  0  0  0  0  0
   43.3380   24.1870   35.8250 C   0  0  0  0  0  0  0  0  0  0  0  0
   44.2440   23.2440   36.0730 N   0  0  0  0  0  0  0  0  0  0  0  0
   45.1550   23.6380   36.8860 O   0  0  0  0  0  0  0  0  0  0  0  0
   44.8910   24.8710   37.2170 C   0  0  0  0  0  0  0  0  0  0  0  0
   43.7900   25.2150   36.5780 N   0  0  0  0  0  0  0  0  0  0  0  0
   45.6930   25.7080   38.1390 C   0  0  0  0  0  0  0  0  0  0  0  0
   45.8010   25.3250   39.3540 O   0  0  0  0  0  0  0  0  0  0  0  0
   41.5639   22.4697   35.3961 H   0  0  0  0  0  0  0  0  0  0  0  0
   40.5605   23.4641   34.1775 H   0  0  0  0  0  0  0  0  0  0  0  0
   38.9569   25.1630   35.0702 H   0  0  0  0  0  0  0  0  0  0  0  0
   37.2232   24.0825   38.7603 H   0  0  0  0  0  0  0  0  0  0  0  0
   41.1695   21.7074   38.6244 H   0  0  0  0  0  0  0  0  0  0  0  0
   40.7342   20.8783   37.0915 H   0  0  0  0  0  0  0  0  0  0  0  0
   41.9852   22.1674   37.0915 H   0  0  0  0  0  0  0  0  0  0  0  0
   42.3928   24.5182   33.9946 H   0  0  0  0  0  0  0  0  0  0  0  0
   41.6714   25.3419   35.4874 H   0  0  0  0  0  0  0  0  0  0  0  0
   46.1803   26.6301   37.7894 H   0  0  0  0  0  0  0  0  0  0  0  0
  1  3  1  0
  2  3  2  0
  2  7  1  0
  3  4  1  0
  4  8  1  0
  4  5  2  0
  6  5  1  0
  7  6  2  0
  9  1  1  0
  9 10  1  0
 10 11  2  0
 10 14  1  0
 11 12  1  0
 12 13  1  0
 13 15  1  0
 14 13  2  0
 15 16  2  0
  1 17  1  0
  1 18  1  0
  2 19  1  0
  6 20  1  0
  8 21  1  0
  8 22  1  0
  8 23  1  0
  9 24  1  0
  9 25  1  0
 15 26  1  0
M  ISO  8  17   8  18   8  19  14  20  14  21   8  22   8  23   8  24   8
M  ISO  2  25   8  26   6
M  END
>  <minimizedAffinity>  (1) 
-4.0492506

>  <minimizedRMSD>  (1) 
1.0119729

$$$$
