
     RDKit          3D

 39 41  0  0  0  0  0  0  0  0999 V2000
   44.2210   23.9730   35.5730 C   0  0  0  0  0  0  0  0  0  0  0  0
   43.9260   25.2950   35.2390 C   0  0  0  0  0  0  0  0  0  0  0  0
   45.4260   26.2170   35.8710 S   0  0  0  0  0  0  0  0  0  0  0  0
   46.1720   24.5850   36.4760 C   0  0  0  0  0  0  0  0  0  0  0  0
   45.3720   23.8790   36.1690 N   0  0  0  0  0  0  0  0  0  0  0  0
   47.4410   24.3970   37.1450 N   0  0  0  0  0  0  0  0  0  0  0  0
   47.3660   24.4160   38.4890 C   0  0  0  0  0  0  0  0  0  0  0  0
   48.6320   24.2260   38.9910 C   0  0  0  0  0  0  0  0  0  0  0  0
   49.4320   24.0980   37.9090 N   0  0  0  0  0  0  0  0  0  0  0  0
   48.7100   24.2010   36.7730 C   0  0  0  0  0  0  0  0  0  0  0  0
   49.0350   24.1430   35.3350 C   0  0  0  0  0  0  0  0  0  0  0  0
   50.5330   23.8790   35.2720 C   0  0  0  0  0  0  0  0  0  0  0  0
   48.7800   25.4410   34.6490 C   0  0  0  0  0  0  0  0  0  0  0  0
   48.3700   22.9770   34.6370 C   0  0  0  0  0  0  0  0  0  0  0  0
   43.0150   22.7170   35.1390 S   0  0  0  0  0  0  0  0  0  0  0  0
   40.1360   22.6720   37.9080 C   0  0  0  0  0  0  0  0  0  0  0  0
   39.1360   23.4740   37.3420 C   0  0  0  0  0  0  0  0  0  0  0  0
   39.3860   24.0190   36.0920 C   0  0  0  0  0  0  0  0  0  0  0  0
   40.5710   23.7720   35.4480 N   0  0  0  0  0  0  0  0  0  0  0  0
   41.5120   22.9760   36.0580 C   0  0  0  0  0  0  0  0  0  0  0  0
   41.2790   22.4450   37.2680 N   0  0  0  0  0  0  0  0  0  0  0  0
   37.8430   23.7610   38.0110 C   0  0  0  0  0  0  0  0  0  0  0  0
   38.0320   24.9080   38.7760 F   0  0  0  0  0  0  0  0  0  0  0  0
   37.3930   22.7580   38.7870 F   0  0  0  0  0  0  0  0  0  0  0  0
   36.8880   24.1860   37.0540 F   0  0  0  0  0  0  0  0  0  0  0  0
   43.0355   25.6946   34.7317 H   0  0  0  0  0  0  0  0  0  0  0  0
   46.4509   24.5587   39.0825 H   0  0  0  0  0  0  0  0  0  0  0  0
   48.9305   24.1865   40.0490 H   0  0  0  0  0  0  0  0  0  0  0  0
   50.9361   23.8080   36.2930 H   0  0  0  0  0  0  0  0  0  0  0  0
   50.7168   22.9346   34.7387 H   0  0  0  0  0  0  0  0  0  0  0  0
   51.0285   24.7037   34.7387 H   0  0  0  0  0  0  0  0  0  0  0  0
   48.6252   26.2289   35.4009 H   0  0  0  0  0  0  0  0  0  0  0  0
   49.6446   25.6993   34.0199 H   0  0  0  0  0  0  0  0  0  0  0  0
   47.8820   25.3530   34.0199 H   0  0  0  0  0  0  0  0  0  0  0  0
   47.9718   22.2788   35.3880 H   0  0  0  0  0  0  0  0  0  0  0  0
   47.5472   23.3472   34.0078 H   0  0  0  0  0  0  0  0  0  0  0  0
   49.1075   22.4573   34.0078 H   0  0  0  0  0  0  0  0  0  0  0  0
   39.9725   22.2226   38.8986 H   0  0  0  0  0  0  0  0  0  0  0  0
   38.6272   24.6550   35.6128 H   0  0  0  0  0  0  0  0  0  0  0  0
  1  5  1  0
  2  1  2  0
  2  3  1  0
  3  4  1  0
  4  6  1  0
  5  4  2  0
  6  7  1  0
  7  8  2  0
  9  8  1  0
 10  6  1  0
 10  9  2  0
 11 10  1  0
 12 11  1  0
 13 11  1  0
 14 11  1  0
 15  1  1  0
 15 20  1  0
 17 16  2  0
 17 22  1  0
 18 17  1  0
 19 20  1  0
 19 18  2  0
 20 21  2  0
 21 16  1  0
 22 23  1  0
 22 24  1  0
 25 22  1  0
  2 26  1  0
  7 27  1  0
  8 28  1  0
 12 29  1  0
 12 30  1  0
 12 31  1  0
 13 32  1  0
 13 33  1  0
 13 34  1  0
 14 35  1  0
 14 36  1  0
 14 37  1  0
 16 38  1  0
 18 39  1  0
M  ISO  8  26  14  27  14  28  14  29   8  30   8  31   8  32   8  33   8
M  ISO  6  34   8  35   8  36   8  37   8  38  14  39  14
M  END
>  <minimizedAffinity>  (1) 
-4.66219997

>  <minimizedRMSD>  (1) 
3.95251822

$$$$
