
     RDKit          3D

 47 50  0  0  1  0  0  0  0  0999 V2000
   42.4730   23.2970   35.0960 C   0  0  0  0  0  0  0  0  0  0  0  0
   43.4350   22.4350   35.3360 N   0  0  0  0  0  0  0  0  0  0  0  0
   44.4210   22.9380   36.0050 O   0  0  0  0  0  0  0  0  0  0  0  0
   44.1500   24.1620   36.2360 C   0  0  0  0  0  0  0  0  0  0  0  0
   42.9820   24.3900   35.6950 N   0  0  0  0  0  0  0  0  0  0  0  0
   44.8450   25.2000   36.9140 N   0  0  0  0  0  0  0  0  0  0  0  0
   44.8920   25.5040   38.3600 C   0  0  0  0  0  0  0  0  0  0  0  0
   46.3740   25.5100   38.6600 C   0  0  0  0  0  0  0  0  0  0  0  0
   46.9830   25.8390   37.2790 C   0  0  0  0  0  0  0  0  0  0  0  0
   45.7350   26.3210   36.5540 C   0  0  1  0  0  0  0  0  0  0  0  0
   45.9070   26.4800   35.1470 N   0  0  0  0  0  0  0  0  0  0  0  0
   45.1810   27.5220   34.6450 C   0  0  0  0  0  0  0  0  0  0  0  0
   45.2490   27.8000   33.2750 C   0  0  0  0  0  0  0  0  0  0  0  0
   46.0450   27.0290   32.4300 C   0  0  0  0  0  0  0  0  0  0  0  0
   46.1640   27.2500   31.0360 N   0  0  0  0  0  0  0  0  0  0  0  0
   46.7370   26.0170   32.9830 N   0  0  0  0  0  0  0  0  0  0  0  0
   46.6560   25.7710   34.2840 C   0  0  0  0  0  0  0  0  0  0  0  0
   47.2910   24.8420   34.7990 O   0  0  0  0  0  0  0  0  0  0  0  0
   41.1690   23.3830   34.4360 C   0  0  0  0  0  0  0  0  0  0  0  0
   40.0980   22.5700   35.0030 C   0  0  0  0  0  0  0  0  0  0  0  0
   38.2790   24.0100   36.0200 C   0  0  0  0  0  0  0  0  0  0  0  0
   39.3570   23.1220   36.1490 C   0  0  0  0  0  0  0  0  0  0  0  0
   39.7130   22.7660   37.4270 C   0  0  0  0  0  0  0  0  0  0  0  0
   38.9830   23.3120   38.4490 N   0  0  0  0  0  0  0  0  0  0  0  0
   37.9720   24.1460   38.2980 C   0  0  0  0  0  0  0  0  0  0  0  0
   37.6050   24.5080   37.0560 N   0  0  0  0  0  0  0  0  0  0  0  0
   40.8420   21.8300   37.6620 C   0  0  0  0  0  0  0  0  0  0  0  0
   44.4420   26.4850   38.5723 H   0  0  0  0  0  0  0  0  0  0  0  0
   44.3294   24.7838   38.9722 H   0  0  0  0  0  0  0  0  0  0  0  0
   46.6279   26.2811   39.4022 H   0  0  0  0  0  0  0  0  0  0  0  0
   46.7416   24.5677   39.0924 H   0  0  0  0  0  0  0  0  0  0  0  0
   47.7472   26.6273   37.3462 H   0  0  0  0  0  0  0  0  0  0  0  0
   47.5109   25.0055   36.7927 H   0  0  0  0  0  0  0  0  0  0  0  0
   45.3833   27.3258   36.8311 H   0  0  0  0  0  0  0  0  0  0  0  0
   44.5518   28.1341   35.3079 H   0  0  0  0  0  0  0  0  0  0  0  0
   44.6675   28.6367   32.8605 H   0  0  0  0  0  0  0  0  0  0  0  0
   45.6436   28.0190   30.5902 H   0  0  0  0  0  0  0  0  0  0  0  0
   46.7709   26.6417   30.4681 H   0  0  0  0  0  0  0  0  0  0  0  0
   41.3035   23.0753   33.3885 H   0  0  0  0  0  0  0  0  0  0  0  0
   40.8441   24.4257   34.5674 H   0  0  0  0  0  0  0  0  0  0  0  0
   39.3696   22.3796   34.2010 H   0  0  0  0  0  0  0  0  0  0  0  0
   40.6049   21.6787   35.4013 H   0  0  0  0  0  0  0  0  0  0  0  0
   37.9730   24.3121   35.0075 H   0  0  0  0  0  0  0  0  0  0  0  0
   37.4372   24.5394   39.1750 H   0  0  0  0  0  0  0  0  0  0  0  0
   40.9944   21.7037   38.7440 H   0  0  0  0  0  0  0  0  0  0  0  0
   40.6107   20.8551   37.2080 H   0  0  0  0  0  0  0  0  0  0  0  0
   41.7571   22.2380   37.2080 H   0  0  0  0  0  0  0  0  0  0  0  0
  1  2  2  0
  1  5  1  0
  2  3  1  0
  3  4  1  0
  4  6  1  0
  5  4  2  0
  6  7  1  0
  7  8  1  0
  9  8  1  0
 10  6  1  0
 10  9  1  0
 11 10  1  0
 12 11  1  0
 13 12  2  0
 14 16  2  0
 14 13  1  0
 15 14  1  0
 16 17  1  0
 17 18  2  0
 17 11  1  0
 19 20  1  0
 19  1  1  0
 20 22  1  0
 21 22  2  0
 21 26  1  0
 22 23  1  0
 23 27  1  0
 23 24  2  0
 25 24  1  0
 26 25  2  0
  7 28  1  0
  7 29  1  0
  8 30  1  0
  8 31  1  0
  9 32  1  0
  9 33  1  0
 10 34  1  1
 12 35  1  0
 13 36  1  0
 15 37  1  0
 15 38  1  0
 19 39  1  0
 19 40  1  0
 20 41  1  0
 20 42  1  0
 21 43  1  0
 25 44  1  0
 27 45  1  0
 27 46  1  0
 27 47  1  0
M  ISO  8  28  13  29  13  30  13  31  13  32  13  33  13  34  13  35  14
M  ISO  8  36  14  39   8  40   8  41   8  42   8  43  14  44  14  45   8
M  ISO  2  46   8  47   8
M  END
>  <minimizedAffinity>  (1) 
-5.33819246

>  <minimizedRMSD>  (1) 
1.0947665

$$$$
