
     RDKit          3D

 44 47  0  0  1  0  0  0  0  0999 V2000
   43.0020   23.8880   35.5250 C   0  0  0  0  0  0  0  0  0  0  0  0
   43.7710   22.8240   35.5980 N   0  0  0  0  0  0  0  0  0  0  0  0
   44.8590   23.0130   36.2450 O   0  0  0  0  0  0  0  0  0  0  0  0
   44.8720   24.2310   36.6420 C   0  0  0  0  0  0  0  0  0  0  0  0
   43.7570   24.7670   36.2130 N   0  0  0  0  0  0  0  0  0  0  0  0
   45.7990   25.0130   37.3900 N   0  0  0  0  0  0  0  0  0  0  0  0
   45.9820   25.1180   38.8390 C   0  0  0  0  0  0  0  0  0  0  0  0
   47.4440   24.7430   39.0410 C   0  0  0  0  0  0  0  0  0  0  0  0
   48.0460   25.1230   37.6910 C   0  0  0  0  0  0  0  0  0  0  0  0
   46.8890   25.9720   37.1090 C   0  0  1  0  0  0  0  0  0  0  0  0
   47.1400   26.1540   35.6790 C   0  0  0  0  0  0  0  0  0  0  0  0
   48.0530   25.3990   34.9790 C   0  0  0  0  0  0  0  0  0  0  0  0
   48.2010   25.6620   33.6320 C   0  0  0  0  0  0  0  0  0  0  0  0
   47.5020   26.6150   32.9670 N   0  0  0  0  0  0  0  0  0  0  0  0
   46.6180   27.3280   33.6970 C   0  0  0  0  0  0  0  0  0  0  0  0
   46.4330   27.1140   35.0130 N   0  0  0  0  0  0  0  0  0  0  0  0
   41.7230   24.3380   34.9710 C   0  0  0  0  0  0  0  0  0  0  0  0
   40.5970   23.4200   35.1000 C   0  0  0  0  0  0  0  0  0  0  0  0
   38.6330   24.5700   36.2000 C   0  0  0  0  0  0  0  0  0  0  0  0
   39.6750   23.6410   36.2180 C   0  0  0  0  0  0  0  0  0  0  0  0
   39.7930   22.9120   37.3710 C   0  0  0  0  0  0  0  0  0  0  0  0
   38.9090   23.1420   38.3860 N   0  0  0  0  0  0  0  0  0  0  0  0
   37.9390   24.0300   38.3270 C   0  0  0  0  0  0  0  0  0  0  0  0
   37.7940   24.7550   37.2230 N   0  0  0  0  0  0  0  0  0  0  0  0
   40.8640   21.8930   37.5420 C   0  0  0  0  0  0  0  0  0  0  0  0
   45.7875   26.1434   39.1865 H   0  0  0  0  0  0  0  0  0  0  0  0
   45.2926   24.4748   39.4055 H   0  0  0  0  0  0  0  0  0  0  0  0
   47.8974   25.3208   39.8599 H   0  0  0  0  0  0  0  0  0  0  0  0
   47.6021   23.6913   39.3221 H   0  0  0  0  0  0  0  0  0  0  0  0
   48.9671   25.7131   37.8065 H   0  0  0  0  0  0  0  0  0  0  0  0
   48.3557   24.2723   37.0662 H   0  0  0  0  0  0  0  0  0  0  0  0
   46.7173   26.9864   37.4982 H   0  0  0  0  0  0  0  0  0  0  0  0
   48.6434   24.6144   35.4748 H   0  0  0  0  0  0  0  0  0  0  0  0
   48.9288   25.0633   33.0646 H   0  0  0  0  0  0  0  0  0  0  0  0
   46.0281   28.1115   33.1988 H   0  0  0  0  0  0  0  0  0  0  0  0
   41.8736   24.5330   33.8990 H   0  0  0  0  0  0  0  0  0  0  0  0
   41.4455   25.2228   35.5628 H   0  0  0  0  0  0  0  0  0  0  0  0
   40.0112   23.4828   34.1711 H   0  0  0  0  0  0  0  0  0  0  0  0
   41.0533   22.4392   35.2995 H   0  0  0  0  0  0  0  0  0  0  0  0
   38.4956   25.1817   35.2961 H   0  0  0  0  0  0  0  0  0  0  0  0
   37.2582   24.1698   39.1796 H   0  0  0  0  0  0  0  0  0  0  0  0
   41.0415   21.7241   38.6144 H   0  0  0  0  0  0  0  0  0  0  0  0
   40.5520   20.9502   37.0690 H   0  0  0  0  0  0  0  0  0  0  0  0
   41.7901   22.2515   37.0690 H   0  0  0  0  0  0  0  0  0  0  0  0
  1  2  2  0
  1  5  1  0
  2  3  1  0
  3  4  1  0
  4  6  1  0
  5  4  2  0
  6  7  1  0
  7  8  1  0
  9  8  1  0
 10  6  1  0
 10  9  1  0
 11 10  1  0
 12 11  2  0
 13 12  1  0
 14 13  2  0
 14 15  1  0
 15 16  2  0
 16 11  1  0
 17 18  1  0
 17  1  1  0
 18 20  1  0
 19 20  2  0
 19 24  1  0
 20 21  1  0
 21 25  1  0
 21 22  2  0
 23 22  1  0
 24 23  2  0
  7 26  1  0
  7 27  1  0
  8 28  1  0
  8 29  1  0
  9 30  1  0
  9 31  1  0
 10 32  1  1
 12 33  1  0
 13 34  1  0
 15 35  1  0
 17 36  1  0
 17 37  1  0
 18 38  1  0
 18 39  1  0
 19 40  1  0
 23 41  1  0
 25 42  1  0
 25 43  1  0
 25 44  1  0
M  ISO  8  26  13  27  13  28  13  29  13  30  13  31  13  32  13  33  14
M  ISO  8  34  14  35  14  36   8  37   8  38   8  39   8  40  14  41  14
M  ISO  3  42   8  43   8  44   8
M  END
>  <minimizedAffinity>  (1) 
-5.16907406

>  <minimizedRMSD>  (1) 
0.124312468

$$$$
