
     RDKit          3D

 43 46  0  0  1  0  0  0  0  0999 V2000
   43.0510   23.9690   35.5240 C   0  0  0  0  0  0  0  0  0  0  0  0
   43.8510   22.9260   35.5000 N   0  0  0  0  0  0  0  0  0  0  0  0
   44.9520   23.1020   36.1570 O   0  0  0  0  0  0  0  0  0  0  0  0
   44.9200   24.2800   36.6440 C   0  0  0  0  0  0  0  0  0  0  0  0
   43.7840   24.8140   36.2720 N   0  0  0  0  0  0  0  0  0  0  0  0
   45.8230   25.0340   37.4420 N   0  0  0  0  0  0  0  0  0  0  0  0
   46.0270   25.0690   38.8870 C   0  0  0  0  0  0  0  0  0  0  0  0
   47.5100   24.7060   39.0360 C   0  0  0  0  0  0  0  0  0  0  0  0
   48.0790   25.2210   37.7020 C   0  0  0  0  0  0  0  0  0  0  0  0
   46.8830   26.0420   37.2030 C   0  0  1  0  0  0  0  0  0  0  0  0
   46.9420   26.2840   35.7460 C   0  0  0  0  0  0  0  0  0  0  0  0
   47.8300   25.6790   34.8800 C   0  0  0  0  0  0  0  0  0  0  0  0
   47.5390   26.1860   33.6310 C   0  0  0  0  0  0  0  0  0  0  0  0
   46.4810   27.0820   33.8050 C   0  0  0  0  0  0  0  0  0  0  0  0
   46.1540   27.1080   35.0950 O   0  0  0  0  0  0  0  0  0  0  0  0
   41.7450   24.3920   35.0100 C   0  0  0  0  0  0  0  0  0  0  0  0
   40.6500   23.4430   35.1500 C   0  0  0  0  0  0  0  0  0  0  0  0
   38.6430   24.5650   36.2130 C   0  0  0  0  0  0  0  0  0  0  0  0
   39.6980   23.6440   36.2520 C   0  0  0  0  0  0  0  0  0  0  0  0
   39.8260   22.8950   37.3980 C   0  0  0  0  0  0  0  0  0  0  0  0
   38.9070   23.1260   38.3910 N   0  0  0  0  0  0  0  0  0  0  0  0
   37.9240   23.9960   38.3330 C   0  0  0  0  0  0  0  0  0  0  0  0
   37.7840   24.7340   37.2230 N   0  0  0  0  0  0  0  0  0  0  0  0
   40.9210   21.8870   37.5350 C   0  0  0  0  0  0  0  0  0  0  0  0
   45.8231   26.0717   39.2907 H   0  0  0  0  0  0  0  0  0  0  0  0
   45.3577   24.3899   39.4355 H   0  0  0  0  0  0  0  0  0  0  0  0
   47.9667   25.2203   39.8945 H   0  0  0  0  0  0  0  0  0  0  0  0
   47.6969   23.6385   39.2246 H   0  0  0  0  0  0  0  0  0  0  0  0
   48.9702   25.8478   37.8529 H   0  0  0  0  0  0  0  0  0  0  0  0
   48.4240   24.4373   37.0115 H   0  0  0  0  0  0  0  0  0  0  0  0
   46.7848   27.0317   37.6728 H   0  0  0  0  0  0  0  0  0  0  0  0
   48.6086   24.9445   35.1335 H   0  0  0  0  0  0  0  0  0  0  0  0
   48.0406   25.9347   32.6848 H   0  0  0  0  0  0  0  0  0  0  0  0
   45.9988   27.6681   33.0088 H   0  0  0  0  0  0  0  0  0  0  0  0
   41.8629   24.6095   33.9382 H   0  0  0  0  0  0  0  0  0  0  0  0
   41.4583   25.2578   35.6250 H   0  0  0  0  0  0  0  0  0  0  0  0
   40.0748   23.4669   34.2127 H   0  0  0  0  0  0  0  0  0  0  0  0
   41.1430   22.4879   35.3842 H   0  0  0  0  0  0  0  0  0  0  0  0
   38.5156   25.1779   35.3085 H   0  0  0  0  0  0  0  0  0  0  0  0
   37.2302   24.1162   39.1781 H   0  0  0  0  0  0  0  0  0  0  0  0
   41.1197   21.7041   38.6013 H   0  0  0  0  0  0  0  0  0  0  0  0
   40.6163   20.9467   37.0522 H   0  0  0  0  0  0  0  0  0  0  0  0
   41.8329   22.2683   37.0522 H   0  0  0  0  0  0  0  0  0  0  0  0
  1  5  1  0
  2  1  2  0
  2  3  1  0
  3  4  1  0
  4  6  1  0
  5  4  2  0
  6  7  1  0
  7  8  1  0
  9  8  1  0
 10  6  1  0
 10  9  1  0
 11 10  1  0
 12 11  2  0
 13 14  2  0
 13 12  1  0
 14 15  1  0
 15 11  1  0
 16 17  1  0
 16  1  1  0
 17 19  1  0
 18 19  2  0
 18 23  1  0
 19 20  1  0
 20 24  1  0
 20 21  2  0
 22 21  1  0
 23 22  2  0
  7 25  1  0
  7 26  1  0
  8 27  1  0
  8 28  1  0
  9 29  1  0
  9 30  1  0
 10 31  1  1
 12 32  1  0
 13 33  1  0
 14 34  1  0
 16 35  1  0
 16 36  1  0
 17 37  1  0
 17 38  1  0
 18 39  1  0
 22 40  1  0
 24 41  1  0
 24 42  1  0
 24 43  1  0
M  ISO  8  25  13  26  13  27  13  28  13  29  13  30  13  31  13  32  14
M  ISO  8  33  14  34  14  35   8  36   8  37   8  38   8  39  14  40  14
M  ISO  3  41   8  42   8  43   8
M  END
>  <minimizedAffinity>  (1) 
-5.13333941

>  <minimizedRMSD>  (1) 
0.28411147

$$$$
