
     RDKit          3D

 39 41  0  0  1  0  0  0  0  0999 V2000
   43.0890   23.9890   35.5610 C   0  0  0  0  0  0  0  0  0  0  0  0
   43.8810   22.9390   35.5410 N   0  0  0  0  0  0  0  0  0  0  0  0
   44.9780   23.1080   36.1990 O   0  0  0  0  0  0  0  0  0  0  0  0
   44.9580   24.2860   36.6870 C   0  0  0  0  0  0  0  0  0  0  0  0
   43.8260   24.8280   36.3100 N   0  0  0  0  0  0  0  0  0  0  0  0
   45.8640   25.0340   37.4860 N   0  0  0  0  0  0  0  0  0  0  0  0
   46.0550   25.0670   38.9360 C   0  0  0  0  0  0  0  0  0  0  0  0
   47.5310   24.6970   39.1000 C   0  0  0  0  0  0  0  0  0  0  0  0
   48.1130   25.1850   37.7710 C   0  0  0  0  0  0  0  0  0  0  0  0
   46.9330   26.0340   37.2540 C   0  0  1  0  0  0  0  0  0  0  0  0
   47.0220   26.2050   35.7670 C   0  0  0  0  0  0  0  0  0  0  0  0
   45.8780   26.9080   35.3710 F   0  0  0  0  0  0  0  0  0  0  0  0
   48.1140   26.9560   35.4450 F   0  0  0  0  0  0  0  0  0  0  0  0
   47.0130   25.0130   35.0950 F   0  0  0  0  0  0  0  0  0  0  0  0
   41.7880   24.4180   35.0430 C   0  0  0  0  0  0  0  0  0  0  0  0
   40.6910   23.4670   35.1600 C   0  0  0  0  0  0  0  0  0  0  0  0
   38.6650   24.5760   36.1870 C   0  0  0  0  0  0  0  0  0  0  0  0
   39.7220   23.6550   36.2410 C   0  0  0  0  0  0  0  0  0  0  0  0
   39.8270   22.8960   37.3880 C   0  0  0  0  0  0  0  0  0  0  0  0
   38.8960   23.1090   38.3660 N   0  0  0  0  0  0  0  0  0  0  0  0
   37.9100   23.9790   38.2940 C   0  0  0  0  0  0  0  0  0  0  0  0
   37.7880   24.7260   37.1910 N   0  0  0  0  0  0  0  0  0  0  0  0
   40.9270   21.8880   37.5330 C   0  0  0  0  0  0  0  0  0  0  0  0
   45.8524   26.0706   39.3383 H   0  0  0  0  0  0  0  0  0  0  0  0
   45.3769   24.3906   39.4770 H   0  0  0  0  0  0  0  0  0  0  0  0
   47.9847   25.2205   39.9545 H   0  0  0  0  0  0  0  0  0  0  0  0
   47.7077   23.6307   39.3043 H   0  0  0  0  0  0  0  0  0  0  0  0
   49.0177   25.7925   37.9206 H   0  0  0  0  0  0  0  0  0  0  0  0
   48.4416   24.3866   37.0894 H   0  0  0  0  0  0  0  0  0  0  0  0
   46.8404   27.0335   37.7039 H   0  0  0  0  0  0  0  0  0  0  0  0
   41.9147   24.6509   33.9754 H   0  0  0  0  0  0  0  0  0  0  0  0
   41.4960   25.2743   35.6687 H   0  0  0  0  0  0  0  0  0  0  0  0
   40.1322   23.4963   34.2130 H   0  0  0  0  0  0  0  0  0  0  0  0
   41.1832   22.5129   35.3995 H   0  0  0  0  0  0  0  0  0  0  0  0
   38.5511   25.1987   35.2874 H   0  0  0  0  0  0  0  0  0  0  0  0
   37.1992   24.0895   39.1262 H   0  0  0  0  0  0  0  0  0  0  0  0
   41.1221   21.7092   38.6007 H   0  0  0  0  0  0  0  0  0  0  0  0
   40.6263   20.9454   37.0524 H   0  0  0  0  0  0  0  0  0  0  0  0
   41.8398   22.2697   37.0524 H   0  0  0  0  0  0  0  0  0  0  0  0
  1  5  1  0
  2  1  2  0
  2  3  1  0
  3  4  1  0
  4  6  1  0
  5  4  2  0
  6  7  1  0
  7  8  1  0
  9  8  1  0
 10  6  1  0
 10  9  1  0
 11 10  1  0
 12 11  1  0
 13 11  1  0
 14 11  1  0
 15 16  1  0
 15  1  1  0
 16 18  1  0
 17 18  2  0
 17 22  1  0
 18 19  1  0
 19 23  1  0
 19 20  2  0
 21 20  1  0
 22 21  2  0
  7 24  1  0
  7 25  1  0
  8 26  1  0
  8 27  1  0
  9 28  1  0
  9 29  1  0
 10 30  1  1
 15 31  1  0
 15 32  1  0
 16 33  1  0
 16 34  1  0
 17 35  1  0
 21 36  1  0
 23 37  1  0
 23 38  1  0
 23 39  1  0
M  ISO  8  24  13  25  13  26  13  27  13  28  13  29  13  30  13  31   8
M  ISO  8  32   8  33   8  34   8  35  14  36  14  37   8  38   8  39   8
M  END
>  <minimizedAffinity>  (1) 
-5.0921464

>  <minimizedRMSD>  (1) 
0.414890707

$$$$
