
     RDKit          3D

 35 38  0  0  0  0  0  0  0  0999 V2000
   43.1140   24.0250   33.7870 C   0  0  0  0  0  0  0  0  0  0  0  0
   43.3230   24.8280   34.9130 C   0  0  0  0  0  0  0  0  0  0  0  0
   44.6400   26.0260   34.3150 S   0  0  0  0  0  0  0  0  0  0  0  0
   44.6400   25.1790   32.6250 C   0  0  0  0  0  0  0  0  0  0  0  0
   43.8710   24.3930   32.8010 N   0  0  0  0  0  0  0  0  0  0  0  0
   45.4500   25.5220   31.4720 N   0  0  0  0  0  0  0  0  0  0  0  0
   46.5630   24.8100   31.3360 C   0  0  0  0  0  0  0  0  0  0  0  0
   47.2120   25.2610   30.1970 C   0  0  0  0  0  0  0  0  0  0  0  0
   46.4290   26.2470   29.6990 N   0  0  0  0  0  0  0  0  0  0  0  0
   45.3510   26.4080   30.4770 C   0  0  0  0  0  0  0  0  0  0  0  0
   44.2180   27.3030   30.4060 C   0  0  0  0  0  0  0  0  0  0  0  0
   44.3900   28.5280   31.0360 C   0  0  0  0  0  0  0  0  0  0  0  0
   43.3840   29.4710   31.0410 C   0  0  0  0  0  0  0  0  0  0  0  0
   42.2370   29.1450   30.4080 N   0  0  0  0  0  0  0  0  0  0  0  0
   42.0420   27.9710   29.7910 C   0  0  0  0  0  0  0  0  0  0  0  0
   43.0510   27.0770   29.8090 N   0  0  0  0  0  0  0  0  0  0  0  0
   41.9000   22.7130   33.9240 S   0  0  0  0  0  0  0  0  0  0  0  0
   40.3610   22.5850   37.5960 C   0  0  0  0  0  0  0  0  0  0  0  0
   39.2400   23.4180   37.5120 C   0  0  0  0  0  0  0  0  0  0  0  0
   38.9760   24.0180   36.2900 C   0  0  0  0  0  0  0  0  0  0  0  0
   39.8030   23.7840   35.2160 N   0  0  0  0  0  0  0  0  0  0  0  0
   40.8850   22.9620   35.3530 C   0  0  0  0  0  0  0  0  0  0  0  0
   41.1470   22.3770   36.5340 N   0  0  0  0  0  0  0  0  0  0  0  0
   38.3330   23.6830   38.6610 C   0  0  0  0  0  0  0  0  0  0  0  0
   39.1410   23.8600   39.7730 F   0  0  0  0  0  0  0  0  0  0  0  0
   37.4560   22.6740   38.8930 F   0  0  0  0  0  0  0  0  0  0  0  0
   37.7110   24.9410   38.5080 F   0  0  0  0  0  0  0  0  0  0  0  0
   42.8387   24.7720   35.8990 H   0  0  0  0  0  0  0  0  0  0  0  0
   46.9073   24.0081   32.0056 H   0  0  0  0  0  0  0  0  0  0  0  0
   48.1636   24.8946   29.7843 H   0  0  0  0  0  0  0  0  0  0  0  0
   45.3430   28.7497   31.5387 H   0  0  0  0  0  0  0  0  0  0  0  0
   43.5102   30.4442   31.5379 H   0  0  0  0  0  0  0  0  0  0  0  0
   41.0908   27.7447   29.2870 H   0  0  0  0  0  0  0  0  0  0  0  0
   40.5997   22.0934   38.5506 H   0  0  0  0  0  0  0  0  0  0  0  0
   38.1053   24.6810   36.1795 H   0  0  0  0  0  0  0  0  0  0  0  0
  1 17  1  0
  1  2  2  0
  3  2  1  0
  4  5  2  0
  4  3  1  0
  5  1  1  0
  6  4  1  0
  7  6  1  0
  8  7  2  0
  9  8  1  0
  9 10  2  0
 10  6  1  0
 11 10  1  0
 11 12  2  0
 12 13  1  0
 14 13  2  0
 15 16  2  0
 15 14  1  0
 16 11  1  0
 17 22  1  0
 19 18  2  0
 19 24  1  0
 20 19  1  0
 21 22  1  0
 21 20  2  0
 22 23  2  0
 23 18  1  0
 24 26  1  0
 24 25  1  0
 27 24  1  0
  2 28  1  0
  7 29  1  0
  8 30  1  0
 12 31  1  0
 13 32  1  0
 15 33  1  0
 18 34  1  0
 20 35  1  0
M  ISO  8  28  14  29  14  30  14  31  14  32  14  33  14  34  14  35  14
M  END
>  <minimizedAffinity>  (1) 
-4.14150524

>  <minimizedRMSD>  (1) 
3.02012563

$$$$
