
     RDKit          3D

 43 46  0  0  1  0  0  0  0  0999 V2000
   42.9410   23.8250   35.4280 C   0  0  0  0  0  0  0  0  0  0  0  0
   43.7240   22.7730   35.5180 N   0  0  0  0  0  0  0  0  0  0  0  0
   44.8100   22.9930   36.1860 O   0  0  0  0  0  0  0  0  0  0  0  0
   44.7860   24.2090   36.5650 C   0  0  0  0  0  0  0  0  0  0  0  0
   43.6680   24.7230   36.1180 N   0  0  0  0  0  0  0  0  0  0  0  0
   45.6840   25.0140   37.3180 N   0  0  0  0  0  0  0  0  0  0  0  0
   45.8450   25.1580   38.7710 C   0  0  0  0  0  0  0  0  0  0  0  0
   47.3130   24.8290   38.9850 C   0  0  0  0  0  0  0  0  0  0  0  0
   47.9250   25.2200   37.6220 C   0  0  0  0  0  0  0  0  0  0  0  0
   46.7620   25.9800   37.0100 C   0  0  1  0  0  0  0  0  0  0  0  0
   41.6570   24.2240   34.8460 C   0  0  0  0  0  0  0  0  0  0  0  0
   40.5310   23.3270   35.0770 C   0  0  0  0  0  0  0  0  0  0  0  0
   38.6220   24.5580   36.1910 C   0  0  0  0  0  0  0  0  0  0  0  0
   39.6490   23.6030   36.2160 C   0  0  0  0  0  0  0  0  0  0  0  0
   39.8090   22.9010   37.3870 C   0  0  0  0  0  0  0  0  0  0  0  0
   38.9560   23.2020   38.4080 N   0  0  0  0  0  0  0  0  0  0  0  0
   37.9970   24.1030   38.3680 C   0  0  0  0  0  0  0  0  0  0  0  0
   37.8230   24.7990   37.2330 N   0  0  0  0  0  0  0  0  0  0  0  0
   40.8780   21.8620   37.5090 C   0  0  0  0  0  0  0  0  0  0  0  0
   46.8380   26.1370   35.5320 C   0  0  0  0  0  0  0  0  0  0  0  0
   46.0750   27.1930   34.8260 C   0  0  0  0  0  0  0  0  0  0  0  0
   47.5800   27.2450   34.9250 C   0  0  0  0  0  0  0  0  0  0  0  0
   45.6185   26.1847   39.0943 H   0  0  0  0  0  0  0  0  0  0  0  0
   45.1669   24.5129   39.3489 H   0  0  0  0  0  0  0  0  0  0  0  0
   47.7423   25.4260   39.8031 H   0  0  0  0  0  0  0  0  0  0  0  0
   47.4983   23.7839   39.2737 H   0  0  0  0  0  0  0  0  0  0  0  0
   48.8112   25.8604   37.7426 H   0  0  0  0  0  0  0  0  0  0  0  0
   48.2889   24.3736   37.0211 H   0  0  0  0  0  0  0  0  0  0  0  0
   46.6748   27.0103   37.3854 H   0  0  0  0  0  0  0  0  0  0  0  0
   41.7961   24.3124   33.7584 H   0  0  0  0  0  0  0  0  0  0  0  0
   41.3885   25.1640   35.3503 H   0  0  0  0  0  0  0  0  0  0  0  0
   39.9084   23.3444   34.1703 H   0  0  0  0  0  0  0  0  0  0  0  0
   40.9969   22.3607   35.3202 H   0  0  0  0  0  0  0  0  0  0  0  0
   38.4675   25.1364   35.2682 H   0  0  0  0  0  0  0  0  0  0  0  0
   37.3542   24.2812   39.2427 H   0  0  0  0  0  0  0  0  0  0  0  0
   41.0794   21.6663   38.5725 H   0  0  0  0  0  0  0  0  0  0  0  0
   40.5444   20.9338   37.0221 H   0  0  0  0  0  0  0  0  0  0  0  0
   41.7964   22.2219   37.0221 H   0  0  0  0  0  0  0  0  0  0  0  0
   46.8859   25.0411   35.4497 H   0  0  0  0  0  0  0  0  0  0  0  0
   45.4578   27.9042   35.3946 H   0  0  0  0  0  0  0  0  0  0  0  0
   45.3402   27.2175   34.0078 H   0  0  0  0  0  0  0  0  0  0  0  0
   48.1971   27.0704   34.0313 H   0  0  0  0  0  0  0  0  0  0  0  0
   48.3123   27.9825   35.2853 H   0  0  0  0  0  0  0  0  0  0  0  0
  1  2  2  0
  1  5  1  0
  2  3  1  0
  3  4  1  0
  4  6  1  0
  5  4  2  0
  6  7  1  0
  7  8  1  0
  9  8  1  0
 10  6  1  0
 10  9  1  0
 11 12  1  0
 11  1  1  0
 12 14  1  0
 13 14  2  0
 13 18  1  0
 14 15  1  0
 15 19  1  0
 15 16  2  0
 17 16  1  0
 18 17  2  0
 20 10  1  0
 21 22  1  0
 21 20  1  0
 22 20  1  0
  7 23  1  0
  7 24  1  0
  8 25  1  0
  8 26  1  0
  9 27  1  0
  9 28  1  0
 10 29  1  1
 11 30  1  0
 11 31  1  0
 12 32  1  0
 12 33  1  0
 13 34  1  0
 17 35  1  0
 19 36  1  0
 19 37  1  0
 19 38  1  0
 20 39  1  0
 21 40  1  0
 21 41  1  0
 22 42  1  0
 22 43  1  0
M  ISO  8  23  13  24  13  25  13  26  13  27  13  28  13  29  13  30   8
M  ISO  8  31   8  32   8  33   8  34  14  35  14  36   8  37   8  38   8
M  ISO  5  39  13  40  13  41  13  42  13  43  13
M  END
>  <minimizedAffinity>  (1) 
-5.03166294

>  <minimizedRMSD>  (1) 
0.596455872

$$$$
