
     RDKit          3D

 42 44  0  0  1  0  0  0  0  0999 V2000
   42.8800   23.7950   35.4020 C   0  0  0  0  0  0  0  0  0  0  0  0
   43.6760   22.7550   35.5190 N   0  0  0  0  0  0  0  0  0  0  0  0
   44.7460   22.9990   36.1960 O   0  0  0  0  0  0  0  0  0  0  0  0
   44.7040   24.2180   36.5590 C   0  0  0  0  0  0  0  0  0  0  0  0
   43.5860   24.7130   36.0890 N   0  0  0  0  0  0  0  0  0  0  0  0
   45.5780   25.0510   37.3110 N   0  0  0  0  0  0  0  0  0  0  0  0
   45.7110   25.2470   38.7500 C   0  0  0  0  0  0  0  0  0  0  0  0
   47.1860   24.9100   39.0050 C   0  0  0  0  0  0  0  0  0  0  0  0
   47.8210   25.2600   37.6510 C   0  0  0  0  0  0  0  0  0  0  0  0
   46.6580   26.0130   37.0040 C   0  0  1  0  0  0  0  0  0  0  0  0
   41.5970   24.1650   34.7960 C   0  0  0  0  0  0  0  0  0  0  0  0
   40.4720   23.2770   35.0590 C   0  0  0  0  0  0  0  0  0  0  0  0
   38.5750   24.5330   36.1670 C   0  0  0  0  0  0  0  0  0  0  0  0
   39.6030   23.5800   36.2010 C   0  0  0  0  0  0  0  0  0  0  0  0
   39.7800   22.9050   37.3860 C   0  0  0  0  0  0  0  0  0  0  0  0
   38.9460   23.2150   38.4270 N   0  0  0  0  0  0  0  0  0  0  0  0
   37.9810   24.1220   38.3630 C   0  0  0  0  0  0  0  0  0  0  0  0
   37.7920   24.7920   37.2190 N   0  0  0  0  0  0  0  0  0  0  0  0
   40.8560   21.8670   37.5200 C   0  0  0  0  0  0  0  0  0  0  0  0
   46.7980   26.0100   35.5150 C   0  0  0  0  0  0  0  0  0  0  0  0
   46.0770   27.1700   34.8470 C   0  0  0  0  0  0  0  0  0  0  0  0
   45.4882   26.2871   39.0303 H   0  0  0  0  0  0  0  0  0  0  0  0
   45.0157   24.6310   39.3392 H   0  0  0  0  0  0  0  0  0  0  0  0
   47.6040   25.5252   39.8154 H   0  0  0  0  0  0  0  0  0  0  0  0
   47.3591   23.8721   39.3256 H   0  0  0  0  0  0  0  0  0  0  0  0
   48.7078   25.9002   37.7685 H   0  0  0  0  0  0  0  0  0  0  0  0
   48.1948   24.3996   37.0765 H   0  0  0  0  0  0  0  0  0  0  0  0
   46.5453   27.0556   37.3362 H   0  0  0  0  0  0  0  0  0  0  0  0
   41.7420   24.2065   33.7064 H   0  0  0  0  0  0  0  0  0  0  0  0
   41.3235   25.1250   35.2583 H   0  0  0  0  0  0  0  0  0  0  0  0
   39.8396   23.2762   34.1590 H   0  0  0  0  0  0  0  0  0  0  0  0
   40.9384   22.3152   35.3186 H   0  0  0  0  0  0  0  0  0  0  0  0
   38.4056   25.0915   35.2346 H   0  0  0  0  0  0  0  0  0  0  0  0
   37.3444   24.3214   39.2376 H   0  0  0  0  0  0  0  0  0  0  0  0
   41.0522   21.6777   38.5857 H   0  0  0  0  0  0  0  0  0  0  0  0
   40.5286   20.9349   37.0363 H   0  0  0  0  0  0  0  0  0  0  0  0
   41.7757   22.2277   37.0363 H   0  0  0  0  0  0  0  0  0  0  0  0
   47.8672   26.0706   35.2636 H   0  0  0  0  0  0  0  0  0  0  0  0
   46.3402   25.0812   35.1439 H   0  0  0  0  0  0  0  0  0  0  0  0
   45.6626   27.8367   35.6175 H   0  0  0  0  0  0  0  0  0  0  0  0
   46.7862   27.7304   34.2201 H   0  0  0  0  0  0  0  0  0  0  0  0
   45.2606   26.7821   34.2201 H   0  0  0  0  0  0  0  0  0  0  0  0
  1  2  2  0
  1  5  1  0
  2  3  1  0
  3  4  1  0
  4  6  1  0
  5  4  2  0
  6  7  1  0
  7  8  1  0
  9  8  1  0
 10  6  1  0
 10  9  1  0
 11 12  1  0
 11  1  1  0
 12 14  1  0
 13 14  2  0
 13 18  1  0
 14 15  1  0
 15 19  1  0
 15 16  2  0
 17 16  1  0
 18 17  2  0
 20 10  1  0
 21 20  1  0
  7 22  1  0
  7 23  1  0
  8 24  1  0
  8 25  1  0
  9 26  1  0
  9 27  1  0
 10 28  1  1
 11 29  1  0
 11 30  1  0
 12 31  1  0
 12 32  1  0
 13 33  1  0
 17 34  1  0
 19 35  1  0
 19 36  1  0
 19 37  1  0
 20 38  1  0
 20 39  1  0
 21 40  1  0
 21 41  1  0
 21 42  1  0
M  ISO  8  22  13  23  13  24  13  25  13  26  13  27  13  28  13  29   8
M  ISO  8  30   8  31   8  32   8  33  14  34  14  35   8  36   8  37   8
M  ISO  5  38   8  39   8  40   8  41   8  42   8
M  END
>  <minimizedAffinity>  (1) 
-4.91072845

>  <minimizedRMSD>  (1) 
0.243281111

$$$$
