
     RDKit          3D

 37 39  0  0  1  0  0  0  0  0999 V2000
   43.4920   23.7080   35.6750 C   0  0  0  0  0  0  0  0  0  0  0  0
   44.0460   22.5180   35.7540 N   0  0  0  0  0  0  0  0  0  0  0  0
   45.2520   22.5400   36.2060 O   0  0  0  0  0  0  0  0  0  0  0  0
   45.5540   23.7530   36.4490 C   0  0  0  0  0  0  0  0  0  0  0  0
   44.5040   24.4700   36.1340 N   0  0  0  0  0  0  0  0  0  0  0  0
   46.7200   24.3950   36.9520 N   0  0  0  0  0  0  0  0  0  0  0  0
   47.1720   24.6250   38.3180 C   0  0  0  0  0  0  0  0  0  0  0  0
   48.5510   23.9730   38.3460 C   0  0  0  0  0  0  0  0  0  0  0  0
   48.9760   24.0870   36.8700 C   0  0  0  0  0  0  0  0  0  0  0  0
   47.9050   25.0630   36.3650 C   0  0  2  0  0  0  0  0  0  0  0  0
   42.2320   24.3360   35.2670 C   0  0  0  0  0  0  0  0  0  0  0  0
   41.0670   23.4700   35.1790 C   0  0  0  0  0  0  0  0  0  0  0  0
   38.9610   24.6180   35.9890 C   0  0  0  0  0  0  0  0  0  0  0  0
   39.9790   23.6660   36.1410 C   0  0  0  0  0  0  0  0  0  0  0  0
   39.9200   22.8830   37.2710 C   0  0  0  0  0  0  0  0  0  0  0  0
   38.8780   23.1020   38.1400 N   0  0  0  0  0  0  0  0  0  0  0  0
   37.9330   24.0100   37.9640 C   0  0  0  0  0  0  0  0  0  0  0  0
   37.9740   24.7850   36.8670 N   0  0  0  0  0  0  0  0  0  0  0  0
   40.9560   21.8400   37.5280 C   0  0  0  0  0  0  0  0  0  0  0  0
   48.1730   26.6980   37.0320 S   0  0  0  0  0  0  0  0  0  0  0  0
   47.2406   25.7013   38.5344 H   0  0  0  0  0  0  0  0  0  0  0  0
   46.4861   24.2138   39.0733 H   0  0  0  0  0  0  0  0  0  0  0  0
   49.2405   24.5199   39.0059 H   0  0  0  0  0  0  0  0  0  0  0  0
   48.5522   22.9438   38.7343 H   0  0  0  0  0  0  0  0  0  0  0  0
   49.9893   24.5023   36.7669 H   0  0  0  0  0  0  0  0  0  0  0  0
   49.0295   23.1324   36.3260 H   0  0  0  0  0  0  0  0  0  0  0  0
   47.8574   25.2325   35.2792 H   0  0  0  0  0  0  0  0  0  0  0  0
   42.0037   25.1282   35.9952 H   0  0  0  0  0  0  0  0  0  0  0  0
   42.4058   24.6904   34.2403 H   0  0  0  0  0  0  0  0  0  0  0  0
   40.6398   23.6006   34.1738 H   0  0  0  0  0  0  0  0  0  0  0  0
   41.4566   22.4680   35.4117 H   0  0  0  0  0  0  0  0  0  0  0  0
   38.9786   25.2612   35.0968 H   0  0  0  0  0  0  0  0  0  0  0  0
   37.1270   24.1289   38.7030 H   0  0  0  0  0  0  0  0  0  0  0  0
   41.0847   21.7105   38.6127 H   0  0  0  0  0  0  0  0  0  0  0  0
   40.6363   20.8874   37.0803 H   0  0  0  0  0  0  0  0  0  0  0  0
   41.9107   22.1533   37.0803 H   0  0  0  0  0  0  0  0  0  0  0  0
   48.1635   26.6400   38.4007 H   0  0  0  0  0  0  0  0  0  0  0  0
  1  2  2  0
  1  5  1  0
  2  3  1  0
  3  4  1  0
  4  6  1  0
  5  4  2  0
  6  7  1  0
  7  8  1  0
  9  8  1  0
 10  9  1  0
 10  6  1  0
 10 20  1  0
 11  1  1  0
 12 11  1  0
 12 14  1  0
 13 14  2  0
 13 18  1  0
 14 15  1  0
 15 19  1  0
 15 16  2  0
 17 16  1  0
 18 17  2  0
  7 21  1  0
  7 22  1  0
  8 23  1  0
  8 24  1  0
  9 25  1  0
  9 26  1  0
 10 27  1  6
 11 28  1  0
 11 29  1  0
 12 30  1  0
 12 31  1  0
 13 32  1  0
 17 33  1  0
 19 34  1  0
 19 35  1  0
 19 36  1  0
 20 37  1  0
M  ISO  8  21  13  22  13  23  13  24  13  25  13  26  13  27  13  28   8
M  ISO  8  29   8  30   8  31   8  32  14  33  14  34   8  35   8  36   8
M  ISO  1  37  11
M  END
>  <minimizedAffinity>  (1) 
-4.4351635

>  <minimizedRMSD>  (1) 
0.937646031

$$$$
