
     RDKit          3D

 36 38  0  0  0  0  0  0  0  0999 V2000
   43.8630   22.7520   34.8590 C   0  0  0  0  0  0  0  0  0  0  0  0
   44.6250   22.8430   36.0320 C   0  0  0  0  0  0  0  0  0  0  0  0
   45.9050   24.1450   35.5990 S   0  0  0  0  0  0  0  0  0  0  0  0
   45.1320   24.3100   33.8720 C   0  0  0  0  0  0  0  0  0  0  0  0
   44.3100   23.5650   33.9590 N   0  0  0  0  0  0  0  0  0  0  0  0
   45.5540   25.1840   32.7970 N   0  0  0  0  0  0  0  0  0  0  0  0
   46.3780   24.6090   31.9000 C   0  0  0  0  0  0  0  0  0  0  0  0
   46.6750   25.5820   30.9560 C   0  0  0  0  0  0  0  0  0  0  0  0
   46.0080   26.6970   31.3370 N   0  0  0  0  0  0  0  0  0  0  0  0
   45.3240   26.4560   32.4600 C   0  0  0  0  0  0  0  0  0  0  0  0
   44.4390   27.3010   33.3030 C   0  0  0  0  0  0  0  0  0  0  0  0
   43.1090   26.5540   33.4180 C   0  0  0  0  0  0  0  0  0  0  0  0
   44.9840   27.3970   34.7260 C   0  0  0  0  0  0  0  0  0  0  0  0
   42.4980   21.5910   34.8460 S   0  0  0  0  0  0  0  0  0  0  0  0
   40.1910   22.6460   37.9160 C   0  0  0  0  0  0  0  0  0  0  0  0
   39.0360   23.1610   37.2930 C   0  0  0  0  0  0  0  0  0  0  0  0
   39.0050   23.1650   35.9160 C   0  0  0  0  0  0  0  0  0  0  0  0
   40.0710   22.6830   35.2050 N   0  0  0  0  0  0  0  0  0  0  0  0
   41.1690   22.1940   35.8560 C   0  0  0  0  0  0  0  0  0  0  0  0
   41.2120   22.1830   37.1980 N   0  0  0  0  0  0  0  0  0  0  0  0
   37.8750   23.6870   38.0580 C   0  0  0  0  0  0  0  0  0  0  0  0
   38.3580   24.7200   38.8530 F   0  0  0  0  0  0  0  0  0  0  0  0
   37.2780   22.7550   38.8390 F   0  0  0  0  0  0  0  0  0  0  0  0
   36.9740   24.3390   37.1830 F   0  0  0  0  0  0  0  0  0  0  0  0
   44.5028   22.2881   36.9739 H   0  0  0  0  0  0  0  0  0  0  0  0
   46.7438   23.5717   31.9131 H   0  0  0  0  0  0  0  0  0  0  0  0
   47.3230   25.4698   30.0742 H   0  0  0  0  0  0  0  0  0  0  0  0
   44.3551   28.3040   32.8592 H   0  0  0  0  0  0  0  0  0  0  0  0
   42.8582   26.4131   34.4797 H   0  0  0  0  0  0  0  0  0  0  0  0
   42.3164   27.1389   32.9285 H   0  0  0  0  0  0  0  0  0  0  0  0
   43.1960   25.5728   32.9285 H   0  0  0  0  0  0  0  0  0  0  0  0
   44.1630   27.2524   35.4436 H   0  0  0  0  0  0  0  0  0  0  0  0
   45.7466   26.6194   34.8798 H   0  0  0  0  0  0  0  0  0  0  0  0
   45.4350   28.3884   34.8798 H   0  0  0  0  0  0  0  0  0  0  0  0
   40.2496   22.6264   39.0143 H   0  0  0  0  0  0  0  0  0  0  0  0
   38.1231   23.5557   35.3872 H   0  0  0  0  0  0  0  0  0  0  0  0
  1  2  2  0
  3  2  1  0
  4  5  2  0
  4  3  1  0
  5  1  1  0
  6  4  1  0
  7  6  1  0
  8  9  1  0
  8  7  2  0
  9 10  2  0
 10  6  1  0
 10 11  1  0
 11 12  1  0
 11 13  1  0
 14  1  1  0
 14 19  1  0
 16 15  2  0
 16 21  1  0
 17 16  1  0
 18 19  1  0
 18 17  2  0
 19 20  2  0
 20 15  1  0
 21 23  1  0
 21 22  1  0
 24 21  1  0
  2 25  1  0
  7 26  1  0
  8 27  1  0
 11 28  1  0
 12 29  1  0
 12 30  1  0
 12 31  1  0
 13 32  1  0
 13 33  1  0
 13 34  1  0
 15 35  1  0
 17 36  1  0
M  ISO  8  25  14  26  14  27  14  28   8  29   8  30   8  31   8  32   8
M  ISO  4  33   8  34   8  35  14  36  14
M  END
>  <minimizedAffinity>  (1) 
-4.1402874

>  <minimizedRMSD>  (1) 
2.75955725

$$$$
