
     RDKit          3D

 17 18  0  0  0  0  0  0  0  0999 V2000
   38.5200   23.4880   38.2690 C   0  0  0  0  0  0  0  0  0  0  0  0
   38.0830   24.5600   37.4750 C   0  0  0  0  0  0  0  0  0  0  0  0
   38.7400   24.7750   36.2500 C   0  0  0  0  0  0  0  0  0  0  0  0
   39.7520   23.9340   35.9130 N   0  0  0  0  0  0  0  0  0  0  0  0
   40.1500   22.9110   36.6990 C   0  0  0  0  0  0  0  0  0  0  0  0
   39.5310   22.6910   37.8760 N   0  0  0  0  0  0  0  0  0  0  0  0
   38.3270   25.8840   35.3720 C   0  0  0  0  0  0  0  0  0  0  0  0
   39.4090   26.9650   35.1650 C   0  0  0  0  0  0  0  0  0  0  0  0
   38.1350   27.2530   35.8460 C   0  0  0  0  0  0  0  0  0  0  0  0
   38.0258   23.2952   39.2327 H   0  0  0  0  0  0  0  0  0  0  0  0
   37.2561   25.2089   37.7993 H   0  0  0  0  0  0  0  0  0  0  0  0
   40.9767   22.2592   36.3800 H   0  0  0  0  0  0  0  0  0  0  0  0
   37.6853   25.2162   34.7785 H   0  0  0  0  0  0  0  0  0  0  0  0
   40.3484   26.9276   35.7361 H   0  0  0  0  0  0  0  0  0  0  0  0
   39.9571   27.3798   34.3062 H   0  0  0  0  0  0  0  0  0  0  0  0
   37.3919   27.8964   35.3521 H   0  0  0  0  0  0  0  0  0  0  0  0
   37.8810   27.6865   36.8245 H   0  0  0  0  0  0  0  0  0  0  0  0
  2  1  2  0
  3  2  1  0
  4  3  2  0
  4  5  1  0
  5  6  2  0
  6  1  1  0
  7  9  1  0
  7  3  1  0
  8  7  1  0
  8  9  1  0
  1 10  1  0
  2 11  1  0
  5 12  1  0
  7 13  1  0
  8 14  1  0
  8 15  1  0
  9 16  1  0
  9 17  1  0
M  ISO  8  10  14  11  14  12  14  13  13  14  13  15  13  16  13  17  13
M  END
>  <minimizedAffinity>  (1) 
-3.395226

>  <minimizedRMSD>  (1) 
3.28426051

$$$$
