
     RDKit          3D

 28 30  0  0  1  0  0  0  0  0999 V2000
   38.6770   25.5470   35.0190 C   0  0  2  0  0  0  0  0  0  0  0  0
   39.1490   27.0150   35.2580 C   0  0  0  0  0  0  0  0  0  0  0  0
   37.7720   26.6550   34.8380 C   0  0  1  0  0  0  0  0  0  0  0  0
   37.3710   27.1090   33.5230 N   0  0  0  0  0  0  0  0  0  0  0  0
   38.0370   26.4340   32.5470 C   0  0  0  0  0  0  0  0  0  0  0  0
   37.8020   26.7140   31.2020 C   0  0  0  0  0  0  0  0  0  0  0  0
   36.8640   27.7030   30.9480 C   0  0  0  0  0  0  0  0  0  0  0  0
   36.5990   28.0130   29.5840 N   0  0  0  0  0  0  0  0  0  0  0  0
   36.2190   28.3540   31.9180 N   0  0  0  0  0  0  0  0  0  0  0  0
   36.4790   28.0500   33.2060 C   0  0  0  0  0  0  0  0  0  0  0  0
   35.9290   28.6030   34.1720 O   0  0  0  0  0  0  0  0  0  0  0  0
   37.9570   24.1010   38.4500 C   0  0  0  0  0  0  0  0  0  0  0  0
   37.8440   24.9390   37.3440 C   0  0  0  0  0  0  0  0  0  0  0  0
   38.7010   24.7120   36.2360 C   0  0  0  0  0  0  0  0  0  0  0  0
   39.5860   23.6910   36.3170 N   0  0  0  0  0  0  0  0  0  0  0  0
   39.6750   22.8940   37.4030 C   0  0  0  0  0  0  0  0  0  0  0  0
   38.8620   23.0940   38.4740 N   0  0  0  0  0  0  0  0  0  0  0  0
   38.9098   24.6850   34.3766 H   0  0  0  0  0  0  0  0  0  0  0  0
   39.3457   27.3807   36.2766 H   0  0  0  0  0  0  0  0  0  0  0  0
   39.9530   27.6656   34.8835 H   0  0  0  0  0  0  0  0  0  0  0  0
   36.7595   26.8230   35.2337 H   0  0  0  0  0  0  0  0  0  0  0  0
   38.7681   25.6596   32.8223 H   0  0  0  0  0  0  0  0  0  0  0  0
   38.3272   26.1842   30.3936 H   0  0  0  0  0  0  0  0  0  0  0  0
   35.9100   28.7406   29.3457 H   0  0  0  0  0  0  0  0  0  0  0  0
   37.0962   27.5096   28.8355 H   0  0  0  0  0  0  0  0  0  0  0  0
   37.3006   24.2595   39.3183 H   0  0  0  0  0  0  0  0  0  0  0  0
   37.1086   25.7569   37.3294 H   0  0  0  0  0  0  0  0  0  0  0  0
   40.4109   22.0766   37.4214 H   0  0  0  0  0  0  0  0  0  0  0  0
  1  2  1  0
  1 14  1  0
  3  1  1  0
  3  2  1  0
  4  3  1  0
  5  4  1  0
  6  5  2  0
  7  6  1  0
  7  9  2  0
  8  7  1  0
  9 10  1  0
 10  4  1  0
 10 11  2  0
 12 17  2  0
 13 12  1  0
 14 15  1  0
 14 13  2  0
 15 16  2  0
 16 17  1  0
  1 18  1  6
  2 19  1  0
  2 20  1  0
  3 21  1  1
  5 22  1  0
  6 23  1  0
  8 24  1  0
  8 25  1  0
 12 26  1  0
 13 27  1  0
 16 28  1  0
M  ISO  8  18  13  19  13  20  13  21  13  22  14  23  14  26  14  27  14
M  ISO  1  28  14
M  END
>  <minimizedAffinity>  (1) 
-5.06340551

>  <minimizedRMSD>  (1) 
2.02265573

$$$$
