
     RDKit          3D

 31 33  0  0  1  0  0  0  0  0999 V2000
   37.6200   25.8770   35.4620 C   0  0  2  0  0  0  0  0  0  0  0  0
   39.1600   25.7920   35.5110 C   0  0  0  0  0  0  0  0  0  0  0  0
   38.3270   24.6220   35.2790 C   0  0  1  0  0  0  0  0  0  0  0  0
   36.5070   26.8670   32.0060 C   0  0  0  0  0  0  0  0  0  0  0  0
   37.0270   26.1060   33.0540 C   0  0  0  0  0  0  0  0  0  0  0  0
   37.0720   26.6570   34.3540 C   0  0  0  0  0  0  0  0  0  0  0  0
   36.6050   27.9080   34.5190 N   0  0  0  0  0  0  0  0  0  0  0  0
   36.1040   28.6340   33.4960 C   0  0  0  0  0  0  0  0  0  0  0  0
   36.0580   28.1110   32.2460 N   0  0  0  0  0  0  0  0  0  0  0  0
   38.0360   23.5930   36.2190 N   0  0  0  0  0  0  0  0  0  0  0  0
   37.6490   23.9440   37.5210 C   0  0  0  0  0  0  0  0  0  0  0  0
   38.6020   23.6460   38.6270 C   0  0  0  0  0  0  0  0  0  0  0  0
   39.5020   22.5490   38.3980 N   0  0  0  0  0  0  0  0  0  0  0  0
   40.0930   22.7560   37.0680 C   0  0  0  0  0  0  0  0  0  0  0  0
   38.9460   22.4800   36.1130 C   0  0  0  0  0  0  0  0  0  0  0  0
   36.7789   26.1693   36.1079 H   0  0  0  0  0  0  0  0  0  0  0  0
   39.7662   26.2133   34.6955 H   0  0  0  0  0  0  0  0  0  0  0  0
   39.9446   26.0737   36.2287 H   0  0  0  0  0  0  0  0  0  0  0  0
   38.4243   23.8472   34.5043 H   0  0  0  0  0  0  0  0  0  0  0  0
   36.4648   26.4508   30.9886 H   0  0  0  0  0  0  0  0  0  0  0  0
   37.3982   25.0871   32.8695 H   0  0  0  0  0  0  0  0  0  0  0  0
   35.7320   29.6531   33.6777 H   0  0  0  0  0  0  0  0  0  0  0  0
   37.4644   25.0284   37.5286 H   0  0  0  0  0  0  0  0  0  0  0  0
   36.7712   23.3152   37.7310 H   0  0  0  0  0  0  0  0  0  0  0  0
   39.2068   24.5477   38.8036 H   0  0  0  0  0  0  0  0  0  0  0  0
   37.9809   23.3491   39.4850 H   0  0  0  0  0  0  0  0  0  0  0  0
   40.2399   22.5397   39.1165 H   0  0  0  0  0  0  0  0  0  0  0  0
   40.4551   23.7887   36.9569 H   0  0  0  0  0  0  0  0  0  0  0  0
   40.9633   22.1087   36.8847 H   0  0  0  0  0  0  0  0  0  0  0  0
   38.4363   21.5465   36.3937 H   0  0  0  0  0  0  0  0  0  0  0  0
   39.3110   22.3666   35.0815 H   0  0  0  0  0  0  0  0  0  0  0  0
  1  2  1  0
  3  1  1  0
  3  2  1  0
  3 10  1  0
  4  9  2  0
  4  5  1  0
  5  6  2  0
  6  7  1  0
  6  1  1  0
  8  7  2  0
  9  8  1  0
 10 11  1  0
 11 12  1  0
 13 12  1  0
 14 13  1  0
 15 10  1  0
 15 14  1  0
  1 16  1  1
  2 17  1  0
  2 18  1  0
  3 19  1  6
  4 20  1  0
  5 21  1  0
  8 22  1  0
 11 23  1  0
 11 24  1  0
 12 25  1  0
 12 26  1  0
 13 27  1  0
 14 28  1  0
 14 29  1  0
 15 30  1  0
 15 31  1  0
M  ISO  8  16  13  17  13  18  13  19  13  20  14  21  14  22  14  23  13
M  ISO  8  24  13  25  13  26  13  27   5  28  13  29  13  30  13  31  13
M  END
>  <minimizedAffinity>  (1) 
-4.77469206

>  <minimizedRMSD>  (1) 
6.10546446

$$$$
