
     RDKit          3D

 24 26  0  0  1  0  0  0  0  0999 V2000
   38.5010   25.6410   35.0730 C   0  0  2  0  0  0  0  0  0  0  0  0
   39.1700   27.0260   35.2680 C   0  0  0  0  0  0  0  0  0  0  0  0
   37.7290   26.8660   35.0850 C   0  0  1  0  0  0  0  0  0  0  0  0
   38.0140   24.0680   38.4670 C   0  0  0  0  0  0  0  0  0  0  0  0
   37.8350   24.9370   37.3800 C   0  0  0  0  0  0  0  0  0  0  0  0
   38.6390   24.7510   36.2290 C   0  0  0  0  0  0  0  0  0  0  0  0
   39.5450   23.7340   36.2410 N   0  0  0  0  0  0  0  0  0  0  0  0
   39.6920   22.9210   37.2970 C   0  0  0  0  0  0  0  0  0  0  0  0
   38.9300   23.0830   38.4100 N   0  0  0  0  0  0  0  0  0  0  0  0
   37.0560   27.4420   33.8930 C   0  0  0  0  0  0  0  0  0  0  0  0
   36.7690   26.5070   32.7370 C   0  0  0  0  0  0  0  0  0  0  0  0
   37.9290   27.4990   32.6590 C   0  0  0  0  0  0  0  0  0  0  0  0
   38.5066   24.7885   34.3779 H   0  0  0  0  0  0  0  0  0  0  0  0
   39.5785   27.3144   36.2478 H   0  0  0  0  0  0  0  0  0  0  0  0
   39.9733   27.5947   34.7768 H   0  0  0  0  0  0  0  0  0  0  0  0
   36.8370   27.1577   35.6588 H   0  0  0  0  0  0  0  0  0  0  0  0
   37.4015   24.1924   39.3722 H   0  0  0  0  0  0  0  0  0  0  0  0
   37.0880   25.7435   37.4208 H   0  0  0  0  0  0  0  0  0  0  0  0
   40.4382   22.1135   37.2618 H   0  0  0  0  0  0  0  0  0  0  0  0
   36.4389   28.1522   34.4630 H   0  0  0  0  0  0  0  0  0  0  0  0
   36.9705   25.4302   32.8361 H   0  0  0  0  0  0  0  0  0  0  0  0
   35.8904   26.2837   32.1140 H   0  0  0  0  0  0  0  0  0  0  0  0
   38.9669   27.1372   32.7014 H   0  0  0  0  0  0  0  0  0  0  0  0
   38.2339   28.2879   31.9557 H   0  0  0  0  0  0  0  0  0  0  0  0
  1  3  1  0
  1  2  1  0
  1  6  1  0
  3  2  1  0
  5  4  2  0
  6  7  2  0
  6  5  1  0
  7  8  1  0
  8  9  2  0
  9  4  1  0
 10  3  1  0
 11 10  1  0
 12 11  1  0
 12 10  1  0
  1 13  1  6
  2 14  1  0
  2 15  1  0
  3 16  1  1
  4 17  1  0
  5 18  1  0
  8 19  1  0
 10 20  1  0
 11 21  1  0
 11 22  1  0
 12 23  1  0
 12 24  1  0
M  ISO  8  13  13  14  13  15  13  16  13  17  14  18  14  19  14  20  13
M  ISO  4  21  13  22  13  23  13  24  13
M  END
>  <minimizedAffinity>  (1) 
-3.94954467

>  <minimizedRMSD>  (1) 
1.03633964

$$$$
