
     RDKit          3D

 20 21  0  0  1  0  0  0  0  0999 V2000
   38.3860   23.6370   38.3120 C   0  0  0  0  0  0  0  0  0  0  0  0
   38.0020   24.6250   37.3970 C   0  0  0  0  0  0  0  0  0  0  0  0
   38.7120   24.7500   36.1850 C   0  0  0  0  0  0  0  0  0  0  0  0
   39.7410   23.8960   35.9690 N   0  0  0  0  0  0  0  0  0  0  0  0
   40.0950   22.9570   36.8570 C   0  0  0  0  0  0  0  0  0  0  0  0
   39.4240   22.8190   38.0300 N   0  0  0  0  0  0  0  0  0  0  0  0
   38.3460   25.7840   35.2130 C   0  0  2  0  0  0  0  0  0  0  0  0
   39.2570   27.0360   35.2590 C   0  0  0  0  0  0  0  0  0  0  0  0
   37.8090   27.0780   35.5690 C   0  0  1  0  0  0  0  0  0  0  0  0
   36.9180   27.8540   34.6290 C   0  0  0  0  0  0  0  0  0  0  0  0
   37.8420   23.5266   39.2616 H   0  0  0  0  0  0  0  0  0  0  0  0
   37.1582   25.2944   37.6205 H   0  0  0  0  0  0  0  0  0  0  0  0
   40.9400   22.2892   36.6332 H   0  0  0  0  0  0  0  0  0  0  0  0
   37.9916   25.0257   34.4993 H   0  0  0  0  0  0  0  0  0  0  0  0
   40.0029   27.1547   36.0588 H   0  0  0  0  0  0  0  0  0  0  0  0
   39.9370   27.5509   34.5644 H   0  0  0  0  0  0  0  0  0  0  0  0
   37.2044   27.4043   36.4280 H   0  0  0  0  0  0  0  0  0  0  0  0
   36.2147   28.4665   35.2123 H   0  0  0  0  0  0  0  0  0  0  0  0
   37.5349   28.5077   33.9949 H   0  0  0  0  0  0  0  0  0  0  0  0
   36.3552   27.1531   33.9949 H   0  0  0  0  0  0  0  0  0  0  0  0
  2  1  2  0
  3  2  1  0
  4  3  2  0
  4  5  1  0
  5  6  2  0
  6  1  1  0
  7  8  1  0
  7  9  1  0
  7  3  1  0
  8  9  1  0
 10  9  1  0
  1 11  1  0
  2 12  1  0
  5 13  1  0
  7 14  1  6
  8 15  1  0
  8 16  1  0
  9 17  1  1
 10 18  1  0
 10 19  1  0
 10 20  1  0
M  ISO  8  11  14  12  14  13  14  14  13  15  13  16  13  17  13  18   8
M  ISO  2  19   8  20   8
M  END
>  <minimizedAffinity>  (1) 
-3.73026228

>  <minimizedRMSD>  (1) 
0.296603262

$$$$
