
     RDKit          3D

 33 36  0  0  0  0  0  0  0  0999 V2000
   43.3060   23.5110   33.7840 C   0  0  0  0  0  0  0  0  0  0  0  0
   43.7320   24.2330   34.9080 C   0  0  0  0  0  0  0  0  0  0  0  0
   44.9480   25.4710   34.1740 S   0  0  0  0  0  0  0  0  0  0  0  0
   44.6240   24.7430   32.4560 C   0  0  0  0  0  0  0  0  0  0  0  0
   43.8840   23.9500   32.7120 N   0  0  0  0  0  0  0  0  0  0  0  0
   45.2290   25.1570   31.1930 N   0  0  0  0  0  0  0  0  0  0  0  0
   46.2980   24.4720   30.8250 C   0  0  0  0  0  0  0  0  0  0  0  0
   46.7020   25.0300   29.6150 C   0  0  0  0  0  0  0  0  0  0  0  0
   45.8340   26.0310   29.3310 N   0  0  0  0  0  0  0  0  0  0  0  0
   44.9140   26.1260   30.2960 C   0  0  0  0  0  0  0  0  0  0  0  0
   43.7560   27.0200   30.4970 C   0  0  0  0  0  0  0  0  0  0  0  0
   42.5610   26.6400   29.8400 C   0  0  0  0  0  0  0  0  0  0  0  0
   41.3760   27.9630   30.3180 S   0  0  0  0  0  0  0  0  0  0  0  0
   42.7470   28.8240   31.3530 C   0  0  0  0  0  0  0  0  0  0  0  0
   43.6520   28.1280   31.1990 N   0  0  0  0  0  0  0  0  0  0  0  0
   42.1200   22.2120   34.0580 S   0  0  0  0  0  0  0  0  0  0  0  0
   40.4080   22.3890   37.6460 C   0  0  0  0  0  0  0  0  0  0  0  0
   39.3650   23.3040   37.4670 C   0  0  0  0  0  0  0  0  0  0  0  0
   39.2130   23.8590   36.2060 C   0  0  0  0  0  0  0  0  0  0  0  0
   40.0670   23.5060   35.1960 N   0  0  0  0  0  0  0  0  0  0  0  0
   41.0690   22.6050   35.4320 C   0  0  0  0  0  0  0  0  0  0  0  0
   41.2240   22.0620   36.6510 N   0  0  0  0  0  0  0  0  0  0  0  0
   38.4260   23.7050   38.5460 C   0  0  0  0  0  0  0  0  0  0  0  0
   39.1870   23.8710   39.6850 F   0  0  0  0  0  0  0  0  0  0  0  0
   37.4470   22.8070   38.7750 F   0  0  0  0  0  0  0  0  0  0  0  0
   37.9350   25.0150   38.3030 F   0  0  0  0  0  0  0  0  0  0  0  0
   43.4308   24.1076   35.9585 H   0  0  0  0  0  0  0  0  0  0  0  0
   46.7697   23.6360   31.3623 H   0  0  0  0  0  0  0  0  0  0  0  0
   47.5626   24.7175   29.0053 H   0  0  0  0  0  0  0  0  0  0  0  0
   42.3838   25.7644   29.1982 H   0  0  0  0  0  0  0  0  0  0  0  0
   42.6836   29.7494   31.9443 H   0  0  0  0  0  0  0  0  0  0  0  0
   40.5555   21.9296   38.6345 H   0  0  0  0  0  0  0  0  0  0  0  0
   38.4065   24.5828   36.0169 H   0  0  0  0  0  0  0  0  0  0  0  0
  1 16  1  0
  1  2  2  0
  3  2  1  0
  4  5  2  0
  4  3  1  0
  5  1  1  0
  6  4  1  0
  7  6  1  0
  8  7  2  0
  9  8  1  0
  9 10  2  0
 10 11  1  0
 10  6  1  0
 11 15  1  0
 12 13  1  0
 12 11  2  0
 13 14  1  0
 15 14  2  0
 16 21  1  0
 18 17  2  0
 18 23  1  0
 19 18  1  0
 20 21  1  0
 20 19  2  0
 21 22  2  0
 22 17  1  0
 23 25  1  0
 23 24  1  0
 26 23  1  0
  2 27  1  0
  7 28  1  0
  8 29  1  0
 12 30  1  0
 14 31  1  0
 17 32  1  0
 19 33  1  0
M  ISO  7  27  14  28  14  29  14  30  14  31  14  32  14  33  14
M  END
>  <minimizedAffinity>  (1) 
-4.0307312

>  <minimizedRMSD>  (1) 
2.93759394

$$$$
