
     RDKit          3D

 25 27  0  0  1  0  0  0  0  0999 V2000
   38.3510   23.6530   32.5410 C   0  0  2  0  0  0  0  0  0  0  0  0
   36.8980   23.9610   32.1180 C   0  0  0  0  0  0  0  0  0  0  0  0
   37.6250   22.7470   31.6910 C   0  0  2  0  0  0  0  0  0  0  0  0
   39.3320   22.1920   35.8690 C   0  0  0  0  0  0  0  0  0  0  0  0
   39.1970   22.3280   34.4910 C   0  0  0  0  0  0  0  0  0  0  0  0
   38.5350   23.4700   33.9860 C   0  0  0  0  0  0  0  0  0  0  0  0
   38.0680   24.3700   34.8800 N   0  0  0  0  0  0  0  0  0  0  0  0
   38.2080   24.2190   36.2070 C   0  0  0  0  0  0  0  0  0  0  0  0
   38.8410   23.1290   36.7140 N   0  0  0  0  0  0  0  0  0  0  0  0
   36.9440   21.5150   32.1220 C   0  0  0  0  0  0  0  0  0  0  0  0
   37.3660   20.2850   31.6250 C   0  0  0  0  0  0  0  0  0  0  0  0
   36.7780   19.0640   31.9740 C   0  0  0  0  0  0  0  0  0  0  0  0
   35.7520   19.1820   32.8480 N   0  0  0  0  0  0  0  0  0  0  0  0
   35.3560   20.3820   33.3210 C   0  0  0  0  0  0  0  0  0  0  0  0
   35.9200   21.5540   32.9860 N   0  0  0  0  0  0  0  0  0  0  0  0
   39.3615   24.0778   32.4494 H   0  0  0  0  0  0  0  0  0  0  0  0
   36.0775   23.8932   32.8475 H   0  0  0  0  0  0  0  0  0  0  0  0
   36.3721   24.7899   31.6216 H   0  0  0  0  0  0  0  0  0  0  0  0
   37.9790   22.2637   30.7684 H   0  0  0  0  0  0  0  0  0  0  0  0
   39.8456   21.3096   36.2783 H   0  0  0  0  0  0  0  0  0  0  0  0
   39.5969   21.5631   33.8091 H   0  0  0  0  0  0  0  0  0  0  0  0
   37.8071   24.9836   36.8887 H   0  0  0  0  0  0  0  0  0  0  0  0
   38.2089   20.2721   30.9183 H   0  0  0  0  0  0  0  0  0  0  0  0
   37.1186   18.0974   31.5745 H   0  0  0  0  0  0  0  0  0  0  0  0
   34.5143   20.4018   34.0289 H   0  0  0  0  0  0  0  0  0  0  0  0
  1  6  1  0
  2  1  1  0
  3  2  1  0
  3 10  1  0
  3  1  1  0
  4  9  2  0
  5  4  1  0
  6  5  2  0
  6  7  1  0
  7  8  2  0
  8  9  1  0
 10 15  2  0
 11 12  2  0
 11 10  1  0
 12 13  1  0
 13 14  2  0
 15 14  1  0
  1 16  1  6
  2 17  1  0
  2 18  1  0
  3 19  1  6
  4 20  1  0
  5 21  1  0
  8 22  1  0
 11 23  1  0
 12 24  1  0
 14 25  1  0
M  ISO  8  16  13  17  13  18  13  19  13  20  14  21  14  22  14  23  14
M  ISO  2  24  14  25  14
M  END
>  <minimizedAffinity>  (1) 
-3.3204515

>  <minimizedRMSD>  (1) 
7.08091545

$$$$
