
     RDKit          3D

 43 47  0  0  1  0  0  0  0  0999 V2000
   37.1050   27.7300   34.3600 N   0  0  0  0  0  0  0  0  0  0  0  0
   36.2570   28.7510   34.6310 C   0  0  0  0  0  0  0  0  0  0  0  0
   35.8260   29.2560   33.4710 N   0  0  0  0  0  0  0  0  0  0  0  0
   36.3950   28.5640   32.4740 C   0  0  0  0  0  0  0  0  0  0  0  0
   36.3360   28.6160   31.1160 C   0  0  0  0  0  0  0  0  0  0  0  0
   37.0600   27.7380   30.4120 N   0  0  0  0  0  0  0  0  0  0  0  0
   37.8500   26.7930   30.9680 C   0  0  0  0  0  0  0  0  0  0  0  0
   37.9050   26.7450   32.3170 N   0  0  0  0  0  0  0  0  0  0  0  0
   37.1940   27.6110   33.0530 C   0  0  0  0  0  0  0  0  0  0  0  0
   35.5070   29.6070   30.5240 N   0  0  0  0  0  0  0  0  0  0  0  0
   38.5830   25.9010   30.1350 N   0  0  0  0  0  0  0  0  0  0  0  0
   39.5440   26.2970   29.2860 C   0  0  0  0  0  0  0  0  0  0  0  0
   40.2000   25.3640   28.5190 C   0  0  0  0  0  0  0  0  0  0  0  0
   41.2600   25.7400   27.5730 C   0  0  0  0  0  0  0  0  0  0  0  0
   39.8730   24.0270   28.6200 C   0  0  0  0  0  0  0  0  0  0  0  0
   40.4550   23.1460   27.9320 O   0  0  0  0  0  0  0  0  0  0  0  0
   38.8920   23.6590   29.4920 N   0  0  0  0  0  0  0  0  0  0  0  0
   38.2640   24.5950   30.2330 C   0  0  0  0  0  0  0  0  0  0  0  0
   37.3670   24.1280   31.0100 O   0  0  0  0  0  0  0  0  0  0  0  0
   38.4500   25.7890   35.2790 C   0  0  2  0  0  0  0  0  0  0  0  0
   39.1990   27.1320   35.6000 C   0  0  0  0  0  0  0  0  0  0  0  0
   37.7180   27.0100   35.4350 C   0  0  1  0  0  0  0  0  0  0  0  0
   37.9620   23.8520   38.4750 C   0  0  0  0  0  0  0  0  0  0  0  0
   37.7810   24.8270   37.4990 C   0  0  0  0  0  0  0  0  0  0  0  0
   38.5860   24.7770   36.3410 C   0  0  0  0  0  0  0  0  0  0  0  0
   39.5020   23.7840   36.2320 N   0  0  0  0  0  0  0  0  0  0  0  0
   39.6520   22.8540   37.1970 C   0  0  0  0  0  0  0  0  0  0  0  0
   38.8910   22.8850   38.3090 N   0  0  0  0  0  0  0  0  0  0  0  0
   35.9721   29.1037   35.6332 H   0  0  0  0  0  0  0  0  0  0  0  0
   35.4382   29.6755   29.4986 H   0  0  0  0  0  0  0  0  0  0  0  0
   34.9750   30.2568   31.1204 H   0  0  0  0  0  0  0  0  0  0  0  0
   39.8052   27.3624   29.2044 H   0  0  0  0  0  0  0  0  0  0  0  0
   42.1536   26.0570   28.1307 H   0  0  0  0  0  0  0  0  0  0  0  0
   41.5101   24.8758   26.9401 H   0  0  0  0  0  0  0  0  0  0  0  0
   40.9096   26.5687   26.9401 H   0  0  0  0  0  0  0  0  0  0  0  0
   38.6305   22.6671   29.5850 H   0  0  0  0  0  0  0  0  0  0  0  0
   38.4061   25.0169   34.4967 H   0  0  0  0  0  0  0  0  0  0  0  0
   39.6413   27.3052   36.5922 H   0  0  0  0  0  0  0  0  0  0  0  0
   40.0102   27.7252   35.1528 H   0  0  0  0  0  0  0  0  0  0  0  0
   36.8344   27.2307   36.0519 H   0  0  0  0  0  0  0  0  0  0  0  0
   37.3459   23.8685   39.3861 H   0  0  0  0  0  0  0  0  0  0  0  0
   37.0279   25.6185   37.6271 H   0  0  0  0  0  0  0  0  0  0  0  0
   40.4043   22.0608   37.0752 H   0  0  0  0  0  0  0  0  0  0  0  0
  1  2  1  0
  1 22  1  0
  3  2  2  0
  4  9  2  0
  4  3  1  0
  5  4  1  0
  6  7  1  0
  6  5  2  0
  7  8  2  0
  8  9  1  0
  9  1  1  0
 10  5  1  0
 11 18  1  0
 11  7  1  0
 12 11  1  0
 13 15  1  0
 13 12  2  0
 14 13  1  0
 15 17  1  0
 16 15  2  0
 17 18  1  0
 18 19  2  0
 20 22  1  0
 20 21  1  0
 20 25  1  0
 22 21  1  0
 24 23  2  0
 25 24  1  0
 26 25  2  0
 26 27  1  0
 27 28  2  0
 28 23  1  0
  2 29  1  0
 10 30  1  0
 10 31  1  0
 12 32  1  0
 14 33  1  0
 14 34  1  0
 14 35  1  0
 17 36  1  0
 20 37  1  6
 21 38  1  0
 21 39  1  0
 22 40  1  1
 23 41  1  0
 24 42  1  0
 27 43  1  0
M  ISO  8  29  14  32  14  33   8  34   8  35   8  36   9  37  13  38  13
M  ISO  5  39  13  40  13  41  14  42  14  43  14
M  END
>  <minimizedAffinity>  (1) 
-6.20829058

>  <minimizedRMSD>  (1) 
0.583491623

$$$$
