
     RDKit          3D

 44 49  0  0  1  0  0  0  0  0999 V2000
   37.1360   27.7340   34.3050 N   0  0  0  0  0  0  0  0  0  0  0  0
   36.2230   28.7010   34.5680 C   0  0  0  0  0  0  0  0  0  0  0  0
   35.8110   29.2190   33.4090 N   0  0  0  0  0  0  0  0  0  0  0  0
   36.4520   28.5900   32.4100 C   0  0  0  0  0  0  0  0  0  0  0  0
   36.4440   28.6810   31.0550 C   0  0  0  0  0  0  0  0  0  0  0  0
   37.2370   27.8670   30.3550 N   0  0  0  0  0  0  0  0  0  0  0  0
   38.0570   26.9470   30.9130 C   0  0  0  0  0  0  0  0  0  0  0  0
   38.0650   26.8560   32.2620 N   0  0  0  0  0  0  0  0  0  0  0  0
   37.2840   27.6550   32.9960 C   0  0  0  0  0  0  0  0  0  0  0  0
   35.5850   29.6480   30.4630 N   0  0  0  0  0  0  0  0  0  0  0  0
   38.9010   26.0840   30.0970 C   0  0  0  0  0  0  0  0  0  0  0  0
   39.8770   26.5280   29.2290 C   0  0  0  0  0  0  0  0  0  0  0  0
   40.4170   25.4340   28.6790 N   0  0  0  0  0  0  0  0  0  0  0  0
   39.8040   24.3360   29.1830 C   0  0  0  0  0  0  0  0  0  0  0  0
   40.0920   23.0280   28.8520 C   0  0  0  0  0  0  0  0  0  0  0  0
   39.3340   22.0530   29.4940 C   0  0  0  0  0  0  0  0  0  0  0  0
   38.3470   22.4090   30.4140 C   0  0  0  0  0  0  0  0  0  0  0  0
   38.0970   23.7320   30.7110 C   0  0  0  0  0  0  0  0  0  0  0  0
   38.8290   24.7070   30.0930 C   0  0  0  0  0  0  0  0  0  0  0  0
   38.4560   25.7810   35.2260 C   0  0  2  0  0  0  0  0  0  0  0  0
   39.2270   27.1190   35.5310 C   0  0  0  0  0  0  0  0  0  0  0  0
   37.7420   27.0150   35.3750 C   0  0  1  0  0  0  0  0  0  0  0  0
   37.9600   23.8860   38.4460 C   0  0  0  0  0  0  0  0  0  0  0  0
   37.7790   24.8480   37.4590 C   0  0  0  0  0  0  0  0  0  0  0  0
   38.5900   24.7790   36.2980 C   0  0  0  0  0  0  0  0  0  0  0  0
   39.5040   23.7830   36.2010 N   0  0  0  0  0  0  0  0  0  0  0  0
   39.6500   22.8660   37.1820 C   0  0  0  0  0  0  0  0  0  0  0  0
   38.8880   22.9150   38.2930 N   0  0  0  0  0  0  0  0  0  0  0  0
   35.8799   29.0069   35.5673 H   0  0  0  0  0  0  0  0  0  0  0  0
   35.5505   29.7477   29.4384 H   0  0  0  0  0  0  0  0  0  0  0  0
   34.9975   30.2485   31.0589 H   0  0  0  0  0  0  0  0  0  0  0  0
   40.1558   27.5731   29.0288 H   0  0  0  0  0  0  0  0  0  0  0  0
   41.1770   25.4278   27.9838 H   0  0  0  0  0  0  0  0  0  0  0  0
   40.8749   22.7707   28.1234 H   0  0  0  0  0  0  0  0  0  0  0  0
   39.5149   20.9906   29.2738 H   0  0  0  0  0  0  0  0  0  0  0  0
   37.7595   21.6222   30.9098 H   0  0  0  0  0  0  0  0  0  0  0  0
   37.3163   24.0002   31.4380 H   0  0  0  0  0  0  0  0  0  0  0  0
   38.3936   25.0023   34.4516 H   0  0  0  0  0  0  0  0  0  0  0  0
   39.6771   27.2953   36.5191 H   0  0  0  0  0  0  0  0  0  0  0  0
   40.0437   27.6970   35.0740 H   0  0  0  0  0  0  0  0  0  0  0  0
   36.8640   27.2513   35.9941 H   0  0  0  0  0  0  0  0  0  0  0  0
   37.3443   23.9151   39.3571 H   0  0  0  0  0  0  0  0  0  0  0  0
   37.0265   25.6418   37.5756 H   0  0  0  0  0  0  0  0  0  0  0  0
   40.4003   22.0690   37.0729 H   0  0  0  0  0  0  0  0  0  0  0  0
  1  2  1  0
  1 22  1  0
  3  2  2  0
  4  9  2  0
  4  3  1  0
  5  4  1  0
  6  7  1  0
  6  5  2  0
  7  8  2  0
  8  9  1  0
  9  1  1  0
 10  5  1  0
 11  7  1  0
 12 11  2  0
 13 14  1  0
 13 12  1  0
 14 19  2  0
 15 14  1  0
 15 16  2  0
 16 17  1  0
 17 18  2  0
 19 11  1  0
 19 18  1  0
 20 22  1  0
 20 21  1  0
 20 25  1  0
 22 21  1  0
 24 23  2  0
 25 24  1  0
 26 25  2  0
 26 27  1  0
 27 28  2  0
 28 23  1  0
  2 29  1  0
 10 30  1  0
 10 31  1  0
 12 32  1  0
 13 33  1  0
 15 34  1  0
 16 35  1  0
 17 36  1  0
 18 37  1  0
 20 38  1  6
 21 39  1  0
 21 40  1  0
 22 41  1  1
 23 42  1  0
 24 43  1  0
 27 44  1  0
M  ISO  8  29  14  32  14  33   9  34  14  35  14  36  14  37  14  38  13
M  ISO  6  39  13  40  13  41  13  42  14  43  14  44  14
M  END
>  <minimizedAffinity>  (1) 
-6.12211704

>  <minimizedRMSD>  (1) 
0.957901061

$$$$
