
     RDKit          3D

 43 47  0  0  1  0  0  0  0  0999 V2000
   37.1070   27.7360   34.3640 N   0  0  0  0  0  0  0  0  0  0  0  0
   36.2600   28.7610   34.6370 C   0  0  0  0  0  0  0  0  0  0  0  0
   35.8270   29.2730   33.4790 N   0  0  0  0  0  0  0  0  0  0  0  0
   36.4030   28.5670   32.4690 C   0  0  0  0  0  0  0  0  0  0  0  0
   36.3360   28.6260   31.1160 C   0  0  0  0  0  0  0  0  0  0  0  0
   37.0460   27.7520   30.4140 N   0  0  0  0  0  0  0  0  0  0  0  0
   37.8400   26.7990   30.9640 C   0  0  0  0  0  0  0  0  0  0  0  0
   37.8990   26.7510   32.3110 N   0  0  0  0  0  0  0  0  0  0  0  0
   37.1920   27.6190   33.0500 C   0  0  0  0  0  0  0  0  0  0  0  0
   35.5170   29.6100   30.5180 N   0  0  0  0  0  0  0  0  0  0  0  0
   38.4490   25.7890   35.2720 C   0  0  2  0  0  0  0  0  0  0  0  0
   39.2020   27.1270   35.5890 C   0  0  0  0  0  0  0  0  0  0  0  0
   37.7210   27.0120   35.4300 C   0  0  1  0  0  0  0  0  0  0  0  0
   37.9640   23.8540   38.4690 C   0  0  0  0  0  0  0  0  0  0  0  0
   37.7770   24.8280   37.4950 C   0  0  0  0  0  0  0  0  0  0  0  0
   38.5830   24.7780   36.3360 C   0  0  0  0  0  0  0  0  0  0  0  0
   39.5070   23.7810   36.2180 N   0  0  0  0  0  0  0  0  0  0  0  0
   39.6490   22.8570   37.1960 C   0  0  0  0  0  0  0  0  0  0  0  0
   38.8890   22.8900   38.3080 N   0  0  0  0  0  0  0  0  0  0  0  0
   40.0900   23.9900   28.6520 C   0  0  0  0  0  0  0  0  0  0  0  0
   40.2650   25.3710   28.5710 C   0  0  0  0  0  0  0  0  0  0  0  0
   39.5660   26.3220   29.2930 C   0  0  0  0  0  0  0  0  0  0  0  0
   38.6130   25.8460   30.1700 C   0  0  0  0  0  0  0  0  0  0  0  0
   38.3860   24.4910   30.3040 C   0  0  0  0  0  0  0  0  0  0  0  0
   39.1200   23.5960   29.5520 C   0  0  0  0  0  0  0  0  0  0  0  0
   41.0350   22.9010   27.6870 S   0  0  0  0  0  0  0  0  0  0  0  0
   41.8590   23.6240   26.6560 O   0  0  0  0  0  0  0  0  0  0  0  0
   40.1260   21.9420   26.9930 O   0  0  0  0  0  0  0  0  0  0  0  0
   35.9773   29.1115   35.6406 H   0  0  0  0  0  0  0  0  0  0  0  0
   35.4520   29.6719   29.4919 H   0  0  0  0  0  0  0  0  0  0  0  0
   34.9850   30.2654   31.1082 H   0  0  0  0  0  0  0  0  0  0  0  0
   38.4015   25.0168   34.4900 H   0  0  0  0  0  0  0  0  0  0  0  0
   39.6487   27.2988   36.5794 H   0  0  0  0  0  0  0  0  0  0  0  0
   40.0137   27.7168   35.1382 H   0  0  0  0  0  0  0  0  0  0  0  0
   36.8392   27.2345   36.0489 H   0  0  0  0  0  0  0  0  0  0  0  0
   37.3493   23.8714   39.3811 H   0  0  0  0  0  0  0  0  0  0  0  0
   37.0213   25.6169   37.6234 H   0  0  0  0  0  0  0  0  0  0  0  0
   40.4007   22.0622   37.0809 H   0  0  0  0  0  0  0  0  0  0  0  0
   41.0284   25.7378   27.8691 H   0  0  0  0  0  0  0  0  0  0  0  0
   39.7594   27.3984   29.1744 H   0  0  0  0  0  0  0  0  0  0  0  0
   37.6231   24.1259   31.0074 H   0  0  0  0  0  0  0  0  0  0  0  0
   38.9233   22.5208   29.6753 H   0  0  0  0  0  0  0  0  0  0  0  0
   41.8930   22.2420   28.5276 H   0  0  0  0  0  0  0  0  0  0  0  0
  1  2  1  0
  1 13  1  0
  3  2  2  0
  4  9  2  0
  4  3  1  0
  5  4  1  0
  6  7  1  0
  6  5  2  0
  7  8  2  0
  8  9  1  0
  9  1  1  0
 10  5  1  0
 11 13  1  0
 11 12  1  0
 11 16  1  0
 13 12  1  0
 15 14  2  0
 16 15  1  0
 17 16  2  0
 17 18  1  0
 18 19  2  0
 19 14  1  0
 20 25  2  0
 21 20  1  0
 21 22  2  0
 22 23  1  0
 23 24  2  0
 23  7  1  0
 25 24  1  0
 26 20  1  0
 27 26  2  0
 28 26  2  0
  2 29  1  0
 10 30  1  0
 10 31  1  0
 11 32  1  6
 12 33  1  0
 12 34  1  0
 13 35  1  1
 14 36  1  0
 15 37  1  0
 18 38  1  0
 21 39  1  0
 22 40  1  0
 24 41  1  0
 25 42  1  0
 26 43  1  0
M  ISO  8  29  14  32  13  33  13  34  13  35  13  36  14  37  14  38  14
M  ISO  5  39  14  40  14  41  14  42  14  43  11
M  END
>  <minimizedAffinity>  (1) 
-5.52894497

>  <minimizedRMSD>  (1) 
0.801818669

$$$$
