
     RDKit          3D

 35 39  0  0  1  0  0  0  0  0999 V2000
   37.1010   27.7810   34.3010 N   0  0  0  0  0  0  0  0  0  0  0  0
   36.1350   28.6990   34.6080 C   0  0  0  0  0  0  0  0  0  0  0  0
   35.7010   29.2440   33.4690 N   0  0  0  0  0  0  0  0  0  0  0  0
   36.3760   28.6870   32.4490 C   0  0  0  0  0  0  0  0  0  0  0  0
   36.3690   28.8360   31.0980 C   0  0  0  0  0  0  0  0  0  0  0  0
   37.1960   28.1000   30.3680 N   0  0  0  0  0  0  0  0  0  0  0  0
   38.0630   27.1950   30.8860 C   0  0  0  0  0  0  0  0  0  0  0  0
   38.0690   27.0480   32.2280 N   0  0  0  0  0  0  0  0  0  0  0  0
   37.2450   27.7760   32.9930 C   0  0  0  0  0  0  0  0  0  0  0  0
   35.4740   29.7760   30.5240 N   0  0  0  0  0  0  0  0  0  0  0  0
   38.4280   25.8100   35.1660 C   0  0  2  0  0  0  0  0  0  0  0  0
   39.2280   27.1360   35.4360 C   0  0  0  0  0  0  0  0  0  0  0  0
   37.7370   27.0530   35.3450 C   0  0  1  0  0  0  0  0  0  0  0  0
   38.0100   23.9020   38.3890 C   0  0  0  0  0  0  0  0  0  0  0  0
   37.8160   24.8670   37.4090 C   0  0  0  0  0  0  0  0  0  0  0  0
   38.5840   24.8050   36.2310 C   0  0  0  0  0  0  0  0  0  0  0  0
   39.4860   23.8020   36.1000 N   0  0  0  0  0  0  0  0  0  0  0  0
   39.6500   22.8790   37.0730 C   0  0  0  0  0  0  0  0  0  0  0  0
   38.9220   22.9240   38.2070 N   0  0  0  0  0  0  0  0  0  0  0  0
   38.9440   26.4190   30.0190 C   0  0  0  0  0  0  0  0  0  0  0  0
   39.7670   26.9260   29.0840 N   0  0  0  0  0  0  0  0  0  0  0  0
   40.4060   25.9600   28.4960 O   0  0  0  0  0  0  0  0  0  0  0  0
   40.0380   24.8110   29.0100 C   0  0  0  0  0  0  0  0  0  0  0  0
   39.1170   25.0870   29.9700 N   0  0  0  0  0  0  0  0  0  0  0  0
   35.7774   28.9457   35.6186 H   0  0  0  0  0  0  0  0  0  0  0  0
   35.4500   29.9070   29.5026 H   0  0  0  0  0  0  0  0  0  0  0  0
   34.8484   30.3272   31.1288 H   0  0  0  0  0  0  0  0  0  0  0  0
   38.3276   25.0323   34.3946 H   0  0  0  0  0  0  0  0  0  0  0  0
   39.7231   27.3062   36.4034 H   0  0  0  0  0  0  0  0  0  0  0  0
   40.0318   27.7028   34.9434 H   0  0  0  0  0  0  0  0  0  0  0  0
   36.8890   27.2996   36.0008 H   0  0  0  0  0  0  0  0  0  0  0  0
   37.4187   23.9350   39.3160 H   0  0  0  0  0  0  0  0  0  0  0  0
   37.0742   25.6667   37.5512 H   0  0  0  0  0  0  0  0  0  0  0  0
   40.3904   22.0768   36.9376 H   0  0  0  0  0  0  0  0  0  0  0  0
   40.4045   23.8153   28.7197 H   0  0  0  0  0  0  0  0  0  0  0  0
  1  2  1  0
  1 13  1  0
  3  2  2  0
  4  9  2  0
  4  3  1  0
  5  4  1  0
  6  7  1  0
  6  5  2  0
  7  8  2  0
  8  9  1  0
  9  1  1  0
 10  5  1  0
 11 13  1  0
 11 12  1  0
 11 16  1  0
 13 12  1  0
 15 14  2  0
 16 15  1  0
 17 16  2  0
 17 18  1  0
 18 19  2  0
 19 14  1  0
 20  7  1  0
 21 20  2  0
 22 23  1  0
 22 21  1  0
 23 24  2  0
 24 20  1  0
  2 25  1  0
 10 26  1  0
 10 27  1  0
 11 28  1  6
 12 29  1  0
 12 30  1  0
 13 31  1  1
 14 32  1  0
 15 33  1  0
 18 34  1  0
 23 35  1  0
M  ISO  8  25  14  28  13  29  13  30  13  31  13  32  14  33  14  34  14
M  ISO  1  35  14
M  END
>  <minimizedAffinity>  (1) 
-5.49779749

>  <minimizedRMSD>  (1) 
0.181883797

$$$$
