
     RDKit          3D

 39 42  0  0  0  0  0  0  0  0999 V2000
   43.3590   22.6380   33.8820 C   0  0  0  0  0  0  0  0  0  0  0  0
   43.2920   23.9320   34.4170 C   0  0  0  0  0  0  0  0  0  0  0  0
   44.9690   24.6580   33.9640 S   0  0  0  0  0  0  0  0  0  0  0  0
   45.4300   23.0150   33.1210 C   0  0  0  0  0  0  0  0  0  0  0  0
   44.4960   22.4360   33.3030 N   0  0  0  0  0  0  0  0  0  0  0  0
   46.6710   22.6860   32.4530 N   0  0  0  0  0  0  0  0  0  0  0  0
   47.5650   22.0500   33.2040 C   0  0  0  0  0  0  0  0  0  0  0  0
   48.6800   21.8140   32.4200 C   0  0  0  0  0  0  0  0  0  0  0  0
   48.3850   22.3360   31.2050 N   0  0  0  0  0  0  0  0  0  0  0  0
   47.1620   22.8680   31.2250 C   0  0  0  0  0  0  0  0  0  0  0  0
   46.4140   23.5240   30.2180 N   0  0  0  0  0  0  0  0  0  0  0  0
   46.7180   24.3190   29.0840 C   0  0  0  0  0  0  0  0  0  0  0  0
   45.7810   25.5320   29.1430 C   0  0  0  0  0  0  0  0  0  0  0  0
   44.7410   25.0680   30.1660 C   0  0  0  0  0  0  0  0  0  0  0  0
   44.9720   23.5540   30.0740 C   0  0  0  0  0  0  0  0  0  0  0  0
   41.9260   21.5900   34.1020 S   0  0  0  0  0  0  0  0  0  0  0  0
   40.4640   22.3840   37.7140 C   0  0  0  0  0  0  0  0  0  0  0  0
   39.3110   23.1340   37.4540 C   0  0  0  0  0  0  0  0  0  0  0  0
   39.0030   23.3850   36.1150 C   0  0  0  0  0  0  0  0  0  0  0  0
   39.8080   22.9080   35.1190 N   0  0  0  0  0  0  0  0  0  0  0  0
   40.9260   22.1770   35.4480 C   0  0  0  0  0  0  0  0  0  0  0  0
   41.2310   21.9310   36.7260 N   0  0  0  0  0  0  0  0  0  0  0  0
   38.4130   23.6690   38.5100 C   0  0  0  0  0  0  0  0  0  0  0  0
   39.2080   23.8640   39.6340 F   0  0  0  0  0  0  0  0  0  0  0  0
   37.3920   22.8220   38.8230 F   0  0  0  0  0  0  0  0  0  0  0  0
   37.9790   24.9690   38.1790 F   0  0  0  0  0  0  0  0  0  0  0  0
   42.4646   24.4058   34.9656 H   0  0  0  0  0  0  0  0  0  0  0  0
   47.4405   21.7632   34.2586 H   0  0  0  0  0  0  0  0  0  0  0  0
   49.6101   21.3090   32.7198 H   0  0  0  0  0  0  0  0  0  0  0  0
   46.5431   23.7475   28.1605 H   0  0  0  0  0  0  0  0  0  0  0  0
   47.7733   24.6293   29.0853 H   0  0  0  0  0  0  0  0  0  0  0  0
   46.3106   26.4319   29.4889 H   0  0  0  0  0  0  0  0  0  0  0  0
   45.3552   25.8164   28.1694 H   0  0  0  0  0  0  0  0  0  0  0  0
   44.9513   25.4568   31.1733 H   0  0  0  0  0  0  0  0  0  0  0  0
   43.7100   25.4014   29.9767 H   0  0  0  0  0  0  0  0  0  0  0  0
   44.4669   23.0115   30.8867 H   0  0  0  0  0  0  0  0  0  0  0  0
   44.5818   23.0748   29.1640 H   0  0  0  0  0  0  0  0  0  0  0  0
   40.7412   22.1649   38.7557 H   0  0  0  0  0  0  0  0  0  0  0  0
   38.1070   23.9702   35.8606 H   0  0  0  0  0  0  0  0  0  0  0  0
  1 16  1  0
  1  2  2  0
  3  2  1  0
  4  5  2  0
  4  3  1  0
  5  1  1  0
  6  4  1  0
  6  7  1  0
  8  7  2  0
  9 10  2  0
  9  8  1  0
 10  6  1  0
 11 10  1  0
 12 13  1  0
 12 11  1  0
 13 14  1  0
 15 14  1  0
 15 11  1  0
 16 21  1  0
 18 17  2  0
 18 23  1  0
 19 18  1  0
 20 21  1  0
 20 19  2  0
 21 22  2  0
 22 17  1  0
 23 25  1  0
 23 24  1  0
 26 23  1  0
  2 27  1  0
  7 28  1  0
  8 29  1  0
 12 30  1  0
 12 31  1  0
 13 32  1  0
 13 33  1  0
 14 34  1  0
 14 35  1  0
 15 36  1  0
 15 37  1  0
 17 38  1  0
 19 39  1  0
M  ISO  8  27  14  28  14  29  14  30  13  31  13  32  13  33  13  34  13
M  ISO  5  35  13  36  13  37  13  38  14  39  14
M  END
>  <minimizedAffinity>  (1) 
-3.81981373

>  <minimizedRMSD>  (1) 
0.0262346622

$$$$
