
     RDKit          3D

 31 34  0  0  1  0  0  0  0  0999 V2000
   38.4770   25.7320   35.1680 C   0  0  2  0  0  0  0  0  0  0  0  0
   39.3280   27.0350   35.3870 C   0  0  0  0  0  0  0  0  0  0  0  0
   37.8370   27.0070   35.3190 C   0  0  1  0  0  0  0  0  0  0  0  0
   37.2010   27.7230   34.2590 N   0  0  0  0  0  0  0  0  0  0  0  0
   36.2000   28.6090   34.5290 C   0  0  0  0  0  0  0  0  0  0  0  0
   35.7840   29.1360   33.3790 N   0  0  0  0  0  0  0  0  0  0  0  0
   36.5050   28.5990   32.3770 C   0  0  0  0  0  0  0  0  0  0  0  0
   36.5290   28.7450   31.0280 C   0  0  0  0  0  0  0  0  0  0  0  0
   37.4040   28.0260   30.3220 N   0  0  0  0  0  0  0  0  0  0  0  0
   38.2660   27.1650   30.8670 C   0  0  0  0  0  0  0  0  0  0  0  0
   38.2520   27.0110   32.2130 N   0  0  0  0  0  0  0  0  0  0  0  0
   37.3880   27.7130   32.9570 C   0  0  0  0  0  0  0  0  0  0  0  0
   35.6070   29.6690   30.4520 N   0  0  0  0  0  0  0  0  0  0  0  0
   39.3980   26.2500   29.8310 S   0  0  0  0  0  0  0  0  0  0  0  0
   37.9920   23.9150   38.4360 C   0  0  0  0  0  0  0  0  0  0  0  0
   37.8150   24.8520   37.4260 C   0  0  0  0  0  0  0  0  0  0  0  0
   38.6090   24.7620   36.2700 C   0  0  0  0  0  0  0  0  0  0  0  0
   39.5180   23.7590   36.1920 N   0  0  0  0  0  0  0  0  0  0  0  0
   39.6740   22.8600   37.1810 C   0  0  0  0  0  0  0  0  0  0  0  0
   38.9190   22.9340   38.2950 N   0  0  0  0  0  0  0  0  0  0  0  0
   38.3380   24.9354   34.4222 H   0  0  0  0  0  0  0  0  0  0  0  0
   39.8431   27.2152   36.3421 H   0  0  0  0  0  0  0  0  0  0  0  0
   40.1448   27.5562   34.8663 H   0  0  0  0  0  0  0  0  0  0  0  0
   37.0123   27.3112   35.9803 H   0  0  0  0  0  0  0  0  0  0  0  0
   35.8037   28.8477   35.5270 H   0  0  0  0  0  0  0  0  0  0  0  0
   35.5902   29.8117   29.4321 H   0  0  0  0  0  0  0  0  0  0  0  0
   34.9582   30.1934   31.0561 H   0  0  0  0  0  0  0  0  0  0  0  0
   40.2698   25.5453   30.6185 H   0  0  0  0  0  0  0  0  0  0  0  0
   37.3813   23.9681   39.3493 H   0  0  0  0  0  0  0  0  0  0  0  0
   37.0660   25.6510   37.5293 H   0  0  0  0  0  0  0  0  0  0  0  0
   40.4221   22.0600   37.0797 H   0  0  0  0  0  0  0  0  0  0  0  0
  1  3  1  0
  1  2  1  0
  1 17  1  0
  3  2  1  0
  4  5  1  0
  4  3  1  0
  6  5  2  0
  7 12  2  0
  7  6  1  0
  8  7  1  0
  9 10  1  0
  9  8  2  0
 10 11  2  0
 11 12  1  0
 12  4  1  0
 13  8  1  0
 14 10  1  0
 16 15  2  0
 17 16  1  0
 18 17  2  0
 18 19  1  0
 19 20  2  0
 20 15  1  0
  1 21  1  6
  2 22  1  0
  2 23  1  0
  3 24  1  1
  5 25  1  0
 13 26  1  0
 13 27  1  0
 14 28  1  0
 15 29  1  0
 16 30  1  0
 19 31  1  0
M  ISO  8  21  13  22  13  23  13  24  13  25  14  28  11  29  14  30  14
M  ISO  1  31  14
M  END
>  <minimizedAffinity>  (1) 
-5.32603121

>  <minimizedRMSD>  (1) 
0.027694229

$$$$
