
     RDKit          3D

 36 39  0  0  1  0  0  0  0  0999 V2000
   38.4710   25.7680   35.2020 C   0  0  2  0  0  0  0  0  0  0  0  0
   39.2550   27.0960   35.4810 C   0  0  0  0  0  0  0  0  0  0  0  0
   37.7700   27.0090   35.3490 C   0  0  1  0  0  0  0  0  0  0  0  0
   37.1520   27.7230   34.2760 N   0  0  0  0  0  0  0  0  0  0  0  0
   36.2290   28.6820   34.5310 C   0  0  0  0  0  0  0  0  0  0  0  0
   35.8200   29.2020   33.3680 N   0  0  0  0  0  0  0  0  0  0  0  0
   36.4820   28.5730   32.3820 C   0  0  0  0  0  0  0  0  0  0  0  0
   36.4900   28.6700   31.0240 C   0  0  0  0  0  0  0  0  0  0  0  0
   37.2960   27.8690   30.3250 N   0  0  0  0  0  0  0  0  0  0  0  0
   38.1200   26.9520   30.8880 C   0  0  0  0  0  0  0  0  0  0  0  0
   38.1160   26.8530   32.2340 N   0  0  0  0  0  0  0  0  0  0  0  0
   37.3160   27.6460   32.9650 C   0  0  0  0  0  0  0  0  0  0  0  0
   35.6470   29.6340   30.4220 N   0  0  0  0  0  0  0  0  0  0  0  0
   39.0180   26.0560   30.1210 C   0  0  0  0  0  0  0  0  0  0  0  0
   38.6120   24.6110   30.3150 C   0  0  0  0  0  0  0  0  0  0  0  0
   37.9800   23.8920   38.4380 C   0  0  0  0  0  0  0  0  0  0  0  0
   37.7910   24.8550   37.4480 C   0  0  0  0  0  0  0  0  0  0  0  0
   38.6030   24.7740   36.2840 C   0  0  0  0  0  0  0  0  0  0  0  0
   39.5190   23.7710   36.1880 N   0  0  0  0  0  0  0  0  0  0  0  0
   39.6630   22.8610   37.1800 C   0  0  0  0  0  0  0  0  0  0  0  0
   38.8940   22.9210   38.3030 N   0  0  0  0  0  0  0  0  0  0  0  0
   38.3951   24.9824   34.4358 H   0  0  0  0  0  0  0  0  0  0  0  0
   39.7219   27.2771   36.4604 H   0  0  0  0  0  0  0  0  0  0  0  0
   40.0705   27.6607   35.0055 H   0  0  0  0  0  0  0  0  0  0  0  0
   36.9045   27.2628   35.9787 H   0  0  0  0  0  0  0  0  0  0  0  0
   35.8750   28.9828   35.5281 H   0  0  0  0  0  0  0  0  0  0  0  0
   35.6286   29.7338   29.3970 H   0  0  0  0  0  0  0  0  0  0  0  0
   35.0518   30.2359   31.0088 H   0  0  0  0  0  0  0  0  0  0  0  0
   40.0518   26.1923   30.4714 H   0  0  0  0  0  0  0  0  0  0  0  0
   38.9451   26.3070   29.0525 H   0  0  0  0  0  0  0  0  0  0  0  0
   38.5496   24.3889   31.3905 H   0  0  0  0  0  0  0  0  0  0  0  0
   37.6310   24.4399   29.8477 H   0  0  0  0  0  0  0  0  0  0  0  0
   39.3603   23.9540   29.8477 H   0  0  0  0  0  0  0  0  0  0  0  0
   37.3657   23.9298   39.3497 H   0  0  0  0  0  0  0  0  0  0  0  0
   37.0396   25.6500   37.5635 H   0  0  0  0  0  0  0  0  0  0  0  0
   40.4117   22.0616   37.0778 H   0  0  0  0  0  0  0  0  0  0  0  0
  1  3  1  0
  1  2  1  0
  1 18  1  0
  3  2  1  0
  4  5  1  0
  4  3  1  0
  6  5  2  0
  7 12  2  0
  7  6  1  0
  8  7  1  0
  9 10  1  0
  9  8  2  0
 10 11  2  0
 11 12  1  0
 12  4  1  0
 13  8  1  0
 14 15  1  0
 14 10  1  0
 17 16  2  0
 18 17  1  0
 19 18  2  0
 19 20  1  0
 20 21  2  0
 21 16  1  0
  1 22  1  6
  2 23  1  0
  2 24  1  0
  3 25  1  1
  5 26  1  0
 13 27  1  0
 13 28  1  0
 14 29  1  0
 14 30  1  0
 15 31  1  0
 15 32  1  0
 15 33  1  0
 16 34  1  0
 17 35  1  0
 20 36  1  0
M  ISO  8  22  13  23  13  24  13  25  13  26  14  29   8  30   8  31   8
M  ISO  5  32   8  33   8  34  14  35  14  36  14
M  END
>  <minimizedAffinity>  (1) 
-5.24554443

>  <minimizedRMSD>  (1) 
0.25957492

$$$$
