
     RDKit          3D

 32 35  0  0  1  0  0  0  0  0999 V2000
   38.4640   25.7720   35.1810 C   0  0  2  0  0  0  0  0  0  0  0  0
   39.2680   27.0940   35.4450 C   0  0  0  0  0  0  0  0  0  0  0  0
   37.7840   27.0250   35.3370 C   0  0  1  0  0  0  0  0  0  0  0  0
   37.1550   27.7430   34.2750 N   0  0  0  0  0  0  0  0  0  0  0  0
   36.1840   28.6570   34.5380 C   0  0  0  0  0  0  0  0  0  0  0  0
   35.7670   29.1820   33.3900 N   0  0  0  0  0  0  0  0  0  0  0  0
   36.4640   28.6110   32.3870 C   0  0  0  0  0  0  0  0  0  0  0  0
   36.4860   28.7290   31.0350 C   0  0  0  0  0  0  0  0  0  0  0  0
   37.3340   27.9760   30.3310 N   0  0  0  0  0  0  0  0  0  0  0  0
   38.1770   27.1010   30.8800 C   0  0  0  0  0  0  0  0  0  0  0  0
   38.1700   26.9690   32.2280 N   0  0  0  0  0  0  0  0  0  0  0  0
   37.3320   27.7090   32.9680 C   0  0  0  0  0  0  0  0  0  0  0  0
   35.5930   29.6770   30.4500 N   0  0  0  0  0  0  0  0  0  0  0  0
   39.0870   26.2990   30.0710 C   0  0  0  0  0  0  0  0  0  0  0  0
   38.8800   25.0410   30.0730 O   0  0  0  0  0  0  0  0  0  0  0  0
   37.9780   23.9100   38.4250 C   0  0  0  0  0  0  0  0  0  0  0  0
   37.8060   24.8580   37.4300 C   0  0  0  0  0  0  0  0  0  0  0  0
   38.5990   24.7830   36.2700 C   0  0  0  0  0  0  0  0  0  0  0  0
   39.5060   23.7800   36.1730 N   0  0  0  0  0  0  0  0  0  0  0  0
   39.6560   22.8680   37.1550 C   0  0  0  0  0  0  0  0  0  0  0  0
   38.9020   22.9300   38.2710 N   0  0  0  0  0  0  0  0  0  0  0  0
   38.3667   24.9852   34.4185 H   0  0  0  0  0  0  0  0  0  0  0  0
   39.7523   27.2717   36.4165 H   0  0  0  0  0  0  0  0  0  0  0  0
   40.0823   27.6481   34.9552 H   0  0  0  0  0  0  0  0  0  0  0  0
   36.9335   27.2930   35.9811 H   0  0  0  0  0  0  0  0  0  0  0  0
   35.8053   28.9193   35.5369 H   0  0  0  0  0  0  0  0  0  0  0  0
   35.5728   29.8028   29.4279 H   0  0  0  0  0  0  0  0  0  0  0  0
   34.9690   30.2351   31.0500 H   0  0  0  0  0  0  0  0  0  0  0  0
   39.9049   26.7531   29.4924 H   0  0  0  0  0  0  0  0  0  0  0  0
   37.3662   23.9522   39.3382 H   0  0  0  0  0  0  0  0  0  0  0  0
   37.0600   25.6582   37.5449 H   0  0  0  0  0  0  0  0  0  0  0  0
   40.4006   22.0659   37.0445 H   0  0  0  0  0  0  0  0  0  0  0  0
  1  3  1  0
  1  2  1  0
  1 18  1  0
  3  2  1  0
  4  5  1  0
  4  3  1  0
  6  5  2  0
  7 12  2  0
  7  6  1  0
  8  7  1  0
  9 10  1  0
  9  8  2  0
 10 11  2  0
 11 12  1  0
 12  4  1  0
 13  8  1  0
 14 15  2  0
 14 10  1  0
 17 16  2  0
 18 17  1  0
 19 18  2  0
 19 20  1  0
 20 21  2  0
 21 16  1  0
  1 22  1  6
  2 23  1  0
  2 24  1  0
  3 25  1  1
  5 26  1  0
 13 27  1  0
 13 28  1  0
 14 29  1  0
 16 30  1  0
 17 31  1  0
 20 32  1  0
M  ISO  8  22  13  23  13  24  13  25  13  26  14  29   6  30  14  31  14
M  ISO  1  32  14
M  END
>  <minimizedAffinity>  (1) 
-5.20950651

>  <minimizedRMSD>  (1) 
0.0639283583

$$$$
