
     RDKit          3D

 49 54  0  0  1  0  0  0  0  0999 V2000
   37.0440   27.8310   34.3290 N   0  0  0  0  0  0  0  0  0  0  0  0
   36.0290   28.6690   34.6430 C   0  0  0  0  0  0  0  0  0  0  0  0
   35.5710   29.2400   33.5430 N   0  0  0  0  0  0  0  0  0  0  0  0
   36.3010   28.7630   32.4950 C   0  0  0  0  0  0  0  0  0  0  0  0
   36.2870   28.9810   31.1620 C   0  0  0  0  0  0  0  0  0  0  0  0
   37.1760   28.3200   30.4050 N   0  0  0  0  0  0  0  0  0  0  0  0
   38.0790   27.4550   30.8980 C   0  0  0  0  0  0  0  0  0  0  0  0
   38.0810   27.2480   32.2330 N   0  0  0  0  0  0  0  0  0  0  0  0
   37.2050   27.8910   33.0270 C   0  0  0  0  0  0  0  0  0  0  0  0
   35.3230   29.9020   30.6430 N   0  0  0  0  0  0  0  0  0  0  0  0
   39.0250   26.7570   30.0370 C   0  0  0  0  0  0  0  0  0  0  0  0
   39.6670   25.6460   30.5170 C   0  0  0  0  0  0  0  0  0  0  0  0
   40.5860   24.9480   29.7180 C   0  0  0  0  0  0  0  0  0  0  0  0
   40.7720   25.4630   28.4620 C   0  0  0  0  0  0  0  0  0  0  0  0
   40.1280   26.5730   27.9890 C   0  0  0  0  0  0  0  0  0  0  0  0
   39.2610   27.1920   28.8100 N   0  0  0  0  0  0  0  0  0  0  0  0
   40.3370   27.1100   26.6490 C   0  0  0  0  0  0  0  0  0  0  0  0
   40.5100   26.3350   25.5220 C   0  0  0  0  0  0  0  0  0  0  0  0
   40.7060   26.8680   24.2610 C   0  0  0  0  0  0  0  0  0  0  0  0
   40.7300   28.2230   24.1260 C   0  0  0  0  0  0  0  0  0  0  0  0
   40.5610   29.0760   25.2160 C   0  0  0  0  0  0  0  0  0  0  0  0
   40.3720   28.4720   26.4350 C   0  0  0  0  0  0  0  0  0  0  0  0
   38.3690   25.8370   35.1310 C   0  0  2  0  0  0  0  0  0  0  0  0
   39.2220   27.1500   35.3550 C   0  0  0  0  0  0  0  0  0  0  0  0
   37.7180   27.0860   35.3410 C   0  0  1  0  0  0  0  0  0  0  0  0
   38.0560   23.9130   38.3470 C   0  0  0  0  0  0  0  0  0  0  0  0
   37.8390   24.8590   37.3650 C   0  0  0  0  0  0  0  0  0  0  0  0
   38.5850   24.8240   36.1780 C   0  0  0  0  0  0  0  0  0  0  0  0
   39.5000   23.8490   36.0420 N   0  0  0  0  0  0  0  0  0  0  0  0
   39.6940   22.9350   37.0170 C   0  0  0  0  0  0  0  0  0  0  0  0
   38.9880   22.9590   38.1550 N   0  0  0  0  0  0  0  0  0  0  0  0
   35.6443   28.8474   35.6580 H   0  0  0  0  0  0  0  0  0  0  0  0
   35.2846   30.0917   29.6313 H   0  0  0  0  0  0  0  0  0  0  0  0
   34.6674   30.3754   31.2810 H   0  0  0  0  0  0  0  0  0  0  0  0
   39.4601   25.2972   31.5395 H   0  0  0  0  0  0  0  0  0  0  0  0
   41.1178   24.0533   30.0740 H   0  0  0  0  0  0  0  0  0  0  0  0
   41.4818   24.9531   27.7940 H   0  0  0  0  0  0  0  0  0  0  0  0
   40.4912   25.2406   25.6310 H   0  0  0  0  0  0  0  0  0  0  0  0
   40.8394   26.2129   23.3875 H   0  0  0  0  0  0  0  0  0  0  0  0
   40.8873   28.6573   23.1277 H   0  0  0  0  0  0  0  0  0  0  0  0
   40.5781   30.1703   25.1059 H   0  0  0  0  0  0  0  0  0  0  0  0
   40.2380   29.1260   27.3093 H   0  0  0  0  0  0  0  0  0  0  0  0
   38.1950   25.0616   34.3704 H   0  0  0  0  0  0  0  0  0  0  0  0
   39.7705   27.3124   36.2945 H   0  0  0  0  0  0  0  0  0  0  0  0
   40.0110   27.7002   34.8214 H   0  0  0  0  0  0  0  0  0  0  0  0
   36.9079   27.3431   36.0393 H   0  0  0  0  0  0  0  0  0  0  0  0
   37.4724   23.9379   39.2791 H   0  0  0  0  0  0  0  0  0  0  0  0
   37.0800   25.6411   37.5139 H   0  0  0  0  0  0  0  0  0  0  0  0
   40.4514   22.1505   36.8729 H   0  0  0  0  0  0  0  0  0  0  0  0
  1  2  1  0
  1 25  1  0
  3  2  2  0
  4  9  2  0
  4  3  1  0
  5  4  1  0
  6  7  1  0
  6  5  2  0
  7  8  2  0
  8  9  1  0
  9  1  1  0
 10  5  1  0
 11 12  2  0
 11  7  1  0
 13 12  1  0
 14 13  2  0
 15 14  1  0
 15 16  2  0
 16 11  1  0
 17 15  1  0
 18 17  2  0
 19 18  1  0
 20 19  2  0
 20 21  1  0
 21 22  2  0
 22 17  1  0
 23 25  1  0
 23 24  1  0
 23 28  1  0
 25 24  1  0
 27 26  2  0
 28 27  1  0
 29 28  2  0
 29 30  1  0
 30 31  2  0
 31 26  1  0
  2 32  1  0
 10 33  1  0
 10 34  1  0
 12 35  1  0
 13 36  1  0
 14 37  1  0
 18 38  1  0
 19 39  1  0
 20 40  1  0
 21 41  1  0
 22 42  1  0
 23 43  1  6
 24 44  1  0
 24 45  1  0
 25 46  1  1
 26 47  1  0
 27 48  1  0
 30 49  1  0
M  ISO  8  32  14  35  14  36  14  37  14  38  14  39  14  40  14  41  14
M  ISO  8  42  14  43  13  44  13  45  13  46  13  47  14  48  14  49  14
M  END
>  <minimizedAffinity>  (1) 
-6.10849857

>  <minimizedRMSD>  (1) 
1.27471852

$$$$
