
     RDKit          3D

 47 52  0  0  1  0  0  0  0  0999 V2000
   37.0660   27.8020   34.3870 N   0  0  0  0  0  0  0  0  0  0  0  0
   36.1780   28.7750   34.6820 C   0  0  0  0  0  0  0  0  0  0  0  0
   35.7230   29.3100   33.5620 N   0  0  0  0  0  0  0  0  0  0  0  0
   36.3290   28.6720   32.5230 C   0  0  0  0  0  0  0  0  0  0  0  0
   36.2650   28.7820   31.1780 C   0  0  0  0  0  0  0  0  0  0  0  0
   37.0180   27.9710   30.4350 N   0  0  0  0  0  0  0  0  0  0  0  0
   37.8420   27.0470   30.9480 C   0  0  0  0  0  0  0  0  0  0  0  0
   37.9030   26.9400   32.2920 N   0  0  0  0  0  0  0  0  0  0  0  0
   37.1590   27.7390   33.0780 C   0  0  0  0  0  0  0  0  0  0  0  0
   35.3850   29.7720   30.6330 N   0  0  0  0  0  0  0  0  0  0  0  0
   38.6530   26.1740   30.1050 C   0  0  0  0  0  0  0  0  0  0  0  0
   38.6990   24.8310   30.3680 C   0  0  0  0  0  0  0  0  0  0  0  0
   39.4670   23.9800   29.5760 C   0  0  0  0  0  0  0  0  0  0  0  0
   40.1540   24.5810   28.5450 C   0  0  0  0  0  0  0  0  0  0  0  0
   40.1040   25.9240   28.2880 C   0  0  0  0  0  0  0  0  0  0  0  0
   39.3420   26.6790   29.0930 N   0  0  0  0  0  0  0  0  0  0  0  0
   40.8120   26.6060   27.2070 C   0  0  0  0  0  0  0  0  0  0  0  0
   40.2210   27.5550   26.3990 C   0  0  0  0  0  0  0  0  0  0  0  0
   40.8350   28.2250   25.3720 C   0  0  0  0  0  0  0  0  0  0  0  0
   42.1360   27.9320   25.1310 N   0  0  0  0  0  0  0  0  0  0  0  0
   42.7430   26.9970   25.9190 C   0  0  0  0  0  0  0  0  0  0  0  0
   42.1090   26.3570   26.9180 N   0  0  0  0  0  0  0  0  0  0  0  0
   38.3760   25.8130   35.2330 C   0  0  2  0  0  0  0  0  0  0  0  0
   39.2100   27.1330   35.4820 C   0  0  0  0  0  0  0  0  0  0  0  0
   37.7150   27.0600   35.4200 C   0  0  1  0  0  0  0  0  0  0  0  0
   38.0040   23.8950   38.4480 C   0  0  0  0  0  0  0  0  0  0  0  0
   37.8030   24.8520   37.4610 C   0  0  0  0  0  0  0  0  0  0  0  0
   38.5640   24.8000   36.2870 C   0  0  0  0  0  0  0  0  0  0  0  0
   39.4670   23.8110   36.1680 N   0  0  0  0  0  0  0  0  0  0  0  0
   39.6460   22.8920   37.1400 C   0  0  0  0  0  0  0  0  0  0  0  0
   38.9240   22.9280   38.2720 N   0  0  0  0  0  0  0  0  0  0  0  0
   35.8793   29.0760   35.6970 H   0  0  0  0  0  0  0  0  0  0  0  0
   35.3081   29.8868   29.6123 H   0  0  0  0  0  0  0  0  0  0  0  0
   34.8291   30.3691   31.2618 H   0  0  0  0  0  0  0  0  0  0  0  0
   38.1248   24.4205   31.2117 H   0  0  0  0  0  0  0  0  0  0  0  0
   39.5211   22.8973   29.7624 H   0  0  0  0  0  0  0  0  0  0  0  0
   40.7754   23.9484   27.8941 H   0  0  0  0  0  0  0  0  0  0  0  0
   39.1657   27.7952   26.5955 H   0  0  0  0  0  0  0  0  0  0  0  0
   40.2941   28.9692   24.7690 H   0  0  0  0  0  0  0  0  0  0  0  0
   43.7992   26.7558   25.7283 H   0  0  0  0  0  0  0  0  0  0  0  0
   38.2309   25.0346   34.4694 H   0  0  0  0  0  0  0  0  0  0  0  0
   39.7266   27.3009   36.4385 H   0  0  0  0  0  0  0  0  0  0  0  0
   40.0117   27.6880   34.9727 H   0  0  0  0  0  0  0  0  0  0  0  0
   36.8822   27.3141   36.0922 H   0  0  0  0  0  0  0  0  0  0  0  0
   37.4110   23.9275   39.3739 H   0  0  0  0  0  0  0  0  0  0  0  0
   37.0523   25.6438   37.6008 H   0  0  0  0  0  0  0  0  0  0  0  0
   40.3964   22.0995   37.0027 H   0  0  0  0  0  0  0  0  0  0  0  0
  1  2  1  0
  1 25  1  0
  3  2  2  0
  4  9  2  0
  4  3  1  0
  5  4  1  0
  6  7  1  0
  6  5  2  0
  7  8  2  0
  8  9  1  0
  9  1  1  0
 10  5  1  0
 11 12  2  0
 11  7  1  0
 13 12  1  0
 14 13  2  0
 15 14  1  0
 15 16  2  0
 16 11  1  0
 17 15  1  0
 18 17  2  0
 19 18  1  0
 20 19  2  0
 20 21  1  0
 21 22  2  0
 22 17  1  0
 23 25  1  0
 23 24  1  0
 23 28  1  0
 25 24  1  0
 27 26  2  0
 28 27  1  0
 29 28  2  0
 29 30  1  0
 30 31  2  0
 31 26  1  0
  2 32  1  0
 10 33  1  0
 10 34  1  0
 12 35  1  0
 13 36  1  0
 14 37  1  0
 18 38  1  0
 19 39  1  0
 21 40  1  0
 23 41  1  6
 24 42  1  0
 24 43  1  0
 25 44  1  1
 26 45  1  0
 27 46  1  0
 30 47  1  0
M  ISO  8  32  14  35  14  36  14  37  14  38  14  39  14  40  14  41  13
M  ISO  6  42  13  43  13  44  13  45  14  46  14  47  14
M  END
>  <minimizedAffinity>  (1) 
-5.89424849

>  <minimizedRMSD>  (1) 
0.504274845

$$$$
