
     RDKit          3D

 42 46  0  0  1  0  0  0  0  0999 V2000
   37.0380   27.8320   34.3900 N   0  0  0  0  0  0  0  0  0  0  0  0
   36.1070   28.7730   34.7000 C   0  0  0  0  0  0  0  0  0  0  0  0
   35.6410   29.3180   33.5910 N   0  0  0  0  0  0  0  0  0  0  0  0
   36.2710   28.7310   32.5430 C   0  0  0  0  0  0  0  0  0  0  0  0
   36.2030   28.8800   31.2000 C   0  0  0  0  0  0  0  0  0  0  0  0
   36.9910   28.1140   30.4400 N   0  0  0  0  0  0  0  0  0  0  0  0
   37.8440   27.2060   30.9300 C   0  0  0  0  0  0  0  0  0  0  0  0
   37.9060   27.0630   32.2680 N   0  0  0  0  0  0  0  0  0  0  0  0
   37.1310   27.8140   33.0730 C   0  0  0  0  0  0  0  0  0  0  0  0
   35.2890   29.8520   30.6800 N   0  0  0  0  0  0  0  0  0  0  0  0
   38.6850   26.3930   30.0580 C   0  0  0  0  0  0  0  0  0  0  0  0
   38.7570   25.0240   30.2830 C   0  0  0  0  0  0  0  0  0  0  0  0
   39.5500   24.2180   29.4660 C   0  0  0  0  0  0  0  0  0  0  0  0
   40.2300   24.8730   28.4560 C   0  0  0  0  0  0  0  0  0  0  0  0
   40.1440   26.2350   28.2500 C   0  0  0  0  0  0  0  0  0  0  0  0
   39.3640   26.9700   29.0650 N   0  0  0  0  0  0  0  0  0  0  0  0
   40.8570   26.9570   27.1830 C   0  0  0  0  0  0  0  0  0  0  0  0
   41.2990   28.1820   27.6560 F   0  0  0  0  0  0  0  0  0  0  0  0
   40.0160   27.1560   26.0820 F   0  0  0  0  0  0  0  0  0  0  0  0
   41.9250   26.1800   26.7340 F   0  0  0  0  0  0  0  0  0  0  0  0
   38.3460   25.8280   35.1840 C   0  0  2  0  0  0  0  0  0  0  0  0
   39.2100   27.1410   35.4080 C   0  0  0  0  0  0  0  0  0  0  0  0
   37.7120   27.0810   35.3980 C   0  0  1  0  0  0  0  0  0  0  0  0
   38.0530   23.9100   38.4060 C   0  0  0  0  0  0  0  0  0  0  0  0
   37.8320   24.8610   37.4210 C   0  0  0  0  0  0  0  0  0  0  0  0
   38.5630   24.8160   36.2240 C   0  0  0  0  0  0  0  0  0  0  0  0
   39.4720   23.8290   36.0730 N   0  0  0  0  0  0  0  0  0  0  0  0
   39.6640   22.9130   37.0550 C   0  0  0  0  0  0  0  0  0  0  0  0
   38.9720   22.9430   38.2070 N   0  0  0  0  0  0  0  0  0  0  0  0
   35.7902   29.0397   35.7191 H   0  0  0  0  0  0  0  0  0  0  0  0
   35.2105   29.9927   29.6627 H   0  0  0  0  0  0  0  0  0  0  0  0
   34.7101   30.4105   31.3233 H   0  0  0  0  0  0  0  0  0  0  0  0
   38.1864   24.5738   31.1087 H   0  0  0  0  0  0  0  0  0  0  0  0
   39.6292   23.1311   29.6157 H   0  0  0  0  0  0  0  0  0  0  0  0
   40.8696   24.2808   27.7851 H   0  0  0  0  0  0  0  0  0  0  0  0
   38.1595   25.0543   34.4246 H   0  0  0  0  0  0  0  0  0  0  0  0
   39.7619   27.2998   36.3462 H   0  0  0  0  0  0  0  0  0  0  0  0
   39.9998   27.6890   34.8733 H   0  0  0  0  0  0  0  0  0  0  0  0
   36.9075   27.3419   36.1014 H   0  0  0  0  0  0  0  0  0  0  0  0
   37.4814   23.9442   39.3452 H   0  0  0  0  0  0  0  0  0  0  0  0
   37.0831   25.6512   37.5782 H   0  0  0  0  0  0  0  0  0  0  0  0
   40.4106   22.1195   36.9036 H   0  0  0  0  0  0  0  0  0  0  0  0
  1  2  1  0
  1 23  1  0
  3  2  2  0
  4  9  2  0
  4  3  1  0
  5  4  1  0
  6  7  1  0
  6  5  2  0
  7  8  2  0
  8  9  1  0
  9  1  1  0
 10  5  1  0
 11 12  2  0
 11  7  1  0
 13 12  1  0
 14 13  2  0
 15 14  1  0
 15 16  2  0
 16 11  1  0
 17 18  1  0
 17 15  1  0
 19 17  1  0
 20 17  1  0
 21 23  1  0
 21 22  1  0
 21 26  1  0
 23 22  1  0
 25 24  2  0
 26 25  1  0
 27 26  2  0
 27 28  1  0
 28 29  2  0
 29 24  1  0
  2 30  1  0
 10 31  1  0
 10 32  1  0
 12 33  1  0
 13 34  1  0
 14 35  1  0
 21 36  1  6
 22 37  1  0
 22 38  1  0
 23 39  1  1
 24 40  1  0
 25 41  1  0
 28 42  1  0
M  ISO  8  30  14  33  14  34  14  35  14  36  13  37  13  38  13  39  13
M  ISO  3  40  14  41  14  42  14
M  END
>  <minimizedAffinity>  (1) 
-5.78168201

>  <minimizedRMSD>  (1) 
0.54556036

$$$$
