
     RDKit          3D

 17 18  0  0  0  0  0  0  0  0999 V2000
   42.8270   20.6580   36.9220 C   0  0  0  0  0  0  0  0  0  0  0  0
   41.6430   21.2700   37.3340 C   0  0  0  0  0  0  0  0  0  0  0  0
   40.8300   21.8480   36.3450 C   0  0  0  0  0  0  0  0  0  0  0  0
   41.2590   21.7710   35.0310 N   0  0  0  0  0  0  0  0  0  0  0  0
   42.4090   21.1690   34.6910 C   0  0  0  0  0  0  0  0  0  0  0  0
   43.1910   20.6130   35.6370 N   0  0  0  0  0  0  0  0  0  0  0  0
   39.5810   22.5080   36.6750 C   0  0  0  0  0  0  0  0  0  0  0  0
   38.3420   22.5530   36.1450 N   0  0  0  0  0  0  0  0  0  0  0  0
   37.5740   23.3230   36.8600 O   0  0  0  0  0  0  0  0  0  0  0  0
   38.2580   23.8070   37.8690 C   0  0  0  0  0  0  0  0  0  0  0  0
   39.4870   23.3080   37.7560 N   0  0  0  0  0  0  0  0  0  0  0  0
   37.8000   24.7000   38.9050 N   0  0  0  0  0  0  0  0  0  0  0  0
   43.4808   20.1985   37.6779 H   0  0  0  0  0  0  0  0  0  0  0  0
   41.3563   21.2989   38.3956 H   0  0  0  0  0  0  0  0  0  0  0  0
   42.7148   21.1292   33.6351 H   0  0  0  0  0  0  0  0  0  0  0  0
   38.4478   25.0053   39.6453 H   0  0  0  0  0  0  0  0  0  0  0  0
   36.8251   25.0324   38.9045 H   0  0  0  0  0  0  0  0  0  0  0  0
  1  2  2  0
  3  7  1  0
  3  2  1  0
  4  3  2  0
  5  4  1  0
  5  6  2  0
  6  1  1  0
  7 11  1  0
  8  7  2  0
  8  9  1  0
  9 10  1  0
 10 12  1  0
 11 10  2  0
  1 13  1  0
  2 14  1  0
  5 15  1  0
 12 16  1  0
 12 17  1  0
M  ISO  3  13  14  14  14  15  14
M  END
>  <minimizedAffinity>  (1) 
-3.25357556

>  <minimizedRMSD>  (1) 
0.770125628

$$$$
