
     RDKit          3D

 28 30  0  0  0  0  0  0  0  0999 V2000
   43.3460   22.6370   33.8700 C   0  0  0  0  0  0  0  0  0  0  0  0
   43.2910   23.9390   34.4140 C   0  0  0  0  0  0  0  0  0  0  0  0
   44.9720   24.6450   33.9670 S   0  0  0  0  0  0  0  0  0  0  0  0
   45.4200   22.9990   33.1160 C   0  0  0  0  0  0  0  0  0  0  0  0
   44.4900   22.4530   33.3020 N   0  0  0  0  0  0  0  0  0  0  0  0
   46.6750   22.6750   32.4430 N   0  0  0  0  0  0  0  0  0  0  0  0
   47.5640   22.0380   33.2280 C   0  0  0  0  0  0  0  0  0  0  0  0
   48.6840   21.8080   32.4450 C   0  0  0  0  0  0  0  0  0  0  0  0
   48.4070   22.3180   31.2370 N   0  0  0  0  0  0  0  0  0  0  0  0
   47.1700   22.8590   31.2120 C   0  0  0  0  0  0  0  0  0  0  0  0
   46.3310   23.5030   30.3430 O   0  0  0  0  0  0  0  0  0  0  0  0
   41.9140   21.5940   34.0740 S   0  0  0  0  0  0  0  0  0  0  0  0
   40.4720   22.3810   37.7180 C   0  0  0  0  0  0  0  0  0  0  0  0
   39.3110   23.1370   37.4440 C   0  0  0  0  0  0  0  0  0  0  0  0
   39.0070   23.3830   36.1210 C   0  0  0  0  0  0  0  0  0  0  0  0
   39.8130   22.9030   35.1270 N   0  0  0  0  0  0  0  0  0  0  0  0
   40.9270   22.1750   35.4440 C   0  0  0  0  0  0  0  0  0  0  0  0
   41.2420   21.9260   36.7330 N   0  0  0  0  0  0  0  0  0  0  0  0
   38.4170   23.6710   38.5070 C   0  0  0  0  0  0  0  0  0  0  0  0
   39.2010   23.8560   39.6220 F   0  0  0  0  0  0  0  0  0  0  0  0
   37.3980   22.8240   38.8140 F   0  0  0  0  0  0  0  0  0  0  0  0
   37.9800   24.9640   38.1740 F   0  0  0  0  0  0  0  0  0  0  0  0
   42.4680   24.4198   34.9630 H   0  0  0  0  0  0  0  0  0  0  0  0
   47.4282   21.7559   34.2825 H   0  0  0  0  0  0  0  0  0  0  0  0
   49.6137   21.3073   32.7531 H   0  0  0  0  0  0  0  0  0  0  0  0
   45.4332   23.7918   30.6441 H   0  0  0  0  0  0  0  0  0  0  0  0
   40.7438   22.1650   38.7618 H   0  0  0  0  0  0  0  0  0  0  0  0
   38.1116   23.9683   35.8649 H   0  0  0  0  0  0  0  0  0  0  0  0
  1 12  1  0
  1  2  2  0
  3  2  1  0
  4  5  2  0
  4  3  1  0
  5  1  1  0
  6  4  1  0
  6  7  1  0
  8  7  2  0
  9  8  1  0
 10  9  2  0
 10  6  1  0
 11 10  1  0
 12 17  1  0
 14 13  2  0
 14 19  1  0
 15 14  1  0
 16 17  1  0
 16 15  2  0
 17 18  2  0
 18 13  1  0
 19 21  1  0
 19 20  1  0
 22 19  1  0
  2 23  1  0
  7 24  1  0
  8 25  1  0
 11 26  1  0
 13 27  1  0
 15 28  1  0
M  ISO  6  23  14  24  14  25  14  26   3  27  14  28  14
M  END
>  <minimizedAffinity>  (1) 
-3.80726504

>  <minimizedRMSD>  (1) 
0.010007252

$$$$
