
     RDKit          3D

 21 22  0  0  0  0  0  0  0  0999 V2000
   38.6910   23.4970   38.4760 C   0  0  0  0  0  0  0  0  0  0  0  0
   38.0550   24.3250   37.5510 C   0  0  0  0  0  0  0  0  0  0  0  0
   38.6010   24.3380   36.2490 C   0  0  0  0  0  0  0  0  0  0  0  0
   39.7010   23.5550   35.9730 N   0  0  0  0  0  0  0  0  0  0  0  0
   40.2680   22.7780   36.9110 C   0  0  0  0  0  0  0  0  0  0  0  0
   39.7590   22.7550   38.1570 N   0  0  0  0  0  0  0  0  0  0  0  0
   38.0020   25.1760   35.2070 C   0  0  0  0  0  0  0  0  0  0  0  0
   37.7840   25.0270   33.8870 N   0  0  0  0  0  0  0  0  0  0  0  0
   37.2050   26.0960   33.4260 O   0  0  0  0  0  0  0  0  0  0  0  0
   37.0260   26.9690   34.4110 C   0  0  0  0  0  0  0  0  0  0  0  0
   37.5130   26.4120   35.5130 N   0  0  0  0  0  0  0  0  0  0  0  0
   36.3930   28.3220   34.2960 C   0  0  0  0  0  0  0  0  0  0  0  0
   36.3170   28.6380   32.8140 C   0  0  0  0  0  0  0  0  0  0  0  0
   38.3015   23.4520   39.5037 H   0  0  0  0  0  0  0  0  0  0  0  0
   37.1786   24.9328   37.8204 H   0  0  0  0  0  0  0  0  0  0  0  0
   41.1451   22.1628   36.6617 H   0  0  0  0  0  0  0  0  0  0  0  0
   35.3839   28.3078   34.7337 H   0  0  0  0  0  0  0  0  0  0  0  0
   36.9780   29.0818   34.8350 H   0  0  0  0  0  0  0  0  0  0  0  0
   36.0618   29.6993   32.6780 H   0  0  0  0  0  0  0  0  0  0  0  0
   37.2903   28.4319   32.3448 H   0  0  0  0  0  0  0  0  0  0  0  0
   35.5438   28.0119   32.3448 H   0  0  0  0  0  0  0  0  0  0  0  0
  2  1  2  0
  3  2  1  0
  4  3  2  0
  4  5  1  0
  5  6  2  0
  6  1  1  0
  7 11  1  0
  7  3  1  0
  8  7  2  0
  9  8  1  0
  9 10  1  0
 10 11  2  0
 12 10  1  0
 13 12  1  0
  1 14  1  0
  2 15  1  0
  5 16  1  0
 12 17  1  0
 12 18  1  0
 13 19  1  0
 13 20  1  0
 13 21  1  0
M  ISO  8  14  14  15  14  16  14  17   8  18   8  19   8  20   8  21   8
M  END
>  <minimizedAffinity>  (1) 
-3.90322757

>  <minimizedRMSD>  (1) 
4.54087305

$$$$
