
     RDKit          3D

 37 40  0  0  0  0  0  0  0  0999 V2000
   36.5860   28.8510   33.6250 C   0  0  0  0  0  0  0  0  0  0  0  0
   37.6670   25.5840   34.8000 C   0  0  0  0  0  0  0  0  0  0  0  0
   37.3780   25.3540   33.4970 N   0  0  0  0  0  0  0  0  0  0  0  0
   36.9760   26.4490   32.9500 O   0  0  0  0  0  0  0  0  0  0  0  0
   36.9810   27.4270   33.8450 C   0  0  0  0  0  0  0  0  0  0  0  0
   37.4060   26.8980   34.9880 N   0  0  0  0  0  0  0  0  0  0  0  0
   38.1530   24.0650   38.1710 C   0  0  0  0  0  0  0  0  0  0  0  0
   37.6200   24.9060   37.1930 C   0  0  0  0  0  0  0  0  0  0  0  0
   38.1530   24.7530   35.9070 C   0  0  0  0  0  0  0  0  0  0  0  0
   39.1290   23.8180   35.7020 N   0  0  0  0  0  0  0  0  0  0  0  0
   39.6150   23.0290   36.6600 C   0  0  0  0  0  0  0  0  0  0  0  0
   39.1170   23.1610   37.8990 N   0  0  0  0  0  0  0  0  0  0  0  0
   35.0880   28.9260   33.9090 C   0  0  0  0  0  0  0  0  0  0  0  0
   34.8730   30.0080   34.8840 C   0  0  0  0  0  0  0  0  0  0  0  0
   35.8560   30.8720   35.3200 C   0  0  0  0  0  0  0  0  0  0  0  0
   35.6470   31.8890   36.2370 C   0  0  0  0  0  0  0  0  0  0  0  0
   34.3750   32.0440   36.7440 C   0  0  0  0  0  0  0  0  0  0  0  0
   33.3630   31.1950   36.3290 C   0  0  0  0  0  0  0  0  0  0  0  0
   32.1370   31.4410   36.8990 C   0  0  0  0  0  0  0  0  0  0  0  0
   31.0840   30.6300   36.5260 C   0  0  0  0  0  0  0  0  0  0  0  0
   31.2650   29.6100   35.6140 C   0  0  0  0  0  0  0  0  0  0  0  0
   32.5240   29.3850   35.0520 C   0  0  0  0  0  0  0  0  0  0  0  0
   33.5980   30.1990   35.4200 C   0  0  0  0  0  0  0  0  0  0  0  0
   37.1377   29.5102   34.3113 H   0  0  0  0  0  0  0  0  0  0  0  0
   36.8166   29.1773   32.6001 H   0  0  0  0  0  0  0  0  0  0  0  0
   37.7735   24.1419   39.2006 H   0  0  0  0  0  0  0  0  0  0  0  0
   36.8329   25.6408   37.4176 H   0  0  0  0  0  0  0  0  0  0  0  0
   40.4012   22.2914   36.4414 H   0  0  0  0  0  0  0  0  0  0  0  0
   34.5406   29.1440   32.9801 H   0  0  0  0  0  0  0  0  0  0  0  0
   34.7222   27.9684   34.3079 H   0  0  0  0  0  0  0  0  0  0  0  0
   36.8703   30.7453   34.9137 H   0  0  0  0  0  0  0  0  0  0  0  0
   36.4684   32.5504   36.5498 H   0  0  0  0  0  0  0  0  0  0  0  0
   34.1646   32.8386   37.4750 H   0  0  0  0  0  0  0  0  0  0  0  0
   31.9997   32.2548   37.6262 H   0  0  0  0  0  0  0  0  0  0  0  0
   30.0880   30.7989   36.9612 H   0  0  0  0  0  0  0  0  0  0  0  0
   30.4153   28.9723   35.3288 H   0  0  0  0  0  0  0  0  0  0  0  0
   32.6687   28.5725   34.3247 H   0  0  0  0  0  0  0  0  0  0  0  0
  1  5  1  0
  1 13  1  0
  2  6  1  0
  2  9  1  0
  3  2  2  0
  4  3  1  0
  4  5  1  0
  5  6  2  0
  8  7  2  0
  9  8  1  0
 10  9  2  0
 10 11  1  0
 11 12  2  0
 12  7  1  0
 13 14  1  0
 14 15  2  0
 14 23  1  0
 15 16  1  0
 16 17  2  0
 18 17  1  0
 18 19  2  0
 20 19  1  0
 21 20  2  0
 22 23  2  0
 22 21  1  0
 23 18  1  0
  1 24  1  0
  1 25  1  0
  7 26  1  0
  8 27  1  0
 11 28  1  0
 13 29  1  0
 13 30  1  0
 15 31  1  0
 16 32  1  0
 17 33  1  0
 19 34  1  0
 20 35  1  0
 21 36  1  0
 22 37  1  0
M  ISO  8  24   8  25   8  26  14  27  14  28  14  29   8  30   8  31  14
M  ISO  6  32  14  33  14  34  14  35  14  36  14  37  14
M  END
>  <minimizedAffinity>  (1) 
-5.71952963

>  <minimizedRMSD>  (1) 
2.06500387

$$$$
