
     RDKit          3D

 35 38  0  0  0  0  0  0  0  0999 V2000
   36.7240   28.9880   34.8270 C   0  0  0  0  0  0  0  0  0  0  0  0
   37.9130   25.5950   35.3620 C   0  0  0  0  0  0  0  0  0  0  0  0
   37.4330   25.5580   34.0970 N   0  0  0  0  0  0  0  0  0  0  0  0
   36.9720   26.7360   33.7870 O   0  0  0  0  0  0  0  0  0  0  0  0
   37.1320   27.5620   34.8170 C   0  0  0  0  0  0  0  0  0  0  0  0
   37.7130   26.8740   35.8030 N   0  0  0  0  0  0  0  0  0  0  0  0
   38.6740   23.4070   38.2980 C   0  0  0  0  0  0  0  0  0  0  0  0
   38.0230   24.3590   37.5170 C   0  0  0  0  0  0  0  0  0  0  0  0
   38.5410   24.6110   36.2420 C   0  0  0  0  0  0  0  0  0  0  0  0
   39.6630   23.9150   35.8160 N   0  0  0  0  0  0  0  0  0  0  0  0
   40.2420   23.0070   36.6290 C   0  0  0  0  0  0  0  0  0  0  0  0
   39.7610   22.7530   37.8490 N   0  0  0  0  0  0  0  0  0  0  0  0
   35.4930   29.1550   34.0540 C   0  0  0  0  0  0  0  0  0  0  0  0
   34.3000   29.7370   34.6320 C   0  0  0  0  0  0  0  0  0  0  0  0
   32.9810   29.3450   34.3920 C   0  0  0  0  0  0  0  0  0  0  0  0
   32.2020   30.1470   35.1280 N   0  0  0  0  0  0  0  0  0  0  0  0
   32.9060   31.0450   35.8430 C   0  0  0  0  0  0  0  0  0  0  0  0
   32.6590   32.0630   36.7260 C   0  0  0  0  0  0  0  0  0  0  0  0
   33.6300   32.8360   37.3160 C   0  0  0  0  0  0  0  0  0  0  0  0
   34.9270   32.5100   36.9470 C   0  0  0  0  0  0  0  0  0  0  0  0
   35.2370   31.5080   36.0740 C   0  0  0  0  0  0  0  0  0  0  0  0
   34.2190   30.7700   35.5170 C   0  0  0  0  0  0  0  0  0  0  0  0
   36.5511   29.3114   35.8641 H   0  0  0  0  0  0  0  0  0  0  0  0
   37.5215   29.5979   34.3775 H   0  0  0  0  0  0  0  0  0  0  0  0
   38.2908   23.1847   39.3048 H   0  0  0  0  0  0  0  0  0  0  0  0
   37.1355   24.8923   37.8885 H   0  0  0  0  0  0  0  0  0  0  0  0
   41.1315   22.4629   36.2787 H   0  0  0  0  0  0  0  0  0  0  0  0
   35.2088   28.1510   33.7058 H   0  0  0  0  0  0  0  0  0  0  0  0
   35.7854   29.9132   33.3126 H   0  0  0  0  0  0  0  0  0  0  0  0
   32.6472   28.5346   33.7273 H   0  0  0  0  0  0  0  0  0  0  0  0
   31.1741   30.0840   35.1456 H   0  0  0  0  0  0  0  0  0  0  0  0
   31.6103   32.2765   36.9804 H   0  0  0  0  0  0  0  0  0  0  0  0
   33.3980   33.6465   38.0226 H   0  0  0  0  0  0  0  0  0  0  0  0
   35.7523   33.0922   37.3828 H   0  0  0  0  0  0  0  0  0  0  0  0
   36.2855   31.2938   35.8196 H   0  0  0  0  0  0  0  0  0  0  0  0
  2  6  1  0
  2  9  1  0
  3  2  2  0
  4  3  1  0
  4  5  1  0
  5  1  1  0
  5  6  2  0
  8  7  2  0
  9  8  1  0
 10  9  2  0
 10 11  1  0
 11 12  2  0
 12  7  1  0
 13 14  1  0
 13  1  1  0
 14 22  1  0
 15 14  2  0
 15 16  1  0
 16 17  1  0
 17 18  2  0
 18 19  1  0
 20 19  2  0
 21 20  1  0
 22 17  1  0
 22 21  2  0
  1 23  1  0
  1 24  1  0
  7 25  1  0
  8 26  1  0
 11 27  1  0
 13 28  1  0
 13 29  1  0
 15 30  1  0
 16 31  1  0
 18 32  1  0
 19 33  1  0
 20 34  1  0
 21 35  1  0
M  ISO  8  23   8  24   8  25  14  26  14  27  14  28   8  29   8  30  14
M  ISO  5  31   9  32  14  33  14  34  14  35  14
M  END
>  <minimizedAffinity>  (1) 
-5.5625453

>  <minimizedRMSD>  (1) 
4.23969316

$$$$
