
     RDKit          3D

 32 35  0  0  0  0  0  0  0  0999 V2000
   36.3610   28.2870   33.9890 C   0  0  0  0  0  0  0  0  0  0  0  0
   37.9550   25.2130   35.0450 C   0  0  0  0  0  0  0  0  0  0  0  0
   37.7830   25.0270   33.7110 N   0  0  0  0  0  0  0  0  0  0  0  0
   37.2070   26.0930   33.2260 O   0  0  0  0  0  0  0  0  0  0  0  0
   36.9940   26.9700   34.1790 C   0  0  0  0  0  0  0  0  0  0  0  0
   37.4460   26.4590   35.3300 N   0  0  0  0  0  0  0  0  0  0  0  0
   38.5030   23.5630   38.3570 C   0  0  0  0  0  0  0  0  0  0  0  0
   37.9160   24.3620   37.3740 C   0  0  0  0  0  0  0  0  0  0  0  0
   38.5250   24.3960   36.1080 C   0  0  0  0  0  0  0  0  0  0  0  0
   39.6560   23.6480   35.9100 N   0  0  0  0  0  0  0  0  0  0  0  0
   40.1770   22.8980   36.8900 C   0  0  0  0  0  0  0  0  0  0  0  0
   39.6080   22.8570   38.0980 N   0  0  0  0  0  0  0  0  0  0  0  0
   35.7970   28.3870   32.6130 C   0  0  0  0  0  0  0  0  0  0  0  0
   36.0500   29.5910   31.8980 N   0  0  0  0  0  0  0  0  0  0  0  0
   35.8890   30.9110   32.0790 C   0  0  0  0  0  0  0  0  0  0  0  0
   36.3350   31.6550   31.0550 N   0  0  0  0  0  0  0  0  0  0  0  0
   36.8240   30.7990   30.1340 C   0  0  0  0  0  0  0  0  0  0  0  0
   37.3930   31.0650   28.9080 C   0  0  0  0  0  0  0  0  0  0  0  0
   37.8000   30.0150   28.1810 N   0  0  0  0  0  0  0  0  0  0  0  0
   37.6250   28.7770   28.6940 C   0  0  0  0  0  0  0  0  0  0  0  0
   37.0730   28.5210   29.8800 N   0  0  0  0  0  0  0  0  0  0  0  0
   36.6430   29.5270   30.6620 C   0  0  0  0  0  0  0  0  0  0  0  0
   35.5524   28.4121   34.7242 H   0  0  0  0  0  0  0  0  0  0  0  0
   37.1164   29.0744   34.1280 H   0  0  0  0  0  0  0  0  0  0  0  0
   38.0500   23.5138   39.3582 H   0  0  0  0  0  0  0  0  0  0  0  0
   37.0073   24.9454   37.5835 H   0  0  0  0  0  0  0  0  0  0  0  0
   41.0853   22.3081   36.6976 H   0  0  0  0  0  0  0  0  0  0  0  0
   36.2123   27.5568   32.0228 H   0  0  0  0  0  0  0  0  0  0  0  0
   34.7057   28.3586   32.7483 H   0  0  0  0  0  0  0  0  0  0  0  0
   35.4339   31.3429   32.9825 H   0  0  0  0  0  0  0  0  0  0  0  0
   37.5085   32.0956   28.5411 H   0  0  0  0  0  0  0  0  0  0  0  0
   37.9615   27.9209   28.0908 H   0  0  0  0  0  0  0  0  0  0  0  0
  1  5  1  0
  2  6  1  0
  2  9  1  0
  3  2  2  0
  4  3  1  0
  4  5  1  0
  5  6  2  0
  8  7  2  0
  9  8  1  0
 10  9  2  0
 10 11  1  0
 11 12  2  0
 12  7  1  0
 13  1  1  0
 14 15  1  0
 14 13  1  0
 16 15  2  0
 17 22  2  0
 17 16  1  0
 18 17  1  0
 19 20  1  0
 19 18  2  0
 20 21  2  0
 21 22  1  0
 22 14  1  0
  1 23  1  0
  1 24  1  0
  7 25  1  0
  8 26  1  0
 11 27  1  0
 13 28  1  0
 13 29  1  0
 15 30  1  0
 18 31  1  0
 20 32  1  0
M  ISO  8  23   8  24   8  25  14  26  14  27  14  28   8  29   8  30  14
M  ISO  2  31  14  32  14
M  END
>  <minimizedAffinity>  (1) 
-5.0913434

>  <minimizedRMSD>  (1) 
2.94276643

$$$$
