
     RDKit          3D

 31 33  0  0  0  0  0  0  0  0999 V2000
   36.4140   28.2380   34.0110 C   0  0  0  0  0  0  0  0  0  0  0  0
   37.9710   25.1310   35.0820 C   0  0  0  0  0  0  0  0  0  0  0  0
   37.7670   24.9130   33.7710 N   0  0  0  0  0  0  0  0  0  0  0  0
   37.2090   25.9550   33.2510 O   0  0  0  0  0  0  0  0  0  0  0  0
   37.0270   26.8860   34.1930 C   0  0  0  0  0  0  0  0  0  0  0  0
   37.4950   26.3930   35.3450 N   0  0  0  0  0  0  0  0  0  0  0  0
   38.5670   23.5490   38.4150 C   0  0  0  0  0  0  0  0  0  0  0  0
   37.9380   24.3330   37.4530 C   0  0  0  0  0  0  0  0  0  0  0  0
   38.5510   24.3380   36.1690 C   0  0  0  0  0  0  0  0  0  0  0  0
   39.6990   23.5890   35.9590 N   0  0  0  0  0  0  0  0  0  0  0  0
   40.2430   22.8560   36.9500 C   0  0  0  0  0  0  0  0  0  0  0  0
   39.6690   22.8420   38.1780 N   0  0  0  0  0  0  0  0  0  0  0  0
   36.4140   28.4910   32.5060 C   0  0  0  0  0  0  0  0  0  0  0  0
   35.2700   29.3340   32.2020 N   0  0  0  0  0  0  0  0  0  0  0  0
   34.1200   29.2640   32.9160 C   0  0  0  0  0  0  0  0  0  0  0  0
   33.0660   30.1060   32.5620 C   0  0  0  0  0  0  0  0  0  0  0  0
   33.2530   30.9710   31.4980 C   0  0  0  0  0  0  0  0  0  0  0  0
   32.2640   31.6970   31.2360 O   0  0  0  0  0  0  0  0  0  0  0  0
   34.4040   31.0310   30.7930 N   0  0  0  0  0  0  0  0  0  0  0  0
   35.4030   30.2040   31.1600 C   0  0  0  0  0  0  0  0  0  0  0  0
   36.4930   30.2460   30.5100 O   0  0  0  0  0  0  0  0  0  0  0  0
   35.3859   28.2490   34.4019 H   0  0  0  0  0  0  0  0  0  0  0  0
   36.9734   29.0143   34.5536 H   0  0  0  0  0  0  0  0  0  0  0  0
   38.1306   23.5117   39.4240 H   0  0  0  0  0  0  0  0  0  0  0  0
   37.0274   24.9105   37.6706 H   0  0  0  0  0  0  0  0  0  0  0  0
   41.1538   22.2684   36.7624 H   0  0  0  0  0  0  0  0  0  0  0  0
   37.3437   28.9997   32.2112 H   0  0  0  0  0  0  0  0  0  0  0  0
   36.3513   27.5412   31.9547 H   0  0  0  0  0  0  0  0  0  0  0  0
   34.0203   28.5596   33.7550 H   0  0  0  0  0  0  0  0  0  0  0  0
   32.1139   30.0832   33.1124 H   0  0  0  0  0  0  0  0  0  0  0  0
   34.5139   31.6844   30.0044 H   0  0  0  0  0  0  0  0  0  0  0  0
  1  5  1  0
  2  6  1  0
  2  9  1  0
  3  2  2  0
  4  3  1  0
  4  5  1  0
  5  6  2  0
  8  7  2  0
  9  8  1  0
 10  9  2  0
 10 11  1  0
 11 12  2  0
 12  7  1  0
 13  1  1  0
 14 13  1  0
 14 15  1  0
 16 15  2  0
 17 16  1  0
 18 17  2  0
 19 20  1  0
 19 17  1  0
 20 14  1  0
 21 20  2  0
  1 22  1  0
  1 23  1  0
  7 24  1  0
  8 25  1  0
 11 26  1  0
 13 27  1  0
 13 28  1  0
 15 29  1  0
 16 30  1  0
 19 31  1  0
M  ISO  8  22   8  23   8  24  14  25  14  26  14  27   8  28   8  29  14
M  ISO  2  30  14  31   9
M  END
>  <minimizedAffinity>  (1) 
-5.02824974

>  <minimizedRMSD>  (1) 
1.24920833

$$$$
