
     RDKit          3D

 34 36  0  0  0  0  0  0  0  0999 V2000
   36.4060   28.3320   33.8810 C   0  0  0  0  0  0  0  0  0  0  0  0
   37.9300   25.2370   35.0160 C   0  0  0  0  0  0  0  0  0  0  0  0
   37.7500   25.0280   33.6880 N   0  0  0  0  0  0  0  0  0  0  0  0
   37.1970   26.1090   33.1890 O   0  0  0  0  0  0  0  0  0  0  0  0
   37.0090   27.0100   34.1220 C   0  0  0  0  0  0  0  0  0  0  0  0
   37.4540   26.4990   35.2640 N   0  0  0  0  0  0  0  0  0  0  0  0
   38.4040   23.6460   38.3680 C   0  0  0  0  0  0  0  0  0  0  0  0
   37.8620   24.4200   37.3570 C   0  0  0  0  0  0  0  0  0  0  0  0
   38.4760   24.4340   36.0990 C   0  0  0  0  0  0  0  0  0  0  0  0
   39.5970   23.6670   35.9420 N   0  0  0  0  0  0  0  0  0  0  0  0
   40.0930   22.9320   36.9380 C   0  0  0  0  0  0  0  0  0  0  0  0
   39.5000   22.9220   38.1390 N   0  0  0  0  0  0  0  0  0  0  0  0
   35.6620   28.3310   32.5840 C   0  0  0  0  0  0  0  0  0  0  0  0
   37.4260   30.0570   29.0910 C   0  0  0  0  0  0  0  0  0  0  0  0
   36.9800   30.9250   30.0600 C   0  0  0  0  0  0  0  0  0  0  0  0
   36.4120   30.4210   31.2080 C   0  0  0  0  0  0  0  0  0  0  0  0
   36.2410   29.0880   31.4880 C   0  0  0  0  0  0  0  0  0  0  0  0
   36.7130   28.2480   30.4660 C   0  0  0  0  0  0  0  0  0  0  0  0
   37.2910   28.6990   29.2970 C   0  0  0  0  0  0  0  0  0  0  0  0
   38.1350   30.7710   27.6620 S   0  0  0  0  0  0  0  0  0  0  0  0
   39.4140   31.4850   28.0180 O   0  0  0  0  0  0  0  0  0  0  0  0
   37.1550   31.6800   26.9600 O   0  0  0  0  0  0  0  0  0  0  0  0
   35.7098   28.5685   34.6992 H   0  0  0  0  0  0  0  0  0  0  0  0
   37.2038   29.0880   33.8368 H   0  0  0  0  0  0  0  0  0  0  0  0
   37.9306   23.6280   39.3607 H   0  0  0  0  0  0  0  0  0  0  0  0
   36.9574   25.0185   37.5401 H   0  0  0  0  0  0  0  0  0  0  0  0
   40.9974   22.3284   36.7718 H   0  0  0  0  0  0  0  0  0  0  0  0
   35.5731   27.2855   32.2539 H   0  0  0  0  0  0  0  0  0  0  0  0
   34.7078   28.8325   32.8031 H   0  0  0  0  0  0  0  0  0  0  0  0
   37.0763   32.0117   29.9190 H   0  0  0  0  0  0  0  0  0  0  0  0
   36.0674   31.1444   31.9616 H   0  0  0  0  0  0  0  0  0  0  0  0
   36.6157   27.1614   30.6065 H   0  0  0  0  0  0  0  0  0  0  0  0
   37.6404   27.9840   28.5376 H   0  0  0  0  0  0  0  0  0  0  0  0
   38.4444   29.7704   26.7789 H   0  0  0  0  0  0  0  0  0  0  0  0
  1  5  1  0
  2  6  1  0
  2  9  1  0
  3  2  2  0
  4  3  1  0
  4  5  1  0
  5  6  2  0
  8  7  2  0
  9  8  1  0
 10  9  2  0
 10 11  1  0
 11 12  2  0
 12  7  1  0
 13  1  1  0
 14 19  2  0
 14 15  1  0
 15 16  2  0
 16 17  1  0
 17 13  1  0
 18 17  2  0
 19 18  1  0
 20 21  2  0
 20 14  1  0
 22 20  2  0
  1 23  1  0
  1 24  1  0
  7 25  1  0
  8 26  1  0
 11 27  1  0
 13 28  1  0
 13 29  1  0
 15 30  1  0
 16 31  1  0
 18 32  1  0
 19 33  1  0
 20 34  1  0
M  ISO  8  23   8  24   8  25  14  26  14  27  14  28   8  29   8  30  14
M  ISO  4  31  14  32  14  33  14  34  11
M  END
>  <minimizedAffinity>  (1) 
-5.02570057

>  <minimizedRMSD>  (1) 
2.43868208

$$$$
