
     RDKit          3D

 31 33  0  0  0  0  0  0  0  0999 V2000
   36.3690   28.4290   34.2500 C   0  0  0  0  0  0  0  0  0  0  0  0
   37.9480   25.2920   35.1420 C   0  0  0  0  0  0  0  0  0  0  0  0
   37.6940   25.1440   33.8180 N   0  0  0  0  0  0  0  0  0  0  0  0
   37.1140   26.2440   33.3960 O   0  0  0  0  0  0  0  0  0  0  0  0
   36.9810   27.0970   34.3830 C   0  0  0  0  0  0  0  0  0  0  0  0
   37.4880   26.5410   35.4810 N   0  0  0  0  0  0  0  0  0  0  0  0
   38.6010   23.5010   38.3600 C   0  0  0  0  0  0  0  0  0  0  0  0
   37.9670   24.3430   37.4380 C   0  0  0  0  0  0  0  0  0  0  0  0
   38.5560   24.4380   36.1560 C   0  0  0  0  0  0  0  0  0  0  0  0
   39.6870   23.7150   35.9030 N   0  0  0  0  0  0  0  0  0  0  0  0
   40.2530   22.9220   36.8300 C   0  0  0  0  0  0  0  0  0  0  0  0
   39.7080   22.8200   38.0460 N   0  0  0  0  0  0  0  0  0  0  0  0
   35.5860   28.5130   32.9790 C   0  0  0  0  0  0  0  0  0  0  0  0
   36.0880   29.4120   31.9530 C   0  0  0  0  0  0  0  0  0  0  0  0
   36.5820   28.7340   30.8380 C   0  0  0  0  0  0  0  0  0  0  0  0
   37.1320   29.3330   29.7270 C   0  0  0  0  0  0  0  0  0  0  0  0
   37.2210   30.7080   29.6730 C   0  0  0  0  0  0  0  0  0  0  0  0
   36.7460   31.4250   30.7510 C   0  0  0  0  0  0  0  0  0  0  0  0
   36.2070   30.7710   31.8350 C   0  0  0  0  0  0  0  0  0  0  0  0
   35.6975   28.6071   35.1029 H   0  0  0  0  0  0  0  0  0  0  0  0
   37.1639   29.1891   34.2327 H   0  0  0  0  0  0  0  0  0  0  0  0
   38.1769   23.3971   39.3696 H   0  0  0  0  0  0  0  0  0  0  0  0
   37.0563   24.9025   37.6980 H   0  0  0  0  0  0  0  0  0  0  0  0
   41.1651   22.3570   36.5872 H   0  0  0  0  0  0  0  0  0  0  0  0
   35.5479   27.5028   32.5453 H   0  0  0  0  0  0  0  0  0  0  0  0
   34.6106   28.9292   33.2713 H   0  0  0  0  0  0  0  0  0  0  0  0
   36.5278   27.6354   30.8474 H   0  0  0  0  0  0  0  0  0  0  0  0
   37.4972   28.7201   28.8898 H   0  0  0  0  0  0  0  0  0  0  0  0
   37.6562   31.2158   28.7996 H   0  0  0  0  0  0  0  0  0  0  0  0
   36.7982   32.5237   30.7442 H   0  0  0  0  0  0  0  0  0  0  0  0
   35.8439   31.3871   32.6708 H   0  0  0  0  0  0  0  0  0  0  0  0
  1  5  1  0
  2  6  1  0
  2  9  1  0
  3  2  2  0
  4  3  1  0
  4  5  1  0
  5  6  2  0
  8  7  2  0
  9  8  1  0
 10  9  2  0
 10 11  1  0
 11 12  2  0
 12  7  1  0
 13  1  1  0
 14 13  1  0
 15 14  2  0
 16 15  1  0
 17 16  2  0
 17 18  1  0
 18 19  2  0
 19 14  1  0
  1 20  1  0
  1 21  1  0
  7 22  1  0
  8 23  1  0
 11 24  1  0
 13 25  1  0
 13 26  1  0
 15 27  1  0
 16 28  1  0
 17 29  1  0
 18 30  1  0
 19 31  1  0
M  ISO  8  20   8  21   8  22  14  23  14  24  14  25   8  26   8  27  14
M  ISO  4  28  14  29  14  30  14  31  14
M  END
>  <minimizedAffinity>  (1) 
-4.86619854

>  <minimizedRMSD>  (1) 
1.62126935

$$$$
