
     RDKit          3D

 31 33  0  0  0  0  0  0  0  0999 V2000
   37.9790   25.2130   35.1580 C   0  0  0  0  0  0  0  0  0  0  0  0
   37.7560   25.1040   33.8440 N   0  0  0  0  0  0  0  0  0  0  0  0
   37.1610   26.1650   33.4110 O   0  0  0  0  0  0  0  0  0  0  0  0
   36.9680   27.0130   34.4140 C   0  0  0  0  0  0  0  0  0  0  0  0
   37.4690   26.4340   35.4910 N   0  0  0  0  0  0  0  0  0  0  0  0
   38.6760   23.4470   38.3850 C   0  0  0  0  0  0  0  0  0  0  0  0
   38.0140   24.2690   37.4790 C   0  0  0  0  0  0  0  0  0  0  0  0
   38.5920   24.3760   36.1860 C   0  0  0  0  0  0  0  0  0  0  0  0
   39.7530   23.6730   35.9000 N   0  0  0  0  0  0  0  0  0  0  0  0
   40.3360   22.8960   36.8280 C   0  0  0  0  0  0  0  0  0  0  0  0
   39.7880   22.7920   38.0640 N   0  0  0  0  0  0  0  0  0  0  0  0
   36.3100   28.3640   34.3380 C   0  0  0  0  0  0  0  0  0  0  0  0
   35.7610   28.4860   32.9370 C   0  0  0  0  0  0  0  0  0  0  0  0
   36.0510   29.8290   32.3700 C   0  0  0  0  0  0  0  0  0  0  0  0
   36.6230   29.9880   31.1260 C   0  0  0  0  0  0  0  0  0  0  0  0
   36.8620   31.2690   30.6660 C   0  0  0  0  0  0  0  0  0  0  0  0
   36.5320   32.3630   31.4380 C   0  0  0  0  0  0  0  0  0  0  0  0
   35.9580   32.2000   32.6860 C   0  0  0  0  0  0  0  0  0  0  0  0
   35.7090   30.9250   33.1700 C   0  0  0  0  0  0  0  0  0  0  0  0
   38.2665   23.3351   39.3998 H   0  0  0  0  0  0  0  0  0  0  0  0
   37.0932   24.8068   37.7491 H   0  0  0  0  0  0  0  0  0  0  0  0
   41.2566   22.3449   36.5856 H   0  0  0  0  0  0  0  0  0  0  0  0
   35.4957   28.4336   35.0742 H   0  0  0  0  0  0  0  0  0  0  0  0
   37.0236   29.1709   34.5609 H   0  0  0  0  0  0  0  0  0  0  0  0
   36.2246   27.7182   32.3002 H   0  0  0  0  0  0  0  0  0  0  0  0
   34.6704   28.3472   32.9730 H   0  0  0  0  0  0  0  0  0  0  0  0
   36.8838   29.1133   30.5121 H   0  0  0  0  0  0  0  0  0  0  0  0
   37.3190   31.4172   29.6764 H   0  0  0  0  0  0  0  0  0  0  0  0
   36.7273   33.3763   31.0572 H   0  0  0  0  0  0  0  0  0  0  0  0
   35.6997   33.0802   33.2931 H   0  0  0  0  0  0  0  0  0  0  0  0
   35.2530   30.7782   34.1602 H   0  0  0  0  0  0  0  0  0  0  0  0
  1  5  1  0
  1  8  1  0
  2  1  2  0
  3  2  1  0
  3  4  1  0
  4  5  2  0
  7  6  2  0
  8  7  1  0
  9  8  2  0
  9 10  1  0
 10 11  2  0
 11  6  1  0
 12  4  1  0
 13 12  1  0
 14 13  1  0
 14 19  1  0
 15 14  2  0
 16 15  1  0
 16 17  2  0
 17 18  1  0
 18 19  2  0
  6 20  1  0
  7 21  1  0
 10 22  1  0
 12 23  1  0
 12 24  1  0
 13 25  1  0
 13 26  1  0
 15 27  1  0
 16 28  1  0
 17 29  1  0
 18 30  1  0
 19 31  1  0
M  ISO  8  20  14  21  14  22  14  23   8  24   8  25   8  26   8  27  14
M  ISO  4  28  14  29  14  30  14  31  14
M  END
>  <minimizedAffinity>  (1) 
-4.81820679

>  <minimizedRMSD>  (1) 
0.923354089

$$$$
