
     RDKit          3D

 30 32  0  0  0  0  0  0  0  0999 V2000
   37.9460   25.2180   35.0750 C   0  0  0  0  0  0  0  0  0  0  0  0
   37.7550   25.0370   33.7450 N   0  0  0  0  0  0  0  0  0  0  0  0
   37.1770   26.1110   33.2730 O   0  0  0  0  0  0  0  0  0  0  0  0
   36.9830   26.9900   34.2420 C   0  0  0  0  0  0  0  0  0  0  0  0
   37.4520   26.4630   35.3800 N   0  0  0  0  0  0  0  0  0  0  0  0
   38.5720   23.5240   38.3500 C   0  0  0  0  0  0  0  0  0  0  0  0
   37.9310   24.3400   37.4030 C   0  0  0  0  0  0  0  0  0  0  0  0
   38.5330   24.3970   36.1370 C   0  0  0  0  0  0  0  0  0  0  0  0
   39.6830   23.6690   35.9150 N   0  0  0  0  0  0  0  0  0  0  0  0
   40.2490   22.9070   36.8630 C   0  0  0  0  0  0  0  0  0  0  0  0
   39.6870   22.8390   38.0800 N   0  0  0  0  0  0  0  0  0  0  0  0
   36.3540   28.3300   34.0980 C   0  0  0  0  0  0  0  0  0  0  0  0
   36.2610   28.6220   32.6070 C   0  0  0  0  0  0  0  0  0  0  0  0
   35.0270   29.4120   32.3680 C   0  0  0  0  0  0  0  0  0  0  0  0
   35.1330   30.4700   31.4810 C   0  0  0  0  0  0  0  0  0  0  0  0
   33.9950   31.2430   31.2240 C   0  0  0  0  0  0  0  0  0  0  0  0
   32.8550   30.8620   31.9020 C   0  0  0  0  0  0  0  0  0  0  0  0
   32.7540   29.8110   32.7840 C   0  0  0  0  0  0  0  0  0  0  0  0
   33.8890   29.0890   32.9990 N   0  0  0  0  0  0  0  0  0  0  0  0
   38.1372   23.4456   39.3574 H   0  0  0  0  0  0  0  0  0  0  0  0
   37.0139   24.8996   37.6394 H   0  0  0  0  0  0  0  0  0  0  0  0
   41.1671   22.3419   36.6445 H   0  0  0  0  0  0  0  0  0  0  0  0
   35.3490   28.3252   34.5451 H   0  0  0  0  0  0  0  0  0  0  0  0
   36.9491   29.0994   34.6116 H   0  0  0  0  0  0  0  0  0  0  0  0
   37.1408   29.1980   32.2842 H   0  0  0  0  0  0  0  0  0  0  0  0
   36.2287   27.6824   32.0359 H   0  0  0  0  0  0  0  0  0  0  0  0
   36.0903   30.6978   30.9893 H   0  0  0  0  0  0  0  0  0  0  0  0
   34.0083   32.0957   30.5293 H   0  0  0  0  0  0  0  0  0  0  0  0
   31.9446   31.4521   31.7208 H   0  0  0  0  0  0  0  0  0  0  0  0
   31.8075   29.5668   33.2885 H   0  0  0  0  0  0  0  0  0  0  0  0
  1  5  1  0
  1  8  1  0
  2  1  2  0
  3  2  1  0
  3  4  1  0
  4  5  2  0
  7  6  2  0
  8  7  1  0
  9  8  2  0
  9 10  1  0
 10 11  2  0
 11  6  1  0
 12  4  1  0
 13 12  1  0
 14 13  1  0
 14 19  1  0
 15 14  2  0
 16 15  1  0
 16 17  2  0
 17 18  1  0
 18 19  2  0
  6 20  1  0
  7 21  1  0
 10 22  1  0
 12 23  1  0
 12 24  1  0
 13 25  1  0
 13 26  1  0
 15 27  1  0
 16 28  1  0
 17 29  1  0
 18 30  1  0
M  ISO  8  20  14  21  14  22  14  23   8  24   8  25   8  26   8  27  14
M  ISO  3  28  14  29  14  30  14
M  END
>  <minimizedAffinity>  (1) 
-4.64414024

>  <minimizedRMSD>  (1) 
1.06021345

$$$$
