
     RDKit          3D

 34 36  0  0  0  0  0  0  0  0999 V2000
   37.9450   25.2330   35.2010 C   0  0  0  0  0  0  0  0  0  0  0  0
   37.7270   25.1290   33.8850 N   0  0  0  0  0  0  0  0  0  0  0  0
   37.1560   26.2020   33.4590 O   0  0  0  0  0  0  0  0  0  0  0  0
   36.9700   27.0620   34.4690 C   0  0  0  0  0  0  0  0  0  0  0  0
   37.4540   26.4700   35.5480 N   0  0  0  0  0  0  0  0  0  0  0  0
   38.6820   23.4520   38.4050 C   0  0  0  0  0  0  0  0  0  0  0  0
   37.9990   24.2850   37.5150 C   0  0  0  0  0  0  0  0  0  0  0  0
   38.5510   24.3880   36.2320 C   0  0  0  0  0  0  0  0  0  0  0  0
   39.7090   23.6820   35.9240 N   0  0  0  0  0  0  0  0  0  0  0  0
   40.3200   22.8980   36.8200 C   0  0  0  0  0  0  0  0  0  0  0  0
   39.7920   22.7920   38.0660 N   0  0  0  0  0  0  0  0  0  0  0  0
   36.3450   28.4210   34.3870 C   0  0  0  0  0  0  0  0  0  0  0  0
   36.0960   28.6900   32.9450 C   0  0  0  0  0  0  0  0  0  0  0  0
   34.7040   29.0620   32.5970 C   0  0  0  0  0  0  0  0  0  0  0  0
   34.7060   30.3780   31.8300 C   0  0  0  0  0  0  0  0  0  0  0  0
   33.2360   30.7420   31.9350 C   0  0  0  0  0  0  0  0  0  0  0  0
   33.0020   30.5920   33.4300 C   0  0  0  0  0  0  0  0  0  0  0  0
   33.9340   29.4760   33.8410 C   0  0  0  0  0  0  0  0  0  0  0  0
   38.2894   23.3353   39.4259 H   0  0  0  0  0  0  0  0  0  0  0  0
   37.0856   24.8256   37.8038 H   0  0  0  0  0  0  0  0  0  0  0  0
   41.2345   22.3488   36.5514 H   0  0  0  0  0  0  0  0  0  0  0  0
   35.3971   28.4368   34.9449 H   0  0  0  0  0  0  0  0  0  0  0  0
   37.0027   29.1864   34.8248 H   0  0  0  0  0  0  0  0  0  0  0  0
   36.7548   29.5146   32.6353 H   0  0  0  0  0  0  0  0  0  0  0  0
   36.2956   27.7431   32.4220 H   0  0  0  0  0  0  0  0  0  0  0  0
   34.2810   28.1992   32.0616 H   0  0  0  0  0  0  0  0  0  0  0  0
   35.0197   30.2415   30.7846 H   0  0  0  0  0  0  0  0  0  0  0  0
   35.4017   31.1386   32.2139 H   0  0  0  0  0  0  0  0  0  0  0  0
   33.0508   31.7730   31.5992 H   0  0  0  0  0  0  0  0  0  0  0  0
   32.5723   30.1268   31.3097 H   0  0  0  0  0  0  0  0  0  0  0  0
   33.2515   31.5235   33.9593 H   0  0  0  0  0  0  0  0  0  0  0  0
   31.9513   30.3742   33.6722 H   0  0  0  0  0  0  0  0  0  0  0  0
   33.3561   28.6242   34.2289 H   0  0  0  0  0  0  0  0  0  0  0  0
   34.6188   29.8077   34.6354 H   0  0  0  0  0  0  0  0  0  0  0  0
  1  5  1  0
  1  8  1  0
  2  1  2  0
  3  2  1  0
  3  4  1  0
  4  5  2  0
  7  6  2  0
  8  7  1  0
  9  8  2  0
  9 10  1  0
 10 11  2  0
 11  6  1  0
 12  4  1  0
 13 12  1  0
 14 13  1  0
 14 18  1  0
 15 16  1  0
 15 14  1  0
 16 17  1  0
 17 18  1  0
  6 19  1  0
  7 20  1  0
 10 21  1  0
 12 22  1  0
 12 23  1  0
 13 24  1  0
 13 25  1  0
 14 26  1  0
 15 27  1  0
 15 28  1  0
 16 29  1  0
 16 30  1  0
 17 31  1  0
 17 32  1  0
 18 33  1  0
 18 34  1  0
M  ISO  8  19  14  20  14  21  14  22   8  23   8  24   8  25   8  26  13
M  ISO  8  27  13  28  13  29  13  30  13  31  13  32  13  33  13  34  13
M  END
>  <minimizedAffinity>  (1) 
-4.4830246

>  <minimizedRMSD>  (1) 
1.61540747

$$$$
