
     RDKit          3D

 34 36  0  0  0  0  0  0  0  0999 V2000
   37.9890   25.1900   35.2190 C   0  0  0  0  0  0  0  0  0  0  0  0
   37.7830   25.0430   33.8870 N   0  0  0  0  0  0  0  0  0  0  0  0
   37.1890   26.1180   33.4420 O   0  0  0  0  0  0  0  0  0  0  0  0
   36.9940   26.9670   34.4310 C   0  0  0  0  0  0  0  0  0  0  0  0
   37.4810   26.4210   35.5570 N   0  0  0  0  0  0  0  0  0  0  0  0
   38.7040   23.4320   38.4330 C   0  0  0  0  0  0  0  0  0  0  0  0
   38.0220   24.2680   37.5310 C   0  0  0  0  0  0  0  0  0  0  0  0
   38.6040   24.3480   36.2580 C   0  0  0  0  0  0  0  0  0  0  0  0
   39.7600   23.6360   35.9720 N   0  0  0  0  0  0  0  0  0  0  0  0
   40.3460   22.8640   36.8890 C   0  0  0  0  0  0  0  0  0  0  0  0
   39.8190   22.7630   38.1140 N   0  0  0  0  0  0  0  0  0  0  0  0
   36.3510   28.2980   34.3230 C   0  0  0  0  0  0  0  0  0  0  0  0
   36.3800   28.6790   32.8520 C   0  0  0  0  0  0  0  0  0  0  0  0
   35.1650   29.1740   32.3260 N   0  0  0  0  0  0  0  0  0  0  0  0
   35.3860   30.0610   31.2070 C   0  0  0  0  0  0  0  0  0  0  0  0
   35.9460   31.3990   31.6340 C   0  0  0  0  0  0  0  0  0  0  0  0
   35.8830   31.5640   33.0060 O   0  0  0  0  0  0  0  0  0  0  0  0
   34.5990   31.2670   33.4740 C   0  0  0  0  0  0  0  0  0  0  0  0
   34.2750   29.7970   33.2450 C   0  0  0  0  0  0  0  0  0  0  0  0
   38.3015   23.3223   39.4508 H   0  0  0  0  0  0  0  0  0  0  0  0
   37.1067   24.8145   37.8021 H   0  0  0  0  0  0  0  0  0  0  0  0
   41.2627   22.3105   36.6374 H   0  0  0  0  0  0  0  0  0  0  0  0
   35.3121   28.2473   34.6811 H   0  0  0  0  0  0  0  0  0  0  0  0
   36.8794   29.0435   34.9353 H   0  0  0  0  0  0  0  0  0  0  0  0
   37.1480   29.4551   32.7184 H   0  0  0  0  0  0  0  0  0  0  0  0
   36.5887   27.7484   32.3038 H   0  0  0  0  0  0  0  0  0  0  0  0
   34.4277   30.2269   30.6931 H   0  0  0  0  0  0  0  0  0  0  0  0
   36.1227   29.5857   30.5426 H   0  0  0  0  0  0  0  0  0  0  0  0
   36.9966   31.4644   31.3146 H   0  0  0  0  0  0  0  0  0  0  0  0
   35.3423   32.1898   31.1647 H   0  0  0  0  0  0  0  0  0  0  0  0
   34.5465   31.4858   34.5507 H   0  0  0  0  0  0  0  0  0  0  0  0
   33.8696   31.8817   32.9262 H   0  0  0  0  0  0  0  0  0  0  0  0
   33.2512   29.7199   32.8503 H   0  0  0  0  0  0  0  0  0  0  0  0
   34.3795   29.2800   34.2103 H   0  0  0  0  0  0  0  0  0  0  0  0
  1  5  1  0
  1  8  1  0
  2  1  2  0
  3  2  1  0
  3  4  1  0
  4  5  2  0
  7  6  2  0
  8  7  1  0
  9  8  2  0
  9 10  1  0
 10 11  2  0
 11  6  1  0
 12  4  1  0
 13 12  1  0
 14 13  1  0
 14 19  1  0
 15 16  1  0
 15 14  1  0
 16 17  1  0
 17 18  1  0
 19 18  1  0
  6 20  1  0
  7 21  1  0
 10 22  1  0
 12 23  1  0
 12 24  1  0
 13 25  1  0
 13 26  1  0
 15 27  1  0
 15 28  1  0
 16 29  1  0
 16 30  1  0
 18 31  1  0
 18 32  1  0
 19 33  1  0
 19 34  1  0
M  ISO  8  20  14  21  14  22  14  23   8  24   8  25   8  26   8  27  13
M  ISO  7  28  13  29  13  30  13  31  13  32  13  33  13  34  13
M  END
>  <minimizedAffinity>  (1) 
-4.4270997

>  <minimizedRMSD>  (1) 
1.02900219

$$$$
