
     RDKit          3D

 26 28  0  0  0  0  0  0  0  0999 V2000
   37.9360   25.1340   34.8750 C   0  0  0  0  0  0  0  0  0  0  0  0
   37.7740   24.8820   33.5740 N   0  0  0  0  0  0  0  0  0  0  0  0
   37.2760   25.9020   32.9750 O   0  0  0  0  0  0  0  0  0  0  0  0
   37.0820   26.8780   33.8440 C   0  0  0  0  0  0  0  0  0  0  0  0
   37.4870   26.4050   35.0000 N   0  0  0  0  0  0  0  0  0  0  0  0
   38.3300   23.6990   38.2960 C   0  0  0  0  0  0  0  0  0  0  0  0
   37.7760   24.4400   37.2620 C   0  0  0  0  0  0  0  0  0  0  0  0
   38.4390   24.3930   36.0280 C   0  0  0  0  0  0  0  0  0  0  0  0
   39.5670   23.6300   35.9360 N   0  0  0  0  0  0  0  0  0  0  0  0
   40.0770   22.9290   36.9440 C   0  0  0  0  0  0  0  0  0  0  0  0
   39.4520   22.9670   38.1290 N   0  0  0  0  0  0  0  0  0  0  0  0
   36.5240   28.2300   33.5770 C   0  0  0  0  0  0  0  0  0  0  0  0
   35.6210   28.1030   32.3750 C   0  0  0  0  0  0  0  0  0  0  0  0
   36.2310   28.6240   31.1440 C   0  0  0  0  0  0  0  0  0  0  0  0
   36.1910   29.9050   30.7010 N   0  0  0  0  0  0  0  0  0  0  0  0
   36.8380   30.0020   29.5770 O   0  0  0  0  0  0  0  0  0  0  0  0
   37.3200   28.8150   29.2400 C   0  0  0  0  0  0  0  0  0  0  0  0
   36.9480   27.9730   30.2000 N   0  0  0  0  0  0  0  0  0  0  0  0
   37.8405   23.7082   39.2810 H   0  0  0  0  0  0  0  0  0  0  0  0
   36.8617   25.0349   37.4037 H   0  0  0  0  0  0  0  0  0  0  0  0
   40.9907   22.3317   36.8086 H   0  0  0  0  0  0  0  0  0  0  0  0
   35.9487   28.5801   34.4468 H   0  0  0  0  0  0  0  0  0  0  0  0
   37.3278   28.9573   33.3900 H   0  0  0  0  0  0  0  0  0  0  0  0
   35.3828   27.0395   32.2258 H   0  0  0  0  0  0  0  0  0  0  0  0
   34.7192   28.7004   32.5750 H   0  0  0  0  0  0  0  0  0  0  0  0
   37.9107   28.5736   28.3440 H   0  0  0  0  0  0  0  0  0  0  0  0
  1  5  1  0
  1  8  1  0
  2  1  2  0
  3  2  1  0
  3  4  1  0
  4  5  2  0
  7  6  2  0
  8  7  1  0
  9  8  2  0
  9 10  1  0
 10 11  2  0
 11  6  1  0
 12  4  1  0
 13 12  1  0
 14 13  1  0
 15 14  2  0
 16 15  1  0
 17 16  1  0
 17 18  2  0
 18 14  1  0
  6 19  1  0
  7 20  1  0
 10 21  1  0
 12 22  1  0
 12 23  1  0
 13 24  1  0
 13 25  1  0
 17 26  1  0
M  ISO  8  19  14  20  14  21  14  22   8  23   8  24   8  25   8  26  14
M  END
>  <minimizedAffinity>  (1) 
-4.41645575

>  <minimizedRMSD>  (1) 
1.51003075

$$$$
