
     RDKit          3D

 34 37  0  0  0  0  0  0  0  0999 V2000
   43.3320   22.6120   33.8620 C   0  0  0  0  0  0  0  0  0  0  0  0
   43.2700   23.9140   34.3880 C   0  0  0  0  0  0  0  0  0  0  0  0
   44.9440   24.6170   33.9230 S   0  0  0  0  0  0  0  0  0  0  0  0
   45.4050   22.9830   33.0960 C   0  0  0  0  0  0  0  0  0  0  0  0
   44.4720   22.4080   33.2860 N   0  0  0  0  0  0  0  0  0  0  0  0
   46.6460   22.6410   32.4230 N   0  0  0  0  0  0  0  0  0  0  0  0
   47.5380   22.0190   33.1870 C   0  0  0  0  0  0  0  0  0  0  0  0
   48.6500   21.7670   32.3910 C   0  0  0  0  0  0  0  0  0  0  0  0
   48.3470   22.2660   31.1690 N   0  0  0  0  0  0  0  0  0  0  0  0
   47.1220   22.8010   31.1850 C   0  0  0  0  0  0  0  0  0  0  0  0
   46.3040   23.4730   30.1420 C   0  0  0  0  0  0  0  0  0  0  0  0
   46.1580   24.9860   30.1940 C   0  0  0  0  0  0  0  0  0  0  0  0
   47.0520   24.3950   29.1640 C   0  0  0  0  0  0  0  0  0  0  0  0
   41.9010   21.5620   34.0870 S   0  0  0  0  0  0  0  0  0  0  0  0
   40.4670   22.3790   37.7190 C   0  0  0  0  0  0  0  0  0  0  0  0
   39.3100   23.1250   37.4580 C   0  0  0  0  0  0  0  0  0  0  0  0
   38.9910   23.3660   36.1250 C   0  0  0  0  0  0  0  0  0  0  0  0
   39.7930   22.8800   35.1160 N   0  0  0  0  0  0  0  0  0  0  0  0
   40.9170   22.1540   35.4450 C   0  0  0  0  0  0  0  0  0  0  0  0
   41.2270   21.9200   36.7220 N   0  0  0  0  0  0  0  0  0  0  0  0
   38.4080   23.6740   38.5020 C   0  0  0  0  0  0  0  0  0  0  0  0
   39.2060   23.8640   39.6290 F   0  0  0  0  0  0  0  0  0  0  0  0
   37.3880   22.8350   38.8210 F   0  0  0  0  0  0  0  0  0  0  0  0
   37.9810   24.9710   38.1710 F   0  0  0  0  0  0  0  0  0  0  0  0
   42.4471   24.3980   34.9344 H   0  0  0  0  0  0  0  0  0  0  0  0
   47.4192   21.7538   34.2479 H   0  0  0  0  0  0  0  0  0  0  0  0
   49.5822   21.2663   32.6915 H   0  0  0  0  0  0  0  0  0  0  0  0
   45.6062   22.6259   30.0677 H   0  0  0  0  0  0  0  0  0  0  0  0
   45.2098   25.4536   29.8903 H   0  0  0  0  0  0  0  0  0  0  0  0
   46.2870   25.7443   30.9804 H   0  0  0  0  0  0  0  0  0  0  0  0
   48.1421   24.5161   29.2483 H   0  0  0  0  0  0  0  0  0  0  0  0
   47.1274   24.4665   28.0689 H   0  0  0  0  0  0  0  0  0  0  0  0
   40.7531   22.1686   38.7601 H   0  0  0  0  0  0  0  0  0  0  0  0
   38.0920   23.9487   35.8753 H   0  0  0  0  0  0  0  0  0  0  0  0
  1 14  1  0
  1  2  2  0
  3  2  1  0
  4  5  2  0
  4  3  1  0
  5  1  1  0
  6  4  1  0
  6  7  1  0
  8  7  2  0
  9 10  2  0
  9  8  1  0
 10  6  1  0
 11 12  1  0
 11 10  1  0
 13 11  1  0
 13 12  1  0
 14 19  1  0
 16 15  2  0
 16 21  1  0
 17 16  1  0
 18 19  1  0
 18 17  2  0
 19 20  2  0
 20 15  1  0
 21 23  1  0
 21 22  1  0
 24 21  1  0
  2 25  1  0
  7 26  1  0
  8 27  1  0
 11 28  1  0
 12 29  1  0
 12 30  1  0
 13 31  1  0
 13 32  1  0
 15 33  1  0
 17 34  1  0
M  ISO  8  25  14  26  14  27  14  28  13  29  13  30  13  31  13  32  13
M  ISO  2  33  14  34  14
M  END
>  <minimizedAffinity>  (1) 
-3.63455629

>  <minimizedRMSD>  (1) 
0.629263818

$$$$
