
     RDKit          3D

 44 48  0  0  0  0  0  0  0  0999 V2000
   36.0650   28.6850   33.3040 C   0  0  0  0  0  0  0  0  0  0  0  0
   35.5540   29.8010   32.5100 C   0  0  0  0  0  0  0  0  0  0  0  0
   35.4660   30.0280   31.1510 C   0  0  0  0  0  0  0  0  0  0  0  0
   34.9110   31.2200   30.8950 N   0  0  0  0  0  0  0  0  0  0  0  0
   34.6280   31.7860   32.0640 C   0  0  0  0  0  0  0  0  0  0  0  0
   35.0130   30.9360   33.0210 N   0  0  0  0  0  0  0  0  0  0  0  0
   34.8140   31.3160   34.3880 C   0  0  0  0  0  0  0  0  0  0  0  0
   35.7820   32.1570   34.9240 C   0  0  0  0  0  0  0  0  0  0  0  0
   35.7770   32.6350   36.2130 C   0  0  0  0  0  0  0  0  0  0  0  0
   34.7210   32.2420   37.0270 C   0  0  0  0  0  0  0  0  0  0  0  0
   33.7530   31.4090   36.5100 C   0  0  0  0  0  0  0  0  0  0  0  0
   32.6830   30.9950   37.2930 C   0  0  0  0  0  0  0  0  0  0  0  0
   31.7190   30.1630   36.7700 C   0  0  0  0  0  0  0  0  0  0  0  0
   31.7840   29.7150   35.4580 C   0  0  0  0  0  0  0  0  0  0  0  0
   32.8390   30.1090   34.6520 C   0  0  0  0  0  0  0  0  0  0  0  0
   33.7860   30.9450   35.2110 C   0  0  0  0  0  0  0  0  0  0  0  0
   37.1350   27.8480   32.6910 C   0  0  0  0  0  0  0  0  0  0  0  0
   36.1320   24.4970   31.7560 C   0  0  0  0  0  0  0  0  0  0  0  0
   35.3400   25.2860   30.9730 N   0  0  0  0  0  0  0  0  0  0  0  0
   35.6460   26.5350   31.2550 O   0  0  0  0  0  0  0  0  0  0  0  0
   36.5770   26.5920   32.1630 C   0  0  0  0  0  0  0  0  0  0  0  0
   36.8950   25.3480   32.4900 N   0  0  0  0  0  0  0  0  0  0  0  0
   37.2270   21.1440   32.9790 C   0  0  0  0  0  0  0  0  0  0  0  0
   37.1410   22.5260   32.8810 C   0  0  0  0  0  0  0  0  0  0  0  0
   36.2610   23.0550   31.9010 C   0  0  0  0  0  0  0  0  0  0  0  0
   35.5500   22.1780   31.1070 N   0  0  0  0  0  0  0  0  0  0  0  0
   35.6810   20.8530   31.2550 C   0  0  0  0  0  0  0  0  0  0  0  0
   36.5100   20.3390   32.1790 N   0  0  0  0  0  0  0  0  0  0  0  0
   36.4655   29.1008   34.2403 H   0  0  0  0  0  0  0  0  0  0  0  0
   35.2077   28.0064   33.4248 H   0  0  0  0  0  0  0  0  0  0  0  0
   35.8071   29.3222   30.3793 H   0  0  0  0  0  0  0  0  0  0  0  0
   34.1631   32.7713   32.2157 H   0  0  0  0  0  0  0  0  0  0  0  0
   36.6119   32.4622   34.2697 H   0  0  0  0  0  0  0  0  0  0  0  0
   36.5725   33.2983   36.5834 H   0  0  0  0  0  0  0  0  0  0  0  0
   34.6591   32.5909   38.0684 H   0  0  0  0  0  0  0  0  0  0  0  0
   32.6055   31.3338   38.3367 H   0  0  0  0  0  0  0  0  0  0  0  0
   30.8790   29.8464   37.4057 H   0  0  0  0  0  0  0  0  0  0  0  0
   31.0022   29.0509   35.0607 H   0  0  0  0  0  0  0  0  0  0  0  0
   32.9196   29.7699   33.6087 H   0  0  0  0  0  0  0  0  0  0  0  0
   37.6046   28.4080   31.8688 H   0  0  0  0  0  0  0  0  0  0  0  0
   37.8799   27.6061   33.4634 H   0  0  0  0  0  0  0  0  0  0  0  0
   37.8975   20.6987   33.7287 H   0  0  0  0  0  0  0  0  0  0  0  0
   37.7307   23.1842   33.5360 H   0  0  0  0  0  0  0  0  0  0  0  0
   35.1013   20.1758   30.6105 H   0  0  0  0  0  0  0  0  0  0  0  0
  2  6  1  0
  2  1  1  0
  3  2  2  0
  4  3  1  0
  4  5  2  0
  5  6  1  0
  6  7  1  0
  7  8  2  0
  7 16  1  0
  8  9  1  0
  9 10  2  0
 11 10  1  0
 11 12  2  0
 13 12  1  0
 14 13  2  0
 15 16  2  0
 15 14  1  0
 16 11  1  0
 17  1  1  0
 18 25  1  0
 18 22  1  0
 19 20  1  0
 19 18  2  0
 20 21  1  0
 21 22  2  0
 21 17  1  0
 24 23  2  0
 25 24  1  0
 26 27  1  0
 26 25  2  0
 27 28  2  0
 28 23  1  0
  1 29  1  0
  1 30  1  0
  3 31  1  0
  5 32  1  0
  8 33  1  0
  9 34  1  0
 10 35  1  0
 12 36  1  0
 13 37  1  0
 14 38  1  0
 15 39  1  0
 17 40  1  0
 17 41  1  0
 23 42  1  0
 24 43  1  0
 27 44  1  0
M  ISO  8  29   8  30   8  31  14  32  14  33  14  34  14  35  14  36  14
M  ISO  8  37  14  38  14  39  14  40   8  41   8  42  14  43  14  44  14
M  END
>  <minimizedAffinity>  (1) 
-6.2412138

>  <minimizedRMSD>  (1) 
7.20894861

$$$$
