
     RDKit          3D

 43 46  0  0  0  0  0  0  0  0999 V2000
   36.7810   28.7850   34.6970 C   0  0  0  0  0  0  0  0  0  0  0  0
   38.0150   25.4470   35.3870 C   0  0  0  0  0  0  0  0  0  0  0  0
   37.5790   25.3650   34.1050 N   0  0  0  0  0  0  0  0  0  0  0  0
   37.1150   26.5460   33.7860 O   0  0  0  0  0  0  0  0  0  0  0  0
   37.2190   27.3920   34.7700 C   0  0  0  0  0  0  0  0  0  0  0  0
   37.7730   26.7430   35.7790 N   0  0  0  0  0  0  0  0  0  0  0  0
   38.7030   23.4110   38.4480 C   0  0  0  0  0  0  0  0  0  0  0  0
   38.0720   24.3280   37.6110 C   0  0  0  0  0  0  0  0  0  0  0  0
   38.6270   24.5020   36.3120 C   0  0  0  0  0  0  0  0  0  0  0  0
   39.7320   23.7660   35.9730 N   0  0  0  0  0  0  0  0  0  0  0  0
   40.2870   22.9050   36.8220 C   0  0  0  0  0  0  0  0  0  0  0  0
   39.7790   22.7250   38.0510 N   0  0  0  0  0  0  0  0  0  0  0  0
   35.3530   28.8870   34.2880 C   0  0  0  0  0  0  0  0  0  0  0  0
   35.0200   29.8410   33.2330 C   0  0  0  0  0  0  0  0  0  0  0  0
   35.0960   29.7980   31.8590 C   0  0  0  0  0  0  0  0  0  0  0  0
   34.6650   30.9460   31.3150 N   0  0  0  0  0  0  0  0  0  0  0  0
   34.3030   31.7500   32.3080 C   0  0  0  0  0  0  0  0  0  0  0  0
   34.5170   31.0870   33.4490 N   0  0  0  0  0  0  0  0  0  0  0  0
   34.2420   32.0340   37.5310 N   0  0  0  0  0  0  0  0  0  0  0  0
   35.1080   32.8210   36.7070 C   0  0  0  0  0  0  0  0  0  0  0  0
   35.4790   32.1440   35.4020 C   0  0  0  0  0  0  0  0  0  0  0  0
   34.2040   31.7430   34.7190 C   0  0  0  0  0  0  0  0  0  0  0  0
   33.4640   30.7920   35.6470 C   0  0  0  0  0  0  0  0  0  0  0  0
   33.0460   31.6210   36.8460 C   0  0  0  0  0  0  0  0  0  0  0  0
   36.9037   29.2506   35.6860 H   0  0  0  0  0  0  0  0  0  0  0  0
   37.3938   29.3005   33.9429 H   0  0  0  0  0  0  0  0  0  0  0  0
   38.3060   23.2474   39.4607 H   0  0  0  0  0  0  0  0  0  0  0  0
   37.1859   24.8915   37.9386 H   0  0  0  0  0  0  0  0  0  0  0  0
   41.1741   22.3330   36.5124 H   0  0  0  0  0  0  0  0  0  0  0  0
   35.0370   27.8913   33.9435 H   0  0  0  0  0  0  0  0  0  0  0  0
   34.8320   29.2634   35.1807 H   0  0  0  0  0  0  0  0  0  0  0  0
   35.4621   28.9354   31.2829 H   0  0  0  0  0  0  0  0  0  0  0  0
   33.9024   32.7698   32.2101 H   0  0  0  0  0  0  0  0  0  0  0  0
   34.7529   31.1937   37.8373 H   0  0  0  0  0  0  0  0  0  0  0  0
   34.6016   33.7697   36.4757 H   0  0  0  0  0  0  0  0  0  0  0  0
   36.0408   32.9732   37.2698 H   0  0  0  0  0  0  0  0  0  0  0  0
   36.0423   32.8415   34.7647 H   0  0  0  0  0  0  0  0  0  0  0  0
   36.1096   31.2626   35.5902 H   0  0  0  0  0  0  0  0  0  0  0  0
   33.5764   32.6205   34.5043 H   0  0  0  0  0  0  0  0  0  0  0  0
   32.5794   30.3763   35.1424 H   0  0  0  0  0  0  0  0  0  0  0  0
   34.0979   29.9436   35.9443 H   0  0  0  0  0  0  0  0  0  0  0  0
   32.4815   32.5042   36.5123 H   0  0  0  0  0  0  0  0  0  0  0  0
   32.4023   31.0320   37.5159 H   0  0  0  0  0  0  0  0  0  0  0  0
  1  5  1  0
  2  6  1  0
  2  9  1  0
  3  2  2  0
  4  3  1  0
  4  5  1  0
  5  6  2  0
  8  7  2  0
  9  8  1  0
 10  9  2  0
 10 11  1  0
 11 12  2  0
 12  7  1  0
 13  1  1  0
 14 18  1  0
 14 13  1  0
 15 14  2  0
 16 15  1  0
 16 17  2  0
 17 18  1  0
 18 22  1  0
 20 19  1  0
 21 20  1  0
 22 21  1  0
 22 23  1  0
 23 24  1  0
 24 19  1  0
  1 25  1  0
  1 26  1  0
  7 27  1  0
  8 28  1  0
 11 29  1  0
 13 30  1  0
 13 31  1  0
 15 32  1  0
 17 33  1  0
 19 34  1  0
 20 35  1  0
 20 36  1  0
 21 37  1  0
 21 38  1  0
 22 39  1  0
 23 40  1  0
 23 41  1  0
 24 42  1  0
 24 43  1  0
M  ISO  8  25   8  26   8  27  14  28  14  29  14  30   8  31   8  32  14
M  ISO  8  33  14  34   5  35  13  36  13  37  13  38  13  39  13  40  13
M  ISO  3  41  13  42  13  43  13
M  END
>  <minimizedAffinity>  (1) 
-5.33427382

>  <minimizedRMSD>  (1) 
5.32744169

$$$$
