
     RDKit          3D

 38 41  0  0  0  0  0  0  0  0999 V2000
   35.7260   28.4480   33.3280 C   0  0  0  0  0  0  0  0  0  0  0  0
   36.1670   29.0060   32.0520 C   0  0  0  0  0  0  0  0  0  0  0  0
   36.3750   30.2930   31.5970 C   0  0  0  0  0  0  0  0  0  0  0  0
   36.7960   30.2800   30.3140 N   0  0  0  0  0  0  0  0  0  0  0  0
   36.8710   29.0080   29.9160 C   0  0  0  0  0  0  0  0  0  0  0  0
   36.4940   28.2670   30.9590 N   0  0  0  0  0  0  0  0  0  0  0  0
   36.4440   26.8200   30.9150 C   0  0  0  0  0  0  0  0  0  0  0  0
   35.2820   26.0760   31.0250 C   0  0  0  0  0  0  0  0  0  0  0  0
   35.3530   24.6960   30.9680 C   0  0  0  0  0  0  0  0  0  0  0  0
   36.5650   24.0390   30.8050 C   0  0  0  0  0  0  0  0  0  0  0  0
   37.7340   24.7790   30.6950 C   0  0  0  0  0  0  0  0  0  0  0  0
   37.6740   26.1710   30.7500 C   0  0  0  0  0  0  0  0  0  0  0  0
   36.7200   28.3870   34.4330 C   0  0  0  0  0  0  0  0  0  0  0  0
   37.9820   25.1570   35.5010 C   0  0  0  0  0  0  0  0  0  0  0  0
   37.5210   24.9150   34.2600 N   0  0  0  0  0  0  0  0  0  0  0  0
   37.0400   26.0410   33.7860 O   0  0  0  0  0  0  0  0  0  0  0  0
   37.1620   27.0010   34.6560 C   0  0  0  0  0  0  0  0  0  0  0  0
   37.7430   26.4810   35.7260 N   0  0  0  0  0  0  0  0  0  0  0  0
   38.7000   23.4840   38.7670 C   0  0  0  0  0  0  0  0  0  0  0  0
   38.0620   24.2880   37.8360 C   0  0  0  0  0  0  0  0  0  0  0  0
   38.6170   24.3260   36.5190 C   0  0  0  0  0  0  0  0  0  0  0  0
   39.7360   23.5740   36.2520 N   0  0  0  0  0  0  0  0  0  0  0  0
   40.3000   22.8200   37.2010 C   0  0  0  0  0  0  0  0  0  0  0  0
   39.7970   22.7710   38.4380 N   0  0  0  0  0  0  0  0  0  0  0  0
   35.3828   27.4205   33.1369 H   0  0  0  0  0  0  0  0  0  0  0  0
   34.9532   29.1445   33.6854 H   0  0  0  0  0  0  0  0  0  0  0  0
   36.2194   31.2022   32.1962 H   0  0  0  0  0  0  0  0  0  0  0  0
   37.1817   28.6437   28.9257 H   0  0  0  0  0  0  0  0  0  0  0  0
   34.3118   26.5773   31.1564 H   0  0  0  0  0  0  0  0  0  0  0  0
   34.4286   24.1059   31.0537 H   0  0  0  0  0  0  0  0  0  0  0  0
   36.5986   22.9403   30.7633 H   0  0  0  0  0  0  0  0  0  0  0  0
   38.7010   24.2710   30.5653 H   0  0  0  0  0  0  0  0  0  0  0  0
   38.5975   26.7624   30.6633 H   0  0  0  0  0  0  0  0  0  0  0  0
   37.5905   29.0063   34.1709 H   0  0  0  0  0  0  0  0  0  0  0  0
   36.2499   28.7619   35.3541 H   0  0  0  0  0  0  0  0  0  0  0  0
   38.3051   23.4261   39.7921 H   0  0  0  0  0  0  0  0  0  0  0  0
   37.1674   24.8716   38.0988 H   0  0  0  0  0  0  0  0  0  0  0  0
   41.1953   22.2286   36.9589 H   0  0  0  0  0  0  0  0  0  0  0  0
  1 13  1  0
  2  1  1  0
  3  2  2  0
  4  3  1  0
  5  4  2  0
  5  6  1  0
  6  2  1  0
  7  6  1  0
  7  8  2  0
  9  8  1  0
 10  9  2  0
 11 12  2  0
 11 10  1  0
 12  7  1  0
 13 17  1  0
 14 18  1  0
 14 21  1  0
 15 14  2  0
 16 15  1  0
 16 17  1  0
 17 18  2  0
 20 19  2  0
 21 20  1  0
 22 21  2  0
 22 23  1  0
 23 24  2  0
 24 19  1  0
  1 25  1  0
  1 26  1  0
  3 27  1  0
  5 28  1  0
  8 29  1  0
  9 30  1  0
 10 31  1  0
 11 32  1  0
 12 33  1  0
 13 34  1  0
 13 35  1  0
 19 36  1  0
 20 37  1  0
 23 38  1  0
M  ISO  8  25   8  26   8  27  14  28  14  29  14  30  14  31  14  32  14
M  ISO  6  33  14  34   8  35   8  36  14  37  14  38  14
M  END
>  <minimizedAffinity>  (1) 
-5.32245731

>  <minimizedRMSD>  (1) 
1.00525546

$$$$
