
     RDKit          3D

 35 38  0  0  0  0  0  0  0  0999 V2000
   36.5400   28.4160   34.6570 C   0  0  0  0  0  0  0  0  0  0  0  0
   38.1040   25.1950   35.2580 C   0  0  0  0  0  0  0  0  0  0  0  0
   37.7010   25.1120   33.9700 N   0  0  0  0  0  0  0  0  0  0  0  0
   37.1180   26.2530   33.6730 O   0  0  0  0  0  0  0  0  0  0  0  0
   37.1190   27.0700   34.6910 C   0  0  0  0  0  0  0  0  0  0  0  0
   37.7230   26.4410   35.6850 N   0  0  0  0  0  0  0  0  0  0  0  0
   38.9930   23.1910   38.2950 C   0  0  0  0  0  0  0  0  0  0  0  0
   38.2860   24.0620   37.4730 C   0  0  0  0  0  0  0  0  0  0  0  0
   38.7960   24.2920   36.1720 C   0  0  0  0  0  0  0  0  0  0  0  0
   39.9550   23.6430   35.8030 N   0  0  0  0  0  0  0  0  0  0  0  0
   40.5880   22.8220   36.6290 C   0  0  0  0  0  0  0  0  0  0  0  0
   40.1120   22.5970   37.8630 N   0  0  0  0  0  0  0  0  0  0  0  0
   35.7690   28.6350   33.3990 C   0  0  0  0  0  0  0  0  0  0  0  0
   35.9320   29.9210   32.7280 C   0  0  0  0  0  0  0  0  0  0  0  0
   36.4070   30.2870   31.4970 C   0  0  0  0  0  0  0  0  0  0  0  0
   36.3590   31.6240   31.3330 N   0  0  0  0  0  0  0  0  0  0  0  0
   35.8560   32.1480   32.4460 C   0  0  0  0  0  0  0  0  0  0  0  0
   35.6050   31.1270   33.2720 N   0  0  0  0  0  0  0  0  0  0  0  0
   35.0530   31.3660   34.5660 C   0  0  0  0  0  0  0  0  0  0  0  0
   35.7130   31.8410   35.6800 C   0  0  0  0  0  0  0  0  0  0  0  0
   35.0230   32.0070   36.8350 C   0  0  0  0  0  0  0  0  0  0  0  0
   33.6180   31.6530   36.7690 C   0  0  0  0  0  0  0  0  0  0  0  0
   33.3880   31.0860   34.9750 S   0  0  0  0  0  0  0  0  0  0  0  0
   35.8664   28.5396   35.5178 H   0  0  0  0  0  0  0  0  0  0  0  0
   37.3579   29.1503   34.6989 H   0  0  0  0  0  0  0  0  0  0  0  0
   38.6281   22.9878   39.3126 H   0  0  0  0  0  0  0  0  0  0  0  0
   37.3654   24.5537   37.8203 H   0  0  0  0  0  0  0  0  0  0  0  0
   41.5106   22.3213   36.3002 H   0  0  0  0  0  0  0  0  0  0  0  0
   36.0682   27.8511   32.6876 H   0  0  0  0  0  0  0  0  0  0  0  0
   34.7134   28.6097   33.7073 H   0  0  0  0  0  0  0  0  0  0  0  0
   36.7795   29.5813   30.7399 H   0  0  0  0  0  0  0  0  0  0  0  0
   35.6803   33.2148   32.6484 H   0  0  0  0  0  0  0  0  0  0  0  0
   36.7852   32.0820   35.6319 H   0  0  0  0  0  0  0  0  0  0  0  0
   35.4943   32.3828   37.7552 H   0  0  0  0  0  0  0  0  0  0  0  0
   32.8651   31.7019   37.5695 H   0  0  0  0  0  0  0  0  0  0  0  0
  1  5  1  0
  2  6  1  0
  2  9  1  0
  3  2  2  0
  4  3  1  0
  4  5  1  0
  5  6  2  0
  8  7  2  0
  9  8  1  0
 10  9  2  0
 10 11  1  0
 11 12  2  0
 12  7  1  0
 13  1  1  0
 14 18  1  0
 14 13  1  0
 15 14  2  0
 16 15  1  0
 16 17  2  0
 17 18  1  0
 18 19  1  0
 19 23  1  0
 19 20  2  0
 20 21  1  0
 22 21  2  0
 23 22  1  0
  1 24  1  0
  1 25  1  0
  7 26  1  0
  8 27  1  0
 11 28  1  0
 13 29  1  0
 13 30  1  0
 15 31  1  0
 17 32  1  0
 20 33  1  0
 21 34  1  0
 22 35  1  0
M  ISO  8  24   8  25   8  26  14  27  14  28  14  29   8  30   8  31  14
M  ISO  4  32  14  33  14  34  14  35  14
M  END
>  <minimizedAffinity>  (1) 
-5.28485966

>  <minimizedRMSD>  (1) 
4.74687672

$$$$
