
     RDKit          3D

 44 47  0  0  0  0  0  0  0  0999 V2000
   36.3440   28.3720   34.2660 C   0  0  0  0  0  0  0  0  0  0  0  0
   37.9560   25.2340   35.1310 C   0  0  0  0  0  0  0  0  0  0  0  0
   37.6990   25.1060   33.8170 N   0  0  0  0  0  0  0  0  0  0  0  0
   37.1080   26.2120   33.4180 O   0  0  0  0  0  0  0  0  0  0  0  0
   36.9680   27.0520   34.4050 C   0  0  0  0  0  0  0  0  0  0  0  0
   37.4820   26.4710   35.4650 N   0  0  0  0  0  0  0  0  0  0  0  0
   38.6610   23.4500   38.3470 C   0  0  0  0  0  0  0  0  0  0  0  0
   37.9960   24.2770   37.4360 C   0  0  0  0  0  0  0  0  0  0  0  0
   38.5760   24.3950   36.1480 C   0  0  0  0  0  0  0  0  0  0  0  0
   39.7470   23.6930   35.8760 N   0  0  0  0  0  0  0  0  0  0  0  0
   40.3210   22.9240   36.7990 C   0  0  0  0  0  0  0  0  0  0  0  0
   39.7930   22.8010   38.0140 N   0  0  0  0  0  0  0  0  0  0  0  0
   35.7080   28.5250   32.9270 C   0  0  0  0  0  0  0  0  0  0  0  0
   36.1190   29.6710   32.1180 C   0  0  0  0  0  0  0  0  0  0  0  0
   35.9450   31.0310   32.2580 C   0  0  0  0  0  0  0  0  0  0  0  0
   36.5150   31.7010   31.2410 N   0  0  0  0  0  0  0  0  0  0  0  0
   37.0690   30.7810   30.4240 C   0  0  0  0  0  0  0  0  0  0  0  0
   36.8200   29.5860   30.9670 N   0  0  0  0  0  0  0  0  0  0  0  0
   37.3280   28.4200   30.2490 C   0  0  0  0  0  0  0  0  0  0  0  0
   38.6060   27.9430   30.8930 C   0  0  0  0  0  0  0  0  0  0  0  0
   39.0380   26.7000   30.1180 C   0  0  0  0  0  0  0  0  0  0  0  0
   39.5560   27.1710   28.7970 C   0  0  0  0  0  0  0  0  0  0  0  0
   38.9140   28.4290   28.2850 C   0  0  0  0  0  0  0  0  0  0  0  0
   37.5520   28.7230   28.7910 C   0  0  0  0  0  0  0  0  0  0  0  0
   35.5759   28.4903   35.0445 H   0  0  0  0  0  0  0  0  0  0  0  0
   37.1236   29.1406   34.3730 H   0  0  0  0  0  0  0  0  0  0  0  0
   38.2496   23.3267   39.3597 H   0  0  0  0  0  0  0  0  0  0  0  0
   37.0711   24.8082   37.7050 H   0  0  0  0  0  0  0  0  0  0  0  0
   41.2461   22.3820   36.5532 H   0  0  0  0  0  0  0  0  0  0  0  0
   35.9305   27.6157   32.3494 H   0  0  0  0  0  0  0  0  0  0  0  0
   34.6419   28.6952   33.1379 H   0  0  0  0  0  0  0  0  0  0  0  0
   35.4095   31.5065   33.0930 H   0  0  0  0  0  0  0  0  0  0  0  0
   37.6190   30.9769   29.4917 H   0  0  0  0  0  0  0  0  0  0  0  0
   36.5721   27.6230   30.3069 H   0  0  0  0  0  0  0  0  0  0  0  0
   39.3800   28.7217   30.8261 H   0  0  0  0  0  0  0  0  0  0  0  0
   38.4567   27.7177   31.9593 H   0  0  0  0  0  0  0  0  0  0  0  0
   39.8290   26.1679   30.6667 H   0  0  0  0  0  0  0  0  0  0  0  0
   38.1953   26.0054   29.9859 H   0  0  0  0  0  0  0  0  0  0  0  0
   40.6361   27.3536   28.8975 H   0  0  0  0  0  0  0  0  0  0  0  0
   39.3173   26.3813   28.0694 H   0  0  0  0  0  0  0  0  0  0  0  0
   38.8556   28.3536   27.1891 H   0  0  0  0  0  0  0  0  0  0  0  0
   39.5469   29.2513   28.6500 H   0  0  0  0  0  0  0  0  0  0  0  0
   37.3540   29.7933   28.6320 H   0  0  0  0  0  0  0  0  0  0  0  0
   36.8714   28.0616   28.2348 H   0  0  0  0  0  0  0  0  0  0  0  0
  1  5  1  0
  2  6  1  0
  2  9  1  0
  3  2  2  0
  4  3  1  0
  4  5  1  0
  5  6  2  0
  8  7  2  0
  9  8  1  0
 10  9  2  0
 10 11  1  0
 11 12  2  0
 12  7  1  0
 13  1  1  0
 14 15  2  0
 14 13  1  0
 16 15  1  0
 17 18  1  0
 17 16  2  0
 18 14  1  0
 19 20  1  0
 19 18  1  0
 21 20  1  0
 22 21  1  0
 23 24  1  0
 23 22  1  0
 24 19  1  0
  1 25  1  0
  1 26  1  0
  7 27  1  0
  8 28  1  0
 11 29  1  0
 13 30  1  0
 13 31  1  0
 15 32  1  0
 17 33  1  0
 19 34  1  0
 20 35  1  0
 20 36  1  0
 21 37  1  0
 21 38  1  0
 22 39  1  0
 22 40  1  0
 23 41  1  0
 23 42  1  0
 24 43  1  0
 24 44  1  0
M  ISO  8  25   8  26   8  27  14  28  14  29  14  30   8  31   8  32  14
M  ISO  8  33  14  34  13  35  13  36  13  37  13  38  13  39  13  40  13
M  ISO  4  41  13  42  13  43  13  44  13
M  END
>  <minimizedAffinity>  (1) 
-5.16790628

>  <minimizedRMSD>  (1) 
1.92314029

$$$$
