
     RDKit          3D

 24 25  0  0  1  0  0  0  0  0999 V2000
   38.6930   26.0110   35.0130 C   0  0  2  0  0  0  0  0  0  0  0  0
   39.5520   23.0530   36.9850 C   0  0  0  0  0  0  0  0  0  0  0  0
   38.7840   23.1990   38.1790 C   0  0  0  0  0  0  0  0  0  0  0  0
   37.9700   24.3400   38.2790 C   0  0  0  0  0  0  0  0  0  0  0  0
   37.9690   25.2310   37.2230 N   0  0  0  0  0  0  0  0  0  0  0  0
   38.7140   25.0470   36.1170 C   0  0  0  0  0  0  0  0  0  0  0  0
   39.5010   23.9620   36.0000 N   0  0  0  0  0  0  0  0  0  0  0  0
   40.0400   26.6900   34.9350 C   0  0  0  0  0  0  0  0  0  0  0  0
   37.6450   27.0870   35.1880 C   0  0  0  0  0  0  0  0  0  0  0  0
   36.8880   27.3740   33.9540 C   0  0  0  0  0  0  0  0  0  0  0  0
   36.7570   26.6480   32.8270 N   0  0  0  0  0  0  0  0  0  0  0  0
   35.9890   27.2910   31.9920 O   0  0  0  0  0  0  0  0  0  0  0  0
   35.5900   28.4300   32.5070 C   0  0  0  0  0  0  0  0  0  0  0  0
   36.1500   28.4750   33.7230 N   0  0  0  0  0  0  0  0  0  0  0  0
   38.4546   25.4478   34.0987 H   0  0  0  0  0  0  0  0  0  0  0  0
   40.2020   22.1731   36.8696 H   0  0  0  0  0  0  0  0  0  0  0  0
   38.8273   22.4517   38.9850 H   0  0  0  0  0  0  0  0  0  0  0  0
   37.3520   24.5185   39.1713 H   0  0  0  0  0  0  0  0  0  0  0  0
   40.4148   26.8789   35.9518 H   0  0  0  0  0  0  0  0  0  0  0  0
   40.7474   26.0408   34.3982 H   0  0  0  0  0  0  0  0  0  0  0  0
   39.9388   27.6448   34.3982 H   0  0  0  0  0  0  0  0  0  0  0  0
   36.9366   26.7609   35.9638 H   0  0  0  0  0  0  0  0  0  0  0  0
   38.1719   28.0111   35.4681 H   0  0  0  0  0  0  0  0  0  0  0  0
   34.9378   29.1837   32.0416 H   0  0  0  0  0  0  0  0  0  0  0  0
  1  9  1  0
  1  6  1  0
  2  3  2  0
  3  4  1  0
  5  4  2  0
  6  5  1  0
  7  6  2  0
  7  2  1  0
  8  1  1  0
 10  9  1  0
 11 10  2  0
 12 13  1  0
 12 11  1  0
 13 14  2  0
 14 10  1  0
  1 15  1  6
  2 16  1  0
  3 17  1  0
  4 18  1  0
  8 19  1  0
  8 20  1  0
  8 21  1  0
  9 22  1  0
  9 23  1  0
 13 24  1  0
M  ISO  8  15   8  16  14  17  14  18  14  19   8  20   8  21   8  22   8
M  ISO  2  23   8  24  14
M  END
>  <minimizedAffinity>  (1) 
-3.98922896

>  <minimizedRMSD>  (1) 
2.15498734

$$$$
