
     RDKit          3D

 44 48  0  0  0  0  0  0  0  0999 V2000
   35.8670   30.0280   32.7990 C   0  0  0  0  0  0  0  0  0  0  0  0
   36.3950   30.4870   31.6110 C   0  0  0  0  0  0  0  0  0  0  0  0
   36.2600   31.8210   31.4880 N   0  0  0  0  0  0  0  0  0  0  0  0
   35.6460   32.2510   32.5860 C   0  0  0  0  0  0  0  0  0  0  0  0
   35.4110   31.1870   33.3670 N   0  0  0  0  0  0  0  0  0  0  0  0
   34.7670   31.2860   34.6250 C   0  0  0  0  0  0  0  0  0  0  0  0
   35.4110   31.9470   35.6520 C   0  0  0  0  0  0  0  0  0  0  0  0
   34.8880   32.1150   36.9330 C   0  0  0  0  0  0  0  0  0  0  0  0
   33.6630   31.5930   37.1890 N   0  0  0  0  0  0  0  0  0  0  0  0
   33.0380   30.9450   36.1750 C   0  0  0  0  0  0  0  0  0  0  0  0
   33.5630   30.7990   34.9530 N   0  0  0  0  0  0  0  0  0  0  0  0
   31.7170   30.3900   36.4710 C   0  0  0  0  0  0  0  0  0  0  0  0
   31.6090   29.0720   36.9300 C   0  0  0  0  0  0  0  0  0  0  0  0
   30.3740   28.5790   37.1980 C   0  0  0  0  0  0  0  0  0  0  0  0
   29.2580   29.3030   37.0420 N   0  0  0  0  0  0  0  0  0  0  0  0
   29.4030   30.5670   36.5970 C   0  0  0  0  0  0  0  0  0  0  0  0
   30.5990   31.0970   36.3210 N   0  0  0  0  0  0  0  0  0  0  0  0
   35.7600   28.7080   33.4020 C   0  0  0  0  0  0  0  0  0  0  0  0
   36.5280   28.4840   34.6590 C   0  0  0  0  0  0  0  0  0  0  0  0
   38.0720   25.2670   35.2780 C   0  0  0  0  0  0  0  0  0  0  0  0
   37.6620   25.1740   33.9790 N   0  0  0  0  0  0  0  0  0  0  0  0
   37.0870   26.3110   33.6760 O   0  0  0  0  0  0  0  0  0  0  0  0
   37.0990   27.1320   34.6940 C   0  0  0  0  0  0  0  0  0  0  0  0
   37.7050   26.5080   35.7020 N   0  0  0  0  0  0  0  0  0  0  0  0
   38.9420   23.2310   38.2770 C   0  0  0  0  0  0  0  0  0  0  0  0
   38.2280   24.1290   37.4760 C   0  0  0  0  0  0  0  0  0  0  0  0
   38.7570   24.3500   36.1650 C   0  0  0  0  0  0  0  0  0  0  0  0
   39.9050   23.6840   35.7860 N   0  0  0  0  0  0  0  0  0  0  0  0
   40.5250   22.8390   36.6220 C   0  0  0  0  0  0  0  0  0  0  0  0
   40.0510   22.6140   37.8520 N   0  0  0  0  0  0  0  0  0  0  0  0
   36.8686   29.8423   30.8560 H   0  0  0  0  0  0  0  0  0  0  0  0
   35.3786   33.2936   32.8131 H   0  0  0  0  0  0  0  0  0  0  0  0
   36.4051   32.3701   35.4450 H   0  0  0  0  0  0  0  0  0  0  0  0
   35.4503   32.6531   37.7104 H   0  0  0  0  0  0  0  0  0  0  0  0
   32.5054   28.4501   37.0702 H   0  0  0  0  0  0  0  0  0  0  0  0
   30.2855   27.5433   37.5578 H   0  0  0  0  0  0  0  0  0  0  0  0
   28.5042   31.1853   36.4557 H   0  0  0  0  0  0  0  0  0  0  0  0
   34.6977   28.5275   33.6234 H   0  0  0  0  0  0  0  0  0  0  0  0
   36.1991   28.0172   32.6671 H   0  0  0  0  0  0  0  0  0  0  0  0
   37.3432   29.2202   34.7183 H   0  0  0  0  0  0  0  0  0  0  0  0
   35.8432   28.5969   35.5124 H   0  0  0  0  0  0  0  0  0  0  0  0
   38.5781   23.0244   39.2943 H   0  0  0  0  0  0  0  0  0  0  0  0
   37.3174   24.6333   37.8317 H   0  0  0  0  0  0  0  0  0  0  0  0
   41.4381   22.3226   36.2909 H   0  0  0  0  0  0  0  0  0  0  0  0
  1  5  1  0
  1 18  1  0
  2  1  2  0
  3  2  1  0
  3  4  2  0
  4  5  1  0
  5  6  1  0
  6 11  1  0
  6  7  2  0
  7  8  1  0
  8  9  2  0
 10 12  1  0
 10  9  1  0
 11 10  2  0
 12 13  2  0
 13 14  1  0
 15 14  2  0
 16 15  1  0
 17 12  1  0
 17 16  2  0
 18 19  1  0
 19 23  1  0
 20 24  1  0
 20 27  1  0
 21 20  2  0
 22 21  1  0
 22 23  1  0
 23 24  2  0
 26 25  2  0
 27 26  1  0
 28 27  2  0
 28 29  1  0
 29 30  2  0
 30 25  1  0
  2 31  1  0
  4 32  1  0
  7 33  1  0
  8 34  1  0
 13 35  1  0
 14 36  1  0
 16 37  1  0
 18 38  1  0
 18 39  1  0
 19 40  1  0
 19 41  1  0
 25 42  1  0
 26 43  1  0
 29 44  1  0
M  ISO  8  31  14  32  14  33  14  34  14  35  14  36  14  37  14  38   8
M  ISO  6  39   8  40   8  41   8  42  14  43  14  44  14
M  END
>  <minimizedAffinity>  (1) 
-6.10472918

>  <minimizedRMSD>  (1) 
0.502975762

$$$$
