
     RDKit          3D

 49 53  0  0  0  0  0  0  0  0999 V2000
   35.8140   28.6950   33.2820 C   0  0  0  0  0  0  0  0  0  0  0  0
   35.8610   30.0450   32.7270 C   0  0  0  0  0  0  0  0  0  0  0  0
   36.4140   30.5790   31.5820 C   0  0  0  0  0  0  0  0  0  0  0  0
   36.1950   31.8900   31.5000 N   0  0  0  0  0  0  0  0  0  0  0  0
   35.5020   32.2450   32.5760 C   0  0  0  0  0  0  0  0  0  0  0  0
   35.3010   31.1490   33.3090 N   0  0  0  0  0  0  0  0  0  0  0  0
   34.5900   31.1550   34.5370 C   0  0  0  0  0  0  0  0  0  0  0  0
   35.1070   31.8870   35.5900 C   0  0  0  0  0  0  0  0  0  0  0  0
   34.5130   31.9800   36.8500 C   0  0  0  0  0  0  0  0  0  0  0  0
   33.3390   31.3030   37.0610 N   0  0  0  0  0  0  0  0  0  0  0  0
   32.8560   30.5980   36.0230 C   0  0  0  0  0  0  0  0  0  0  0  0
   33.4430   30.5160   34.8050 N   0  0  0  0  0  0  0  0  0  0  0  0
   31.5740   29.8220   36.1580 C   0  0  0  0  0  0  0  0  0  0  0  0
   31.7110   28.9620   37.4120 C   0  0  0  0  0  0  0  0  0  0  0  0
   30.6410   27.9110   37.2090 C   0  0  0  0  0  0  0  0  0  0  0  0
   30.5460   27.7370   35.7210 C   0  0  0  0  0  0  0  0  0  0  0  0
   31.4130   28.8000   35.0820 C   0  0  0  0  0  0  0  0  0  0  0  0
   36.5140   28.4730   34.5740 C   0  0  0  0  0  0  0  0  0  0  0  0
   38.0440   25.2580   35.2610 C   0  0  0  0  0  0  0  0  0  0  0  0
   37.6690   25.1590   33.9610 N   0  0  0  0  0  0  0  0  0  0  0  0
   37.1020   26.2950   33.6350 O   0  0  0  0  0  0  0  0  0  0  0  0
   37.0850   27.1220   34.6370 C   0  0  0  0  0  0  0  0  0  0  0  0
   37.6620   26.5090   35.6610 N   0  0  0  0  0  0  0  0  0  0  0  0
   38.8650   23.2940   38.3230 C   0  0  0  0  0  0  0  0  0  0  0  0
   38.1620   24.1810   37.4990 C   0  0  0  0  0  0  0  0  0  0  0  0
   38.7030   24.3620   36.1800 C   0  0  0  0  0  0  0  0  0  0  0  0
   39.8410   23.6670   35.8370 N   0  0  0  0  0  0  0  0  0  0  0  0
   40.4450   22.8380   36.6960 C   0  0  0  0  0  0  0  0  0  0  0  0
   39.9680   22.6520   37.9180 N   0  0  0  0  0  0  0  0  0  0  0  0
   36.2610   28.0157   32.5412 H   0  0  0  0  0  0  0  0  0  0  0  0
   34.7511   28.5110   33.4972 H   0  0  0  0  0  0  0  0  0  0  0  0
   36.9665   29.9954   30.8309 H   0  0  0  0  0  0  0  0  0  0  0  0
   35.1560   33.2605   32.8190 H   0  0  0  0  0  0  0  0  0  0  0  0
   36.0481   32.4318   35.4240 H   0  0  0  0  0  0  0  0  0  0  0  0
   34.9730   32.5786   37.6500 H   0  0  0  0  0  0  0  0  0  0  0  0
   30.7475   30.5477   36.1473 H   0  0  0  0  0  0  0  0  0  0  0  0
   32.7098   28.5053   37.4733 H   0  0  0  0  0  0  0  0  0  0  0  0
   31.5953   29.5297   38.3470 H   0  0  0  0  0  0  0  0  0  0  0  0
   30.9308   26.9658   37.6912 H   0  0  0  0  0  0  0  0  0  0  0  0
   29.6795   28.2086   37.6528 H   0  0  0  0  0  0  0  0  0  0  0  0
   30.9062   26.7374   35.4361 H   0  0  0  0  0  0  0  0  0  0  0  0
   29.5030   27.8348   35.3855 H   0  0  0  0  0  0  0  0  0  0  0  0
   32.3880   28.3851   34.7865 H   0  0  0  0  0  0  0  0  0  0  0  0
   30.9708   29.2146   34.1641 H   0  0  0  0  0  0  0  0  0  0  0  0
   37.3234   29.2109   34.6761 H   0  0  0  0  0  0  0  0  0  0  0  0
   35.7859   28.5845   35.3910 H   0  0  0  0  0  0  0  0  0  0  0  0
   38.4964   23.1174   39.3442 H   0  0  0  0  0  0  0  0  0  0  0  0
   37.2560   24.7044   37.8385 H   0  0  0  0  0  0  0  0  0  0  0  0
   41.3529   22.3018   36.3825 H   0  0  0  0  0  0  0  0  0  0  0  0
  1 18  1  0
  2  1  1  0
  2  6  1  0
  3  2  2  0
  4  3  1  0
  4  5  2  0
  5  6  1  0
  6  7  1  0
  7 12  1  0
  7  8  2  0
  8  9  1  0
  9 10  2  0
 11 13  1  0
 11 10  1  0
 12 11  2  0
 13 14  1  0
 15 14  1  0
 16 15  1  0
 17 16  1  0
 17 13  1  0
 18 22  1  0
 19 23  1  0
 19 26  1  0
 20 19  2  0
 21 20  1  0
 21 22  1  0
 22 23  2  0
 25 24  2  0
 26 25  1  0
 27 26  2  0
 27 28  1  0
 28 29  2  0
 29 24  1  0
  1 30  1  0
  1 31  1  0
  3 32  1  0
  5 33  1  0
  8 34  1  0
  9 35  1  0
 13 36  1  0
 14 37  1  0
 14 38  1  0
 15 39  1  0
 15 40  1  0
 16 41  1  0
 16 42  1  0
 17 43  1  0
 17 44  1  0
 18 45  1  0
 18 46  1  0
 24 47  1  0
 25 48  1  0
 28 49  1  0
M  ISO  8  30   8  31   8  32  14  33  14  34  14  35  14  36  13  37  13
M  ISO  8  38  13  39  13  40  13  41  13  42  13  43  13  44  13  45   8
M  ISO  4  46   8  47  14  48  14  49  14
M  END
>  <minimizedAffinity>  (1) 
-6.10101509

>  <minimizedRMSD>  (1) 
0.627776027

$$$$
