
     RDKit          3D

 43 47  0  0  0  0  0  0  0  0999 V2000
   36.0820   29.7780   32.3800 C   0  0  0  0  0  0  0  0  0  0  0  0
   36.6480   30.1640   31.1880 C   0  0  0  0  0  0  0  0  0  0  0  0
   36.6300   31.4980   31.0460 N   0  0  0  0  0  0  0  0  0  0  0  0
   36.0580   31.9940   32.1310 C   0  0  0  0  0  0  0  0  0  0  0  0
   35.7260   30.9840   32.9350 N   0  0  0  0  0  0  0  0  0  0  0  0
   35.0900   31.1620   34.1910 C   0  0  0  0  0  0  0  0  0  0  0  0
   35.8200   31.7660   35.2160 C   0  0  0  0  0  0  0  0  0  0  0  0
   35.3170   31.9960   36.4820 C   0  0  0  0  0  0  0  0  0  0  0  0
   34.0310   31.6150   36.7610 N   0  0  0  0  0  0  0  0  0  0  0  0
   33.3540   31.0350   35.7500 C   0  0  0  0  0  0  0  0  0  0  0  0
   33.8210   30.8000   34.5060 N   0  0  0  0  0  0  0  0  0  0  0  0
   31.9900   30.6470   36.0950 C   0  0  0  0  0  0  0  0  0  0  0  0
   30.7010   30.8480   35.6470 C   0  0  0  0  0  0  0  0  0  0  0  0
   29.8830   30.1270   36.5210 C   0  0  0  0  0  0  0  0  0  0  0  0
   30.6590   29.5250   37.4450 N   0  0  0  0  0  0  0  0  0  0  0  0
   31.9320   29.8370   37.1920 N   0  0  0  0  0  0  0  0  0  0  0  0
   35.8470   28.4840   33.0260 C   0  0  0  0  0  0  0  0  0  0  0  0
   36.4250   28.2710   34.3730 C   0  0  0  0  0  0  0  0  0  0  0  0
   38.0760   25.1560   35.2040 C   0  0  0  0  0  0  0  0  0  0  0  0
   37.7610   25.0060   33.8760 N   0  0  0  0  0  0  0  0  0  0  0  0
   37.1540   26.1050   33.4970 O   0  0  0  0  0  0  0  0  0  0  0  0
   37.0530   26.9540   34.4810 C   0  0  0  0  0  0  0  0  0  0  0  0
   37.6150   26.3900   35.5430 N   0  0  0  0  0  0  0  0  0  0  0  0
   38.8420   23.3170   38.3490 C   0  0  0  0  0  0  0  0  0  0  0  0
   38.1620   24.1520   37.4690 C   0  0  0  0  0  0  0  0  0  0  0  0
   38.7380   24.3030   36.1570 C   0  0  0  0  0  0  0  0  0  0  0  0
   39.8980   23.6250   35.8730 N   0  0  0  0  0  0  0  0  0  0  0  0
   40.4840   22.8450   36.7750 C   0  0  0  0  0  0  0  0  0  0  0  0
   39.9780   22.6830   37.9970 N   0  0  0  0  0  0  0  0  0  0  0  0
   37.0631   29.4673   30.4448 H   0  0  0  0  0  0  0  0  0  0  0  0
   35.8854   33.0610   32.3353 H   0  0  0  0  0  0  0  0  0  0  0  0
   36.8538   32.0763   35.0039 H   0  0  0  0  0  0  0  0  0  0  0  0
   35.9381   32.4765   37.2523 H   0  0  0  0  0  0  0  0  0  0  0  0
   30.3834   31.4498   34.7827 H   0  0  0  0  0  0  0  0  0  0  0  0
   28.7864   30.0613   36.4645 H   0  0  0  0  0  0  0  0  0  0  0  0
   30.3263   28.9266   38.2145 H   0  0  0  0  0  0  0  0  0  0  0  0
   34.7582   28.3525   33.1113 H   0  0  0  0  0  0  0  0  0  0  0  0
   36.3634   27.7553   32.3839 H   0  0  0  0  0  0  0  0  0  0  0  0
   37.1822   29.0456   34.5643 H   0  0  0  0  0  0  0  0  0  0  0  0
   35.6124   28.3293   35.1121 H   0  0  0  0  0  0  0  0  0  0  0  0
   38.4407   23.1696   39.3625 H   0  0  0  0  0  0  0  0  0  0  0  0
   37.2352   24.6688   37.7587 H   0  0  0  0  0  0  0  0  0  0  0  0
   41.4117   22.3189   36.5058 H   0  0  0  0  0  0  0  0  0  0  0  0
  1  5  1  0
  1 17  1  0
  2  1  2  0
  3  2  1  0
  3  4  2  0
  4  5  1  0
  5  6  1  0
  6 11  1  0
  6  7  2  0
  7  8  1  0
  8  9  2  0
 10 12  1  0
 10  9  1  0
 11 10  2  0
 12 16  2  0
 13 12  1  0
 13 14  2  0
 14 15  1  0
 16 15  1  0
 17 18  1  0
 18 22  1  0
 19 23  1  0
 19 26  1  0
 20 19  2  0
 21 20  1  0
 21 22  1  0
 22 23  2  0
 25 24  2  0
 26 25  1  0
 27 26  2  0
 27 28  1  0
 28 29  2  0
 29 24  1  0
  2 30  1  0
  4 31  1  0
  7 32  1  0
  8 33  1  0
 13 34  1  0
 14 35  1  0
 15 36  1  0
 17 37  1  0
 17 38  1  0
 18 39  1  0
 18 40  1  0
 24 41  1  0
 25 42  1  0
 28 43  1  0
M  ISO  8  30  14  31  14  32  14  33  14  34  14  35  14  36   9  37   8
M  ISO  6  38   8  39   8  40   8  41  14  42  14  43  14
M  END
>  <minimizedAffinity>  (1) 
-6.07707071

>  <minimizedRMSD>  (1) 
0.472150356

$$$$
