
     RDKit          3D

 42 46  0  0  0  0  0  0  0  0999 V2000
   35.9010   29.9540   32.7300 C   0  0  0  0  0  0  0  0  0  0  0  0
   36.4450   30.3900   31.5550 C   0  0  0  0  0  0  0  0  0  0  0  0
   36.3080   31.7200   31.4230 N   0  0  0  0  0  0  0  0  0  0  0  0
   35.6770   32.1650   32.5010 C   0  0  0  0  0  0  0  0  0  0  0  0
   35.4290   31.1180   33.2880 N   0  0  0  0  0  0  0  0  0  0  0  0
   34.7630   31.2240   34.5350 C   0  0  0  0  0  0  0  0  0  0  0  0
   35.4110   31.8250   35.5950 C   0  0  0  0  0  0  0  0  0  0  0  0
   34.8710   31.9910   36.8600 C   0  0  0  0  0  0  0  0  0  0  0  0
   33.6100   31.5300   37.0830 N   0  0  0  0  0  0  0  0  0  0  0  0
   32.9870   30.9440   36.0380 C   0  0  0  0  0  0  0  0  0  0  0  0
   33.5130   30.7860   34.8130 N   0  0  0  0  0  0  0  0  0  0  0  0
   31.6360   30.4710   36.3330 C   0  0  0  0  0  0  0  0  0  0  0  0
   31.7140   29.0650   36.7620 C   0  0  0  0  0  0  0  0  0  0  0  0
   29.9630   28.5630   37.1080 S   0  0  0  0  0  0  0  0  0  0  0  0
   29.4120   30.3180   36.6220 C   0  0  0  0  0  0  0  0  0  0  0  0
   30.3750   30.8280   36.3590 N   0  0  0  0  0  0  0  0  0  0  0  0
   35.7760   28.6340   33.3590 C   0  0  0  0  0  0  0  0  0  0  0  0
   36.5240   28.4170   34.6280 C   0  0  0  0  0  0  0  0  0  0  0  0
   38.1010   25.2140   35.2710 C   0  0  0  0  0  0  0  0  0  0  0  0
   37.6990   25.1210   33.9780 N   0  0  0  0  0  0  0  0  0  0  0  0
   37.1110   26.2510   33.6560 O   0  0  0  0  0  0  0  0  0  0  0  0
   37.1060   27.0760   34.6700 C   0  0  0  0  0  0  0  0  0  0  0  0
   37.7090   26.4610   35.6720 N   0  0  0  0  0  0  0  0  0  0  0  0
   38.9690   23.2130   38.2970 C   0  0  0  0  0  0  0  0  0  0  0  0
   38.2470   24.1000   37.4830 C   0  0  0  0  0  0  0  0  0  0  0  0
   38.7880   24.3130   36.1680 C   0  0  0  0  0  0  0  0  0  0  0  0
   39.9360   23.6520   35.8160 N   0  0  0  0  0  0  0  0  0  0  0  0
   40.5570   22.8230   36.6600 C   0  0  0  0  0  0  0  0  0  0  0  0
   40.0850   22.6060   37.8750 N   0  0  0  0  0  0  0  0  0  0  0  0
   36.9312   29.7379   30.8145 H   0  0  0  0  0  0  0  0  0  0  0  0
   35.4066   33.2108   32.7087 H   0  0  0  0  0  0  0  0  0  0  0  0
   36.4308   32.1996   35.4229 H   0  0  0  0  0  0  0  0  0  0  0  0
   35.4445   32.4810   37.6606 H   0  0  0  0  0  0  0  0  0  0  0  0
   32.6176   28.4450   36.8570 H   0  0  0  0  0  0  0  0  0  0  0  0
   28.3933   30.7326   36.6035 H   0  0  0  0  0  0  0  0  0  0  0  0
   34.7094   28.4663   33.5695 H   0  0  0  0  0  0  0  0  0  0  0  0
   36.2226   27.9313   32.6401 H   0  0  0  0  0  0  0  0  0  0  0  0
   37.3302   29.1616   34.7023 H   0  0  0  0  0  0  0  0  0  0  0  0
   35.8240   28.5220   35.4700 H   0  0  0  0  0  0  0  0  0  0  0  0
   38.6057   23.0100   39.3152 H   0  0  0  0  0  0  0  0  0  0  0  0
   37.3291   24.5985   37.8280 H   0  0  0  0  0  0  0  0  0  0  0  0
   41.4767   22.3126   36.3380 H   0  0  0  0  0  0  0  0  0  0  0  0
  1  5  1  0
  1 17  1  0
  2  1  2  0
  3  2  1  0
  3  4  2  0
  4  5  1  0
  5  6  1  0
  6 11  1  0
  6  7  2  0
  7  8  1  0
  8  9  2  0
 10 12  1  0
 10  9  1  0
 11 10  2  0
 12 16  1  0
 12 13  2  0
 13 14  1  0
 15 14  1  0
 16 15  2  0
 17 18  1  0
 18 22  1  0
 19 23  1  0
 19 26  1  0
 20 19  2  0
 21 20  1  0
 21 22  1  0
 22 23  2  0
 25 24  2  0
 26 25  1  0
 27 26  2  0
 27 28  1  0
 28 29  2  0
 29 24  1  0
  2 30  1  0
  4 31  1  0
  7 32  1  0
  8 33  1  0
 13 34  1  0
 15 35  1  0
 17 36  1  0
 17 37  1  0
 18 38  1  0
 18 39  1  0
 24 40  1  0
 25 41  1  0
 28 42  1  0
M  ISO  8  30  14  31  14  32  14  33  14  34  14  35  14  36   8  37   8
M  ISO  5  38   8  39   8  40  14  41  14  42  14
M  END
>  <minimizedAffinity>  (1) 
-5.89742947

>  <minimizedRMSD>  (1) 
0.320578992

$$$$
