
     RDKit          3D

 39 42  0  0  0  0  0  0  0  0999 V2000
   35.8260   28.5250   33.2530 C   0  0  0  0  0  0  0  0  0  0  0  0
   35.9920   29.8040   32.5910 C   0  0  0  0  0  0  0  0  0  0  0  0
   36.5030   30.1820   31.3780 C   0  0  0  0  0  0  0  0  0  0  0  0
   36.4400   31.5120   31.2100 N   0  0  0  0  0  0  0  0  0  0  0  0
   35.8940   32.0240   32.2970 C   0  0  0  0  0  0  0  0  0  0  0  0
   35.6230   31.0110   33.1290 N   0  0  0  0  0  0  0  0  0  0  0  0
   35.0190   31.2020   34.4170 C   0  0  0  0  0  0  0  0  0  0  0  0
   35.7220   31.9130   35.3700 C   0  0  0  0  0  0  0  0  0  0  0  0
   35.2340   32.1590   36.6500 C   0  0  0  0  0  0  0  0  0  0  0  0
   34.0000   31.6750   36.9850 N   0  0  0  0  0  0  0  0  0  0  0  0
   33.3490   30.9890   36.0290 C   0  0  0  0  0  0  0  0  0  0  0  0
   33.8020   30.7430   34.7940 N   0  0  0  0  0  0  0  0  0  0  0  0
   32.0350   30.4900   36.4270 C   0  0  0  0  0  0  0  0  0  0  0  0
   31.0630   30.5260   35.6260 O   0  0  0  0  0  0  0  0  0  0  0  0
   31.7450   29.9500   37.6720 O   0  0  0  0  0  0  0  0  0  0  0  0
   36.5460   28.3270   34.5530 C   0  0  0  0  0  0  0  0  0  0  0  0
   38.1340   25.1510   35.2560 C   0  0  0  0  0  0  0  0  0  0  0  0
   37.7350   25.0160   33.9550 N   0  0  0  0  0  0  0  0  0  0  0  0
   37.1420   26.1380   33.6160 O   0  0  0  0  0  0  0  0  0  0  0  0
   37.1340   26.9800   34.6090 C   0  0  0  0  0  0  0  0  0  0  0  0
   37.7420   26.3910   35.6320 N   0  0  0  0  0  0  0  0  0  0  0  0
   38.9990   23.1950   38.3180 C   0  0  0  0  0  0  0  0  0  0  0  0
   38.2850   24.0570   37.4760 C   0  0  0  0  0  0  0  0  0  0  0  0
   38.8310   24.2640   36.1750 C   0  0  0  0  0  0  0  0  0  0  0  0
   39.9930   23.6240   35.8380 N   0  0  0  0  0  0  0  0  0  0  0  0
   40.6180   22.8140   36.6980 C   0  0  0  0  0  0  0  0  0  0  0  0
   40.1360   22.6010   37.9100 N   0  0  0  0  0  0  0  0  0  0  0  0
   36.1752   27.7458   32.5595 H   0  0  0  0  0  0  0  0  0  0  0  0
   34.7577   28.4760   33.5106 H   0  0  0  0  0  0  0  0  0  0  0  0
   36.9137   29.4830   30.6345 H   0  0  0  0  0  0  0  0  0  0  0  0
   35.6973   33.0898   32.4851 H   0  0  0  0  0  0  0  0  0  0  0  0
   36.7154   32.3036   35.1045 H   0  0  0  0  0  0  0  0  0  0  0  0
   35.8289   32.7311   37.3772 H   0  0  0  0  0  0  0  0  0  0  0  0
   30.8294   29.6310   37.8721 H   0  0  0  0  0  0  0  0  0  0  0  0
   37.3461   29.0765   34.6429 H   0  0  0  0  0  0  0  0  0  0  0  0
   35.8299   28.4403   35.3803 H   0  0  0  0  0  0  0  0  0  0  0  0
   38.6231   22.9995   39.3331 H   0  0  0  0  0  0  0  0  0  0  0  0
   37.3550   24.5469   37.8002 H   0  0  0  0  0  0  0  0  0  0  0  0
   41.5498   22.3160   36.3917 H   0  0  0  0  0  0  0  0  0  0  0  0
  1 16  1  0
  2  6  1  0
  2  1  1  0
  3  2  2  0
  4  3  1  0
  4  5  2  0
  5  6  1  0
  6  7  1  0
  7 12  1  0
  7  8  2  0
  8  9  1  0
  9 10  2  0
 11 13  1  0
 11 10  1  0
 12 11  2  0
 13 15  1  0
 14 13  2  0
 16 20  1  0
 17 21  1  0
 17 24  1  0
 18 17  2  0
 19 18  1  0
 19 20  1  0
 20 21  2  0
 23 22  2  0
 24 23  1  0
 25 24  2  0
 25 26  1  0
 26 27  2  0
 27 22  1  0
  1 28  1  0
  1 29  1  0
  3 30  1  0
  5 31  1  0
  8 32  1  0
  9 33  1  0
 15 34  1  0
 16 35  1  0
 16 36  1  0
 22 37  1  0
 23 38  1  0
 26 39  1  0
M  ISO  8  28   8  29   8  30  14  31  14  32  14  33  14  34   3  35   8
M  ISO  4  36   8  37  14  38  14  39  14
M  END
>  <minimizedAffinity>  (1) 
-5.79472637

>  <minimizedRMSD>  (1) 
0.291011512

$$$$
