
     RDKit          3D

 45 48  0  0  0  0  0  0  0  0999 V2000
   35.8330   28.4750   33.2130 C   0  0  0  0  0  0  0  0  0  0  0  0
   36.0450   29.7650   32.5540 C   0  0  0  0  0  0  0  0  0  0  0  0
   36.6140   30.1290   31.3570 C   0  0  0  0  0  0  0  0  0  0  0  0
   36.5770   31.4550   31.1840 N   0  0  0  0  0  0  0  0  0  0  0  0
   35.9890   31.9820   32.2540 C   0  0  0  0  0  0  0  0  0  0  0  0
   35.6690   30.9750   33.0740 N   0  0  0  0  0  0  0  0  0  0  0  0
   35.0180   31.1730   34.3290 C   0  0  0  0  0  0  0  0  0  0  0  0
   35.7600   31.7150   35.3590 C   0  0  0  0  0  0  0  0  0  0  0  0
   35.2220   31.9500   36.6270 C   0  0  0  0  0  0  0  0  0  0  0  0
   33.9260   31.6390   36.8670 N   0  0  0  0  0  0  0  0  0  0  0  0
   33.2250   31.1100   35.8410 C   0  0  0  0  0  0  0  0  0  0  0  0
   33.7290   30.8760   34.6100 N   0  0  0  0  0  0  0  0  0  0  0  0
   31.7990   30.7490   36.0470 C   0  0  0  0  0  0  0  0  0  0  0  0
   31.8050   29.6070   37.0520 C   0  0  0  0  0  0  0  0  0  0  0  0
   31.0580   31.9520   36.6030 C   0  0  0  0  0  0  0  0  0  0  0  0
   36.5020   28.2660   34.5340 C   0  0  0  0  0  0  0  0  0  0  0  0
   38.1360   25.1100   35.2370 C   0  0  0  0  0  0  0  0  0  0  0  0
   37.7440   24.9770   33.9420 N   0  0  0  0  0  0  0  0  0  0  0  0
   37.1330   26.0930   33.6020 O   0  0  0  0  0  0  0  0  0  0  0  0
   37.1100   26.9300   34.5910 C   0  0  0  0  0  0  0  0  0  0  0  0
   37.7200   26.3480   35.6070 N   0  0  0  0  0  0  0  0  0  0  0  0
   39.0310   23.1790   38.3020 C   0  0  0  0  0  0  0  0  0  0  0  0
   38.3110   24.0300   37.4590 C   0  0  0  0  0  0  0  0  0  0  0  0
   38.8360   24.2420   36.1500 C   0  0  0  0  0  0  0  0  0  0  0  0
   40.0030   23.6010   35.8120 N   0  0  0  0  0  0  0  0  0  0  0  0
   40.6330   22.8030   36.6750 C   0  0  0  0  0  0  0  0  0  0  0  0
   40.1750   22.5860   37.8900 N   0  0  0  0  0  0  0  0  0  0  0  0
   36.1945   27.6913   32.5310 H   0  0  0  0  0  0  0  0  0  0  0  0
   34.7555   28.4412   33.4316 H   0  0  0  0  0  0  0  0  0  0  0  0
   37.0446   29.4207   30.6339 H   0  0  0  0  0  0  0  0  0  0  0  0
   35.8003   33.0509   32.4322 H   0  0  0  0  0  0  0  0  0  0  0  0
   36.8137   31.9714   35.1748 H   0  0  0  0  0  0  0  0  0  0  0  0
   35.8454   32.3836   37.4229 H   0  0  0  0  0  0  0  0  0  0  0  0
   31.2990   30.4500   35.1140 H   0  0  0  0  0  0  0  0  0  0  0  0
   31.8028   30.0169   38.0728 H   0  0  0  0  0  0  0  0  0  0  0  0
   30.9101   28.9845   36.9050 H   0  0  0  0  0  0  0  0  0  0  0  0
   32.7064   28.9939   36.9050 H   0  0  0  0  0  0  0  0  0  0  0  0
   31.0782   31.9192   37.7023 H   0  0  0  0  0  0  0  0  0  0  0  0
   31.5442   32.8752   36.2547 H   0  0  0  0  0  0  0  0  0  0  0  0
   30.0148   31.9332   36.2547 H   0  0  0  0  0  0  0  0  0  0  0  0
   37.2847   29.0271   34.6690 H   0  0  0  0  0  0  0  0  0  0  0  0
   35.7512   28.3522   35.3333 H   0  0  0  0  0  0  0  0  0  0  0  0
   38.6604   22.9877   39.3199 H   0  0  0  0  0  0  0  0  0  0  0  0
   37.3808   24.5147   37.7904 H   0  0  0  0  0  0  0  0  0  0  0  0
   41.5652   22.3103   36.3616 H   0  0  0  0  0  0  0  0  0  0  0  0
  1 16  1  0
  2  6  1  0
  2  1  1  0
  3  2  2  0
  4  3  1  0
  4  5  2  0
  5  6  1  0
  6  7  1  0
  7 12  1  0
  7  8  2  0
  8  9  1  0
  9 10  2  0
 11 13  1  0
 11 10  1  0
 12 11  2  0
 13 15  1  0
 13 14  1  0
 16 20  1  0
 17 21  1  0
 17 24  1  0
 18 17  2  0
 19 18  1  0
 19 20  1  0
 20 21  2  0
 23 22  2  0
 24 23  1  0
 25 24  2  0
 25 26  1  0
 26 27  2  0
 27 22  1  0
  1 28  1  0
  1 29  1  0
  3 30  1  0
  5 31  1  0
  8 32  1  0
  9 33  1  0
 13 34  1  0
 14 35  1  0
 14 36  1  0
 14 37  1  0
 15 38  1  0
 15 39  1  0
 15 40  1  0
 16 41  1  0
 16 42  1  0
 22 43  1  0
 23 44  1  0
 26 45  1  0
M  ISO  8  28   8  29   8  30  14  31  14  32  14  33  14  34   8  35   8
M  ISO  8  36   8  37   8  38   8  39   8  40   8  41   8  42   8  43  14
M  ISO  2  44  14  45  14
M  END
>  <minimizedAffinity>  (1) 
-5.74428368

>  <minimizedRMSD>  (1) 
0.289053738

$$$$
