
     RDKit          3D

 25 27  0  0  0  0  0  0  0  0999 V2000
   41.9270   22.3430   36.8730 C   0  0  0  0  0  0  0  0  0  0  0  0
   42.0240   23.5930   36.3410 N   0  0  0  0  0  0  0  0  0  0  0  0
   43.1420   23.8630   35.6370 C   0  0  0  0  0  0  0  0  0  0  0  0
   44.1480   22.9660   35.4420 N   0  0  0  0  0  0  0  0  0  0  0  0
   44.0750   21.7380   35.9520 C   0  0  0  0  0  0  0  0  0  0  0  0
   45.0710   20.8050   35.7770 C   0  0  0  0  0  0  0  0  0  0  0  0
   45.0050   19.5360   36.3000 C   0  0  0  0  0  0  0  0  0  0  0  0
   43.8670   19.2200   37.0330 C   0  0  0  0  0  0  0  0  0  0  0  0
   42.8510   20.1480   37.2210 C   0  0  0  0  0  0  0  0  0  0  0  0
   42.9380   21.4190   36.6850 C   0  0  0  0  0  0  0  0  0  0  0  0
   40.8160   21.9230   37.6310 O   0  0  0  0  0  0  0  0  0  0  0  0
   39.6400   22.6280   37.4520 C   0  0  0  0  0  0  0  0  0  0  0  0
   39.1940   23.4170   38.5240 C   0  0  0  0  0  0  0  0  0  0  0  0
   38.0010   24.1200   38.3140 C   0  0  0  0  0  0  0  0  0  0  0  0
   37.3380   24.0170   37.1230 N   0  0  0  0  0  0  0  0  0  0  0  0
   37.8250   23.2390   36.1330 C   0  0  0  0  0  0  0  0  0  0  0  0
   38.9710   22.5440   36.2900 N   0  0  0  0  0  0  0  0  0  0  0  0
   43.2474   24.8648   35.1951 H   0  0  0  0  0  0  0  0  0  0  0  0
   45.9592   21.0874   35.1927 H   0  0  0  0  0  0  0  0  0  0  0  0
   45.8132   18.8059   36.1461 H   0  0  0  0  0  0  0  0  0  0  0  0
   43.7694   18.2163   37.4723 H   0  0  0  0  0  0  0  0  0  0  0  0
   41.9628   19.8670   37.8059 H   0  0  0  0  0  0  0  0  0  0  0  0
   39.7483   23.4794   39.4721 H   0  0  0  0  0  0  0  0  0  0  0  0
   37.5951   24.7588   39.1122 H   0  0  0  0  0  0  0  0  0  0  0  0
   37.2778   23.1704   35.1812 H   0  0  0  0  0  0  0  0  0  0  0  0
  1 11  1  0
  2  1  2  0
  3  2  1  0
  4  3  2  0
  4  5  1  0
  5 10  2  0
  6  5  1  0
  6  7  2  0
  7  8  1  0
  8  9  2  0
 10  1  1  0
 10  9  1  0
 12 11  1  0
 12 13  2  0
 14 13  1  0
 15 14  2  0
 16 17  2  0
 16 15  1  0
 17 12  1  0
  3 18  1  0
  6 19  1  0
  7 20  1  0
  8 21  1  0
  9 22  1  0
 13 23  1  0
 14 24  1  0
 16 25  1  0
M  ISO  8  18  14  19  14  20  14  21  14  22  14  23  14  24  14  25  14
M  END
>  <minimizedAffinity>  (1) 
-4.33083725

>  <minimizedRMSD>  (1) 
1.63806856

$$$$
