
     RDKit          3D

 41 44  0  0  0  0  0  0  0  0999 V2000
   40.4980   22.5400   37.5030 C   0  0  0  0  0  0  0  0  0  0  0  0
   39.5920   23.3330   36.7840 C   0  0  0  0  0  0  0  0  0  0  0  0
   40.0910   24.0870   35.7350 C   0  0  0  0  0  0  0  0  0  0  0  0
   41.4310   24.0400   35.4340 N   0  0  0  0  0  0  0  0  0  0  0  0
   42.2690   23.2460   36.1730 C   0  0  0  0  0  0  0  0  0  0  0  0
   41.7900   22.5150   37.1870 N   0  0  0  0  0  0  0  0  0  0  0  0
   39.3100   24.9350   34.9150 N   0  0  0  0  0  0  0  0  0  0  0  0
   38.0250   24.8240   34.5280 C   0  0  0  0  0  0  0  0  0  0  0  0
   37.4810   25.8030   33.7100 C   0  0  0  0  0  0  0  0  0  0  0  0
   38.2430   26.8750   33.2960 C   0  0  0  0  0  0  0  0  0  0  0  0
   37.6560   27.8510   32.4650 N   0  0  0  0  0  0  0  0  0  0  0  0
   39.5440   26.9790   33.6940 N   0  0  0  0  0  0  0  0  0  0  0  0
   40.0500   25.9990   34.5010 C   0  0  0  0  0  0  0  0  0  0  0  0
   41.2570   26.2400   34.7760 O   0  0  0  0  0  0  0  0  0  0  0  0
   38.1420   23.4100   37.0790 C   0  0  0  0  0  0  0  0  0  0  0  0
   37.9770   22.8550   38.3600 F   0  0  0  0  0  0  0  0  0  0  0  0
   37.3640   22.7590   36.2090 F   0  0  0  0  0  0  0  0  0  0  0  0
   37.7460   24.7500   37.2620 F   0  0  0  0  0  0  0  0  0  0  0  0
   43.9900   23.2570   35.6990 S   0  0  0  0  0  0  0  0  0  0  0  0
   44.9310   24.2500   36.8650 C   0  0  0  0  0  0  0  0  0  0  0  0
   44.2330   25.1400   37.7020 C   0  0  0  0  0  0  0  0  0  0  0  0
   45.6020   25.9040   38.6880 S   0  0  0  0  0  0  0  0  0  0  0  0
   46.8800   24.8540   37.7610 C   0  0  0  0  0  0  0  0  0  0  0  0
   46.2040   24.2990   37.0890 N   0  0  0  0  0  0  0  0  0  0  0  0
   48.3130   24.8520   37.9520 N   0  0  0  0  0  0  0  0  0  0  0  0
   48.7500   23.8820   38.7940 C   0  0  0  0  0  0  0  0  0  0  0  0
   50.1210   24.0110   38.8710 C   0  0  0  0  0  0  0  0  0  0  0  0
   50.4520   25.0520   38.0740 N   0  0  0  0  0  0  0  0  0  0  0  0
   49.3500   25.5570   37.5210 C   0  0  0  0  0  0  0  0  0  0  0  0
   49.1350   26.6580   36.6020 C   0  0  0  0  0  0  0  0  0  0  0  0
   48.9700   26.4650   35.3810 O   0  0  0  0  0  0  0  0  0  0  0  0
   49.1230   27.9390   37.1440 O   0  0  0  0  0  0  0  0  0  0  0  0
   40.1344   21.9286   38.3420 H   0  0  0  0  0  0  0  0  0  0  0  0
   37.4155   23.9691   34.8560 H   0  0  0  0  0  0  0  0  0  0  0  0
   36.4320   25.7235   33.3885 H   0  0  0  0  0  0  0  0  0  0  0  0
   36.6724   27.7560   32.1745 H   0  0  0  0  0  0  0  0  0  0  0  0
   38.2108   28.6590   32.1484 H   0  0  0  0  0  0  0  0  0  0  0  0
   43.1514   25.3326   37.7567 H   0  0  0  0  0  0  0  0  0  0  0  0
   48.1306   23.1368   39.3146 H   0  0  0  0  0  0  0  0  0  0  0  0
   50.8090   23.3900   39.4635 H   0  0  0  0  0  0  0  0  0  0  0  0
   48.9799   28.7234   36.5572 H   0  0  0  0  0  0  0  0  0  0  0  0
  2 15  1  0
  2  1  2  0
  3  2  1  0
  4  3  2  0
  4  5  1  0
  5  6  2  0
  6  1  1  0
  7  3  1  0
  8  7  1  0
  9  8  2  0
 10 12  2  0
 10  9  1  0
 11 10  1  0
 12 13  1  0
 13 14  2  0
 13  7  1  0
 15 18  1  0
 15 16  1  0
 17 15  1  0
 19  5  1  0
 19 20  1  0
 20 24  1  0
 20 21  2  0
 21 22  1  0
 23 25  1  0
 23 22  1  0
 24 23  2  0
 25 26  1  0
 26 27  2  0
 28 27  1  0
 29 25  1  0
 29 28  2  0
 30 32  1  0
 30 29  1  0
 31 30  2  0
  1 33  1  0
  8 34  1  0
  9 35  1  0
 11 36  1  0
 11 37  1  0
 21 38  1  0
 26 39  1  0
 27 40  1  0
 32 41  1  0
M  ISO  7  33  14  34  14  35  14  38  14  39  14  40  14  41   3
M  END
>  <minimizedAffinity>  (1) 
-6.50180435

>  <minimizedRMSD>  (1) 
4.26056242

$$$$
