
     RDKit          3D

 24 25  0  0  0  0  0  0  0  0999 V2000
   39.6840   22.7650   37.5540 C   0  0  0  0  0  0  0  0  0  0  0  0
   39.0560   23.4070   38.6410 C   0  0  0  0  0  0  0  0  0  0  0  0
   37.8930   24.1290   38.3810 C   0  0  0  0  0  0  0  0  0  0  0  0
   37.4230   24.1830   37.1190 N   0  0  0  0  0  0  0  0  0  0  0  0
   38.0520   23.5530   36.0970 C   0  0  0  0  0  0  0  0  0  0  0  0
   39.1690   22.8520   36.3060 N   0  0  0  0  0  0  0  0  0  0  0  0
   40.8340   22.0510   37.8070 O   0  0  0  0  0  0  0  0  0  0  0  0
   41.7200   21.7790   36.7580 C   0  0  0  0  0  0  0  0  0  0  0  0
   42.7740   22.8360   36.5480 C   0  0  0  0  0  0  0  0  0  0  0  0
   43.7300   22.1180   35.6030 C   0  0  0  0  0  0  0  0  0  0  0  0
   43.8780   20.7820   36.3210 C   0  0  0  0  0  0  0  0  0  0  0  0
   42.5310   20.5210   36.9790 C   0  0  0  0  0  0  0  0  0  0  0  0
   39.4695   23.3402   39.6581 H   0  0  0  0  0  0  0  0  0  0  0  0
   37.3655   24.6480   39.1949 H   0  0  0  0  0  0  0  0  0  0  0  0
   37.6363   23.6202   35.0808 H   0  0  0  0  0  0  0  0  0  0  0  0
   41.0362   21.7063   35.8995 H   0  0  0  0  0  0  0  0  0  0  0  0
   42.3517   23.7396   36.0842 H   0  0  0  0  0  0  0  0  0  0  0  0
   43.2425   23.1966   37.4756 H   0  0  0  0  0  0  0  0  0  0  0  0
   44.6925   22.6443   35.5218 H   0  0  0  0  0  0  0  0  0  0  0  0
   43.3777   22.0435   34.5636 H   0  0  0  0  0  0  0  0  0  0  0  0
   44.1156   19.9839   35.6023 H   0  0  0  0  0  0  0  0  0  0  0  0
   44.6942   20.8037   37.0581 H   0  0  0  0  0  0  0  0  0  0  0  0
   42.6595   20.3310   38.0548 H   0  0  0  0  0  0  0  0  0  0  0  0
   42.0345   19.6365   36.5534 H   0  0  0  0  0  0  0  0  0  0  0  0
  1  7  1  0
  1  2  2  0
  3  2  1  0
  4  3  2  0
  5  6  2  0
  5  4  1  0
  6  1  1  0
  8 12  1  0
  8  7  1  0
  9  8  1  0
 10 11  1  0
 10  9  1  0
 11 12  1  0
  2 13  1  0
  3 14  1  0
  5 15  1  0
  8 16  1  0
  9 17  1  0
  9 18  1  0
 10 19  1  0
 10 20  1  0
 11 21  1  0
 11 22  1  0
 12 23  1  0
 12 24  1  0
M  ISO  8  13  14  14  14  15  14  16  13  17  13  18  13  19  13  20  13
M  ISO  4  21  13  22  13  23  13  24  13
M  END
>  <minimizedAffinity>  (1) 
-3.77079535

>  <minimizedRMSD>  (1) 
0.756811976

$$$$
