
     RDKit          3D

 20 21  0  0  0  0  0  0  0  0999 V2000
   39.6490   22.6310   37.4000 C   0  0  0  0  0  0  0  0  0  0  0  0
   39.0650   23.3730   38.4580 C   0  0  0  0  0  0  0  0  0  0  0  0
   37.9870   24.2140   38.1530 C   0  0  0  0  0  0  0  0  0  0  0  0
   37.5670   24.2720   36.8720 N   0  0  0  0  0  0  0  0  0  0  0  0
   38.1490   23.5470   35.8830 C   0  0  0  0  0  0  0  0  0  0  0  0
   39.1730   22.7420   36.1480 N   0  0  0  0  0  0  0  0  0  0  0  0
   40.6970   21.8170   37.7150 O   0  0  0  0  0  0  0  0  0  0  0  0
   41.9060   21.9800   37.0600 C   0  0  0  0  0  0  0  0  0  0  0  0
   42.5970   20.8600   36.6850 C   0  0  0  0  0  0  0  0  0  0  0  0
   43.8040   21.0160   36.0310 C   0  0  0  0  0  0  0  0  0  0  0  0
   44.2030   22.3190   35.8150 C   0  0  0  0  0  0  0  0  0  0  0  0
   43.5200   23.4710   36.1860 C   0  0  0  0  0  0  0  0  0  0  0  0
   42.3470   23.2230   36.8220 N   0  0  0  0  0  0  0  0  0  0  0  0
   39.4467   23.2907   39.4864 H   0  0  0  0  0  0  0  0  0  0  0  0
   37.4964   24.8106   38.9362 H   0  0  0  0  0  0  0  0  0  0  0  0
   37.7700   23.6263   34.8534 H   0  0  0  0  0  0  0  0  0  0  0  0
   42.2000   19.8569   36.8997 H   0  0  0  0  0  0  0  0  0  0  0  0
   44.4079   20.1568   35.7036 H   0  0  0  0  0  0  0  0  0  0  0  0
   45.1618   22.4608   35.2948 H   0  0  0  0  0  0  0  0  0  0  0  0
   43.8939   24.4856   35.9838 H   0  0  0  0  0  0  0  0  0  0  0  0
  1  7  1  0
  1  2  2  0
  3  2  1  0
  4  3  2  0
  5  6  2  0
  5  4  1  0
  6  1  1  0
  8  7  1  0
  9  8  2  0
 10  9  1  0
 11 10  2  0
 11 12  1  0
 12 13  2  0
 13  8  1  0
  2 14  1  0
  3 15  1  0
  5 16  1  0
  9 17  1  0
 10 18  1  0
 11 19  1  0
 12 20  1  0
M  ISO  7  14  14  15  14  16  14  17  14  18  14  19  14  20  14
M  END
>  <minimizedAffinity>  (1) 
-3.70488358

>  <minimizedRMSD>  (1) 
1.61096597

$$$$
