
     RDKit          3D

 19 20  0  0  0  0  0  0  0  0999 V2000
   39.9010   22.4610   36.7350 C   0  0  0  0  0  0  0  0  0  0  0  0
   39.5730   23.0650   37.9610 C   0  0  0  0  0  0  0  0  0  0  0  0
   38.2450   23.3680   38.2260 C   0  0  0  0  0  0  0  0  0  0  0  0
   37.3070   23.0660   37.2850 N   0  0  0  0  0  0  0  0  0  0  0  0
   37.6580   22.4860   36.1200 C   0  0  0  0  0  0  0  0  0  0  0  0
   38.9220   22.1800   35.8270 N   0  0  0  0  0  0  0  0  0  0  0  0
   41.2110   22.1680   36.4850 O   0  0  0  0  0  0  0  0  0  0  0  0
   42.0300   23.2610   36.1490 C   0  0  0  0  0  0  0  0  0  0  0  0
   43.2980   23.4100   36.6730 C   0  0  0  0  0  0  0  0  0  0  0  0
   44.0560   24.5140   36.3010 C   0  0  0  0  0  0  0  0  0  0  0  0
   43.5930   25.4410   35.4460 N   0  0  0  0  0  0  0  0  0  0  0  0
   42.3520   25.2760   34.9450 C   0  0  0  0  0  0  0  0  0  0  0  0
   41.6150   24.2170   35.2980 N   0  0  0  0  0  0  0  0  0  0  0  0
   40.3564   23.2938   38.6985 H   0  0  0  0  0  0  0  0  0  0  0  0
   37.9557   23.8419   39.1756 H   0  0  0  0  0  0  0  0  0  0  0  0
   36.8730   22.2568   35.3843 H   0  0  0  0  0  0  0  0  0  0  0  0
   43.7028   22.6659   37.3748 H   0  0  0  0  0  0  0  0  0  0  0  0
   45.0663   24.6324   36.7196 H   0  0  0  0  0  0  0  0  0  0  0  0
   41.9433   26.0166   34.2419 H   0  0  0  0  0  0  0  0  0  0  0  0
  1  2  2  0
  2  3  1  0
  4  3  2  0
  5  4  1  0
  6  5  2  0
  6  1  1  0
  7  1  1  0
  8  7  1  0
  8  9  2  0
 10  9  1  0
 11 10  2  0
 12 13  2  0
 12 11  1  0
 13  8  1  0
  2 14  1  0
  3 15  1  0
  5 16  1  0
  9 17  1  0
 10 18  1  0
 12 19  1  0
M  ISO  6  14  14  15  14  16  14  17  14  18  14  19  14
M  END
>  <minimizedAffinity>  (1) 
-3.60750365

>  <minimizedRMSD>  (1) 
2.76273012

$$$$
