
     RDKit          3D

 14 14  0  0  0  0  0  0  0  0999 V2000
   39.9440   22.6390   37.2690 C   0  0  0  0  0  0  0  0  0  0  0  0
   39.2380   23.2420   38.3320 C   0  0  0  0  0  0  0  0  0  0  0  0
   37.8610   23.4090   38.1730 C   0  0  0  0  0  0  0  0  0  0  0  0
   37.2700   22.9950   37.0270 N   0  0  0  0  0  0  0  0  0  0  0  0
   37.9810   22.4230   36.0330 C   0  0  0  0  0  0  0  0  0  0  0  0
   39.3120   22.2430   36.1460 N   0  0  0  0  0  0  0  0  0  0  0  0
   41.2950   22.4820   37.4370 O   0  0  0  0  0  0  0  0  0  0  0  0
   41.8750   21.2590   37.2410 C   0  0  0  0  0  0  0  0  0  0  0  0
   42.3660   20.7150   36.1930 O   0  0  0  0  0  0  0  0  0  0  0  0
   41.9680   20.4310   38.3490 O   0  0  0  0  0  0  0  0  0  0  0  0
   39.7518   23.5672   39.2486 H   0  0  0  0  0  0  0  0  0  0  0  0
   37.2620   23.8723   38.9708 H   0  0  0  0  0  0  0  0  0  0  0  0
   37.4665   22.0986   35.1164 H   0  0  0  0  0  0  0  0  0  0  0  0
   42.3791   19.5344   38.2638 H   0  0  0  0  0  0  0  0  0  0  0  0
  1  7  1  0
  1  2  2  0
  3  2  1  0
  4  3  2  0
  5  6  2  0
  5  4  1  0
  6  1  1  0
  8  7  1  0
  8 10  1  0
  9  8  2  0
  2 11  1  0
  3 12  1  0
  5 13  1  0
 10 14  1  0
M  ISO  4  11  14  12  14  13  14  14   3
M  END
>  <minimizedAffinity>  (1) 
-3.59700823

>  <minimizedRMSD>  (1) 
0.941702425

$$$$
