
     RDKit          3D

 23 24  0  0  1  0  0  0  0  0999 V2000
   39.8590   22.6920   37.1680 C   0  0  0  0  0  0  0  0  0  0  0  0
   39.1930   23.2830   38.2540 C   0  0  0  0  0  0  0  0  0  0  0  0
   37.7950   23.3860   38.1790 C   0  0  0  0  0  0  0  0  0  0  0  0
   37.1540   22.9160   37.0750 N   0  0  0  0  0  0  0  0  0  0  0  0
   37.8400   22.3510   36.0480 C   0  0  0  0  0  0  0  0  0  0  0  0
   39.1830   22.2420   36.0960 N   0  0  0  0  0  0  0  0  0  0  0  0
   41.2310   22.5920   37.2420 O   0  0  0  0  0  0  0  0  0  0  0  0
   41.4050   24.0190   35.4210 N   0  0  0  0  0  0  0  0  0  0  0  0
   42.3450   25.0750   35.2230 C   0  0  0  0  0  0  0  0  0  0  0  0
   43.6350   24.6700   35.8590 C   0  0  0  0  0  0  0  0  0  0  0  0
   43.3890   23.3810   36.5840 C   0  0  0  0  0  0  0  0  0  0  0  0
   42.0260   22.9350   36.1110 C   0  0  1  0  0  0  0  0  0  0  0  0
   39.7461   23.6514   39.1306 H   0  0  0  0  0  0  0  0  0  0  0  0
   37.2251   23.8410   39.0025 H   0  0  0  0  0  0  0  0  0  0  0  0
   37.2945   21.9786   35.1683 H   0  0  0  0  0  0  0  0  0  0  0  0
   41.0638   23.6903   34.5064 H   0  0  0  0  0  0  0  0  0  0  0  0
   42.4962   25.2433   34.1465 H   0  0  0  0  0  0  0  0  0  0  0  0
   41.9730   26.0072   35.6732 H   0  0  0  0  0  0  0  0  0  0  0  0
   44.4063   24.5270   35.0879 H   0  0  0  0  0  0  0  0  0  0  0  0
   43.9875   25.4466   36.5538 H   0  0  0  0  0  0  0  0  0  0  0  0
   44.1544   22.6356   36.3223 H   0  0  0  0  0  0  0  0  0  0  0  0
   43.4340   23.5005   37.6766 H   0  0  0  0  0  0  0  0  0  0  0  0
   42.1229   22.0652   35.4446 H   0  0  0  0  0  0  0  0  0  0  0  0
  1  7  1  0
  1  2  2  0
  3  2  1  0
  4  3  2  0
  5  6  2  0
  5  4  1  0
  6  1  1  0
  8 12  1  0
  9  8  1  0
  9 10  1  0
 10 11  1  0
 12 11  1  0
 12  7  1  0
  2 13  1  0
  3 14  1  0
  5 15  1  0
  8 16  1  0
  9 17  1  0
  9 18  1  0
 10 19  1  0
 10 20  1  0
 11 21  1  0
 11 22  1  0
 12 23  1  6
M  ISO  8  13  14  14  14  15  14  16   5  17  13  18  13  19  13  20  13
M  ISO  3  21  13  22  13  23  13
M  END
>  <minimizedAffinity>  (1) 
-3.56601381

>  <minimizedRMSD>  (1) 
1.79395652

$$$$
