
     RDKit          3D

 15 15  0  0  0  0  0  0  0  0999 V2000
   38.5800   24.7630   36.2180 C   0  0  0  0  0  0  0  0  0  0  0  0
   39.5130   23.7140   36.1380 C   0  0  0  0  0  0  0  0  0  0  0  0
   39.6550   22.8960   37.2710 C   0  0  0  0  0  0  0  0  0  0  0  0
   38.9110   23.1370   38.3690 N   0  0  0  0  0  0  0  0  0  0  0  0
   38.0170   24.1700   38.3990 C   0  0  0  0  0  0  0  0  0  0  0  0
   37.8630   24.9600   37.3400 N   0  0  0  0  0  0  0  0  0  0  0  0
   38.4320   25.5680   35.1180 O   0  0  0  0  0  0  0  0  0  0  0  0
   37.9170   26.8550   35.3420 C   0  0  0  0  0  0  0  0  0  0  0  0
   38.6400   27.6370   36.3070 N   0  0  0  0  0  0  0  0  0  0  0  0
   36.9650   27.5930   34.9460 O   0  0  0  0  0  0  0  0  0  0  0  0
   40.1059   23.5415   35.2277 H   0  0  0  0  0  0  0  0  0  0  0  0
   40.3712   22.0612   37.2623 H   0  0  0  0  0  0  0  0  0  0  0  0
   37.4203   24.3496   39.3055 H   0  0  0  0  0  0  0  0  0  0  0  0
   38.3299   28.5932   36.5315 H   0  0  0  0  0  0  0  0  0  0  0  0
   39.4683   27.2412   36.7741 H   0  0  0  0  0  0  0  0  0  0  0  0
  1  6  2  0
  2  1  1  0
  2  3  2  0
  3  4  1  0
  4  5  2  0
  6  5  1  0
  7  8  1  0
  7  1  1  0
  8  9  1  0
 10  8  2  0
  2 11  1  0
  3 12  1  0
  5 13  1  0
  9 14  1  0
  9 15  1  0
M  ISO  3  11  14  12  14  13  14
M  END
>  <minimizedAffinity>  (1) 
-3.47212315

>  <minimizedRMSD>  (1) 
5.284904

$$$$
