
     RDKit          3D

 14 14  0  0  0  0  0  0  0  0999 V2000
   39.6840   22.7660   37.5700 C   0  0  0  0  0  0  0  0  0  0  0  0
   39.0200   23.4080   38.6540 C   0  0  0  0  0  0  0  0  0  0  0  0
   37.8700   24.1410   38.3570 C   0  0  0  0  0  0  0  0  0  0  0  0
   37.4370   24.2150   37.0840 N   0  0  0  0  0  0  0  0  0  0  0  0
   38.1030   23.5830   36.0700 C   0  0  0  0  0  0  0  0  0  0  0  0
   39.2060   22.8740   36.3180 N   0  0  0  0  0  0  0  0  0  0  0  0
   40.8060   22.0540   37.8750 O   0  0  0  0  0  0  0  0  0  0  0  0
   41.6240   21.3910   36.9570 C   0  0  0  0  0  0  0  0  0  0  0  0
   39.3983   23.3294   39.6839 H   0  0  0  0  0  0  0  0  0  0  0  0
   37.3201   24.6557   39.1587 H   0  0  0  0  0  0  0  0  0  0  0  0
   37.7255   23.6600   35.0397 H   0  0  0  0  0  0  0  0  0  0  0  0
   42.3682   20.7878   37.4978 H   0  0  0  0  0  0  0  0  0  0  0  0
   41.0085   20.7338   36.3252 H   0  0  0  0  0  0  0  0  0  0  0  0
   42.1395   22.1293   36.3252 H   0  0  0  0  0  0  0  0  0  0  0  0
  1  7  1  0
  1  2  2  0
  3  2  1  0
  4  3  2  0
  5  6  2  0
  5  4  1  0
  6  1  1  0
  8  7  1  0
  2  9  1  0
  3 10  1  0
  5 11  1  0
  8 12  1  0
  8 13  1  0
  8 14  1  0
M  ISO  6   9  14  10  14  11  14  12   8  13   8  14   8
M  END
>  <minimizedAffinity>  (1) 
-2.95148277

>  <minimizedRMSD>  (1) 
0.39807418

$$$$
