
     RDKit          3D

 17 18  0  0  0  0  0  0  0  0999 V2000
   39.6550   22.7380   37.4580 C   0  0  0  0  0  0  0  0  0  0  0  0
   39.0180   23.3530   38.5490 C   0  0  0  0  0  0  0  0  0  0  0  0
   37.9350   24.1910   38.2870 C   0  0  0  0  0  0  0  0  0  0  0  0
   37.5430   24.3750   37.0000 N   0  0  0  0  0  0  0  0  0  0  0  0
   38.1780   23.7690   35.9710 C   0  0  0  0  0  0  0  0  0  0  0  0
   39.2240   22.9570   36.1940 N   0  0  0  0  0  0  0  0  0  0  0  0
   40.7130   21.9200   37.7140 O   0  0  0  0  0  0  0  0  0  0  0  0
   41.9260   22.1390   37.0290 C   0  0  0  0  0  0  0  0  0  0  0  0
   42.5320   20.9580   36.5700 C   0  0  0  0  0  0  0  0  0  0  0  0
   44.0150   21.5890   35.7640 S   0  0  0  0  0  0  0  0  0  0  0  0
   43.5680   23.3910   36.1860 C   0  0  0  0  0  0  0  0  0  0  0  0
   42.5820   23.2680   36.7490 N   0  0  0  0  0  0  0  0  0  0  0  0
   39.3634   23.1786   39.5787 H   0  0  0  0  0  0  0  0  0  0  0  0
   37.4066   24.6950   39.1096 H   0  0  0  0  0  0  0  0  0  0  0  0
   37.8340   23.9431   34.9408 H   0  0  0  0  0  0  0  0  0  0  0  0
   42.1901   19.9178   36.6752 H   0  0  0  0  0  0  0  0  0  0  0  0
   44.1181   24.3135   35.9486 H   0  0  0  0  0  0  0  0  0  0  0  0
  1  7  1  0
  1  2  2  0
  3  2  1  0
  4  3  2  0
  5  6  2  0
  5  4  1  0
  6  1  1  0
  8  7  1  0
  9  8  2  0
 10 11  1  0
 10  9  1  0
 11 12  2  0
 12  8  1  0
  2 13  1  0
  3 14  1  0
  5 15  1  0
  9 16  1  0
 11 17  1  0
M  ISO  5  13  14  14  14  15  14  16  14  17  14
M  END
>  <minimizedAffinity>  (1) 
-3.43377542

>  <minimizedRMSD>  (1) 
1.53777146

$$$$
