
     RDKit          3D

 31 34  0  0  0  0  0  0  0  0999 V2000
   41.8680   21.9760   37.1240 C   0  0  0  0  0  0  0  0  0  0  0  0
   42.3800   20.7480   36.7290 C   0  0  0  0  0  0  0  0  0  0  0  0
   43.9450   21.2130   35.9370 S   0  0  0  0  0  0  0  0  0  0  0  0
   43.6280   23.0440   36.2860 C   0  0  0  0  0  0  0  0  0  0  0  0
   42.6300   23.0020   36.8170 N   0  0  0  0  0  0  0  0  0  0  0  0
   44.4980   24.3230   35.9460 N   0  0  0  0  0  0  0  0  0  0  0  0
   45.7710   24.4590   36.2860 C   0  0  0  0  0  0  0  0  0  0  0  0
   46.0750   25.6700   35.7940 N   0  0  0  0  0  0  0  0  0  0  0  0
   45.0040   26.1970   35.1940 C   0  0  0  0  0  0  0  0  0  0  0  0
   44.9230   27.4320   34.5670 C   0  0  0  0  0  0  0  0  0  0  0  0
   45.8700   28.2550   34.4700 O   0  0  0  0  0  0  0  0  0  0  0  0
   43.6980   27.7170   34.0360 N   0  0  0  0  0  0  0  0  0  0  0  0
   42.6460   26.8600   34.1160 C   0  0  0  0  0  0  0  0  0  0  0  0
   41.4020   27.2360   33.5360 N   0  0  0  0  0  0  0  0  0  0  0  0
   42.7870   25.6560   34.7470 N   0  0  0  0  0  0  0  0  0  0  0  0
   43.9560   25.3380   35.2780 C   0  0  0  0  0  0  0  0  0  0  0  0
   40.6320   21.8850   37.7760 O   0  0  0  0  0  0  0  0  0  0  0  0
   39.6500   22.7700   37.4820 C   0  0  0  0  0  0  0  0  0  0  0  0
   38.9530   23.4100   38.5060 C   0  0  0  0  0  0  0  0  0  0  0  0
   37.9500   24.3150   38.2030 C   0  0  0  0  0  0  0  0  0  0  0  0
   37.6890   24.5390   36.8810 N   0  0  0  0  0  0  0  0  0  0  0  0
   38.3640   23.9200   35.8990 C   0  0  0  0  0  0  0  0  0  0  0  0
   39.3430   23.0370   36.1900 N   0  0  0  0  0  0  0  0  0  0  0  0
   41.9465   19.7458   36.8624 H   0  0  0  0  0  0  0  0  0  0  0  0
   46.4163   23.7564   36.8336 H   0  0  0  0  0  0  0  0  0  0  0  0
   43.5656   28.6182   33.5551 H   0  0  0  0  0  0  0  0  0  0  0  0
   40.5955   26.5975   33.5883 H   0  0  0  0  0  0  0  0  0  0  0  0
   41.3082   28.1466   33.0639 H   0  0  0  0  0  0  0  0  0  0  0  0
   39.2004   23.1956   39.5562 H   0  0  0  0  0  0  0  0  0  0  0  0
   37.3868   24.8321   38.9938 H   0  0  0  0  0  0  0  0  0  0  0  0
   38.1172   24.1341   34.8486 H   0  0  0  0  0  0  0  0  0  0  0  0
  1 17  1  0
  2  1  2  0
  3  4  1  0
  3  2  1  0
  4  5  2  0
  5  1  1  0
  6  7  1  0
  6  4  1  0
  8  7  2  0
  9 16  2  0
  9  8  1  0
 10  9  1  0
 11 10  2  0
 12 13  1  0
 12 10  1  0
 13 15  2  0
 14 13  1  0
 15 16  1  0
 16  6  1  0
 18 17  1  0
 18 19  2  0
 20 19  1  0
 21 20  2  0
 22 23  2  0
 22 21  1  0
 23 18  1  0
  2 24  1  0
  7 25  1  0
 12 26  1  0
 14 27  1  0
 14 28  1  0
 19 29  1  0
 20 30  1  0
 22 31  1  0
M  ISO  6  24  14  25  14  26   9  29  14  30  14  31  14
M  END
>  <minimizedAffinity>  (1) 
-5.80703211

>  <minimizedRMSD>  (1) 
0.452269405

$$$$
