
     RDKit          3D

 30 32  0  0  0  0  0  0  0  0999 V2000
   41.9260   22.1650   37.0250 C   0  0  0  0  0  0  0  0  0  0  0  0
   42.6980   21.0570   36.6940 C   0  0  0  0  0  0  0  0  0  0  0  0
   44.1180   21.8210   35.8820 S   0  0  0  0  0  0  0  0  0  0  0  0
   43.4190   23.5750   36.1270 C   0  0  0  0  0  0  0  0  0  0  0  0
   42.4360   23.3310   36.6680 N   0  0  0  0  0  0  0  0  0  0  0  0
   44.0470   24.7720   35.7050 N   0  0  0  0  0  0  0  0  0  0  0  0
   45.3610   24.9460   35.9360 C   0  0  0  0  0  0  0  0  0  0  0  0
   45.9460   26.1230   35.5140 C   0  0  0  0  0  0  0  0  0  0  0  0
   47.3820   26.4750   35.6890 C   0  0  0  0  0  0  0  0  0  0  0  0
   45.1840   27.0830   34.8730 C   0  0  0  0  0  0  0  0  0  0  0  0
   45.6740   28.1820   34.4640 O   0  0  0  0  0  0  0  0  0  0  0  0
   43.8680   26.9010   34.6440 N   0  0  0  0  0  0  0  0  0  0  0  0
   43.3310   25.7230   35.0790 C   0  0  0  0  0  0  0  0  0  0  0  0
   42.0990   25.5810   34.8530 O   0  0  0  0  0  0  0  0  0  0  0  0
   40.7120   21.8780   37.6930 O   0  0  0  0  0  0  0  0  0  0  0  0
   39.6250   22.6540   37.4770 C   0  0  0  0  0  0  0  0  0  0  0  0
   39.0770   23.3550   38.5550 C   0  0  0  0  0  0  0  0  0  0  0  0
   37.9590   24.1530   38.3320 C   0  0  0  0  0  0  0  0  0  0  0  0
   37.4470   24.2160   37.0790 N   0  0  0  0  0  0  0  0  0  0  0  0
   37.9940   23.5280   36.0480 C   0  0  0  0  0  0  0  0  0  0  0  0
   39.0710   22.7570   36.2500 N   0  0  0  0  0  0  0  0  0  0  0  0
   42.4960   19.9916   36.8789 H   0  0  0  0  0  0  0  0  0  0  0  0
   45.9526   24.1720   36.4468 H   0  0  0  0  0  0  0  0  0  0  0  0
   47.6173   26.5327   36.7620 H   0  0  0  0  0  0  0  0  0  0  0  0
   48.0087   25.7039   35.2171 H   0  0  0  0  0  0  0  0  0  0  0  0
   47.5810   27.4485   35.2171 H   0  0  0  0  0  0  0  0  0  0  0  0
   43.2975   27.6130   34.1661 H   0  0  0  0  0  0  0  0  0  0  0  0
   39.5203   23.2775   39.5587 H   0  0  0  0  0  0  0  0  0  0  0  0
   37.5007   24.7205   39.1553 H   0  0  0  0  0  0  0  0  0  0  0  0
   37.5530   23.6025   35.0430 H   0  0  0  0  0  0  0  0  0  0  0  0
  1 15  1  0
  2  1  2  0
  3  4  1  0
  3  2  1  0
  4  5  2  0
  5  1  1  0
  6  7  1  0
  6  4  1  0
  8  9  1  0
  8  7  2  0
 10  8  1  0
 11 10  2  0
 12 10  1  0
 12 13  1  0
 13  6  1  0
 14 13  2  0
 16 15  1  0
 16 17  2  0
 18 17  1  0
 19 18  2  0
 20 21  2  0
 20 19  1  0
 21 16  1  0
  2 22  1  0
  7 23  1  0
  9 24  1  0
  9 25  1  0
  9 26  1  0
 12 27  1  0
 17 28  1  0
 18 29  1  0
 20 30  1  0
M  ISO  8  22  14  23  14  24   8  25   8  26   8  27   9  28  14  29  14
M  ISO  1  30  14
M  END
>  <minimizedAffinity>  (1) 
-5.31449652

>  <minimizedRMSD>  (1) 
0.449674428

$$$$
