
     RDKit          3D

 30 32  0  0  0  0  0  0  0  0999 V2000
   41.8360   22.1120   36.5660 C   0  0  0  0  0  0  0  0  0  0  0  0
   42.1010   21.3070   35.4670 C   0  0  0  0  0  0  0  0  0  0  0  0
   43.7470   21.8970   34.9870 S   0  0  0  0  0  0  0  0  0  0  0  0
   43.7900   23.1590   36.3890 C   0  0  0  0  0  0  0  0  0  0  0  0
   42.7850   22.9730   36.8800 N   0  0  0  0  0  0  0  0  0  0  0  0
   47.1040   25.6880   36.9410 C   0  0  0  0  0  0  0  0  0  0  0  0
   47.0590   24.7620   35.9150 C   0  0  0  0  0  0  0  0  0  0  0  0
   45.9890   23.9170   35.7040 C   0  0  0  0  0  0  0  0  0  0  0  0
   44.9580   24.0720   36.6080 C   0  0  0  0  0  0  0  0  0  0  0  0
   44.9540   24.9720   37.6400 C   0  0  0  0  0  0  0  0  0  0  0  0
   46.0450   25.8030   37.8190 C   0  0  0  0  0  0  0  0  0  0  0  0
   48.5000   26.7290   37.1460 S   0  0  0  0  0  0  0  0  0  0  0  0
   49.7320   25.9200   37.3020 O   0  0  0  0  0  0  0  0  0  0  0  0
   48.5910   27.7190   36.0270 O   0  0  0  0  0  0  0  0  0  0  0  0
   40.5770   21.8750   37.1770 O   0  0  0  0  0  0  0  0  0  0  0  0
   39.6300   22.8380   37.1620 C   0  0  0  0  0  0  0  0  0  0  0  0
   39.0110   23.1820   38.3640 C   0  0  0  0  0  0  0  0  0  0  0  0
   38.0360   24.1730   38.3480 C   0  0  0  0  0  0  0  0  0  0  0  0
   37.7230   24.7670   37.1780 N   0  0  0  0  0  0  0  0  0  0  0  0
   38.3390   24.4150   36.0180 C   0  0  0  0  0  0  0  0  0  0  0  0
   39.2790   23.4610   36.0240 N   0  0  0  0  0  0  0  0  0  0  0  0
   41.4799   20.5224   35.0102 H   0  0  0  0  0  0  0  0  0  0  0  0
   47.9194   24.6958   35.2329 H   0  0  0  0  0  0  0  0  0  0  0  0
   45.9602   23.1828   34.8854 H   0  0  0  0  0  0  0  0  0  0  0  0
   44.0915   25.0335   38.3200 H   0  0  0  0  0  0  0  0  0  0  0  0
   46.0682   26.5359   38.6390 H   0  0  0  0  0  0  0  0  0  0  0  0
   48.3544   27.4549   38.2987 H   0  0  0  0  0  0  0  0  0  0  0  0
   39.2880   22.6806   39.3030 H   0  0  0  0  0  0  0  0  0  0  0  0
   37.5266   24.4688   39.2770 H   0  0  0  0  0  0  0  0  0  0  0  0
   38.0657   24.9130   35.0761 H   0  0  0  0  0  0  0  0  0  0  0  0
  1  5  1  0
  1 15  1  0
  2  1  2  0
  3  2  1  0
  3  4  1  0
  4  9  1  0
  4  5  2  0
  6 12  1  0
  6 11  2  0
  7  6  1  0
  8  7  2  0
  8  9  1  0
  9 10  2  0
 10 11  1  0
 12 13  2  0
 14 12  2  0
 16 15  1  0
 16 17  2  0
 18 17  1  0
 19 18  2  0
 20 21  2  0
 20 19  1  0
 21 16  1  0
  2 22  1  0
  7 23  1  0
  8 24  1  0
 10 25  1  0
 11 26  1  0
 12 27  1  0
 17 28  1  0
 18 29  1  0
 20 30  1  0
M  ISO  8  22  14  23  14  24  14  25  14  26  14  27  11  28  14  29  14
M  ISO  1  30  14
M  END
>  <minimizedAffinity>  (1) 
-4.79299355

>  <minimizedRMSD>  (1) 
1.66123796

$$$$
