
     RDKit          3D

 31 33  0  0  0  0  0  0  0  0999 V2000
   41.8530   22.1310   36.5650 C   0  0  0  0  0  0  0  0  0  0  0  0
   42.5710   21.0740   35.9790 C   0  0  0  0  0  0  0  0  0  0  0  0
   44.2180   21.8320   35.8730 S   0  0  0  0  0  0  0  0  0  0  0  0
   43.6310   23.4600   36.6480 C   0  0  0  0  0  0  0  0  0  0  0  0
   42.5380   23.2250   36.8230 N   0  0  0  0  0  0  0  0  0  0  0  0
   44.7980   24.2800   36.6950 N   0  0  0  0  0  0  0  0  0  0  0  0
   46.1250   24.1900   36.1400 C   0  0  0  0  0  0  0  0  0  0  0  0
   47.1660   24.1840   37.2730 C   0  0  0  0  0  0  0  0  0  0  0  0
   46.9650   25.3550   38.0780 N   0  0  0  0  0  0  0  0  0  0  0  0
   45.6450   25.3250   38.6380 C   0  0  0  0  0  0  0  0  0  0  0  0
   44.6730   25.5120   37.4840 C   0  0  0  0  0  0  0  0  0  0  0  0
   40.4980   21.8160   36.7790 O   0  0  0  0  0  0  0  0  0  0  0  0
   39.5750   22.7980   36.8870 C   0  0  0  0  0  0  0  0  0  0  0  0
   39.0650   23.1130   38.1600 C   0  0  0  0  0  0  0  0  0  0  0  0
   38.1210   24.1220   38.2370 C   0  0  0  0  0  0  0  0  0  0  0  0
   37.7280   24.7630   37.0980 N   0  0  0  0  0  0  0  0  0  0  0  0
   38.2380   24.4390   35.8930 C   0  0  0  0  0  0  0  0  0  0  0  0
   39.1580   23.4600   35.7860 N   0  0  0  0  0  0  0  0  0  0  0  0
   42.2321   20.0735   35.6722 H   0  0  0  0  0  0  0  0  0  0  0  0
   46.2146   23.2614   35.5572 H   0  0  0  0  0  0  0  0  0  0  0  0
   46.3046   25.0569   35.4872 H   0  0  0  0  0  0  0  0  0  0  0  0
   47.0385   23.2824   37.8901 H   0  0  0  0  0  0  0  0  0  0  0  0
   48.1825   24.1838   36.8527 H   0  0  0  0  0  0  0  0  0  0  0  0
   47.6605   25.3738   38.8375 H   0  0  0  0  0  0  0  0  0  0  0  0
   45.4651   24.3586   39.1316 H   0  0  0  0  0  0  0  0  0  0  0  0
   45.5185   26.1157   39.3922 H   0  0  0  0  0  0  0  0  0  0  0  0
   44.9494   26.3896   36.8811 H   0  0  0  0  0  0  0  0  0  0  0  0
   43.6429   25.6854   37.8286 H   0  0  0  0  0  0  0  0  0  0  0  0
   39.4036   22.5778   39.0594 H   0  0  0  0  0  0  0  0  0  0  0  0
   37.6906   24.4052   39.2089 H   0  0  0  0  0  0  0  0  0  0  0  0
   37.9020   24.9757   34.9936 H   0  0  0  0  0  0  0  0  0  0  0  0
  1 12  1  0
  1  5  1  0
  2  1  2  0
  3  2  1  0
  3  4  1  0
  4  6  1  0
  4  5  2  0
  6 11  1  0
  7  6  1  0
  7  8  1  0
  8  9  1  0
  9 10  1  0
 11 10  1  0
 12 13  1  0
 13 14  2  0
 14 15  1  0
 16 15  2  0
 17 16  1  0
 18 17  2  0
 18 13  1  0
  2 19  1  0
  7 20  1  0
  7 21  1  0
  8 22  1  0
  8 23  1  0
  9 24  1  0
 10 25  1  0
 10 26  1  0
 11 27  1  0
 11 28  1  0
 14 29  1  0
 15 30  1  0
 17 31  1  0
M  ISO  8  19  14  20  13  21  13  22  13  23  13  24   5  25  13  26  13
M  ISO  5  27  13  28  13  29  14  30  14  31  14
M  END
>  <minimizedAffinity>  (1) 
-4.60715628

>  <minimizedRMSD>  (1) 
1.04341197

$$$$
