
     RDKit          3D

 25 27  0  0  0  0  0  0  0  0999 V2000
   41.8870   22.0700   36.8810 C   0  0  0  0  0  0  0  0  0  0  0  0
   42.4730   20.9520   36.2990 C   0  0  0  0  0  0  0  0  0  0  0  0
   44.0850   21.6150   35.8010 S   0  0  0  0  0  0  0  0  0  0  0  0
   43.6720   23.3270   36.4830 C   0  0  0  0  0  0  0  0  0  0  0  0
   42.6290   23.1630   36.8840 N   0  0  0  0  0  0  0  0  0  0  0  0
   44.7350   24.3540   36.3280 C   0  0  0  0  0  0  0  0  0  0  0  0
   45.9850   24.2780   36.8940 C   0  0  0  0  0  0  0  0  0  0  0  0
   46.8000   25.3500   36.6100 C   0  0  0  0  0  0  0  0  0  0  0  0
   46.4190   26.3870   35.8480 N   0  0  0  0  0  0  0  0  0  0  0  0
   45.1880   26.4290   35.3100 C   0  0  0  0  0  0  0  0  0  0  0  0
   44.3510   25.3890   35.5650 N   0  0  0  0  0  0  0  0  0  0  0  0
   40.5830   21.8430   37.3750 O   0  0  0  0  0  0  0  0  0  0  0  0
   39.6380   22.8140   37.2620 C   0  0  0  0  0  0  0  0  0  0  0  0
   38.9780   23.2410   38.4190 C   0  0  0  0  0  0  0  0  0  0  0  0
   38.0050   24.2410   38.2940 C   0  0  0  0  0  0  0  0  0  0  0  0
   37.7570   24.7430   37.0490 N   0  0  0  0  0  0  0  0  0  0  0  0
   38.4060   24.3140   35.9540 C   0  0  0  0  0  0  0  0  0  0  0  0
   39.3410   23.3560   36.0570 N   0  0  0  0  0  0  0  0  0  0  0  0
   42.0674   19.9372   36.1741 H   0  0  0  0  0  0  0  0  0  0  0  0
   46.3065   23.4328   37.5203 H   0  0  0  0  0  0  0  0  0  0  0  0
   47.8168   25.3572   37.0295 H   0  0  0  0  0  0  0  0  0  0  0  0
   44.8689   27.2760   34.6848 H   0  0  0  0  0  0  0  0  0  0  0  0
   39.2164   22.8037   39.3998 H   0  0  0  0  0  0  0  0  0  0  0  0
   37.4570   24.6108   39.1731 H   0  0  0  0  0  0  0  0  0  0  0  0
   38.1710   24.7484   34.9711 H   0  0  0  0  0  0  0  0  0  0  0  0
  1  5  1  0
  1 12  1  0
  2  1  2  0
  3  2  1  0
  3  4  1  0
  4  5  2  0
  6  4  1  0
  6  7  2  0
  8  7  1  0
  9  8  2  0
 10 11  2  0
 10  9  1  0
 11  6  1  0
 13 12  1  0
 13 14  2  0
 15 14  1  0
 16 15  2  0
 17 18  2  0
 17 16  1  0
 18 13  1  0
  2 19  1  0
  7 20  1  0
  8 21  1  0
 10 22  1  0
 14 23  1  0
 15 24  1  0
 17 25  1  0
M  ISO  7  19  14  20  14  21  14  22  14  23  14  24  14  25  14
M  END
>  <minimizedAffinity>  (1) 
-4.36967134

>  <minimizedRMSD>  (1) 
0.642250538

$$$$
