
     RDKit          3D

 25 27  0  0  0  0  0  0  0  0999 V2000
   41.8610   22.0710   36.8870 C   0  0  0  0  0  0  0  0  0  0  0  0
   42.5080   20.9730   36.3140 C   0  0  0  0  0  0  0  0  0  0  0  0
   44.0930   21.7070   35.8270 S   0  0  0  0  0  0  0  0  0  0  0  0
   43.5930   23.3960   36.4950 C   0  0  0  0  0  0  0  0  0  0  0  0
   42.5540   23.1950   36.8900 N   0  0  0  0  0  0  0  0  0  0  0  0
   44.6480   24.4970   36.3350 C   0  0  0  0  0  0  0  0  0  0  0  0
   45.7460   24.6010   37.1220 C   0  0  0  0  0  0  0  0  0  0  0  0
   46.5870   25.6760   36.8140 C   0  0  0  0  0  0  0  0  0  0  0  0
   46.2940   26.5160   35.8100 N   0  0  0  0  0  0  0  0  0  0  0  0
   45.1890   26.3840   35.0450 C   0  0  0  0  0  0  0  0  0  0  0  0
   44.3770   25.3490   35.3390 N   0  0  0  0  0  0  0  0  0  0  0  0
   40.5610   21.8010   37.3770 O   0  0  0  0  0  0  0  0  0  0  0  0
   39.5760   22.7190   37.2130 C   0  0  0  0  0  0  0  0  0  0  0  0
   38.9740   23.2610   38.3580 C   0  0  0  0  0  0  0  0  0  0  0  0
   37.9690   24.2000   38.1630 C   0  0  0  0  0  0  0  0  0  0  0  0
   37.6030   24.5590   36.9160 N   0  0  0  0  0  0  0  0  0  0  0  0
   38.2040   24.0180   35.8240 C   0  0  0  0  0  0  0  0  0  0  0  0
   39.1800   23.1080   35.9810 N   0  0  0  0  0  0  0  0  0  0  0  0
   42.1512   19.9397   36.1912 H   0  0  0  0  0  0  0  0  0  0  0  0
   45.9595   23.8958   37.9388 H   0  0  0  0  0  0  0  0  0  0  0  0
   47.5019   25.8346   37.4038 H   0  0  0  0  0  0  0  0  0  0  0  0
   44.9637   27.0832   34.2263 H   0  0  0  0  0  0  0  0  0  0  0  0
   39.2846   22.9554   39.3680 H   0  0  0  0  0  0  0  0  0  0  0  0
   37.4687   24.6535   39.0314 H   0  0  0  0  0  0  0  0  0  0  0  0
   37.8924   24.3241   34.8144 H   0  0  0  0  0  0  0  0  0  0  0  0
  1  5  1  0
  1 12  1  0
  2  1  2  0
  3  2  1  0
  3  4  1  0
  4  5  2  0
  6  4  1  0
  6  7  2  0
  8  7  1  0
  9  8  2  0
 10 11  2  0
 10  9  1  0
 11  6  1  0
 13 12  1  0
 13 14  2  0
 15 14  1  0
 16 15  2  0
 17 18  2  0
 17 16  1  0
 18 13  1  0
  2 19  1  0
  7 20  1  0
  8 21  1  0
 10 22  1  0
 14 23  1  0
 15 24  1  0
 17 25  1  0
M  ISO  7  19  14  20  14  21  14  22  14  23  14  24  14  25  14
M  END
>  <minimizedAffinity>  (1) 
-4.34648657

>  <minimizedRMSD>  (1) 
0.973518372

$$$$
