
     RDKit          3D

 23 25  0  0  0  0  0  0  0  0999 V2000
   41.8960   22.0620   36.8800 C   0  0  0  0  0  0  0  0  0  0  0  0
   42.4640   20.9330   36.2860 C   0  0  0  0  0  0  0  0  0  0  0  0
   44.0780   21.6080   35.7940 S   0  0  0  0  0  0  0  0  0  0  0  0
   43.6830   23.3140   36.4900 C   0  0  0  0  0  0  0  0  0  0  0  0
   42.6330   23.1540   36.8960 N   0  0  0  0  0  0  0  0  0  0  0  0
   44.7610   24.3810   36.3510 C   0  0  0  0  0  0  0  0  0  0  0  0
   45.9550   24.2950   36.8860 C   0  0  0  0  0  0  0  0  0  0  0  0
   46.7910   25.8940   36.3600 S   0  0  0  0  0  0  0  0  0  0  0  0
   45.1860   26.3540   35.4550 C   0  0  0  0  0  0  0  0  0  0  0  0
   44.4950   25.4590   35.6570 N   0  0  0  0  0  0  0  0  0  0  0  0
   40.5900   21.8450   37.3810 O   0  0  0  0  0  0  0  0  0  0  0  0
   39.6470   22.8110   37.2540 C   0  0  0  0  0  0  0  0  0  0  0  0
   38.9850   23.2340   38.4070 C   0  0  0  0  0  0  0  0  0  0  0  0
   38.0150   24.2250   38.2950 C   0  0  0  0  0  0  0  0  0  0  0  0
   37.7540   24.7420   37.0600 N   0  0  0  0  0  0  0  0  0  0  0  0
   38.4200   24.3070   35.9540 C   0  0  0  0  0  0  0  0  0  0  0  0
   39.3500   23.3560   36.0630 N   0  0  0  0  0  0  0  0  0  0  0  0
   42.0515   19.9219   36.1535 H   0  0  0  0  0  0  0  0  0  0  0  0
   46.3693   23.4801   37.4978 H   0  0  0  0  0  0  0  0  0  0  0  0
   44.9693   27.2629   34.8745 H   0  0  0  0  0  0  0  0  0  0  0  0
   39.2253   22.7926   39.3855 H   0  0  0  0  0  0  0  0  0  0  0  0
   37.4713   24.5832   39.1816 H   0  0  0  0  0  0  0  0  0  0  0  0
   38.1908   24.7404   34.9693 H   0  0  0  0  0  0  0  0  0  0  0  0
  1  5  1  0
  1 11  1  0
  2  1  2  0
  3  2  1  0
  3  4  1  0
  4  5  2  0
  6  4  1  0
  6  7  2  0
  8  7  1  0
  9 10  2  0
  9  8  1  0
 10  6  1  0
 12 11  1  0
 12 13  2  0
 14 13  1  0
 15 14  2  0
 16 17  2  0
 16 15  1  0
 17 12  1  0
  2 18  1  0
  7 19  1  0
  9 20  1  0
 13 21  1  0
 14 22  1  0
 16 23  1  0
M  ISO  6  18  14  19  14  20  14  21  14  22  14  23  14
M  END
>  <minimizedAffinity>  (1) 
-4.13093281

>  <minimizedRMSD>  (1) 
0.642662942

$$$$
