
     RDKit          3D

 23 24  0  0  0  0  0  0  0  0999 V2000
   40.6310   21.8200   37.4340 O   0  0  0  0  0  0  0  0  0  0  0  0
   39.6220   22.7110   37.2820 C   0  0  0  0  0  0  0  0  0  0  0  0
   39.0250   23.2510   38.4210 C   0  0  0  0  0  0  0  0  0  0  0  0
   37.9920   24.1630   38.2430 C   0  0  0  0  0  0  0  0  0  0  0  0
   37.6010   24.4940   36.9960 N   0  0  0  0  0  0  0  0  0  0  0  0
   38.2010   23.9510   35.9010 C   0  0  0  0  0  0  0  0  0  0  0  0
   39.1940   23.0740   36.0600 N   0  0  0  0  0  0  0  0  0  0  0  0
   41.9100   22.1030   36.9020 C   0  0  0  0  0  0  0  0  0  0  0  0
   42.5450   21.0120   36.2990 C   0  0  0  0  0  0  0  0  0  0  0  0
   44.1090   21.7560   35.7610 S   0  0  0  0  0  0  0  0  0  0  0  0
   43.6220   23.4470   36.4600 C   0  0  0  0  0  0  0  0  0  0  0  0
   42.5950   23.2320   36.8890 N   0  0  0  0  0  0  0  0  0  0  0  0
   44.5850   24.6170   36.3270 C   0  0  0  0  0  0  0  0  0  0  0  0
   44.7250   25.2920   37.6710 C   0  0  0  0  0  0  0  0  0  0  0  0
   39.3613   22.9640   39.4282 H   0  0  0  0  0  0  0  0  0  0  0  0
   37.4956   24.6128   39.1155 H   0  0  0  0  0  0  0  0  0  0  0  0
   37.8690   24.2337   34.8911 H   0  0  0  0  0  0  0  0  0  0  0  0
   42.1899   19.9775   36.1822 H   0  0  0  0  0  0  0  0  0  0  0  0
   45.5672   24.2505   35.9940 H   0  0  0  0  0  0  0  0  0  0  0  0
   44.1989   25.3348   35.5883 H   0  0  0  0  0  0  0  0  0  0  0  0
   44.5716   24.5523   38.4706 H   0  0  0  0  0  0  0  0  0  0  0  0
   45.7321   25.7252   37.7606 H   0  0  0  0  0  0  0  0  0  0  0  0
   43.9733   26.0900   37.7606 H   0  0  0  0  0  0  0  0  0  0  0  0
  2  1  1  0
  2  3  2  0
  4  3  1  0
  5  4  2  0
  6  7  2  0
  6  5  1  0
  7  2  1  0
  8  1  1  0
  9  8  2  0
 10  9  1  0
 10 11  1  0
 11 12  2  0
 12  8  1  0
 13 11  1  0
 13 14  1  0
  3 15  1  0
  4 16  1  0
  6 17  1  0
  9 18  1  0
 13 19  1  0
 13 20  1  0
 14 21  1  0
 14 22  1  0
 14 23  1  0
M  ISO  8  15  14  16  14  17  14  18  14  19   8  20   8  21   8  22   8
M  ISO  1  23   8
M  END
>  <minimizedAffinity>  (1) 
-3.90484357

>  <minimizedRMSD>  (1) 
0.303240508

$$$$
