
     RDKit          3D

 20 21  0  0  0  0  0  0  0  0999 V2000
   39.6200   22.7370   37.4110 C   0  0  0  0  0  0  0  0  0  0  0  0
   38.9970   23.3210   38.5150 C   0  0  0  0  0  0  0  0  0  0  0  0
   37.9300   24.1810   38.2710 C   0  0  0  0  0  0  0  0  0  0  0  0
   37.5390   24.4190   36.9990 N   0  0  0  0  0  0  0  0  0  0  0  0
   38.1730   23.8280   35.9510 C   0  0  0  0  0  0  0  0  0  0  0  0
   39.2000   22.9990   36.1580 N   0  0  0  0  0  0  0  0  0  0  0  0
   40.6640   21.8940   37.6360 O   0  0  0  0  0  0  0  0  0  0  0  0
   41.8990   22.1140   37.0110 C   0  0  0  0  0  0  0  0  0  0  0  0
   42.4960   20.9740   36.4890 C   0  0  0  0  0  0  0  0  0  0  0  0
   44.0250   21.6510   35.7850 S   0  0  0  0  0  0  0  0  0  0  0  0
   43.5820   23.4190   36.3340 C   0  0  0  0  0  0  0  0  0  0  0  0
   42.5680   23.2410   36.8490 N   0  0  0  0  0  0  0  0  0  0  0  0
   44.4030   24.6680   36.1120 C   0  0  0  0  0  0  0  0  0  0  0  0
   39.3365   23.1095   39.5397 H   0  0  0  0  0  0  0  0  0  0  0  0
   37.4074   24.6647   39.1094 H   0  0  0  0  0  0  0  0  0  0  0  0
   37.8373   24.0343   34.9240 H   0  0  0  0  0  0  0  0  0  0  0  0
   42.1366   19.9344   36.4996 H   0  0  0  0  0  0  0  0  0  0  0  0
   44.6859   25.0984   37.0840 H   0  0  0  0  0  0  0  0  0  0  0  0
   45.3109   24.4141   35.5452 H   0  0  0  0  0  0  0  0  0  0  0  0
   43.8099   25.4008   35.5452 H   0  0  0  0  0  0  0  0  0  0  0  0
  1  7  1  0
  1  2  2  0
  3  2  1  0
  4  3  2  0
  5  6  2  0
  5  4  1  0
  6  1  1  0
  8  7  1  0
  9  8  2  0
 10 11  1  0
 10  9  1  0
 11 12  2  0
 12  8  1  0
 13 11  1  0
  2 14  1  0
  3 15  1  0
  5 16  1  0
  9 17  1  0
 13 18  1  0
 13 19  1  0
 13 20  1  0
M  ISO  7  14  14  15  14  16  14  17  14  18   8  19   8  20   8
M  END
>  <minimizedAffinity>  (1) 
-3.67472982

>  <minimizedRMSD>  (1) 
0.101068959

$$$$
