
     RDKit          3D

 36 38  0  0  1  0  0  0  0  0999 V2000
   41.7950   21.8220   37.0550 C   0  0  0  0  0  0  0  0  0  0  0  0
   42.2480   20.6120   36.5890 C   0  0  0  0  0  0  0  0  0  0  0  0
   43.8640   21.0570   35.9190 S   0  0  0  0  0  0  0  0  0  0  0  0
   43.6590   22.8840   36.3950 C   0  0  0  0  0  0  0  0  0  0  0  0
   42.6300   22.8110   36.8660 N   0  0  0  0  0  0  0  0  0  0  0  0
   44.7180   23.8880   36.1120 C   0  0  2  0  0  0  0  0  0  0  0  0
   46.1240   23.4990   35.9800 C   0  0  0  0  0  0  0  0  0  0  0  0
   45.7250   24.1570   37.2390 C   0  0  1  0  0  0  0  0  0  0  0  0
   45.9910   25.6260   37.4620 C   0  0  0  0  0  0  0  0  0  0  0  0
   45.2560   26.1300   38.6860 C   0  0  0  0  0  0  0  0  0  0  0  0
   47.4350   25.9740   37.6100 C   0  0  0  0  0  0  0  0  0  0  0  0
   45.4830   26.4500   36.2770 C   0  0  0  0  0  0  0  0  0  0  0  0
   40.5210   21.8040   37.6520 O   0  0  0  0  0  0  0  0  0  0  0  0
   39.6340   22.8010   37.4020 C   0  0  0  0  0  0  0  0  0  0  0  0
   38.9020   23.3060   38.4770 C   0  0  0  0  0  0  0  0  0  0  0  0
   37.9920   24.3250   38.2370 C   0  0  0  0  0  0  0  0  0  0  0  0
   37.8480   24.7930   36.9610 N   0  0  0  0  0  0  0  0  0  0  0  0
   38.5920   24.2650   35.9370 C   0  0  0  0  0  0  0  0  0  0  0  0
   39.4680   23.2860   36.1550 N   0  0  0  0  0  0  0  0  0  0  0  0
   41.7551   19.6290   36.6168 H   0  0  0  0  0  0  0  0  0  0  0  0
   44.0320   24.4694   35.4784 H   0  0  0  0  0  0  0  0  0  0  0  0
   46.3940   22.4327   35.9880 H   0  0  0  0  0  0  0  0  0  0  0  0
   46.9017   23.7026   35.2292 H   0  0  0  0  0  0  0  0  0  0  0  0
   45.8789   23.8983   38.2970 H   0  0  0  0  0  0  0  0  0  0  0  0
   45.7695   25.7779   39.5929 H   0  0  0  0  0  0  0  0  0  0  0  0
   45.2402   27.2299   38.6772 H   0  0  0  0  0  0  0  0  0  0  0  0
   44.2243   25.7484   38.6772 H   0  0  0  0  0  0  0  0  0  0  0  0
   47.6897   26.0354   38.6783 H   0  0  0  0  0  0  0  0  0  0  0  0
   48.0501   25.1984   37.1304 H   0  0  0  0  0  0  0  0  0  0  0  0
   47.6293   26.9447   37.1304 H   0  0  0  0  0  0  0  0  0  0  0  0
   44.9398   27.3311   36.6491 H   0  0  0  0  0  0  0  0  0  0  0  0
   46.3365   26.7770   35.6650 H   0  0  0  0  0  0  0  0  0  0  0  0
   44.8075   25.8343   35.6650 H   0  0  0  0  0  0  0  0  0  0  0  0
   39.0433   22.9053   39.4916 H   0  0  0  0  0  0  0  0  0  0  0  0
   37.3967   24.7489   39.0592 H   0  0  0  0  0  0  0  0  0  0  0  0
   38.4628   24.6572   34.9174 H   0  0  0  0  0  0  0  0  0  0  0  0
  1 13  1  0
  2  1  2  0
  3  4  1  0
  3  2  1  0
  4  5  2  0
  5  1  1  0
  6  4  1  0
  6  8  1  0
  7  6  1  0
  7  8  1  0
  8  9  1  0
  9 11  1  0
  9 10  1  0
 12  9  1  0
 14 13  1  0
 14 15  2  0
 16 15  1  0
 17 16  2  0
 18 19  2  0
 18 17  1  0
 19 14  1  0
  2 20  1  0
  6 21  1  6
  7 22  1  0
  7 23  1  0
  8 24  1  1
 10 25  1  0
 10 26  1  0
 10 27  1  0
 11 28  1  0
 11 29  1  0
 11 30  1  0
 12 31  1  0
 12 32  1  0
 12 33  1  0
 15 34  1  0
 16 35  1  0
 18 36  1  0
M  ISO  8  20  14  21  13  22  13  23  13  24  13  25   8  26   8  27   8
M  ISO  8  28   8  29   8  30   8  31   8  32   8  33   8  34  14  35  14
M  ISO  1  36  14
M  END
>  <minimizedAffinity>  (1) 
-4.78145742

>  <minimizedRMSD>  (1) 
1.27485454

$$$$
