
     RDKit          3D

 30 32  0  0  1  0  0  0  0  0999 V2000
   41.9720   22.2560   36.9720 C   0  0  0  0  0  0  0  0  0  0  0  0
   42.7950   21.1780   36.6840 C   0  0  0  0  0  0  0  0  0  0  0  0
   44.1730   21.9860   35.8340 S   0  0  0  0  0  0  0  0  0  0  0  0
   43.3860   23.7070   36.0100 C   0  0  0  0  0  0  0  0  0  0  0  0
   42.4400   23.4060   36.5580 N   0  0  0  0  0  0  0  0  0  0  0  0
   44.0460   24.9360   35.4930 C   0  0  2  0  0  0  0  0  0  0  0  0
   45.4880   24.9990   35.2590 C   0  0  0  0  0  0  0  0  0  0  0  0
   44.9830   25.6650   36.4760 C   0  0  2  0  0  0  0  0  0  0  0  0
   45.1530   25.0720   37.8470 C   0  0  0  0  0  0  0  0  0  0  0  0
   44.8890   26.1620   38.8870 C   0  0  0  0  0  0  0  0  0  0  0  0
   40.7920   21.9310   37.6500 O   0  0  0  0  0  0  0  0  0  0  0  0
   39.6660   22.6790   37.4610 C   0  0  0  0  0  0  0  0  0  0  0  0
   39.1430   23.3530   38.5670 C   0  0  0  0  0  0  0  0  0  0  0  0
   37.9890   24.1170   38.3610 C   0  0  0  0  0  0  0  0  0  0  0  0
   37.4320   24.1710   37.1160 N   0  0  0  0  0  0  0  0  0  0  0  0
   37.9950   23.4840   36.0690 C   0  0  0  0  0  0  0  0  0  0  0  0
   39.0930   22.7460   36.2270 N   0  0  0  0  0  0  0  0  0  0  0  0
   42.6487   20.1119   36.9122 H   0  0  0  0  0  0  0  0  0  0  0  0
   43.1729   25.1713   34.8667 H   0  0  0  0  0  0  0  0  0  0  0  0
   46.0917   24.0844   35.3541 H   0  0  0  0  0  0  0  0  0  0  0  0
   46.1046   25.3340   34.4119 H   0  0  0  0  0  0  0  0  0  0  0  0
   45.1000   26.6744   36.8972 H   0  0  0  0  0  0  0  0  0  0  0  0
   44.4383   24.2473   37.9851 H   0  0  0  0  0  0  0  0  0  0  0  0
   46.1748   24.6816   37.9632 H   0  0  0  0  0  0  0  0  0  0  0  0
   44.9917   25.7379   39.8968 H   0  0  0  0  0  0  0  0  0  0  0  0
   45.6156   26.9774   38.7561 H   0  0  0  0  0  0  0  0  0  0  0  0
   43.8698   26.5546   38.7561 H   0  0  0  0  0  0  0  0  0  0  0  0
   39.6178   23.2861   39.5570 H   0  0  0  0  0  0  0  0  0  0  0  0
   37.5341   24.6699   39.1961 H   0  0  0  0  0  0  0  0  0  0  0  0
   37.5279   23.5444   35.0749 H   0  0  0  0  0  0  0  0  0  0  0  0
  1 11  1  0
  2  1  2  0
  3  4  1  0
  3  2  1  0
  4  5  2  0
  5  1  1  0
  6  4  1  0
  6  8  1  0
  7  6  1  0
  7  8  1  0
  8  9  1  0
  9 10  1  0
 12 11  1  0
 12 13  2  0
 14 13  1  0
 15 14  2  0
 16 17  2  0
 16 15  1  0
 17 12  1  0
  2 18  1  0
  6 19  1  6
  7 20  1  0
  7 21  1  0
  8 22  1  1
  9 23  1  0
  9 24  1  0
 10 25  1  0
 10 26  1  0
 10 27  1  0
 13 28  1  0
 14 29  1  0
 16 30  1  0
M  ISO  8  18  14  19  13  20  13  21  13  22  13  23   8  24   8  25   8
M  ISO  5  26   8  27   8  28  14  29  14  30  14
M  END
>  <minimizedAffinity>  (1) 
-4.67797804

>  <minimizedRMSD>  (1) 
0.982714117

$$$$
