
     RDKit          3D

 37 40  0  0  0  0  0  0  0  0999 V2000
   43.8890   23.3420   35.6700 S   0  0  0  0  0  0  0  0  0  0  0  0
   40.4570   22.5010   37.5400 C   0  0  0  0  0  0  0  0  0  0  0  0
   39.5280   23.3100   36.8920 C   0  0  0  0  0  0  0  0  0  0  0  0
   39.9890   24.1200   35.8640 C   0  0  0  0  0  0  0  0  0  0  0  0
   41.3220   24.1030   35.5220 N   0  0  0  0  0  0  0  0  0  0  0  0
   42.1800   23.2880   36.1950 C   0  0  0  0  0  0  0  0  0  0  0  0
   41.7340   22.5030   37.1910 N   0  0  0  0  0  0  0  0  0  0  0  0
   39.1710   25.0030   35.1040 N   0  0  0  0  0  0  0  0  0  0  0  0
   38.0820   24.8780   34.3540 N   0  0  0  0  0  0  0  0  0  0  0  0
   37.7060   26.0440   33.8530 C   0  0  0  0  0  0  0  0  0  0  0  0
   38.6170   26.9960   34.3120 C   0  0  0  0  0  0  0  0  0  0  0  0
   39.5370   26.3130   35.1030 C   0  0  0  0  0  0  0  0  0  0  0  0
   38.0880   23.3610   37.2280 C   0  0  0  0  0  0  0  0  0  0  0  0
   37.9680   22.7970   38.5100 F   0  0  0  0  0  0  0  0  0  0  0  0
   37.3020   22.6790   36.3770 F   0  0  0  0  0  0  0  0  0  0  0  0
   37.6640   24.6960   37.4350 F   0  0  0  0  0  0  0  0  0  0  0  0
   44.8530   24.2820   36.8450 C   0  0  0  0  0  0  0  0  0  0  0  0
   44.1720   25.1410   37.7260 C   0  0  0  0  0  0  0  0  0  0  0  0
   45.5580   25.8810   38.7280 S   0  0  0  0  0  0  0  0  0  0  0  0
   46.8260   24.8690   37.7470 C   0  0  0  0  0  0  0  0  0  0  0  0
   46.1310   24.3290   37.0560 N   0  0  0  0  0  0  0  0  0  0  0  0
   48.2580   24.8570   37.9100 N   0  0  0  0  0  0  0  0  0  0  0  0
   48.7120   23.8620   38.7000 C   0  0  0  0  0  0  0  0  0  0  0  0
   50.0940   23.9880   38.7560 C   0  0  0  0  0  0  0  0  0  0  0  0
   50.3970   25.0690   37.9820 N   0  0  0  0  0  0  0  0  0  0  0  0
   49.2780   25.5870   37.4760 C   0  0  0  0  0  0  0  0  0  0  0  0
   49.0470   26.7230   36.6030 C   0  0  0  0  0  0  0  0  0  0  0  0
   48.7850   26.5600   35.3930 O   0  0  0  0  0  0  0  0  0  0  0  0
   49.1280   27.9820   37.1720 O   0  0  0  0  0  0  0  0  0  0  0  0
   40.1233   21.8466   38.3588 H   0  0  0  0  0  0  0  0  0  0  0  0
   36.8404   26.2275   33.1994 H   0  0  0  0  0  0  0  0  0  0  0  0
   38.6098   28.0738   34.0922 H   0  0  0  0  0  0  0  0  0  0  0  0
   40.3984   26.7508   35.6286 H   0  0  0  0  0  0  0  0  0  0  0  0
   43.0910   25.3291   37.8041 H   0  0  0  0  0  0  0  0  0  0  0  0
   48.1034   23.0966   39.2038 H   0  0  0  0  0  0  0  0  0  0  0  0
   50.7976   23.3488   39.3095 H   0  0  0  0  0  0  0  0  0  0  0  0
   48.9780   28.7872   36.6158 H   0  0  0  0  0  0  0  0  0  0  0  0
  1  6  1  0
  1 17  1  0
  3 13  1  0
  3  2  2  0
  4  3  1  0
  5  4  2  0
  5  6  1  0
  6  7  2  0
  7  2  1  0
  8  4  1  0
  9  8  1  0
 10 11  1  0
 10  9  2  0
 11 12  2  0
 12  8  1  0
 13 16  1  0
 13 14  1  0
 15 13  1  0
 17 21  1  0
 17 18  2  0
 18 19  1  0
 20 22  1  0
 20 19  1  0
 21 20  2  0
 22 23  1  0
 23 24  2  0
 25 24  1  0
 26 22  1  0
 26 25  2  0
 27 29  1  0
 27 26  1  0
 28 27  2  0
  2 30  1  0
 10 31  1  0
 11 32  1  0
 12 33  1  0
 18 34  1  0
 23 35  1  0
 24 36  1  0
 29 37  1  0
M  ISO  8  30  14  31  14  32  14  33  14  34  14  35  14  36  14  37   3
M  END
>  <minimizedAffinity>  (1) 
-6.02430058

>  <minimizedRMSD>  (1) 
4.32066774

$$$$
