
     RDKit          3D

 37 40  0  0  1  0  0  0  0  0999 V2000
   41.8800   22.0570   37.0580 C   0  0  0  0  0  0  0  0  0  0  0  0
   42.3570   20.8300   36.6430 C   0  0  0  0  0  0  0  0  0  0  0  0
   43.7560   21.3190   35.6090 S   0  0  0  0  0  0  0  0  0  0  0  0
   43.4540   23.1680   35.9190 C   0  0  0  0  0  0  0  0  0  0  0  0
   42.5500   23.0860   36.5980 N   0  0  0  0  0  0  0  0  0  0  0  0
   44.3240   24.2160   35.3230 C   0  0  2  0  0  0  0  0  0  0  0  0
   45.3450   23.9000   34.3240 C   0  0  0  0  0  0  0  0  0  0  0  0
   45.8170   24.1560   35.6970 C   0  0  1  0  0  0  0  0  0  0  0  0
   46.3700   25.4740   36.1480 C   0  0  0  0  0  0  0  0  0  0  0  0
   47.4000   26.0650   35.2370 C   0  0  0  0  0  0  0  0  0  0  0  0
   48.1760   27.0410   36.1200 C   0  0  0  0  0  0  0  0  0  0  0  0
   48.1870   26.3880   37.4600 C   0  0  0  0  0  0  0  0  0  0  0  0
   47.0590   25.3850   37.4910 C   0  0  0  0  0  0  0  0  0  0  0  0
   40.7560   22.0090   37.9060 O   0  0  0  0  0  0  0  0  0  0  0  0
   39.6510   22.7390   37.6200 C   0  0  0  0  0  0  0  0  0  0  0  0
   39.0250   23.4570   38.6500 C   0  0  0  0  0  0  0  0  0  0  0  0
   37.8960   24.1950   38.3300 C   0  0  0  0  0  0  0  0  0  0  0  0
   37.4370   24.2020   37.0590 N   0  0  0  0  0  0  0  0  0  0  0  0
   38.0740   23.4880   36.0740 C   0  0  0  0  0  0  0  0  0  0  0  0
   39.1660   22.7660   36.3500 N   0  0  0  0  0  0  0  0  0  0  0  0
   41.9845   19.8223   36.8790 H   0  0  0  0  0  0  0  0  0  0  0  0
   43.5014   24.9457   35.3528 H   0  0  0  0  0  0  0  0  0  0  0  0
   45.4028   22.8811   33.9135 H   0  0  0  0  0  0  0  0  0  0  0  0
   45.6022   24.3245   33.3423 H   0  0  0  0  0  0  0  0  0  0  0  0
   46.5052   23.5992   36.3499 H   0  0  0  0  0  0  0  0  0  0  0  0
   45.4696   26.1054   36.1729 H   0  0  0  0  0  0  0  0  0  0  0  0
   46.9211   26.5942   34.4000 H   0  0  0  0  0  0  0  0  0  0  0  0
   48.0499   25.2996   34.7877 H   0  0  0  0  0  0  0  0  0  0  0  0
   49.2006   27.1781   35.7439 H   0  0  0  0  0  0  0  0  0  0  0  0
   47.7226   28.0430   36.1420 H   0  0  0  0  0  0  0  0  0  0  0  0
   49.1477   25.8765   37.6196 H   0  0  0  0  0  0  0  0  0  0  0  0
   48.0582   27.1374   38.2549 H   0  0  0  0  0  0  0  0  0  0  0  0
   46.3530   25.6316   38.2977 H   0  0  0  0  0  0  0  0  0  0  0  0
   47.4349   24.3685   37.6792 H   0  0  0  0  0  0  0  0  0  0  0  0
   39.4171   23.4351   39.6775 H   0  0  0  0  0  0  0  0  0  0  0  0
   37.3756   24.7729   39.1079 H   0  0  0  0  0  0  0  0  0  0  0  0
   37.6820   23.5099   35.0465 H   0  0  0  0  0  0  0  0  0  0  0  0
  1 14  1  0
  2  1  2  0
  3  4  1  0
  3  2  1  0
  4  5  2  0
  5  1  1  0
  6  8  1  0
  6  4  1  0
  7  6  1  0
  7  8  1  0
  8  9  1  0
  9 13  1  0
 10 11  1  0
 10  9  1  0
 11 12  1  0
 12 13  1  0
 15 14  1  0
 15 16  2  0
 17 16  1  0
 18 17  2  0
 19 20  2  0
 19 18  1  0
 20 15  1  0
  2 21  1  0
  6 22  1  6
  7 23  1  0
  7 24  1  0
  8 25  1  1
  9 26  1  0
 10 27  1  0
 10 28  1  0
 11 29  1  0
 11 30  1  0
 12 31  1  0
 12 32  1  0
 13 33  1  0
 13 34  1  0
 16 35  1  0
 17 36  1  0
 19 37  1  0
M  ISO  8  21  14  22  13  23  13  24  13  25  13  26  13  27  13  28  13
M  ISO  8  29  13  30  13  31  13  32  13  33  13  34  13  35  14  36  14
M  ISO  1  37  14
M  END
>  <minimizedAffinity>  (1) 
-4.38685703

>  <minimizedRMSD>  (1) 
2.54806805

$$$$
