
     RDKit          3D

 27 29  0  0  1  0  0  0  0  0999 V2000
   41.9960   22.2620   36.9690 C   0  0  0  0  0  0  0  0  0  0  0  0
   42.8230   21.2020   36.6510 C   0  0  0  0  0  0  0  0  0  0  0  0
   44.2140   22.0580   35.8780 S   0  0  0  0  0  0  0  0  0  0  0  0
   43.4180   23.7660   36.1210 C   0  0  0  0  0  0  0  0  0  0  0  0
   42.4580   23.4410   36.6300 N   0  0  0  0  0  0  0  0  0  0  0  0
   44.1010   25.0040   35.6770 C   0  0  2  0  0  0  0  0  0  0  0  0
   45.5580   25.0530   35.5200 C   0  0  0  0  0  0  0  0  0  0  0  0
   44.9840   25.7130   36.7080 C   0  0  2  0  0  0  0  0  0  0  0  0
   45.0720   25.1610   38.0940 C   0  0  0  0  0  0  0  0  0  0  0  0
   40.7870   21.9050   37.6060 O   0  0  0  0  0  0  0  0  0  0  0  0
   39.6740   22.6530   37.4200 C   0  0  0  0  0  0  0  0  0  0  0  0
   39.1550   23.3340   38.5300 C   0  0  0  0  0  0  0  0  0  0  0  0
   37.9980   24.1110   38.3410 C   0  0  0  0  0  0  0  0  0  0  0  0
   37.4420   24.1660   37.0950 N   0  0  0  0  0  0  0  0  0  0  0  0
   37.9950   23.4800   36.0470 C   0  0  0  0  0  0  0  0  0  0  0  0
   39.0900   22.7390   36.2110 N   0  0  0  0  0  0  0  0  0  0  0  0
   42.6745   20.1256   36.8224 H   0  0  0  0  0  0  0  0  0  0  0  0
   43.2579   25.2616   35.0191 H   0  0  0  0  0  0  0  0  0  0  0  0
   46.1479   24.1327   35.6429 H   0  0  0  0  0  0  0  0  0  0  0  0
   46.2258   25.3865   34.7120 H   0  0  0  0  0  0  0  0  0  0  0  0
   45.0851   26.7190   37.1412 H   0  0  0  0  0  0  0  0  0  0  0  0
   44.9422   25.9754   38.8219 H   0  0  0  0  0  0  0  0  0  0  0  0
   44.2824   24.4093   38.2401 H   0  0  0  0  0  0  0  0  0  0  0  0
   46.0562   24.6921   38.2401 H   0  0  0  0  0  0  0  0  0  0  0  0
   39.6368   23.2630   39.5163 H   0  0  0  0  0  0  0  0  0  0  0  0
   37.5499   24.6634   39.1801 H   0  0  0  0  0  0  0  0  0  0  0  0
   37.5275   23.5417   35.0532 H   0  0  0  0  0  0  0  0  0  0  0  0
  1 10  1  0
  2  1  2  0
  3  4  1  0
  3  2  1  0
  4  5  2  0
  5  1  1  0
  6  4  1  0
  6  8  1  0
  7  6  1  0
  7  8  1  0
  8  9  1  0
 11 10  1  0
 11 12  2  0
 13 12  1  0
 14 13  2  0
 15 16  2  0
 15 14  1  0
 16 11  1  0
  2 17  1  0
  6 18  1  6
  7 19  1  0
  7 20  1  0
  8 21  1  1
  9 22  1  0
  9 23  1  0
  9 24  1  0
 12 25  1  0
 13 26  1  0
 15 27  1  0
M  ISO  8  17  14  18  13  19  13  20  13  21  13  22   8  23   8  24   8
M  ISO  3  25  14  26  14  27  14
M  END
>  <minimizedAffinity>  (1) 
-4.27308083

>  <minimizedRMSD>  (1) 
0.703343868

$$$$
