
     RDKit          3D

 25 27  0  0  1  0  0  0  0  0999 V2000
   41.9220   22.2040   37.0410 C   0  0  0  0  0  0  0  0  0  0  0  0
   42.6550   21.0600   36.8190 C   0  0  0  0  0  0  0  0  0  0  0  0
   44.0300   21.7070   35.8240 S   0  0  0  0  0  0  0  0  0  0  0  0
   43.3520   23.4790   35.8810 C   0  0  0  0  0  0  0  0  0  0  0  0
   42.4210   23.2900   36.5020 N   0  0  0  0  0  0  0  0  0  0  0  0
   44.0560   24.6010   35.2170 C   0  0  2  0  0  0  0  0  0  0  0  0
   45.4980   24.8120   35.3840 C   0  0  0  0  0  0  0  0  0  0  0  0
   44.6030   25.7090   36.1330 C   0  0  2  0  0  0  0  0  0  0  0  0
   44.3510   25.5670   37.4890 O   0  0  0  0  0  0  0  0  0  0  0  0
   40.7610   22.0160   37.8080 O   0  0  0  0  0  0  0  0  0  0  0  0
   39.6420   22.7430   37.5530 C   0  0  0  0  0  0  0  0  0  0  0  0
   39.0520   23.4480   38.6170 C   0  0  0  0  0  0  0  0  0  0  0  0
   37.9070   24.1860   38.3320 C   0  0  0  0  0  0  0  0  0  0  0  0
   37.4100   24.2030   37.0740 N   0  0  0  0  0  0  0  0  0  0  0  0
   38.0220   23.4980   36.0670 C   0  0  0  0  0  0  0  0  0  0  0  0
   39.1230   22.7760   36.2930 N   0  0  0  0  0  0  0  0  0  0  0  0
   42.4603   20.0306   37.1542 H   0  0  0  0  0  0  0  0  0  0  0  0
   43.4000   24.5198   34.3377 H   0  0  0  0  0  0  0  0  0  0  0  0
   46.0948   24.0651   35.9281 H   0  0  0  0  0  0  0  0  0  0  0  0
   46.3269   24.9807   34.6808 H   0  0  0  0  0  0  0  0  0  0  0  0
   44.5490   26.8034   36.2296 H   0  0  0  0  0  0  0  0  0  0  0  0
   45.0863   25.9813   38.0065 H   0  0  0  0  0  0  0  0  0  0  0  0
   39.4772   23.4175   39.6310 H   0  0  0  0  0  0  0  0  0  0  0  0
   37.4065   24.7551   39.1292 H   0  0  0  0  0  0  0  0  0  0  0  0
   37.5967   23.5284   35.0530 H   0  0  0  0  0  0  0  0  0  0  0  0
  1 10  1  0
  2  1  2  0
  3  4  1  0
  3  2  1  0
  4  5  2  0
  5  1  1  0
  6  7  1  0
  6  4  1  0
  6  8  1  0
  7  8  1  0
  8  9  1  0
 11 10  1  0
 11 12  2  0
 13 12  1  0
 14 13  2  0
 15 16  2  0
 15 14  1  0
 16 11  1  0
  2 17  1  0
  6 18  1  6
  7 19  1  0
  7 20  1  0
  8 21  1  6
  9 22  1  0
 12 23  1  0
 13 24  1  0
 15 25  1  0
M  ISO  8  17  14  18  13  19  13  20  13  21  13  22   3  23  14  24  14
M  ISO  1  25  14
M  END
>  <minimizedAffinity>  (1) 
-4.02456188

>  <minimizedRMSD>  (1) 
0.909304202

$$$$
