
     RDKit          3D

 37 40  0  0  1  0  0  0  0  0999 V2000
   40.5240   21.9100   37.2260 O   0  0  0  0  0  0  0  0  0  0  0  0
   39.5870   22.8790   37.2460 C   0  0  0  0  0  0  0  0  0  0  0  0
   39.0180   23.1900   38.4980 C   0  0  0  0  0  0  0  0  0  0  0  0
   38.0420   24.2030   38.5100 C   0  0  0  0  0  0  0  0  0  0  0  0
   37.6840   24.8370   37.3520 N   0  0  0  0  0  0  0  0  0  0  0  0
   38.2950   24.4680   36.1720 C   0  0  0  0  0  0  0  0  0  0  0  0
   39.2080   23.5330   36.0930 N   0  0  0  0  0  0  0  0  0  0  0  0
   37.8770   25.1730   34.9920 N   0  0  0  0  0  0  0  0  0  0  0  0
   37.4630   26.4540   35.0230 C   0  0  0  0  0  0  0  0  0  0  0  0
   37.0870   27.0190   33.8140 C   0  0  0  0  0  0  0  0  0  0  0  0
   37.1160   26.3470   32.6100 C   0  0  0  0  0  0  0  0  0  0  0  0
   36.7680   26.8860   31.5270 O   0  0  0  0  0  0  0  0  0  0  0  0
   37.5350   25.0810   32.6430 N   0  0  0  0  0  0  0  0  0  0  0  0
   37.8980   24.5330   33.8030 C   0  0  0  0  0  0  0  0  0  0  0  0
   38.2860   23.3180   33.7440 O   0  0  0  0  0  0  0  0  0  0  0  0
   41.8190   22.1950   36.7520 C   0  0  0  0  0  0  0  0  0  0  0  0
   42.4120   21.1900   36.0350 C   0  0  0  0  0  0  0  0  0  0  0  0
   44.0050   21.9310   35.6270 S   0  0  0  0  0  0  0  0  0  0  0  0
   43.5890   23.5600   36.5380 C   0  0  0  0  0  0  0  0  0  0  0  0
   42.5540   23.2750   36.8890 N   0  0  0  0  0  0  0  0  0  0  0  0
   44.5770   24.6770   36.5930 C   0  0  2  0  0  0  0  0  0  0  0  0
   45.9770   24.4310   36.2710 C   0  0  0  0  0  0  0  0  0  0  0  0
   45.7060   24.4770   37.6910 C   0  0  1  0  0  0  0  0  0  0  0  0
   46.2010   25.7680   38.3160 C   0  0  0  0  0  0  0  0  0  0  0  0
   47.2450   26.3790   37.8210 O   0  0  0  0  0  0  0  0  0  0  0  0
   45.5530   26.3300   39.4240 O   0  0  0  0  0  0  0  0  0  0  0  0
   39.3214   22.6678   39.4174 H   0  0  0  0  0  0  0  0  0  0  0  0
   37.5628   24.4876   39.4583 H   0  0  0  0  0  0  0  0  0  0  0  0
   37.4249   27.0248   35.9625 H   0  0  0  0  0  0  0  0  0  0  0  0
   36.7455   28.0646   33.8152 H   0  0  0  0  0  0  0  0  0  0  0  0
   37.5780   24.5284   31.7749 H   0  0  0  0  0  0  0  0  0  0  0  0
   42.0206   20.1950   35.7766 H   0  0  0  0  0  0  0  0  0  0  0  0
   43.8441   25.4344   36.2781 H   0  0  0  0  0  0  0  0  0  0  0  0
   46.2567   23.4704   35.8138 H   0  0  0  0  0  0  0  0  0  0  0  0
   46.6957   24.9720   35.6380 H   0  0  0  0  0  0  0  0  0  0  0  0
   45.8428   23.8226   38.5645 H   0  0  0  0  0  0  0  0  0  0  0  0
   45.8895   27.1730   39.8192 H   0  0  0  0  0  0  0  0  0  0  0  0
  1  2  1  0
  2  3  2  0
  3  4  1  0
  5  4  2  0
  6  5  1  0
  7  6  2  0
  7  2  1  0
  8  9  1  0
  8  6  1  0
 10  9  2  0
 11 13  1  0
 11 10  1  0
 12 11  2  0
 13 14  1  0
 14  8  1  0
 15 14  2  0
 16 20  1  0
 16  1  1  0
 17 16  2  0
 18 17  1  0
 18 19  1  0
 19 21  1  0
 19 20  2  0
 21 23  1  0
 22 21  1  0
 22 23  1  0
 23 24  1  0
 24 26  1  0
 25 24  2  0
  3 27  1  0
  4 28  1  0
  9 29  1  0
 10 30  1  0
 13 31  1  0
 17 32  1  0
 21 33  1  1
 22 34  1  0
 22 35  1  0
 23 36  1  1
 26 37  1  0
M  ISO  8  27  14  28  14  29  14  30  14  31   9  32  14  33  13  34  13
M  ISO  3  35  13  36  13  37   3
M  END
>  <minimizedAffinity>  (1) 
-6.13579893

>  <minimizedRMSD>  (1) 
0.46650371

$$$$
