
     RDKit          3D

 40 43  0  0  1  0  0  0  0  0999 V2000
   40.4970   21.9150   36.9200 O   0  0  0  0  0  0  0  0  0  0  0  0
   39.6050   22.9050   37.1020 C   0  0  0  0  0  0  0  0  0  0  0  0
   39.1200   23.1170   38.4070 C   0  0  0  0  0  0  0  0  0  0  0  0
   38.2000   24.1370   38.6010 C   0  0  0  0  0  0  0  0  0  0  0  0
   37.8010   24.8850   37.5520 N   0  0  0  0  0  0  0  0  0  0  0  0
   38.3050   24.6400   36.2900 C   0  0  0  0  0  0  0  0  0  0  0  0
   39.1860   23.6720   36.0690 N   0  0  0  0  0  0  0  0  0  0  0  0
   37.0380   27.0770   33.0700 C   0  0  0  0  0  0  0  0  0  0  0  0
   37.0970   27.6180   34.3350 C   0  0  0  0  0  0  0  0  0  0  0  0
   37.5180   26.7940   35.3840 C   0  0  0  0  0  0  0  0  0  0  0  0
   37.8660   25.4610   35.1410 C   0  0  0  0  0  0  0  0  0  0  0  0
   37.8040   24.9230   33.8610 C   0  0  0  0  0  0  0  0  0  0  0  0
   37.3860   25.7620   32.8550 C   0  0  0  0  0  0  0  0  0  0  0  0
   36.5180   28.0700   31.7380 S   0  0  0  0  0  0  0  0  0  0  0  0
   35.3040   28.8920   32.1040 O   0  0  0  0  0  0  0  0  0  0  0  0
   36.1510   27.1820   30.5870 O   0  0  0  0  0  0  0  0  0  0  0  0
   41.8140   22.2070   36.5300 C   0  0  0  0  0  0  0  0  0  0  0  0
   42.4630   21.2050   35.8550 C   0  0  0  0  0  0  0  0  0  0  0  0
   44.0700   21.9570   35.5500 S   0  0  0  0  0  0  0  0  0  0  0  0
   43.5830   23.5870   36.4260 C   0  0  0  0  0  0  0  0  0  0  0  0
   42.5290   23.2930   36.7110 N   0  0  0  0  0  0  0  0  0  0  0  0
   44.5560   24.7170   36.5490 C   0  0  2  0  0  0  0  0  0  0  0  0
   45.9620   24.4970   36.2270 C   0  0  0  0  0  0  0  0  0  0  0  0
   45.6810   24.4690   37.6430 C   0  0  1  0  0  0  0  0  0  0  0  0
   46.1580   25.7280   38.3380 C   0  0  0  0  0  0  0  0  0  0  0  0
   47.2030   26.3610   37.8820 O   0  0  0  0  0  0  0  0  0  0  0  0
   45.5000   26.2370   39.4610 O   0  0  0  0  0  0  0  0  0  0  0  0
   39.4602   22.4930   39.2466 H   0  0  0  0  0  0  0  0  0  0  0  0
   37.7978   24.3348   39.6056 H   0  0  0  0  0  0  0  0  0  0  0  0
   36.8211   28.6675   34.5153 H   0  0  0  0  0  0  0  0  0  0  0  0
   37.5758   27.1965   36.4061 H   0  0  0  0  0  0  0  0  0  0  0  0
   38.0763   23.8759   33.6622 H   0  0  0  0  0  0  0  0  0  0  0  0
   37.3268   25.3644   31.8311 H   0  0  0  0  0  0  0  0  0  0  0  0
   37.5438   28.9168   31.4100 H   0  0  0  0  0  0  0  0  0  0  0  0
   42.0981   20.2060   35.5742 H   0  0  0  0  0  0  0  0  0  0  0  0
   43.8184   25.4840   36.2705 H   0  0  0  0  0  0  0  0  0  0  0  0
   46.2523   23.5627   35.7241 H   0  0  0  0  0  0  0  0  0  0  0  0
   46.6816   25.0746   35.6282 H   0  0  0  0  0  0  0  0  0  0  0  0
   45.8187   23.7713   38.4822 H   0  0  0  0  0  0  0  0  0  0  0  0
   45.8313   27.0615   39.8974 H   0  0  0  0  0  0  0  0  0  0  0  0
  1  2  1  0
  2  3  2  0
  3  4  1  0
  5  4  2  0
  6  5  1  0
  7  6  2  0
  7  2  1  0
  8  9  2  0
  9 10  1  0
 11 10  2  0
 11  6  1  0
 12 11  1  0
 13  8  1  0
 13 12  2  0
 14 15  2  0
 14  8  1  0
 16 14  2  0
 17 21  1  0
 17  1  1  0
 18 17  2  0
 19 18  1  0
 19 20  1  0
 20 22  1  0
 20 21  2  0
 22 24  1  0
 23 22  1  0
 23 24  1  0
 24 25  1  0
 25 27  1  0
 26 25  2  0
  3 28  1  0
  4 29  1  0
  9 30  1  0
 10 31  1  0
 12 32  1  0
 13 33  1  0
 14 34  1  0
 18 35  1  0
 22 36  1  1
 23 37  1  0
 23 38  1  0
 24 39  1  1
 27 40  1  0
M  ISO  8  28  14  29  14  30  14  31  14  32  14  33  14  34  11  35  14
M  ISO  5  36  13  37  13  38  13  39  13  40   3
M  END
>  <minimizedAffinity>  (1) 
-6.02205706

>  <minimizedRMSD>  (1) 
0.999024987

$$$$
