
     RDKit          3D

 41 44  0  0  1  0  0  0  0  0999 V2000
   41.8360   22.1850   36.7530 C   0  0  0  0  0  0  0  0  0  0  0  0
   42.4510   21.1110   36.1650 C   0  0  0  0  0  0  0  0  0  0  0  0
   44.0870   21.7770   35.8180 S   0  0  0  0  0  0  0  0  0  0  0  0
   43.6550   23.4870   36.5580 C   0  0  0  0  0  0  0  0  0  0  0  0
   42.5930   23.2450   36.8490 N   0  0  0  0  0  0  0  0  0  0  0  0
   44.6660   24.5890   36.5920 C   0  0  2  0  0  0  0  0  0  0  0  0
   46.0800   24.2700   36.4090 C   0  0  0  0  0  0  0  0  0  0  0  0
   45.7020   24.4530   37.7930 C   0  0  1  0  0  0  0  0  0  0  0  0
   46.1890   25.7770   38.3430 C   0  0  0  0  0  0  0  0  0  0  0  0
   47.2310   26.3600   37.8140 O   0  0  0  0  0  0  0  0  0  0  0  0
   45.5380   26.4040   39.4130 O   0  0  0  0  0  0  0  0  0  0  0  0
   40.5070   21.9700   37.1490 O   0  0  0  0  0  0  0  0  0  0  0  0
   39.6290   22.9900   37.1640 C   0  0  0  0  0  0  0  0  0  0  0  0
   38.8730   23.2040   38.3300 C   0  0  0  0  0  0  0  0  0  0  0  0
   37.9650   24.2510   38.3590 C   0  0  0  0  0  0  0  0  0  0  0  0
   37.8460   25.0210   37.2620 N   0  0  0  0  0  0  0  0  0  0  0  0
   38.5930   24.7920   36.1420 C   0  0  0  0  0  0  0  0  0  0  0  0
   39.4750   23.7920   36.0860 N   0  0  0  0  0  0  0  0  0  0  0  0
   38.3940   25.6630   35.0340 N   0  0  0  0  0  0  0  0  0  0  0  0
   38.2700   25.1290   33.6890 C   0  0  0  0  0  0  0  0  0  0  0  0
   37.0680   25.7480   33.0180 C   0  0  0  0  0  0  0  0  0  0  0  0
   36.8770   27.1350   33.2990 N   0  0  0  0  0  0  0  0  0  0  0  0
   36.9400   27.4800   34.6940 C   0  0  0  0  0  0  0  0  0  0  0  0
   38.3130   27.1000   35.2280 C   0  0  0  0  0  0  0  0  0  0  0  0
   42.0508   20.1072   35.9594 H   0  0  0  0  0  0  0  0  0  0  0  0
   43.9880   25.3373   36.1558 H   0  0  0  0  0  0  0  0  0  0  0  0
   46.3572   23.2635   36.0624 H   0  0  0  0  0  0  0  0  0  0  0  0
   46.8664   24.7288   35.7917 H   0  0  0  0  0  0  0  0  0  0  0  0
   45.7490   23.8752   38.7278 H   0  0  0  0  0  0  0  0  0  0  0  0
   45.8729   27.2696   39.7575 H   0  0  0  0  0  0  0  0  0  0  0  0
   39.0001   22.5506   39.2058 H   0  0  0  0  0  0  0  0  0  0  0  0
   37.3579   24.4471   39.2551 H   0  0  0  0  0  0  0  0  0  0  0  0
   39.1764   25.3679   33.1133 H   0  0  0  0  0  0  0  0  0  0  0  0
   38.1460   24.0370   33.7350 H   0  0  0  0  0  0  0  0  0  0  0  0
   36.1717   25.2042   33.3509 H   0  0  0  0  0  0  0  0  0  0  0  0
   37.2427   25.6713   31.9347 H   0  0  0  0  0  0  0  0  0  0  0  0
   37.6074   27.6662   32.8038 H   0  0  0  0  0  0  0  0  0  0  0  0
   36.7818   28.5618   34.8154 H   0  0  0  0  0  0  0  0  0  0  0  0
   36.1589   26.9404   35.2496 H   0  0  0  0  0  0  0  0  0  0  0  0
   38.3991   27.3537   36.2949 H   0  0  0  0  0  0  0  0  0  0  0  0
   39.1244   27.6375   34.7155 H   0  0  0  0  0  0  0  0  0  0  0  0
  1  5  1  0
  1 12  1  0
  2  1  2  0
  3  2  1  0
  3  4  1  0
  4  6  1  0
  4  5  2  0
  6  8  1  0
  7  6  1  0
  7  8  1  0
  8  9  1  0
  9 11  1  0
 10  9  2  0
 12 13  1  0
 13 14  2  0
 14 15  1  0
 16 15  2  0
 17 16  1  0
 18 17  2  0
 18 13  1  0
 19 24  1  0
 19 17  1  0
 20 19  1  0
 21 22  1  0
 21 20  1  0
 22 23  1  0
 23 24  1  0
  2 25  1  0
  6 26  1  6
  7 27  1  0
  7 28  1  0
  8 29  1  1
 11 30  1  0
 14 31  1  0
 15 32  1  0
 20 33  1  0
 20 34  1  0
 21 35  1  0
 21 36  1  0
 22 37  1  0
 23 38  1  0
 23 39  1  0
 24 40  1  0
 24 41  1  0
M  ISO  8  25  14  26  13  27  13  28  13  29  13  30   3  31  14  32  14
M  ISO  8  33  13  34  13  35  13  36  13  37   5  38  13  39  13  40  13
M  ISO  1  41  13
M  END
>  <minimizedAffinity>  (1) 
-5.83069086

>  <minimizedRMSD>  (1) 
0.872446239

$$$$
