
     RDKit          3D

 36 39  0  0  1  0  0  0  0  0999 V2000
   41.7620   22.1910   36.7000 C   0  0  0  0  0  0  0  0  0  0  0  0
   42.4190   21.1540   36.0920 C   0  0  0  0  0  0  0  0  0  0  0  0
   44.0240   21.8880   35.7600 S   0  0  0  0  0  0  0  0  0  0  0  0
   43.5290   23.5660   36.5350 C   0  0  0  0  0  0  0  0  0  0  0  0
   42.4750   23.2800   36.8210 N   0  0  0  0  0  0  0  0  0  0  0  0
   44.4980   24.7030   36.6010 C   0  0  2  0  0  0  0  0  0  0  0  0
   45.8930   24.4900   36.2390 C   0  0  0  0  0  0  0  0  0  0  0  0
   45.6540   24.4840   37.6640 C   0  0  1  0  0  0  0  0  0  0  0  0
   46.1450   25.7500   38.3310 C   0  0  0  0  0  0  0  0  0  0  0  0
   47.1950   26.3710   37.8590 O   0  0  0  0  0  0  0  0  0  0  0  0
   45.4990   26.2890   39.4520 O   0  0  0  0  0  0  0  0  0  0  0  0
   40.4310   21.9210   37.0960 O   0  0  0  0  0  0  0  0  0  0  0  0
   39.5460   22.9340   37.1980 C   0  0  0  0  0  0  0  0  0  0  0  0
   39.0270   23.2020   38.4670 C   0  0  0  0  0  0  0  0  0  0  0  0
   38.1040   24.2550   38.5980 C   0  0  0  0  0  0  0  0  0  0  0  0
   37.7530   24.9750   37.4860 N   0  0  0  0  0  0  0  0  0  0  0  0
   38.3100   24.6510   36.2720 C   0  0  0  0  0  0  0  0  0  0  0  0
   39.1700   23.6790   36.1030 N   0  0  0  0  0  0  0  0  0  0  0  0
   37.8750   25.4830   35.1330 C   0  0  0  0  0  0  0  0  0  0  0  0
   37.5730   26.8160   35.3500 C   0  0  0  0  0  0  0  0  0  0  0  0
   37.1650   27.5920   34.2850 C   0  0  0  0  0  0  0  0  0  0  0  0
   37.0830   26.9850   33.0500 C   0  0  0  0  0  0  0  0  0  0  0  0
   37.3780   25.6600   32.8100 C   0  0  0  0  0  0  0  0  0  0  0  0
   37.7650   24.9710   33.8910 N   0  0  0  0  0  0  0  0  0  0  0  0
   42.0586   20.1395   35.8666 H   0  0  0  0  0  0  0  0  0  0  0  0
   43.7468   25.4586   36.3277 H   0  0  0  0  0  0  0  0  0  0  0  0
   46.1763   23.5498   35.7432 H   0  0  0  0  0  0  0  0  0  0  0  0
   46.5889   25.0630   35.6086 H   0  0  0  0  0  0  0  0  0  0  0  0
   45.8205   23.8020   38.5108 H   0  0  0  0  0  0  0  0  0  0  0  0
   45.8414   27.1190   39.8692 H   0  0  0  0  0  0  0  0  0  0  0  0
   39.3319   22.6058   39.3397 H   0  0  0  0  0  0  0  0  0  0  0  0
   37.6699   24.4973   39.5792 H   0  0  0  0  0  0  0  0  0  0  0  0
   37.6571   27.2504   36.3571 H   0  0  0  0  0  0  0  0  0  0  0  0
   36.9145   28.6550   34.4162 H   0  0  0  0  0  0  0  0  0  0  0  0
   36.7599   27.6003   32.1974 H   0  0  0  0  0  0  0  0  0  0  0  0
   37.3017   25.2054   31.8112 H   0  0  0  0  0  0  0  0  0  0  0  0
  1  5  1  0
  1 12  1  0
  2  1  2  0
  3  2  1  0
  3  4  1  0
  4  6  1  0
  4  5  2  0
  6  8  1  0
  7  6  1  0
  7  8  1  0
  8  9  1  0
  9 11  1  0
 10  9  2  0
 12 13  1  0
 13 14  2  0
 14 15  1  0
 16 15  2  0
 17 16  1  0
 18 17  2  0
 18 13  1  0
 19 20  2  0
 19 17  1  0
 21 20  1  0
 22 21  2  0
 23 22  1  0
 23 24  2  0
 24 19  1  0
  2 25  1  0
  6 26  1  1
  7 27  1  0
  7 28  1  0
  8 29  1  1
 11 30  1  0
 14 31  1  0
 15 32  1  0
 20 33  1  0
 21 34  1  0
 22 35  1  0
 23 36  1  0
M  ISO  8  25  14  26  13  27  13  28  13  29  13  30   3  31  14  32  14
M  ISO  4  33  14  34  14  35  14  36  14
M  END
>  <minimizedAffinity>  (1) 
-5.78401327

>  <minimizedRMSD>  (1) 
0.762381196

$$$$
