
     RDKit          3D

 34 37  0  0  1  0  0  0  0  0999 V2000
   41.8540   22.1640   36.7730 C   0  0  0  0  0  0  0  0  0  0  0  0
   42.4730   21.1310   36.1150 C   0  0  0  0  0  0  0  0  0  0  0  0
   44.0730   21.8570   35.7280 S   0  0  0  0  0  0  0  0  0  0  0  0
   43.6270   23.5240   36.5590 C   0  0  0  0  0  0  0  0  0  0  0  0
   42.5840   23.2470   36.8890 N   0  0  0  0  0  0  0  0  0  0  0  0
   44.6090   24.6490   36.6030 C   0  0  2  0  0  0  0  0  0  0  0  0
   46.0130   24.4030   36.3030 C   0  0  0  0  0  0  0  0  0  0  0  0
   45.7290   24.4760   37.7160 C   0  0  1  0  0  0  0  0  0  0  0  0
   46.2080   25.7800   38.3230 C   0  0  0  0  0  0  0  0  0  0  0  0
   47.2470   26.3880   37.8180 O   0  0  0  0  0  0  0  0  0  0  0  0
   45.5530   26.3570   39.4180 O   0  0  0  0  0  0  0  0  0  0  0  0
   40.5480   21.8930   37.2160 O   0  0  0  0  0  0  0  0  0  0  0  0
   39.6120   22.8620   37.1980 C   0  0  0  0  0  0  0  0  0  0  0  0
   38.9920   23.1900   38.4210 C   0  0  0  0  0  0  0  0  0  0  0  0
   38.0270   24.1850   38.4120 C   0  0  0  0  0  0  0  0  0  0  0  0
   37.7180   24.7970   37.2520 N   0  0  0  0  0  0  0  0  0  0  0  0
   38.3490   24.4450   36.0820 C   0  0  0  0  0  0  0  0  0  0  0  0
   39.2780   23.4960   36.0510 N   0  0  0  0  0  0  0  0  0  0  0  0
   37.8860   25.2020   34.9770 N   0  0  0  0  0  0  0  0  0  0  0  0
   37.7010   25.0110   33.6830 N   0  0  0  0  0  0  0  0  0  0  0  0
   37.2150   26.1530   33.1230 C   0  0  0  0  0  0  0  0  0  0  0  0
   37.0900   27.1060   34.1320 C   0  0  0  0  0  0  0  0  0  0  0  0
   37.5260   26.4660   35.2940 C   0  0  0  0  0  0  0  0  0  0  0  0
   42.0918   20.1251   35.8850 H   0  0  0  0  0  0  0  0  0  0  0  0
   43.8756   25.3963   36.2657 H   0  0  0  0  0  0  0  0  0  0  0  0
   46.3017   23.4346   35.8684 H   0  0  0  0  0  0  0  0  0  0  0  0
   46.7360   24.9349   35.6671 H   0  0  0  0  0  0  0  0  0  0  0  0
   45.8623   23.8392   38.6030 H   0  0  0  0  0  0  0  0  0  0  0  0
   45.8825   27.2093   39.7990 H   0  0  0  0  0  0  0  0  0  0  0  0
   39.2653   22.6728   39.3526 H   0  0  0  0  0  0  0  0  0  0  0  0
   37.5179   24.4725   39.3437 H   0  0  0  0  0  0  0  0  0  0  0  0
   36.9652   26.2978   32.0616 H   0  0  0  0  0  0  0  0  0  0  0  0
   36.7263   28.1395   34.0342 H   0  0  0  0  0  0  0  0  0  0  0  0
   37.5692   26.9144   36.2975 H   0  0  0  0  0  0  0  0  0  0  0  0
  1  5  1  0
  1 12  1  0
  2  1  2  0
  3  2  1  0
  3  4  1  0
  4  6  1  0
  4  5  2  0
  6  8  1  0
  7  6  1  0
  7  8  1  0
  8  9  1  0
  9 11  1  0
 10  9  2  0
 13 12  1  0
 13 14  2  0
 15 14  1  0
 16 15  2  0
 17 16  1  0
 18 17  2  0
 18 13  1  0
 19 23  1  0
 19 17  1  0
 20 19  1  0
 21 20  2  0
 21 22  1  0
 22 23  2  0
  2 24  1  0
  6 25  1  6
  7 26  1  0
  7 27  1  0
  8 28  1  1
 11 29  1  0
 14 30  1  0
 15 31  1  0
 21 32  1  0
 22 33  1  0
 23 34  1  0
M  ISO  8  24  14  25  13  26  13  27  13  28  13  29   3  30  14  31  14
M  ISO  3  32  14  33  14  34  14
M  END
>  <minimizedAffinity>  (1) 
-5.7304635

>  <minimizedRMSD>  (1) 
0.361504942

$$$$
