
     RDKit          3D

 35 38  0  0  1  0  0  0  0  0999 V2000
   41.8180   22.1640   36.7290 C   0  0  0  0  0  0  0  0  0  0  0  0
   42.4640   21.1320   36.0900 C   0  0  0  0  0  0  0  0  0  0  0  0
   44.0650   21.8740   35.7350 S   0  0  0  0  0  0  0  0  0  0  0  0
   43.5830   23.5410   36.5450 C   0  0  0  0  0  0  0  0  0  0  0  0
   42.5330   23.2590   36.8540 N   0  0  0  0  0  0  0  0  0  0  0  0
   44.5530   24.6760   36.6010 C   0  0  2  0  0  0  0  0  0  0  0  0
   45.9530   24.4520   36.2630 C   0  0  0  0  0  0  0  0  0  0  0  0
   45.7010   24.4760   37.6830 C   0  0  1  0  0  0  0  0  0  0  0  0
   46.1830   25.7650   38.3220 C   0  0  0  0  0  0  0  0  0  0  0  0
   47.2220   26.3860   37.8300 O   0  0  0  0  0  0  0  0  0  0  0  0
   45.5300   26.3130   39.4320 O   0  0  0  0  0  0  0  0  0  0  0  0
   40.5070   21.8830   37.1430 O   0  0  0  0  0  0  0  0  0  0  0  0
   39.6000   22.8730   37.2430 C   0  0  0  0  0  0  0  0  0  0  0  0
   39.0960   23.1680   38.5250 C   0  0  0  0  0  0  0  0  0  0  0  0
   38.1530   24.1950   38.6280 C   0  0  0  0  0  0  0  0  0  0  0  0
   37.7670   24.8530   37.5180 N   0  0  0  0  0  0  0  0  0  0  0  0
   38.2900   24.5240   36.2880 C   0  0  0  0  0  0  0  0  0  0  0  0
   39.1860   23.5580   36.1480 N   0  0  0  0  0  0  0  0  0  0  0  0
   37.8630   25.2500   35.0720 C   0  0  0  0  0  0  0  0  0  0  0  0
   37.4670   26.5820   35.2250 C   0  0  0  0  0  0  0  0  0  0  0  0
   37.0790   27.2030   34.0480 C   0  0  0  0  0  0  0  0  0  0  0  0
   37.0720   26.6080   32.8520 N   0  0  0  0  0  0  0  0  0  0  0  0
   37.4670   25.3080   32.7510 C   0  0  0  0  0  0  0  0  0  0  0  0
   37.8530   24.6580   33.8640 N   0  0  0  0  0  0  0  0  0  0  0  0
   42.0990   20.1207   35.8574 H   0  0  0  0  0  0  0  0  0  0  0  0
   43.8062   25.4270   36.3039 H   0  0  0  0  0  0  0  0  0  0  0  0
   46.2397   23.5009   35.7905 H   0  0  0  0  0  0  0  0  0  0  0  0
   46.6573   25.0111   35.6294 H   0  0  0  0  0  0  0  0  0  0  0  0
   45.8601   23.8115   38.5451 H   0  0  0  0  0  0  0  0  0  0  0  0
   45.8601   27.1551   39.8346 H   0  0  0  0  0  0  0  0  0  0  0  0
   39.4319   22.6110   39.4121 H   0  0  0  0  0  0  0  0  0  0  0  0
   37.7299   24.4634   39.6073 H   0  0  0  0  0  0  0  0  0  0  0  0
   37.4636   27.0946   36.1983 H   0  0  0  0  0  0  0  0  0  0  0  0
   36.7561   28.2531   34.1023 H   0  0  0  0  0  0  0  0  0  0  0  0
   37.4703   24.7985   31.7761 H   0  0  0  0  0  0  0  0  0  0  0  0
  1  5  1  0
  1 12  1  0
  2  1  2  0
  3  2  1  0
  3  4  1  0
  4  6  1  0
  4  5  2  0
  6  8  1  0
  7  6  1  0
  7  8  1  0
  8  9  1  0
  9 11  1  0
 10  9  2  0
 12 13  1  0
 13 14  2  0
 14 15  1  0
 16 15  2  0
 17 16  1  0
 18 17  2  0
 18 13  1  0
 19 20  2  0
 19 17  1  0
 21 20  1  0
 22 21  2  0
 23 22  1  0
 23 24  2  0
 24 19  1  0
  2 25  1  0
  6 26  1  1
  7 27  1  0
  7 28  1  0
  8 29  1  1
 11 30  1  0
 14 31  1  0
 15 32  1  0
 20 33  1  0
 21 34  1  0
 23 35  1  0
M  ISO  8  25  14  26  13  27  13  28  13  29  13  30   3  31  14  32  14
M  ISO  3  33  14  34  14  35  14
M  END
>  <minimizedAffinity>  (1) 
-5.59845209

>  <minimizedRMSD>  (1) 
0.664665759

$$$$
