
     RDKit          3D

 34 37  0  0  1  0  0  0  0  0999 V2000
   41.7240   22.2170   36.6820 C   0  0  0  0  0  0  0  0  0  0  0  0
   42.3850   21.1780   36.0820 C   0  0  0  0  0  0  0  0  0  0  0  0
   44.0000   21.9060   35.7670 S   0  0  0  0  0  0  0  0  0  0  0  0
   43.4990   23.5900   36.5370 C   0  0  0  0  0  0  0  0  0  0  0  0
   42.4450   23.2890   36.8040 N   0  0  0  0  0  0  0  0  0  0  0  0
   44.4740   24.7180   36.6070 C   0  0  2  0  0  0  0  0  0  0  0  0
   45.8690   24.4930   36.2420 C   0  0  0  0  0  0  0  0  0  0  0  0
   45.6330   24.4830   37.6670 C   0  0  1  0  0  0  0  0  0  0  0  0
   46.1330   25.7490   38.3340 C   0  0  0  0  0  0  0  0  0  0  0  0
   47.1810   26.3670   37.8590 O   0  0  0  0  0  0  0  0  0  0  0  0
   45.4880   26.2820   39.4550 O   0  0  0  0  0  0  0  0  0  0  0  0
   40.3990   21.9440   37.0570 O   0  0  0  0  0  0  0  0  0  0  0  0
   39.5180   22.9530   37.2090 C   0  0  0  0  0  0  0  0  0  0  0  0
   38.9990   23.2020   38.4810 C   0  0  0  0  0  0  0  0  0  0  0  0
   38.0890   24.2390   38.6520 C   0  0  0  0  0  0  0  0  0  0  0  0
   37.7360   24.9790   37.5660 N   0  0  0  0  0  0  0  0  0  0  0  0
   38.2730   24.6970   36.3380 C   0  0  0  0  0  0  0  0  0  0  0  0
   39.1380   23.7210   36.1360 N   0  0  0  0  0  0  0  0  0  0  0  0
   37.8650   25.5280   35.1690 C   0  0  0  0  0  0  0  0  0  0  0  0
   37.3680   26.7650   35.1060 C   0  0  0  0  0  0  0  0  0  0  0  0
   37.0590   27.3420   33.9070 C   0  0  0  0  0  0  0  0  0  0  0  0
   37.3350   26.4590   32.7460 C   0  0  0  0  0  0  0  0  0  0  0  0
   38.0080   24.9080   33.6010 S   0  0  0  0  0  0  0  0  0  0  0  0
   42.0234   20.1647   35.8529 H   0  0  0  0  0  0  0  0  0  0  0  0
   43.7287   25.4816   36.3396 H   0  0  0  0  0  0  0  0  0  0  0  0
   46.1426   23.5523   35.7418 H   0  0  0  0  0  0  0  0  0  0  0  0
   46.5692   25.0624   35.6131 H   0  0  0  0  0  0  0  0  0  0  0  0
   45.7972   23.7956   38.5099 H   0  0  0  0  0  0  0  0  0  0  0  0
   45.8305   27.1100   39.8761 H   0  0  0  0  0  0  0  0  0  0  0  0
   39.3066   22.5848   39.3380 H   0  0  0  0  0  0  0  0  0  0  0  0
   37.6639   24.4564   39.6430 H   0  0  0  0  0  0  0  0  0  0  0  0
   37.2044   27.3297   36.0357 H   0  0  0  0  0  0  0  0  0  0  0  0
   36.6475   28.3577   33.8115 H   0  0  0  0  0  0  0  0  0  0  0  0
   37.1878   26.6537   31.6734 H   0  0  0  0  0  0  0  0  0  0  0  0
  1  5  1  0
  1 12  1  0
  2  1  2  0
  3  2  1  0
  3  4  1  0
  4  6  1  0
  4  5  2  0
  6  8  1  0
  7  6  1  0
  7  8  1  0
  8  9  1  0
  9 11  1  0
 10  9  2  0
 12 13  1  0
 13 14  2  0
 14 15  1  0
 16 15  2  0
 17 16  1  0
 18 17  2  0
 18 13  1  0
 19 17  1  0
 20 19  2  0
 21 20  1  0
 22 23  1  0
 22 21  2  0
 23 19  1  0
  2 24  1  0
  6 25  1  1
  7 26  1  0
  7 27  1  0
  8 28  1  1
 11 29  1  0
 14 30  1  0
 15 31  1  0
 20 32  1  0
 21 33  1  0
 22 34  1  0
M  ISO  8  24  14  25  13  26  13  27  13  28  13  29   3  30  14  31  14
M  ISO  3  32  14  33  14  34  14
M  END
>  <minimizedAffinity>  (1) 
-5.5062108

>  <minimizedRMSD>  (1) 
0.6964522

$$$$
