
     RDKit          3D

 34 37  0  0  1  0  0  0  0  0999 V2000
   41.7280   22.2180   36.7070 C   0  0  0  0  0  0  0  0  0  0  0  0
   42.3870   21.1970   36.0870 C   0  0  0  0  0  0  0  0  0  0  0  0
   43.9940   21.9350   35.7630 S   0  0  0  0  0  0  0  0  0  0  0  0
   43.4950   23.6030   36.5610 C   0  0  0  0  0  0  0  0  0  0  0  0
   42.4450   23.2910   36.8350 N   0  0  0  0  0  0  0  0  0  0  0  0
   44.4570   24.7420   36.6290 C   0  0  2  0  0  0  0  0  0  0  0  0
   45.8470   24.5330   36.2230 C   0  0  0  0  0  0  0  0  0  0  0  0
   45.6480   24.4960   37.6550 C   0  0  1  0  0  0  0  0  0  0  0  0
   46.1490   25.7610   38.3240 C   0  0  0  0  0  0  0  0  0  0  0  0
   47.1970   26.3810   37.8490 O   0  0  0  0  0  0  0  0  0  0  0  0
   45.5060   26.2930   39.4480 O   0  0  0  0  0  0  0  0  0  0  0  0
   40.4090   21.9320   37.0930 O   0  0  0  0  0  0  0  0  0  0  0  0
   39.5060   22.9290   37.2200 C   0  0  0  0  0  0  0  0  0  0  0  0
   38.9960   23.2210   38.4880 C   0  0  0  0  0  0  0  0  0  0  0  0
   38.0680   24.2480   38.6050 C   0  0  0  0  0  0  0  0  0  0  0  0
   37.6880   24.9310   37.4950 N   0  0  0  0  0  0  0  0  0  0  0  0
   38.2170   24.6070   36.2720 C   0  0  0  0  0  0  0  0  0  0  0  0
   39.1050   23.6340   36.1180 N   0  0  0  0  0  0  0  0  0  0  0  0
   37.8340   25.3180   35.0510 C   0  0  0  0  0  0  0  0  0  0  0  0
   37.3960   26.6340   35.1000 C   0  0  0  0  0  0  0  0  0  0  0  0
   37.1140   27.0150   33.7860 C   0  0  0  0  0  0  0  0  0  0  0  0
   37.3820   25.9500   33.0020 N   0  0  0  0  0  0  0  0  0  0  0  0
   37.8100   24.9420   33.7490 N   0  0  0  0  0  0  0  0  0  0  0  0
   42.0283   20.1851   35.8475 H   0  0  0  0  0  0  0  0  0  0  0  0
   43.6990   25.5048   36.3976 H   0  0  0  0  0  0  0  0  0  0  0  0
   46.1138   23.6033   35.6991 H   0  0  0  0  0  0  0  0  0  0  0  0
   46.5267   25.1185   35.5865 H   0  0  0  0  0  0  0  0  0  0  0  0
   45.8419   23.7948   38.4801 H   0  0  0  0  0  0  0  0  0  0  0  0
   45.8497   27.1202   39.8696 H   0  0  0  0  0  0  0  0  0  0  0  0
   39.3213   22.6518   39.3713 H   0  0  0  0  0  0  0  0  0  0  0  0
   37.6452   24.5053   39.5874 H   0  0  0  0  0  0  0  0  0  0  0  0
   37.2911   27.2572   36.0004 H   0  0  0  0  0  0  0  0  0  0  0  0
   36.7440   27.9962   33.4537 H   0  0  0  0  0  0  0  0  0  0  0  0
   37.2709   25.9242   31.9783 H   0  0  0  0  0  0  0  0  0  0  0  0
  1  5  1  0
  1 12  1  0
  2  1  2  0
  3  2  1  0
  3  4  1  0
  4  6  1  0
  4  5  2  0
  6  8  1  0
  7  6  1  0
  7  8  1  0
  8  9  1  0
  9 11  1  0
 10  9  2  0
 12 13  1  0
 13 14  2  0
 14 15  1  0
 16 15  2  0
 17 16  1  0
 18 17  2  0
 18 13  1  0
 19 20  1  0
 19 17  1  0
 21 20  2  0
 22 23  1  0
 22 21  1  0
 23 19  2  0
  2 24  1  0
  6 25  1  1
  7 26  1  0
  7 27  1  0
  8 28  1  1
 11 29  1  0
 14 30  1  0
 15 31  1  0
 20 32  1  0
 21 33  1  0
 22 34  1  0
M  ISO  8  24  14  25  13  26  13  27  13  28  13  29   3  30  14  31  14
M  ISO  3  32  14  33  14  34   9
M  END
>  <minimizedAffinity>  (1) 
-5.41335678

>  <minimizedRMSD>  (1) 
0.660808742

$$$$
