
     RDKit          3D

 36 38  0  0  1  0  0  0  0  0999 V2000
   41.8150   22.1970   36.7110 C   0  0  0  0  0  0  0  0  0  0  0  0
   42.4370   21.1320   36.1180 C   0  0  0  0  0  0  0  0  0  0  0  0
   44.0720   21.8050   35.7870 S   0  0  0  0  0  0  0  0  0  0  0  0
   43.6350   23.5110   36.5410 C   0  0  0  0  0  0  0  0  0  0  0  0
   42.5680   23.2580   36.8220 N   0  0  0  0  0  0  0  0  0  0  0  0
   44.6370   24.6140   36.5920 C   0  0  2  0  0  0  0  0  0  0  0  0
   46.0520   24.3110   36.3800 C   0  0  0  0  0  0  0  0  0  0  0  0
   45.6980   24.4510   37.7670 C   0  0  1  0  0  0  0  0  0  0  0  0
   46.1730   25.7660   38.3520 C   0  0  0  0  0  0  0  0  0  0  0  0
   47.2200   26.3590   37.8400 O   0  0  0  0  0  0  0  0  0  0  0  0
   45.5200   26.3730   39.4260 O   0  0  0  0  0  0  0  0  0  0  0  0
   40.4770   21.9770   37.1000 O   0  0  0  0  0  0  0  0  0  0  0  0
   39.6170   23.0150   37.1600 C   0  0  0  0  0  0  0  0  0  0  0  0
   38.8740   23.1740   38.3310 C   0  0  0  0  0  0  0  0  0  0  0  0
   37.9750   24.2520   38.4110 C   0  0  0  0  0  0  0  0  0  0  0  0
   37.8630   25.1040   37.3430 N   0  0  0  0  0  0  0  0  0  0  0  0
   38.6290   24.8830   36.2240 C   0  0  0  0  0  0  0  0  0  0  0  0
   39.4750   23.8930   36.1050 N   0  0  0  0  0  0  0  0  0  0  0  0
   38.4970   25.8170   35.0750 C   0  0  0  0  0  0  0  0  0  0  0  0
   37.1900   26.5420   35.0650 C   0  0  0  0  0  0  0  0  0  0  0  0
   39.6130   26.8610   35.0880 C   0  0  0  0  0  0  0  0  0  0  0  0
   42.0414   20.1288   35.9010 H   0  0  0  0  0  0  0  0  0  0  0  0
   43.9450   25.3687   36.1899 H   0  0  0  0  0  0  0  0  0  0  0  0
   46.3311   23.3168   36.0010 H   0  0  0  0  0  0  0  0  0  0  0  0
   46.8251   24.7937   35.7641 H   0  0  0  0  0  0  0  0  0  0  0  0
   45.7724   23.8447   38.6818 H   0  0  0  0  0  0  0  0  0  0  0  0
   45.8539   27.2324   39.7867 H   0  0  0  0  0  0  0  0  0  0  0  0
   38.9891   22.4729   39.1708 H   0  0  0  0  0  0  0  0  0  0  0  0
   37.3708   24.4093   39.3167 H   0  0  0  0  0  0  0  0  0  0  0  0
   38.5614   25.1891   34.1741 H   0  0  0  0  0  0  0  0  0  0  0  0
   36.8633   26.7232   36.0996 H   0  0  0  0  0  0  0  0  0  0  0  0
   37.3081   27.5036   34.5440 H   0  0  0  0  0  0  0  0  0  0  0  0
   36.4367   25.9328   34.5440 H   0  0  0  0  0  0  0  0  0  0  0  0
   39.8743   27.1055   36.1282 H   0  0  0  0  0  0  0  0  0  0  0  0
   40.4976   26.4586   34.5726 H   0  0  0  0  0  0  0  0  0  0  0  0
   39.2704   27.7704   34.5726 H   0  0  0  0  0  0  0  0  0  0  0  0
  1  5  1  0
  1 12  1  0
  2  1  2  0
  3  2  1  0
  3  4  1  0
  4  6  1  0
  4  5  2  0
  6  8  1  0
  7  6  1  0
  7  8  1  0
  8  9  1  0
  9 11  1  0
 10  9  2  0
 12 13  1  0
 13 14  2  0
 14 15  1  0
 16 15  2  0
 17 16  1  0
 18 17  2  0
 18 13  1  0
 19 21  1  0
 19 17  1  0
 20 19  1  0
  2 22  1  0
  6 23  1  6
  7 24  1  0
  7 25  1  0
  8 26  1  1
 11 27  1  0
 14 28  1  0
 15 29  1  0
 19 30  1  0
 20 31  1  0
 20 32  1  0
 20 33  1  0
 21 34  1  0
 21 35  1  0
 21 36  1  0
M  ISO  8  22  14  23  13  24  13  25  13  26  13  27   3  28  14  29  14
M  ISO  7  30   8  31   8  32   8  33   8  34   8  35   8  36   8
M  END
>  <minimizedAffinity>  (1) 
-5.21573305

>  <minimizedRMSD>  (1) 
0.666265786

$$$$
