
     RDKit          3D

 38 41  0  0  0  0  0  0  0  0999 V2000
   43.4130   23.2980   35.4100 S   0  0  0  0  0  0  0  0  0  0  0  0
   44.5800   24.1290   36.4970 C   0  0  0  0  0  0  0  0  0  0  0  0
   44.0740   24.9800   37.4820 C   0  0  0  0  0  0  0  0  0  0  0  0
   45.6290   25.5690   38.3110 S   0  0  0  0  0  0  0  0  0  0  0  0
   46.6820   24.5270   37.1390 C   0  0  0  0  0  0  0  0  0  0  0  0
   45.8740   24.0720   36.5290 N   0  0  0  0  0  0  0  0  0  0  0  0
   48.1230   24.4150   37.1150 N   0  0  0  0  0  0  0  0  0  0  0  0
   48.6080   23.3590   37.7860 C   0  0  0  0  0  0  0  0  0  0  0  0
   49.9850   23.4030   37.6630 C   0  0  0  0  0  0  0  0  0  0  0  0
   50.2630   24.4870   36.9190 N   0  0  0  0  0  0  0  0  0  0  0  0
   49.1270   25.1110   36.5820 C   0  0  0  0  0  0  0  0  0  0  0  0
   48.8660   26.3020   35.8050 C   0  0  0  0  0  0  0  0  0  0  0  0
   48.8010   26.2470   34.5470 O   0  0  0  0  0  0  0  0  0  0  0  0
   48.6950   27.4800   36.5030 O   0  0  0  0  0  0  0  0  0  0  0  0
   40.2640   22.5650   37.7380 C   0  0  0  0  0  0  0  0  0  0  0  0
   39.2560   23.3950   37.2210 C   0  0  0  0  0  0  0  0  0  0  0  0
   39.5820   24.1830   36.1320 C   0  0  0  0  0  0  0  0  0  0  0  0
   40.8570   24.1250   35.6120 N   0  0  0  0  0  0  0  0  0  0  0  0
   41.7970   23.3050   36.1490 C   0  0  0  0  0  0  0  0  0  0  0  0
   41.4770   22.5460   37.1990 N   0  0  0  0  0  0  0  0  0  0  0  0
   38.7440   25.1170   35.3850 C   0  0  0  0  0  0  0  0  0  0  0  0
   38.7300   26.4340   35.8720 C   0  0  0  0  0  0  0  0  0  0  0  0
   38.0180   27.5100   35.3660 C   0  0  0  0  0  0  0  0  0  0  0  0
   37.2630   27.2380   34.2880 N   0  0  0  0  0  0  0  0  0  0  0  0
   37.2430   25.9970   33.7870 C   0  0  0  0  0  0  0  0  0  0  0  0
   37.9510   24.9960   34.3160 N   0  0  0  0  0  0  0  0  0  0  0  0
   37.8860   23.4700   37.7590 C   0  0  0  0  0  0  0  0  0  0  0  0
   37.8660   22.6010   38.8710 F   0  0  0  0  0  0  0  0  0  0  0  0
   36.9280   23.0820   36.8980 F   0  0  0  0  0  0  0  0  0  0  0  0
   37.6490   24.7180   38.3550 F   0  0  0  0  0  0  0  0  0  0  0  0
   43.0281   25.2350   37.7080 H   0  0  0  0  0  0  0  0  0  0  0  0
   48.0225   22.6030   38.3298 H   0  0  0  0  0  0  0  0  0  0  0  0
   50.7084   22.6923   38.0892 H   0  0  0  0  0  0  0  0  0  0  0  0
   48.5141   28.3224   36.0155 H   0  0  0  0  0  0  0  0  0  0  0  0
   40.0451   21.9210   38.6025 H   0  0  0  0  0  0  0  0  0  0  0  0
   39.3548   26.6343   36.7549 H   0  0  0  0  0  0  0  0  0  0  0  0
   38.0673   28.5134   35.8140 H   0  0  0  0  0  0  0  0  0  0  0  0
   36.6186   25.7936   32.9045 H   0  0  0  0  0  0  0  0  0  0  0  0
  1 19  1  0
  1  2  1  0
  2  6  1  0
  2  3  2  0
  3  4  1  0
  5  4  1  0
  6  5  2  0
  7  5  1  0
  7  8  1  0
  9  8  2  0
 10  9  1  0
 11 10  2  0
 11  7  1  0
 12 14  1  0
 12 11  1  0
 13 12  2  0
 16 15  2  0
 16 27  1  0
 17 16  1  0
 18 17  2  0
 18 19  1  0
 19 20  2  0
 20 15  1  0
 21 22  2  0
 21 17  1  0
 23 22  1  0
 24 23  2  0
 25 24  1  0
 25 26  2  0
 26 21  1  0
 27 30  1  0
 27 28  1  0
 29 27  1  0
  3 31  1  0
  8 32  1  0
  9 33  1  0
 14 34  1  0
 15 35  1  0
 22 36  1  0
 23 37  1  0
 25 38  1  0
M  ISO  8  31  14  32  14  33  14  34   3  35  14  36  14  37  14  38  14
M  END
>  <minimizedAffinity>  (1) 
-5.64996815

>  <minimizedRMSD>  (1) 
3.71279168

$$$$
