
     RDKit          3D

 34 37  0  0  1  0  0  0  0  0999 V2000
   41.8580   22.1520   36.7840 C   0  0  0  0  0  0  0  0  0  0  0  0
   42.4750   21.1220   36.1200 C   0  0  0  0  0  0  0  0  0  0  0  0
   44.0710   21.8530   35.7260 S   0  0  0  0  0  0  0  0  0  0  0  0
   43.6300   23.5160   36.5630 C   0  0  0  0  0  0  0  0  0  0  0  0
   42.5830   23.2390   36.9000 N   0  0  0  0  0  0  0  0  0  0  0  0
   44.6080   24.6470   36.6030 C   0  0  2  0  0  0  0  0  0  0  0  0
   46.0160   24.3880   36.3130 C   0  0  0  0  0  0  0  0  0  0  0  0
   45.7280   24.4720   37.7210 C   0  0  1  0  0  0  0  0  0  0  0  0
   46.2040   25.7790   38.3240 C   0  0  0  0  0  0  0  0  0  0  0  0
   47.2420   26.3880   37.8160 O   0  0  0  0  0  0  0  0  0  0  0  0
   45.5510   26.3590   39.4180 O   0  0  0  0  0  0  0  0  0  0  0  0
   40.5540   21.8780   37.2340 O   0  0  0  0  0  0  0  0  0  0  0  0
   39.6150   22.8430   37.2140 C   0  0  0  0  0  0  0  0  0  0  0  0
   39.0120   23.1910   38.4380 C   0  0  0  0  0  0  0  0  0  0  0  0
   38.0440   24.1850   38.4240 C   0  0  0  0  0  0  0  0  0  0  0  0
   37.7140   24.7780   37.2600 N   0  0  0  0  0  0  0  0  0  0  0  0
   38.3330   24.4030   36.0840 C   0  0  0  0  0  0  0  0  0  0  0  0
   39.2630   23.4590   36.0570 N   0  0  0  0  0  0  0  0  0  0  0  0
   37.9360   25.0730   34.8930 N   0  0  0  0  0  0  0  0  0  0  0  0
   37.4250   26.3140   35.1270 C   0  0  0  0  0  0  0  0  0  0  0  0
   37.0730   26.8690   33.8980 C   0  0  0  0  0  0  0  0  0  0  0  0
   37.3800   25.9550   32.9630 N   0  0  0  0  0  0  0  0  0  0  0  0
   37.9040   24.8650   33.5660 C   0  0  0  0  0  0  0  0  0  0  0  0
   42.0946   20.1159   35.8896 H   0  0  0  0  0  0  0  0  0  0  0  0
   43.8797   25.3968   36.2603 H   0  0  0  0  0  0  0  0  0  0  0  0
   46.2998   23.4146   35.8864 H   0  0  0  0  0  0  0  0  0  0  0  0
   46.7459   24.9110   35.6776 H   0  0  0  0  0  0  0  0  0  0  0  0
   45.8594   23.8383   38.6105 H   0  0  0  0  0  0  0  0  0  0  0  0
   45.8801   27.2132   39.7949 H   0  0  0  0  0  0  0  0  0  0  0  0
   39.2990   22.6911   39.3748 H   0  0  0  0  0  0  0  0  0  0  0  0
   37.5485   24.4873   39.3584 H   0  0  0  0  0  0  0  0  0  0  0  0
   37.3106   26.7927   36.1107 H   0  0  0  0  0  0  0  0  0  0  0  0
   36.6304   27.8614   33.7272 H   0  0  0  0  0  0  0  0  0  0  0  0
   38.2486   23.9548   33.0534 H   0  0  0  0  0  0  0  0  0  0  0  0
  1  5  1  0
  1 12  1  0
  2  1  2  0
  3  2  1  0
  3  4  1  0
  4  6  1  0
  4  5  2  0
  6  8  1  0
  7  6  1  0
  7  8  1  0
  8  9  1  0
  9 11  1  0
 10  9  2  0
 13 12  1  0
 13 14  2  0
 15 14  1  0
 16 15  2  0
 17 16  1  0
 18 17  2  0
 18 13  1  0
 19 20  1  0
 19 17  1  0
 21 20  2  0
 22 23  2  0
 22 21  1  0
 23 19  1  0
  2 24  1  0
  6 25  1  6
  7 26  1  0
  7 27  1  0
  8 28  1  1
 11 29  1  0
 14 30  1  0
 15 31  1  0
 20 32  1  0
 21 33  1  0
 23 34  1  0
M  ISO  8  24  14  25  13  26  13  27  13  28  13  29   3  30  14  31  14
M  ISO  3  32  14  33  14  34  14
M  END
>  <minimizedAffinity>  (1) 
-5.63696241

>  <minimizedRMSD>  (1) 
0.327979445

$$$$
