
     RDKit          3D

 37 40  0  0  0  0  0  0  0  0999 V2000
   44.9780   24.2170   36.8710 C   0  0  0  0  0  0  0  0  0  0  0  0
   44.2780   25.1040   37.7070 C   0  0  0  0  0  0  0  0  0  0  0  0
   45.6520   25.8830   38.6980 S   0  0  0  0  0  0  0  0  0  0  0  0
   46.9240   24.8500   37.7810 C   0  0  0  0  0  0  0  0  0  0  0  0
   46.2480   24.2800   37.1000 N   0  0  0  0  0  0  0  0  0  0  0  0
   48.3620   24.8420   37.9610 N   0  0  0  0  0  0  0  0  0  0  0  0
   48.8090   23.8670   38.7910 C   0  0  0  0  0  0  0  0  0  0  0  0
   50.1790   24.0050   38.8450 C   0  0  0  0  0  0  0  0  0  0  0  0
   50.5010   25.0450   38.0550 N   0  0  0  0  0  0  0  0  0  0  0  0
   49.3910   25.5580   37.5140 C   0  0  0  0  0  0  0  0  0  0  0  0
   49.1680   26.6610   36.6110 C   0  0  0  0  0  0  0  0  0  0  0  0
   49.0120   26.4670   35.3900 O   0  0  0  0  0  0  0  0  0  0  0  0
   49.1350   27.9380   37.1600 O   0  0  0  0  0  0  0  0  0  0  0  0
   44.0370   23.2310   35.7260 S   0  0  0  0  0  0  0  0  0  0  0  0
   40.5170   22.5180   37.4500 C   0  0  0  0  0  0  0  0  0  0  0  0
   39.6300   23.3660   36.7630 C   0  0  0  0  0  0  0  0  0  0  0  0
   40.1510   24.1670   35.7550 C   0  0  0  0  0  0  0  0  0  0  0  0
   41.4990   24.0930   35.4820 N   0  0  0  0  0  0  0  0  0  0  0  0
   42.3130   23.2540   36.1760 C   0  0  0  0  0  0  0  0  0  0  0  0
   41.7980   22.4930   37.1390 N   0  0  0  0  0  0  0  0  0  0  0  0
   39.5100   25.0440   34.8160 C   0  0  0  0  0  0  0  0  0  0  0  0
   38.9100   24.8240   33.6680 C   0  0  0  0  0  0  0  0  0  0  0  0
   38.3850   25.7160   32.8140 C   0  0  0  0  0  0  0  0  0  0  0  0
   38.5310   27.0710   33.2790 C   0  0  0  0  0  0  0  0  0  0  0  0
   39.4290   26.8320   34.9140 S   0  0  0  0  0  0  0  0  0  0  0  0
   38.1830   23.4780   37.0500 C   0  0  0  0  0  0  0  0  0  0  0  0
   38.0060   22.8820   38.3330 F   0  0  0  0  0  0  0  0  0  0  0  0
   37.3990   22.8180   36.1940 F   0  0  0  0  0  0  0  0  0  0  0  0
   37.8080   24.8030   37.3180 F   0  0  0  0  0  0  0  0  0  0  0  0
   43.1954   25.2910   37.7625 H   0  0  0  0  0  0  0  0  0  0  0  0
   48.1999   23.1164   39.3160 H   0  0  0  0  0  0  0  0  0  0  0  0
   50.8770   23.3827   39.4243 H   0  0  0  0  0  0  0  0  0  0  0  0
   48.9846   28.7238   36.5769 H   0  0  0  0  0  0  0  0  0  0  0  0
   40.1386   21.8697   38.2541 H   0  0  0  0  0  0  0  0  0  0  0  0
   38.8271   23.7692   33.3672 H   0  0  0  0  0  0  0  0  0  0  0  0
   37.8982   25.4431   31.8661 H   0  0  0  0  0  0  0  0  0  0  0  0
   38.2019   28.0054   32.8009 H   0  0  0  0  0  0  0  0  0  0  0  0
  1  5  1  0
  1  2  2  0
  2  3  1  0
  4  6  1  0
  4  3  1  0
  5  4  2  0
  6  7  1  0
  7  8  2  0
  9  8  1  0
 10  6  1  0
 10  9  2  0
 11 13  1  0
 11 10  1  0
 12 11  2  0
 14 19  1  0
 14  1  1  0
 16 26  1  0
 16 15  2  0
 17 16  1  0
 18 17  2  0
 18 19  1  0
 19 20  2  0
 20 15  1  0
 21 25  1  0
 21 17  1  0
 22 21  2  0
 23 24  2  0
 23 22  1  0
 24 25  1  0
 26 29  1  0
 26 27  1  0
 28 26  1  0
  2 30  1  0
  7 31  1  0
  8 32  1  0
 13 33  1  0
 15 34  1  0
 22 35  1  0
 23 36  1  0
 24 37  1  0
M  ISO  8  30  14  31  14  32  14  33   3  34  14  35  14  36  14  37  14
M  END
>  <minimizedAffinity>  (1) 
-5.64971781

>  <minimizedRMSD>  (1) 
4.42414522

$$$$
