
     RDKit          3D

 47 51  0  0  1  0  0  0  0  0999 V2000
   39.5520   22.8900   37.2830 C   0  0  0  0  0  0  0  0  0  0  0  0
   39.0590   23.3050   38.5330 C   0  0  0  0  0  0  0  0  0  0  0  0
   38.1570   24.3480   38.5590 C   0  0  0  0  0  0  0  0  0  0  0  0
   37.7740   24.9340   37.4040 N   0  0  0  0  0  0  0  0  0  0  0  0
   38.2800   24.4980   36.2020 C   0  0  0  0  0  0  0  0  0  0  0  0
   39.1520   23.4970   36.1370 N   0  0  0  0  0  0  0  0  0  0  0  0
   37.8420   25.1590   35.0420 N   0  0  0  0  0  0  0  0  0  0  0  0
   37.4200   26.4330   35.2620 C   0  0  0  0  0  0  0  0  0  0  0  0
   36.9980   26.9610   34.0280 C   0  0  0  0  0  0  0  0  0  0  0  0
   37.1780   25.9970   33.1190 N   0  0  0  0  0  0  0  0  0  0  0  0
   37.6830   24.9150   33.7180 C   0  0  0  0  0  0  0  0  0  0  0  0
   38.0630   23.6360   33.2620 N   0  0  0  0  0  0  0  0  0  0  0  0
   37.2400   23.0090   32.3920 C   0  0  0  0  0  0  0  0  0  0  0  0
   37.5920   21.7510   31.9290 C   0  0  0  0  0  0  0  0  0  0  0  0
   36.7090   21.0320   30.9700 C   0  0  0  0  0  0  0  0  0  0  0  0
   38.7650   21.1460   32.3510 C   0  0  0  0  0  0  0  0  0  0  0  0
   39.1240   19.9870   31.9470 O   0  0  0  0  0  0  0  0  0  0  0  0
   39.5760   21.7860   33.2210 N   0  0  0  0  0  0  0  0  0  0  0  0
   39.1930   22.9990   33.6380 C   0  0  0  0  0  0  0  0  0  0  0  0
   39.9410   23.6050   34.4480 O   0  0  0  0  0  0  0  0  0  0  0  0
   40.4330   21.8720   37.2620 O   0  0  0  0  0  0  0  0  0  0  0  0
   41.7480   22.0900   36.8240 C   0  0  0  0  0  0  0  0  0  0  0  0
   42.3580   21.0060   36.2490 C   0  0  0  0  0  0  0  0  0  0  0  0
   43.9700   21.6810   35.8420 S   0  0  0  0  0  0  0  0  0  0  0  0
   43.5580   23.3960   36.5400 C   0  0  0  0  0  0  0  0  0  0  0  0
   42.4950   23.1620   36.8750 N   0  0  0  0  0  0  0  0  0  0  0  0
   44.5640   24.5180   36.5150 C   0  0  2  0  0  0  0  0  0  0  0  0
   45.9640   24.1820   36.3630 C   0  0  0  0  0  0  0  0  0  0  0  0
   45.6380   24.3760   37.7230 C   0  0  1  0  0  0  0  0  0  0  0  0
   46.1250   25.7410   38.2280 C   0  0  0  0  0  0  0  0  0  0  0  0
   47.2330   26.2780   37.7260 O   0  0  0  0  0  0  0  0  0  0  0  0
   45.3890   26.4230   39.2190 O   0  0  0  0  0  0  0  0  0  0  0  0
   39.3830   22.8127   39.4618 H   0  0  0  0  0  0  0  0  0  0  0  0
   37.7506   24.7017   39.5180 H   0  0  0  0  0  0  0  0  0  0  0  0
   37.4103   26.9560   36.2296 H   0  0  0  0  0  0  0  0  0  0  0  0
   36.5982   27.9696   33.8465 H   0  0  0  0  0  0  0  0  0  0  0  0
   36.3081   23.4884   32.0577 H   0  0  0  0  0  0  0  0  0  0  0  0
   35.9735   20.4331   31.5271 H   0  0  0  0  0  0  0  0  0  0  0  0
   36.1834   21.7623   30.3372 H   0  0  0  0  0  0  0  0  0  0  0  0
   37.3176   20.3694   30.3372 H   0  0  0  0  0  0  0  0  0  0  0  0
   40.4533   21.3582   33.5501 H   0  0  0  0  0  0  0  0  0  0  0  0
   41.9645   19.9925   36.0816 H   0  0  0  0  0  0  0  0  0  0  0  0
   43.8934   25.2602   36.0574 H   0  0  0  0  0  0  0  0  0  0  0  0
   46.2249   23.1675   36.0273 H   0  0  0  0  0  0  0  0  0  0  0  0
   46.7493   24.6339   35.7393 H   0  0  0  0  0  0  0  0  0  0  0  0
   45.7153   23.8053   38.6602 H   0  0  0  0  0  0  0  0  0  0  0  0
   45.6993   27.3037   39.5478 H   0  0  0  0  0  0  0  0  0  0  0  0
  1  2  2  0
  2  3  1  0
  4  3  2  0
  5  4  1  0
  6  5  2  0
  6  1  1  0
  7  8  1  0
  7  5  1  0
  9  8  2  0
 10 11  2  0
 10  9  1  0
 11  7  1  0
 12 19  1  0
 12 11  1  0
 13 12  1  0
 14 16  1  0
 14 13  2  0
 15 14  1  0
 16 18  1  0
 17 16  2  0
 18 19  1  0
 19 20  2  0
 21  1  1  0
 22 26  1  0
 22 21  1  0
 23 22  2  0
 24 23  1  0
 24 25  1  0
 25 26  2  0
 27 25  1  0
 27 29  1  0
 28 27  1  0
 28 29  1  0
 29 30  1  0
 30 32  1  0
 31 30  2  0
  2 33  1  0
  3 34  1  0
  8 35  1  0
  9 36  1  0
 13 37  1  0
 15 38  1  0
 15 39  1  0
 15 40  1  0
 18 41  1  0
 23 42  1  0
 27 43  1  6
 28 44  1  0
 28 45  1  0
 29 46  1  1
 32 47  1  0
M  ISO  8  33  14  34  14  35  14  36  14  37  14  38   8  39   8  40   8
M  ISO  7  41   9  42  14  43  13  44  13  45  13  46  13  47   3
M  END
>  <minimizedAffinity>  (1) 
-6.87373686

>  <minimizedRMSD>  (1) 
0.311504126

$$$$
