
     RDKit          3D

 40 44  0  0  1  0  0  0  0  0999 V2000
   39.5760   22.8840   37.2320 C   0  0  0  0  0  0  0  0  0  0  0  0
   39.0160   23.2330   38.4690 C   0  0  0  0  0  0  0  0  0  0  0  0
   38.0700   24.2450   38.4910 C   0  0  0  0  0  0  0  0  0  0  0  0
   37.7210   24.8560   37.3430 N   0  0  0  0  0  0  0  0  0  0  0  0
   38.2950   24.4840   36.1490 C   0  0  0  0  0  0  0  0  0  0  0  0
   39.2060   23.5160   36.0880 N   0  0  0  0  0  0  0  0  0  0  0  0
   37.8900   25.1680   34.9880 N   0  0  0  0  0  0  0  0  0  0  0  0
   37.4080   26.4170   35.2380 C   0  0  0  0  0  0  0  0  0  0  0  0
   37.0180   26.9790   34.0080 C   0  0  0  0  0  0  0  0  0  0  0  0
   37.2760   26.0560   33.0670 N   0  0  0  0  0  0  0  0  0  0  0  0
   37.7980   24.9710   33.6540 C   0  0  0  0  0  0  0  0  0  0  0  0
   38.2520   23.7170   33.1770 N   0  0  0  0  0  0  0  0  0  0  0  0
   38.0160   22.6370   33.9700 C   0  0  0  0  0  0  0  0  0  0  0  0
   38.4990   21.5230   33.3940 N   0  0  0  0  0  0  0  0  0  0  0  0
   39.0460   21.9150   32.2200 C   0  0  0  0  0  0  0  0  0  0  0  0
   38.8850   23.2480   32.1090 N   0  0  0  0  0  0  0  0  0  0  0  0
   40.4950   21.8990   37.2150 O   0  0  0  0  0  0  0  0  0  0  0  0
   41.8040   22.1660   36.7840 C   0  0  0  0  0  0  0  0  0  0  0  0
   42.4300   21.1260   36.1540 C   0  0  0  0  0  0  0  0  0  0  0  0
   44.0300   21.8510   35.7750 S   0  0  0  0  0  0  0  0  0  0  0  0
   43.5850   23.5220   36.5610 C   0  0  0  0  0  0  0  0  0  0  0  0
   42.5290   23.2440   36.8850 N   0  0  0  0  0  0  0  0  0  0  0  0
   44.5730   24.6590   36.5850 C   0  0  2  0  0  0  0  0  0  0  0  0
   45.9690   24.3620   36.3460 C   0  0  0  0  0  0  0  0  0  0  0  0
   45.7010   24.4410   37.7270 C   0  0  1  0  0  0  0  0  0  0  0  0
   46.1890   25.7660   38.3240 C   0  0  0  0  0  0  0  0  0  0  0  0
   47.2390   26.3880   37.7950 O   0  0  0  0  0  0  0  0  0  0  0  0
   45.5160   26.3250   39.4300 O   0  0  0  0  0  0  0  0  0  0  0  0
   39.3183   22.7192   39.3935 H   0  0  0  0  0  0  0  0  0  0  0  0
   37.6064   24.5478   39.4415 H   0  0  0  0  0  0  0  0  0  0  0  0
   37.3364   26.8997   36.2238 H   0  0  0  0  0  0  0  0  0  0  0  0
   36.5865   27.9782   33.8486 H   0  0  0  0  0  0  0  0  0  0  0  0
   37.5035   22.6708   34.9427 H   0  0  0  0  0  0  0  0  0  0  0  0
   39.5363   21.2599   31.4849 H   0  0  0  0  0  0  0  0  0  0  0  0
   42.0543   20.1152   35.9371 H   0  0  0  0  0  0  0  0  0  0  0  0
   43.8713   25.4231   36.2193 H   0  0  0  0  0  0  0  0  0  0  0  0
   46.2297   23.3824   35.9189 H   0  0  0  0  0  0  0  0  0  0  0  0
   46.7191   24.8763   35.7273 H   0  0  0  0  0  0  0  0  0  0  0  0
   45.8290   23.7982   38.6104 H   0  0  0  0  0  0  0  0  0  0  0  0
   45.8279   27.1805   39.8185 H   0  0  0  0  0  0  0  0  0  0  0  0
  1  2  2  0
  2  3  1  0
  4  3  2  0
  5  4  1  0
  6  5  2  0
  6  1  1  0
  7  8  1  0
  7  5  1  0
  9  8  2  0
 10 11  2  0
 10  9  1  0
 11  7  1  0
 12 11  1  0
 12 13  1  0
 14 13  2  0
 15 14  1  0
 16 15  2  0
 16 12  1  0
 17  1  1  0
 18 22  1  0
 18 17  1  0
 19 18  2  0
 20 19  1  0
 20 21  1  0
 21 23  1  0
 21 22  2  0
 23 25  1  0
 24 23  1  0
 24 25  1  0
 25 26  1  0
 26 28  1  0
 27 26  2  0
  2 29  1  0
  3 30  1  0
  8 31  1  0
  9 32  1  0
 13 33  1  0
 15 34  1  0
 19 35  1  0
 23 36  1  6
 24 37  1  0
 24 38  1  0
 25 39  1  1
 28 40  1  0
M  ISO  8  29  14  30  14  31  14  32  14  33  14  34  14  35  14  36  13
M  ISO  4  37  13  38  13  39  13  40   3
M  END
>  <minimizedAffinity>  (1) 
-6.28058672

>  <minimizedRMSD>  (1) 
0.120727859

$$$$
