
     RDKit          3D

 50 54  0  0  1  0  0  0  0  0999 V2000
   39.5680   22.8590   37.0470 C   0  0  0  0  0  0  0  0  0  0  0  0
   39.0140   23.1810   38.2940 C   0  0  0  0  0  0  0  0  0  0  0  0
   38.0690   24.1920   38.3440 C   0  0  0  0  0  0  0  0  0  0  0  0
   37.7180   24.8230   37.2190 N   0  0  0  0  0  0  0  0  0  0  0  0
   38.2870   24.4800   36.0000 C   0  0  0  0  0  0  0  0  0  0  0  0
   39.1870   23.5210   35.9340 N   0  0  0  0  0  0  0  0  0  0  0  0
   37.8670   25.1990   34.8690 N   0  0  0  0  0  0  0  0  0  0  0  0
   37.4000   26.4450   35.1500 C   0  0  0  0  0  0  0  0  0  0  0  0
   37.0050   27.0340   33.9330 C   0  0  0  0  0  0  0  0  0  0  0  0
   37.2510   26.1220   32.9800 N   0  0  0  0  0  0  0  0  0  0  0  0
   37.7650   25.0250   33.5400 C   0  0  0  0  0  0  0  0  0  0  0  0
   38.2010   23.7530   32.9420 C   0  0  0  0  0  0  0  0  0  0  0  0
   37.0400   22.8610   32.5600 C   0  0  0  0  0  0  0  0  0  0  0  0
   37.2280   22.1830   31.2190 C   0  0  0  0  0  0  0  0  0  0  0  0
   38.6810   21.7210   31.1730 C   0  0  0  0  0  0  0  0  0  0  0  0
   39.5340   22.9600   30.9520 C   0  0  0  0  0  0  0  0  0  0  0  0
   38.9090   24.1290   31.6510 C   0  0  0  0  0  0  0  0  0  0  0  0
   40.4870   21.8750   37.0000 O   0  0  0  0  0  0  0  0  0  0  0  0
   41.8100   22.1620   36.6360 C   0  0  0  0  0  0  0  0  0  0  0  0
   42.4890   21.1290   36.0470 C   0  0  0  0  0  0  0  0  0  0  0  0
   44.0920   21.8830   35.7450 S   0  0  0  0  0  0  0  0  0  0  0  0
   43.5750   23.5510   36.4920 C   0  0  0  0  0  0  0  0  0  0  0  0
   42.5100   23.2570   36.7640 N   0  0  0  0  0  0  0  0  0  0  0  0
   44.5360   24.7100   36.5580 C   0  0  2  0  0  0  0  0  0  0  0  0
   45.9290   24.4670   36.2510 C   0  0  0  0  0  0  0  0  0  0  0  0
   45.7110   24.4440   37.6420 C   0  0  1  0  0  0  0  0  0  0  0  0
   46.1880   25.7340   38.3160 C   0  0  0  0  0  0  0  0  0  0  0  0
   47.2340   26.3920   37.8240 O   0  0  0  0  0  0  0  0  0  0  0  0
   45.5140   26.2210   39.4540 O   0  0  0  0  0  0  0  0  0  0  0  0
   39.3208   22.6466   39.2052 H   0  0  0  0  0  0  0  0  0  0  0  0
   37.6102   24.4740   39.3031 H   0  0  0  0  0  0  0  0  0  0  0  0
   37.3414   26.9083   36.1460 H   0  0  0  0  0  0  0  0  0  0  0  0
   36.5805   28.0390   33.7922 H   0  0  0  0  0  0  0  0  0  0  0  0
   38.8239   23.2087   33.6670 H   0  0  0  0  0  0  0  0  0  0  0  0
   36.9258   22.0853   33.3315 H   0  0  0  0  0  0  0  0  0  0  0  0
   36.1475   23.4993   32.4826 H   0  0  0  0  0  0  0  0  0  0  0  0
   36.5511   21.3205   31.1300 H   0  0  0  0  0  0  0  0  0  0  0  0
   36.9997   22.8680   30.3891 H   0  0  0  0  0  0  0  0  0  0  0  0
   38.9544   21.2386   32.1230 H   0  0  0  0  0  0  0  0  0  0  0  0
   38.8351   20.9891   30.3665 H   0  0  0  0  0  0  0  0  0  0  0  0
   40.5424   22.7876   31.3562 H   0  0  0  0  0  0  0  0  0  0  0  0
   39.6015   23.1708   29.8745 H   0  0  0  0  0  0  0  0  0  0  0  0
   39.6989   24.8576   31.8861 H   0  0  0  0  0  0  0  0  0  0  0  0
   38.1487   24.5439   30.9729 H   0  0  0  0  0  0  0  0  0  0  0  0
   42.1449   20.1093   35.8194 H   0  0  0  0  0  0  0  0  0  0  0  0
   43.8034   25.4783   36.2699 H   0  0  0  0  0  0  0  0  0  0  0  0
   46.1972   23.5262   35.7481 H   0  0  0  0  0  0  0  0  0  0  0  0
   46.6433   25.0423   35.6437 H   0  0  0  0  0  0  0  0  0  0  0  0
   45.8878   23.7454   38.4731 H   0  0  0  0  0  0  0  0  0  0  0  0
   45.8201   27.0546   39.8917 H   0  0  0  0  0  0  0  0  0  0  0  0
  1  2  2  0
  2  3  1  0
  4  3  2  0
  5  4  1  0
  6  5  2  0
  6  1  1  0
  7  8  1  0
  7  5  1  0
  9  8  2  0
 10 11  2  0
 10  9  1  0
 11  7  1  0
 12 11  1  0
 13 12  1  0
 14 13  1  0
 15 14  1  0
 16 15  1  0
 16 17  1  0
 17 12  1  0
 18  1  1  0
 19 23  1  0
 19 18  1  0
 20 19  2  0
 21 20  1  0
 21 22  1  0
 22 24  1  0
 22 23  2  0
 24 26  1  0
 25 24  1  0
 25 26  1  0
 26 27  1  0
 27 29  1  0
 28 27  2  0
  2 30  1  0
  3 31  1  0
  8 32  1  0
  9 33  1  0
 12 34  1  0
 13 35  1  0
 13 36  1  0
 14 37  1  0
 14 38  1  0
 15 39  1  0
 15 40  1  0
 16 41  1  0
 16 42  1  0
 17 43  1  0
 17 44  1  0
 20 45  1  0
 24 46  1  1
 25 47  1  0
 25 48  1  0
 26 49  1  1
 29 50  1  0
M  ISO  8  30  14  31  14  32  14  33  14  34  13  35  13  36  13  37  13
M  ISO  8  38  13  39  13  40  13  41  13  42  13  43  13  44  13  45  14
M  ISO  5  46  13  47  13  48  13  49  13  50   3
M  END
>  <minimizedAffinity>  (1) 
-6.19165087

>  <minimizedRMSD>  (1) 
0.504140794

$$$$
