
     RDKit          3D

 47 51  0  0  1  0  0  0  0  0999 V2000
   39.5390   22.9040   37.1310 C   0  0  0  0  0  0  0  0  0  0  0  0
   38.9820   23.2170   38.3800 C   0  0  0  0  0  0  0  0  0  0  0  0
   38.0460   24.2370   38.4400 C   0  0  0  0  0  0  0  0  0  0  0  0
   37.7040   24.8880   37.3180 N   0  0  0  0  0  0  0  0  0  0  0  0
   38.2720   24.5550   36.1020 C   0  0  0  0  0  0  0  0  0  0  0  0
   39.1690   23.5830   36.0230 N   0  0  0  0  0  0  0  0  0  0  0  0
   37.8700   25.2850   34.9730 N   0  0  0  0  0  0  0  0  0  0  0  0
   37.4080   26.5330   35.2690 C   0  0  0  0  0  0  0  0  0  0  0  0
   37.0160   27.1370   34.0600 C   0  0  0  0  0  0  0  0  0  0  0  0
   37.2560   26.2350   33.0820 N   0  0  0  0  0  0  0  0  0  0  0  0
   37.7670   25.1330   33.6430 C   0  0  0  0  0  0  0  0  0  0  0  0
   38.2040   23.8530   33.0460 C   0  0  0  0  0  0  0  0  0  0  0  0
   39.2440   24.0440   31.9690 C   0  0  0  0  0  0  0  0  0  0  0  0
   38.7610   23.3190   30.7370 C   0  0  0  0  0  0  0  0  0  0  0  0
   37.5140   22.5740   31.0920 C   0  0  0  0  0  0  0  0  0  0  0  0
   36.9990   23.3050   32.2980 C   0  0  0  0  0  0  0  0  0  0  0  0
   40.4460   21.9140   37.0760 O   0  0  0  0  0  0  0  0  0  0  0  0
   41.7690   22.1890   36.6890 C   0  0  0  0  0  0  0  0  0  0  0  0
   42.4250   21.1530   36.0890 C   0  0  0  0  0  0  0  0  0  0  0  0
   44.0290   21.8920   35.7610 S   0  0  0  0  0  0  0  0  0  0  0  0
   43.5410   23.5630   36.5190 C   0  0  0  0  0  0  0  0  0  0  0  0
   42.4790   23.2800   36.8090 N   0  0  0  0  0  0  0  0  0  0  0  0
   44.5170   24.7110   36.5720 C   0  0  2  0  0  0  0  0  0  0  0  0
   45.9080   24.4490   36.2730 C   0  0  0  0  0  0  0  0  0  0  0  0
   45.6840   24.4430   37.6670 C   0  0  1  0  0  0  0  0  0  0  0  0
   46.1740   25.7440   38.3200 C   0  0  0  0  0  0  0  0  0  0  0  0
   47.2240   26.3870   37.8170 O   0  0  0  0  0  0  0  0  0  0  0  0
   45.5040   26.2520   39.4510 O   0  0  0  0  0  0  0  0  0  0  0  0
   39.2798   22.6684   39.2857 H   0  0  0  0  0  0  0  0  0  0  0  0
   37.5865   24.5111   39.4011 H   0  0  0  0  0  0  0  0  0  0  0  0
   37.3519   26.9853   36.2702 H   0  0  0  0  0  0  0  0  0  0  0  0
   36.5962   28.1461   33.9351 H   0  0  0  0  0  0  0  0  0  0  0  0
   38.6045   23.2188   33.8506 H   0  0  0  0  0  0  0  0  0  0  0  0
   39.3659   25.1152   31.7506 H   0  0  0  0  0  0  0  0  0  0  0  0
   40.2165   23.6469   32.2954 H   0  0  0  0  0  0  0  0  0  0  0  0
   39.5318   22.6130   30.3943 H   0  0  0  0  0  0  0  0  0  0  0  0
   38.5576   24.0370   29.9289 H   0  0  0  0  0  0  0  0  0  0  0  0
   36.7856   22.6121   30.2686 H   0  0  0  0  0  0  0  0  0  0  0  0
   37.6935   21.5057   31.2833 H   0  0  0  0  0  0  0  0  0  0  0  0
   36.3430   24.1308   31.9854 H   0  0  0  0  0  0  0  0  0  0  0  0
   36.4160   22.6300   32.9419 H   0  0  0  0  0  0  0  0  0  0  0  0
   42.0670   20.1371   35.8660 H   0  0  0  0  0  0  0  0  0  0  0  0
   43.7955   25.4843   36.2697 H   0  0  0  0  0  0  0  0  0  0  0  0
   46.1673   23.5000   35.7810 H   0  0  0  0  0  0  0  0  0  0  0  0
   46.6311   25.0098   35.6625 H   0  0  0  0  0  0  0  0  0  0  0  0
   45.8481   23.7525   38.5074 H   0  0  0  0  0  0  0  0  0  0  0  0
   45.8155   27.0902   39.8759 H   0  0  0  0  0  0  0  0  0  0  0  0
  1  2  2  0
  2  3  1  0
  4  3  2  0
  5  4  1  0
  6  5  2  0
  6  1  1  0
  7  8  1  0
  7  5  1  0
  9  8  2  0
 10 11  2  0
 10  9  1  0
 11  7  1  0
 12 11  1  0
 13 12  1  0
 14 15  1  0
 14 13  1  0
 15 16  1  0
 16 12  1  0
 17  1  1  0
 18 22  1  0
 18 17  1  0
 19 18  2  0
 20 19  1  0
 20 21  1  0
 21 23  1  0
 21 22  2  0
 23 25  1  0
 24 23  1  0
 24 25  1  0
 25 26  1  0
 26 28  1  0
 27 26  2  0
  2 29  1  0
  3 30  1  0
  8 31  1  0
  9 32  1  0
 12 33  1  0
 13 34  1  0
 13 35  1  0
 14 36  1  0
 14 37  1  0
 15 38  1  0
 15 39  1  0
 16 40  1  0
 16 41  1  0
 19 42  1  0
 23 43  1  1
 24 44  1  0
 24 45  1  0
 25 46  1  1
 28 47  1  0
M  ISO  8  29  14  30  14  31  14  32  14  33  13  34  13  35  13  36  13
M  ISO  8  37  13  38  13  39  13  40  13  41  13  42  14  43  13  44  13
M  ISO  3  45  13  46  13  47   3
M  END
>  <minimizedAffinity>  (1) 
-6.13593769

>  <minimizedRMSD>  (1) 
0.278807372

$$$$
