
     RDKit          3D

 44 48  0  0  1  0  0  0  0  0999 V2000
   39.6200   22.8390   37.2610 C   0  0  0  0  0  0  0  0  0  0  0  0
   39.0370   23.2220   38.4800 C   0  0  0  0  0  0  0  0  0  0  0  0
   38.0790   24.2130   38.4560 C   0  0  0  0  0  0  0  0  0  0  0  0
   37.7240   24.7870   37.2930 N   0  0  0  0  0  0  0  0  0  0  0  0
   38.3250   24.3810   36.1090 C   0  0  0  0  0  0  0  0  0  0  0  0
   39.2530   23.4270   36.0990 N   0  0  0  0  0  0  0  0  0  0  0  0
   37.9190   25.0220   34.9230 N   0  0  0  0  0  0  0  0  0  0  0  0
   37.4050   26.2590   35.1280 C   0  0  0  0  0  0  0  0  0  0  0  0
   37.0290   26.7690   33.8730 C   0  0  0  0  0  0  0  0  0  0  0  0
   37.3280   25.8340   32.9650 N   0  0  0  0  0  0  0  0  0  0  0  0
   37.8720   24.7670   33.6080 C   0  0  0  0  0  0  0  0  0  0  0  0
   38.3860   23.4710   33.1710 C   0  0  0  0  0  0  0  0  0  0  0  0
   37.4680   22.4250   33.1920 C   0  0  0  0  0  0  0  0  0  0  0  0
   37.8020   21.1400   32.8090 C   0  0  0  0  0  0  0  0  0  0  0  0
   39.0890   20.8720   32.3850 C   0  0  0  0  0  0  0  0  0  0  0  0
   40.0010   21.9010   32.3620 C   0  0  0  0  0  0  0  0  0  0  0  0
   39.6840   23.1890   32.7420 C   0  0  0  0  0  0  0  0  0  0  0  0
   40.5530   21.8710   37.2900 O   0  0  0  0  0  0  0  0  0  0  0  0
   41.8570   22.1340   36.8310 C   0  0  0  0  0  0  0  0  0  0  0  0
   42.4700   21.0960   36.1850 C   0  0  0  0  0  0  0  0  0  0  0  0
   44.0600   21.8200   35.7770 S   0  0  0  0  0  0  0  0  0  0  0  0
   43.6340   23.4890   36.5770 C   0  0  0  0  0  0  0  0  0  0  0  0
   42.5880   23.2130   36.9200 N   0  0  0  0  0  0  0  0  0  0  0  0
   44.6220   24.6290   36.5820 C   0  0  2  0  0  0  0  0  0  0  0  0
   46.0230   24.3240   36.3740 C   0  0  0  0  0  0  0  0  0  0  0  0
   45.7330   24.4360   37.7510 C   0  0  1  0  0  0  0  0  0  0  0  0
   46.2140   25.7780   38.3180 C   0  0  0  0  0  0  0  0  0  0  0  0
   47.2580   26.3950   37.7730 O   0  0  0  0  0  0  0  0  0  0  0  0
   45.5400   26.3570   39.4130 O   0  0  0  0  0  0  0  0  0  0  0  0
   39.3358   22.7456   39.4254 H   0  0  0  0  0  0  0  0  0  0  0  0
   37.6024   24.5359   39.3933 H   0  0  0  0  0  0  0  0  0  0  0  0
   37.3012   26.7695   36.0968 H   0  0  0  0  0  0  0  0  0  0  0  0
   36.5748   27.7512   33.6754 H   0  0  0  0  0  0  0  0  0  0  0  0
   36.4397   22.6286   33.5254 H   0  0  0  0  0  0  0  0  0  0  0  0
   37.0499   20.3379   32.8415 H   0  0  0  0  0  0  0  0  0  0  0  0
   39.3781   19.8577   32.0726 H   0  0  0  0  0  0  0  0  0  0  0  0
   41.0267   21.6882   32.0264 H   0  0  0  0  0  0  0  0  0  0  0  0
   40.4443   23.9832   32.7073 H   0  0  0  0  0  0  0  0  0  0  0  0
   42.0895   20.0861   35.9722 H   0  0  0  0  0  0  0  0  0  0  0  0
   43.9287   25.3842   36.1833 H   0  0  0  0  0  0  0  0  0  0  0  0
   46.2889   23.3342   35.9745 H   0  0  0  0  0  0  0  0  0  0  0  0
   46.7841   24.8228   35.7559 H   0  0  0  0  0  0  0  0  0  0  0  0
   45.8452   23.8148   38.6518 H   0  0  0  0  0  0  0  0  0  0  0  0
   45.8473   27.2228   39.7818 H   0  0  0  0  0  0  0  0  0  0  0  0
  1 18  1  0
  1  2  2  0
  3  2  1  0
  4  3  2  0
  5  4  1  0
  6  5  2  0
  6  1  1  0
  7  8  1  0
  7  5  1  0
  9  8  2  0
 10 11  2  0
 10  9  1  0
 11  7  1  0
 12 13  2  0
 12 11  1  0
 14 13  1  0
 15 14  2  0
 16 15  1  0
 16 17  2  0
 17 12  1  0
 19 23  1  0
 19 18  1  0
 20 19  2  0
 21 20  1  0
 21 22  1  0
 22 24  1  0
 22 23  2  0
 24 26  1  0
 25 24  1  0
 25 26  1  0
 26 27  1  0
 27 29  1  0
 28 27  2  0
  2 30  1  0
  3 31  1  0
  8 32  1  0
  9 33  1  0
 13 34  1  0
 14 35  1  0
 15 36  1  0
 16 37  1  0
 17 38  1  0
 20 39  1  0
 24 40  1  6
 25 41  1  0
 25 42  1  0
 26 43  1  1
 29 44  1  0
M  ISO  8  30  14  31  14  32  14  33  14  34  14  35  14  36  14  37  14
M  ISO  7  38  14  39  14  40  13  41  13  42  13  43  13  44   3
M  END
>  <minimizedAffinity>  (1) 
-6.09840202

>  <minimizedRMSD>  (1) 
0.547452271

$$$$
