
     RDKit          3D

 42 46  0  0  1  0  0  0  0  0999 V2000
   39.5790   22.8730   37.2130 C   0  0  0  0  0  0  0  0  0  0  0  0
   39.0020   23.2270   38.4360 C   0  0  0  0  0  0  0  0  0  0  0  0
   38.0510   24.2300   38.4460 C   0  0  0  0  0  0  0  0  0  0  0  0
   37.7090   24.8310   37.2920 N   0  0  0  0  0  0  0  0  0  0  0  0
   38.3030   24.4560   36.0880 C   0  0  0  0  0  0  0  0  0  0  0  0
   39.2040   23.5050   36.0850 N   0  0  0  0  0  0  0  0  0  0  0  0
   37.8910   25.1470   34.9380 N   0  0  0  0  0  0  0  0  0  0  0  0
   37.4040   26.3880   35.1820 C   0  0  0  0  0  0  0  0  0  0  0  0
   37.0270   26.9350   33.9400 C   0  0  0  0  0  0  0  0  0  0  0  0
   37.2990   26.0170   33.0150 N   0  0  0  0  0  0  0  0  0  0  0  0
   37.8230   24.9300   33.6220 C   0  0  0  0  0  0  0  0  0  0  0  0
   38.2720   23.6780   33.0340 C   0  0  0  0  0  0  0  0  0  0  0  0
   37.3470   22.6800   32.9510 C   0  0  0  0  0  0  0  0  0  0  0  0
   37.5780   21.4260   32.4290 C   0  0  0  0  0  0  0  0  0  0  0  0
   38.8320   21.1690   31.9580 N   0  0  0  0  0  0  0  0  0  0  0  0
   39.7600   22.1390   32.0290 C   0  0  0  0  0  0  0  0  0  0  0  0
   39.4720   23.3330   32.5480 N   0  0  0  0  0  0  0  0  0  0  0  0
   40.5010   21.9000   37.2030 O   0  0  0  0  0  0  0  0  0  0  0  0
   41.8110   22.1680   36.7740 C   0  0  0  0  0  0  0  0  0  0  0  0
   42.4410   21.1280   36.1400 C   0  0  0  0  0  0  0  0  0  0  0  0
   44.0370   21.8580   35.7660 S   0  0  0  0  0  0  0  0  0  0  0  0
   43.5910   23.5260   36.5540 C   0  0  0  0  0  0  0  0  0  0  0  0
   42.5350   23.2510   36.8790 N   0  0  0  0  0  0  0  0  0  0  0  0
   44.5720   24.6680   36.5840 C   0  0  2  0  0  0  0  0  0  0  0  0
   45.9680   24.3840   36.3280 C   0  0  0  0  0  0  0  0  0  0  0  0
   45.7100   24.4410   37.7160 C   0  0  1  0  0  0  0  0  0  0  0  0
   46.1950   25.7680   38.3220 C   0  0  0  0  0  0  0  0  0  0  0  0
   47.2430   26.3930   37.7960 O   0  0  0  0  0  0  0  0  0  0  0  0
   45.5210   26.3190   39.4310 O   0  0  0  0  0  0  0  0  0  0  0  0
   39.2972   22.7203   39.3667 H   0  0  0  0  0  0  0  0  0  0  0  0
   37.5772   24.5346   39.3908 H   0  0  0  0  0  0  0  0  0  0  0  0
   37.3192   26.8758   36.1643 H   0  0  0  0  0  0  0  0  0  0  0  0
   36.5913   27.9302   33.7674 H   0  0  0  0  0  0  0  0  0  0  0  0
   36.3367   22.8926   33.3306 H   0  0  0  0  0  0  0  0  0  0  0  0
   36.7849   20.6646   32.3936 H   0  0  0  0  0  0  0  0  0  0  0  0
   40.7750   21.9443   31.6523 H   0  0  0  0  0  0  0  0  0  0  0  0
   42.0679   20.1169   35.9197 H   0  0  0  0  0  0  0  0  0  0  0  0
   43.8630   25.4326   36.2337 H   0  0  0  0  0  0  0  0  0  0  0  0
   46.2315   23.4126   35.8842 H   0  0  0  0  0  0  0  0  0  0  0  0
   46.7094   24.9122   35.7105 H   0  0  0  0  0  0  0  0  0  0  0  0
   45.8485   23.7871   38.5896 H   0  0  0  0  0  0  0  0  0  0  0  0
   45.8305   27.1734   39.8239 H   0  0  0  0  0  0  0  0  0  0  0  0
  1  2  2  0
  2  3  1  0
  4  3  2  0
  5  4  1  0
  6  5  2  0
  6  1  1  0
  7  8  1  0
  7  5  1  0
  9  8  2  0
 10 11  2  0
 10  9  1  0
 11  7  1  0
 12 11  1  0
 13 12  2  0
 14 13  1  0
 15 16  1  0
 15 14  2  0
 16 17  2  0
 17 12  1  0
 18  1  1  0
 19 23  1  0
 19 18  1  0
 20 19  2  0
 21 20  1  0
 21 22  1  0
 22 24  1  0
 22 23  2  0
 24 26  1  0
 25 24  1  0
 25 26  1  0
 26 27  1  0
 27 29  1  0
 28 27  2  0
  2 30  1  0
  3 31  1  0
  8 32  1  0
  9 33  1  0
 13 34  1  0
 14 35  1  0
 16 36  1  0
 20 37  1  0
 24 38  1  6
 25 39  1  0
 25 40  1  0
 26 41  1  1
 29 42  1  0
M  ISO  8  30  14  31  14  32  14  33  14  34  14  35  14  36  14  37  14
M  ISO  5  38  13  39  13  40  13  41  13  42   3
M  END
>  <minimizedAffinity>  (1) 
-6.0775075

>  <minimizedRMSD>  (1) 
0.136159137

$$$$
