
     RDKit          3D

 41 45  0  0  1  0  0  0  0  0999 V2000
   39.5780   22.8790   37.2350 C   0  0  0  0  0  0  0  0  0  0  0  0
   38.9990   23.2290   38.4520 C   0  0  0  0  0  0  0  0  0  0  0  0
   38.0430   24.2320   38.4530 C   0  0  0  0  0  0  0  0  0  0  0  0
   37.7040   24.8310   37.2990 N   0  0  0  0  0  0  0  0  0  0  0  0
   38.3010   24.4620   36.0920 C   0  0  0  0  0  0  0  0  0  0  0  0
   39.1930   23.5190   36.1260 N   0  0  0  0  0  0  0  0  0  0  0  0
   37.8870   25.1560   34.9490 N   0  0  0  0  0  0  0  0  0  0  0  0
   37.4070   26.3980   35.1980 C   0  0  0  0  0  0  0  0  0  0  0  0
   37.0270   26.9500   33.9590 C   0  0  0  0  0  0  0  0  0  0  0  0
   37.2930   26.0330   33.0410 N   0  0  0  0  0  0  0  0  0  0  0  0
   37.8200   24.9250   33.6360 C   0  0  0  0  0  0  0  0  0  0  0  0
   38.2120   23.7190   32.9610 C   0  0  0  0  0  0  0  0  0  0  0  0
   37.2160   22.7630   32.6840 C   0  0  0  0  0  0  0  0  0  0  0  0
   37.6950   21.6850   32.0400 N   0  0  0  0  0  0  0  0  0  0  0  0
   39.0120   21.8800   31.8680 C   0  0  0  0  0  0  0  0  0  0  0  0
   39.2240   23.0560   32.4190 N   0  0  0  0  0  0  0  0  0  0  0  0
   40.4990   21.9060   37.2210 O   0  0  0  0  0  0  0  0  0  0  0  0
   41.8070   22.1690   36.7840 C   0  0  0  0  0  0  0  0  0  0  0  0
   42.4350   21.1310   36.1470 C   0  0  0  0  0  0  0  0  0  0  0  0
   44.0280   21.8620   35.7650 S   0  0  0  0  0  0  0  0  0  0  0  0
   43.5850   23.5270   36.5580 C   0  0  0  0  0  0  0  0  0  0  0  0
   42.5300   23.2530   36.8870 N   0  0  0  0  0  0  0  0  0  0  0  0
   44.5670   24.6680   36.5860 C   0  0  2  0  0  0  0  0  0  0  0  0
   45.9600   24.3890   36.3250 C   0  0  0  0  0  0  0  0  0  0  0  0
   45.7080   24.4470   37.7130 C   0  0  1  0  0  0  0  0  0  0  0  0
   46.1940   25.7660   38.3200 C   0  0  0  0  0  0  0  0  0  0  0  0
   47.2430   26.3900   37.7950 O   0  0  0  0  0  0  0  0  0  0  0  0
   45.5230   26.3150   39.4300 O   0  0  0  0  0  0  0  0  0  0  0  0
   39.2917   22.7244   39.3846 H   0  0  0  0  0  0  0  0  0  0  0  0
   37.5634   24.5367   39.3949 H   0  0  0  0  0  0  0  0  0  0  0  0
   37.3287   26.8837   36.1818 H   0  0  0  0  0  0  0  0  0  0  0  0
   36.5944   27.9467   33.7875 H   0  0  0  0  0  0  0  0  0  0  0  0
   36.1594   22.8853   32.9645 H   0  0  0  0  0  0  0  0  0  0  0  0
   39.7408   21.2147   31.3819 H   0  0  0  0  0  0  0  0  0  0  0  0
   40.1716   23.4595   32.4291 H   0  0  0  0  0  0  0  0  0  0  0  0
   42.0619   20.1196   35.9283 H   0  0  0  0  0  0  0  0  0  0  0  0
   43.8543   25.4301   36.2378 H   0  0  0  0  0  0  0  0  0  0  0  0
   46.2250   23.4179   35.8814 H   0  0  0  0  0  0  0  0  0  0  0  0
   46.6969   24.9189   35.7036 H   0  0  0  0  0  0  0  0  0  0  0  0
   45.8504   23.7948   38.5873 H   0  0  0  0  0  0  0  0  0  0  0  0
   45.8347   27.1677   39.8248 H   0  0  0  0  0  0  0  0  0  0  0  0
  1  2  2  0
  2  3  1  0
  4  3  2  0
  5  6  2  0
  5  4  1  0
  6  1  1  0
  7  8  1  0
  7  5  1  0
  9  8  2  0
 10 11  2  0
 10  9  1  0
 11  7  1  0
 12 11  1  0
 13 12  2  0
 14 13  1  0
 15 14  2  0
 15 16  1  0
 16 12  1  0
 17  1  1  0
 18 22  1  0
 18 17  1  0
 19 18  2  0
 20 19  1  0
 20 21  1  0
 21 23  1  0
 21 22  2  0
 23 25  1  0
 24 23  1  0
 24 25  1  0
 25 26  1  0
 26 28  1  0
 27 26  2  0
  2 29  1  0
  3 30  1  0
  8 31  1  0
  9 32  1  0
 13 33  1  0
 15 34  1  0
 16 35  1  0
 19 36  1  0
 23 37  1  6
 24 38  1  0
 24 39  1  0
 25 40  1  1
 28 41  1  0
M  ISO  8  29  14  30  14  31  14  32  14  33  14  34  14  35   9  36  14
M  ISO  5  37  13  38  13  39  13  40  13  41   3
M  END
>  <minimizedAffinity>  (1) 
-5.99823809

>  <minimizedRMSD>  (1) 
0.159234866

$$$$
