
     RDKit          3D

 36 39  0  0  1  0  0  0  0  0999 V2000
   40.5270   21.9040   37.2360 O   0  0  0  0  0  0  0  0  0  0  0  0
   39.5920   22.8730   37.2280 C   0  0  0  0  0  0  0  0  0  0  0  0
   38.9980   23.2130   38.4490 C   0  0  0  0  0  0  0  0  0  0  0  0
   38.0370   24.2080   38.4490 C   0  0  0  0  0  0  0  0  0  0  0  0
   37.7060   24.8090   37.3020 N   0  0  0  0  0  0  0  0  0  0  0  0
   38.3140   24.4490   36.1080 C   0  0  0  0  0  0  0  0  0  0  0  0
   39.2360   23.4990   36.0890 N   0  0  0  0  0  0  0  0  0  0  0  0
   37.9150   25.1300   34.9450 N   0  0  0  0  0  0  0  0  0  0  0  0
   37.4220   26.3710   35.1800 C   0  0  0  0  0  0  0  0  0  0  0  0
   37.0570   26.9180   33.9370 C   0  0  0  0  0  0  0  0  0  0  0  0
   37.3430   25.9920   33.0130 N   0  0  0  0  0  0  0  0  0  0  0  0
   37.8620   24.9120   33.6200 C   0  0  0  0  0  0  0  0  0  0  0  0
   38.3330   23.6610   33.1360 N   0  0  0  0  0  0  0  0  0  0  0  0
   41.8280   22.1730   36.7870 C   0  0  0  0  0  0  0  0  0  0  0  0
   42.4410   21.1390   36.1270 C   0  0  0  0  0  0  0  0  0  0  0  0
   44.0350   21.8690   35.7310 S   0  0  0  0  0  0  0  0  0  0  0  0
   43.6050   23.5290   36.5540 C   0  0  0  0  0  0  0  0  0  0  0  0
   42.5600   23.2480   36.8900 N   0  0  0  0  0  0  0  0  0  0  0  0
   44.5960   24.6650   36.5770 C   0  0  2  0  0  0  0  0  0  0  0  0
   45.9920   24.3720   36.3450 C   0  0  0  0  0  0  0  0  0  0  0  0
   45.7170   24.4510   37.7250 C   0  0  1  0  0  0  0  0  0  0  0  0
   46.2040   25.7770   38.3240 C   0  0  0  0  0  0  0  0  0  0  0  0
   47.2570   26.3940   37.7970 O   0  0  0  0  0  0  0  0  0  0  0  0
   45.5310   26.3400   39.4260 O   0  0  0  0  0  0  0  0  0  0  0  0
   39.2867   22.7042   39.3806 H   0  0  0  0  0  0  0  0  0  0  0  0
   37.5474   24.5033   39.3888 H   0  0  0  0  0  0  0  0  0  0  0  0
   37.3255   26.8593   36.1609 H   0  0  0  0  0  0  0  0  0  0  0  0
   36.6216   27.9123   33.7586 H   0  0  0  0  0  0  0  0  0  0  0  0
   38.6994   22.9589   33.7946 H   0  0  0  0  0  0  0  0  0  0  0  0
   38.3079   23.4568   32.1268 H   0  0  0  0  0  0  0  0  0  0  0  0
   42.0594   20.1325   35.9006 H   0  0  0  0  0  0  0  0  0  0  0  0
   43.8955   25.4266   36.2038 H   0  0  0  0  0  0  0  0  0  0  0  0
   46.2574   23.3929   35.9197 H   0  0  0  0  0  0  0  0  0  0  0  0
   46.7437   24.8879   35.7296 H   0  0  0  0  0  0  0  0  0  0  0  0
   45.8398   23.8097   38.6102 H   0  0  0  0  0  0  0  0  0  0  0  0
   45.8445   27.1955   39.8131 H   0  0  0  0  0  0  0  0  0  0  0  0
  2  1  1  0
  2  3  2  0
  4  3  1  0
  5  4  2  0
  6  5  1  0
  7  6  2  0
  7  2  1  0
  8  9  1  0
  8  6  1  0
 10  9  2  0
 11 12  2  0
 11 10  1  0
 12  8  1  0
 13 12  1  0
 14 18  1  0
 14  1  1  0
 15 14  2  0
 16 15  1  0
 16 17  1  0
 17 19  1  0
 17 18  2  0
 19 21  1  0
 20 19  1  0
 20 21  1  0
 21 22  1  0
 22 24  1  0
 23 22  2  0
  3 25  1  0
  4 26  1  0
  9 27  1  0
 10 28  1  0
 13 29  1  0
 13 30  1  0
 15 31  1  0
 19 32  1  6
 20 33  1  0
 20 34  1  0
 21 35  1  1
 24 36  1  0
M  ISO  8  25  14  26  14  27  14  28  14  31  14  32  13  33  13  34  13
M  ISO  2  35  13  36   3
M  END
>  <minimizedAffinity>  (1) 
-5.77654266

>  <minimizedRMSD>  (1) 
0.0474118479

$$$$
