
     RDKit          3D

 37 40  0  0  0  0  0  0  0  0999 V2000
   43.9990   23.2520   35.7020 S   0  0  0  0  0  0  0  0  0  0  0  0
   44.9340   24.2430   36.8550 C   0  0  0  0  0  0  0  0  0  0  0  0
   44.2360   25.1240   37.6750 C   0  0  0  0  0  0  0  0  0  0  0  0
   45.6050   25.9010   38.6780 S   0  0  0  0  0  0  0  0  0  0  0  0
   46.8850   24.8520   37.7630 C   0  0  0  0  0  0  0  0  0  0  0  0
   46.2040   24.2960   37.0880 N   0  0  0  0  0  0  0  0  0  0  0  0
   48.3220   24.8380   37.9520 N   0  0  0  0  0  0  0  0  0  0  0  0
   48.7600   23.8570   38.7790 C   0  0  0  0  0  0  0  0  0  0  0  0
   50.1350   23.9850   38.8440 C   0  0  0  0  0  0  0  0  0  0  0  0
   50.4620   25.0360   38.0530 N   0  0  0  0  0  0  0  0  0  0  0  0
   49.3530   25.5590   37.5070 C   0  0  0  0  0  0  0  0  0  0  0  0
   49.1360   26.6640   36.6090 C   0  0  0  0  0  0  0  0  0  0  0  0
   48.9690   26.4720   35.3850 O   0  0  0  0  0  0  0  0  0  0  0  0
   49.1210   27.9370   37.1680 O   0  0  0  0  0  0  0  0  0  0  0  0
   40.4980   22.5150   37.4730 C   0  0  0  0  0  0  0  0  0  0  0  0
   39.5970   23.3280   36.7390 C   0  0  0  0  0  0  0  0  0  0  0  0
   40.1030   24.0840   35.7210 C   0  0  0  0  0  0  0  0  0  0  0  0
   41.4500   24.0240   35.4640 N   0  0  0  0  0  0  0  0  0  0  0  0
   42.2770   23.2340   36.1870 C   0  0  0  0  0  0  0  0  0  0  0  0
   41.7870   22.4920   37.1810 N   0  0  0  0  0  0  0  0  0  0  0  0
   39.4190   24.9400   34.7730 C   0  0  0  0  0  0  0  0  0  0  0  0
   38.6780   24.7780   33.6400 C   0  0  0  0  0  0  0  0  0  0  0  0
   38.3480   25.9390   33.0540 N   0  0  0  0  0  0  0  0  0  0  0  0
   38.8830   26.9390   33.8110 C   0  0  0  0  0  0  0  0  0  0  0  0
   39.4940   26.2910   34.7960 N   0  0  0  0  0  0  0  0  0  0  0  0
   38.1480   23.4140   37.0510 C   0  0  0  0  0  0  0  0  0  0  0  0
   37.9970   22.9060   38.3750 F   0  0  0  0  0  0  0  0  0  0  0  0
   37.3690   22.6990   36.2430 F   0  0  0  0  0  0  0  0  0  0  0  0
   37.7480   24.7480   37.2480 F   0  0  0  0  0  0  0  0  0  0  0  0
   43.1535   25.3141   37.7206 H   0  0  0  0  0  0  0  0  0  0  0  0
   48.1431   23.1073   39.2961 H   0  0  0  0  0  0  0  0  0  0  0  0
   50.8276   23.3572   39.4238 H   0  0  0  0  0  0  0  0  0  0  0  0
   48.9754   28.7289   36.5920 H   0  0  0  0  0  0  0  0  0  0  0  0
   40.1184   21.8941   38.2979 H   0  0  0  0  0  0  0  0  0  0  0  0
   38.3808   23.7949   33.2462 H   0  0  0  0  0  0  0  0  0  0  0  0
   38.8228   28.0248   33.6451 H   0  0  0  0  0  0  0  0  0  0  0  0
   39.9998   26.7918   35.5405 H   0  0  0  0  0  0  0  0  0  0  0  0
  1 19  1  0
  1  2  1  0
  2  6  1  0
  2  3  2  0
  3  4  1  0
  5  7  1  0
  5  4  1  0
  6  5  2  0
  7  8  1  0
  8  9  2  0
 10  9  1  0
 11  7  1  0
 11 10  2  0
 12 14  1  0
 12 11  1  0
 13 12  2  0
 16 26  1  0
 16 15  2  0
 17 16  1  0
 18 17  2  0
 18 19  1  0
 19 20  2  0
 20 15  1  0
 21 25  1  0
 21 17  1  0
 22 21  2  0
 23 22  1  0
 23 24  2  0
 24 25  1  0
 26 29  1  0
 26 27  1  0
 28 26  1  0
  3 30  1  0
  8 31  1  0
  9 32  1  0
 14 33  1  0
 15 34  1  0
 22 35  1  0
 24 36  1  0
 25 37  1  0
M  ISO  8  30  14  31  14  32  14  33   3  34  14  35  14  36  14  37   9
M  END
>  <minimizedAffinity>  (1) 
-5.57451344

>  <minimizedRMSD>  (1) 
4.41189575

$$$$
