
     RDKit          3D

 27 29  0  0  0  0  0  0  0  0999 V2000
   37.7290   22.5480   33.2260 C   0  0  0  0  0  0  0  0  0  0  0  0
   36.7410   21.5430   33.3330 C   0  0  0  0  0  0  0  0  0  0  0  0
   36.3010   20.8870   32.1920 C   0  0  0  0  0  0  0  0  0  0  0  0
   36.8490   21.2500   31.0200 N   0  0  0  0  0  0  0  0  0  0  0  0
   37.7930   22.2090   30.9210 C   0  0  0  0  0  0  0  0  0  0  0  0
   38.2140   22.8360   32.0090 N   0  0  0  0  0  0  0  0  0  0  0  0
   38.0760   23.1410   34.5390 C   0  0  0  0  0  0  0  0  0  0  0  0
   38.4530   22.4050   35.5990 N   0  0  0  0  0  0  0  0  0  0  0  0
   38.7720   22.8760   36.7930 C   0  0  0  0  0  0  0  0  0  0  0  0
   38.7420   24.1900   37.0470 N   0  0  0  0  0  0  0  0  0  0  0  0
   38.3720   25.0370   36.0430 C   0  0  0  0  0  0  0  0  0  0  0  0
   38.3300   26.3940   36.2720 C   0  0  0  0  0  0  0  0  0  0  0  0
   37.9600   27.2790   35.2810 C   0  0  0  0  0  0  0  0  0  0  0  0
   37.6310   26.7230   34.0370 C   0  0  0  0  0  0  0  0  0  0  0  0
   37.6930   25.3680   33.8700 C   0  0  0  0  0  0  0  0  0  0  0  0
   38.0520   24.4800   34.8260 C   0  0  0  0  0  0  0  0  0  0  0  0
   35.2780   19.8620   32.3970 C   0  0  0  0  0  0  0  0  0  0  0  0
   35.4010   18.8820   31.4540 F   0  0  0  0  0  0  0  0  0  0  0  0
   34.0550   20.4670   32.1510 F   0  0  0  0  0  0  0  0  0  0  0  0
   35.3280   19.2910   33.6520 F   0  0  0  0  0  0  0  0  0  0  0  0
   36.3227   21.2820   34.3163 H   0  0  0  0  0  0  0  0  0  0  0  0
   38.2123   22.4697   29.9380 H   0  0  0  0  0  0  0  0  0  0  0  0
   39.0666   22.1771   37.5897 H   0  0  0  0  0  0  0  0  0  0  0  0
   38.5972   26.7806   37.2666 H   0  0  0  0  0  0  0  0  0  0  0  0
   37.9249   28.3642   35.4576 H   0  0  0  0  0  0  0  0  0  0  0  0
   37.3256   27.3715   33.2026 H   0  0  0  0  0  0  0  0  0  0  0  0
   37.4302   24.9674   32.8798 H   0  0  0  0  0  0  0  0  0  0  0  0
  1  2  2  0
  1  7  1  0
  3 17  1  0
  3  2  1  0
  4  3  2  0
  5  4  1  0
  5  6  2  0
  6  1  1  0
  7 16  1  0
  7  8  2  0
  8  9  1  0
  9 10  2  0
 11 12  2  0
 11 10  1  0
 13 12  1  0
 14 13  2  0
 15 14  1  0
 15 16  2  0
 16 11  1  0
 17 20  1  0
 18 17  1  0
 19 17  1  0
  2 21  1  0
  5 22  1  0
  9 23  1  0
 12 24  1  0
 13 25  1  0
 14 26  1  0
 15 27  1  0
M  ISO  7  21  14  22  14  23  14  24  14  25  14  26  14  27  14
M  END
>  <minimizedAffinity>  (1) 
-5.3729353

>  <minimizedRMSD>  (1) 
7.05892229

$$$$
