
     RDKit          3D

 26 27  0  0  0  0  0  0  0  0999 V2000
   41.0380   22.6390   36.2690 C   0  0  0  0  0  0  0  0  0  0  0  0
   40.3350   23.0690   37.4260 C   0  0  0  0  0  0  0  0  0  0  0  0
   38.9350   23.0540   37.3470 C   0  0  0  0  0  0  0  0  0  0  0  0
   38.3470   22.6410   36.2010 N   0  0  0  0  0  0  0  0  0  0  0  0
   39.0690   22.2380   35.1200 C   0  0  0  0  0  0  0  0  0  0  0  0
   40.4150   22.2410   35.1620 N   0  0  0  0  0  0  0  0  0  0  0  0
   42.4600   22.6110   36.2330 N   0  0  0  0  0  0  0  0  0  0  0  0
   43.1540   23.7460   36.4320 C   0  0  0  0  0  0  0  0  0  0  0  0
   44.5320   23.8200   36.4160 C   0  0  0  0  0  0  0  0  0  0  0  0
   45.1870   25.1490   36.6510 C   0  0  0  0  0  0  0  0  0  0  0  0
   45.1940   22.6380   36.1790 C   0  0  0  0  0  0  0  0  0  0  0  0
   46.4660   22.6900   36.1620 O   0  0  0  0  0  0  0  0  0  0  0  0
   44.5290   21.4900   35.9780 N   0  0  0  0  0  0  0  0  0  0  0  0
   43.1820   21.4810   36.0050 C   0  0  0  0  0  0  0  0  0  0  0  0
   42.5780   20.4070   35.8170 O   0  0  0  0  0  0  0  0  0  0  0  0
   38.2630   23.5040   38.5570 C   0  0  0  0  0  0  0  0  0  0  0  0
   37.6740   24.7340   38.3180 F   0  0  0  0  0  0  0  0  0  0  0  0
   39.2270   23.7400   39.5130 F   0  0  0  0  0  0  0  0  0  0  0  0
   37.2740   22.6610   38.9950 F   0  0  0  0  0  0  0  0  0  0  0  0
   40.8606   23.3962   38.3352 H   0  0  0  0  0  0  0  0  0  0  0  0
   38.5506   21.9082   34.2076 H   0  0  0  0  0  0  0  0  0  0  0  0
   42.5890   24.6711   36.6188 H   0  0  0  0  0  0  0  0  0  0  0  0
   45.2753   25.3281   37.7327 H   0  0  0  0  0  0  0  0  0  0  0  0
   46.1886   25.1496   36.1963 H   0  0  0  0  0  0  0  0  0  0  0  0
   44.5774   25.9437   36.1963 H   0  0  0  0  0  0  0  0  0  0  0  0
   45.0474   20.6172   35.8034 H   0  0  0  0  0  0  0  0  0  0  0  0
  1  2  2  0
  3  2  1  0
  3 16  1  0
  4  3  2  0
  5  6  2  0
  5  4  1  0
  6  1  1  0
  7  1  1  0
  7  8  1  0
  9  8  2  0
  9 10  1  0
 11  9  1  0
 12 11  2  0
 13 14  1  0
 13 11  1  0
 14  7  1  0
 15 14  2  0
 16 19  1  0
 16 18  1  0
 17 16  1  0
  2 20  1  0
  5 21  1  0
  8 22  1  0
 10 23  1  0
 10 24  1  0
 10 25  1  0
 13 26  1  0
M  ISO  7  20  14  21  14  22  14  23   8  24   8  25   8  26   9
M  END
>  <minimizedAffinity>  (1) 
-4.85126209

>  <minimizedRMSD>  (1) 
2.40227985

$$$$
