
     RDKit          3D

 24 25  0  0  0  0  0  0  0  0999 V2000
   38.5750   22.8120   35.8070 C   0  0  0  0  0  0  0  0  0  0  0  0
   39.8690   22.2110   35.8300 C   0  0  0  0  0  0  0  0  0  0  0  0
   40.5170   22.2190   37.0840 C   0  0  0  0  0  0  0  0  0  0  0  0
   39.8930   22.7760   38.1530 N   0  0  0  0  0  0  0  0  0  0  0  0
   38.6580   23.3300   38.0580 C   0  0  0  0  0  0  0  0  0  0  0  0
   38.0090   23.3470   36.8930 N   0  0  0  0  0  0  0  0  0  0  0  0
   37.8800   22.8250   34.5430 N   0  0  0  0  0  0  0  0  0  0  0  0
   37.2190   21.7770   34.0460 C   0  0  0  0  0  0  0  0  0  0  0  0
   36.6120   21.9950   32.8050 C   0  0  0  0  0  0  0  0  0  0  0  0
   36.6890   23.2010   32.1430 C   0  0  0  0  0  0  0  0  0  0  0  0
   36.0400   23.3270   30.8890 N   0  0  0  0  0  0  0  0  0  0  0  0
   37.3730   24.2130   32.7080 N   0  0  0  0  0  0  0  0  0  0  0  0
   37.9700   24.0150   33.9160 C   0  0  0  0  0  0  0  0  0  0  0  0
   38.5850   25.0190   34.3610 O   0  0  0  0  0  0  0  0  0  0  0  0
   41.8450   21.5950   37.0830 C   0  0  0  0  0  0  0  0  0  0  0  0
   42.8090   22.5780   37.0180 F   0  0  0  0  0  0  0  0  0  0  0  0
   41.9590   20.9020   35.8850 F   0  0  0  0  0  0  0  0  0  0  0  0
   42.0870   20.8050   38.1670 F   0  0  0  0  0  0  0  0  0  0  0  0
   40.3296   21.7719   34.9327 H   0  0  0  0  0  0  0  0  0  0  0  0
   38.1877   23.7692   38.9502 H   0  0  0  0  0  0  0  0  0  0  0  0
   37.1564   20.8137   34.5733 H   0  0  0  0  0  0  0  0  0  0  0  0
   36.0511   21.1714   32.3391 H   0  0  0  0  0  0  0  0  0  0  0  0
   35.5268   22.5270   30.4920 H   0  0  0  0  0  0  0  0  0  0  0  0
   36.0816   24.2185   30.3748 H   0  0  0  0  0  0  0  0  0  0  0  0
  1  2  2  0
  1  6  1  0
  2  3  1  0
  3  4  2  0
  5  4  1  0
  6  5  2  0
  7  1  1  0
  8  7  1  0
  9  8  2  0
 10 12  2  0
 10  9  1  0
 11 10  1  0
 12 13  1  0
 13 14  2  0
 13  7  1  0
 15  3  1  0
 15 18  1  0
 16 15  1  0
 17 15  1  0
  2 19  1  0
  5 20  1  0
  8 21  1  0
  9 22  1  0
 11 23  1  0
 11 24  1  0
M  ISO  4  19  14  20  14  21  14  22  14
M  END
>  <minimizedAffinity>  (1) 
-4.70972776

>  <minimizedRMSD>  (1) 
6.29100513

$$$$
