
     RDKit          3D

 16 16  0  0  0  0  0  0  0  0999 V2000
   41.1420   21.8560   36.7600 C   0  0  0  0  0  0  0  0  0  0  0  0
   40.3350   22.4120   37.8030 C   0  0  0  0  0  0  0  0  0  0  0  0
   39.2160   23.1410   37.3810 C   0  0  0  0  0  0  0  0  0  0  0  0
   38.9670   23.2760   36.0640 N   0  0  0  0  0  0  0  0  0  0  0  0
   39.7690   22.7250   35.1060 C   0  0  0  0  0  0  0  0  0  0  0  0
   40.8490   22.0210   35.4740 N   0  0  0  0  0  0  0  0  0  0  0  0
   38.4210   23.6910   38.4730 C   0  0  0  0  0  0  0  0  0  0  0  0
   37.9910   24.9650   38.1420 F   0  0  0  0  0  0  0  0  0  0  0  0
   39.2510   23.8510   39.5590 F   0  0  0  0  0  0  0  0  0  0  0  0
   37.3050   22.9440   38.7710 F   0  0  0  0  0  0  0  0  0  0  0  0
   42.3250   21.0850   37.1530 C   0  0  0  0  0  0  0  0  0  0  0  0
   43.3980   21.2120   36.5090 O   0  0  0  0  0  0  0  0  0  0  0  0
   42.2770   20.2100   38.2320 O   0  0  0  0  0  0  0  0  0  0  0  0
   40.5778   22.2756   38.8672 H   0  0  0  0  0  0  0  0  0  0  0  0
   39.5307   22.8577   34.0403 H   0  0  0  0  0  0  0  0  0  0  0  0
   43.0828   19.6948   38.4877 H   0  0  0  0  0  0  0  0  0  0  0  0
  1 11  1  0
  1  2  2  0
  3  2  1  0
  3  7  1  0
  4  3  2  0
  5  6  2  0
  5  4  1  0
  6  1  1  0
  7 10  1  0
  7  9  1  0
  8  7  1  0
 11 13  1  0
 12 11  2  0
  2 14  1  0
  5 15  1  0
 13 16  1  0
M  ISO  3  14  14  15  14  16   3
M  END
>  <minimizedAffinity>  (1) 
-4.69535589

>  <minimizedRMSD>  (1) 
0.438200295

$$$$
