
     RDKit          3D

 36 39  0  0  0  0  0  0  0  0999 V2000
   44.5560   23.9600   36.3160 C   0  0  0  0  0  0  0  0  0  0  0  0
   44.1150   24.8540   37.2890 C   0  0  0  0  0  0  0  0  0  0  0  0
   45.7150   25.4520   38.0440 S   0  0  0  0  0  0  0  0  0  0  0  0
   46.6970   24.3420   36.8610 C   0  0  0  0  0  0  0  0  0  0  0  0
   45.8530   23.8920   36.3120 N   0  0  0  0  0  0  0  0  0  0  0  0
   48.1290   24.2010   36.7830 N   0  0  0  0  0  0  0  0  0  0  0  0
   48.6180   23.1570   37.4780 C   0  0  0  0  0  0  0  0  0  0  0  0
   49.9880   23.1660   37.2990 C   0  0  0  0  0  0  0  0  0  0  0  0
   50.2640   24.2190   36.5020 N   0  0  0  0  0  0  0  0  0  0  0  0
   49.1330   24.8520   36.1860 C   0  0  0  0  0  0  0  0  0  0  0  0
   48.8550   26.0230   35.3730 C   0  0  0  0  0  0  0  0  0  0  0  0
   48.8640   25.9490   34.1170 O   0  0  0  0  0  0  0  0  0  0  0  0
   48.5840   27.1980   36.0430 O   0  0  0  0  0  0  0  0  0  0  0  0
   43.3320   23.1250   35.3160 S   0  0  0  0  0  0  0  0  0  0  0  0
   40.2270   22.5640   37.7690 C   0  0  0  0  0  0  0  0  0  0  0  0
   39.2450   23.4330   37.2530 C   0  0  0  0  0  0  0  0  0  0  0  0
   39.5810   24.1850   36.1360 C   0  0  0  0  0  0  0  0  0  0  0  0
   40.8370   24.0560   35.5820 N   0  0  0  0  0  0  0  0  0  0  0  0
   41.7460   23.1990   36.1230 C   0  0  0  0  0  0  0  0  0  0  0  0
   41.4270   22.4680   37.2080 N   0  0  0  0  0  0  0  0  0  0  0  0
   38.7060   25.1020   35.5020 N   0  0  0  0  0  0  0  0  0  0  0  0
   37.9130   25.1250   34.4270 C   0  0  0  0  0  0  0  0  0  0  0  0
   37.2940   26.3130   34.3150 N   0  0  0  0  0  0  0  0  0  0  0  0
   37.7080   27.0580   35.3470 C   0  0  0  0  0  0  0  0  0  0  0  0
   38.5680   26.3110   36.0650 N   0  0  0  0  0  0  0  0  0  0  0  0
   37.8980   23.5860   37.8300 C   0  0  0  0  0  0  0  0  0  0  0  0
   37.8150   22.6700   38.8950 F   0  0  0  0  0  0  0  0  0  0  0  0
   36.8910   23.3300   36.9710 F   0  0  0  0  0  0  0  0  0  0  0  0
   37.7750   24.8290   38.4840 F   0  0  0  0  0  0  0  0  0  0  0  0
   43.0838   25.1366   37.5476 H   0  0  0  0  0  0  0  0  0  0  0  0
   48.0387   22.4360   38.0734 H   0  0  0  0  0  0  0  0  0  0  0  0
   50.7116   22.4543   37.7231 H   0  0  0  0  0  0  0  0  0  0  0  0
   48.3882   28.0242   35.5340 H   0  0  0  0  0  0  0  0  0  0  0  0
   39.9951   21.9531   38.6539 H   0  0  0  0  0  0  0  0  0  0  0  0
   37.7841   24.2854   33.7281 H   0  0  0  0  0  0  0  0  0  0  0  0
   37.4018   28.0911   35.5681 H   0  0  0  0  0  0  0  0  0  0  0  0
  1  2  2  0
  2  3  1  0
  4  3  1  0
  5  1  1  0
  5  4  2  0
  6  4  1  0
  6  7  1  0
  8  7  2  0
  9  8  1  0
 10  9  2  0
 10  6  1  0
 11 13  1  0
 11 10  1  0
 12 11  2  0
 14 19  1  0
 14  1  1  0
 16 15  2  0
 16 26  1  0
 17 16  1  0
 18 19  1  0
 18 17  2  0
 19 20  2  0
 20 15  1  0
 21 25  1  0
 21 17  1  0
 22 21  1  0
 23 22  2  0
 23 24  1  0
 24 25  2  0
 26 29  1  0
 26 27  1  0
 28 26  1  0
  2 30  1  0
  7 31  1  0
  8 32  1  0
 13 33  1  0
 15 34  1  0
 22 35  1  0
 24 36  1  0
M  ISO  7  30  14  31  14  32  14  33   3  34  14  35  14  36  14
M  END
>  <minimizedAffinity>  (1) 
-5.53741121

>  <minimizedRMSD>  (1) 
3.45796061

$$$$
