
     RDKit          3D

 20 21  0  0  0  0  0  0  0  0999 V2000
   40.8010   22.0100   36.3440 C   0  0  0  0  0  0  0  0  0  0  0  0
   40.1750   22.4780   37.5190 C   0  0  0  0  0  0  0  0  0  0  0  0
   38.9720   23.1810   37.3350 C   0  0  0  0  0  0  0  0  0  0  0  0
   38.5010   23.3630   36.0820 N   0  0  0  0  0  0  0  0  0  0  0  0
   39.1500   22.8870   34.9880 C   0  0  0  0  0  0  0  0  0  0  0  0
   40.3000   22.2130   35.1300 N   0  0  0  0  0  0  0  0  0  0  0  0
   42.0550   21.2710   36.4650 C   0  0  0  0  0  0  0  0  0  0  0  0
   43.2800   21.4840   35.8640 C   0  0  0  0  0  0  0  0  0  0  0  0
   44.1590   20.5450   36.2720 N   0  0  0  0  0  0  0  0  0  0  0  0
   43.4810   19.7390   37.1350 C   0  0  0  0  0  0  0  0  0  0  0  0
   42.2180   20.1910   37.2380 N   0  0  0  0  0  0  0  0  0  0  0  0
   38.3430   23.6560   38.5690 C   0  0  0  0  0  0  0  0  0  0  0  0
   37.8510   24.9170   38.3900 F   0  0  0  0  0  0  0  0  0  0  0  0
   39.3390   23.7630   39.5130 F   0  0  0  0  0  0  0  0  0  0  0  0
   37.3050   22.8560   38.9980 F   0  0  0  0  0  0  0  0  0  0  0  0
   40.6023   22.3033   38.5174 H   0  0  0  0  0  0  0  0  0  0  0  0
   38.7316   23.0547   33.9846 H   0  0  0  0  0  0  0  0  0  0  0  0
   43.5054   22.2972   35.1584 H   0  0  0  0  0  0  0  0  0  0  0  0
   43.8959   18.8656   37.6595 H   0  0  0  0  0  0  0  0  0  0  0  0
   41.4849   19.7682   37.8251 H   0  0  0  0  0  0  0  0  0  0  0  0
  1  7  1  0
  1  2  2  0
  3  2  1  0
  3 12  1  0
  4  3  2  0
  5  6  2  0
  5  4  1  0
  6  1  1  0
  7 11  1  0
  8  9  1  0
  8  7  2  0
  9 10  2  0
 10 11  1  0
 12 15  1  0
 12 14  1  0
 13 12  1  0
  2 16  1  0
  5 17  1  0
  8 18  1  0
 10 19  1  0
 11 20  1  0
M  ISO  5  16  14  17  14  18  14  19  14  20   9
M  END
>  <minimizedAffinity>  (1) 
-4.43845701

>  <minimizedRMSD>  (1) 
0.836796284

$$$$
