
     RDKit          3D

 20 21  0  0  0  0  0  0  0  0999 V2000
   38.3940   24.3740   36.2070 C   0  0  0  0  0  0  0  0  0  0  0  0
   39.5890   23.6180   36.0730 C   0  0  0  0  0  0  0  0  0  0  0  0
   40.0150   22.9250   37.2140 C   0  0  0  0  0  0  0  0  0  0  0  0
   39.2820   23.0130   38.3470 N   0  0  0  0  0  0  0  0  0  0  0  0
   38.1490   23.7430   38.4310 C   0  0  0  0  0  0  0  0  0  0  0  0
   37.7120   24.4170   37.3680 N   0  0  0  0  0  0  0  0  0  0  0  0
   37.9200   25.1000   35.0630 N   0  0  0  0  0  0  0  0  0  0  0  0
   37.8620   24.6400   33.8350 N   0  0  0  0  0  0  0  0  0  0  0  0
   37.3620   25.5900   32.9900 C   0  0  0  0  0  0  0  0  0  0  0  0
   37.1170   26.6790   33.8000 C   0  0  0  0  0  0  0  0  0  0  0  0
   37.4710   26.3640   35.1080 C   0  0  0  0  0  0  0  0  0  0  0  0
   41.2430   22.1590   37.0490 C   0  0  0  0  0  0  0  0  0  0  0  0
   42.3260   22.9920   37.0070 F   0  0  0  0  0  0  0  0  0  0  0  0
   41.1840   21.5560   35.7970 F   0  0  0  0  0  0  0  0  0  0  0  0
   41.4650   21.2300   38.0380 F   0  0  0  0  0  0  0  0  0  0  0  0
   40.1486   23.5787   35.1268 H   0  0  0  0  0  0  0  0  0  0  0  0
   37.5874   23.7811   39.3761 H   0  0  0  0  0  0  0  0  0  0  0  0
   37.1928   25.5053   31.9064 H   0  0  0  0  0  0  0  0  0  0  0  0
   36.7069   27.6432   33.4651 H   0  0  0  0  0  0  0  0  0  0  0  0
   37.3983   27.0138   35.9925 H   0  0  0  0  0  0  0  0  0  0  0  0
  1  6  1  0
  2  1  2  0
  2  3  1  0
  3  4  2  0
  4  5  1  0
  6  5  2  0
  7 11  1  0
  7  1  1  0
  8  7  1  0
  9 10  1  0
  9  8  2  0
 10 11  2  0
 12  3  1  0
 12 15  1  0
 13 12  1  0
 14 12  1  0
  2 16  1  0
  5 17  1  0
  9 18  1  0
 10 19  1  0
 11 20  1  0
M  ISO  5  16  14  17  14  18  14  19  14  20  14
M  END
>  <minimizedAffinity>  (1) 
-4.41038322

>  <minimizedRMSD>  (1) 
5.60884809

$$$$
