
     RDKit          3D

 19 20  0  0  0  0  0  0  0  0999 V2000
   40.7920   22.3000   36.2560 C   0  0  0  0  0  0  0  0  0  0  0  0
   40.0720   22.5760   37.4550 C   0  0  0  0  0  0  0  0  0  0  0  0
   39.0370   23.5170   37.3710 C   0  0  0  0  0  0  0  0  0  0  0  0
   38.7850   24.0990   36.1810 N   0  0  0  0  0  0  0  0  0  0  0  0
   39.4910   23.8150   35.0540 C   0  0  0  0  0  0  0  0  0  0  0  0
   40.4850   22.9210   35.1000 N   0  0  0  0  0  0  0  0  0  0  0  0
   41.8570   21.3380   36.3240 N   0  0  0  0  0  0  0  0  0  0  0  0
   42.5660   20.9110   35.2730 C   0  0  0  0  0  0  0  0  0  0  0  0
   43.4880   20.0130   35.6610 N   0  0  0  0  0  0  0  0  0  0  0  0
   43.3510   19.8760   36.9860 C   0  0  0  0  0  0  0  0  0  0  0  0
   42.3420   20.6950   37.3920 N   0  0  0  0  0  0  0  0  0  0  0  0
   38.3310   23.7620   38.6300 C   0  0  0  0  0  0  0  0  0  0  0  0
   37.7710   25.0290   38.6060 F   0  0  0  0  0  0  0  0  0  0  0  0
   39.2770   23.8070   39.6310 F   0  0  0  0  0  0  0  0  0  0  0  0
   37.3270   22.8570   38.8710 F   0  0  0  0  0  0  0  0  0  0  0  0
   40.3175   22.0736   38.4023 H   0  0  0  0  0  0  0  0  0  0  0  0
   39.2455   24.3188   34.1075 H   0  0  0  0  0  0  0  0  0  0  0  0
   42.4156   21.2475   34.2366 H   0  0  0  0  0  0  0  0  0  0  0  0
   43.9489   19.2172   37.6330 H   0  0  0  0  0  0  0  0  0  0  0  0
  1  7  1  0
  1  2  2  0
  3  2  1  0
  3 12  1  0
  4  3  2  0
  5  6  2  0
  5  4  1  0
  6  1  1  0
  7 11  1  0
  8  9  2  0
  8  7  1  0
  9 10  1  0
 10 11  2  0
 12 15  1  0
 12 14  1  0
 13 12  1  0
  2 16  1  0
  5 17  1  0
  8 18  1  0
 10 19  1  0
M  ISO  4  16  14  17  14  18  14  19  14
M  END
>  <minimizedAffinity>  (1) 
-4.25080442

>  <minimizedRMSD>  (1) 
1.02858567

$$$$
