
     RDKit          3D

 19 19  0  0  0  0  0  0  0  0999 V2000
   41.1460   22.1010   36.5770 C   0  0  0  0  0  0  0  0  0  0  0  0
   40.4060   22.6420   37.6760 C   0  0  0  0  0  0  0  0  0  0  0  0
   39.0950   23.0490   37.3730 C   0  0  0  0  0  0  0  0  0  0  0  0
   38.6080   22.9180   36.1100 N   0  0  0  0  0  0  0  0  0  0  0  0
   39.3640   22.3960   35.1080 C   0  0  0  0  0  0  0  0  0  0  0  0
   40.6290   21.9930   35.3570 N   0  0  0  0  0  0  0  0  0  0  0  0
   38.3690   23.5970   38.5250 C   0  0  0  0  0  0  0  0  0  0  0  0
   37.8900   24.8490   38.2000 F   0  0  0  0  0  0  0  0  0  0  0  0
   39.2830   23.8000   39.5340 F   0  0  0  0  0  0  0  0  0  0  0  0
   37.2980   22.8360   38.9100 F   0  0  0  0  0  0  0  0  0  0  0  0
   42.5470   21.6460   36.8150 C   0  0  0  0  0  0  0  0  0  0  0  0
   43.4430   22.8220   36.4390 C   0  0  0  0  0  0  0  0  0  0  0  0
   40.8326   22.7329   38.6858 H   0  0  0  0  0  0  0  0  0  0  0  0
   38.9458   22.3018   34.0950 H   0  0  0  0  0  0  0  0  0  0  0  0
   42.6880   21.3817   37.8734 H   0  0  0  0  0  0  0  0  0  0  0  0
   42.7860   20.7522   36.2200 H   0  0  0  0  0  0  0  0  0  0  0  0
   43.8133   23.3080   37.3537 H   0  0  0  0  0  0  0  0  0  0  0  0
   44.2953   22.4587   35.8461 H   0  0  0  0  0  0  0  0  0  0  0  0
   42.8665   23.5473   35.8461 H   0  0  0  0  0  0  0  0  0  0  0  0
  1 11  1  0
  1  2  2  0
  3  2  1  0
  3  7  1  0
  4  3  2  0
  5  6  2  0
  5  4  1  0
  6  1  1  0
  7 10  1  0
  7  9  1  0
  8  7  1  0
 12 11  1  0
  2 13  1  0
  5 14  1  0
 11 15  1  0
 11 16  1  0
 12 17  1  0
 12 18  1  0
 12 19  1  0
M  ISO  7  13  14  14  14  15   8  16   8  17   8  18   8  19   8
M  END
>  <minimizedAffinity>  (1) 
-4.17063522

>  <minimizedRMSD>  (1) 
0.567524254

$$$$
