
     RDKit          3D

 15 15  0  0  0  0  0  0  0  0999 V2000
   41.1110   21.9970   36.6140 C   0  0  0  0  0  0  0  0  0  0  0  0
   40.3630   22.5330   37.7010 C   0  0  0  0  0  0  0  0  0  0  0  0
   39.1280   23.1000   37.3800 C   0  0  0  0  0  0  0  0  0  0  0  0
   38.7190   23.1090   36.0870 N   0  0  0  0  0  0  0  0  0  0  0  0
   39.4680   22.5850   35.0820 C   0  0  0  0  0  0  0  0  0  0  0  0
   40.6520   22.0360   35.3480 N   0  0  0  0  0  0  0  0  0  0  0  0
   38.3830   23.6450   38.5040 C   0  0  0  0  0  0  0  0  0  0  0  0
   37.9670   24.9330   38.2070 F   0  0  0  0  0  0  0  0  0  0  0  0
   39.3000   23.8130   39.5410 F   0  0  0  0  0  0  0  0  0  0  0  0
   37.3010   22.9070   38.8730 F   0  0  0  0  0  0  0  0  0  0  0  0
   42.4090   21.3950   36.9120 C   0  0  0  0  0  0  0  0  0  0  0  0
   42.5580   20.4330   37.7070 O   0  0  0  0  0  0  0  0  0  0  0  0
   40.7370   22.5021   38.7350 H   0  0  0  0  0  0  0  0  0  0  0  0
   39.0961   22.6142   34.0472 H   0  0  0  0  0  0  0  0  0  0  0  0
   43.3009   21.8047   36.4153 H   0  0  0  0  0  0  0  0  0  0  0  0
  1 11  1  0
  1  2  2  0
  3  2  1  0
  3  7  1  0
  4  3  2  0
  5  6  2  0
  5  4  1  0
  6  1  1  0
  7 10  1  0
  7  9  1  0
  8  7  1  0
 11 12  2  0
  2 13  1  0
  5 14  1  0
 11 15  1  0
M  ISO  3  13  14  14  14  15   6
M  END
>  <minimizedAffinity>  (1) 
-4.06523132

>  <minimizedRMSD>  (1) 
0.354625016

$$$$
