
     RDKit          3D

 26 27  0  0  1  0  0  0  0  0999 V2000
   38.6090   25.7880   34.9920 C   0  0  2  0  0  0  0  0  0  0  0  0
   39.5870   22.9770   37.1130 C   0  0  0  0  0  0  0  0  0  0  0  0
   38.8150   23.1740   38.3040 C   0  0  0  0  0  0  0  0  0  0  0  0
   37.9680   24.2800   38.3450 C   0  0  0  0  0  0  0  0  0  0  0  0
   37.9480   25.0860   37.2410 N   0  0  0  0  0  0  0  0  0  0  0  0
   38.6840   24.8750   36.1410 C   0  0  0  0  0  0  0  0  0  0  0  0
   39.4940   23.8260   36.0870 N   0  0  0  0  0  0  0  0  0  0  0  0
   39.6880   26.8340   35.1130 C   0  0  0  0  0  0  0  0  0  0  0  0
   37.2820   26.5070   34.8760 C   0  0  0  0  0  0  0  0  0  0  0  0
   36.9210   26.5030   33.4670 N   0  0  0  0  0  0  0  0  0  0  0  0
   36.5120   27.6560   32.8610 C   0  0  0  0  0  0  0  0  0  0  0  0
   36.2160   27.4350   31.5200 C   0  0  0  0  0  0  0  0  0  0  0  0
   36.4610   26.1180   31.3480 N   0  0  0  0  0  0  0  0  0  0  0  0
   36.8790   25.5700   32.5080 C   0  0  0  0  0  0  0  0  0  0  0  0
   38.7345   25.1631   34.0954 H   0  0  0  0  0  0  0  0  0  0  0  0
   40.2657   22.1142   37.0432 H   0  0  0  0  0  0  0  0  0  0  0  0
   38.8881   22.4789   39.1534 H   0  0  0  0  0  0  0  0  0  0  0  0
   37.3442   24.4945   39.2253 H   0  0  0  0  0  0  0  0  0  0  0  0
   39.8907   27.0305   36.1762 H   0  0  0  0  0  0  0  0  0  0  0  0
   40.6054   26.4725   34.6256 H   0  0  0  0  0  0  0  0  0  0  0  0
   39.3552   27.7622   34.6256 H   0  0  0  0  0  0  0  0  0  0  0  0
   36.5149   25.9825   35.4645 H   0  0  0  0  0  0  0  0  0  0  0  0
   37.3562   27.5349   35.2605 H   0  0  0  0  0  0  0  0  0  0  0  0
   36.4278   28.6297   33.3658 H   0  0  0  0  0  0  0  0  0  0  0  0
   35.8645   28.1628   30.7739 H   0  0  0  0  0  0  0  0  0  0  0  0
   37.1461   24.5118   32.6455 H   0  0  0  0  0  0  0  0  0  0  0  0
  1  8  1  0
  1  6  1  0
  2  3  2  0
  3  4  1  0
  5  4  2  0
  6  5  1  0
  7  6  2  0
  7  2  1  0
  9  1  1  0
 10  9  1  0
 11 10  1  0
 12 11  2  0
 13 12  1  0
 13 14  2  0
 14 10  1  0
  1 15  1  6
  2 16  1  0
  3 17  1  0
  4 18  1  0
  8 19  1  0
  8 20  1  0
  8 21  1  0
  9 22  1  0
  9 23  1  0
 11 24  1  0
 12 25  1  0
 14 26  1  0
M  ISO  8  15   8  16  14  17  14  18  14  19   8  20   8  21   8  22   8
M  ISO  4  23   8  24  14  25  14  26  14
M  END
>  <minimizedAffinity>  (1) 
-3.96178055

>  <minimizedRMSD>  (1) 
1.13020575

$$$$
