
     RDKit          3D

 37 40  0  0  0  0  0  0  0  0999 V2000
   44.8680   24.2750   36.8580 C   0  0  0  0  0  0  0  0  0  0  0  0
   44.1800   25.1400   37.7350 C   0  0  0  0  0  0  0  0  0  0  0  0
   45.5690   25.8810   38.7300 S   0  0  0  0  0  0  0  0  0  0  0  0
   46.8330   24.8640   37.7520 C   0  0  0  0  0  0  0  0  0  0  0  0
   46.1450   24.3240   37.0680 N   0  0  0  0  0  0  0  0  0  0  0  0
   48.2700   24.8540   37.9180 N   0  0  0  0  0  0  0  0  0  0  0  0
   48.7210   23.8640   38.7160 C   0  0  0  0  0  0  0  0  0  0  0  0
   50.0930   23.9850   38.7760 C   0  0  0  0  0  0  0  0  0  0  0  0
   50.4110   25.0550   38.0030 N   0  0  0  0  0  0  0  0  0  0  0  0
   49.3000   25.5740   37.4880 C   0  0  0  0  0  0  0  0  0  0  0  0
   49.0600   26.7020   36.6090 C   0  0  0  0  0  0  0  0  0  0  0  0
   48.8060   26.5360   35.3950 O   0  0  0  0  0  0  0  0  0  0  0  0
   49.1200   27.9740   37.1540 O   0  0  0  0  0  0  0  0  0  0  0  0
   43.8950   23.3270   35.6820 S   0  0  0  0  0  0  0  0  0  0  0  0
   40.4710   22.5050   37.5790 C   0  0  0  0  0  0  0  0  0  0  0  0
   39.5340   23.3120   36.8990 C   0  0  0  0  0  0  0  0  0  0  0  0
   39.9930   24.1030   35.8550 C   0  0  0  0  0  0  0  0  0  0  0  0
   41.3200   24.0680   35.5300 N   0  0  0  0  0  0  0  0  0  0  0  0
   42.1860   23.2720   36.2160 C   0  0  0  0  0  0  0  0  0  0  0  0
   41.7470   22.5100   37.2220 N   0  0  0  0  0  0  0  0  0  0  0  0
   38.0920   23.3350   37.2700 C   0  0  0  0  0  0  0  0  0  0  0  0
   37.9880   22.7900   38.5450 F   0  0  0  0  0  0  0  0  0  0  0  0
   37.3010   22.6630   36.4030 F   0  0  0  0  0  0  0  0  0  0  0  0
   37.6790   24.6760   37.4620 F   0  0  0  0  0  0  0  0  0  0  0  0
   39.0820   24.9870   35.0790 C   0  0  0  0  0  0  0  0  0  0  0  0
   39.4850   25.5800   33.7910 C   0  0  0  0  0  0  0  0  0  0  0  0
   38.5880   24.3770   33.7570 C   0  0  0  0  0  0  0  0  0  0  0  0
   43.0990   25.3286   37.8115 H   0  0  0  0  0  0  0  0  0  0  0  0
   48.1092   23.1035   39.2232 H   0  0  0  0  0  0  0  0  0  0  0  0
   50.7893   23.3442   39.3368 H   0  0  0  0  0  0  0  0  0  0  0  0
   48.9611   28.7658   36.5814 H   0  0  0  0  0  0  0  0  0  0  0  0
   40.1396   21.8671   38.4116 H   0  0  0  0  0  0  0  0  0  0  0  0
   38.6570   25.4302   35.9916 H   0  0  0  0  0  0  0  0  0  0  0  0
   39.0879   26.5628   33.4969 H   0  0  0  0  0  0  0  0  0  0  0  0
   40.4543   25.8241   33.3317 H   0  0  0  0  0  0  0  0  0  0  0  0
   37.5342   24.4782   33.4582 H   0  0  0  0  0  0  0  0  0  0  0  0
   38.6181   23.3832   33.2865 H   0  0  0  0  0  0  0  0  0  0  0  0
  1  5  1  0
  1  2  2  0
  2  3  1  0
  4  6  1  0
  4  3  1  0
  5  4  2  0
  6  7  1  0
  7  8  2  0
  9  8  1  0
 10  6  1  0
 10  9  2  0
 11 13  1  0
 11 10  1  0
 12 11  2  0
 14 19  1  0
 14  1  1  0
 16 21  1  0
 16 15  2  0
 17 16  1  0
 18 17  2  0
 18 19  1  0
 19 20  2  0
 20 15  1  0
 21 24  1  0
 21 22  1  0
 23 21  1  0
 25 17  1  0
 26 25  1  0
 27 26  1  0
 27 25  1  0
  2 28  1  0
  7 29  1  0
  8 30  1  0
 13 31  1  0
 15 32  1  0
 25 33  1  0
 26 34  1  0
 26 35  1  0
 27 36  1  0
 27 37  1  0
M  ISO  8  28  14  29  14  30  14  31   3  32  14  33  13  34  13  35  13
M  ISO  2  36  13  37  13
M  END
>  <minimizedAffinity>  (1) 
-5.24666786

>  <minimizedRMSD>  (1) 
4.49479628

$$$$
