
     RDKit          3D

 21 22  0  0  0  0  0  0  0  0999 V2000
   41.1800   22.1680   36.6310 C   0  0  0  0  0  0  0  0  0  0  0  0
   40.4170   22.6980   37.6910 C   0  0  0  0  0  0  0  0  0  0  0  0
   39.0940   23.0720   37.3970 C   0  0  0  0  0  0  0  0  0  0  0  0
   38.6370   22.9060   36.1390 N   0  0  0  0  0  0  0  0  0  0  0  0
   39.4260   22.3870   35.1550 C   0  0  0  0  0  0  0  0  0  0  0  0
   40.6780   22.0240   35.3930 N   0  0  0  0  0  0  0  0  0  0  0  0
   38.3420   23.6100   38.5110 C   0  0  0  0  0  0  0  0  0  0  0  0
   37.8290   24.8390   38.1990 F   0  0  0  0  0  0  0  0  0  0  0  0
   39.2250   23.8080   39.5470 F   0  0  0  0  0  0  0  0  0  0  0  0
   37.2870   22.8000   38.9080 F   0  0  0  0  0  0  0  0  0  0  0  0
   42.4930   21.7850   36.8740 O   0  0  0  0  0  0  0  0  0  0  0  0
   43.5870   22.4500   36.4030 C   0  0  0  0  0  0  0  0  0  0  0  0
   43.6880   23.8110   36.6940 C   0  0  0  0  0  0  0  0  0  0  0  0
   44.8590   24.2810   36.1260 C   0  0  0  0  0  0  0  0  0  0  0  0
   45.4020   23.1590   35.5210 C   0  0  0  0  0  0  0  0  0  0  0  0
   44.6560   22.1090   35.6890 O   0  0  0  0  0  0  0  0  0  0  0  0
   40.8370   22.8136   38.7011 H   0  0  0  0  0  0  0  0  0  0  0  0
   39.0142   22.2672   34.1421 H   0  0  0  0  0  0  0  0  0  0  0  0
   42.9650   24.4049   37.2724 H   0  0  0  0  0  0  0  0  0  0  0  0
   45.2633   25.3038   36.1493 H   0  0  0  0  0  0  0  0  0  0  0  0
   46.3511   23.1576   34.9650 H   0  0  0  0  0  0  0  0  0  0  0  0
  1 11  1  0
  1  2  2  0
  3  2  1  0
  3  7  1  0
  4  3  2  0
  5  6  2  0
  5  4  1  0
  6  1  1  0
  7 10  1  0
  7  9  1  0
  8  7  1  0
 12 13  2  0
 12 11  1  0
 14 13  1  0
 15 16  1  0
 15 14  2  0
 16 12  1  0
  2 17  1  0
  5 18  1  0
 13 19  1  0
 14 20  1  0
 15 21  1  0
M  ISO  5  17  14  18  14  19  14  20  14  21  14
M  END
>  <minimizedAffinity>  (1) 
-4.5091691

>  <minimizedRMSD>  (1) 
1.73409474

$$$$
