
     RDKit          3D

 26 27  0  0  1  0  0  0  0  0999 V2000
   41.1900   22.1290   36.6100 C   0  0  0  0  0  0  0  0  0  0  0  0
   40.4250   22.6750   37.6830 C   0  0  0  0  0  0  0  0  0  0  0  0
   39.1140   23.0650   37.3950 C   0  0  0  0  0  0  0  0  0  0  0  0
   38.6310   22.9110   36.1320 N   0  0  0  0  0  0  0  0  0  0  0  0
   39.4100   22.3810   35.1410 C   0  0  0  0  0  0  0  0  0  0  0  0
   40.6550   22.0030   35.3800 N   0  0  0  0  0  0  0  0  0  0  0  0
   38.3700   23.6150   38.5140 C   0  0  0  0  0  0  0  0  0  0  0  0
   37.8990   24.8610   38.2040 F   0  0  0  0  0  0  0  0  0  0  0  0
   39.2740   23.7950   39.5450 F   0  0  0  0  0  0  0  0  0  0  0  0
   37.3160   22.8270   38.9110 F   0  0  0  0  0  0  0  0  0  0  0  0
   42.4840   21.7310   36.8380 O   0  0  0  0  0  0  0  0  0  0  0  0
   43.4810   22.3960   34.8700 N   0  0  0  0  0  0  0  0  0  0  0  0
   44.2140   23.5700   34.4380 C   0  0  0  0  0  0  0  0  0  0  0  0
   43.7410   24.6500   35.3980 C   0  0  0  0  0  0  0  0  0  0  0  0
   43.5610   23.9000   36.7070 C   0  0  0  0  0  0  0  0  0  0  0  0
   43.5510   22.4490   36.2980 C   0  0  1  0  0  0  0  0  0  0  0  0
   40.8481   22.7843   38.6925 H   0  0  0  0  0  0  0  0  0  0  0  0
   38.9947   22.2671   34.1288 H   0  0  0  0  0  0  0  0  0  0  0  0
   43.9233   21.5368   34.5136 H   0  0  0  0  0  0  0  0  0  0  0  0
   45.2990   23.4118   34.5263 H   0  0  0  0  0  0  0  0  0  0  0  0
   44.0366   23.8242   33.3826 H   0  0  0  0  0  0  0  0  0  0  0  0
   44.4949   25.4446   35.4996 H   0  0  0  0  0  0  0  0  0  0  0  0
   42.8230   25.1536   35.0608 H   0  0  0  0  0  0  0  0  0  0  0  0
   44.3949   24.1068   37.3939 H   0  0  0  0  0  0  0  0  0  0  0  0
   42.6462   24.1953   37.2416 H   0  0  0  0  0  0  0  0  0  0  0  0
   44.4690   21.9820   36.6843 H   0  0  0  0  0  0  0  0  0  0  0  0
  1 11  1  0
  1  2  2  0
  3  2  1  0
  3  7  1  0
  4  3  2  0
  5  6  2  0
  5  4  1  0
  6  1  1  0
  7 10  1  0
  7  9  1  0
  8  7  1  0
 12 16  1  0
 13 12  1  0
 13 14  1  0
 14 15  1  0
 16 15  1  0
 16 11  1  0
  2 17  1  0
  5 18  1  0
 12 19  1  0
 13 20  1  0
 13 21  1  0
 14 22  1  0
 14 23  1  0
 15 24  1  0
 15 25  1  0
 16 26  1  1
M  ISO  8  17  14  18  14  19   5  20  13  21  13  22  13  23  13  24  13
M  ISO  2  25  13  26  13
M  END
>  <minimizedAffinity>  (1) 
-4.45072937

>  <minimizedRMSD>  (1) 
1.56930208

$$$$
