
     RDKit          3D

 39 42  0  0  0  0  0  0  0  0999 V2000
   42.4470   21.9900   35.2220 C   0  0  0  0  0  0  0  0  0  0  0  0
   42.6870   20.6890   35.5720 C   0  0  0  0  0  0  0  0  0  0  0  0
   43.9220   20.1940   35.9210 C   0  0  0  0  0  0  0  0  0  0  0  0
   44.9740   21.0810   35.9140 C   0  0  0  0  0  0  0  0  0  0  0  0
   44.7780   22.3900   35.5680 C   0  0  0  0  0  0  0  0  0  0  0  0
   43.5280   22.8000   35.2380 N   0  0  0  0  0  0  0  0  0  0  0  0
   45.8040   23.4220   35.6020 C   0  0  0  0  0  0  0  0  0  0  0  0
   46.6950   23.4130   34.5180 C   0  0  0  0  0  0  0  0  0  0  0  0
   47.7420   24.2940   34.3680 C   0  0  0  0  0  0  0  0  0  0  0  0
   47.9640   25.2600   35.3230 C   0  0  0  0  0  0  0  0  0  0  0  0
   47.1120   25.3000   36.4030 C   0  0  0  0  0  0  0  0  0  0  0  0
   47.2890   26.2130   37.4210 C   0  0  0  0  0  0  0  0  0  0  0  0
   46.4890   26.2830   38.5590 C   0  0  0  0  0  0  0  0  0  0  0  0
   45.4570   25.3390   38.6190 C   0  0  0  0  0  0  0  0  0  0  0  0
   45.2760   24.4270   37.6060 C   0  0  0  0  0  0  0  0  0  0  0  0
   46.0860   24.3990   36.5040 C   0  0  0  0  0  0  0  0  0  0  0  0
   41.3410   22.6520   34.8600 O   0  0  0  0  0  0  0  0  0  0  0  0
   40.0570   22.6220   35.3090 C   0  0  0  0  0  0  0  0  0  0  0  0
   39.7850   23.0810   36.6210 C   0  0  0  0  0  0  0  0  0  0  0  0
   38.4540   23.0260   37.0250 C   0  0  0  0  0  0  0  0  0  0  0  0
   37.5120   22.5580   36.1860 N   0  0  0  0  0  0  0  0  0  0  0  0
   37.8330   22.1260   34.9240 C   0  0  0  0  0  0  0  0  0  0  0  0
   39.0900   22.1630   34.5030 N   0  0  0  0  0  0  0  0  0  0  0  0
   38.2180   23.5060   38.3860 C   0  0  0  0  0  0  0  0  0  0  0  0
   37.8410   24.8370   38.3520 F   0  0  0  0  0  0  0  0  0  0  0  0
   39.4250   23.4690   39.0570 F   0  0  0  0  0  0  0  0  0  0  0  0
   37.2390   22.8030   39.0540 F   0  0  0  0  0  0  0  0  0  0  0  0
   41.8355   19.9926   35.5744 H   0  0  0  0  0  0  0  0  0  0  0  0
   44.0622   19.1375   36.1932 H   0  0  0  0  0  0  0  0  0  0  0  0
   45.9812   20.7346   36.1890 H   0  0  0  0  0  0  0  0  0  0  0  0
   46.5472   22.6524   33.7372 H   0  0  0  0  0  0  0  0  0  0  0  0
   48.3988   24.2262   33.4882 H   0  0  0  0  0  0  0  0  0  0  0  0
   48.7939   25.9755   35.2263 H   0  0  0  0  0  0  0  0  0  0  0  0
   48.1156   26.9328   37.3284 H   0  0  0  0  0  0  0  0  0  0  0  0
   46.6559   27.0260   39.3528 H   0  0  0  0  0  0  0  0  0  0  0  0
   44.7823   25.3267   39.4877 H   0  0  0  0  0  0  0  0  0  0  0  0
   44.4556   23.6984   37.6841 H   0  0  0  0  0  0  0  0  0  0  0  0
   40.5790   23.4588   37.2820 H   0  0  0  0  0  0  0  0  0  0  0  0
   37.0438   21.7470   34.2580 H   0  0  0  0  0  0  0  0  0  0  0  0
  1  6  1  0
  1  2  2  0
  2  3  1  0
  4  3  2  0
  5  7  1  0
  5  4  1  0
  6  5  2  0
  7 16  1  0
  8  7  2  0
  9  8  1  0
  9 10  2  0
 10 11  1  0
 11 16  2  0
 11 12  1  0
 12 13  2  0
 13 14  1  0
 15 14  2  0
 16 15  1  0
 17  1  1  0
 17 18  1  0
 18 19  2  0
 19 20  1  0
 20 24  1  0
 21 20  2  0
 22 21  1  0
 23 22  2  0
 23 18  1  0
 24 27  1  0
 24 26  1  0
 25 24  1  0
  2 28  1  0
  3 29  1  0
  4 30  1  0
  8 31  1  0
  9 32  1  0
 10 33  1  0
 12 34  1  0
 13 35  1  0
 14 36  1  0
 15 37  1  0
 19 38  1  0
 22 39  1  0
M  ISO  8  28  14  29  14  30  14  31  14  32  14  33  14  34  14  35  14
M  ISO  4  36  14  37  14  38  14  39  14
M  END
>  <minimizedAffinity>  (1) 
-5.46603727

>  <minimizedRMSD>  (1) 
3.04014945

$$$$
