
     RDKit          3D

 37 40  0  0  0  0  0  0  0  0999 V2000
   43.0660   21.4030   36.3020 C   0  0  0  0  0  0  0  0  0  0  0  0
   42.8820   20.1000   36.7570 C   0  0  0  0  0  0  0  0  0  0  0  0
   43.9250   19.2140   36.8940 C   0  0  0  0  0  0  0  0  0  0  0  0
   45.1860   19.6480   36.5670 C   0  0  0  0  0  0  0  0  0  0  0  0
   45.3800   20.9280   36.1200 C   0  0  0  0  0  0  0  0  0  0  0  0
   44.3290   21.8070   35.9840 N   0  0  0  0  0  0  0  0  0  0  0  0
   46.7340   21.2510   35.8160 N   0  0  0  0  0  0  0  0  0  0  0  0
   47.5850   20.4560   35.1410 C   0  0  0  0  0  0  0  0  0  0  0  0
   48.7760   21.1100   35.0540 N   0  0  0  0  0  0  0  0  0  0  0  0
   48.6350   22.3050   35.6800 C   0  0  0  0  0  0  0  0  0  0  0  0
   49.6070   23.2980   35.8320 C   0  0  0  0  0  0  0  0  0  0  0  0
   50.7620   23.1370   35.3610 O   0  0  0  0  0  0  0  0  0  0  0  0
   49.1800   24.3850   36.5030 N   0  0  0  0  0  0  0  0  0  0  0  0
   47.9290   24.4970   36.9830 C   0  0  0  0  0  0  0  0  0  0  0  0
   47.6360   25.7010   37.6660 N   0  0  0  0  0  0  0  0  0  0  0  0
   47.0090   23.5230   36.8240 N   0  0  0  0  0  0  0  0  0  0  0  0
   47.3410   22.4000   36.1670 C   0  0  0  0  0  0  0  0  0  0  0  0
   42.2160   22.4290   36.0900 O   0  0  0  0  0  0  0  0  0  0  0  0
   40.8570   22.5120   36.1450 C   0  0  0  0  0  0  0  0  0  0  0  0
   40.2240   22.9700   37.3200 C   0  0  0  0  0  0  0  0  0  0  0  0
   38.8360   23.0290   37.3080 C   0  0  0  0  0  0  0  0  0  0  0  0
   38.1630   22.6580   36.2100 N   0  0  0  0  0  0  0  0  0  0  0  0
   38.8160   22.2180   35.0910 C   0  0  0  0  0  0  0  0  0  0  0  0
   40.1310   22.1520   35.0720 N   0  0  0  0  0  0  0  0  0  0  0  0
   38.2280   23.5090   38.5430 C   0  0  0  0  0  0  0  0  0  0  0  0
   37.6860   24.7710   38.3510 F   0  0  0  0  0  0  0  0  0  0  0  0
   39.2600   23.7160   39.4450 F   0  0  0  0  0  0  0  0  0  0  0  0
   37.2510   22.7140   39.0470 F   0  0  0  0  0  0  0  0  0  0  0  0
   41.8661   19.7673   37.0162 H   0  0  0  0  0  0  0  0  0  0  0  0
   43.7542   18.1889   37.2546 H   0  0  0  0  0  0  0  0  0  0  0  0
   46.0431   18.9655   36.6644 H   0  0  0  0  0  0  0  0  0  0  0  0
   47.3593   19.4594   34.7338 H   0  0  0  0  0  0  0  0  0  0  0  0
   49.8387   25.1622   36.6546 H   0  0  0  0  0  0  0  0  0  0  0  0
   46.6967   25.8542   38.0599 H   0  0  0  0  0  0  0  0  0  0  0  0
   48.3620   26.4243   37.7693 H   0  0  0  0  0  0  0  0  0  0  0  0
   40.8038   23.2672   38.2063 H   0  0  0  0  0  0  0  0  0  0  0  0
   38.2399   21.9180   34.2033 H   0  0  0  0  0  0  0  0  0  0  0  0
  1  2  2  0
  2  3  1  0
  4  3  2  0
  5  4  1  0
  6  5  2  0
  6  1  1  0
  7  5  1  0
  7 17  1  0
  8  7  1  0
  9  8  2  0
  9 10  1  0
 10 11  1  0
 10 17  2  0
 11 13  1  0
 12 11  2  0
 13 14  1  0
 14 15  1  0
 16 14  2  0
 17 16  1  0
 18 19  1  0
 18  1  1  0
 19 20  2  0
 21 20  1  0
 21 25  1  0
 22 21  2  0
 23 22  1  0
 24 23  2  0
 24 19  1  0
 25 28  1  0
 25 27  1  0
 26 25  1  0
  2 29  1  0
  3 30  1  0
  4 31  1  0
  8 32  1  0
 13 33  1  0
 15 34  1  0
 15 35  1  0
 20 36  1  0
 23 37  1  0
M  ISO  7  29  14  30  14  31  14  32  14  33   9  36  14  37  14
M  END
>  <minimizedAffinity>  (1) 
-5.18711758

>  <minimizedRMSD>  (1) 
0.736691713

$$$$
