
     RDKit          3D

 36 38  0  0  0  0  0  0  0  0999 V2000
   44.9490   24.3250   36.6970 C   0  0  0  0  0  0  0  0  0  0  0  0
   44.2420   25.1200   37.5810 C   0  0  0  0  0  0  0  0  0  0  0  0
   45.5930   25.8320   38.6440 S   0  0  0  0  0  0  0  0  0  0  0  0
   46.8880   24.8870   37.6560 C   0  0  0  0  0  0  0  0  0  0  0  0
   46.2120   24.3720   36.9290 N   0  0  0  0  0  0  0  0  0  0  0  0
   48.3170   24.8810   37.8450 N   0  0  0  0  0  0  0  0  0  0  0  0
   48.7720   23.8550   38.5900 C   0  0  0  0  0  0  0  0  0  0  0  0
   50.1440   23.9970   38.6660 C   0  0  0  0  0  0  0  0  0  0  0  0
   50.4590   25.1000   37.9650 N   0  0  0  0  0  0  0  0  0  0  0  0
   49.3360   25.6480   37.4570 C   0  0  0  0  0  0  0  0  0  0  0  0
   49.1080   26.8220   36.6430 C   0  0  0  0  0  0  0  0  0  0  0  0
   48.8380   26.7020   35.4120 O   0  0  0  0  0  0  0  0  0  0  0  0
   49.1970   28.0460   37.2710 O   0  0  0  0  0  0  0  0  0  0  0  0
   44.0140   23.4200   35.4520 S   0  0  0  0  0  0  0  0  0  0  0  0
   40.1040   23.3910   36.2840 C   0  0  0  0  0  0  0  0  0  0  0  0
   39.6400   24.5990   35.7120 C   0  0  0  0  0  0  0  0  0  0  0  0
   40.5700   25.4020   35.0720 C   0  0  0  0  0  0  0  0  0  0  0  0
   41.8860   25.0030   35.0140 N   0  0  0  0  0  0  0  0  0  0  0  0
   42.2890   23.8310   35.5780 C   0  0  0  0  0  0  0  0  0  0  0  0
   41.3940   23.0580   36.1960 N   0  0  0  0  0  0  0  0  0  0  0  0
   38.2350   25.0320   35.7510 C   0  0  0  0  0  0  0  0  0  0  0  0
   37.5510   24.0600   36.5060 F   0  0  0  0  0  0  0  0  0  0  0  0
   37.6550   25.1390   34.5380 F   0  0  0  0  0  0  0  0  0  0  0  0
   38.0920   26.1850   36.5400 F   0  0  0  0  0  0  0  0  0  0  0  0
   40.3310   26.7160   34.4570 C   0  0  0  0  0  0  0  0  0  0  0  0
   41.5910   27.1860   33.7370 C   0  0  0  0  0  0  0  0  0  0  0  0
   43.1566   25.2885   37.6405 H   0  0  0  0  0  0  0  0  0  0  0  0
   48.1680   23.0584   39.0489 H   0  0  0  0  0  0  0  0  0  0  0  0
   50.8437   23.3353   39.1975 H   0  0  0  0  0  0  0  0  0  0  0  0
   49.0491   28.8785   36.7560 H   0  0  0  0  0  0  0  0  0  0  0  0
   39.3998   22.7240   36.8029 H   0  0  0  0  0  0  0  0  0  0  0  0
   39.5056   26.6363   33.7343 H   0  0  0  0  0  0  0  0  0  0  0  0
   40.0683   27.4417   35.2408 H   0  0  0  0  0  0  0  0  0  0  0  0
   42.3525   27.4701   34.4782 H   0  0  0  0  0  0  0  0  0  0  0  0
   41.9784   26.3719   33.1068 H   0  0  0  0  0  0  0  0  0  0  0  0
   41.3507   28.0549   33.1068 H   0  0  0  0  0  0  0  0  0  0  0  0
  1  5  1  0
  1  2  2  0
  2  3  1  0
  4  6  1  0
  4  3  1  0
  5  4  2  0
  6  7  1  0
  7  8  2  0
  9  8  1  0
 10  6  1  0
 10  9  2  0
 11 13  1  0
 11 10  1  0
 12 11  2  0
 14 19  1  0
 14  1  1  0
 16 21  1  0
 16 15  2  0
 17 16  1  0
 18 17  2  0
 18 19  1  0
 19 20  2  0
 20 15  1  0
 21 22  1  0
 21 24  1  0
 23 21  1  0
 25 17  1  0
 26 25  1  0
  2 27  1  0
  7 28  1  0
  8 29  1  0
 13 30  1  0
 15 31  1  0
 25 32  1  0
 25 33  1  0
 26 34  1  0
 26 35  1  0
 26 36  1  0
M  ISO  8  27  14  28  14  29  14  30   3  31  14  32   8  33   8  34   8
M  ISO  2  35   8  36   8
M  END
>  <minimizedAffinity>  (1) 
-4.99774122

>  <minimizedRMSD>  (1) 
4.92549086

$$$$
