
     RDKit          3D

 38 40  0  0  0  0  0  0  0  0999 V2000
   43.0710   21.1750   36.4210 C   0  0  0  0  0  0  0  0  0  0  0  0
   42.7860   19.8880   36.8680 C   0  0  0  0  0  0  0  0  0  0  0  0
   43.7480   18.9200   37.0070 C   0  0  0  0  0  0  0  0  0  0  0  0
   45.0450   19.2510   36.6880 C   0  0  0  0  0  0  0  0  0  0  0  0
   45.3450   20.5120   36.2470 C   0  0  0  0  0  0  0  0  0  0  0  0
   44.3620   21.4410   36.1230 N   0  0  0  0  0  0  0  0  0  0  0  0
   46.6840   20.8640   35.9160 N   0  0  0  0  0  0  0  0  0  0  0  0
   47.1800   22.1900   35.7290 C   0  0  0  0  0  0  0  0  0  0  0  0
   48.2430   22.4730   36.7880 C   0  0  0  0  0  0  0  0  0  0  0  0
   49.2230   21.3500   36.9060 C   0  0  0  0  0  0  0  0  0  0  0  0
   48.6270   19.9820   36.9290 C   0  0  0  0  0  0  0  0  0  0  0  0
   47.6850   19.8220   35.7380 C   0  0  0  0  0  0  0  0  0  0  0  0
   42.2980   22.2490   36.2160 O   0  0  0  0  0  0  0  0  0  0  0  0
   40.9570   22.4290   36.2040 C   0  0  0  0  0  0  0  0  0  0  0  0
   40.3000   22.9120   37.3650 C   0  0  0  0  0  0  0  0  0  0  0  0
   38.9260   23.0740   37.2870 C   0  0  0  0  0  0  0  0  0  0  0  0
   38.2780   22.7800   36.1560 N   0  0  0  0  0  0  0  0  0  0  0  0
   38.9500   22.3150   35.0520 C   0  0  0  0  0  0  0  0  0  0  0  0
   40.2570   22.1500   35.0970 N   0  0  0  0  0  0  0  0  0  0  0  0
   38.3070   23.5770   38.5200 C   0  0  0  0  0  0  0  0  0  0  0  0
   37.8360   24.8720   38.3080 F   0  0  0  0  0  0  0  0  0  0  0  0
   39.3080   23.7200   39.4500 F   0  0  0  0  0  0  0  0  0  0  0  0
   37.2700   22.8240   38.9710 F   0  0  0  0  0  0  0  0  0  0  0  0
   41.7453   19.6365   37.1205 H   0  0  0  0  0  0  0  0  0  0  0  0
   43.4908   17.9112   37.3622 H   0  0  0  0  0  0  0  0  0  0  0  0
   45.8430   18.5004   36.7876 H   0  0  0  0  0  0  0  0  0  0  0  0
   47.6238   22.2805   34.7266 H   0  0  0  0  0  0  0  0  0  0  0  0
   46.3567   22.9133   35.8240 H   0  0  0  0  0  0  0  0  0  0  0  0
   48.7842   23.3903   36.5128 H   0  0  0  0  0  0  0  0  0  0  0  0
   47.7369   22.5880   37.7578 H   0  0  0  0  0  0  0  0  0  0  0  0
   49.9097   21.4069   36.0486 H   0  0  0  0  0  0  0  0  0  0  0  0
   49.7198   21.4813   37.8786 H   0  0  0  0  0  0  0  0  0  0  0  0
   49.4283   19.2310   36.8672 H   0  0  0  0  0  0  0  0  0  0  0  0
   48.0658   19.8402   37.8644 H   0  0  0  0  0  0  0  0  0  0  0  0
   47.2152   18.8274   35.7459 H   0  0  0  0  0  0  0  0  0  0  0  0
   48.2114   19.9105   34.7762 H   0  0  0  0  0  0  0  0  0  0  0  0
   40.8557   23.1471   38.2847 H   0  0  0  0  0  0  0  0  0  0  0  0
   38.3974   22.0803   34.1303 H   0  0  0  0  0  0  0  0  0  0  0  0
  1  2  2  0
  2  3  1  0
  4  3  2  0
  5  4  1  0
  6  5  2  0
  6  1  1  0
  7  5  1  0
  8  7  1  0
  8  9  1  0
  9 10  1  0
 10 11  1  0
 12  7  1  0
 12 11  1  0
 13  1  1  0
 14 13  1  0
 14 15  2  0
 16 15  1  0
 16 20  1  0
 17 16  2  0
 18 19  2  0
 18 17  1  0
 19 14  1  0
 20 23  1  0
 20 22  1  0
 21 20  1  0
  2 24  1  0
  3 25  1  0
  4 26  1  0
  8 27  1  0
  8 28  1  0
  9 29  1  0
  9 30  1  0
 10 31  1  0
 10 32  1  0
 11 33  1  0
 11 34  1  0
 12 35  1  0
 12 36  1  0
 15 37  1  0
 18 38  1  0
M  ISO  8  24  14  25  14  26  14  27  13  28  13  29  13  30  13  31  13
M  ISO  7  32  13  33  13  34  13  35  13  36  13  37  14  38  14
M  END
>  <minimizedAffinity>  (1) 
-4.84324312

>  <minimizedRMSD>  (1) 
0.417794347

$$$$
