
     RDKit          3D

 35 37  0  0  0  0  0  0  0  0999 V2000
   43.1300   21.2420   36.4530 C   0  0  0  0  0  0  0  0  0  0  0  0
   42.9050   19.9850   37.0030 C   0  0  0  0  0  0  0  0  0  0  0  0
   43.8510   19.0030   37.0960 C   0  0  0  0  0  0  0  0  0  0  0  0
   45.1110   19.2920   36.6050 C   0  0  0  0  0  0  0  0  0  0  0  0
   45.3660   20.5400   36.0480 C   0  0  0  0  0  0  0  0  0  0  0  0
   44.3880   21.4770   35.9830 N   0  0  0  0  0  0  0  0  0  0  0  0
   46.6870   20.7880   35.5540 N   0  0  0  0  0  0  0  0  0  0  0  0
   47.7490   21.3400   36.3560 C   0  0  0  0  0  0  0  0  0  0  0  0
   48.7480   21.9480   35.3940 C   0  0  0  0  0  0  0  0  0  0  0  0
   48.3950   21.4130   34.0440 C   0  0  0  0  0  0  0  0  0  0  0  0
   47.1790   20.5390   34.2160 C   0  0  0  0  0  0  0  0  0  0  0  0
   42.3500   22.3130   36.2760 O   0  0  0  0  0  0  0  0  0  0  0  0
   41.0020   22.4690   36.2600 C   0  0  0  0  0  0  0  0  0  0  0  0
   40.3320   22.9540   37.4050 C   0  0  0  0  0  0  0  0  0  0  0  0
   38.9470   23.0880   37.3110 C   0  0  0  0  0  0  0  0  0  0  0  0
   38.3200   22.7640   36.1790 N   0  0  0  0  0  0  0  0  0  0  0  0
   39.0070   22.2970   35.0910 C   0  0  0  0  0  0  0  0  0  0  0  0
   40.3200   22.1540   35.1310 N   0  0  0  0  0  0  0  0  0  0  0  0
   38.3090   23.5920   38.5250 C   0  0  0  0  0  0  0  0  0  0  0  0
   37.8120   24.8700   38.2980 F   0  0  0  0  0  0  0  0  0  0  0  0
   39.2850   23.7370   39.4840 F   0  0  0  0  0  0  0  0  0  0  0  0
   37.2700   22.8150   38.9670 F   0  0  0  0  0  0  0  0  0  0  0  0
   41.8984   19.7663   37.3890 H   0  0  0  0  0  0  0  0  0  0  0  0
   43.6200   18.0245   37.5424 H   0  0  0  0  0  0  0  0  0  0  0  0
   45.9091   18.5367   36.6550 H   0  0  0  0  0  0  0  0  0  0  0  0
   47.3525   22.1135   37.0302 H   0  0  0  0  0  0  0  0  0  0  0  0
   48.2196   20.5646   36.9783 H   0  0  0  0  0  0  0  0  0  0  0  0
   48.6691   23.0451   35.4033 H   0  0  0  0  0  0  0  0  0  0  0  0
   49.7817   21.6939   35.6713 H   0  0  0  0  0  0  0  0  0  0  0  0
   49.2309   20.8213   33.6425 H   0  0  0  0  0  0  0  0  0  0  0  0
   48.1906   22.2330   33.3398 H   0  0  0  0  0  0  0  0  0  0  0  0
   46.4121   20.8026   33.4728 H   0  0  0  0  0  0  0  0  0  0  0  0
   47.4259   19.4768   34.0716 H   0  0  0  0  0  0  0  0  0  0  0  0
   40.8758   23.2132   38.3254 H   0  0  0  0  0  0  0  0  0  0  0  0
   38.4597   22.0378   34.1727 H   0  0  0  0  0  0  0  0  0  0  0  0
  1  2  2  0
  2  3  1  0
  4  3  2  0
  5  4  1  0
  6  5  2  0
  6  1  1  0
  7  5  1  0
  7  8  1  0
  9  8  1  0
 10 11  1  0
 10  9  1  0
 11  7  1  0
 12  1  1  0
 13 12  1  0
 13 14  2  0
 15 14  1  0
 15 19  1  0
 16 15  2  0
 17 18  2  0
 17 16  1  0
 18 13  1  0
 19 22  1  0
 19 21  1  0
 20 19  1  0
  2 23  1  0
  3 24  1  0
  4 25  1  0
  8 26  1  0
  8 27  1  0
  9 28  1  0
  9 29  1  0
 10 30  1  0
 10 31  1  0
 11 32  1  0
 11 33  1  0
 14 34  1  0
 17 35  1  0
M  ISO  8  23  14  24  14  25  14  26  13  27  13  28  13  29  13  30  13
M  ISO  5  31  13  32  13  33  13  34  14  35  14
M  END
>  <minimizedAffinity>  (1) 
-4.63693047

>  <minimizedRMSD>  (1) 
0.111021452

$$$$
