
     RDKit          3D

 33 35  0  0  0  0  0  0  0  0999 V2000
   43.0820   21.1820   36.4510 C   0  0  0  0  0  0  0  0  0  0  0  0
   42.8190   19.9190   36.9390 C   0  0  0  0  0  0  0  0  0  0  0  0
   43.7640   18.9300   37.0460 C   0  0  0  0  0  0  0  0  0  0  0  0
   45.0470   19.2430   36.6350 C   0  0  0  0  0  0  0  0  0  0  0  0
   45.3350   20.4910   36.1460 C   0  0  0  0  0  0  0  0  0  0  0  0
   44.3600   21.4460   36.0580 N   0  0  0  0  0  0  0  0  0  0  0  0
   46.7040   20.8130   35.7120 C   0  0  0  0  0  0  0  0  0  0  0  0
   47.3710   20.1510   34.7450 C   0  0  0  0  0  0  0  0  0  0  0  0
   48.6680   20.4920   34.3650 C   0  0  0  0  0  0  0  0  0  0  0  0
   49.2910   21.5500   35.0080 C   0  0  0  0  0  0  0  0  0  0  0  0
   48.6540   22.2550   35.9990 C   0  0  0  0  0  0  0  0  0  0  0  0
   47.3760   21.8630   36.3210 C   0  0  0  0  0  0  0  0  0  0  0  0
   42.3170   22.2740   36.2660 O   0  0  0  0  0  0  0  0  0  0  0  0
   40.9710   22.4490   36.2390 C   0  0  0  0  0  0  0  0  0  0  0  0
   40.3120   22.9410   37.3940 C   0  0  0  0  0  0  0  0  0  0  0  0
   38.9360   23.1010   37.3130 C   0  0  0  0  0  0  0  0  0  0  0  0
   38.2970   22.7920   36.1720 N   0  0  0  0  0  0  0  0  0  0  0  0
   38.9730   22.3210   35.0830 C   0  0  0  0  0  0  0  0  0  0  0  0
   40.2800   22.1530   35.1150 N   0  0  0  0  0  0  0  0  0  0  0  0
   38.3040   23.6070   38.5180 C   0  0  0  0  0  0  0  0  0  0  0  0
   37.8020   24.8750   38.3050 F   0  0  0  0  0  0  0  0  0  0  0  0
   39.2850   23.7360   39.4790 F   0  0  0  0  0  0  0  0  0  0  0  0
   37.2650   22.8210   38.9710 F   0  0  0  0  0  0  0  0  0  0  0  0
   41.7921   19.6914   37.2611 H   0  0  0  0  0  0  0  0  0  0  0  0
   43.5129   17.9343   37.4404 H   0  0  0  0  0  0  0  0  0  0  0  0
   45.8418   18.4854   36.7009 H   0  0  0  0  0  0  0  0  0  0  0  0
   46.8735   19.3113   34.2376 H   0  0  0  0  0  0  0  0  0  0  0  0
   49.1861   19.9333   33.5716 H   0  0  0  0  0  0  0  0  0  0  0  0
   50.3147   21.8300   34.7190 H   0  0  0  0  0  0  0  0  0  0  0  0
   49.1439   23.0956   36.5123 H   0  0  0  0  0  0  0  0  0  0  0  0
   46.8522   22.4181   37.1131 H   0  0  0  0  0  0  0  0  0  0  0  0
   40.8662   23.1847   38.3124 H   0  0  0  0  0  0  0  0  0  0  0  0
   38.4182   22.0780   34.1648 H   0  0  0  0  0  0  0  0  0  0  0  0
  1  2  2  0
  2  3  1  0
  4  3  2  0
  5  4  1  0
  6  5  2  0
  6  1  1  0
  7  5  1  0
  7 12  1  0
  8  7  2  0
  9  8  1  0
  9 10  2  0
 10 11  1  0
 11 12  2  0
 13  1  1  0
 14 13  1  0
 14 15  2  0
 16 15  1  0
 16 20  1  0
 17 16  2  0
 18 19  2  0
 18 17  1  0
 19 14  1  0
 20 23  1  0
 20 22  1  0
 21 20  1  0
  2 24  1  0
  3 25  1  0
  4 26  1  0
  8 27  1  0
  9 28  1  0
 10 29  1  0
 11 30  1  0
 12 31  1  0
 15 32  1  0
 18 33  1  0
M  ISO  8  24  14  25  14  26  14  27  14  28  14  29  14  30  14  31  14
M  ISO  2  32  14  33  14
M  END
>  <minimizedAffinity>  (1) 
-4.52110624

>  <minimizedRMSD>  (1) 
0.28667295

$$$$
