
     RDKit          3D

 24 25  0  0  0  0  0  0  0  0999 V2000
   41.0260   22.4590   36.2920 C   0  0  0  0  0  0  0  0  0  0  0  0
   40.3520   22.9510   37.4340 C   0  0  0  0  0  0  0  0  0  0  0  0
   38.9680   23.0910   37.3240 C   0  0  0  0  0  0  0  0  0  0  0  0
   38.3530   22.7670   36.1810 N   0  0  0  0  0  0  0  0  0  0  0  0
   39.0480   22.2970   35.1060 C   0  0  0  0  0  0  0  0  0  0  0  0
   40.3580   22.1450   35.1580 N   0  0  0  0  0  0  0  0  0  0  0  0
   38.3140   23.6000   38.5210 C   0  0  0  0  0  0  0  0  0  0  0  0
   37.8210   24.8700   38.2930 F   0  0  0  0  0  0  0  0  0  0  0  0
   39.2820   23.7420   39.4950 F   0  0  0  0  0  0  0  0  0  0  0  0
   37.2740   22.8110   38.9630 F   0  0  0  0  0  0  0  0  0  0  0  0
   42.3800   22.2960   36.3270 O   0  0  0  0  0  0  0  0  0  0  0  0
   43.1510   21.2170   36.4840 C   0  0  0  0  0  0  0  0  0  0  0  0
   42.9340   19.9720   37.0680 C   0  0  0  0  0  0  0  0  0  0  0  0
   43.8740   18.9740   37.1310 C   0  0  0  0  0  0  0  0  0  0  0  0
   45.1000   19.2230   36.5850 C   0  0  0  0  0  0  0  0  0  0  0  0
   45.3420   20.4450   36.0030 C   0  0  0  0  0  0  0  0  0  0  0  0
   44.3850   21.4300   35.9510 N   0  0  0  0  0  0  0  0  0  0  0  0
   46.6220   20.5970   35.4760 O   0  0  0  0  0  0  0  0  0  0  0  0
   40.8895   23.2092   38.3584 H   0  0  0  0  0  0  0  0  0  0  0  0
   38.5089   22.0408   34.1820 H   0  0  0  0  0  0  0  0  0  0  0  0
   41.9449   19.7754   37.5075 H   0  0  0  0  0  0  0  0  0  0  0  0
   43.6474   18.0075   37.6048 H   0  0  0  0  0  0  0  0  0  0  0  0
   45.8862   18.4541   36.6103 H   0  0  0  0  0  0  0  0  0  0  0  0
   46.8795   21.4470   35.0387 H   0  0  0  0  0  0  0  0  0  0  0  0
  1 11  1  0
  1  2  2  0
  3  2  1  0
  3  7  1  0
  4  3  2  0
  5  6  2  0
  5  4  1  0
  6  1  1  0
  7 10  1  0
  7  9  1  0
  8  7  1  0
 11 12  1  0
 12 13  2  0
 13 14  1  0
 15 14  2  0
 16 15  1  0
 17 16  2  0
 17 12  1  0
 18 16  1  0
  2 19  1  0
  5 20  1  0
 13 21  1  0
 14 22  1  0
 15 23  1  0
 18 24  1  0
M  ISO  6  19  14  20  14  21  14  22  14  23  14  24   3
M  END
>  <minimizedAffinity>  (1) 
-4.46629429

>  <minimizedRMSD>  (1) 
0.0124285538

$$$$
