
     RDKit          3D

 29 30  0  0  0  0  0  0  0  0999 V2000
   42.3500   22.3000   36.3010 O   0  0  0  0  0  0  0  0  0  0  0  0
   43.1300   21.2380   36.4640 C   0  0  0  0  0  0  0  0  0  0  0  0
   42.9020   19.9810   37.0160 C   0  0  0  0  0  0  0  0  0  0  0  0
   43.8420   18.9880   37.1030 C   0  0  0  0  0  0  0  0  0  0  0  0
   45.0870   19.2510   36.6160 C   0  0  0  0  0  0  0  0  0  0  0  0
   45.3460   20.4970   36.0590 C   0  0  0  0  0  0  0  0  0  0  0  0
   44.3740   21.4700   35.9890 N   0  0  0  0  0  0  0  0  0  0  0  0
   46.7350   20.6820   35.5560 C   0  0  0  0  0  0  0  0  0  0  0  0
   47.2440   21.9400   36.2640 C   0  0  0  0  0  0  0  0  0  0  0  0
   40.9930   22.4630   36.2690 C   0  0  0  0  0  0  0  0  0  0  0  0
   40.3220   22.9520   37.4120 C   0  0  0  0  0  0  0  0  0  0  0  0
   38.9450   23.0980   37.3220 C   0  0  0  0  0  0  0  0  0  0  0  0
   38.3220   22.7730   36.1790 N   0  0  0  0  0  0  0  0  0  0  0  0
   39.0090   22.3030   35.0980 C   0  0  0  0  0  0  0  0  0  0  0  0
   40.3190   22.1510   35.1440 N   0  0  0  0  0  0  0  0  0  0  0  0
   38.3040   23.6050   38.5270 C   0  0  0  0  0  0  0  0  0  0  0  0
   37.8050   24.8770   38.3040 F   0  0  0  0  0  0  0  0  0  0  0  0
   39.2780   23.7400   39.4870 F   0  0  0  0  0  0  0  0  0  0  0  0
   37.2630   22.8160   38.9660 F   0  0  0  0  0  0  0  0  0  0  0  0
   41.8969   19.7699   37.4100 H   0  0  0  0  0  0  0  0  0  0  0  0
   43.6000   18.0126   37.5503 H   0  0  0  0  0  0  0  0  0  0  0  0
   45.8767   18.4867   36.6633 H   0  0  0  0  0  0  0  0  0  0  0  0
   47.3590   19.8134   35.8133 H   0  0  0  0  0  0  0  0  0  0  0  0
   46.7701   20.7794   34.4609 H   0  0  0  0  0  0  0  0  0  0  0  0
   47.1860   21.7967   37.3531 H   0  0  0  0  0  0  0  0  0  0  0  0
   48.2885   22.1268   35.9739 H   0  0  0  0  0  0  0  0  0  0  0  0
   46.6233   22.8006   35.9739 H   0  0  0  0  0  0  0  0  0  0  0  0
   40.8672   23.2059   38.3330 H   0  0  0  0  0  0  0  0  0  0  0  0
   38.4643   22.0477   34.1770 H   0  0  0  0  0  0  0  0  0  0  0  0
  1  2  1  0
  2  3  2  0
  3  4  1  0
  5  4  2  0
  6  5  1  0
  7  6  2  0
  7  2  1  0
  8  6  1  0
  8  9  1  0
 10  1  1  0
 10 11  2  0
 12 11  1  0
 12 16  1  0
 13 12  2  0
 14 15  2  0
 14 13  1  0
 15 10  1  0
 16 19  1  0
 16 18  1  0
 17 16  1  0
  3 20  1  0
  4 21  1  0
  5 22  1  0
  8 23  1  0
  8 24  1  0
  9 25  1  0
  9 26  1  0
  9 27  1  0
 11 28  1  0
 14 29  1  0
M  ISO  8  20  14  21  14  22  14  23   8  24   8  25   8  26   8  27   8
M  ISO  2  28  14  29  14
M  END
>  <minimizedAffinity>  (1) 
-4.44348526

>  <minimizedRMSD>  (1) 
0.0719875768

$$$$
