
     RDKit          3D

 30 32  0  0  0  0  0  0  0  0999 V2000
   43.0940   21.1940   36.4610 C   0  0  0  0  0  0  0  0  0  0  0  0
   42.8270   19.9320   36.9830 C   0  0  0  0  0  0  0  0  0  0  0  0
   43.7860   18.9670   37.0740 C   0  0  0  0  0  0  0  0  0  0  0  0
   45.0520   19.2310   36.6440 C   0  0  0  0  0  0  0  0  0  0  0  0
   45.3210   20.4700   36.1300 C   0  0  0  0  0  0  0  0  0  0  0  0
   44.3590   21.4340   36.0400 N   0  0  0  0  0  0  0  0  0  0  0  0
   46.6940   20.8030   35.6480 C   0  0  0  0  0  0  0  0  0  0  0  0
   47.6470   21.4410   36.3110 C   0  0  0  0  0  0  0  0  0  0  0  0
   48.8430   21.6460   35.6800 C   0  0  0  0  0  0  0  0  0  0  0  0
   48.9720   21.1540   34.3500 C   0  0  0  0  0  0  0  0  0  0  0  0
   47.2990   20.3860   34.0470 S   0  0  0  0  0  0  0  0  0  0  0  0
   42.3190   22.2840   36.2770 O   0  0  0  0  0  0  0  0  0  0  0  0
   40.9700   22.4550   36.2440 C   0  0  0  0  0  0  0  0  0  0  0  0
   40.3080   22.9390   37.3960 C   0  0  0  0  0  0  0  0  0  0  0  0
   38.9360   23.0960   37.3130 C   0  0  0  0  0  0  0  0  0  0  0  0
   38.2960   22.7910   36.1700 N   0  0  0  0  0  0  0  0  0  0  0  0
   38.9760   22.3260   35.0800 C   0  0  0  0  0  0  0  0  0  0  0  0
   40.2870   22.1600   35.1140 N   0  0  0  0  0  0  0  0  0  0  0  0
   38.2990   23.5970   38.5240 C   0  0  0  0  0  0  0  0  0  0  0  0
   37.8070   24.8750   38.3080 F   0  0  0  0  0  0  0  0  0  0  0  0
   39.2850   23.7380   39.4760 F   0  0  0  0  0  0  0  0  0  0  0  0
   37.2630   22.8220   38.9690 F   0  0  0  0  0  0  0  0  0  0  0  0
   41.8093   19.7056   37.3336 H   0  0  0  0  0  0  0  0  0  0  0  0
   43.5390   17.9801   37.4925 H   0  0  0  0  0  0  0  0  0  0  0  0
   45.8394   18.4656   36.7087 H   0  0  0  0  0  0  0  0  0  0  0  0
   47.4813   21.7956   37.3390 H   0  0  0  0  0  0  0  0  0  0  0  0
   49.6714   22.1696   36.1795 H   0  0  0  0  0  0  0  0  0  0  0  0
   49.8375   21.2120   33.6736 H   0  0  0  0  0  0  0  0  0  0  0  0
   40.8593   23.1799   38.3169 H   0  0  0  0  0  0  0  0  0  0  0  0
   38.4237   22.0859   34.1595 H   0  0  0  0  0  0  0  0  0  0  0  0
  1  2  2  0
  2  3  1  0
  4  3  2  0
  5  4  1  0
  6  5  2  0
  6  1  1  0
  7  5  1  0
  7  8  2  0
  9  8  1  0
 10  9  2  0
 11 10  1  0
 11  7  1  0
 12  1  1  0
 13 12  1  0
 13 14  2  0
 15 14  1  0
 15 19  1  0
 16 15  2  0
 17 18  2  0
 17 16  1  0
 18 13  1  0
 19 22  1  0
 19 21  1  0
 20 19  1  0
  2 23  1  0
  3 24  1  0
  4 25  1  0
  8 26  1  0
  9 27  1  0
 10 28  1  0
 14 29  1  0
 17 30  1  0
M  ISO  8  23  14  24  14  25  14  26  14  27  14  28  14  29  14  30  14
M  END
>  <minimizedAffinity>  (1) 
-4.44268036

>  <minimizedRMSD>  (1) 
0.610204816

$$$$
