
     RDKit          3D

 29 31  0  0  0  0  0  0  0  0999 V2000
   43.1140   21.2230   36.4510 C   0  0  0  0  0  0  0  0  0  0  0  0
   42.8650   19.9620   36.9840 C   0  0  0  0  0  0  0  0  0  0  0  0
   43.8160   18.9750   37.0820 C   0  0  0  0  0  0  0  0  0  0  0  0
   45.0780   19.2660   36.6260 C   0  0  0  0  0  0  0  0  0  0  0  0
   45.3420   20.5020   36.0970 C   0  0  0  0  0  0  0  0  0  0  0  0
   44.3750   21.4740   36.0080 N   0  0  0  0  0  0  0  0  0  0  0  0
   46.6840   20.6840   35.6580 N   0  0  0  0  0  0  0  0  0  0  0  0
   47.3070   20.2330   34.5500 C   0  0  0  0  0  0  0  0  0  0  0  0
   48.5820   20.6530   34.5490 N   0  0  0  0  0  0  0  0  0  0  0  0
   48.7460   21.3680   35.6670 C   0  0  0  0  0  0  0  0  0  0  0  0
   47.5830   21.3930   36.3570 N   0  0  0  0  0  0  0  0  0  0  0  0
   42.3350   22.3000   36.2710 O   0  0  0  0  0  0  0  0  0  0  0  0
   40.9820   22.4620   36.2440 C   0  0  0  0  0  0  0  0  0  0  0  0
   40.3280   22.9520   37.3970 C   0  0  0  0  0  0  0  0  0  0  0  0
   38.9380   23.0990   37.3140 C   0  0  0  0  0  0  0  0  0  0  0  0
   38.3050   22.7770   36.1750 N   0  0  0  0  0  0  0  0  0  0  0  0
   38.9870   22.3080   35.0890 C   0  0  0  0  0  0  0  0  0  0  0  0
   40.2970   22.1530   35.1240 N   0  0  0  0  0  0  0  0  0  0  0  0
   38.3000   23.6050   38.5150 C   0  0  0  0  0  0  0  0  0  0  0  0
   37.8070   24.8770   38.3080 F   0  0  0  0  0  0  0  0  0  0  0  0
   39.2810   23.7360   39.4790 F   0  0  0  0  0  0  0  0  0  0  0  0
   37.2650   22.8140   38.9690 F   0  0  0  0  0  0  0  0  0  0  0  0
   41.8501   19.7430   37.3472 H   0  0  0  0  0  0  0  0  0  0  0  0
   43.5756   17.9902   37.5091 H   0  0  0  0  0  0  0  0  0  0  0  0
   45.8743   18.5094   36.6852 H   0  0  0  0  0  0  0  0  0  0  0  0
   46.8417   19.6158   33.7673 H   0  0  0  0  0  0  0  0  0  0  0  0
   49.6803   21.8589   35.9769 H   0  0  0  0  0  0  0  0  0  0  0  0
   40.8825   23.2049   38.3127 H   0  0  0  0  0  0  0  0  0  0  0  0
   38.4360   22.0555   34.1710 H   0  0  0  0  0  0  0  0  0  0  0  0
  1  2  2  0
  2  3  1  0
  4  3  2  0
  5  4  1  0
  6  5  2  0
  6  1  1  0
  7  5  1  0
  7 11  1  0
  8  7  1  0
  9  8  2  0
  9 10  1  0
 10 11  2  0
 12  1  1  0
 13 12  1  0
 13 14  2  0
 15 14  1  0
 15 19  1  0
 16 15  2  0
 17 18  2  0
 17 16  1  0
 18 13  1  0
 19 22  1  0
 19 21  1  0
 20 19  1  0
  2 23  1  0
  3 24  1  0
  4 25  1  0
  8 26  1  0
 10 27  1  0
 14 28  1  0
 17 29  1  0
M  ISO  7  23  14  24  14  25  14  26  14  27  14  28  14  29  14
M  END
>  <minimizedAffinity>  (1) 
-4.63172007

>  <minimizedRMSD>  (1) 
0.178963169

$$$$
