
     RDKit          3D

 44 47  0  0  0  0  0  0  0  0999 V2000
   39.9800   22.7190   35.0610 C   0  0  0  0  0  0  0  0  0  0  0  0
   39.7420   23.1400   36.3920 C   0  0  0  0  0  0  0  0  0  0  0  0
   38.4290   23.0190   36.8490 C   0  0  0  0  0  0  0  0  0  0  0  0
   37.4850   22.5260   36.0360 N   0  0  0  0  0  0  0  0  0  0  0  0
   37.7690   22.1330   34.7580 C   0  0  0  0  0  0  0  0  0  0  0  0
   38.9980   22.2310   34.2860 N   0  0  0  0  0  0  0  0  0  0  0  0
   36.7340   21.6130   33.9280 N   0  0  0  0  0  0  0  0  0  0  0  0
   35.7910   20.6430   34.4250 C   0  0  0  0  0  0  0  0  0  0  0  0
   35.5250   19.6040   33.3620 C   0  0  0  0  0  0  0  0  0  0  0  0
   34.8820   20.2710   32.1860 C   0  0  0  0  0  0  0  0  0  0  0  0
   35.1760   21.7510   32.1220 C   0  0  0  0  0  0  0  0  0  0  0  0
   36.6000   22.0550   32.5450 C   0  0  0  0  0  0  0  0  0  0  0  0
   38.1990   23.4510   38.2070 C   0  0  0  0  0  0  0  0  0  0  0  0
   37.8610   24.7970   38.2450 F   0  0  0  0  0  0  0  0  0  0  0  0
   39.4140   23.3570   38.8740 F   0  0  0  0  0  0  0  0  0  0  0  0
   37.2300   22.7390   38.8790 F   0  0  0  0  0  0  0  0  0  0  0  0
   41.2380   22.8090   34.5500 O   0  0  0  0  0  0  0  0  0  0  0  0
   42.4390   22.4260   35.0050 C   0  0  0  0  0  0  0  0  0  0  0  0
   43.0670   21.1820   35.0410 C   0  0  0  0  0  0  0  0  0  0  0  0
   44.3250   20.9810   35.5570 C   0  0  0  0  0  0  0  0  0  0  0  0
   44.9870   22.0660   36.0580 C   0  0  0  0  0  0  0  0  0  0  0  0
   44.3900   23.2950   36.0320 C   0  0  0  0  0  0  0  0  0  0  0  0
   43.1330   23.4740   35.5130 N   0  0  0  0  0  0  0  0  0  0  0  0
   45.1660   24.3500   36.5780 N   0  0  0  0  0  0  0  0  0  0  0  0
   46.2140   25.0250   36.0520 C   0  0  0  0  0  0  0  0  0  0  0  0
   46.6400   25.9480   36.9310 N   0  0  0  0  0  0  0  0  0  0  0  0
   45.8430   25.8370   38.0060 C   0  0  0  0  0  0  0  0  0  0  0  0
   44.9360   24.8580   37.7980 N   0  0  0  0  0  0  0  0  0  0  0  0
   40.5454   23.5392   37.0286 H   0  0  0  0  0  0  0  0  0  0  0  0
   36.2055   20.1542   35.3190 H   0  0  0  0  0  0  0  0  0  0  0  0
   34.8495   21.1489   34.6850 H   0  0  0  0  0  0  0  0  0  0  0  0
   36.4735   19.1413   33.0517 H   0  0  0  0  0  0  0  0  0  0  0  0
   34.8590   18.8242   33.7598 H   0  0  0  0  0  0  0  0  0  0  0  0
   35.2554   19.7980   31.2657 H   0  0  0  0  0  0  0  0  0  0  0  0
   33.7935   20.1530   32.2916 H   0  0  0  0  0  0  0  0  0  0  0  0
   35.0278   22.1002   31.0895 H   0  0  0  0  0  0  0  0  0  0  0  0
   34.4936   22.2679   32.8128 H   0  0  0  0  0  0  0  0  0  0  0  0
   37.3094   21.5115   31.9037 H   0  0  0  0  0  0  0  0  0  0  0  0
   36.8178   23.1292   32.4519 H   0  0  0  0  0  0  0  0  0  0  0  0
   42.5266   20.3144   34.6345 H   0  0  0  0  0  0  0  0  0  0  0  0
   44.7830   19.9809   35.5663 H   0  0  0  0  0  0  0  0  0  0  0  0
   45.9961   21.9508   36.4804 H   0  0  0  0  0  0  0  0  0  0  0  0
   46.6501   24.8459   35.0581 H   0  0  0  0  0  0  0  0  0  0  0  0
   45.9174   26.4496   38.9166 H   0  0  0  0  0  0  0  0  0  0  0  0
  1  2  2  0
  2  3  1  0
  3 13  1  0
  4  3  2  0
  5  4  1  0
  6  5  2  0
  6  1  1  0
  7  8  1  0
  7  5  1  0
  9  8  1  0
 10  9  1  0
 11 10  1  0
 11 12  1  0
 12  7  1  0
 13 14  1  0
 13 15  1  0
 13 16  1  0
 17 18  1  0
 17  1  1  0
 18 19  2  0
 18 23  1  0
 19 20  1  0
 20 21  2  0
 22 21  1  0
 22 24  1  0
 23 22  2  0
 24 28  1  0
 25 24  1  0
 25 26  2  0
 26 27  1  0
 28 27  2  0
  2 29  1  0
  8 30  1  0
  8 31  1  0
  9 32  1  0
  9 33  1  0
 10 34  1  0
 10 35  1  0
 11 36  1  0
 11 37  1  0
 12 38  1  0
 12 39  1  0
 19 40  1  0
 20 41  1  0
 21 42  1  0
 25 43  1  0
 27 44  1  0
M  ISO  8  29  14  30  13  31  13  32  13  33  13  34  13  35  13  36  13
M  ISO  8  37  13  38  13  39  13  40  14  41  14  42  14  43  14  44  14
M  END
>  <minimizedAffinity>  (1) 
-6.87771463

>  <minimizedRMSD>  (1) 
2.75760412

$$$$
