
     RDKit          3D

 43 47  0  0  0  0  0  0  0  0999 V2000
   40.7340   23.2580   36.0460 C   0  0  0  0  0  0  0  0  0  0  0  0
   40.1360   23.2950   37.3300 C   0  0  0  0  0  0  0  0  0  0  0  0
   38.7840   23.6730   37.3680 C   0  0  0  0  0  0  0  0  0  0  0  0
   38.1440   23.9720   36.2270 N   0  0  0  0  0  0  0  0  0  0  0  0
   38.7680   23.9200   35.0160 C   0  0  0  0  0  0  0  0  0  0  0  0
   40.0370   23.5710   34.9280 N   0  0  0  0  0  0  0  0  0  0  0  0
   38.0690   24.2410   33.8250 N   0  0  0  0  0  0  0  0  0  0  0  0
   37.8820   23.4600   32.7510 C   0  0  0  0  0  0  0  0  0  0  0  0
   37.1640   24.1830   31.8730 N   0  0  0  0  0  0  0  0  0  0  0  0
   36.9140   25.3880   32.3950 C   0  0  0  0  0  0  0  0  0  0  0  0
   36.2160   26.4600   31.8610 C   0  0  0  0  0  0  0  0  0  0  0  0
   35.6890   26.4120   30.7110 O   0  0  0  0  0  0  0  0  0  0  0  0
   36.0810   27.6050   32.5730 N   0  0  0  0  0  0  0  0  0  0  0  0
   36.6580   27.6190   33.8010 C   0  0  0  0  0  0  0  0  0  0  0  0
   36.5000   28.8430   34.5350 N   0  0  0  0  0  0  0  0  0  0  0  0
   37.3390   26.5900   34.3370 N   0  0  0  0  0  0  0  0  0  0  0  0
   37.4850   25.4510   33.6520 C   0  0  0  0  0  0  0  0  0  0  0  0
   38.1910   23.7050   38.6840 C   0  0  0  0  0  0  0  0  0  0  0  0
   37.4960   24.8670   38.8940 F   0  0  0  0  0  0  0  0  0  0  0  0
   39.2280   23.6960   39.5960 F   0  0  0  0  0  0  0  0  0  0  0  0
   37.3470   22.6310   38.9370 F   0  0  0  0  0  0  0  0  0  0  0  0
   42.0330   22.9030   35.9290 O   0  0  0  0  0  0  0  0  0  0  0  0
   42.7150   21.7900   36.2200 C   0  0  0  0  0  0  0  0  0  0  0  0
   42.3280   20.6090   36.8560 C   0  0  0  0  0  0  0  0  0  0  0  0
   43.1780   19.5490   37.0750 C   0  0  0  0  0  0  0  0  0  0  0  0
   44.4750   19.6810   36.6360 C   0  0  0  0  0  0  0  0  0  0  0  0
   44.8650   20.8260   36.0160 C   0  0  0  0  0  0  0  0  0  0  0  0
   43.9970   21.8780   35.8050 N   0  0  0  0  0  0  0  0  0  0  0  0
   46.2230   20.8520   35.6050 N   0  0  0  0  0  0  0  0  0  0  0  0
   46.8280   20.2470   34.5520 C   0  0  0  0  0  0  0  0  0  0  0  0
   48.1340   20.5500   34.5490 N   0  0  0  0  0  0  0  0  0  0  0  0
   48.3400   21.3470   35.6030 C   0  0  0  0  0  0  0  0  0  0  0  0
   47.1740   21.5310   36.2470 N   0  0  0  0  0  0  0  0  0  0  0  0
   40.6969   23.0429   38.2420 H   0  0  0  0  0  0  0  0  0  0  0  0
   38.2446   22.4304   32.6148 H   0  0  0  0  0  0  0  0  0  0  0  0
   35.5693   28.4187   32.2029 H   0  0  0  0  0  0  0  0  0  0  0  0
   36.9083   28.9355   35.4761 H   0  0  0  0  0  0  0  0  0  0  0  0
   35.9783   29.6284   34.1204 H   0  0  0  0  0  0  0  0  0  0  0  0
   41.2872   20.5209   37.2008 H   0  0  0  0  0  0  0  0  0  0  0  0
   42.8345   18.6342   37.5801 H   0  0  0  0  0  0  0  0  0  0  0  0
   45.1943   18.8624   36.7863 H   0  0  0  0  0  0  0  0  0  0  0  0
   46.3241   19.6060   33.8137 H   0  0  0  0  0  0  0  0  0  0  0  0
   49.3071   21.7818   35.8958 H   0  0  0  0  0  0  0  0  0  0  0  0
  1  2  2  0
  2  3  1  0
  3 18  1  0
  4  3  2  0
  5  4  1  0
  6  5  2  0
  6  1  1  0
  7  5  1  0
  8  7  1  0
  9 10  1  0
  9  8  2  0
 10 17  2  0
 11 10  1  0
 11 13  1  0
 12 11  2  0
 13 14  1  0
 14 16  2  0
 14 15  1  0
 17  7  1  0
 17 16  1  0
 18 19  1  0
 18 21  1  0
 18 20  1  0
 22  1  1  0
 22 23  1  0
 23 24  2  0
 24 25  1  0
 26 25  2  0
 27 26  1  0
 28 27  2  0
 28 23  1  0
 29 27  1  0
 29 33  1  0
 30 29  1  0
 31 30  2  0
 31 32  1  0
 32 33  2  0
  2 34  1  0
  8 35  1  0
 13 36  1  0
 15 37  1  0
 15 38  1  0
 24 39  1  0
 25 40  1  0
 26 41  1  0
 30 42  1  0
 32 43  1  0
M  ISO  8  34  14  35  14  36   9  39  14  40  14  41  14  42  14  43  14
M  END
>  <minimizedAffinity>  (1) 
-6.6058197

>  <minimizedRMSD>  (1) 
1.96580565

$$$$
