
     RDKit          3D

 43 47  0  0  0  0  0  0  0  0999 V2000
   40.8830   22.7930   36.0970 C   0  0  0  0  0  0  0  0  0  0  0  0
   40.2650   23.0860   37.3390 C   0  0  0  0  0  0  0  0  0  0  0  0
   38.8990   23.3630   37.2950 C   0  0  0  0  0  0  0  0  0  0  0  0
   38.2570   23.3420   36.1280 N   0  0  0  0  0  0  0  0  0  0  0  0
   38.9040   23.0520   34.9530 C   0  0  0  0  0  0  0  0  0  0  0  0
   40.1970   22.7830   34.9440 N   0  0  0  0  0  0  0  0  0  0  0  0
   38.0870   23.0600   33.7390 C   0  0  0  0  0  0  0  0  0  0  0  0
   38.1360   23.9370   32.6720 C   0  0  0  0  0  0  0  0  0  0  0  0
   37.2060   23.5790   31.7700 N   0  0  0  0  0  0  0  0  0  0  0  0
   36.5220   22.4770   32.1960 C   0  0  0  0  0  0  0  0  0  0  0  0
   35.4950   21.7670   31.6080 C   0  0  0  0  0  0  0  0  0  0  0  0
   34.9890   20.6630   32.3010 C   0  0  0  0  0  0  0  0  0  0  0  0
   35.5070   20.2990   33.5380 C   0  0  0  0  0  0  0  0  0  0  0  0
   36.5420   21.0770   34.0490 C   0  0  0  0  0  0  0  0  0  0  0  0
   37.0810   22.1750   33.4130 C   0  0  0  0  0  0  0  0  0  0  0  0
   38.2870   23.6600   38.5770 C   0  0  0  0  0  0  0  0  0  0  0  0
   37.7120   24.9210   38.5600 F   0  0  0  0  0  0  0  0  0  0  0  0
   39.2970   23.7160   39.5140 F   0  0  0  0  0  0  0  0  0  0  0  0
   37.3200   22.7490   38.9540 F   0  0  0  0  0  0  0  0  0  0  0  0
   42.2170   22.5140   36.0770 O   0  0  0  0  0  0  0  0  0  0  0  0
   42.9350   21.4190   36.3240 C   0  0  0  0  0  0  0  0  0  0  0  0
   42.5890   20.2120   36.9060 C   0  0  0  0  0  0  0  0  0  0  0  0
   43.4680   19.1710   37.0880 C   0  0  0  0  0  0  0  0  0  0  0  0
   44.7630   19.3640   36.6590 C   0  0  0  0  0  0  0  0  0  0  0  0
   45.1150   20.5570   36.0820 C   0  0  0  0  0  0  0  0  0  0  0  0
   44.2130   21.5720   35.9160 N   0  0  0  0  0  0  0  0  0  0  0  0
   46.4770   20.6320   35.6820 N   0  0  0  0  0  0  0  0  0  0  0  0
   47.1010   20.0830   34.6120 C   0  0  0  0  0  0  0  0  0  0  0  0
   48.4000   20.4220   34.6370 N   0  0  0  0  0  0  0  0  0  0  0  0
   48.5820   21.1760   35.7210 C   0  0  0  0  0  0  0  0  0  0  0  0
   47.4010   21.3070   36.3640 N   0  0  0  0  0  0  0  0  0  0  0  0
   40.8303   23.0943   38.2826 H   0  0  0  0  0  0  0  0  0  0  0  0
   38.8244   24.7896   32.5764 H   0  0  0  0  0  0  0  0  0  0  0  0
   37.0333   24.0685   30.8803 H   0  0  0  0  0  0  0  0  0  0  0  0
   35.0887   22.0594   30.6285 H   0  0  0  0  0  0  0  0  0  0  0  0
   34.1701   20.0749   31.8612 H   0  0  0  0  0  0  0  0  0  0  0  0
   35.1154   19.4321   34.0904 H   0  0  0  0  0  0  0  0  0  0  0  0
   36.9585   20.7964   35.0277 H   0  0  0  0  0  0  0  0  0  0  0  0
   41.5503   20.0779   37.2425 H   0  0  0  0  0  0  0  0  0  0  0  0
   43.1518   18.2266   37.5550 H   0  0  0  0  0  0  0  0  0  0  0  0
   45.5102   18.5656   36.7787 H   0  0  0  0  0  0  0  0  0  0  0  0
   46.6199   19.4587   33.8447 H   0  0  0  0  0  0  0  0  0  0  0  0
   49.5371   21.6189   36.0398 H   0  0  0  0  0  0  0  0  0  0  0  0
  1  2  2  0
  3  2  1  0
  3 16  1  0
  4  3  2  0
  5  4  1  0
  6  5  2  0
  6  1  1  0
  7  5  1  0
  8  7  2  0
  9 10  1  0
  9  8  1  0
 10 15  2  0
 11 10  1  0
 11 12  2  0
 12 13  1  0
 13 14  2  0
 15  7  1  0
 15 14  1  0
 16 19  1  0
 16 18  1  0
 17 16  1  0
 20  1  1  0
 20 21  1  0
 21 22  2  0
 22 23  1  0
 24 23  2  0
 25 24  1  0
 26 25  2  0
 26 21  1  0
 27 25  1  0
 27 31  1  0
 28 29  2  0
 28 27  1  0
 29 30  1  0
 30 31  2  0
  2 32  1  0
  8 33  1  0
  9 34  1  0
 11 35  1  0
 12 36  1  0
 13 37  1  0
 14 38  1  0
 22 39  1  0
 23 40  1  0
 24 41  1  0
 28 42  1  0
 30 43  1  0
M  ISO  8  32  14  33  14  34   9  35  14  36  14  37  14  38  14  39  14
M  ISO  4  40  14  41  14  42  14  43  14
M  END
>  <minimizedAffinity>  (1) 
-6.47995567

>  <minimizedRMSD>  (1) 
0.784301639

$$$$
