
     RDKit          3D

 40 44  0  0  0  0  0  0  0  0999 V2000
   40.8670   22.7830   36.0760 C   0  0  0  0  0  0  0  0  0  0  0  0
   40.2690   23.0820   37.3170 C   0  0  0  0  0  0  0  0  0  0  0  0
   38.8930   23.3470   37.2810 C   0  0  0  0  0  0  0  0  0  0  0  0
   38.2320   23.3040   36.1070 N   0  0  0  0  0  0  0  0  0  0  0  0
   38.8660   23.0080   34.9450 C   0  0  0  0  0  0  0  0  0  0  0  0
   40.1620   22.7520   34.9260 N   0  0  0  0  0  0  0  0  0  0  0  0
   38.0950   22.9840   33.7480 N   0  0  0  0  0  0  0  0  0  0  0  0
   38.2220   23.7830   32.6800 C   0  0  0  0  0  0  0  0  0  0  0  0
   37.3170   23.4660   31.7330 N   0  0  0  0  0  0  0  0  0  0  0  0
   36.6030   22.4260   32.2430 C   0  0  0  0  0  0  0  0  0  0  0  0
   35.5550   21.7110   31.7040 C   0  0  0  0  0  0  0  0  0  0  0  0
   35.0230   20.7230   32.4230 N   0  0  0  0  0  0  0  0  0  0  0  0
   35.4890   20.4200   33.6530 C   0  0  0  0  0  0  0  0  0  0  0  0
   36.5120   21.1090   34.1970 N   0  0  0  0  0  0  0  0  0  0  0  0
   37.0750   22.1120   33.5020 C   0  0  0  0  0  0  0  0  0  0  0  0
   38.2890   23.6550   38.5650 C   0  0  0  0  0  0  0  0  0  0  0  0
   37.7310   24.9250   38.5540 F   0  0  0  0  0  0  0  0  0  0  0  0
   39.3030   23.6910   39.4880 F   0  0  0  0  0  0  0  0  0  0  0  0
   37.3170   22.7560   38.9490 F   0  0  0  0  0  0  0  0  0  0  0  0
   42.1990   22.5150   36.0270 O   0  0  0  0  0  0  0  0  0  0  0  0
   42.9200   21.4190   36.2950 C   0  0  0  0  0  0  0  0  0  0  0  0
   42.5940   20.2090   36.8960 C   0  0  0  0  0  0  0  0  0  0  0  0
   43.4830   19.1820   37.0910 C   0  0  0  0  0  0  0  0  0  0  0  0
   44.7670   19.3790   36.6630 C   0  0  0  0  0  0  0  0  0  0  0  0
   45.1180   20.5680   36.0650 C   0  0  0  0  0  0  0  0  0  0  0  0
   44.2080   21.5830   35.8810 N   0  0  0  0  0  0  0  0  0  0  0  0
   46.4870   20.6510   35.6620 N   0  0  0  0  0  0  0  0  0  0  0  0
   47.1060   20.1050   34.6030 C   0  0  0  0  0  0  0  0  0  0  0  0
   48.4040   20.4570   34.6310 N   0  0  0  0  0  0  0  0  0  0  0  0
   48.5780   21.2200   35.7120 C   0  0  0  0  0  0  0  0  0  0  0  0
   47.3940   21.3450   36.3550 N   0  0  0  0  0  0  0  0  0  0  0  0
   40.8453   23.1058   38.2537 H   0  0  0  0  0  0  0  0  0  0  0  0
   38.9648   24.5891   32.5884 H   0  0  0  0  0  0  0  0  0  0  0  0
   35.1666   21.9505   30.7031 H   0  0  0  0  0  0  0  0  0  0  0  0
   35.0270   19.5984   34.2201 H   0  0  0  0  0  0  0  0  0  0  0  0
   41.5580   20.0655   37.2369 H   0  0  0  0  0  0  0  0  0  0  0  0
   43.1762   18.2409   37.5708 H   0  0  0  0  0  0  0  0  0  0  0  0
   45.5190   18.5874   36.7967 H   0  0  0  0  0  0  0  0  0  0  0  0
   46.6300   19.4737   33.8383 H   0  0  0  0  0  0  0  0  0  0  0  0
   49.5289   21.6734   36.0287 H   0  0  0  0  0  0  0  0  0  0  0  0
  1  2  2  0
  3  2  1  0
  3 16  1  0
  4  3  2  0
  5  4  1  0
  6  5  2  0
  6  1  1  0
  7  5  1  0
  8  7  1  0
  9 10  1  0
  9  8  2  0
 10 15  2  0
 11 10  1  0
 11 12  2  0
 12 13  1  0
 13 14  2  0
 15  7  1  0
 15 14  1  0
 16 19  1  0
 16 18  1  0
 17 16  1  0
 20  1  1  0
 20 21  1  0
 21 22  2  0
 22 23  1  0
 24 23  2  0
 25 24  1  0
 26 25  2  0
 26 21  1  0
 27 25  1  0
 27 31  1  0
 28 29  2  0
 28 27  1  0
 29 30  1  0
 30 31  2  0
  2 32  1  0
  8 33  1  0
 11 34  1  0
 13 35  1  0
 22 36  1  0
 23 37  1  0
 24 38  1  0
 28 39  1  0
 30 40  1  0
M  ISO  8  32  14  33  14  34  14  35  14  36  14  37  14  38  14  39  14
M  ISO  1  40  14
M  END
>  <minimizedAffinity>  (1) 
-6.36082458

>  <minimizedRMSD>  (1) 
0.797232509

$$$$
