
     RDKit          3D

 39 42  0  0  0  0  0  0  0  0999 V2000
   40.6030   22.4940   35.9650 C   0  0  0  0  0  0  0  0  0  0  0  0
   40.1100   22.9550   37.2100 C   0  0  0  0  0  0  0  0  0  0  0  0
   38.7120   23.1020   37.2980 C   0  0  0  0  0  0  0  0  0  0  0  0
   37.9550   22.8090   36.2410 N   0  0  0  0  0  0  0  0  0  0  0  0
   38.4890   22.3680   35.0660 C   0  0  0  0  0  0  0  0  0  0  0  0
   39.7910   22.2160   34.9370 N   0  0  0  0  0  0  0  0  0  0  0  0
   37.6300   22.0710   33.9720 N   0  0  0  0  0  0  0  0  0  0  0  0
   37.9180   22.4940   32.7130 C   0  0  0  0  0  0  0  0  0  0  0  0
   37.1430   22.2520   31.5970 C   0  0  0  0  0  0  0  0  0  0  0  0
   36.0070   21.5210   31.8510 C   0  0  0  0  0  0  0  0  0  0  0  0
   35.2250   21.2440   30.8830 O   0  0  0  0  0  0  0  0  0  0  0  0
   35.6650   21.0720   33.0740 N   0  0  0  0  0  0  0  0  0  0  0  0
   36.4900   21.3670   34.0780 C   0  0  0  0  0  0  0  0  0  0  0  0
   36.1820   20.9530   35.2350 O   0  0  0  0  0  0  0  0  0  0  0  0
   38.2320   23.5760   38.5830 C   0  0  0  0  0  0  0  0  0  0  0  0
   37.7040   24.8360   38.4800 F   0  0  0  0  0  0  0  0  0  0  0  0
   39.3150   23.6680   39.4240 F   0  0  0  0  0  0  0  0  0  0  0  0
   37.2630   22.7500   39.1370 F   0  0  0  0  0  0  0  0  0  0  0  0
   41.9510   22.3310   35.8210 O   0  0  0  0  0  0  0  0  0  0  0  0
   42.7910   21.3480   36.1560 C   0  0  0  0  0  0  0  0  0  0  0  0
   42.5840   20.1280   36.8150 C   0  0  0  0  0  0  0  0  0  0  0  0
   43.5880   19.2270   37.0760 C   0  0  0  0  0  0  0  0  0  0  0  0
   44.8500   19.5520   36.6660 C   0  0  0  0  0  0  0  0  0  0  0  0
   45.0730   20.7460   36.0170 C   0  0  0  0  0  0  0  0  0  0  0  0
   44.0550   21.6330   35.7650 N   0  0  0  0  0  0  0  0  0  0  0  0
   46.4330   20.9740   35.6360 N   0  0  0  0  0  0  0  0  0  0  0  0
   47.1420   20.4590   34.6230 C   0  0  0  0  0  0  0  0  0  0  0  0
   48.3830   20.9600   34.6490 N   0  0  0  0  0  0  0  0  0  0  0  0
   48.4340   21.7940   35.6930 C   0  0  0  0  0  0  0  0  0  0  0  0
   47.2340   21.8050   36.3030 N   0  0  0  0  0  0  0  0  0  0  0  0
   40.7765   23.1837   38.0546 H   0  0  0  0  0  0  0  0  0  0  0  0
   38.8414   23.0749   32.5724 H   0  0  0  0  0  0  0  0  0  0  0  0
   37.4108   22.6123   30.5928 H   0  0  0  0  0  0  0  0  0  0  0  0
   34.8052   20.5257   33.2262 H   0  0  0  0  0  0  0  0  0  0  0  0
   41.5633   19.8788   37.1405 H   0  0  0  0  0  0  0  0  0  0  0  0
   43.3833   18.2794   37.5957 H   0  0  0  0  0  0  0  0  0  0  0  0
   45.6857   18.8619   36.8537 H   0  0  0  0  0  0  0  0  0  0  0  0
   46.7634   19.7368   33.8847 H   0  0  0  0  0  0  0  0  0  0  0  0
   49.3139   22.3767   36.0031 H   0  0  0  0  0  0  0  0  0  0  0  0
  1  2  2  0
  2  3  1  0
  3 15  1  0
  4  3  2  0
  5  4  1  0
  6  5  2  0
  6  1  1  0
  7 13  1  0
  7  5  1  0
  8  7  1  0
  9 10  1  0
  9  8  2  0
 10 12  1  0
 11 10  2  0
 12 13  1  0
 13 14  2  0
 15 18  1  0
 15 17  1  0
 16 15  1  0
 19  1  1  0
 19 20  1  0
 20 21  2  0
 21 22  1  0
 23 22  2  0
 24 23  1  0
 25 24  2  0
 25 20  1  0
 26 24  1  0
 26 30  1  0
 27 28  2  0
 27 26  1  0
 28 29  1  0
 29 30  2  0
  2 31  1  0
  8 32  1  0
  9 33  1  0
 12 34  1  0
 21 35  1  0
 22 36  1  0
 23 37  1  0
 27 38  1  0
 29 39  1  0
M  ISO  8  31  14  32  14  33  14  34   9  35  14  36  14  37  14  38  14
M  ISO  1  39  14
M  END
>  <minimizedAffinity>  (1) 
-6.15344524

>  <minimizedRMSD>  (1) 
0.543914795

$$$$
