
     RDKit          3D

 39 42  0  0  0  0  0  0  0  0999 V2000
   40.3920   22.3970   35.6800 C   0  0  0  0  0  0  0  0  0  0  0  0
   40.0030   22.9110   36.9390 C   0  0  0  0  0  0  0  0  0  0  0  0
   38.6220   23.0390   37.1470 C   0  0  0  0  0  0  0  0  0  0  0  0
   37.7720   22.6810   36.1790 N   0  0  0  0  0  0  0  0  0  0  0  0
   38.2070   22.1910   34.9840 C   0  0  0  0  0  0  0  0  0  0  0  0
   39.4930   22.0550   34.7460 N   0  0  0  0  0  0  0  0  0  0  0  0
   37.2100   21.8230   33.9790 C   0  0  0  0  0  0  0  0  0  0  0  0
   37.2330   22.4350   32.7460 C   0  0  0  0  0  0  0  0  0  0  0  0
   36.3170   22.1220   31.7710 C   0  0  0  0  0  0  0  0  0  0  0  0
   35.3330   21.1780   31.9920 C   0  0  0  0  0  0  0  0  0  0  0  0
   35.3020   20.5570   33.2330 C   0  0  0  0  0  0  0  0  0  0  0  0
   36.2360   20.8860   34.2010 C   0  0  0  0  0  0  0  0  0  0  0  0
   38.2430   23.5670   38.4420 C   0  0  0  0  0  0  0  0  0  0  0  0
   37.8310   24.8720   38.3460 F   0  0  0  0  0  0  0  0  0  0  0  0
   39.3770   23.5840   39.2250 F   0  0  0  0  0  0  0  0  0  0  0  0
   37.2430   22.8380   39.0700 F   0  0  0  0  0  0  0  0  0  0  0  0
   41.7220   22.2470   35.4140 O   0  0  0  0  0  0  0  0  0  0  0  0
   42.6520   21.4030   35.8490 C   0  0  0  0  0  0  0  0  0  0  0  0
   42.5550   20.2030   36.5620 C   0  0  0  0  0  0  0  0  0  0  0  0
   43.6430   19.4540   36.9320 C   0  0  0  0  0  0  0  0  0  0  0  0
   44.8810   19.9150   36.5800 C   0  0  0  0  0  0  0  0  0  0  0  0
   44.9970   21.0900   35.8810 C   0  0  0  0  0  0  0  0  0  0  0  0
   43.8980   21.8280   35.5170 N   0  0  0  0  0  0  0  0  0  0  0  0
   46.3330   21.4690   35.5700 N   0  0  0  0  0  0  0  0  0  0  0  0
   47.1780   20.9960   34.6290 C   0  0  0  0  0  0  0  0  0  0  0  0
   48.3450   21.6540   34.7020 N   0  0  0  0  0  0  0  0  0  0  0  0
   48.2150   22.5410   35.6970 C   0  0  0  0  0  0  0  0  0  0  0  0
   46.9860   22.4340   36.2360 N   0  0  0  0  0  0  0  0  0  0  0  0
   40.7380   23.1928   37.7073 H   0  0  0  0  0  0  0  0  0  0  0  0
   38.0028   23.1923   32.5365 H   0  0  0  0  0  0  0  0  0  0  0  0
   36.3681   22.6319   30.7977 H   0  0  0  0  0  0  0  0  0  0  0  0
   34.5995   20.9271   31.2116 H   0  0  0  0  0  0  0  0  0  0  0  0
   34.5327   19.8008   33.4483 H   0  0  0  0  0  0  0  0  0  0  0  0
   36.1945   20.3800   35.1768 H   0  0  0  0  0  0  0  0  0  0  0  0
   41.5541   19.8414   36.8403 H   0  0  0  0  0  0  0  0  0  0  0  0
   43.5235   18.5151   37.4925 H   0  0  0  0  0  0  0  0  0  0  0  0
   45.7809   19.3459   36.8562 H   0  0  0  0  0  0  0  0  0  0  0  0
   46.9454   20.1943   33.9126 H   0  0  0  0  0  0  0  0  0  0  0  0
   48.9922   23.2477   36.0234 H   0  0  0  0  0  0  0  0  0  0  0  0
  1  2  2  0
  2  3  1  0
  3 13  1  0
  4  3  2  0
  5  4  1  0
  6  5  2  0
  6  1  1  0
  7 12  1  0
  7  5  1  0
  8  7  2  0
  9 10  2  0
  9  8  1  0
 10 11  1  0
 11 12  2  0
 13 16  1  0
 13 15  1  0
 14 13  1  0
 17  1  1  0
 17 18  1  0
 18 19  2  0
 19 20  1  0
 21 20  2  0
 22 21  1  0
 23 18  1  0
 23 22  2  0
 24 22  1  0
 24 28  1  0
 25 26  2  0
 25 24  1  0
 26 27  1  0
 27 28  2  0
  2 29  1  0
  8 30  1  0
  9 31  1  0
 10 32  1  0
 11 33  1  0
 12 34  1  0
 19 35  1  0
 20 36  1  0
 21 37  1  0
 25 38  1  0
 27 39  1  0
M  ISO  8  29  14  30  14  31  14  32  14  33  14  34  14  35  14  36  14
M  ISO  3  37  14  38  14  39  14
M  END
>  <minimizedAffinity>  (1) 
-5.88986111

>  <minimizedRMSD>  (1) 
0.910365283

$$$$
