
     RDKit          3D

 36 39  0  0  0  0  0  0  0  0999 V2000
   41.7700   22.2260   35.4730 O   0  0  0  0  0  0  0  0  0  0  0  0
   42.6860   21.3550   35.9010 C   0  0  0  0  0  0  0  0  0  0  0  0
   42.5680   20.1770   36.6500 C   0  0  0  0  0  0  0  0  0  0  0  0
   43.6380   19.3930   37.0040 C   0  0  0  0  0  0  0  0  0  0  0  0
   44.8800   19.7940   36.5970 C   0  0  0  0  0  0  0  0  0  0  0  0
   45.0170   20.9510   35.8600 C   0  0  0  0  0  0  0  0  0  0  0  0
   43.9330   21.7150   35.5190 N   0  0  0  0  0  0  0  0  0  0  0  0
   46.3480   21.2670   35.4950 N   0  0  0  0  0  0  0  0  0  0  0  0
   47.1350   20.7260   34.5360 C   0  0  0  0  0  0  0  0  0  0  0  0
   48.3330   21.3410   34.5470 N   0  0  0  0  0  0  0  0  0  0  0  0
   48.2800   22.2550   35.5080 C   0  0  0  0  0  0  0  0  0  0  0  0
   47.0590   22.2310   36.1120 N   0  0  0  0  0  0  0  0  0  0  0  0
   40.4520   22.3900   35.7290 C   0  0  0  0  0  0  0  0  0  0  0  0
   40.0310   22.9040   36.9650 C   0  0  0  0  0  0  0  0  0  0  0  0
   38.6520   23.0490   37.1630 C   0  0  0  0  0  0  0  0  0  0  0  0
   37.7980   22.6950   36.1770 N   0  0  0  0  0  0  0  0  0  0  0  0
   38.2610   22.2040   35.0040 C   0  0  0  0  0  0  0  0  0  0  0  0
   39.5550   22.0520   34.7760 N   0  0  0  0  0  0  0  0  0  0  0  0
   37.2790   21.8370   33.9700 C   0  0  0  0  0  0  0  0  0  0  0  0
   36.2050   20.9640   34.1380 C   0  0  0  0  0  0  0  0  0  0  0  0
   35.3890   20.7390   33.0610 C   0  0  0  0  0  0  0  0  0  0  0  0
   35.6870   21.4020   31.8650 C   0  0  0  0  0  0  0  0  0  0  0  0
   37.2300   22.3910   32.3510 S   0  0  0  0  0  0  0  0  0  0  0  0
   38.2590   23.5830   38.4540 C   0  0  0  0  0  0  0  0  0  0  0  0
   37.8390   24.8830   38.3490 F   0  0  0  0  0  0  0  0  0  0  0  0
   39.3900   23.5940   39.2510 F   0  0  0  0  0  0  0  0  0  0  0  0
   37.2580   22.8480   39.0770 F   0  0  0  0  0  0  0  0  0  0  0  0
   41.5640   19.8633   36.9718 H   0  0  0  0  0  0  0  0  0  0  0  0
   43.5009   18.4749   37.5941 H   0  0  0  0  0  0  0  0  0  0  0  0
   45.7661   19.1961   36.8564 H   0  0  0  0  0  0  0  0  0  0  0  0
   46.8425   19.9128   33.8554 H   0  0  0  0  0  0  0  0  0  0  0  0
   49.1027   22.9336   35.7777 H   0  0  0  0  0  0  0  0  0  0  0  0
   40.7541   23.1816   37.7461 H   0  0  0  0  0  0  0  0  0  0  0  0
   36.0190   20.4719   35.1040 H   0  0  0  0  0  0  0  0  0  0  0  0
   34.5273   20.0592   33.1338 H   0  0  0  0  0  0  0  0  0  0  0  0
   35.1640   21.3603   30.8982 H   0  0  0  0  0  0  0  0  0  0  0  0
  1 13  1  0
  1  2  1  0
  2  3  2  0
  3  4  1  0
  5  4  2  0
  6  5  1  0
  7  6  2  0
  7  2  1  0
  8  6  1  0
  8 12  1  0
  9 10  2  0
  9  8  1  0
 10 11  1  0
 11 12  2  0
 13 14  2  0
 14 15  1  0
 15 24  1  0
 16 15  2  0
 17 16  1  0
 18 17  2  0
 18 13  1  0
 19 20  2  0
 19 17  1  0
 21 20  1  0
 22 23  1  0
 22 21  2  0
 23 19  1  0
 24 27  1  0
 24 26  1  0
 25 24  1  0
  3 28  1  0
  4 29  1  0
  5 30  1  0
  9 31  1  0
 11 32  1  0
 14 33  1  0
 20 34  1  0
 21 35  1  0
 22 36  1  0
M  ISO  8  28  14  29  14  30  14  31  14  32  14  33  14  34  14  35  14
M  ISO  1  36  14
M  END
>  <minimizedAffinity>  (1) 
-5.4710741

>  <minimizedRMSD>  (1) 
0.889828384

$$$$
