
     RDKit          3D

 38 40  0  0  0  0  0  0  0  0999 V2000
   43.0910   21.2100   36.4420 C   0  0  0  0  0  0  0  0  0  0  0  0
   42.8230   19.9530   36.9810 C   0  0  0  0  0  0  0  0  0  0  0  0
   43.7580   18.9600   37.0940 C   0  0  0  0  0  0  0  0  0  0  0  0
   45.0280   19.2310   36.6460 C   0  0  0  0  0  0  0  0  0  0  0  0
   45.3110   20.4580   36.1140 C   0  0  0  0  0  0  0  0  0  0  0  0
   44.3530   21.4390   36.0120 N   0  0  0  0  0  0  0  0  0  0  0  0
   46.6540   20.6180   35.6870 N   0  0  0  0  0  0  0  0  0  0  0  0
   47.2940   20.1680   34.5950 C   0  0  0  0  0  0  0  0  0  0  0  0
   48.5670   20.5710   34.6180 N   0  0  0  0  0  0  0  0  0  0  0  0
   48.7300   21.2820   35.7350 C   0  0  0  0  0  0  0  0  0  0  0  0
   47.5570   21.3200   36.4070 N   0  0  0  0  0  0  0  0  0  0  0  0
   42.3200   22.2930   36.2520 O   0  0  0  0  0  0  0  0  0  0  0  0
   40.9710   22.4720   36.2240 C   0  0  0  0  0  0  0  0  0  0  0  0
   40.3330   22.9570   37.4000 C   0  0  0  0  0  0  0  0  0  0  0  0
   38.9390   23.1200   37.3070 C   0  0  0  0  0  0  0  0  0  0  0  0
   38.3090   22.8250   36.1620 N   0  0  0  0  0  0  0  0  0  0  0  0
   38.9820   22.3650   35.0730 C   0  0  0  0  0  0  0  0  0  0  0  0
   40.2870   22.1920   35.1010 N   0  0  0  0  0  0  0  0  0  0  0  0
   38.3000   23.6130   38.5080 C   0  0  0  0  0  0  0  0  0  0  0  0
   37.7890   24.8760   38.3180 F   0  0  0  0  0  0  0  0  0  0  0  0
   39.2730   23.7190   39.4750 F   0  0  0  0  0  0  0  0  0  0  0  0
   37.2730   22.7950   38.9620 F   0  0  0  0  0  0  0  0  0  0  0  0
   38.2260   22.0530   33.8290 C   0  0  0  0  0  0  0  0  0  0  0  0
   36.9020   21.4460   34.2230 C   0  0  0  0  0  0  0  0  0  0  0  0
   37.9150   23.4160   33.2010 C   0  0  0  0  0  0  0  0  0  0  0  0
   41.8022   19.7474   37.3356 H   0  0  0  0  0  0  0  0  0  0  0  0
   43.5022   17.9818   37.5272 H   0  0  0  0  0  0  0  0  0  0  0  0
   45.8136   18.4642   36.7150 H   0  0  0  0  0  0  0  0  0  0  0  0
   46.8378   19.5588   33.8008 H   0  0  0  0  0  0  0  0  0  0  0  0
   49.6669   21.7600   36.0573 H   0  0  0  0  0  0  0  0  0  0  0  0
   40.8918   23.1886   38.3188 H   0  0  0  0  0  0  0  0  0  0  0  0
   38.7816   21.3770   33.1624 H   0  0  0  0  0  0  0  0  0  0  0  0
   36.8264   21.4114   35.3199 H   0  0  0  0  0  0  0  0  0  0  0  0
   36.0829   22.0585   33.8182 H   0  0  0  0  0  0  0  0  0  0  0  0
   36.8315   20.4256   33.8182 H   0  0  0  0  0  0  0  0  0  0  0  0
   37.7461   24.1564   33.9968 H   0  0  0  0  0  0  0  0  0  0  0  0
   38.7635   23.7347   32.5777 H   0  0  0  0  0  0  0  0  0  0  0  0
   37.0122   23.3351   32.5777 H   0  0  0  0  0  0  0  0  0  0  0  0
  1  2  2  0
  2  3  1  0
  4  3  2  0
  5  4  1  0
  6  5  2  0
  6  1  1  0
  7  5  1  0
  7 11  1  0
  8  9  2  0
  8  7  1  0
  9 10  1  0
 10 11  2  0
 12  1  1  0
 13 12  1  0
 13 14  2  0
 15 14  1  0
 15 19  1  0
 16 15  2  0
 17 18  2  0
 17 16  1  0
 18 13  1  0
 19 22  1  0
 19 21  1  0
 20 19  1  0
 23 24  1  0
 23 17  1  0
 25 23  1  0
  2 26  1  0
  3 27  1  0
  4 28  1  0
  8 29  1  0
 10 30  1  0
 14 31  1  0
 23 32  1  0
 24 33  1  0
 24 34  1  0
 24 35  1  0
 25 36  1  0
 25 37  1  0
 25 38  1  0
M  ISO  8  26  14  27  14  28  14  29  14  30  14  31  14  32   8  33   8
M  ISO  5  34   8  35   8  36   8  37   8  38   8
M  END
>  <minimizedAffinity>  (1) 
-4.92565346

>  <minimizedRMSD>  (1) 
0.200855315

$$$$
