
     RDKit          3D

 30 32  0  0  0  0  0  0  0  0999 V2000
   43.0880   21.2800   36.4020 C   0  0  0  0  0  0  0  0  0  0  0  0
   42.8590   20.0260   36.9510 C   0  0  0  0  0  0  0  0  0  0  0  0
   43.8230   19.0600   37.0740 C   0  0  0  0  0  0  0  0  0  0  0  0
   45.0880   19.3730   36.6200 C   0  0  0  0  0  0  0  0  0  0  0  0
   45.3310   20.6040   36.0760 C   0  0  0  0  0  0  0  0  0  0  0  0
   44.3440   21.5460   35.9680 N   0  0  0  0  0  0  0  0  0  0  0  0
   46.6630   20.8080   35.6470 N   0  0  0  0  0  0  0  0  0  0  0  0
   47.3100   20.3600   34.5430 C   0  0  0  0  0  0  0  0  0  0  0  0
   48.5760   20.8080   34.5480 N   0  0  0  0  0  0  0  0  0  0  0  0
   48.7100   21.5400   35.6700 C   0  0  0  0  0  0  0  0  0  0  0  0
   47.5440   21.5470   36.3500 N   0  0  0  0  0  0  0  0  0  0  0  0
   42.2760   22.3260   36.2080 O   0  0  0  0  0  0  0  0  0  0  0  0
   40.9210   22.4760   36.2150 C   0  0  0  0  0  0  0  0  0  0  0  0
   40.2910   22.9690   37.3860 C   0  0  0  0  0  0  0  0  0  0  0  0
   38.9040   23.0990   37.3280 C   0  0  0  0  0  0  0  0  0  0  0  0
   38.2540   22.7670   36.2120 N   0  0  0  0  0  0  0  0  0  0  0  0
   38.9060   22.2980   35.1120 C   0  0  0  0  0  0  0  0  0  0  0  0
   40.2250   22.1550   35.1160 N   0  0  0  0  0  0  0  0  0  0  0  0
   38.2780   23.6040   38.5370 C   0  0  0  0  0  0  0  0  0  0  0  0
   37.8000   24.8900   38.3450 F   0  0  0  0  0  0  0  0  0  0  0  0
   39.2780   23.7360   39.4860 F   0  0  0  0  0  0  0  0  0  0  0  0
   37.2550   22.8200   39.0170 F   0  0  0  0  0  0  0  0  0  0  0  0
   38.0270   21.8520   33.6100 S   0  0  0  0  0  0  0  0  0  0  0  0
   41.8447   19.7942   37.3081 H   0  0  0  0  0  0  0  0  0  0  0  0
   43.5983   18.0778   37.5154 H   0  0  0  0  0  0  0  0  0  0  0  0
   45.8992   18.6339   36.6955 H   0  0  0  0  0  0  0  0  0  0  0  0
   46.8655   19.7259   33.7618 H   0  0  0  0  0  0  0  0  0  0  0  0
   49.6300   22.0543   35.9848 H   0  0  0  0  0  0  0  0  0  0  0  0
   40.8632   23.2334   38.2875 H   0  0  0  0  0  0  0  0  0  0  0  0
   36.8406   21.2500   33.9369 H   0  0  0  0  0  0  0  0  0  0  0  0
  1  2  2  0
  2  3  1  0
  4  3  2  0
  5  4  1  0
  6  5  2  0
  6  1  1  0
  7  5  1  0
  7 11  1  0
  8  9  2  0
  8  7  1  0
  9 10  1  0
 10 11  2  0
 12 13  1  0
 12  1  1  0
 13 14  2  0
 15 14  1  0
 15 19  1  0
 16 15  2  0
 17 18  2  0
 17 16  1  0
 18 13  1  0
 19 22  1  0
 19 21  1  0
 20 19  1  0
 23 17  1  0
  2 24  1  0
  3 25  1  0
  4 26  1  0
  8 27  1  0
 10 28  1  0
 14 29  1  0
 23 30  1  0
M  ISO  7  24  14  25  14  26  14  27  14  28  14  29  14  30  11
M  END
>  <minimizedAffinity>  (1) 
-4.83917046

>  <minimizedRMSD>  (1) 
0.0988543555

$$$$
