
     RDKit          3D

 32 34  0  0  0  0  0  0  0  0999 V2000
   43.0970   21.2720   36.3980 C   0  0  0  0  0  0  0  0  0  0  0  0
   42.8620   20.0050   36.9510 C   0  0  0  0  0  0  0  0  0  0  0  0
   43.8380   19.0490   37.0700 C   0  0  0  0  0  0  0  0  0  0  0  0
   45.0940   19.3590   36.6220 C   0  0  0  0  0  0  0  0  0  0  0  0
   45.3330   20.6040   36.0750 C   0  0  0  0  0  0  0  0  0  0  0  0
   44.3460   21.5420   35.9680 N   0  0  0  0  0  0  0  0  0  0  0  0
   46.6750   20.8080   35.6470 N   0  0  0  0  0  0  0  0  0  0  0  0
   47.3150   20.3690   34.5550 C   0  0  0  0  0  0  0  0  0  0  0  0
   48.5860   20.8160   34.5690 N   0  0  0  0  0  0  0  0  0  0  0  0
   48.7310   21.5370   35.6790 C   0  0  0  0  0  0  0  0  0  0  0  0
   47.5590   21.5430   36.3560 N   0  0  0  0  0  0  0  0  0  0  0  0
   42.2810   22.3190   36.2030 O   0  0  0  0  0  0  0  0  0  0  0  0
   40.9370   22.4670   36.2180 C   0  0  0  0  0  0  0  0  0  0  0  0
   40.2960   22.9710   37.3740 C   0  0  0  0  0  0  0  0  0  0  0  0
   38.9050   23.0970   37.3180 C   0  0  0  0  0  0  0  0  0  0  0  0
   38.2570   22.7460   36.2040 N   0  0  0  0  0  0  0  0  0  0  0  0
   38.9120   22.2640   35.1100 C   0  0  0  0  0  0  0  0  0  0  0  0
   40.2250   22.1280   35.1180 N   0  0  0  0  0  0  0  0  0  0  0  0
   38.2860   23.6140   38.5170 C   0  0  0  0  0  0  0  0  0  0  0  0
   37.7860   24.8740   38.3150 F   0  0  0  0  0  0  0  0  0  0  0  0
   39.2740   23.7300   39.4750 F   0  0  0  0  0  0  0  0  0  0  0  0
   37.2530   22.8230   39.0050 F   0  0  0  0  0  0  0  0  0  0  0  0
   38.1850   21.8710   33.8630 C   0  0  0  0  0  0  0  0  0  0  0  0
   41.8483   19.7670   37.3056 H   0  0  0  0  0  0  0  0  0  0  0  0
   43.6189   18.0654   37.5109 H   0  0  0  0  0  0  0  0  0  0  0  0
   45.9068   18.6216   36.6973 H   0  0  0  0  0  0  0  0  0  0  0  0
   46.8714   19.7407   33.7685 H   0  0  0  0  0  0  0  0  0  0  0  0
   49.6539   22.0455   35.9947 H   0  0  0  0  0  0  0  0  0  0  0  0
   40.8646   23.2502   38.2733 H   0  0  0  0  0  0  0  0  0  0  0  0
   37.2463   21.3636   34.1303 H   0  0  0  0  0  0  0  0  0  0  0  0
   37.9599   22.7703   33.2709 H   0  0  0  0  0  0  0  0  0  0  0  0
   38.8142   21.1901   33.2709 H   0  0  0  0  0  0  0  0  0  0  0  0
  1  2  2  0
  2  3  1  0
  4  3  2  0
  5  4  1  0
  6  5  2  0
  6  1  1  0
  7  5  1  0
  7 11  1  0
  8  9  2  0
  8  7  1  0
  9 10  1  0
 10 11  2  0
 12 13  1  0
 12  1  1  0
 13 14  2  0
 15 14  1  0
 15 19  1  0
 16 15  2  0
 17 18  2  0
 17 16  1  0
 18 13  1  0
 19 22  1  0
 19 21  1  0
 20 19  1  0
 23 17  1  0
  2 24  1  0
  3 25  1  0
  4 26  1  0
  8 27  1  0
 10 28  1  0
 14 29  1  0
 23 30  1  0
 23 31  1  0
 23 32  1  0
M  ISO  8  24  14  25  14  26  14  27  14  28  14  29  14  30   8  31   8
M  ISO  1  32   8
M  END
>  <minimizedAffinity>  (1) 
-4.82265854

>  <minimizedRMSD>  (1) 
0.0938450098

$$$$
