
     RDKit          3D

 36 39  0  0  1  0  0  0  0  0999 V2000
   38.2050   25.0980   33.4850 N   0  0  0  0  0  0  0  0  0  0  0  0
   38.9680   25.4030   34.6800 C   0  0  0  0  0  0  0  0  0  0  0  0
   39.6380   26.7060   34.6920 C   0  0  0  0  0  0  0  0  0  0  0  0
   40.1110   27.2340   33.3810 C   0  0  0  0  0  0  0  0  0  0  0  0
   39.4320   26.6100   32.1910 C   0  0  0  0  0  0  0  0  0  0  0  0
   38.0390   26.2120   32.6300 C   0  0  2  0  0  0  0  0  0  0  0  0
   37.2250   27.2820   33.1240 N   0  0  0  0  0  0  0  0  0  0  0  0
   36.7380   27.4250   34.3870 C   0  0  0  0  0  0  0  0  0  0  0  0
   36.0200   28.5750   34.4200 N   0  0  0  0  0  0  0  0  0  0  0  0
   36.0520   29.1460   33.2050 C   0  0  0  0  0  0  0  0  0  0  0  0
   35.4890   30.3140   32.7140 C   0  0  0  0  0  0  0  0  0  0  0  0
   35.6570   30.7030   31.4260 N   0  0  0  0  0  0  0  0  0  0  0  0
   36.4020   29.8900   30.6540 C   0  0  0  0  0  0  0  0  0  0  0  0
   36.9660   28.7480   31.0910 N   0  0  0  0  0  0  0  0  0  0  0  0
   36.8180   28.3270   32.3790 C   0  0  0  0  0  0  0  0  0  0  0  0
   37.9710   22.6990   34.1020 C   0  0  0  0  0  0  0  0  0  0  0  0
   37.7070   23.7970   33.2590 C   0  0  0  0  0  0  0  0  0  0  0  0
   36.9160   23.5760   32.1460 C   0  0  0  0  0  0  0  0  0  0  0  0
   36.4250   22.3370   31.9000 N   0  0  0  0  0  0  0  0  0  0  0  0
   36.6970   21.3000   32.7310 C   0  0  0  0  0  0  0  0  0  0  0  0
   37.4630   21.4940   33.8160 N   0  0  0  0  0  0  0  0  0  0  0  0
   38.2802   25.3690   35.5377 H   0  0  0  0  0  0  0  0  0  0  0  0
   39.7715   24.6529   34.7217 H   0  0  0  0  0  0  0  0  0  0  0  0
   38.9320   27.4387   35.1099 H   0  0  0  0  0  0  0  0  0  0  0  0
   40.5514   26.5529   35.2854 H   0  0  0  0  0  0  0  0  0  0  0  0
   39.9251   28.3179   33.3568 H   0  0  0  0  0  0  0  0  0  0  0  0
   41.1801   26.9869   33.3044 H   0  0  0  0  0  0  0  0  0  0  0  0
   39.9912   25.7224   31.8603 H   0  0  0  0  0  0  0  0  0  0  0  0
   39.3897   27.3172   31.3495 H   0  0  0  0  0  0  0  0  0  0  0  0
   37.4240   25.9209   31.7657 H   0  0  0  0  0  0  0  0  0  0  0  0
   36.8977   26.7338   35.2277 H   0  0  0  0  0  0  0  0  0  0  0  0
   34.8891   30.9428   33.3884 H   0  0  0  0  0  0  0  0  0  0  0  0
   36.5595   30.1756   29.6035 H   0  0  0  0  0  0  0  0  0  0  0  0
   38.5961   22.8325   34.9973 H   0  0  0  0  0  0  0  0  0  0  0  0
   36.6856   24.4053   31.4610 H   0  0  0  0  0  0  0  0  0  0  0  0
   36.2902   20.3009   32.5159 H   0  0  0  0  0  0  0  0  0  0  0  0
  1  2  1  0
  2  3  1  0
  4  3  1  0
  5  6  1  0
  5  4  1  0
  6  7  1  0
  6  1  1  0
  7  8  1  0
  8  9  2  0
 10  9  1  0
 11 10  2  0
 12 11  1  0
 13 14  1  0
 13 12  2  0
 14 15  2  0
 15  7  1  0
 15 10  1  0
 17  1  1  0
 17 16  2  0
 18 17  1  0
 19 18  2  0
 19 20  1  0
 20 21  2  0
 21 16  1  0
  2 22  1  0
  2 23  1  0
  3 24  1  0
  3 25  1  0
  4 26  1  0
  4 27  1  0
  5 28  1  0
  5 29  1  0
  6 30  1  6
  8 31  1  0
 11 32  1  0
 13 33  1  0
 16 34  1  0
 18 35  1  0
 20 36  1  0
M  ISO  8  22  13  23  13  24  13  25  13  26  13  27  13  28  13  29  13
M  ISO  7  30  13  31  14  32  14  33  14  34  14  35  14  36  14
M  END
>  <minimizedAffinity>  (1) 
-4.59229088

>  <minimizedRMSD>  (1) 
3.24719024

$$$$
