
     RDKit          3D

 32 34  0  0  1  0  0  0  0  0999 V2000
   38.2910   24.9700   34.1500 N   0  0  0  0  0  0  0  0  0  0  0  0
   39.5710   25.5320   33.8460 C   0  0  0  0  0  0  0  0  0  0  0  0
   40.0950   26.4550   34.8630 C   0  0  0  0  0  0  0  0  0  0  0  0
   39.1100   27.2680   35.6070 C   0  0  0  0  0  0  0  0  0  0  0  0
   37.7550   26.6460   35.6860 C   0  0  0  0  0  0  0  0  0  0  0  0
   37.8350   25.1740   35.4910 C   0  0  2  0  0  0  0  0  0  0  0  0
   37.5070   22.8880   33.0180 C   0  0  0  0  0  0  0  0  0  0  0  0
   37.5490   24.2740   33.1530 C   0  0  0  0  0  0  0  0  0  0  0  0
   36.8150   25.0060   32.2330 C   0  0  0  0  0  0  0  0  0  0  0  0
   36.1100   24.3570   31.2720 N   0  0  0  0  0  0  0  0  0  0  0  0
   36.1000   23.0210   31.1820 C   0  0  0  0  0  0  0  0  0  0  0  0
   36.7980   22.2990   32.0530 N   0  0  0  0  0  0  0  0  0  0  0  0
   38.4270   24.3390   36.5450 C   0  0  0  0  0  0  0  0  0  0  0  0
   37.4700   23.2040   37.0460 C   0  0  0  0  0  0  0  0  0  0  0  0
   38.0740   24.2280   37.9470 C   0  0  0  0  0  0  0  0  0  0  0  0
   40.2887   24.7065   33.7305 H   0  0  0  0  0  0  0  0  0  0  0  0
   39.4398   26.1239   32.9281 H   0  0  0  0  0  0  0  0  0  0  0  0
   40.6527   25.8560   35.5979 H   0  0  0  0  0  0  0  0  0  0  0  0
   40.6987   27.1834   34.3017 H   0  0  0  0  0  0  0  0  0  0  0  0
   39.4843   27.4159   36.6307 H   0  0  0  0  0  0  0  0  0  0  0  0
   38.9971   28.2157   35.0601 H   0  0  0  0  0  0  0  0  0  0  0  0
   37.3196   26.8553   36.6743 H   0  0  0  0  0  0  0  0  0  0  0  0
   37.1256   27.0723   34.8910 H   0  0  0  0  0  0  0  0  0  0  0  0
   36.8275   24.7531   35.6246 H   0  0  0  0  0  0  0  0  0  0  0  0
   38.0727   22.2633   33.7249 H   0  0  0  0  0  0  0  0  0  0  0  0
   36.8040   26.1049   32.2814 H   0  0  0  0  0  0  0  0  0  0  0  0
   35.5177   22.5240   30.3921 H   0  0  0  0  0  0  0  0  0  0  0  0
   39.4151   24.5218   36.0976 H   0  0  0  0  0  0  0  0  0  0  0  0
   36.3964   23.2319   36.8079 H   0  0  0  0  0  0  0  0  0  0  0  0
   37.4396   22.1056   36.9942 H   0  0  0  0  0  0  0  0  0  0  0  0
   38.8419   23.9202   38.6720 H   0  0  0  0  0  0  0  0  0  0  0  0
   37.6470   24.9359   38.6726 H   0  0  0  0  0  0  0  0  0  0  0  0
  1  6  1  0
  2  1  1  0
  2  3  1  0
  3  4  1  0
  4  5  1  0
  6  5  1  0
  6 13  1  0
  7  8  2  0
  8  1  1  0
  9  8  1  0
 10  9  2  0
 11 10  1  0
 11 12  2  0
 12  7  1  0
 13 14  1  0
 13 15  1  0
 14 15  1  0
  2 16  1  0
  2 17  1  0
  3 18  1  0
  3 19  1  0
  4 20  1  0
  4 21  1  0
  5 22  1  0
  5 23  1  0
  6 24  1  6
  7 25  1  0
  9 26  1  0
 11 27  1  0
 13 28  1  0
 14 29  1  0
 14 30  1  0
 15 31  1  0
 15 32  1  0
M  ISO  8  16  13  17  13  18  13  19  13  20  13  21  13  22  13  23  13
M  ISO  8  24  13  25  14  26  14  27  14  28  13  29  13  30  13  31  13
M  ISO  1  32  13
M  END
>  <minimizedAffinity>  (1) 
-4.36627293

>  <minimizedRMSD>  (1) 
4.4915328

$$$$
