
     RDKit          3D

 32 34  0  0  1  0  0  0  0  0999 V2000
   38.1230   25.2780   34.6900 N   0  0  0  0  0  0  0  0  0  0  0  0
   37.1810   26.3370   34.9980 C   0  0  0  0  0  0  0  0  0  0  0  0
   36.9170   27.2910   33.9140 C   0  0  0  0  0  0  0  0  0  0  0  0
   38.0560   27.5800   32.9970 C   0  0  0  0  0  0  0  0  0  0  0  0
   39.1280   26.5220   32.9900 C   0  0  0  0  0  0  0  0  0  0  0  0
   38.4350   25.2020   33.3130 C   0  0  2  0  0  0  0  0  0  0  0  0
   38.0100   24.2580   36.9520 C   0  0  0  0  0  0  0  0  0  0  0  0
   38.6270   24.4570   35.7210 C   0  0  0  0  0  0  0  0  0  0  0  0
   39.8210   23.7950   35.5180 C   0  0  0  0  0  0  0  0  0  0  0  0
   40.3410   23.0030   36.4750 N   0  0  0  0  0  0  0  0  0  0  0  0
   39.7060   22.8350   37.6650 C   0  0  0  0  0  0  0  0  0  0  0  0
   38.5360   23.4700   37.8950 N   0  0  0  0  0  0  0  0  0  0  0  0
   37.3310   24.9380   32.4220 N   0  0  0  0  0  0  0  0  0  0  0  0
   36.7720   25.6600   31.4660 N   0  0  0  0  0  0  0  0  0  0  0  0
   35.7580   24.9830   30.9050 C   0  0  0  0  0  0  0  0  0  0  0  0
   35.6790   23.7600   31.5540 C   0  0  0  0  0  0  0  0  0  0  0  0
   36.6800   23.7520   32.5070 C   0  0  0  0  0  0  0  0  0  0  0  0
   36.2253   25.8686   35.2758 H   0  0  0  0  0  0  0  0  0  0  0  0
   37.6431   26.9228   35.8062 H   0  0  0  0  0  0  0  0  0  0  0  0
   36.0920   26.8893   33.3074 H   0  0  0  0  0  0  0  0  0  0  0  0
   36.6915   28.2457   34.4118 H   0  0  0  0  0  0  0  0  0  0  0  0
   37.6601   27.6765   31.9753 H   0  0  0  0  0  0  0  0  0  0  0  0
   38.5275   28.5047   33.3610 H   0  0  0  0  0  0  0  0  0  0  0  0
   39.6035   26.4692   31.9995 H   0  0  0  0  0  0  0  0  0  0  0  0
   39.9154   26.7483   33.7241 H   0  0  0  0  0  0  0  0  0  0  0  0
   39.0708   24.3212   33.1399 H   0  0  0  0  0  0  0  0  0  0  0  0
   37.0563   24.7667   37.1564 H   0  0  0  0  0  0  0  0  0  0  0  0
   40.3540   23.9158   34.5634 H   0  0  0  0  0  0  0  0  0  0  0  0
   40.1428   22.1849   38.4373 H   0  0  0  0  0  0  0  0  0  0  0  0
   35.1121   25.3320   30.0858 H   0  0  0  0  0  0  0  0  0  0  0  0
   34.9596   22.9532   31.3500 H   0  0  0  0  0  0  0  0  0  0  0  0
   36.9068   22.9335   33.2061 H   0  0  0  0  0  0  0  0  0  0  0  0
  1  2  1  0
  1  8  1  0
  3  2  1  0
  4  3  1  0
  5  4  1  0
  5  6  1  0
  6  1  1  0
  7 12  2  0
  8  7  1  0
  9  8  2  0
  9 10  1  0
 10 11  2  0
 11 12  1  0
 13 17  1  0
 13  6  1  0
 14 13  1  0
 15 14  2  0
 15 16  1  0
 16 17  2  0
  2 18  1  0
  2 19  1  0
  3 20  1  0
  3 21  1  0
  4 22  1  0
  4 23  1  0
  5 24  1  0
  5 25  1  0
  6 26  1  1
  7 27  1  0
  9 28  1  0
 11 29  1  0
 15 30  1  0
 16 31  1  0
 17 32  1  0
M  ISO  8  18  13  19  13  20  13  21  13  22  13  23  13  24  13  25  13
M  ISO  7  26  13  27  14  28  14  29  14  30  14  31  14  32  14
M  END
>  <minimizedAffinity>  (1) 
-4.30528927

>  <minimizedRMSD>  (1) 
3.9481461

$$$$
