
     RDKit          3D

 39 41  0  0  1  0  0  0  0  0999 V2000
   35.6950   29.2770   33.3640 N   0  0  0  0  0  0  0  0  0  0  0  0
   35.9130   29.8510   34.6800 C   0  0  0  0  0  0  0  0  0  0  0  0
   35.4970   31.2600   34.8110 C   0  0  0  0  0  0  0  0  0  0  0  0
   35.8080   32.1210   33.6260 C   0  0  0  0  0  0  0  0  0  0  0  0
   35.8700   31.3570   32.3430 C   0  0  0  0  0  0  0  0  0  0  0  0
   34.9880   30.1420   32.4840 C   0  0  2  0  0  0  0  0  0  0  0  0
   36.8850   27.1980   33.9790 C   0  0  0  0  0  0  0  0  0  0  0  0
   36.1710   27.9860   33.0740 C   0  0  0  0  0  0  0  0  0  0  0  0
   35.9200   27.4440   31.8280 C   0  0  0  0  0  0  0  0  0  0  0  0
   36.3760   26.1840   31.5570 N   0  0  0  0  0  0  0  0  0  0  0  0
   37.0620   25.4590   32.4640 C   0  0  0  0  0  0  0  0  0  0  0  0
   37.3080   25.9750   33.6650 N   0  0  0  0  0  0  0  0  0  0  0  0
   33.6710   30.3900   32.9720 N   0  0  0  0  0  0  0  0  0  0  0  0
   32.9450   31.2870   32.1300 C   0  0  0  0  0  0  0  0  0  0  0  0
   31.4580   31.2940   32.4200 C   0  0  0  0  0  0  0  0  0  0  0  0
   30.8700   29.9810   32.3900 N   0  0  0  0  0  0  0  0  0  0  0  0
   31.5730   29.2000   33.4090 C   0  0  0  0  0  0  0  0  0  0  0  0
   32.9970   29.0880   32.9490 C   0  0  0  0  0  0  0  0  0  0  0  0
   35.3467   29.2564   35.4119 H   0  0  0  0  0  0  0  0  0  0  0  0
   36.9989   29.8287   34.8543 H   0  0  0  0  0  0  0  0  0  0  0  0
   34.4093   31.2816   34.9733 H   0  0  0  0  0  0  0  0  0  0  0  0
   36.0707   31.6745   35.6531 H   0  0  0  0  0  0  0  0  0  0  0  0
   35.0262   32.8898   33.5377 H   0  0  0  0  0  0  0  0  0  0  0  0
   36.8025   32.5603   33.7932 H   0  0  0  0  0  0  0  0  0  0  0  0
   36.9059   31.0457   32.1431 H   0  0  0  0  0  0  0  0  0  0  0  0
   35.5276   31.9841   31.5067 H   0  0  0  0  0  0  0  0  0  0  0  0
   34.8057   29.7151   31.4868 H   0  0  0  0  0  0  0  0  0  0  0  0
   37.1043   27.5988   34.9796 H   0  0  0  0  0  0  0  0  0  0  0  0
   35.3645   28.0149   31.0694 H   0  0  0  0  0  0  0  0  0  0  0  0
   37.4155   24.4482   32.2124 H   0  0  0  0  0  0  0  0  0  0  0  0
   33.0970   30.9862   31.0829 H   0  0  0  0  0  0  0  0  0  0  0  0
   33.3240   32.3014   32.3235 H   0  0  0  0  0  0  0  0  0  0  0  0
   31.2983   31.7262   33.4189 H   0  0  0  0  0  0  0  0  0  0  0  0
   30.9732   31.8882   31.6314 H   0  0  0  0  0  0  0  0  0  0  0  0
   29.8651   30.0339   32.6099 H   0  0  0  0  0  0  0  0  0  0  0  0
   31.5264   29.7130   34.3809 H   0  0  0  0  0  0  0  0  0  0  0  0
   31.1159   28.2077   33.5368 H   0  0  0  0  0  0  0  0  0  0  0  0
   33.0113   28.6958   31.9214 H   0  0  0  0  0  0  0  0  0  0  0  0
   33.5293   28.4107   33.6330 H   0  0  0  0  0  0  0  0  0  0  0  0
  1  2  1  0
  2  3  1  0
  4  3  1  0
  5  6  1  0
  5  4  1  0
  6 13  1  0
  6  1  1  0
  8  1  1  0
  8  7  2  0
  9  8  1  0
 10  9  2  0
 10 11  1  0
 11 12  2  0
 12  7  1  0
 14 15  1  0
 14 13  1  0
 16 15  1  0
 16 17  1  0
 18 13  1  0
 18 17  1  0
  2 19  1  0
  2 20  1  0
  3 21  1  0
  3 22  1  0
  4 23  1  0
  4 24  1  0
  5 25  1  0
  5 26  1  0
  6 27  1  6
  7 28  1  0
  9 29  1  0
 11 30  1  0
 14 31  1  0
 14 32  1  0
 15 33  1  0
 15 34  1  0
 16 35  1  0
 17 36  1  0
 17 37  1  0
 18 38  1  0
 18 39  1  0
M  ISO  8  19  13  20  13  21  13  22  13  23  13  24  13  25  13  26  13
M  ISO  8  27  13  28  14  29  14  30  14  31  13  32  13  33  13  34  13
M  ISO  5  35   5  36  13  37  13  38  13  39  13
M  END
>  <minimizedAffinity>  (1) 
-4.08133316

>  <minimizedRMSD>  (1) 
3.21585345

$$$$
