
     RDKit          3D

 27 28  0  0  1  0  0  0  0  0999 V2000
   36.6430   26.3270   32.5020 N   0  0  0  0  0  0  0  0  0  0  0  0
   36.8310   27.3780   33.4830 C   0  0  0  0  0  0  0  0  0  0  0  0
   36.5390   28.7430   33.0090 C   0  0  0  0  0  0  0  0  0  0  0  0
   36.8150   29.0240   31.5870 C   0  0  0  0  0  0  0  0  0  0  0  0
   36.8790   27.8010   30.7000 C   0  0  0  0  0  0  0  0  0  0  0  0
   35.9340   26.7790   31.3590 C   0  0  2  0  0  0  0  0  0  0  0  0
   38.0620   24.7010   33.7450 C   0  0  0  0  0  0  0  0  0  0  0  0
   37.1420   25.0150   32.7310 C   0  0  0  0  0  0  0  0  0  0  0  0
   36.6990   23.9820   31.9050 C   0  0  0  0  0  0  0  0  0  0  0  0
   37.1760   22.7340   32.1180 N   0  0  0  0  0  0  0  0  0  0  0  0
   38.0590   22.4730   33.1030 C   0  0  0  0  0  0  0  0  0  0  0  0
   38.5060   23.4520   33.9190 N   0  0  0  0  0  0  0  0  0  0  0  0
   34.6700   27.3860   31.7220 N   0  0  0  0  0  0  0  0  0  0  0  0
   36.1714   27.1669   34.3376 H   0  0  0  0  0  0  0  0  0  0  0  0
   37.9009   27.3675   33.7382 H   0  0  0  0  0  0  0  0  0  0  0  0
   35.4705   28.9357   33.1855 H   0  0  0  0  0  0  0  0  0  0  0  0
   37.2227   29.3965   33.5707 H   0  0  0  0  0  0  0  0  0  0  0  0
   36.0187   29.6810   31.2071 H   0  0  0  0  0  0  0  0  0  0  0  0
   37.8127   29.4857   31.5505 H   0  0  0  0  0  0  0  0  0  0  0  0
   37.9053   27.4073   30.6582 H   0  0  0  0  0  0  0  0  0  0  0  0
   36.5851   28.0266   29.6643 H   0  0  0  0  0  0  0  0  0  0  0  0
   35.6740   25.9534   30.6802 H   0  0  0  0  0  0  0  0  0  0  0  0
   38.4246   25.4991   34.4095 H   0  0  0  0  0  0  0  0  0  0  0  0
   35.9776   24.1778   31.0980 H   0  0  0  0  0  0  0  0  0  0  0  0
   38.4218   21.4442   33.2445 H   0  0  0  0  0  0  0  0  0  0  0  0
   34.5898   27.4245   32.7481 H   0  0  0  0  0  0  0  0  0  0  0  0
   34.6247   28.3407   31.3380 H   0  0  0  0  0  0  0  0  0  0  0  0
  1  8  1  0
  1  2  1  0
  3  2  1  0
  4  3  1  0
  5  6  1  0
  5  4  1  0
  6 13  1  0
  6  1  1  0
  7 12  2  0
  8  7  1  0
  9 10  1  0
  9  8  2  0
 10 11  2  0
 11 12  1  0
  2 14  1  0
  2 15  1  0
  3 16  1  0
  3 17  1  0
  4 18  1  0
  4 19  1  0
  5 20  1  0
  5 21  1  0
  6 22  1  6
  7 23  1  0
  9 24  1  0
 11 25  1  0
 13 26  1  0
 13 27  1  0
M  ISO  8  14  13  15  13  16  13  17  13  18  13  19  13  20  13  21  13
M  ISO  6  22  13  23  14  24  14  25  14  26   5  27   5
M  END
>  <minimizedAffinity>  (1) 
-2.5654788

>  <minimizedRMSD>  (1) 
0.288772047

$$$$
