
     RDKit          3D

 45 48  0  0  1  0  0  0  0  0999 V2000
   37.9720   25.5130   34.1810 N   0  0  0  0  0  0  0  0  0  0  0  0
   37.3530   26.7750   34.5490 C   0  0  0  0  0  0  0  0  0  0  0  0
   37.0810   27.7240   33.4710 C   0  0  0  0  0  0  0  0  0  0  0  0
   38.0510   27.6950   32.3230 C   0  0  0  0  0  0  0  0  0  0  0  0
   38.9040   26.4760   32.2720 C   0  0  0  0  0  0  0  0  0  0  0  0
   38.0160   25.3290   32.7950 C   0  0  2  0  0  0  0  0  0  0  0  0
   36.7680   25.2270   32.0860 N   0  0  0  0  0  0  0  0  0  0  0  0
   35.9580   26.1780   31.6000 C   0  0  0  0  0  0  0  0  0  0  0  0
   34.9030   25.5580   31.0200 C   0  0  0  0  0  0  0  0  0  0  0  0
   35.0850   24.2400   31.1610 N   0  0  0  0  0  0  0  0  0  0  0  0
   36.2400   24.0300   31.8210 C   0  0  0  0  0  0  0  0  0  0  0  0
   36.4340   22.6300   31.9530 N   0  0  0  0  0  0  0  0  0  0  0  0
   35.4470   21.6930   31.8720 C   0  0  0  0  0  0  0  0  0  0  0  0
   35.6950   20.3420   31.9910 C   0  0  0  0  0  0  0  0  0  0  0  0
   34.5840   19.3570   31.8960 C   0  0  0  0  0  0  0  0  0  0  0  0
   36.9960   19.9350   32.1990 C   0  0  0  0  0  0  0  0  0  0  0  0
   37.2490   18.7080   32.3110 O   0  0  0  0  0  0  0  0  0  0  0  0
   38.0110   20.8090   32.2880 N   0  0  0  0  0  0  0  0  0  0  0  0
   37.6520   22.0970   32.1580 C   0  0  0  0  0  0  0  0  0  0  0  0
   38.6000   22.9530   32.2390 O   0  0  0  0  0  0  0  0  0  0  0  0
   37.6550   24.1330   36.2110 C   0  0  0  0  0  0  0  0  0  0  0  0
   38.4460   24.6360   35.1750 C   0  0  0  0  0  0  0  0  0  0  0  0
   39.7560   24.2400   35.1260 C   0  0  0  0  0  0  0  0  0  0  0  0
   40.2550   23.3930   36.0520 N   0  0  0  0  0  0  0  0  0  0  0  0
   39.4510   22.9210   37.0520 C   0  0  0  0  0  0  0  0  0  0  0  0
   38.1540   23.2980   37.1220 N   0  0  0  0  0  0  0  0  0  0  0  0
   36.3943   26.5439   35.0364 H   0  0  0  0  0  0  0  0  0  0  0  0
   38.0922   27.2776   35.1900 H   0  0  0  0  0  0  0  0  0  0  0  0
   36.0787   27.5069   33.0733 H   0  0  0  0  0  0  0  0  0  0  0  0
   37.1732   28.7244   33.9190 H   0  0  0  0  0  0  0  0  0  0  0  0
   37.4777   27.7537   31.3861 H   0  0  0  0  0  0  0  0  0  0  0  0
   38.7301   28.5489   32.4630 H   0  0  0  0  0  0  0  0  0  0  0  0
   39.2242   26.2739   31.2392 H   0  0  0  0  0  0  0  0  0  0  0  0
   39.8173   26.5918   32.8740 H   0  0  0  0  0  0  0  0  0  0  0  0
   38.4190   24.3249   32.5967 H   0  0  0  0  0  0  0  0  0  0  0  0
   36.1206   27.2642   31.6612 H   0  0  0  0  0  0  0  0  0  0  0  0
   34.0523   26.0481   30.5239 H   0  0  0  0  0  0  0  0  0  0  0  0
   34.4126   22.0279   31.7052 H   0  0  0  0  0  0  0  0  0  0  0  0
   34.2606   19.0703   32.9076 H   0  0  0  0  0  0  0  0  0  0  0  0
   33.7391   19.8083   31.3551 H   0  0  0  0  0  0  0  0  0  0  0  0
   34.9308   18.4642   31.3551 H   0  0  0  0  0  0  0  0  0  0  0  0
   38.9861   20.5158   32.4434 H   0  0  0  0  0  0  0  0  0  0  0  0
   36.5985   24.4324   36.2761 H   0  0  0  0  0  0  0  0  0  0  0  0
   40.4086   24.6157   34.3241 H   0  0  0  0  0  0  0  0  0  0  0  0
   39.8613   22.2308   37.8038 H   0  0  0  0  0  0  0  0  0  0  0  0
  1  2  1  0
  1 22  1  0
  3  2  1  0
  4  3  1  0
  5  4  1  0
  5  6  1  0
  6  1  1  0
  7  6  1  0
  8  7  1  0
  9 10  1  0
  9  8  2  0
 10 11  2  0
 11 12  1  0
 11  7  1  0
 12 19  1  0
 13 12  1  0
 13 14  2  0
 14 16  1  0
 15 14  1  0
 16 18  1  0
 16 17  2  0
 19 20  2  0
 19 18  1  0
 21 26  2  0
 22 21  1  0
 23 22  2  0
 23 24  1  0
 24 25  2  0
 25 26  1  0
  2 27  1  0
  2 28  1  0
  3 29  1  0
  3 30  1  0
  4 31  1  0
  4 32  1  0
  5 33  1  0
  5 34  1  0
  6 35  1  1
  8 36  1  0
  9 37  1  0
 13 38  1  0
 15 39  1  0
 15 40  1  0
 15 41  1  0
 18 42  1  0
 21 43  1  0
 23 44  1  0
 25 45  1  0
M  ISO  8  27  13  28  13  29  13  30  13  31  13  32  13  33  13  34  13
M  ISO  8  35  13  36  14  37  14  38  14  39   8  40   8  41   8  42   9
M  ISO  3  43  14  44  14  45  14
M  END
>  <minimizedAffinity>  (1) 
-6.06457567

>  <minimizedRMSD>  (1) 
5.82401133

$$$$
