
     RDKit          3D

 42 45  0  0  1  0  0  0  0  0999 V2000
   38.0390   25.1480   34.0150 N   0  0  0  0  0  0  0  0  0  0  0  0
   37.3600   26.2690   34.6370 C   0  0  0  0  0  0  0  0  0  0  0  0
   37.0020   27.3930   33.7720 C   0  0  0  0  0  0  0  0  0  0  0  0
   37.9330   27.6460   32.6180 C   0  0  0  0  0  0  0  0  0  0  0  0
   38.8490   26.5110   32.3030 C   0  0  0  0  0  0  0  0  0  0  0  0
   38.0430   25.2330   32.6170 C   0  0  2  0  0  0  0  0  0  0  0  0
   36.7830   25.1960   31.9360 N   0  0  0  0  0  0  0  0  0  0  0  0
   36.0180   26.1900   31.4380 C   0  0  0  0  0  0  0  0  0  0  0  0
   34.9120   25.6180   30.9010 C   0  0  0  0  0  0  0  0  0  0  0  0
   35.0140   24.2940   31.0740 N   0  0  0  0  0  0  0  0  0  0  0  0
   36.1710   24.0290   31.7150 C   0  0  0  0  0  0  0  0  0  0  0  0
   36.2820   22.6230   31.8820 N   0  0  0  0  0  0  0  0  0  0  0  0
   35.2740   21.7660   32.1410 C   0  0  0  0  0  0  0  0  0  0  0  0
   35.4590   20.4080   32.2740 C   0  0  0  0  0  0  0  0  0  0  0  0
   36.7290   19.9000   32.1350 C   0  0  0  0  0  0  0  0  0  0  0  0
   36.9070   18.6690   32.2530 O   0  0  0  0  0  0  0  0  0  0  0  0
   37.7730   20.7020   31.8770 N   0  0  0  0  0  0  0  0  0  0  0  0
   37.4960   22.0090   31.7650 C   0  0  0  0  0  0  0  0  0  0  0  0
   38.4720   22.7820   31.5200 O   0  0  0  0  0  0  0  0  0  0  0  0
   37.9330   22.9480   35.1450 C   0  0  0  0  0  0  0  0  0  0  0  0
   38.6070   24.1270   34.7980 C   0  0  0  0  0  0  0  0  0  0  0  0
   39.8920   24.2760   35.2470 C   0  0  0  0  0  0  0  0  0  0  0  0
   40.4770   23.3100   35.9970 N   0  0  0  0  0  0  0  0  0  0  0  0
   39.7860   22.1730   36.3150 C   0  0  0  0  0  0  0  0  0  0  0  0
   38.5100   22.0040   35.8790 N   0  0  0  0  0  0  0  0  0  0  0  0
   36.4311   25.8867   35.0854 H   0  0  0  0  0  0  0  0  0  0  0  0
   38.0864   26.6805   35.3532 H   0  0  0  0  0  0  0  0  0  0  0  0
   35.9997   27.1991   33.3623 H   0  0  0  0  0  0  0  0  0  0  0  0
   37.0569   28.2904   34.4058 H   0  0  0  0  0  0  0  0  0  0  0  0
   37.3251   27.8551   31.7254 H   0  0  0  0  0  0  0  0  0  0  0  0
   38.5719   28.4923   32.9106 H   0  0  0  0  0  0  0  0  0  0  0  0
   39.7518   26.5600   32.9295 H   0  0  0  0  0  0  0  0  0  0  0  0
   39.1847   26.5354   31.2557 H   0  0  0  0  0  0  0  0  0  0  0  0
   38.4909   24.3103   32.2196 H   0  0  0  0  0  0  0  0  0  0  0  0
   36.2489   27.2652   31.4631 H   0  0  0  0  0  0  0  0  0  0  0  0
   34.0807   26.1464   30.4114 H   0  0  0  0  0  0  0  0  0  0  0  0
   34.2569   22.1702   32.2511 H   0  0  0  0  0  0  0  0  0  0  0  0
   34.6086   19.7436   32.4870 H   0  0  0  0  0  0  0  0  0  0  0  0
   38.7298   20.3357   31.7713 H   0  0  0  0  0  0  0  0  0  0  0  0
   36.8989   22.8010   34.8001 H   0  0  0  0  0  0  0  0  0  0  0  0
   40.4546   25.1876   34.9969 H   0  0  0  0  0  0  0  0  0  0  0  0
   40.2647   21.3931   36.9255 H   0  0  0  0  0  0  0  0  0  0  0  0
  1  2  1  0
  1 21  1  0
  3  2  1  0
  4  3  1  0
  5  6  1  0
  5  4  1  0
  6  1  1  0
  7  6  1  0
  8  7  1  0
  9 10  1  0
  9  8  2  0
 10 11  2  0
 11 12  1  0
 11  7  1  0
 12 13  1  0
 13 14  2  0
 15 16  2  0
 15 14  1  0
 17 15  1  0
 18 17  1  0
 18 12  1  0
 19 18  2  0
 20 25  2  0
 21 20  1  0
 21 22  2  0
 22 23  1  0
 23 24  2  0
 25 24  1  0
  2 26  1  0
  2 27  1  0
  3 28  1  0
  3 29  1  0
  4 30  1  0
  4 31  1  0
  5 32  1  0
  5 33  1  0
  6 34  1  6
  8 35  1  0
  9 36  1  0
 13 37  1  0
 14 38  1  0
 17 39  1  0
 20 40  1  0
 22 41  1  0
 24 42  1  0
M  ISO  8  26  13  27  13  28  13  29  13  30  13  31  13  32  13  33  13
M  ISO  8  34  13  35  14  36  14  37  14  38  14  39   9  40  14  41  14
M  ISO  1  42  14
M  END
>  <minimizedAffinity>  (1) 
-5.85513878

>  <minimizedRMSD>  (1) 
5.42557526

$$$$
