
     RDKit          3D

 44 47  0  0  1  0  0  0  0  0999 V2000
   37.6140   26.0390   33.8040 N   0  0  0  0  0  0  0  0  0  0  0  0
   37.4900   27.3820   34.3460 C   0  0  0  0  0  0  0  0  0  0  0  0
   38.1800   27.6510   35.6070 C   0  0  0  0  0  0  0  0  0  0  0  0
   38.3380   26.5000   36.5500 C   0  0  0  0  0  0  0  0  0  0  0  0
   38.0790   25.1630   35.9250 C   0  0  0  0  0  0  0  0  0  0  0  0
   38.5920   25.2880   34.4770 C   0  0  2  0  0  0  0  0  0  0  0  0
   39.9490   25.7370   34.4120 N   0  0  0  0  0  0  0  0  0  0  0  0
   40.5030   26.8600   33.9230 C   0  0  0  0  0  0  0  0  0  0  0  0
   41.8330   26.7950   34.1070 C   0  0  0  0  0  0  0  0  0  0  0  0
   42.0990   25.6410   34.7020 N   0  0  0  0  0  0  0  0  0  0  0  0
   40.9370   24.9790   34.8970 C   0  0  0  0  0  0  0  0  0  0  0  0
   41.2000   23.7460   35.5450 N   0  0  0  0  0  0  0  0  0  0  0  0
   41.8970   23.1420   36.6700 C   0  0  0  0  0  0  0  0  0  0  0  0
   40.6930   22.5200   37.4180 C   0  0  0  0  0  0  0  0  0  0  0  0
   39.7660   22.1000   36.2770 C   0  0  0  0  0  0  0  0  0  0  0  0
   40.6260   22.4740   35.0440 C   0  0  0  0  0  0  0  0  0  0  0  0
   36.0820   26.4870   31.9270 C   0  0  0  0  0  0  0  0  0  0  0  0
   36.8110   25.6130   32.7350 C   0  0  0  0  0  0  0  0  0  0  0  0
   36.7370   24.2770   32.4560 C   0  0  0  0  0  0  0  0  0  0  0  0
   35.9660   23.8460   31.4140 N   0  0  0  0  0  0  0  0  0  0  0  0
   35.2690   24.7330   30.6490 C   0  0  0  0  0  0  0  0  0  0  0  0
   35.3330   26.0550   30.9150 N   0  0  0  0  0  0  0  0  0  0  0  0
   37.8851   28.0817   33.5948 H   0  0  0  0  0  0  0  0  0  0  0  0
   36.4203   27.5033   34.5719 H   0  0  0  0  0  0  0  0  0  0  0  0
   39.1866   28.0214   35.3628 H   0  0  0  0  0  0  0  0  0  0  0  0
   37.5391   28.3708   36.1372 H   0  0  0  0  0  0  0  0  0  0  0  0
   39.3678   26.5079   36.9367 H   0  0  0  0  0  0  0  0  0  0  0  0
   37.5878   26.6322   37.3436 H   0  0  0  0  0  0  0  0  0  0  0  0
   38.6263   24.3739   36.4614 H   0  0  0  0  0  0  0  0  0  0  0  0
   37.0137   24.8912   35.9619 H   0  0  0  0  0  0  0  0  0  0  0  0
   38.6932   24.3245   33.9559 H   0  0  0  0  0  0  0  0  0  0  0  0
   39.9594   27.6921   33.4516 H   0  0  0  0  0  0  0  0  0  0  0  0
   42.5674   27.5607   33.8164 H   0  0  0  0  0  0  0  0  0  0  0  0
   42.6161   22.3765   36.3432 H   0  0  0  0  0  0  0  0  0  0  0  0
   42.5092   23.8348   37.2660 H   0  0  0  0  0  0  0  0  0  0  0  0
   41.0042   21.6508   38.0161 H   0  0  0  0  0  0  0  0  0  0  0  0
   40.2199   23.2103   38.1320 H   0  0  0  0  0  0  0  0  0  0  0  0
   39.5510   21.0216   36.3074 H   0  0  0  0  0  0  0  0  0  0  0  0
   38.7747   22.5763   36.2996 H   0  0  0  0  0  0  0  0  0  0  0  0
   40.0133   22.6237   34.1428 H   0  0  0  0  0  0  0  0  0  0  0  0
   41.3568   21.7155   34.7269 H   0  0  0  0  0  0  0  0  0  0  0  0
   36.1279   27.5666   32.1330 H   0  0  0  0  0  0  0  0  0  0  0  0
   37.2953   23.5527   33.0673 H   0  0  0  0  0  0  0  0  0  0  0  0
   34.6528   24.3708   29.8128 H   0  0  0  0  0  0  0  0  0  0  0  0
  1  2  1  0
  1  6  1  0
  2  3  1  0
  3  4  1  0
  5  4  1  0
  6  5  1  0
  7  6  1  0
  7 11  1  0
  8  9  2  0
  8  7  1  0
  9 10  1  0
 10 11  2  0
 11 12  1  0
 12 13  1  0
 13 14  1  0
 15 14  1  0
 16 12  1  0
 16 15  1  0
 17 18  2  0
 18  1  1  0
 19 18  1  0
 20 19  2  0
 21 22  2  0
 21 20  1  0
 22 17  1  0
  2 23  1  0
  2 24  1  0
  3 25  1  0
  3 26  1  0
  4 27  1  0
  4 28  1  0
  5 29  1  0
  5 30  1  0
  6 31  1  6
  8 32  1  0
  9 33  1  0
 13 34  1  0
 13 35  1  0
 14 36  1  0
 14 37  1  0
 15 38  1  0
 15 39  1  0
 16 40  1  0
 16 41  1  0
 17 42  1  0
 19 43  1  0
 21 44  1  0
M  ISO  8  23  13  24  13  25  13  26  13  27  13  28  13  29  13  30  13
M  ISO  8  31  13  32  14  33  14  34  13  35  13  36  13  37  13  38  13
M  ISO  6  39  13  40  13  41  13  42  14  43  14  44  14
M  END
>  <minimizedAffinity>  (1) 
-5.41403341

>  <minimizedRMSD>  (1) 
3.63747072

$$$$
