
     RDKit          3D

 45 48  0  0  1  0  0  0  0  0999 V2000
   37.7820   25.4710   33.6670 N   0  0  0  0  0  0  0  0  0  0  0  0
   37.3010   26.8030   33.9660 C   0  0  0  0  0  0  0  0  0  0  0  0
   37.9430   27.5120   35.0790 C   0  0  0  0  0  0  0  0  0  0  0  0
   38.4610   26.6620   36.1860 C   0  0  0  0  0  0  0  0  0  0  0  0
   38.5850   25.2010   35.8460 C   0  0  0  0  0  0  0  0  0  0  0  0
   38.9610   25.1710   34.3560 C   0  0  2  0  0  0  0  0  0  0  0  0
   40.1270   25.9480   34.0610 N   0  0  0  0  0  0  0  0  0  0  0  0
   40.2570   27.1920   33.5540 C   0  0  0  0  0  0  0  0  0  0  0  0
   41.5740   27.4720   33.4600 C   0  0  0  0  0  0  0  0  0  0  0  0
   42.2330   26.4030   33.9080 N   0  0  0  0  0  0  0  0  0  0  0  0
   41.3450   25.4680   34.2790 C   0  0  0  0  0  0  0  0  0  0  0  0
   42.0800   24.3570   34.7570 N   0  0  0  0  0  0  0  0  0  0  0  0
   41.2320   23.2000   34.9770 C   0  0  0  0  0  0  0  0  0  0  0  0
   41.9880   22.1250   35.7340 C   0  0  0  0  0  0  0  0  0  0  0  0
   42.6650   22.5810   36.8370 O   0  0  0  0  0  0  0  0  0  0  0  0
   43.3560   23.7720   36.6370 C   0  0  0  0  0  0  0  0  0  0  0  0
   43.4510   24.0500   35.1250 C   0  0  0  0  0  0  0  0  0  0  0  0
   36.1460   25.0850   31.8540 C   0  0  0  0  0  0  0  0  0  0  0  0
   37.0890   24.6380   32.7790 C   0  0  0  0  0  0  0  0  0  0  0  0
   37.3390   23.2890   32.7980 C   0  0  0  0  0  0  0  0  0  0  0  0
   36.7010   22.4500   31.9600 N   0  0  0  0  0  0  0  0  0  0  0  0
   35.7830   22.9330   31.0700 C   0  0  0  0  0  0  0  0  0  0  0  0
   35.5150   24.2590   31.0270 N   0  0  0  0  0  0  0  0  0  0  0  0
   37.4359   27.4147   33.0618 H   0  0  0  0  0  0  0  0  0  0  0  0
   36.2566   26.6638   34.2822 H   0  0  0  0  0  0  0  0  0  0  0  0
   38.7893   28.0833   34.6699 H   0  0  0  0  0  0  0  0  0  0  0  0
   37.1537   28.1328   35.5280 H   0  0  0  0  0  0  0  0  0  0  0  0
   39.4567   27.0347   36.4682 H   0  0  0  0  0  0  0  0  0  0  0  0
   37.7279   26.7318   37.0031 H   0  0  0  0  0  0  0  0  0  0  0  0
   39.3711   24.7280   36.4529 H   0  0  0  0  0  0  0  0  0  0  0  0
   37.6557   24.6487   36.0493 H   0  0  0  0  0  0  0  0  0  0  0  0
   39.3082   24.1853   34.0126 H   0  0  0  0  0  0  0  0  0  0  0  0
   39.4327   27.8615   33.2672 H   0  0  0  0  0  0  0  0  0  0  0  0
   42.0193   28.4053   33.0849 H   0  0  0  0  0  0  0  0  0  0  0  0
   40.3507   23.5028   35.5615 H   0  0  0  0  0  0  0  0  0  0  0  0
   40.9197   22.7967   34.0024 H   0  0  0  0  0  0  0  0  0  0  0  0
   41.2660   21.3633   36.0635 H   0  0  0  0  0  0  0  0  0  0  0  0
   42.7448   21.7260   35.0426 H   0  0  0  0  0  0  0  0  0  0  0  0
   42.8203   24.5963   37.1304 H   0  0  0  0  0  0  0  0  0  0  0  0
   44.3666   23.6910   37.0638 H   0  0  0  0  0  0  0  0  0  0  0  0
   43.8160   23.1649   34.5834 H   0  0  0  0  0  0  0  0  0  0  0  0
   44.1551   24.8584   34.8785 H   0  0  0  0  0  0  0  0  0  0  0  0
   35.9166   26.1598   31.8076 H   0  0  0  0  0  0  0  0  0  0  0  0
   38.0737   22.8857   33.5105 H   0  0  0  0  0  0  0  0  0  0  0  0
   35.2621   22.2441   30.3888 H   0  0  0  0  0  0  0  0  0  0  0  0
  1  2  1  0
  1  6  1  0
  2  3  1  0
  3  4  1  0
  5  4  1  0
  6  5  1  0
  7 11  1  0
  7  6  1  0
  8  7  1  0
  9  8  2  0
  9 10  1  0
 10 11  2  0
 11 12  1  0
 12 13  1  0
 12 17  1  0
 13 14  1  0
 14 15  1  0
 16 15  1  0
 17 16  1  0
 18 19  2  0
 19 20  1  0
 19  1  1  0
 21 20  2  0
 22 21  1  0
 23 22  2  0
 23 18  1  0
  2 24  1  0
  2 25  1  0
  3 26  1  0
  3 27  1  0
  4 28  1  0
  4 29  1  0
  5 30  1  0
  5 31  1  0
  6 32  1  6
  8 33  1  0
  9 34  1  0
 13 35  1  0
 13 36  1  0
 14 37  1  0
 14 38  1  0
 16 39  1  0
 16 40  1  0
 17 41  1  0
 17 42  1  0
 18 43  1  0
 20 44  1  0
 22 45  1  0
M  ISO  8  24  13  25  13  26  13  27  13  28  13  29  13  30  13  31  13
M  ISO  8  32  13  33  14  34  14  35  13  36  13  37  13  38  13  39  13
M  ISO  6  40  13  41  13  42  13  43  14  44  14  45  14
M  END
>  <minimizedAffinity>  (1) 
-5.02697945

>  <minimizedRMSD>  (1) 
3.87681174

$$$$
