
     RDKit          3D

 39 42  0  0  1  0  0  0  0  0999 V2000
   37.7860   25.8190   34.0110 N   0  0  0  0  0  0  0  0  0  0  0  0
   38.1530   27.1300   34.4820 C   0  0  0  0  0  0  0  0  0  0  0  0
   38.7990   27.2160   35.7990 C   0  0  0  0  0  0  0  0  0  0  0  0
   38.3640   26.1730   36.7910 C   0  0  0  0  0  0  0  0  0  0  0  0
   37.6510   25.0080   36.1990 C   0  0  0  0  0  0  0  0  0  0  0  0
   38.2970   24.7900   34.8120 C   0  0  2  0  0  0  0  0  0  0  0  0
   36.7240   24.4670   32.2290 C   0  0  0  0  0  0  0  0  0  0  0  0
   36.9870   25.6760   32.8600 C   0  0  0  0  0  0  0  0  0  0  0  0
   36.4160   26.8190   32.3150 C   0  0  0  0  0  0  0  0  0  0  0  0
   35.6360   26.7230   31.2100 N   0  0  0  0  0  0  0  0  0  0  0  0
   35.4060   25.5100   30.6230 C   0  0  0  0  0  0  0  0  0  0  0  0
   35.9600   24.3820   31.1460 N   0  0  0  0  0  0  0  0  0  0  0  0
   39.7220   24.6540   34.8860 N   0  0  0  0  0  0  0  0  0  0  0  0
   40.7170   25.3710   34.3120 C   0  0  0  0  0  0  0  0  0  0  0  0
   41.8940   24.8250   34.6940 C   0  0  0  0  0  0  0  0  0  0  0  0
   41.6150   23.8000   35.4830 N   0  0  0  0  0  0  0  0  0  0  0  0
   40.2750   23.6790   35.6150 C   0  0  0  0  0  0  0  0  0  0  0  0
   39.8650   22.5590   36.5110 C   0  0  0  0  0  0  0  0  0  0  0  0
   40.8950   21.9630   37.4690 C   0  0  0  0  0  0  0  0  0  0  0  0
   39.8480   22.8440   37.9830 C   0  0  0  0  0  0  0  0  0  0  0  0
   38.8451   27.5641   33.7454 H   0  0  0  0  0  0  0  0  0  0  0  0
   37.1993   27.6653   34.5995 H   0  0  0  0  0  0  0  0  0  0  0  0
   39.8847   27.1163   35.6534 H   0  0  0  0  0  0  0  0  0  0  0  0
   38.5019   28.1862   36.2237 H   0  0  0  0  0  0  0  0  0  0  0  0
   39.2593   25.7991   37.3093 H   0  0  0  0  0  0  0  0  0  0  0  0
   37.6470   26.6656   37.4643 H   0  0  0  0  0  0  0  0  0  0  0  0
   37.7828   24.1160   36.8290 H   0  0  0  0  0  0  0  0  0  0  0  0
   36.5687   25.1883   36.1213 H   0  0  0  0  0  0  0  0  0  0  0  0
   38.0366   23.8276   34.3472 H   0  0  0  0  0  0  0  0  0  0  0  0
   37.1642   23.5470   32.6410 H   0  0  0  0  0  0  0  0  0  0  0  0
   36.5962   27.8000   32.7789 H   0  0  0  0  0  0  0  0  0  0  0  0
   34.7721   25.4454   29.7264 H   0  0  0  0  0  0  0  0  0  0  0  0
   40.5906   26.2423   33.6525 H   0  0  0  0  0  0  0  0  0  0  0  0
   42.8973   25.1693   34.4027 H   0  0  0  0  0  0  0  0  0  0  0  0
   39.1694   22.1505   35.7632 H   0  0  0  0  0  0  0  0  0  0  0  0
   40.8719   20.8881   37.7015 H   0  0  0  0  0  0  0  0  0  0  0  0
   41.9938   21.9508   37.5189 H   0  0  0  0  0  0  0  0  0  0  0  0
   40.1117   23.8484   38.3458 H   0  0  0  0  0  0  0  0  0  0  0  0
   39.0874   22.7494   38.7720 H   0  0  0  0  0  0  0  0  0  0  0  0
  1  2  1  0
  1  6  1  0
  2  3  1  0
  3  4  1  0
  5  4  1  0
  6 13  1  0
  6  5  1  0
  7  8  2  0
  8  1  1  0
  9  8  1  0
 10  9  2  0
 11 12  2  0
 11 10  1  0
 12  7  1  0
 13 17  1  0
 14 15  2  0
 14 13  1  0
 15 16  1  0
 16 17  2  0
 17 18  1  0
 18 19  1  0
 18 20  1  0
 19 20  1  0
  2 21  1  0
  2 22  1  0
  3 23  1  0
  3 24  1  0
  4 25  1  0
  4 26  1  0
  5 27  1  0
  5 28  1  0
  6 29  1  6
  7 30  1  0
  9 31  1  0
 11 32  1  0
 14 33  1  0
 15 34  1  0
 18 35  1  0
 19 36  1  0
 19 37  1  0
 20 38  1  0
 20 39  1  0
M  ISO  8  21  13  22  13  23  13  24  13  25  13  26  13  27  13  28  13
M  ISO  8  29  13  30  14  31  14  32  14  33  14  34  14  35  13  36  13
M  ISO  3  37  13  38  13  39  13
M  END
>  <minimizedAffinity>  (1) 
-5.01762867

>  <minimizedRMSD>  (1) 
3.63206291

$$$$
