
     RDKit          3D

 39 42  0  0  1  0  0  0  0  0999 V2000
   38.0180   24.4390   34.9310 N   0  0  0  0  0  0  0  0  0  0  0  0
   37.8820   25.2690   36.1140 C   0  0  0  0  0  0  0  0  0  0  0  0
   38.1020   24.6240   37.4090 C   0  0  0  0  0  0  0  0  0  0  0  0
   37.7280   23.1730   37.4880 C   0  0  0  0  0  0  0  0  0  0  0  0
   37.5460   22.5080   36.1640 C   0  0  0  0  0  0  0  0  0  0  0  0
   38.5660   23.1870   35.2270 C   0  0  2  0  0  0  0  0  0  0  0  0
   37.3340   26.2600   33.4010 C   0  0  0  0  0  0  0  0  0  0  0  0
   37.6210   24.9160   33.6730 C   0  0  0  0  0  0  0  0  0  0  0  0
   37.5090   24.0310   32.6350 C   0  0  0  0  0  0  0  0  0  0  0  0
   37.1390   24.4500   31.4010 N   0  0  0  0  0  0  0  0  0  0  0  0
   36.8700   25.7670   31.1800 C   0  0  0  0  0  0  0  0  0  0  0  0
   36.9720   26.6700   32.1930 N   0  0  0  0  0  0  0  0  0  0  0  0
   39.9000   23.1450   35.7400 N   0  0  0  0  0  0  0  0  0  0  0  0
   40.4590   22.3670   36.6930 C   0  0  0  0  0  0  0  0  0  0  0  0
   41.7570   22.7270   36.8140 C   0  0  0  0  0  0  0  0  0  0  0  0
   41.9800   23.7140   35.9400 N   0  0  0  0  0  0  0  0  0  0  0  0
   40.8430   23.9630   35.2870 C   0  0  0  0  0  0  0  0  0  0  0  0
   41.0740   25.0470   34.2940 C   0  0  0  0  0  0  0  0  0  0  0  0
   41.1210   26.4440   34.6570 C   0  0  0  0  0  0  0  0  0  0  0  0
   41.3250   27.3120   33.6170 C   0  0  0  0  0  0  0  0  0  0  0  0
   41.4750   26.9020   32.3260 C   0  0  0  0  0  0  0  0  0  0  0  0
   41.3130   25.0210   32.5580 S   0  0  0  0  0  0  0  0  0  0  0  0
   38.6063   26.0922   36.0264 H   0  0  0  0  0  0  0  0  0  0  0  0
   36.8264   25.5780   36.1254 H   0  0  0  0  0  0  0  0  0  0  0  0
   39.1714   24.7105   37.6518 H   0  0  0  0  0  0  0  0  0  0  0  0
   37.4389   25.1423   38.1173 H   0  0  0  0  0  0  0  0  0  0  0  0
   38.5229   22.6424   38.0327 H   0  0  0  0  0  0  0  0  0  0  0  0
   36.7540   23.1281   37.9973 H   0  0  0  0  0  0  0  0  0  0  0  0
   37.7518   21.4302   36.2421 H   0  0  0  0  0  0  0  0  0  0  0  0
   36.5157   22.6079   35.7918 H   0  0  0  0  0  0  0  0  0  0  0  0
   38.7171   22.6515   34.2781 H   0  0  0  0  0  0  0  0  0  0  0  0
   37.4113   26.9972   34.2138 H   0  0  0  0  0  0  0  0  0  0  0  0
   37.7223   22.9653   32.8050 H   0  0  0  0  0  0  0  0  0  0  0  0
   36.5685   26.1026   30.1767 H   0  0  0  0  0  0  0  0  0  0  0  0
   39.9488   21.5804   37.2683 H   0  0  0  0  0  0  0  0  0  0  0  0
   42.4932   22.2888   37.5039 H   0  0  0  0  0  0  0  0  0  0  0  0
   41.0014   26.7869   35.6953 H   0  0  0  0  0  0  0  0  0  0  0  0
   41.3698   28.3895   33.8339 H   0  0  0  0  0  0  0  0  0  0  0  0
   41.6419   27.4903   31.4117 H   0  0  0  0  0  0  0  0  0  0  0  0
  1  6  1  0
  1  2  1  0
  2  3  1  0
  3  4  1  0
  5  4  1  0
  6 13  1  0
  6  5  1  0
  7  8  2  0
  8  1  1  0
  9  8  1  0
 10  9  2  0
 11 10  1  0
 11 12  2  0
 12  7  1  0
 13 14  1  0
 14 15  2  0
 16 15  1  0
 17 13  1  0
 17 16  2  0
 18 19  2  0
 18 17  1  0
 20 19  1  0
 21 22  1  0
 21 20  2  0
 22 18  1  0
  2 23  1  0
  2 24  1  0
  3 25  1  0
  3 26  1  0
  4 27  1  0
  4 28  1  0
  5 29  1  0
  5 30  1  0
  6 31  1  6
  7 32  1  0
  9 33  1  0
 11 34  1  0
 14 35  1  0
 15 36  1  0
 19 37  1  0
 20 38  1  0
 21 39  1  0
M  ISO  8  23  13  24  13  25  13  26  13  27  13  28  13  29  13  30  13
M  ISO  8  31  13  32  14  33  14  34  14  35  14  36  14  37  14  38  14
M  ISO  1  39  14
M  END
>  <minimizedAffinity>  (1) 
-4.8282094

>  <minimizedRMSD>  (1) 
3.62704372

$$$$
