
     RDKit          3D

 41 44  0  0  1  0  0  0  0  0999 V2000
   37.6870   25.8320   33.8350 N   0  0  0  0  0  0  0  0  0  0  0  0
   37.8730   27.1220   34.4590 C   0  0  0  0  0  0  0  0  0  0  0  0
   38.6150   27.1550   35.7230 C   0  0  0  0  0  0  0  0  0  0  0  0
   38.4920   25.9370   36.5820 C   0  0  0  0  0  0  0  0  0  0  0  0
   37.9310   24.7380   35.8820 C   0  0  0  0  0  0  0  0  0  0  0  0
   38.4610   24.8310   34.4370 C   0  0  2  0  0  0  0  0  0  0  0  0
   36.2280   26.7490   32.0630 C   0  0  0  0  0  0  0  0  0  0  0  0
   36.8090   25.6730   32.7480 C   0  0  0  0  0  0  0  0  0  0  0  0
   36.5050   24.4050   32.3250 C   0  0  0  0  0  0  0  0  0  0  0  0
   35.6670   24.2210   31.2720 N   0  0  0  0  0  0  0  0  0  0  0  0
   35.1180   25.2940   30.6260 C   0  0  0  0  0  0  0  0  0  0  0  0
   35.4080   26.5600   31.0320 N   0  0  0  0  0  0  0  0  0  0  0  0
   39.8860   24.9640   34.3730 N   0  0  0  0  0  0  0  0  0  0  0  0
   40.8370   24.6880   35.2940 C   0  0  0  0  0  0  0  0  0  0  0  0
   42.0370   24.9940   34.7480 C   0  0  0  0  0  0  0  0  0  0  0  0
   41.8060   25.4470   33.5130 N   0  0  0  0  0  0  0  0  0  0  0  0
   40.4870   25.4320   33.2750 C   0  0  0  0  0  0  0  0  0  0  0  0
   40.2100   25.9090   31.9240 C   0  0  0  0  0  0  0  0  0  0  0  0
   40.3220   27.2670   31.5980 C   0  0  0  0  0  0  0  0  0  0  0  0
   40.1000   27.8290   30.3590 C   0  0  0  0  0  0  0  0  0  0  0  0
   39.7360   26.9240   29.3850 C   0  0  0  0  0  0  0  0  0  0  0  0
   39.6090   25.5770   29.6420 C   0  0  0  0  0  0  0  0  0  0  0  0
   39.8500   25.1340   30.8860 N   0  0  0  0  0  0  0  0  0  0  0  0
   38.4105   27.7613   33.7432 H   0  0  0  0  0  0  0  0  0  0  0  0
   36.8587   27.4605   34.7172 H   0  0  0  0  0  0  0  0  0  0  0  0
   39.6800   27.2944   35.4856 H   0  0  0  0  0  0  0  0  0  0  0  0
   38.1752   27.9775   36.3062 H   0  0  0  0  0  0  0  0  0  0  0  0
   39.4932   25.6786   36.9573 H   0  0  0  0  0  0  0  0  0  0  0  0
   37.7841   26.1904   37.3849 H   0  0  0  0  0  0  0  0  0  0  0  0
   38.2801   23.8121   36.3624 H   0  0  0  0  0  0  0  0  0  0  0  0
   36.8317   24.7176   35.9170 H   0  0  0  0  0  0  0  0  0  0  0  0
   38.3383   23.9018   33.8612 H   0  0  0  0  0  0  0  0  0  0  0  0
   36.4556   27.7757   32.3858 H   0  0  0  0  0  0  0  0  0  0  0  0
   36.9403   23.5354   32.8390 H   0  0  0  0  0  0  0  0  0  0  0  0
   34.4396   25.1332   29.7752 H   0  0  0  0  0  0  0  0  0  0  0  0
   40.6662   24.2873   36.3041 H   0  0  0  0  0  0  0  0  0  0  0  0
   43.0195   24.8891   35.2314 H   0  0  0  0  0  0  0  0  0  0  0  0
   40.6152   27.9504   32.4086 H   0  0  0  0  0  0  0  0  0  0  0  0
   40.2043   28.9066   30.1644 H   0  0  0  0  0  0  0  0  0  0  0  0
   39.5401   27.2907   28.3666 H   0  0  0  0  0  0  0  0  0  0  0  0
   39.3161   24.8785   28.8443 H   0  0  0  0  0  0  0  0  0  0  0  0
  1  6  1  0
  1  2  1  0
  2  3  1  0
  3  4  1  0
  5  4  1  0
  6  5  1  0
  7  8  2  0
  8  1  1  0
  9  8  1  0
 10  9  2  0
 11 12  2  0
 11 10  1  0
 12  7  1  0
 13  6  1  0
 13 14  1  0
 15 14  2  0
 16 15  1  0
 17 16  2  0
 17 13  1  0
 18 17  1  0
 19 18  2  0
 20 19  1  0
 21 22  1  0
 21 20  2  0
 22 23  2  0
 23 18  1  0
  2 24  1  0
  2 25  1  0
  3 26  1  0
  3 27  1  0
  4 28  1  0
  4 29  1  0
  5 30  1  0
  5 31  1  0
  6 32  1  6
  7 33  1  0
  9 34  1  0
 11 35  1  0
 14 36  1  0
 15 37  1  0
 19 38  1  0
 20 39  1  0
 21 40  1  0
 22 41  1  0
M  ISO  8  24  13  25  13  26  13  27  13  28  13  29  13  30  13  31  13
M  ISO  8  32  13  33  14  34  14  35  14  36  14  37  14  38  14  39  14
M  ISO  2  40  14  41  14
M  END
>  <minimizedAffinity>  (1) 
-4.50064278

>  <minimizedRMSD>  (1) 
1.61592937

$$$$
