
     RDKit          3D

 40 43  0  0  1  0  0  0  0  0999 V2000
   37.6660   25.8790   33.8030 N   0  0  0  0  0  0  0  0  0  0  0  0
   37.7950   27.1800   34.4490 C   0  0  0  0  0  0  0  0  0  0  0  0
   38.5610   27.2290   35.6900 C   0  0  0  0  0  0  0  0  0  0  0  0
   38.4870   25.9940   36.5470 C   0  0  0  0  0  0  0  0  0  0  0  0
   37.9760   24.7840   35.8400 C   0  0  0  0  0  0  0  0  0  0  0  0
   38.4870   24.9120   34.3920 C   0  0  2  0  0  0  0  0  0  0  0  0
   36.2020   26.7610   32.0130 C   0  0  0  0  0  0  0  0  0  0  0  0
   36.7900   25.7110   32.7200 C   0  0  0  0  0  0  0  0  0  0  0  0
   36.4860   24.4370   32.3200 C   0  0  0  0  0  0  0  0  0  0  0  0
   35.6470   24.2180   31.2780 N   0  0  0  0  0  0  0  0  0  0  0  0
   35.0900   25.2740   30.6090 C   0  0  0  0  0  0  0  0  0  0  0  0
   35.3790   26.5430   30.9920 N   0  0  0  0  0  0  0  0  0  0  0  0
   39.9090   25.0990   34.3220 N   0  0  0  0  0  0  0  0  0  0  0  0
   40.8790   24.8540   35.2160 C   0  0  0  0  0  0  0  0  0  0  0  0
   42.0600   25.2130   34.6550 C   0  0  0  0  0  0  0  0  0  0  0  0
   41.7950   25.6710   33.4260 N   0  0  0  0  0  0  0  0  0  0  0  0
   40.4660   25.6020   33.2150 C   0  0  0  0  0  0  0  0  0  0  0  0
   40.1420   26.0800   31.8770 C   0  0  0  0  0  0  0  0  0  0  0  0
   40.1020   27.3790   31.4120 C   0  0  0  0  0  0  0  0  0  0  0  0
   39.7880   27.6620   30.1030 C   0  0  0  0  0  0  0  0  0  0  0  0
   39.5090   26.6820   29.2260 N   0  0  0  0  0  0  0  0  0  0  0  0
   39.5450   25.4140   29.6720 C   0  0  0  0  0  0  0  0  0  0  0  0
   39.8510   25.1340   30.9520 N   0  0  0  0  0  0  0  0  0  0  0  0
   38.2794   27.8599   33.7327 H   0  0  0  0  0  0  0  0  0  0  0  0
   36.7703   27.4610   34.7338 H   0  0  0  0  0  0  0  0  0  0  0  0
   39.6164   27.3983   35.4302 H   0  0  0  0  0  0  0  0  0  0  0  0
   38.1158   28.0381   36.2876 H   0  0  0  0  0  0  0  0  0  0  0  0
   39.4978   25.7732   36.9205 H   0  0  0  0  0  0  0  0  0  0  0  0
   37.7709   26.2130   37.3527 H   0  0  0  0  0  0  0  0  0  0  0  0
   38.3696   23.8696   36.3079 H   0  0  0  0  0  0  0  0  0  0  0  0
   36.8789   24.7171   35.8830 H   0  0  0  0  0  0  0  0  0  0  0  0
   38.3973   23.9870   33.8035 H   0  0  0  0  0  0  0  0  0  0  0  0
   36.4256   27.7967   32.3086 H   0  0  0  0  0  0  0  0  0  0  0  0
   36.9280   23.5809   32.8508 H   0  0  0  0  0  0  0  0  0  0  0  0
   34.4100   25.0944   29.7632 H   0  0  0  0  0  0  0  0  0  0  0  0
   40.7408   24.4364   36.2242 H   0  0  0  0  0  0  0  0  0  0  0  0
   43.0526   25.1410   35.1236 H   0  0  0  0  0  0  0  0  0  0  0  0
   40.3259   28.2053   32.1027 H   0  0  0  0  0  0  0  0  0  0  0  0
   39.7648   28.7094   29.7677 H   0  0  0  0  0  0  0  0  0  0  0  0
   39.3202   24.5908   28.9779 H   0  0  0  0  0  0  0  0  0  0  0  0
  1  6  1  0
  1  2  1  0
  2  3  1  0
  3  4  1  0
  5  4  1  0
  6  5  1  0
  7  8  2  0
  8  1  1  0
  9  8  1  0
 10  9  2  0
 11 12  2  0
 11 10  1  0
 12  7  1  0
 13  6  1  0
 13 14  1  0
 15 14  2  0
 16 15  1  0
 17 16  2  0
 17 13  1  0
 18 17  1  0
 19 18  2  0
 20 19  1  0
 21 22  1  0
 21 20  2  0
 22 23  2  0
 23 18  1  0
  2 24  1  0
  2 25  1  0
  3 26  1  0
  3 27  1  0
  4 28  1  0
  4 29  1  0
  5 30  1  0
  5 31  1  0
  6 32  1  6
  7 33  1  0
  9 34  1  0
 11 35  1  0
 14 36  1  0
 15 37  1  0
 19 38  1  0
 20 39  1  0
 22 40  1  0
M  ISO  8  24  13  25  13  26  13  27  13  28  13  29  13  30  13  31  13
M  ISO  8  32  13  33  14  34  14  35  14  36  14  37  14  38  14  39  14
M  ISO  1  40  14
M  END
>  <minimizedAffinity>  (1) 
-4.46104097

>  <minimizedRMSD>  (1) 
1.65706503

$$$$
