
     RDKit          3D

 38 41  0  0  1  0  0  0  0  0999 V2000
   37.7610   25.3640   33.5860 N   0  0  0  0  0  0  0  0  0  0  0  0
   37.2990   26.7250   33.7670 C   0  0  0  0  0  0  0  0  0  0  0  0
   37.9350   27.5120   34.8230 C   0  0  0  0  0  0  0  0  0  0  0  0
   38.4030   26.7310   36.0200 C   0  0  0  0  0  0  0  0  0  0  0  0
   38.5000   25.2590   35.8020 C   0  0  0  0  0  0  0  0  0  0  0  0
   38.9160   25.0910   34.3270 C   0  0  2  0  0  0  0  0  0  0  0  0
   36.1440   24.8920   31.7730 C   0  0  0  0  0  0  0  0  0  0  0  0
   37.0670   24.4780   32.7420 C   0  0  0  0  0  0  0  0  0  0  0  0
   37.3030   23.1350   32.8590 C   0  0  0  0  0  0  0  0  0  0  0  0
   36.6650   22.2480   32.0630 N   0  0  0  0  0  0  0  0  0  0  0  0
   35.7700   22.6890   31.1260 C   0  0  0  0  0  0  0  0  0  0  0  0
   35.5180   24.0180   30.9910 N   0  0  0  0  0  0  0  0  0  0  0  0
   40.1010   25.8260   34.0010 N   0  0  0  0  0  0  0  0  0  0  0  0
   40.9900   26.4760   34.7960 C   0  0  0  0  0  0  0  0  0  0  0  0
   41.9360   27.0190   33.9980 C   0  0  0  0  0  0  0  0  0  0  0  0
   41.6270   26.7040   32.7470 N   0  0  0  0  0  0  0  0  0  0  0  0
   40.5020   25.9690   32.7370 C   0  0  0  0  0  0  0  0  0  0  0  0
   40.1330   25.5770   31.3680 C   0  0  0  0  0  0  0  0  0  0  0  0
   40.2220   24.3330   30.7810 C   0  0  0  0  0  0  0  0  0  0  0  0
   39.5900   24.5900   29.1260 S   0  0  0  0  0  0  0  0  0  0  0  0
   39.2780   26.4320   29.4810 C   0  0  0  0  0  0  0  0  0  0  0  0
   39.6360   26.4670   30.5380 N   0  0  0  0  0  0  0  0  0  0  0  0
   37.4567   27.2570   32.8172 H   0  0  0  0  0  0  0  0  0  0  0  0
   36.2485   26.6287   34.0788 H   0  0  0  0  0  0  0  0  0  0  0  0
   38.8079   28.0204   34.3877 H   0  0  0  0  0  0  0  0  0  0  0  0
   37.1611   28.1996   35.1948 H   0  0  0  0  0  0  0  0  0  0  0  0
   39.3989   27.1021   36.3038 H   0  0  0  0  0  0  0  0  0  0  0  0
   37.6468   26.8806   36.8048 H   0  0  0  0  0  0  0  0  0  0  0  0
   39.2575   24.8202   36.4680 H   0  0  0  0  0  0  0  0  0  0  0  0
   37.5499   24.7493   36.0200 H   0  0  0  0  0  0  0  0  0  0  0  0
   39.2497   24.0727   34.0785 H   0  0  0  0  0  0  0  0  0  0  0  0
   35.9323   25.9651   31.6565 H   0  0  0  0  0  0  0  0  0  0  0  0
   38.0206   22.7729   33.6099 H   0  0  0  0  0  0  0  0  0  0  0  0
   35.2525   21.9650   30.4795 H   0  0  0  0  0  0  0  0  0  0  0  0
   40.9476   26.5476   35.8928 H   0  0  0  0  0  0  0  0  0  0  0  0
   42.8023   27.6126   34.3254 H   0  0  0  0  0  0  0  0  0  0  0  0
   40.5949   23.3989   31.2263 H   0  0  0  0  0  0  0  0  0  0  0  0
   38.8680   27.2248   28.8381 H   0  0  0  0  0  0  0  0  0  0  0  0
  1  2  1  0
  1  6  1  0
  2  3  1  0
  3  4  1  0
  5  4  1  0
  6  5  1  0
  7  8  2  0
  8  9  1  0
  8  1  1  0
 10  9  2  0
 11 10  1  0
 12 11  2  0
 12  7  1  0
 13  6  1  0
 13 14  1  0
 15 14  2  0
 16 15  1  0
 17 16  2  0
 17 13  1  0
 18 17  1  0
 19 18  2  0
 20 21  1  0
 20 19  1  0
 21 22  2  0
 22 18  1  0
  2 23  1  0
  2 24  1  0
  3 25  1  0
  3 26  1  0
  4 27  1  0
  4 28  1  0
  5 29  1  0
  5 30  1  0
  6 31  1  1
  7 32  1  0
  9 33  1  0
 11 34  1  0
 14 35  1  0
 15 36  1  0
 19 37  1  0
 21 38  1  0
M  ISO  8  23  13  24  13  25  13  26  13  27  13  28  13  29  13  30  13
M  ISO  8  31  13  32  14  33  14  34  14  35  14  36  14  37  14  38  14
M  END
>  <minimizedAffinity>  (1) 
-4.26783657

>  <minimizedRMSD>  (1) 
0.978028893

$$$$
