
     RDKit          3D

 33 35  0  0  1  0  0  0  0  0999 V2000
   37.7480   25.4260   33.5350 N   0  0  0  0  0  0  0  0  0  0  0  0
   37.2310   26.7560   33.7750 C   0  0  0  0  0  0  0  0  0  0  0  0
   37.8920   27.5490   34.8180 C   0  0  0  0  0  0  0  0  0  0  0  0
   38.4540   26.7610   35.9670 C   0  0  0  0  0  0  0  0  0  0  0  0
   38.6000   25.2980   35.7080 C   0  0  0  0  0  0  0  0  0  0  0  0
   38.9490   25.1810   34.2120 C   0  0  2  0  0  0  0  0  0  0  0  0
   36.0920   24.9040   31.7650 C   0  0  0  0  0  0  0  0  0  0  0  0
   37.0430   24.5450   32.6980 C   0  0  0  0  0  0  0  0  0  0  0  0
   37.3170   23.1850   32.8090 C   0  0  0  0  0  0  0  0  0  0  0  0
   36.6720   22.2870   32.0300 N   0  0  0  0  0  0  0  0  0  0  0  0
   35.7420   22.7080   31.1270 C   0  0  0  0  0  0  0  0  0  0  0  0
   35.4600   24.0220   31.0030 N   0  0  0  0  0  0  0  0  0  0  0  0
   40.0970   25.9790   33.8510 N   0  0  0  0  0  0  0  0  0  0  0  0
   40.9470   26.6960   34.5930 C   0  0  0  0  0  0  0  0  0  0  0  0
   41.8500   27.2610   33.7560 C   0  0  0  0  0  0  0  0  0  0  0  0
   41.5390   26.8800   32.5170 N   0  0  0  0  0  0  0  0  0  0  0  0
   40.4540   26.0840   32.5660 C   0  0  0  0  0  0  0  0  0  0  0  0
   39.9100   25.4560   30.9850 S   0  0  0  0  0  0  0  0  0  0  0  0
   37.3083   27.3173   32.8322 H   0  0  0  0  0  0  0  0  0  0  0  0
   36.2048   26.6023   34.1400 H   0  0  0  0  0  0  0  0  0  0  0  0
   38.7188   28.1035   34.3501 H   0  0  0  0  0  0  0  0  0  0  0  0
   37.1126   28.1962   35.2466 H   0  0  0  0  0  0  0  0  0  0  0  0
   39.4475   27.1672   36.2076 H   0  0  0  0  0  0  0  0  0  0  0  0
   37.7343   26.8599   36.7930 H   0  0  0  0  0  0  0  0  0  0  0  0
   39.4067   24.8763   36.3256 H   0  0  0  0  0  0  0  0  0  0  0  0
   37.6833   24.7443   35.9590 H   0  0  0  0  0  0  0  0  0  0  0  0
   39.3079   24.1838   33.9172 H   0  0  0  0  0  0  0  0  0  0  0  0
   35.8471   25.9700   31.6481 H   0  0  0  0  0  0  0  0  0  0  0  0
   38.0649   22.8373   33.5369 H   0  0  0  0  0  0  0  0  0  0  0  0
   35.2191   21.9737   30.4966 H   0  0  0  0  0  0  0  0  0  0  0  0
   40.9183   26.8072   35.6870 H   0  0  0  0  0  0  0  0  0  0  0  0
   42.6863   27.9142   34.0456 H   0  0  0  0  0  0  0  0  0  0  0  0
   39.0223   24.4312   31.1816 H   0  0  0  0  0  0  0  0  0  0  0  0
  1  2  1  0
  1  6  1  0
  2  3  1  0
  3  4  1  0
  5  4  1  0
  6  5  1  0
  7  8  2  0
  8  9  1  0
  8  1  1  0
 10  9  2  0
 11 10  1  0
 12 11  2  0
 12  7  1  0
 13  6  1  0
 13 14  1  0
 15 14  2  0
 16 17  2  0
 16 15  1  0
 17 13  1  0
 18 17  1  0
  2 19  1  0
  2 20  1  0
  3 21  1  0
  3 22  1  0
  4 23  1  0
  4 24  1  0
  5 25  1  0
  5 26  1  0
  6 27  1  1
  7 28  1  0
  9 29  1  0
 11 30  1  0
 14 31  1  0
 15 32  1  0
 18 33  1  0
M  ISO  8  19  13  20  13  21  13  22  13  23  13  24  13  25  13  26  13
M  ISO  7  27  13  28  14  29  14  30  14  31  14  32  14  33  11
M  END
>  <minimizedAffinity>  (1) 
-4.06956148

>  <minimizedRMSD>  (1) 
0.442293704

$$$$
