
     RDKit          3D

 37 40  0  0  1  0  0  0  0  0999 V2000
   39.4100   26.2150   34.3990 C   0  0  1  0  0  0  0  0  0  0  0  0
   40.7370   26.7630   34.6830 C   0  0  0  0  0  0  0  0  0  0  0  0
   41.1950   27.3330   33.3530 C   0  0  0  0  0  0  0  0  0  0  0  0
   40.2360   26.8480   32.3010 C   0  0  0  0  0  0  0  0  0  0  0  0
   39.5250   25.6760   32.9740 C   0  0  2  0  0  0  0  0  0  0  0  0
   38.1350   25.5870   32.4500 C   0  0  0  0  0  0  0  0  0  0  0  0
   37.3380   26.6680   32.2800 N   0  0  0  0  0  0  0  0  0  0  0  0
   36.1020   26.6600   31.8230 C   0  0  0  0  0  0  0  0  0  0  0  0
   35.5360   25.4920   31.4780 N   0  0  0  0  0  0  0  0  0  0  0  0
   36.2510   24.3470   31.6090 C   0  0  0  0  0  0  0  0  0  0  0  0
   35.6740   23.1430   31.2560 C   0  0  0  0  0  0  0  0  0  0  0  0
   36.3730   21.9410   31.3740 C   0  0  0  0  0  0  0  0  0  0  0  0
   37.6690   22.0260   31.8640 C   0  0  0  0  0  0  0  0  0  0  0  0
   38.2480   23.2170   32.2160 C   0  0  0  0  0  0  0  0  0  0  0  0
   37.5420   24.3940   32.0920 C   0  0  0  0  0  0  0  0  0  0  0  0
   37.4930   24.3320   36.9250 C   0  0  0  0  0  0  0  0  0  0  0  0
   38.2260   23.1090   37.0120 C   0  0  0  0  0  0  0  0  0  0  0  0
   39.3730   22.9360   36.2110 C   0  0  0  0  0  0  0  0  0  0  0  0
   39.7140   23.9660   35.3910 N   0  0  0  0  0  0  0  0  0  0  0  0
   38.9890   25.1190   35.3360 C   0  0  0  0  0  0  0  0  0  0  0  0
   37.8910   25.2890   36.1010 N   0  0  0  0  0  0  0  0  0  0  0  0
   38.6407   26.9911   34.5249 H   0  0  0  0  0  0  0  0  0  0  0  0
   40.6781   27.5526   35.4466 H   0  0  0  0  0  0  0  0  0  0  0  0
   41.4302   26.0062   35.0790 H   0  0  0  0  0  0  0  0  0  0  0  0
   41.1857   28.4323   33.3920 H   0  0  0  0  0  0  0  0  0  0  0  0
   42.2202   27.0071   33.1235 H   0  0  0  0  0  0  0  0  0  0  0  0
   40.7752   26.5158   31.4016 H   0  0  0  0  0  0  0  0  0  0  0  0
   39.5416   27.6312   31.9628 H   0  0  0  0  0  0  0  0  0  0  0  0
   40.0235   24.7038   32.8458 H   0  0  0  0  0  0  0  0  0  0  0  0
   35.5397   27.6003   31.7251 H   0  0  0  0  0  0  0  0  0  0  0  0
   34.6425   23.1312   30.8741 H   0  0  0  0  0  0  0  0  0  0  0  0
   35.9213   20.9780   31.0938 H   0  0  0  0  0  0  0  0  0  0  0  0
   38.2541   21.1010   31.9740 H   0  0  0  0  0  0  0  0  0  0  0  0
   39.2792   23.2337   32.5986 H   0  0  0  0  0  0  0  0  0  0  0  0
   36.5957   24.4791   37.5441 H   0  0  0  0  0  0  0  0  0  0  0  0
   37.8993   22.3118   37.6959 H   0  0  0  0  0  0  0  0  0  0  0  0
   39.9654   22.0099   36.2475 H   0  0  0  0  0  0  0  0  0  0  0  0
  1  2  1  0
  1 20  1  0
  3  2  1  0
  4  5  1  0
  4  3  1  0
  5  1  1  0
  6  5  1  0
  7  6  2  0
  8  7  1  0
  9 10  1  0
  9  8  2  0
 10 15  2  0
 11 12  2  0
 11 10  1  0
 12 13  1  0
 13 14  2  0
 15 14  1  0
 15  6  1  0
 16 17  2  0
 18 17  1  0
 19 18  2  0
 20 19  1  0
 20 21  2  0
 21 16  1  0
  1 22  1  6
  2 23  1  0
  2 24  1  0
  3 25  1  0
  3 26  1  0
  4 27  1  0
  4 28  1  0
  5 29  1  1
  8 30  1  0
 11 31  1  0
 12 32  1  0
 13 33  1  0
 14 34  1  0
 16 35  1  0
 17 36  1  0
 18 37  1  0
M  ISO  8  22  13  23  13  24  13  25  13  26  13  27  13  28  13  29  13
M  ISO  8  30  14  31  14  32  14  33  14  34  14  35  14  36  14  37  14
M  END
>  <minimizedAffinity>  (1) 
-5.2450161

>  <minimizedRMSD>  (1) 
5.52608633

$$$$
