
     RDKit          3D

 35 37  0  0  1  0  0  0  0  0999 V2000
   37.8800   25.5830   35.3000 C   0  0  1  0  0  0  0  0  0  0  0  0
   38.2280   26.7560   36.1130 C   0  0  0  0  0  0  0  0  0  0  0  0
   37.7330   27.9470   35.3060 C   0  0  0  0  0  0  0  0  0  0  0  0
   37.2160   27.3940   33.9910 C   0  0  0  0  0  0  0  0  0  0  0  0
   38.0030   26.1050   33.8760 C   0  0  2  0  0  0  0  0  0  0  0  0
   39.0000   22.1580   36.0610 C   0  0  0  0  0  0  0  0  0  0  0  0
   40.4140   22.2500   35.8980 C   0  0  0  0  0  0  0  0  0  0  0  0
   40.9670   23.4910   35.5320 C   0  0  0  0  0  0  0  0  0  0  0  0
   40.1320   24.5450   35.3490 N   0  0  0  0  0  0  0  0  0  0  0  0
   38.7850   24.4010   35.5180 C   0  0  0  0  0  0  0  0  0  0  0  0
   38.2020   23.2240   35.8710 N   0  0  0  0  0  0  0  0  0  0  0  0
   37.5210   25.1800   32.9110 N   0  0  0  0  0  0  0  0  0  0  0  0
   36.4000   25.6170   32.1420 C   0  0  0  0  0  0  0  0  0  0  0  0
   36.2510   24.4070   31.2080 C   0  0  0  0  0  0  0  0  0  0  0  0
   37.7150   24.0320   30.9490 C   0  0  0  0  0  0  0  0  0  0  0  0
   38.4930   24.9330   31.8950 C   0  0  0  0  0  0  0  0  0  0  0  0
   36.8827   25.1969   35.5577 H   0  0  0  0  0  0  0  0  0  0  0  0
   37.7247   26.7136   37.0902 H   0  0  0  0  0  0  0  0  0  0  0  0
   39.3069   26.8133   36.3198 H   0  0  0  0  0  0  0  0  0  0  0  0
   36.9243   28.4615   35.8457 H   0  0  0  0  0  0  0  0  0  0  0  0
   38.5391   28.6768   35.1402 H   0  0  0  0  0  0  0  0  0  0  0  0
   36.1338   27.2017   34.0336 H   0  0  0  0  0  0  0  0  0  0  0  0
   37.3432   28.0752   33.1367 H   0  0  0  0  0  0  0  0  0  0  0  0
   39.0294   26.2612   33.5126 H   0  0  0  0  0  0  0  0  0  0  0  0
   38.5527   21.1950   36.3481 H   0  0  0  0  0  0  0  0  0  0  0  0
   41.0571   21.3714   36.0547 H   0  0  0  0  0  0  0  0  0  0  0  0
   42.0528   23.6044   35.3971 H   0  0  0  0  0  0  0  0  0  0  0  0
   35.5067   25.7668   32.7662 H   0  0  0  0  0  0  0  0  0  0  0  0
   36.5256   26.5866   31.6380 H   0  0  0  0  0  0  0  0  0  0  0  0
   35.7076   23.5861   31.6988 H   0  0  0  0  0  0  0  0  0  0  0  0
   35.6754   24.6164   30.2943 H   0  0  0  0  0  0  0  0  0  0  0  0
   37.8949   22.9719   31.1809 H   0  0  0  0  0  0  0  0  0  0  0  0
   38.0085   24.1649   29.8972 H   0  0  0  0  0  0  0  0  0  0  0  0
   39.3783   24.4216   32.3008 H   0  0  0  0  0  0  0  0  0  0  0  0
   38.8919   25.8431   31.4232 H   0  0  0  0  0  0  0  0  0  0  0  0
  1 10  1  0
  1  2  1  0
  3  2  1  0
  4  3  1  0
  5  4  1  0
  5  1  1  0
  7  6  2  0
  8  7  1  0
  9 10  1  0
  9  8  2  0
 10 11  2  0
 11  6  1  0
 12 13  1  0
 12  5  1  0
 14 13  1  0
 15 14  1  0
 15 16  1  0
 16 12  1  0
  1 17  1  1
  2 18  1  0
  2 19  1  0
  3 20  1  0
  3 21  1  0
  4 22  1  0
  4 23  1  0
  5 24  1  6
  6 25  1  0
  7 26  1  0
  8 27  1  0
 13 28  1  0
 13 29  1  0
 14 30  1  0
 14 31  1  0
 15 32  1  0
 15 33  1  0
 16 34  1  0
 16 35  1  0
M  ISO  8  17  13  18  13  19  13  20  13  21  13  22  13  23  13  24  13
M  ISO  8  25  14  26  14  27  14  28  13  29  13  30  13  31  13  32  13
M  ISO  3  33  13  34  13  35  13
M  END
>  <minimizedAffinity>  (1) 
-4.21437979

>  <minimizedRMSD>  (1) 
4.03618813

$$$$
