
     RDKit          3D

 36 38  0  0  1  0  0  0  0  0999 V2000
   38.1330   25.4920   35.2460 C   0  0  1  0  0  0  0  0  0  0  0  0
   38.2610   26.6040   36.1960 C   0  0  0  0  0  0  0  0  0  0  0  0
   37.8070   27.8320   35.4310 C   0  0  0  0  0  0  0  0  0  0  0  0
   37.4970   27.3750   34.0190 C   0  0  0  0  0  0  0  0  0  0  0  0
   38.3370   26.1220   33.8870 C   0  0  2  0  0  0  0  0  0  0  0  0
   39.5230   22.1980   36.1450 C   0  0  0  0  0  0  0  0  0  0  0  0
   40.9180   22.3640   35.8720 C   0  0  0  0  0  0  0  0  0  0  0  0
   41.3700   23.6070   35.3850 C   0  0  0  0  0  0  0  0  0  0  0  0
   40.4320   24.5750   35.2080 N   0  0  0  0  0  0  0  0  0  0  0  0
   39.1150   24.3820   35.4780 C   0  0  0  0  0  0  0  0  0  0  0  0
   38.6740   23.1940   35.9460 N   0  0  0  0  0  0  0  0  0  0  0  0
   37.9700   25.2550   32.8270 N   0  0  0  0  0  0  0  0  0  0  0  0
   36.6220   25.2530   32.4050 C   0  0  0  0  0  0  0  0  0  0  0  0
   36.5640   24.7590   30.9580 C   0  0  0  0  0  0  0  0  0  0  0  0
   37.3700   23.6300   30.8550 O   0  0  0  0  0  0  0  0  0  0  0  0
   38.7060   23.9870   30.9110 C   0  0  0  0  0  0  0  0  0  0  0  0
   38.9380   25.2090   31.7700 C   0  0  0  0  0  0  0  0  0  0  0  0
   37.1521   25.0062   35.3548 H   0  0  0  0  0  0  0  0  0  0  0  0
   37.6199   26.4373   37.0742 H   0  0  0  0  0  0  0  0  0  0  0  0
   39.2898   26.7092   36.5709 H   0  0  0  0  0  0  0  0  0  0  0  0
   36.9068   28.2583   35.8978 H   0  0  0  0  0  0  0  0  0  0  0  0
   38.5846   28.6100   35.4336 H   0  0  0  0  0  0  0  0  0  0  0  0
   36.4268   27.1503   33.9001 H   0  0  0  0  0  0  0  0  0  0  0  0
   37.7191   28.1339   33.2543 H   0  0  0  0  0  0  0  0  0  0  0  0
   39.3820   26.3432   33.6243 H   0  0  0  0  0  0  0  0  0  0  0  0
   39.1528   21.2339   36.5237 H   0  0  0  0  0  0  0  0  0  0  0  0
   41.6240   21.5372   36.0391 H   0  0  0  0  0  0  0  0  0  0  0  0
   42.4316   23.7854   35.1588 H   0  0  0  0  0  0  0  0  0  0  0  0
   36.0331   24.5834   33.0490 H   0  0  0  0  0  0  0  0  0  0  0  0
   36.2058   26.2690   32.4721 H   0  0  0  0  0  0  0  0  0  0  0  0
   35.5277   24.5029   30.6925 H   0  0  0  0  0  0  0  0  0  0  0  0
   36.9171   25.5436   30.2726 H   0  0  0  0  0  0  0  0  0  0  0  0
   39.2794   23.1466   31.3292 H   0  0  0  0  0  0  0  0  0  0  0  0
   39.0331   24.2274   29.8886 H   0  0  0  0  0  0  0  0  0  0  0  0
   39.9483   25.1639   32.2027 H   0  0  0  0  0  0  0  0  0  0  0  0
   38.8387   26.1116   31.1492 H   0  0  0  0  0  0  0  0  0  0  0  0
  1 10  1  0
  1  2  1  0
  3  2  1  0
  4  3  1  0
  5  4  1  0
  5  1  1  0
  7  6  2  0
  8  7  1  0
  9  8  2  0
  9 10  1  0
 10 11  2  0
 11  6  1  0
 12  5  1  0
 13 12  1  0
 14 13  1  0
 15 16  1  0
 15 14  1  0
 16 17  1  0
 17 12  1  0
  1 18  1  6
  2 19  1  0
  2 20  1  0
  3 21  1  0
  3 22  1  0
  4 23  1  0
  4 24  1  0
  5 25  1  6
  6 26  1  0
  7 27  1  0
  8 28  1  0
 13 29  1  0
 13 30  1  0
 14 31  1  0
 14 32  1  0
 16 33  1  0
 16 34  1  0
 17 35  1  0
 17 36  1  0
M  ISO  8  18  13  19  13  20  13  21  13  22  13  23  13  24  13  25  13
M  ISO  8  26  14  27  14  28  14  29  13  30  13  31  13  32  13  33  13
M  ISO  3  34  13  35  13  36  13
M  END
>  <minimizedAffinity>  (1) 
-4.11401653

>  <minimizedRMSD>  (1) 
4.08038521

$$$$
