
     RDKit          3D

 39 42  0  0  1  0  0  0  0  0999 V2000
   38.6490   25.2530   34.8770 C   0  0  1  0  0  0  0  0  0  0  0  0
   37.5190   26.1680   34.7630 C   0  0  0  0  0  0  0  0  0  0  0  0
   37.9510   27.1830   33.7340 C   0  0  0  0  0  0  0  0  0  0  0  0
   39.4560   27.0420   33.5450 C   0  0  0  0  0  0  0  0  0  0  0  0
   39.8760   26.0770   34.6170 C   0  0  2  0  0  0  0  0  0  0  0  0
   39.6270   22.7940   37.4380 C   0  0  0  0  0  0  0  0  0  0  0  0
   38.8840   23.2360   38.5740 C   0  0  0  0  0  0  0  0  0  0  0  0
   38.0490   24.3780   38.4640 C   0  0  0  0  0  0  0  0  0  0  0  0
   38.0240   24.9770   37.2470 N   0  0  0  0  0  0  0  0  0  0  0  0
   38.7400   24.5280   36.2000 C   0  0  0  0  0  0  0  0  0  0  0  0
   39.5490   23.4380   36.2720 N   0  0  0  0  0  0  0  0  0  0  0  0
   40.9470   25.1990   34.0900 C   0  0  0  0  0  0  0  0  0  0  0  0
   40.6730   24.3740   33.1890 O   0  0  0  0  0  0  0  0  0  0  0  0
   42.2980   25.3710   34.6950 C   0  0  0  0  0  0  0  0  0  0  0  0
   42.7540   24.7730   35.8030 N   0  0  0  0  0  0  0  0  0  0  0  0
   43.9400   24.9010   36.3730 C   0  0  0  0  0  0  0  0  0  0  0  0
   44.8370   25.7260   35.8060 N   0  0  0  0  0  0  0  0  0  0  0  0
   44.5230   26.4110   34.6680 C   0  0  0  0  0  0  0  0  0  0  0  0
   45.4690   27.2470   34.1250 C   0  0  0  0  0  0  0  0  0  0  0  0
   45.1730   27.9530   32.9810 C   0  0  0  0  0  0  0  0  0  0  0  0
   43.9210   27.7850   32.4270 C   0  0  0  0  0  0  0  0  0  0  0  0
   43.0270   26.9280   33.0290 C   0  0  0  0  0  0  0  0  0  0  0  0
   43.2610   26.2000   34.1650 C   0  0  0  0  0  0  0  0  0  0  0  0
   38.5285   24.4385   34.1476 H   0  0  0  0  0  0  0  0  0  0  0  0
   36.6189   25.6329   34.4261 H   0  0  0  0  0  0  0  0  0  0  0  0
   37.2621   26.6344   35.7256 H   0  0  0  0  0  0  0  0  0  0  0  0
   37.4347   26.9933   32.7814 H   0  0  0  0  0  0  0  0  0  0  0  0
   37.6991   28.2003   34.0681 H   0  0  0  0  0  0  0  0  0  0  0  0
   39.6875   26.6410   32.5472 H   0  0  0  0  0  0  0  0  0  0  0  0
   39.9809   28.0059   33.6182 H   0  0  0  0  0  0  0  0  0  0  0  0
   40.2532   26.5800   35.5196 H   0  0  0  0  0  0  0  0  0  0  0  0
   40.2739   21.9086   37.5253 H   0  0  0  0  0  0  0  0  0  0  0  0
   38.9583   22.6947   39.5287 H   0  0  0  0  0  0  0  0  0  0  0  0
   37.4588   24.7542   39.3126 H   0  0  0  0  0  0  0  0  0  0  0  0
   44.1869   24.3454   37.2897 H   0  0  0  0  0  0  0  0  0  0  0  0
   46.4552   27.3512   34.6009 H   0  0  0  0  0  0  0  0  0  0  0  0
   45.9106   28.6289   32.5237 H   0  0  0  0  0  0  0  0  0  0  0  0
   43.6397   28.3299   31.5138 H   0  0  0  0  0  0  0  0  0  0  0  0
   42.0396   26.8187   32.5566 H   0  0  0  0  0  0  0  0  0  0  0  0
  1 10  1  0
  2  1  1  0
  3  2  1  0
  4  3  1  0
  4  5  1  0
  5  1  1  0
  6  7  2  0
  8  7  1  0
  9  8  2  0
 10 11  2  0
 10  9  1  0
 11  6  1  0
 12  5  1  0
 12 14  1  0
 13 12  2  0
 14 15  2  0
 15 16  1  0
 17 16  2  0
 18 17  1  0
 19 18  2  0
 20 19  1  0
 21 20  2  0
 21 22  1  0
 22 23  2  0
 23 18  1  0
 23 14  1  0
  1 24  1  6
  2 25  1  0
  2 26  1  0
  3 27  1  0
  3 28  1  0
  4 29  1  0
  4 30  1  0
  5 31  1  1
  6 32  1  0
  7 33  1  0
  8 34  1  0
 16 35  1  0
 19 36  1  0
 20 37  1  0
 21 38  1  0
 22 39  1  0
M  ISO  8  24  13  25  13  26  13  27  13  28  13  29  13  30  13  31  13
M  ISO  8  32  14  33  14  34  14  35  14  36  14  37  14  38  14  39  14
M  END
>  <minimizedAffinity>  (1) 
-4.97091961

>  <minimizedRMSD>  (1) 
4.20314837

$$$$
