
     RDKit          3D

 41 43  0  0  1  0  0  0  0  0999 V2000
   38.6750   24.1420   34.4670 C   0  0  1  0  0  0  0  0  0  0  0  0
   37.7660   23.2810   33.7260 C   0  0  0  0  0  0  0  0  0  0  0  0
   37.2440   24.1190   32.5610 C   0  0  0  0  0  0  0  0  0  0  0  0
   37.7750   25.5230   32.7780 C   0  0  0  0  0  0  0  0  0  0  0  0
   38.1650   25.5550   34.2240 C   0  0  2  0  0  0  0  0  0  0  0  0
   39.8980   22.8210   37.6750 C   0  0  0  0  0  0  0  0  0  0  0  0
   38.9010   23.3050   38.5950 C   0  0  0  0  0  0  0  0  0  0  0  0
   37.8150   24.0790   38.1110 C   0  0  0  0  0  0  0  0  0  0  0  0
   37.8110   24.3030   36.7720 N   0  0  0  0  0  0  0  0  0  0  0  0
   38.7600   23.8350   35.9280 C   0  0  0  0  0  0  0  0  0  0  0  0
   39.8080   23.0940   36.3780 N   0  0  0  0  0  0  0  0  0  0  0  0
   39.2920   26.4970   34.3880 C   0  0  0  0  0  0  0  0  0  0  0  0
   39.5090   27.0790   35.4520 O   0  0  0  0  0  0  0  0  0  0  0  0
   40.4400   27.1320   33.7110 C   0  0  0  0  0  0  0  0  0  0  0  0
   40.5460   26.5120   32.3140 C   0  0  0  0  0  0  0  0  0  0  0  0
   41.3080   25.2430   32.2700 C   0  0  0  0  0  0  0  0  0  0  0  0
   41.6820   24.6100   33.5620 C   0  0  0  0  0  0  0  0  0  0  0  0
   42.1570   25.5220   34.6420 C   0  0  0  0  0  0  0  0  0  0  0  0
   41.7760   26.9260   34.3360 C   0  0  0  0  0  0  0  0  0  0  0  0
   39.7064   23.9919   34.1152 H   0  0  0  0  0  0  0  0  0  0  0  0
   38.2999   22.3956   33.3503 H   0  0  0  0  0  0  0  0  0  0  0  0
   36.9440   22.9219   34.3627 H   0  0  0  0  0  0  0  0  0  0  0  0
   36.1440   24.1237   32.5575 H   0  0  0  0  0  0  0  0  0  0  0  0
   37.5739   23.7108   31.5943 H   0  0  0  0  0  0  0  0  0  0  0  0
   38.6474   25.7128   32.1354 H   0  0  0  0  0  0  0  0  0  0  0  0
   37.0329   26.2952   32.5269 H   0  0  0  0  0  0  0  0  0  0  0  0
   37.3513   25.8587   34.8990 H   0  0  0  0  0  0  0  0  0  0  0  0
   40.7404   22.2207   38.0492 H   0  0  0  0  0  0  0  0  0  0  0  0
   38.9813   23.0756   39.6678 H   0  0  0  0  0  0  0  0  0  0  0  0
   37.0303   24.4707   38.7749 H   0  0  0  0  0  0  0  0  0  0  0  0
   40.2308   28.2113   33.7483 H   0  0  0  0  0  0  0  0  0  0  0  0
   39.5283   26.3164   31.9451 H   0  0  0  0  0  0  0  0  0  0  0  0
   41.0944   27.2322   31.6890 H   0  0  0  0  0  0  0  0  0  0  0  0
   40.7000   24.5152   31.7127 H   0  0  0  0  0  0  0  0  0  0  0  0
   42.2687   25.5145   31.8081 H   0  0  0  0  0  0  0  0  0  0  0  0
   40.7972   24.0774   33.9407 H   0  0  0  0  0  0  0  0  0  0  0  0
   42.5420   23.9648   33.3295 H   0  0  0  0  0  0  0  0  0  0  0  0
   41.7009   25.2221   35.5970 H   0  0  0  0  0  0  0  0  0  0  0  0
   43.2528   25.4553   34.7106 H   0  0  0  0  0  0  0  0  0  0  0  0
   42.5323   27.3354   33.6501 H   0  0  0  0  0  0  0  0  0  0  0  0
   41.7216   27.4315   35.3114 H   0  0  0  0  0  0  0  0  0  0  0  0
  1 10  1  0
  2  1  1  0
  3  4  1  0
  3  2  1  0
  4  5  1  0
  5 12  1  0
  5  1  1  0
  6  7  2  0
  8  7  1  0
  9  8  2  0
 10 11  2  0
 10  9  1  0
 11  6  1  0
 12 13  2  0
 14 19  1  0
 14 12  1  0
 15 14  1  0
 16 15  1  0
 16 17  1  0
 17 18  1  0
 19 18  1  0
  1 20  1  6
  2 21  1  0
  2 22  1  0
  3 23  1  0
  3 24  1  0
  4 25  1  0
  4 26  1  0
  5 27  1  1
  6 28  1  0
  7 29  1  0
  8 30  1  0
 14 31  1  0
 15 32  1  0
 15 33  1  0
 16 34  1  0
 16 35  1  0
 17 36  1  0
 17 37  1  0
 18 38  1  0
 18 39  1  0
 19 40  1  0
 19 41  1  0
M  ISO  8  20  13  21  13  22  13  23  13  24  13  25  13  26  13  27  13
M  ISO  8  28  14  29  14  30  14  31  13  32  13  33  13  34  13  35  13
M  ISO  6  36  13  37  13  38  13  39  13  40  13  41  13
M  END
>  <minimizedAffinity>  (1) 
-4.53602457

>  <minimizedRMSD>  (1) 
2.22363067

$$$$
