
     RDKit          3D

 38 40  0  0  1  0  0  0  0  0999 V2000
   38.9070   25.2060   34.8780 C   0  0  1  0  0  0  0  0  0  0  0  0
   37.7040   25.9760   34.5670 C   0  0  0  0  0  0  0  0  0  0  0  0
   38.1700   27.0800   33.6390 C   0  0  0  0  0  0  0  0  0  0  0  0
   39.6720   27.0880   33.6880 C   0  0  0  0  0  0  0  0  0  0  0  0
   40.0310   26.1930   34.8390 C   0  0  2  0  0  0  0  0  0  0  0  0
   39.6730   22.8160   37.5870 C   0  0  0  0  0  0  0  0  0  0  0  0
   38.7820   23.2620   38.6200 C   0  0  0  0  0  0  0  0  0  0  0  0
   37.9280   24.3700   38.3850 C   0  0  0  0  0  0  0  0  0  0  0  0
   38.0240   24.9430   37.1580 N   0  0  0  0  0  0  0  0  0  0  0  0
   38.8740   24.4980   36.2070 C   0  0  0  0  0  0  0  0  0  0  0  0
   39.6740   23.4520   36.4380 N   0  0  0  0  0  0  0  0  0  0  0  0
   41.2920   25.5070   34.5010 C   0  0  0  0  0  0  0  0  0  0  0  0
   42.3230   25.6510   35.1890 O   0  0  0  0  0  0  0  0  0  0  0  0
   41.6300   24.5910   33.3820 C   0  0  0  0  0  0  0  0  0  0  0  0
   40.5440   23.7430   32.8250 C   0  0  0  0  0  0  0  0  0  0  0  0
   41.2640   22.4420   32.3620 C   0  0  0  0  0  0  0  0  0  0  0  0
   42.1370   22.2220   33.5800 C   0  0  0  0  0  0  0  0  0  0  0  0
   42.7130   23.6100   33.7990 C   0  0  0  0  0  0  0  0  0  0  0  0
   39.0135   24.3916   34.1463 H   0  0  0  0  0  0  0  0  0  0  0  0
   36.9576   25.3410   34.0673 H   0  0  0  0  0  0  0  0  0  0  0  0
   37.2244   26.3746   35.4731 H   0  0  0  0  0  0  0  0  0  0  0  0
   37.7755   28.0496   33.9770 H   0  0  0  0  0  0  0  0  0  0  0  0
   37.8109   26.9094   32.6134 H   0  0  0  0  0  0  0  0  0  0  0  0
   40.0910   26.6966   32.7493 H   0  0  0  0  0  0  0  0  0  0  0  0
   40.0747   28.1038   33.8148 H   0  0  0  0  0  0  0  0  0  0  0  0
   40.1647   26.7157   35.7976 H   0  0  0  0  0  0  0  0  0  0  0  0
   40.3416   21.9587   37.7543 H   0  0  0  0  0  0  0  0  0  0  0  0
   38.7614   22.7460   39.5913 H   0  0  0  0  0  0  0  0  0  0  0  0
   37.2307   24.7421   39.1501 H   0  0  0  0  0  0  0  0  0  0  0  0
   41.9237   25.3077   32.6010 H   0  0  0  0  0  0  0  0  0  0  0  0
   39.7922   23.5181   33.5958 H   0  0  0  0  0  0  0  0  0  0  0  0
   40.0060   24.2385   32.0034 H   0  0  0  0  0  0  0  0  0  0  0  0
   40.5591   21.6128   32.2022 H   0  0  0  0  0  0  0  0  0  0  0  0
   41.7939   22.5061   31.4002 H   0  0  0  0  0  0  0  0  0  0  0  0
   41.5429   21.8931   34.4453 H   0  0  0  0  0  0  0  0  0  0  0  0
   42.8974   21.4379   33.4493 H   0  0  0  0  0  0  0  0  0  0  0  0
   43.6127   23.7508   33.1820 H   0  0  0  0  0  0  0  0  0  0  0  0
   43.0066   23.7604   34.8484 H   0  0  0  0  0  0  0  0  0  0  0  0
  1 10  1  0
  2  1  1  0
  3  4  1  0
  3  2  1  0
  4  5  1  0
  5  1  1  0
  6  7  2  0
  8  7  1  0
  9  8  2  0
 10 11  2  0
 10  9  1  0
 11  6  1  0
 12  5  1  0
 12 13  2  0
 14 18  1  0
 14 12  1  0
 15 14  1  0
 16 15  1  0
 16 17  1  0
 17 18  1  0
  1 19  1  6
  2 20  1  0
  2 21  1  0
  3 22  1  0
  3 23  1  0
  4 24  1  0
  4 25  1  0
  5 26  1  1
  6 27  1  0
  7 28  1  0
  8 29  1  0
 14 30  1  0
 15 31  1  0
 15 32  1  0
 16 33  1  0
 16 34  1  0
 17 35  1  0
 17 36  1  0
 18 37  1  0
 18 38  1  0
M  ISO  8  19  13  20  13  21  13  22  13  23  13  24  13  25  13  26  13
M  ISO  8  27  14  28  14  29  14  30  13  31  13  32  13  33  13  34  13
M  ISO  4  35  13  36  13  37  13  38  13
M  END
>  <minimizedAffinity>  (1) 
-4.06536341

>  <minimizedRMSD>  (1) 
0.294055462

$$$$
