
     RDKit          3D

 32 34  0  0  1  0  0  0  0  0999 V2000
   38.7430   25.2770   34.9060 C   0  0  1  0  0  0  0  0  0  0  0  0
   37.5130   25.9960   34.6200 C   0  0  0  0  0  0  0  0  0  0  0  0
   37.9220   27.1360   33.7030 C   0  0  0  0  0  0  0  0  0  0  0  0
   39.4380   27.1530   33.6490 C   0  0  0  0  0  0  0  0  0  0  0  0
   39.8440   26.3190   34.8230 C   0  0  2  0  0  0  0  0  0  0  0  0
   39.6000   22.8380   37.5220 C   0  0  0  0  0  0  0  0  0  0  0  0
   38.8020   23.2910   38.6350 C   0  0  0  0  0  0  0  0  0  0  0  0
   37.9780   24.4330   38.4650 C   0  0  0  0  0  0  0  0  0  0  0  0
   38.0080   25.0170   37.2380 N   0  0  0  0  0  0  0  0  0  0  0  0
   38.7720   24.5580   36.2210 C   0  0  0  0  0  0  0  0  0  0  0  0
   39.5690   23.4720   36.3510 N   0  0  0  0  0  0  0  0  0  0  0  0
   41.1140   25.6350   34.4770 C   0  0  0  0  0  0  0  0  0  0  0  0
   42.1580   25.7630   35.0910 O   0  0  0  0  0  0  0  0  0  0  0  0
   41.1730   24.7240   33.3060 C   0  0  0  0  0  0  0  0  0  0  0  0
   41.5570   23.3870   33.4160 C   0  0  0  0  0  0  0  0  0  0  0  0
   41.5160   22.7840   32.1520 C   0  0  0  0  0  0  0  0  0  0  0  0
   41.1010   23.8280   31.3500 C   0  0  0  0  0  0  0  0  0  0  0  0
   40.9120   24.9290   32.0360 O   0  0  0  0  0  0  0  0  0  0  0  0
   38.8615   24.4609   34.1780 H   0  0  0  0  0  0  0  0  0  0  0  0
   36.7892   25.3375   34.1175 H   0  0  0  0  0  0  0  0  0  0  0  0
   37.0270   26.3603   35.5371 H   0  0  0  0  0  0  0  0  0  0  0  0
   37.5117   26.9738   32.6954 H   0  0  0  0  0  0  0  0  0  0  0  0
   37.5359   28.0948   34.0793 H   0  0  0  0  0  0  0  0  0  0  0  0
   39.8020   26.7115   32.7095 H   0  0  0  0  0  0  0  0  0  0  0  0
   39.8545   28.1705   33.6845 H   0  0  0  0  0  0  0  0  0  0  0  0
   39.9797   26.8892   35.7538 H   0  0  0  0  0  0  0  0  0  0  0  0
   40.2445   21.9547   37.6423 H   0  0  0  0  0  0  0  0  0  0  0  0
   38.8319   22.7604   39.5981 H   0  0  0  0  0  0  0  0  0  0  0  0
   37.3505   24.8237   39.2797 H   0  0  0  0  0  0  0  0  0  0  0  0
   41.8470   22.8843   34.3504 H   0  0  0  0  0  0  0  0  0  0  0  0
   41.7531   21.7472   31.8714 H   0  0  0  0  0  0  0  0  0  0  0  0
   40.9471   23.7458   30.2639 H   0  0  0  0  0  0  0  0  0  0  0  0
  1 10  1  0
  2  1  1  0
  3  2  1  0
  4  3  1  0
  4  5  1  0
  5  1  1  0
  6  7  2  0
  8  7  1  0
  9  8  2  0
 10 11  2  0
 10  9  1  0
 11  6  1  0
 12  5  1  0
 12 13  2  0
 14 15  2  0
 14 12  1  0
 16 15  1  0
 17 18  1  0
 17 16  2  0
 18 14  1  0
  1 19  1  6
  2 20  1  0
  2 21  1  0
  3 22  1  0
  3 23  1  0
  4 24  1  0
  4 25  1  0
  5 26  1  1
  6 27  1  0
  7 28  1  0
  8 29  1  0
 15 30  1  0
 16 31  1  0
 17 32  1  0
M  ISO  8  19  13  20  13  21  13  22  13  23  13  24  13  25  13  26  13
M  ISO  6  27  14  28  14  29  14  30  14  31  14  32  14
M  END
>  <minimizedAffinity>  (1) 
-4.02361059

>  <minimizedRMSD>  (1) 
0.354718864

$$$$
