
     RDKit          3D

 32 34  0  0  1  0  0  0  0  0999 V2000
   38.7410   25.2820   34.8880 C   0  0  1  0  0  0  0  0  0  0  0  0
   37.5100   26.0070   34.6160 C   0  0  0  0  0  0  0  0  0  0  0  0
   37.9180   27.1310   33.6780 C   0  0  0  0  0  0  0  0  0  0  0  0
   39.4330   27.1670   33.6450 C   0  0  0  0  0  0  0  0  0  0  0  0
   39.8430   26.3240   34.8130 C   0  0  2  0  0  0  0  0  0  0  0  0
   39.6190   22.8330   37.4860 C   0  0  0  0  0  0  0  0  0  0  0  0
   38.8010   23.2630   38.5970 C   0  0  0  0  0  0  0  0  0  0  0  0
   37.9550   24.3920   38.4340 C   0  0  0  0  0  0  0  0  0  0  0  0
   37.9900   24.9860   37.2120 N   0  0  0  0  0  0  0  0  0  0  0  0
   38.7710   24.5510   36.1960 C   0  0  0  0  0  0  0  0  0  0  0  0
   39.5870   23.4770   36.3230 N   0  0  0  0  0  0  0  0  0  0  0  0
   41.1110   25.6350   34.4410 C   0  0  0  0  0  0  0  0  0  0  0  0
   42.1210   25.6740   35.1530 O   0  0  0  0  0  0  0  0  0  0  0  0
   40.9860   23.3840   31.5600 N   0  0  0  0  0  0  0  0  0  0  0  0
   40.6630   23.6990   32.7960 N   0  0  0  0  0  0  0  0  0  0  0  0
   41.1850   24.8730   33.1810 C   0  0  0  0  0  0  0  0  0  0  0  0
   41.8740   25.2610   32.0460 C   0  0  0  0  0  0  0  0  0  0  0  0
   41.7580   24.3410   31.0250 C   0  0  0  0  0  0  0  0  0  0  0  0
   38.8577   24.4742   34.1505 H   0  0  0  0  0  0  0  0  0  0  0  0
   36.7718   25.3492   34.1339 H   0  0  0  0  0  0  0  0  0  0  0  0
   37.0399   26.3850   35.5358 H   0  0  0  0  0  0  0  0  0  0  0  0
   37.5245   26.9399   32.6687 H   0  0  0  0  0  0  0  0  0  0  0  0
   37.5143   28.0931   34.0263 H   0  0  0  0  0  0  0  0  0  0  0  0
   39.8134   26.7426   32.7042 H   0  0  0  0  0  0  0  0  0  0  0  0
   39.8327   28.1903   33.7014 H   0  0  0  0  0  0  0  0  0  0  0  0
   39.9850   26.8835   35.7494 H   0  0  0  0  0  0  0  0  0  0  0  0
   40.2778   21.9601   37.6041 H   0  0  0  0  0  0  0  0  0  0  0  0
   38.8332   22.7236   39.5551 H   0  0  0  0  0  0  0  0  0  0  0  0
   37.3118   24.7625   39.2458 H   0  0  0  0  0  0  0  0  0  0  0  0
   40.6888   22.5261   31.0736 H   0  0  0  0  0  0  0  0  0  0  0  0
   42.4484   26.1958   31.9668 H   0  0  0  0  0  0  0  0  0  0  0  0
   42.1935   24.3823   30.0157 H   0  0  0  0  0  0  0  0  0  0  0  0
  1 10  1  0
  2  1  1  0
  3  2  1  0
  4  3  1  0
  4  5  1  0
  5  1  1  0
  6  7  2  0
  8  7  1  0
  9  8  2  0
 10 11  2  0
 10  9  1  0
 11  6  1  0
 12  5  1  0
 12 13  2  0
 14 15  1  0
 15 16  2  0
 16 12  1  0
 17 16  1  0
 18 14  1  0
 18 17  2  0
  1 19  1  6
  2 20  1  0
  2 21  1  0
  3 22  1  0
  3 23  1  0
  4 24  1  0
  4 25  1  0
  5 26  1  1
  6 27  1  0
  7 28  1  0
  8 29  1  0
 14 30  1  0
 17 31  1  0
 18 32  1  0
M  ISO  8  19  13  20  13  21  13  22  13  23  13  24  13  25  13  26  13
M  ISO  6  27  14  28  14  29  14  30   9  31  14  32  14
M  END
>  <minimizedAffinity>  (1) 
-4.02314186

>  <minimizedRMSD>  (1) 
0.0529278629

$$$$
