
     RDKit          3D

 35 37  0  0  1  0  0  0  0  0999 V2000
   38.7720   25.2230   34.8930 C   0  0  1  0  0  0  0  0  0  0  0  0
   37.5430   25.9400   34.6000 C   0  0  0  0  0  0  0  0  0  0  0  0
   37.9490   27.0960   33.7200 C   0  0  0  0  0  0  0  0  0  0  0  0
   39.4680   27.1550   33.6970 C   0  0  0  0  0  0  0  0  0  0  0  0
   39.8800   26.2300   34.8050 C   0  0  2  0  0  0  0  0  0  0  0  0
   39.6130   22.8240   37.5620 C   0  0  0  0  0  0  0  0  0  0  0  0
   38.7860   23.2740   38.6370 C   0  0  0  0  0  0  0  0  0  0  0  0
   37.9390   24.3990   38.4590 C   0  0  0  0  0  0  0  0  0  0  0  0
   37.9910   24.9730   37.2310 N   0  0  0  0  0  0  0  0  0  0  0  0
   38.7780   24.5290   36.2390 C   0  0  0  0  0  0  0  0  0  0  0  0
   39.5880   23.4560   36.4030 N   0  0  0  0  0  0  0  0  0  0  0  0
   41.1400   25.5660   34.4720 C   0  0  0  0  0  0  0  0  0  0  0  0
   42.1940   25.8360   35.0930 O   0  0  0  0  0  0  0  0  0  0  0  0
   41.5100   24.5640   33.4910 C   0  0  0  0  0  0  0  0  0  0  0  0
   42.1080   23.3840   33.8730 C   0  0  0  0  0  0  0  0  0  0  0  0
   42.5000   22.3750   32.9800 C   0  0  0  0  0  0  0  0  0  0  0  0
   42.2810   22.5570   31.6370 C   0  0  0  0  0  0  0  0  0  0  0  0
   41.6870   23.7120   31.1900 C   0  0  0  0  0  0  0  0  0  0  0  0
   41.3360   24.6440   32.1300 C   0  0  0  0  0  0  0  0  0  0  0  0
   38.8914   24.4059   34.1664 H   0  0  0  0  0  0  0  0  0  0  0  0
   36.8333   25.2861   34.0721 H   0  0  0  0  0  0  0  0  0  0  0  0
   37.0425   26.2826   35.5177 H   0  0  0  0  0  0  0  0  0  0  0  0
   37.5655   26.9423   32.7005 H   0  0  0  0  0  0  0  0  0  0  0  0
   37.5349   28.0378   34.1094 H   0  0  0  0  0  0  0  0  0  0  0  0
   39.8590   26.8062   32.7298 H   0  0  0  0  0  0  0  0  0  0  0  0
   39.8557   28.1759   33.8293 H   0  0  0  0  0  0  0  0  0  0  0  0
   40.0388   26.7627   35.7542 H   0  0  0  0  0  0  0  0  0  0  0  0
   40.2695   21.9523   37.6999 H   0  0  0  0  0  0  0  0  0  0  0  0
   38.8058   22.7482   39.6030 H   0  0  0  0  0  0  0  0  0  0  0  0
   37.2870   24.7783   39.2596 H   0  0  0  0  0  0  0  0  0  0  0  0
   42.2899   23.2221   34.9457 H   0  0  0  0  0  0  0  0  0  0  0  0
   42.9746   21.4541   33.3497 H   0  0  0  0  0  0  0  0  0  0  0  0
   42.5809   21.7788   30.9197 H   0  0  0  0  0  0  0  0  0  0  0  0
   41.5006   23.8817   30.1193 H   0  0  0  0  0  0  0  0  0  0  0  0
   40.8605   25.5614   31.7527 H   0  0  0  0  0  0  0  0  0  0  0  0
  1 10  1  0
  2  1  1  0
  3  2  1  0
  4  3  1  0
  4  5  1  0
  5  1  1  0
  6  7  2  0
  8  7  1  0
  9  8  2  0
 10 11  2  0
 10  9  1  0
 11  6  1  0
 12  5  1  0
 12 13  2  0
 14 15  2  0
 14 12  1  0
 16 15  1  0
 17 16  2  0
 18 17  1  0
 18 19  2  0
 19 14  1  0
  1 20  1  6
  2 21  1  0
  2 22  1  0
  3 23  1  0
  3 24  1  0
  4 25  1  0
  4 26  1  0
  5 27  1  1
  6 28  1  0
  7 29  1  0
  8 30  1  0
 15 31  1  0
 16 32  1  0
 17 33  1  0
 18 34  1  0
 19 35  1  0
M  ISO  8  20  13  21  13  22  13  23  13  24  13  25  13  26  13  27  13
M  ISO  8  28  14  29  14  30  14  31  14  32  14  33  14  34  14  35  14
M  END
>  <minimizedAffinity>  (1) 
-4.00949478

>  <minimizedRMSD>  (1) 
0.304825723

$$$$
