
     RDKit          3D

 32 34  0  0  1  0  0  0  0  0999 V2000
   38.7580   25.2620   34.9060 C   0  0  1  0  0  0  0  0  0  0  0  0
   37.5250   25.9730   34.6210 C   0  0  0  0  0  0  0  0  0  0  0  0
   37.9240   27.1130   33.7060 C   0  0  0  0  0  0  0  0  0  0  0  0
   39.4420   27.1830   33.6970 C   0  0  0  0  0  0  0  0  0  0  0  0
   39.8620   26.2890   34.8300 C   0  0  2  0  0  0  0  0  0  0  0  0
   39.6180   22.8320   37.5360 C   0  0  0  0  0  0  0  0  0  0  0  0
   38.7910   23.2720   38.6240 C   0  0  0  0  0  0  0  0  0  0  0  0
   37.9430   24.3960   38.4600 C   0  0  0  0  0  0  0  0  0  0  0  0
   37.9880   24.9830   37.2370 N   0  0  0  0  0  0  0  0  0  0  0  0
   38.7740   24.5460   36.2380 C   0  0  0  0  0  0  0  0  0  0  0  0
   39.5910   23.4750   36.3750 N   0  0  0  0  0  0  0  0  0  0  0  0
   41.1140   25.6150   34.4660 C   0  0  0  0  0  0  0  0  0  0  0  0
   42.1880   25.7950   35.0520 O   0  0  0  0  0  0  0  0  0  0  0  0
   41.2600   24.6390   33.3540 C   0  0  0  0  0  0  0  0  0  0  0  0
   40.9000   24.4220   31.9910 C   0  0  0  0  0  0  0  0  0  0  0  0
   41.3500   23.2680   31.4370 C   0  0  0  0  0  0  0  0  0  0  0  0
   42.1110   22.3090   32.0750 C   0  0  0  0  0  0  0  0  0  0  0  0
   42.2720   23.1200   33.8110 S   0  0  0  0  0  0  0  0  0  0  0  0
   38.8828   24.4538   34.1703 H   0  0  0  0  0  0  0  0  0  0  0  0
   36.8049   25.3099   34.1192 H   0  0  0  0  0  0  0  0  0  0  0  0
   37.0382   26.3345   35.5388 H   0  0  0  0  0  0  0  0  0  0  0  0
   37.5508   26.9257   32.6883 H   0  0  0  0  0  0  0  0  0  0  0  0
   37.4949   28.0619   34.0603 H   0  0  0  0  0  0  0  0  0  0  0  0
   39.8433   26.8152   32.7411 H   0  0  0  0  0  0  0  0  0  0  0  0
   39.8159   28.2111   33.8122 H   0  0  0  0  0  0  0  0  0  0  0  0
   40.0186   26.8300   35.7749 H   0  0  0  0  0  0  0  0  0  0  0  0
   40.2757   21.9598   37.6648 H   0  0  0  0  0  0  0  0  0  0  0  0
   38.8154   22.7369   39.5848 H   0  0  0  0  0  0  0  0  0  0  0  0
   37.2940   24.7665   39.2672 H   0  0  0  0  0  0  0  0  0  0  0  0
   40.2952   25.1452   31.4242 H   0  0  0  0  0  0  0  0  0  0  0  0
   41.0849   23.0799   30.3861 H   0  0  0  0  0  0  0  0  0  0  0  0
   42.5102   21.3556   31.6987 H   0  0  0  0  0  0  0  0  0  0  0  0
  1 10  1  0
  2  1  1  0
  3  2  1  0
  4  3  1  0
  4  5  1  0
  5  1  1  0
  6  7  2  0
  8  7  1  0
  9  8  2  0
 10 11  2  0
 10  9  1  0
 11  6  1  0
 12  5  1  0
 12 13  2  0
 14 18  1  0
 14 12  1  0
 15 14  2  0
 16 15  1  0
 16 17  2  0
 17 18  1  0
  1 19  1  6
  2 20  1  0
  2 21  1  0
  3 22  1  0
  3 23  1  0
  4 24  1  0
  4 25  1  0
  5 26  1  1
  6 27  1  0
  7 28  1  0
  8 29  1  0
 15 30  1  0
 16 31  1  0
 17 32  1  0
M  ISO  8  19  13  20  13  21  13  22  13  23  13  24  13  25  13  26  13
M  ISO  6  27  14  28  14  29  14  30  14  31  14  32  14
M  END
>  <minimizedAffinity>  (1) 
-3.98443532

>  <minimizedRMSD>  (1) 
0.260288954

$$$$
