
     RDKit          3D

 32 34  0  0  1  0  0  0  0  0999 V2000
   38.7530   25.2640   34.8990 C   0  0  1  0  0  0  0  0  0  0  0  0
   37.5210   25.9830   34.6160 C   0  0  0  0  0  0  0  0  0  0  0  0
   37.9280   27.1210   33.7030 C   0  0  0  0  0  0  0  0  0  0  0  0
   39.4400   27.1480   33.6500 C   0  0  0  0  0  0  0  0  0  0  0  0
   39.8630   26.2730   34.7980 C   0  0  2  0  0  0  0  0  0  0  0  0
   39.6040   22.8320   37.5290 C   0  0  0  0  0  0  0  0  0  0  0  0
   38.7880   23.2860   38.6270 C   0  0  0  0  0  0  0  0  0  0  0  0
   37.9560   24.4230   38.4600 C   0  0  0  0  0  0  0  0  0  0  0  0
   38.0010   25.0050   37.2350 N   0  0  0  0  0  0  0  0  0  0  0  0
   38.7690   24.5570   36.2370 C   0  0  0  0  0  0  0  0  0  0  0  0
   39.5790   23.4710   36.3650 N   0  0  0  0  0  0  0  0  0  0  0  0
   41.1100   25.5890   34.4450 C   0  0  0  0  0  0  0  0  0  0  0  0
   42.1970   25.8740   34.9820 O   0  0  0  0  0  0  0  0  0  0  0  0
   41.3310   24.5310   33.4790 C   0  0  0  0  0  0  0  0  0  0  0  0
   41.4810   24.5390   32.1110 C   0  0  0  0  0  0  0  0  0  0  0  0
   41.6770   23.3070   31.6180 N   0  0  0  0  0  0  0  0  0  0  0  0
   41.6560   22.4680   32.6730 C   0  0  0  0  0  0  0  0  0  0  0  0
   41.4460   23.2310   33.7880 N   0  0  0  0  0  0  0  0  0  0  0  0
   38.8680   24.4473   34.1712 H   0  0  0  0  0  0  0  0  0  0  0  0
   36.7968   25.3250   34.1134 H   0  0  0  0  0  0  0  0  0  0  0  0
   37.0354   26.3452   35.5342 H   0  0  0  0  0  0  0  0  0  0  0  0
   37.5204   26.9568   32.6946 H   0  0  0  0  0  0  0  0  0  0  0  0
   37.5380   28.0775   34.0811 H   0  0  0  0  0  0  0  0  0  0  0  0
   39.8046   26.7422   32.6948 H   0  0  0  0  0  0  0  0  0  0  0  0
   39.8469   28.1673   33.7238 H   0  0  0  0  0  0  0  0  0  0  0  0
   40.0312   26.8279   35.7328 H   0  0  0  0  0  0  0  0  0  0  0  0
   40.2510   21.9515   37.6558 H   0  0  0  0  0  0  0  0  0  0  0  0
   38.8102   22.7537   39.5894 H   0  0  0  0  0  0  0  0  0  0  0  0
   37.3174   24.8070   39.2692 H   0  0  0  0  0  0  0  0  0  0  0  0
   41.4444   25.4490   31.4942 H   0  0  0  0  0  0  0  0  0  0  0  0
   41.7837   21.3759   32.6426 H   0  0  0  0  0  0  0  0  0  0  0  0
   41.3839   22.8547   34.7448 H   0  0  0  0  0  0  0  0  0  0  0  0
  1 10  1  0
  2  1  1  0
  3  2  1  0
  4  3  1  0
  4  5  1  0
  5  1  1  0
  6  7  2  0
  8  7  1  0
  9  8  2  0
 10 11  2  0
 10  9  1  0
 11  6  1  0
 12  5  1  0
 12 13  2  0
 14 18  1  0
 14 12  1  0
 15 14  2  0
 16 15  1  0
 16 17  2  0
 17 18  1  0
  1 19  1  6
  2 20  1  0
  2 21  1  0
  3 22  1  0
  3 23  1  0
  4 24  1  0
  4 25  1  0
  5 26  1  1
  6 27  1  0
  7 28  1  0
  8 29  1  0
 15 30  1  0
 17 31  1  0
 18 32  1  0
M  ISO  8  19  13  20  13  21  13  22  13  23  13  24  13  25  13  26  13
M  ISO  6  27  14  28  14  29  14  30  14  31  14  32   9
M  END
>  <minimizedAffinity>  (1) 
-3.98219037

>  <minimizedRMSD>  (1) 
0.338654608

$$$$
