
     RDKit          3D

 27 28  0  0  1  0  0  0  0  0999 V2000
   38.7700   25.2690   34.8540 C   0  0  1  0  0  0  0  0  0  0  0  0
   37.5330   25.9860   34.5760 C   0  0  0  0  0  0  0  0  0  0  0  0
   37.9470   27.1660   33.6960 C   0  0  0  0  0  0  0  0  0  0  0  0
   39.4540   27.1110   33.5790 C   0  0  0  0  0  0  0  0  0  0  0  0
   39.8470   26.3500   34.8240 C   0  0  2  0  0  0  0  0  0  0  0  0
   39.6120   22.8300   37.4800 C   0  0  0  0  0  0  0  0  0  0  0  0
   38.7920   23.2630   38.5820 C   0  0  0  0  0  0  0  0  0  0  0  0
   37.9560   24.3920   38.4040 C   0  0  0  0  0  0  0  0  0  0  0  0
   37.9990   24.9830   37.1820 N   0  0  0  0  0  0  0  0  0  0  0  0
   38.7810   24.5500   36.1670 C   0  0  0  0  0  0  0  0  0  0  0  0
   39.5940   23.4700   36.3080 N   0  0  0  0  0  0  0  0  0  0  0  0
   41.1390   25.6930   34.5050 C   0  0  0  0  0  0  0  0  0  0  0  0
   42.1680   25.6940   35.1400 O   0  0  0  0  0  0  0  0  0  0  0  0
   41.1220   24.9700   33.2650 N   0  0  0  0  0  0  0  0  0  0  0  0
   38.9213   24.4693   34.1140 H   0  0  0  0  0  0  0  0  0  0  0  0
   36.8219   25.3375   34.0433 H   0  0  0  0  0  0  0  0  0  0  0  0
   37.0307   26.3149   35.4977 H   0  0  0  0  0  0  0  0  0  0  0  0
   37.4858   27.0777   32.7013 H   0  0  0  0  0  0  0  0  0  0  0  0
   37.6179   28.1206   34.1324 H   0  0  0  0  0  0  0  0  0  0  0  0
   39.7635   26.5744   32.6700 H   0  0  0  0  0  0  0  0  0  0  0  0
   39.9259   28.1016   33.5014 H   0  0  0  0  0  0  0  0  0  0  0  0
   39.9335   26.9380   35.7496 H   0  0  0  0  0  0  0  0  0  0  0  0
   40.2661   21.9547   37.6062 H   0  0  0  0  0  0  0  0  0  0  0  0
   38.8147   22.7275   39.5426 H   0  0  0  0  0  0  0  0  0  0  0  0
   37.3087   24.7688   39.2096 H   0  0  0  0  0  0  0  0  0  0  0  0
   41.9671   24.4752   32.9457 H   0  0  0  0  0  0  0  0  0  0  0  0
   40.2647   24.9460   32.6945 H   0  0  0  0  0  0  0  0  0  0  0  0
  1 10  1  0
  2  1  1  0
  3  2  1  0
  4  3  1  0
  4  5  1  0
  5  1  1  0
  6  7  2  0
  8  7  1  0
  9  8  2  0
 10 11  2  0
 10  9  1  0
 11  6  1  0
 12  5  1  0
 12 13  2  0
 14 12  1  0
  1 15  1  6
  2 16  1  0
  2 17  1  0
  3 18  1  0
  3 19  1  0
  4 20  1  0
  4 21  1  0
  5 22  1  1
  6 23  1  0
  7 24  1  0
  8 25  1  0
 14 26  1  0
 14 27  1  0
M  ISO  8  15  13  16  13  17  13  18  13  19  13  20  13  21  13  22  13
M  ISO  3  23  14  24  14  25  14
M  END
>  <minimizedAffinity>  (1) 
-3.9691596

>  <minimizedRMSD>  (1) 
0.0307928026

$$$$
