
     RDKit          3D

 33 36  0  0  0  0  0  0  0  0999 V2000
   36.1320   22.2300   31.6930 C   0  0  0  0  0  0  0  0  0  0  0  0
   35.0500   21.5400   32.1950 C   0  0  0  0  0  0  0  0  0  0  0  0
   34.8230   20.2000   32.0250 C   0  0  0  0  0  0  0  0  0  0  0  0
   35.7210   19.4510   31.3020 C   0  0  0  0  0  0  0  0  0  0  0  0
   36.8130   20.0720   30.7790 C   0  0  0  0  0  0  0  0  0  0  0  0
   37.7050   19.3080   30.0570 C   0  0  0  0  0  0  0  0  0  0  0  0
   38.8310   19.8630   29.4970 C   0  0  0  0  0  0  0  0  0  0  0  0
   39.0330   21.2330   29.6900 C   0  0  0  0  0  0  0  0  0  0  0  0
   38.1130   21.9490   30.4170 C   0  0  0  0  0  0  0  0  0  0  0  0
   37.0020   21.4230   30.9750 C   0  0  0  0  0  0  0  0  0  0  0  0
   35.5770   25.7210   31.0950 C   0  0  0  0  0  0  0  0  0  0  0  0
   36.3630   26.4350   32.0090 C   0  0  0  0  0  0  0  0  0  0  0  0
   37.1170   25.6690   32.8690 C   0  0  0  0  0  0  0  0  0  0  0  0
   37.0300   24.3400   32.7540 N   0  0  0  0  0  0  0  0  0  0  0  0
   36.3080   23.6520   31.9130 C   0  0  0  0  0  0  0  0  0  0  0  0
   35.5840   24.3980   31.0880 N   0  0  0  0  0  0  0  0  0  0  0  0
   37.9720   26.2240   33.8620 N   0  0  0  0  0  0  0  0  0  0  0  0
   37.4760   26.9230   34.8890 N   0  0  0  0  0  0  0  0  0  0  0  0
   38.4670   27.3480   35.6970 C   0  0  0  0  0  0  0  0  0  0  0  0
   39.6450   26.8700   35.1160 C   0  0  0  0  0  0  0  0  0  0  0  0
   39.2930   26.1670   33.9600 C   0  0  0  0  0  0  0  0  0  0  0  0
   34.3111   22.1097   32.7776 H   0  0  0  0  0  0  0  0  0  0  0  0
   33.9311   19.7278   32.4626 H   0  0  0  0  0  0  0  0  0  0  0  0
   35.5603   18.3735   31.1497 H   0  0  0  0  0  0  0  0  0  0  0  0
   37.5118   18.2330   29.9265 H   0  0  0  0  0  0  0  0  0  0  0  0
   39.5436   19.2545   28.9209 H   0  0  0  0  0  0  0  0  0  0  0  0
   39.9170   21.7311   29.2653 H   0  0  0  0  0  0  0  0  0  0  0  0
   38.2942   23.0253   30.5538 H   0  0  0  0  0  0  0  0  0  0  0  0
   34.9477   26.2659   30.3759 H   0  0  0  0  0  0  0  0  0  0  0  0
   36.3767   27.5345   32.0375 H   0  0  0  0  0  0  0  0  0  0  0  0
   38.3698   27.9435   36.6167 H   0  0  0  0  0  0  0  0  0  0  0  0
   40.6651   27.0199   35.4993 H   0  0  0  0  0  0  0  0  0  0  0  0
   39.9805   25.6630   33.2648 H   0  0  0  0  0  0  0  0  0  0  0  0
  1 15  1  0
  1  2  2  0
  3  2  1  0
  4  3  2  0
  5 10  2  0
  5  4  1  0
  6  5  1  0
  7  8  1  0
  7  6  2  0
  8  9  2  0
  9 10  1  0
 10  1  1  0
 11 12  2  0
 12 13  1  0
 13 17  1  0
 14 13  2  0
 15 14  1  0
 16 11  1  0
 16 15  2  0
 17 21  1  0
 17 18  1  0
 18 19  2  0
 20 19  1  0
 21 20  2  0
  2 22  1  0
  3 23  1  0
  4 24  1  0
  6 25  1  0
  7 26  1  0
  8 27  1  0
  9 28  1  0
 11 29  1  0
 12 30  1  0
 19 31  1  0
 20 32  1  0
 21 33  1  0
M  ISO  8  22  14  23  14  24  14  25  14  26  14  27  14  28  14  29  14
M  ISO  4  30  14  31  14  32  14  33  14
M  END
>  <minimizedAffinity>  (1) 
-5.90340519

>  <minimizedRMSD>  (1) 
4.80770969

$$$$
