
     RDKit          3D

 52 56  0  0  1  0  0  0  0  0999 V2000
   40.7720   25.6370   34.3240 C   0  0  0  0  0  0  0  0  0  0  0  0
   41.8410   25.4400   34.8910 O   0  0  0  0  0  0  0  0  0  0  0  0
   38.4600   25.4650   35.1030 C   0  0  1  0  0  0  0  0  0  0  0  0
   37.2840   26.3000   35.0710 C   0  0  0  0  0  0  0  0  0  0  0  0
   37.6680   27.4950   34.2180 C   0  0  0  0  0  0  0  0  0  0  0  0
   39.1610   27.3870   33.9320 C   0  0  0  0  0  0  0  0  0  0  0  0
   39.6570   26.4070   34.9320 C   0  0  2  0  0  0  0  0  0  0  0  0
   39.5590   22.8140   37.4060 C   0  0  0  0  0  0  0  0  0  0  0  0
   38.8830   23.1790   38.6270 C   0  0  0  0  0  0  0  0  0  0  0  0
   38.0580   24.3210   38.6540 C   0  0  0  0  0  0  0  0  0  0  0  0
   37.9700   25.0010   37.4820 N   0  0  0  0  0  0  0  0  0  0  0  0
   38.6200   24.6320   36.3480 C   0  0  0  0  0  0  0  0  0  0  0  0
   39.4160   23.5410   36.3020 N   0  0  0  0  0  0  0  0  0  0  0  0
   40.6680   25.0510   32.9850 C   0  0  0  0  0  0  0  0  0  0  0  0
   41.6590   25.1830   32.0460 C   0  0  0  0  0  0  0  0  0  0  0  0
   41.6740   24.6660   30.7880 C   0  0  0  0  0  0  0  0  0  0  0  0
   40.6040   23.9340   30.3840 C   0  0  0  0  0  0  0  0  0  0  0  0
   39.5880   23.7730   31.2710 C   0  0  0  0  0  0  0  0  0  0  0  0
   39.6680   24.3160   32.4760 N   0  0  0  0  0  0  0  0  0  0  0  0
   38.4110   22.9630   31.2570 C   0  0  0  0  0  0  0  0  0  0  0  0
   37.4130   22.2770   31.2440 N   0  0  0  0  0  0  0  0  0  0  0  0
   36.5400   21.4170   31.2510 C   0  0  0  0  0  0  0  0  0  0  0  0
   35.6200   22.3830   31.1270 N   0  0  0  0  0  0  0  0  0  0  0  0
   35.9960   23.6990   31.0610 C   0  0  0  0  0  0  0  0  0  0  0  0
   34.9010   24.6000   30.9960 C   0  0  0  0  0  0  0  0  0  0  0  0
   35.2360   25.9250   31.0050 C   0  0  0  0  0  0  0  0  0  0  0  0
   36.5120   26.4410   31.0750 C   0  0  0  0  0  0  0  0  0  0  0  0
   37.4450   25.4220   31.1310 C   0  0  0  0  0  0  0  0  0  0  0  0
   37.3880   23.9910   31.1290 C   0  0  0  0  0  0  0  0  0  0  0  0
   38.3763   24.7204   34.2977 H   0  0  0  0  0  0  0  0  0  0  0  0
   36.4391   25.7593   34.6196 H   0  0  0  0  0  0  0  0  0  0  0  0
   36.9653   26.6004   36.0801 H   0  0  0  0  0  0  0  0  0  0  0  0
   37.1022   27.4815   33.2748 H   0  0  0  0  0  0  0  0  0  0  0  0
   37.4387   28.4357   34.7400 H   0  0  0  0  0  0  0  0  0  0  0  0
   39.3363   27.0224   32.9091 H   0  0  0  0  0  0  0  0  0  0  0  0
   39.6738   28.3574   34.0048 H   0  0  0  0  0  0  0  0  0  0  0  0
   40.0083   26.8637   35.8690 H   0  0  0  0  0  0  0  0  0  0  0  0
   40.2019   21.9216   37.3881 H   0  0  0  0  0  0  0  0  0  0  0  0
   39.0110   22.5685   39.5330 H   0  0  0  0  0  0  0  0  0  0  0  0
   37.5229   24.6393   39.5608 H   0  0  0  0  0  0  0  0  0  0  0  0
   42.5391   25.7722   32.3432 H   0  0  0  0  0  0  0  0  0  0  0  0
   42.5288   24.8361   30.1168 H   0  0  0  0  0  0  0  0  0  0  0  0
   40.5617   23.4893   29.3788 H   0  0  0  0  0  0  0  0  0  0  0  0
   37.8697   23.7398   31.8170 H   0  0  0  0  0  0  0  0  0  0  0  0
   37.0878   22.6745   30.3512 H   0  0  0  0  0  0  0  0  0  0  0  0
   36.5832   20.7208   30.4005 H   0  0  0  0  0  0  0  0  0  0  0  0
   36.4793   20.6794   32.0648 H   0  0  0  0  0  0  0  0  0  0  0  0
   34.6215   22.1343   31.0809 H   0  0  0  0  0  0  0  0  0  0  0  0
   33.8574   24.2563   30.9422 H   0  0  0  0  0  0  0  0  0  0  0  0
   34.4088   26.6481   30.9513 H   0  0  0  0  0  0  0  0  0  0  0  0
   36.7544   27.5139   31.0849 H   0  0  0  0  0  0  0  0  0  0  0  0
   38.4761   25.8004   31.1915 H   0  0  0  0  0  0  0  0  0  0  0  0
  1  2  2  0
  1  7  1  0
  3 12  1  0
  4  3  1  0
  5  4  1  0
  6  5  1  0
  6  7  1  0
  7  3  1  0
  8  9  2  0
  9 10  1  0
 11 10  2  0
 12 11  1  0
 13 12  2  0
 13  8  1  0
 14  1  1  0
 15 14  2  0
 16 15  1  0
 17 16  2  0
 17 18  1  0
 18 19  2  0
 19 14  1  0
 20 18  1  0
 21 22  1  0
 21 20  1  0
 23 22  1  0
 24 23  1  0
 24 29  2  0
 25 26  2  0
 25 24  1  0
 26 27  1  0
 27 28  2  0
 29 28  1  0
 29 20  1  0
  3 30  1  6
  4 31  1  0
  4 32  1  0
  5 33  1  0
  5 34  1  0
  6 35  1  0
  6 36  1  0
  7 37  1  1
  8 38  1  0
  9 39  1  0
 10 40  1  0
 15 41  1  0
 16 42  1  0
 17 43  1  0
 20 44  1  0
 21 45  1  0
 22 46  1  0
 22 47  1  0
 23 48  1  0
 25 49  1  0
 26 50  1  0
 27 51  1  0
 28 52  1  0
M  ISO  8  30  13  31  13  32  13  33  13  34  13  35  13  36  13  37  13
M  ISO  8  38  14  39  14  40  14  41  14  42  14  43  14  44  13  45   5
M  ISO  6  46  13  47  13  49  14  50  14  51  14  52  14
M  END
>  <minimizedAffinity>  (1) 
-6.07635927

>  <minimizedRMSD>  (1) 
5.32648087

$$$$
