
     RDKit          3D

 48 52  0  0  1  0  0  0  0  0999 V2000
   38.3210   25.5400   35.2240 C   0  0  1  0  0  0  0  0  0  0  0  0
   37.0720   26.2540   35.2890 C   0  0  0  0  0  0  0  0  0  0  0  0
   37.3230   27.5610   34.5520 C   0  0  0  0  0  0  0  0  0  0  0  0
   38.8090   27.6180   34.2220 C   0  0  0  0  0  0  0  0  0  0  0  0
   39.4210   26.6020   35.1130 C   0  0  2  0  0  0  0  0  0  0  0  0
   39.6850   22.7770   37.2390 C   0  0  0  0  0  0  0  0  0  0  0  0
   39.0620   22.9980   38.5160 C   0  0  0  0  0  0  0  0  0  0  0  0
   38.1790   24.0880   38.6820 C   0  0  0  0  0  0  0  0  0  0  0  0
   37.9910   24.8560   37.5750 N   0  0  0  0  0  0  0  0  0  0  0  0
   38.6000   24.6130   36.3830 C   0  0  0  0  0  0  0  0  0  0  0  0
   39.4440   23.5810   36.2070 N   0  0  0  0  0  0  0  0  0  0  0  0
   40.5790   25.9960   34.4090 C   0  0  0  0  0  0  0  0  0  0  0  0
   41.6930   25.8910   34.9320 O   0  0  0  0  0  0  0  0  0  0  0  0
   40.4770   25.4830   33.0430 C   0  0  0  0  0  0  0  0  0  0  0  0
   40.7040   24.1610   32.7500 C   0  0  0  0  0  0  0  0  0  0  0  0
   40.6260   23.5840   31.5140 C   0  0  0  0  0  0  0  0  0  0  0  0
   40.2900   24.3900   30.4360 C   0  0  0  0  0  0  0  0  0  0  0  0
   40.0600   25.7110   30.6960 C   0  0  0  0  0  0  0  0  0  0  0  0
   40.1590   26.1780   31.9320 N   0  0  0  0  0  0  0  0  0  0  0  0
   39.7010   26.6230   29.6100 C   0  0  0  0  0  0  0  0  0  0  0  0
   40.1420   26.5900   28.3240 C   0  0  0  0  0  0  0  0  0  0  0  0
   39.6090   27.5830   27.5880 N   0  0  0  0  0  0  0  0  0  0  0  0
   38.7900   28.2880   28.4200 C   0  0  0  0  0  0  0  0  0  0  0  0
   37.9970   29.4100   28.1760 C   0  0  0  0  0  0  0  0  0  0  0  0
   37.2620   29.9170   29.2300 C   0  0  0  0  0  0  0  0  0  0  0  0
   37.2880   29.3620   30.4850 C   0  0  0  0  0  0  0  0  0  0  0  0
   38.0810   28.2550   30.6940 C   0  0  0  0  0  0  0  0  0  0  0  0
   38.8390   27.7000   29.6840 C   0  0  0  0  0  0  0  0  0  0  0  0
   38.2799   24.8659   34.3557 H   0  0  0  0  0  0  0  0  0  0  0  0
   36.2732   25.6802   34.7963 H   0  0  0  0  0  0  0  0  0  0  0  0
   36.7471   26.4220   36.3264 H   0  0  0  0  0  0  0  0  0  0  0  0
   36.7305   27.5904   33.6257 H   0  0  0  0  0  0  0  0  0  0  0  0
   37.0291   28.4203   35.1727 H   0  0  0  0  0  0  0  0  0  0  0  0
   38.9836   27.3659   33.1656 H   0  0  0  0  0  0  0  0  0  0  0  0
   39.2351   28.6209   34.3728 H   0  0  0  0  0  0  0  0  0  0  0  0
   39.7586   27.0033   36.0799 H   0  0  0  0  0  0  0  0  0  0  0  0
   40.3731   21.9280   37.1133 H   0  0  0  0  0  0  0  0  0  0  0  0
   39.2717   22.3224   39.3584 H   0  0  0  0  0  0  0  0  0  0  0  0
   37.6789   24.3007   39.6384 H   0  0  0  0  0  0  0  0  0  0  0  0
   40.9743   23.5042   33.5899 H   0  0  0  0  0  0  0  0  0  0  0  0
   40.8240   22.5106   31.3775 H   0  0  0  0  0  0  0  0  0  0  0  0
   40.2123   23.9832   29.4169 H   0  0  0  0  0  0  0  0  0  0  0  0
   40.8482   25.8428   27.9329 H   0  0  0  0  0  0  0  0  0  0  0  0
   39.7852   27.7732   26.5912 H   0  0  0  0  0  0  0  0  0  0  0  0
   37.9585   29.8743   27.1795 H   0  0  0  0  0  0  0  0  0  0  0  0
   36.6306   30.8009   29.0565 H   0  0  0  0  0  0  0  0  0  0  0  0
   36.6907   29.7903   31.3034 H   0  0  0  0  0  0  0  0  0  0  0  0
   38.1106   27.8006   31.6953 H   0  0  0  0  0  0  0  0  0  0  0  0
  1  2  1  0
  1 10  1  0
  3  2  1  0
  4  3  1  0
  4  5  1  0
  5  1  1  0
  6  7  2  0
  7  8  1  0
  9  8  2  0
 10  9  1  0
 11 10  2  0
 11  6  1  0
 12 13  2  0
 12  5  1  0
 14 12  1  0
 15 14  2  0
 16 15  1  0
 17 18  1  0
 17 16  2  0
 18 19  2  0
 19 14  1  0
 20 28  1  0
 20 18  1  0
 21 20  2  0
 22 21  1  0
 22 23  1  0
 23 28  2  0
 24 23  1  0
 24 25  2  0
 25 26  1  0
 26 27  2  0
 28 27  1  0
  1 29  1  6
  2 30  1  0
  2 31  1  0
  3 32  1  0
  3 33  1  0
  4 34  1  0
  4 35  1  0
  5 36  1  1
  6 37  1  0
  7 38  1  0
  8 39  1  0
 15 40  1  0
 16 41  1  0
 17 42  1  0
 21 43  1  0
 22 44  1  0
 24 45  1  0
 25 46  1  0
 26 47  1  0
 27 48  1  0
M  ISO  8  29  13  30  13  31  13  32  13  33  13  34  13  35  13  36  13
M  ISO  8  37  14  38  14  39  14  40  14  41  14  42  14  43  14  44   9
M  ISO  4  45  14  46  14  47  14  48  14
M  END
>  <minimizedAffinity>  (1) 
-5.38191748

>  <minimizedRMSD>  (1) 
2.39501595

$$$$
