
     RDKit          3D

 45 48  0  0  1  0  0  0  0  0999 V2000
   38.1870   25.4690   35.1020 C   0  0  1  0  0  0  0  0  0  0  0  0
   37.0790   26.3860   35.1800 C   0  0  0  0  0  0  0  0  0  0  0  0
   37.4420   27.5290   34.2430 C   0  0  0  0  0  0  0  0  0  0  0  0
   38.8720   27.2930   33.7760 C   0  0  0  0  0  0  0  0  0  0  0  0
   39.4190   26.3110   34.7450 C   0  0  2  0  0  0  0  0  0  0  0  0
   39.4160   22.8450   37.3740 C   0  0  0  0  0  0  0  0  0  0  0  0
   38.8810   23.2640   38.6390 C   0  0  0  0  0  0  0  0  0  0  0  0
   38.1040   24.4380   38.7100 C   0  0  0  0  0  0  0  0  0  0  0  0
   37.9250   25.0880   37.5310 N   0  0  0  0  0  0  0  0  0  0  0  0
   38.4470   24.6600   36.3510 C   0  0  0  0  0  0  0  0  0  0  0  0
   39.1910   23.5440   36.2640 N   0  0  0  0  0  0  0  0  0  0  0  0
   40.3830   25.4340   34.0310 C   0  0  0  0  0  0  0  0  0  0  0  0
   41.5250   25.2250   34.4540 O   0  0  0  0  0  0  0  0  0  0  0  0
   40.0420   24.7620   32.7760 C   0  0  0  0  0  0  0  0  0  0  0  0
   39.6240   23.4540   32.7470 C   0  0  0  0  0  0  0  0  0  0  0  0
   39.2760   22.7440   31.6370 C   0  0  0  0  0  0  0  0  0  0  0  0
   39.3460   23.3810   30.4060 C   0  0  0  0  0  0  0  0  0  0  0  0
   39.7610   24.6840   30.4000 C   0  0  0  0  0  0  0  0  0  0  0  0
   40.0770   25.2910   31.5350 N   0  0  0  0  0  0  0  0  0  0  0  0
   39.8470   25.3710   29.1570 N   0  0  0  0  0  0  0  0  0  0  0  0
   39.9560   24.8940   27.9110 C   0  0  0  0  0  0  0  0  0  0  0  0
   40.0210   25.7860   26.8600 C   0  0  0  0  0  0  0  0  0  0  0  0
   39.9770   27.1550   27.0550 C   0  0  0  0  0  0  0  0  0  0  0  0
   40.0490   28.0370   25.9350 N   0  0  0  0  0  0  0  0  0  0  0  0
   39.8670   27.5910   28.3260 N   0  0  0  0  0  0  0  0  0  0  0  0
   39.8040   26.7230   29.3430 C   0  0  0  0  0  0  0  0  0  0  0  0
   39.7010   27.3290   30.4590 O   0  0  0  0  0  0  0  0  0  0  0  0
   37.9464   24.7091   34.3440 H   0  0  0  0  0  0  0  0  0  0  0  0
   36.1499   25.8976   34.8511 H   0  0  0  0  0  0  0  0  0  0  0  0
   36.9059   26.7359   36.2084 H   0  0  0  0  0  0  0  0  0  0  0  0
   36.7606   27.5391   33.3795 H   0  0  0  0  0  0  0  0  0  0  0  0
   37.3544   28.4975   34.7570 H   0  0  0  0  0  0  0  0  0  0  0  0
   38.8855   26.8821   32.7557 H   0  0  0  0  0  0  0  0  0  0  0  0
   39.4608   28.2215   33.7422 H   0  0  0  0  0  0  0  0  0  0  0  0
   39.9210   26.7692   35.6099 H   0  0  0  0  0  0  0  0  0  0  0  0
   40.0231   21.9292   37.3214 H   0  0  0  0  0  0  0  0  0  0  0  0
   39.0761   22.6731   39.5461 H   0  0  0  0  0  0  0  0  0  0  0  0
   37.6728   24.8022   39.6542 H   0  0  0  0  0  0  0  0  0  0  0  0
   39.5644   22.9293   33.7120 H   0  0  0  0  0  0  0  0  0  0  0  0
   38.9492   21.6965   31.7145 H   0  0  0  0  0  0  0  0  0  0  0  0
   39.0790   22.8600   29.4747 H   0  0  0  0  0  0  0  0  0  0  0  0
   39.9931   23.8100   27.7280 H   0  0  0  0  0  0  0  0  0  0  0  0
   40.1106   25.3964   25.8352 H   0  0  0  0  0  0  0  0  0  0  0  0
   40.0163   29.0563   26.0793 H   0  0  0  0  0  0  0  0  0  0  0  0
   40.1336   27.6541   24.9826 H   0  0  0  0  0  0  0  0  0  0  0  0
  1  2  1  0
  1 10  1  0
  3  2  1  0
  4  3  1  0
  4  5  1  0
  5  1  1  0
  6  7  2  0
  7  8  1  0
  9  8  2  0
 10  9  1  0
 11 10  2  0
 11  6  1  0
 12 13  2  0
 12  5  1  0
 14 12  1  0
 15 14  2  0
 16 15  1  0
 17 16  2  0
 18 17  1  0
 18 19  2  0
 19 14  1  0
 20 26  1  0
 20 18  1  0
 21 20  1  0
 22 23  1  0
 22 21  2  0
 23 25  2  0
 24 23  1  0
 25 26  1  0
 26 27  2  0
  1 28  1  6
  2 29  1  0
  2 30  1  0
  3 31  1  0
  3 32  1  0
  4 33  1  0
  4 34  1  0
  5 35  1  1
  6 36  1  0
  7 37  1  0
  8 38  1  0
 15 39  1  0
 16 40  1  0
 17 41  1  0
 21 42  1  0
 22 43  1  0
 24 44  1  0
 24 45  1  0
M  ISO  8  28  13  29  13  30  13  31  13  32  13  33  13  34  13  35  13
M  ISO  8  36  14  37  14  38  14  39  14  40  14  41  14  42  14  43  14
M  END
>  <minimizedAffinity>  (1) 
-5.26549959

>  <minimizedRMSD>  (1) 
1.87349761

$$$$
