
     RDKit          3D

 48 51  0  0  1  0  0  0  0  0999 V2000
   38.3860   25.4750   35.1690 C   0  0  1  0  0  0  0  0  0  0  0  0
   37.1440   26.2050   35.1300 C   0  0  0  0  0  0  0  0  0  0  0  0
   37.4480   27.4610   34.3260 C   0  0  0  0  0  0  0  0  0  0  0  0
   38.9460   27.4770   34.0540 C   0  0  0  0  0  0  0  0  0  0  0  0
   39.5030   26.5170   35.0420 C   0  0  2  0  0  0  0  0  0  0  0  0
   39.6070   22.8270   37.4190 C   0  0  0  0  0  0  0  0  0  0  0  0
   38.9370   23.1590   38.6540 C   0  0  0  0  0  0  0  0  0  0  0  0
   38.0790   24.2740   38.7100 C   0  0  0  0  0  0  0  0  0  0  0  0
   37.9540   24.9640   37.5490 N   0  0  0  0  0  0  0  0  0  0  0  0
   38.5980   24.6260   36.4000 C   0  0  0  0  0  0  0  0  0  0  0  0
   39.4220   23.5650   36.3300 N   0  0  0  0  0  0  0  0  0  0  0  0
   40.6850   25.8560   34.4330 C   0  0  0  0  0  0  0  0  0  0  0  0
   41.7850   25.8170   34.9950 O   0  0  0  0  0  0  0  0  0  0  0  0
   40.6260   25.2070   33.1240 C   0  0  0  0  0  0  0  0  0  0  0  0
   40.8410   23.8570   32.9820 C   0  0  0  0  0  0  0  0  0  0  0  0
   40.8000   23.1530   31.8080 C   0  0  0  0  0  0  0  0  0  0  0  0
   40.5180   23.8470   30.6420 C   0  0  0  0  0  0  0  0  0  0  0  0
   40.3000   25.1910   30.7540 C   0  0  0  0  0  0  0  0  0  0  0  0
   40.3610   25.7790   31.9320 N   0  0  0  0  0  0  0  0  0  0  0  0
   40.0000   26.0490   29.6580 N   0  0  0  0  0  0  0  0  0  0  0  0
   39.8880   25.6380   28.2900 C   0  0  0  0  0  0  0  0  0  0  0  0
   40.2870   26.8310   27.4340 C   0  0  0  0  0  0  0  0  0  0  0  0
   39.1040   27.7020   27.4360 N   0  0  0  0  0  0  0  0  0  0  0  0
   38.7640   27.9900   28.7950 C   0  0  0  0  0  0  0  0  0  0  0  0
   39.7680   27.4720   29.8060 C   0  0  0  0  0  0  0  0  0  0  0  0
   38.3775   24.7459   34.3454 H   0  0  0  0  0  0  0  0  0  0  0  0
   36.3616   25.6101   34.6360 H   0  0  0  0  0  0  0  0  0  0  0  0
   36.7724   26.4406   36.1381 H   0  0  0  0  0  0  0  0  0  0  0  0
   36.8937   27.4425   33.3760 H   0  0  0  0  0  0  0  0  0  0  0  0
   37.1449   28.3605   34.8819 H   0  0  0  0  0  0  0  0  0  0  0  0
   39.1600   27.1482   33.0263 H   0  0  0  0  0  0  0  0  0  0  0  0
   39.3821   28.4823   34.1494 H   0  0  0  0  0  0  0  0  0  0  0  0
   39.7988   26.9775   35.9962 H   0  0  0  0  0  0  0  0  0  0  0  0
   40.2766   21.9552   37.3794 H   0  0  0  0  0  0  0  0  0  0  0  0
   39.0966   22.5415   39.5502 H   0  0  0  0  0  0  0  0  0  0  0  0
   37.5485   24.5645   39.6288 H   0  0  0  0  0  0  0  0  0  0  0  0
   41.0671   23.2890   33.8965 H   0  0  0  0  0  0  0  0  0  0  0  0
   40.9854   22.0689   31.7910 H   0  0  0  0  0  0  0  0  0  0  0  0
   40.4717   23.3376   29.6682 H   0  0  0  0  0  0  0  0  0  0  0  0
   40.5608   24.7902   28.0938 H   0  0  0  0  0  0  0  0  0  0  0  0
   38.8622   25.3146   28.0596 H   0  0  0  0  0  0  0  0  0  0  0  0
   40.5310   26.5101   26.4105 H   0  0  0  0  0  0  0  0  0  0  0  0
   41.1810   27.3415   27.8214 H   0  0  0  0  0  0  0  0  0  0  0  0
   39.3147   28.5776   26.9361 H   0  0  0  0  0  0  0  0  0  0  0  0
   38.6903   29.0816   28.9090 H   0  0  0  0  0  0  0  0  0  0  0  0
   37.8128   27.4770   29.0002 H   0  0  0  0  0  0  0  0  0  0  0  0
   39.3852   27.6663   30.8188 H   0  0  0  0  0  0  0  0  0  0  0  0
   40.7222   27.9922   29.6357 H   0  0  0  0  0  0  0  0  0  0  0  0
  1 10  1  0
  2  1  1  0
  3  2  1  0
  4  3  1  0
  4  5  1  0
  5  1  1  0
  6  7  2  0
  7  8  1  0
  9  8  2  0
 10  9  1  0
 11 10  2  0
 11  6  1  0
 12 13  2  0
 12  5  1  0
 14 12  1  0
 15 14  2  0
 16 15  1  0
 17 18  1  0
 17 16  2  0
 18 19  2  0
 19 14  1  0
 20 25  1  0
 20 18  1  0
 21 20  1  0
 22 23  1  0
 22 21  1  0
 23 24  1  0
 24 25  1  0
  1 26  1  6
  2 27  1  0
  2 28  1  0
  3 29  1  0
  3 30  1  0
  4 31  1  0
  4 32  1  0
  5 33  1  1
  6 34  1  0
  7 35  1  0
  8 36  1  0
 15 37  1  0
 16 38  1  0
 17 39  1  0
 21 40  1  0
 21 41  1  0
 22 42  1  0
 22 43  1  0
 23 44  1  0
 24 45  1  0
 24 46  1  0
 25 47  1  0
 25 48  1  0
M  ISO  8  26  13  27  13  28  13  29  13  30  13  31  13  32  13  33  13
M  ISO  8  34  14  35  14  36  14  37  14  38  14  39  14  40  13  41  13
M  ISO  7  42  13  43  13  44   5  45  13  46  13  47  13  48  13
M  END
>  <minimizedAffinity>  (1) 
-4.93629599

>  <minimizedRMSD>  (1) 
1.71089566

$$$$
