
     RDKit          3D

 41 43  0  0  0  0  0  0  0  0999 V2000
   38.7588   25.2537   34.8629 C   0  0  1  0  0  0  0  0  0  0  0  0
   37.5286   25.9374   34.5594 C   0  0  0  0  0  0  0  0  0  0  0  0
   37.9262   27.1150   33.6898 C   0  0  0  0  0  0  0  0  0  0  0  0
   39.4485   27.1593   33.6613 C   0  0  0  0  0  0  0  0  0  0  0  0
   39.8666   26.3135   34.8115 C   0  0  2  0  0  0  0  0  0  0  0  0
   39.6064   22.8288   37.5016 C   0  0  0  0  0  0  0  0  0  0  0  0
   38.8001   23.2886   38.6010 C   0  0  0  0  0  0  0  0  0  0  0  0
   37.9714   24.4204   38.4360 C   0  0  0  0  0  0  0  0  0  0  0  0
   38.0208   24.9852   37.2038 N   0  0  0  0  0  0  0  0  0  0  0  0
   38.7898   24.5297   36.1874 C   0  0  0  0  0  0  0  0  0  0  0  0
   39.5839   23.4544   36.3277 N   0  0  0  0  0  0  0  0  0  0  0  0
   41.1347   25.6393   34.4500 C   0  0  0  0  0  0  0  0  0  0  0  0
   42.1062   25.6148   35.2224 O   0  0  0  0  0  0  0  0  0  0  0  0
   41.3309   24.9587   33.1666 C   0  0  0  0  0  0  0  0  0  0  0  0
   41.0740   23.6153   33.0355 C   0  0  0  0  0  0  0  0  0  0  0  0
   41.2164   22.8808   31.8866 C   0  0  0  0  0  0  0  0  0  0  0  0
   41.6596   23.5424   30.7513 C   0  0  0  0  0  0  0  0  0  0  0  0
   41.9244   24.8943   30.8650 C   0  0  0  0  0  0  0  0  0  0  0  0
   41.7506   25.4864   32.0113 N   0  0  0  0  0  0  0  0  0  0  0  0
   39.0232   24.5093   34.0771 H   0  0  0  0  0  0  0  0  0  0  0  0
   36.8793   25.2840   33.9104 H   0  0  0  0  0  0  0  0  0  0  0  0
   36.8650   26.2358   35.3977 H   0  0  0  0  0  0  0  0  0  0  0  0
   37.4861   28.0244   34.1436 H   0  0  0  0  0  0  0  0  0  0  0  0
   37.5344   27.0447   32.6561 H   0  0  0  0  0  0  0  0  0  0  0  0
   39.8382   26.8058   32.6860 H   0  0  0  0  0  0  0  0  0  0  0  0
   39.7384   28.2095   33.8649 H   0  0  0  0  0  0  0  0  0  0  0  0
   39.9918   26.8062   35.7713 H   0  0  0  0  0  0  0  0  0  0  0  0
   40.2189   21.9462   37.7148 H   0  0  0  0  0  0  0  0  0  0  0  0
   38.8442   22.7573   39.5352 H   0  0  0  0  0  0  0  0  0  0  0  0
   37.3668   24.7777   39.2355 H   0  0  0  0  0  0  0  0  0  0  0  0
   40.7380   22.9706   33.8473 H   0  0  0  0  0  0  0  0  0  0  0  0
   41.0121   21.8174   31.7819 H   0  0  0  0  0  0  0  0  0  0  0  0
   41.7889   22.9940   29.8057 H   0  0  0  0  0  0  0  0  0  0  0  0
   42.3888   25.5039   29.6690 N   0  0  0  0  0  0  0  0  0  0  0  0
   41.4400   26.0539   28.7686 C   0  0  0  0  0  0  0  0  0  0  0  0
   40.3186   25.4903   28.5031 N   0  0  0  0  0  0  0  0  0  0  0  0
   41.6929   27.2999   28.0887 N   0  0  0  0  0  0  0  0  0  0  0  0
   43.3918   25.5827   29.3982 H   0  0  0  0  0  0  0  0  0  0  0  0
   40.0930   24.5931   28.9649 H   0  0  0  0  0  0  0  0  0  0  0  0
   42.1082   28.2275   28.3854 H   0  0  0  0  0  0  0  0  0  0  0  0
   41.9015   28.2202   27.6637 H   0  0  0  0  0  0  0  0  0  0  0  0
  1 10  1  0
  2  1  1  0
  3  2  1  0
  4  3  1  0
  4  5  1  0
  5  1  1  0
  6  7  2  0
  8  7  1  0
  9  8  2  0
 10 11  2  0
 10  9  1  0
 11  6  1  0
 12  5  1  0
 12 13  2  0
 14 12  1  0
 15 14  2  0
 16 15  1  0
 17 18  1  0
 17 16  2  0
 18 19  2  0
 19 14  1  0
  1 20  1  6
  2 21  1  0
  2 22  1  0
  3 23  1  0
  3 24  1  0
  4 25  1  0
  4 26  1  0
  5 27  1  1
  6 28  1  0
  7 29  1  0
  8 30  1  0
 15 31  1  0
 16 32  1  0
 17 33  1  0
 34 35  1  0
 35 36  2  3
 35 37  1  0
 34 38  1  0
 36 39  1  0
 37 40  1  0
 37 41  1  0
 18 34  1  0
M  END
>  <DihAtoms>  (1) 
16,17,33,34

>  <DihDeg>  (1) 
179.97871192472493

$$$$
