
     RDKit          3D

 38 41  0  0  0  0  0  0  0  0999 V2000
   38.1110   25.2920   34.4520 C   0  0  0  0  0  0  0  0  0  0  0  0
   38.5820   25.7860   35.6610 C   0  0  0  0  0  0  0  0  0  0  0  0
   38.3510   27.0640   36.1210 C   0  0  0  0  0  0  0  0  0  0  0  0
   37.6150   27.9320   35.3720 C   0  0  0  0  0  0  0  0  0  0  0  0
   37.1200   27.5110   34.1720 C   0  0  0  0  0  0  0  0  0  0  0  0
   36.3800   28.3990   33.4290 C   0  0  0  0  0  0  0  0  0  0  0  0
   35.8480   28.0430   32.2070 C   0  0  0  0  0  0  0  0  0  0  0  0
   36.0960   26.7500   31.7650 C   0  0  0  0  0  0  0  0  0  0  0  0
   36.8400   25.8950   32.5400 C   0  0  0  0  0  0  0  0  0  0  0  0
   37.3740   26.2180   33.7430 C   0  0  0  0  0  0  0  0  0  0  0  0
   40.1630   22.4230   33.8090 C   0  0  0  0  0  0  0  0  0  0  0  0
   39.3580   21.4170   33.3030 C   0  0  0  0  0  0  0  0  0  0  0  0
   38.0240   21.7560   33.1800 C   0  0  0  0  0  0  0  0  0  0  0  0
   37.6310   22.9850   33.5450 N   0  0  0  0  0  0  0  0  0  0  0  0
   38.3870   23.9370   34.0220 C   0  0  0  0  0  0  0  0  0  0  0  0
   39.6640   23.6090   34.1380 N   0  0  0  0  0  0  0  0  0  0  0  0
   37.0490   20.8470   32.6790 N   0  0  0  0  0  0  0  0  0  0  0  0
   35.8460   20.3290   33.3400 C   0  0  0  0  0  0  0  0  0  0  0  0
   34.7940   20.4790   32.2360 C   0  0  0  0  0  0  0  0  0  0  0  0
   35.5930   20.4720   30.9350 C   0  0  0  0  0  0  0  0  0  0  0  0
   37.0180   20.2090   31.3770 C   0  0  0  0  0  0  0  0  0  0  0  0
   39.1791   25.1125   36.2934 H   0  0  0  0  0  0  0  0  0  0  0  0
   38.7600   27.3829   37.0911 H   0  0  0  0  0  0  0  0  0  0  0  0
   37.4230   28.9548   35.7285 H   0  0  0  0  0  0  0  0  0  0  0  0
   36.2084   29.4141   33.8164 H   0  0  0  0  0  0  0  0  0  0  0  0
   35.2544   28.7510   31.6099 H   0  0  0  0  0  0  0  0  0  0  0  0
   35.6976   26.4119   30.7970 H   0  0  0  0  0  0  0  0  0  0  0  0
   37.0146   24.8782   32.1583 H   0  0  0  0  0  0  0  0  0  0  0  0
   41.2389   22.2361   33.9414 H   0  0  0  0  0  0  0  0  0  0  0  0
   39.7485   20.4279   33.0216 H   0  0  0  0  0  0  0  0  0  0  0  0
   35.9718   19.2763   33.6333 H   0  0  0  0  0  0  0  0  0  0  0  0
   35.5902   20.8514   34.2736 H   0  0  0  0  0  0  0  0  0  0  0  0
   34.0843   19.6389   32.2598 H   0  0  0  0  0  0  0  0  0  0  0  0
   34.1966   21.3953   32.3524 H   0  0  0  0  0  0  0  0  0  0  0  0
   35.5157   21.4431   30.4242 H   0  0  0  0  0  0  0  0  0  0  0  0
   35.2277   19.7205   30.2196 H   0  0  0  0  0  0  0  0  0  0  0  0
   37.2203   19.1306   31.4548 H   0  0  0  0  0  0  0  0  0  0  0  0
   37.7778   20.5881   30.6777 H   0  0  0  0  0  0  0  0  0  0  0  0
  1  2  2  0
  2  3  1  0
  4  3  2  0
  5  4  1  0
  6  5  2  0
  7  6  1  0
  8  7  2  0
  8  9  1  0
  9 10  2  0
 10  5  1  0
 10  1  1  0
 11 16  2  0
 12 11  1  0
 13 12  2  0
 13 14  1  0
 14 15  2  0
 15 16  1  0
 15  1  1  0
 17 13  1  0
 17 18  1  0
 19 18  1  0
 20 21  1  0
 20 19  1  0
 21 17  1  0
  2 22  1  0
  3 23  1  0
  4 24  1  0
  6 25  1  0
  7 26  1  0
  8 27  1  0
  9 28  1  0
 11 29  1  0
 12 30  1  0
 18 31  1  0
 18 32  1  0
 19 33  1  0
 19 34  1  0
 20 35  1  0
 20 36  1  0
 21 37  1  0
 21 38  1  0
M  ISO  8  22  14  23  14  24  14  25  14  26  14  27  14  28  14  29  14
M  ISO  8  30  14  31  13  32  13  33  13  34  13  35  13  36  13  37  13
M  ISO  1  38  13
M  END
>  <minimizedAffinity>  (1) 
-5.74003458

>  <minimizedRMSD>  (1) 
6.0196476

$$$$
