
     RDKit          3D

 47 50  0  0  1  0  0  0  0  0999 V2000
   38.7820   25.2500   34.9750 C   0  0  1  0  0  0  0  0  0  0  0  0
   37.5890   26.0050   34.6860 C   0  0  0  0  0  0  0  0  0  0  0  0
   38.0540   27.1560   33.8070 C   0  0  0  0  0  0  0  0  0  0  0  0
   39.5750   27.1020   33.7520 C   0  0  0  0  0  0  0  0  0  0  0  0
   39.9500   26.2400   34.8980 C   0  0  2  0  0  0  0  0  0  0  0  0
   39.5620   22.8270   37.6370 C   0  0  0  0  0  0  0  0  0  0  0  0
   38.7590   23.3000   38.7260 C   0  0  0  0  0  0  0  0  0  0  0  0
   37.9500   24.4450   38.5470 C   0  0  0  0  0  0  0  0  0  0  0  0
   38.0110   25.0130   37.3120 N   0  0  0  0  0  0  0  0  0  0  0  0
   38.7860   24.5330   36.3050 C   0  0  0  0  0  0  0  0  0  0  0  0
   39.5630   23.4460   36.4570 N   0  0  0  0  0  0  0  0  0  0  0  0
   41.1750   25.4810   34.5340 C   0  0  0  0  0  0  0  0  0  0  0  0
   42.2640   25.6800   35.0790 O   0  0  0  0  0  0  0  0  0  0  0  0
   41.1660   24.4430   33.5010 C   0  0  0  0  0  0  0  0  0  0  0  0
   42.1590   23.4970   33.4200 C   0  0  0  0  0  0  0  0  0  0  0  0
   42.2460   22.4790   32.5120 C   0  0  0  0  0  0  0  0  0  0  0  0
   41.2320   22.3860   31.5720 C   0  0  0  0  0  0  0  0  0  0  0  0
   40.2250   23.3090   31.6160 C   0  0  0  0  0  0  0  0  0  0  0  0
   40.2510   24.2380   32.5340 N   0  0  0  0  0  0  0  0  0  0  0  0
   39.1400   23.2040   30.5990 C   0  0  0  0  0  0  0  0  0  0  0  0
   38.4270   24.5180   30.3790 C   0  0  0  0  0  0  0  0  0  0  0  0
   39.3320   25.2350   29.4130 C   0  0  0  0  0  0  0  0  0  0  0  0
   39.6630   24.1350   28.4190 C   0  0  0  0  0  0  0  0  0  0  0  0
   39.6210   22.8640   29.2330 C   0  0  0  0  0  0  0  0  0  0  0  0
   38.8561   24.4365   34.2383 H   0  0  0  0  0  0  0  0  0  0  0  0
   36.8571   25.3816   34.1514 H   0  0  0  0  0  0  0  0  0  0  0  0
   37.0925   26.3591   35.6015 H   0  0  0  0  0  0  0  0  0  0  0  0
   37.6372   27.0481   32.7948 H   0  0  0  0  0  0  0  0  0  0  0  0
   37.7143   28.1188   34.2163 H   0  0  0  0  0  0  0  0  0  0  0  0
   39.9156   26.6605   32.8038 H   0  0  0  0  0  0  0  0  0  0  0  0
   40.0343   28.1000   33.8075 H   0  0  0  0  0  0  0  0  0  0  0  0
   40.1337   26.7939   35.8305 H   0  0  0  0  0  0  0  0  0  0  0  0
   40.1901   21.9350   37.7782 H   0  0  0  0  0  0  0  0  0  0  0  0
   38.7723   22.7761   39.6932 H   0  0  0  0  0  0  0  0  0  0  0  0
   37.3155   24.8487   39.3498 H   0  0  0  0  0  0  0  0  0  0  0  0
   42.9676   23.5659   34.1626 H   0  0  0  0  0  0  0  0  0  0  0  0
   43.0832   21.7657   32.5268 H   0  0  0  0  0  0  0  0  0  0  0  0
   41.2375   21.5913   30.8115 H   0  0  0  0  0  0  0  0  0  0  0  0
   38.4987   22.4164   31.0215 H   0  0  0  0  0  0  0  0  0  0  0  0
   37.4297   24.3588   29.9430 H   0  0  0  0  0  0  0  0  0  0  0  0
   38.2536   25.0788   31.3093 H   0  0  0  0  0  0  0  0  0  0  0  0
   38.8126   26.0727   28.9246 H   0  0  0  0  0  0  0  0  0  0  0  0
   40.2160   25.6886   29.8850 H   0  0  0  0  0  0  0  0  0  0  0  0
   40.6637   24.2881   27.9887 H   0  0  0  0  0  0  0  0  0  0  0  0
   38.9618   24.1122   27.5718 H   0  0  0  0  0  0  0  0  0  0  0  0
   38.9339   22.1440   28.7645 H   0  0  0  0  0  0  0  0  0  0  0  0
   40.6223   22.4115   29.2839 H   0  0  0  0  0  0  0  0  0  0  0  0
  1 10  1  0
  2  1  1  0
  3  2  1  0
  4  3  1  0
  4  5  1  0
  5  1  1  0
  6  7  2  0
  8  7  1  0
  9  8  2  0
 10 11  2  0
 10  9  1  0
 11  6  1  0
 12  5  1  0
 12 13  2  0
 14 12  1  0
 15 14  2  0
 16 15  1  0
 17 18  1  0
 17 16  2  0
 18 19  2  0
 19 14  1  0
 20 18  1  0
 21 20  1  0
 22 21  1  0
 23 24  1  0
 23 22  1  0
 24 20  1  0
  1 25  1  6
  2 26  1  0
  2 27  1  0
  3 28  1  0
  3 29  1  0
  4 30  1  0
  4 31  1  0
  5 32  1  1
  6 33  1  0
  7 34  1  0
  8 35  1  0
 15 36  1  0
 16 37  1  0
 17 38  1  0
 20 39  1  0
 21 40  1  0
 21 41  1  0
 22 42  1  0
 22 43  1  0
 23 44  1  0
 23 45  1  0
 24 46  1  0
 24 47  1  0
M  ISO  8  25  13  26  13  27  13  28  13  29  13  30  13  31  13  32  13
M  ISO  8  33  14  34  14  35  14  36  14  37  14  38  14  39  13  40  13
M  ISO  7  41  13  42  13  43  13  44  13  45  13  46  13  47  13
M  END
>  <minimizedAffinity>  (1) 
-4.56178713

>  <minimizedRMSD>  (1) 
2.39887285

$$$$
