
     RDKit          3D

 41 44  0  0  1  0  0  0  0  0999 V2000
   38.5590   25.3590   35.0040 C   0  0  1  0  0  0  0  0  0  0  0  0
   37.3240   26.0870   34.8450 C   0  0  0  0  0  0  0  0  0  0  0  0
   37.6780   27.2790   33.9750 C   0  0  0  0  0  0  0  0  0  0  0  0
   39.1930   27.3060   33.8270 C   0  0  0  0  0  0  0  0  0  0  0  0
   39.6800   26.4050   34.8990 C   0  0  2  0  0  0  0  0  0  0  0  0
   39.6160   22.8400   37.4730 C   0  0  0  0  0  0  0  0  0  0  0  0
   38.8750   23.2440   38.6450 C   0  0  0  0  0  0  0  0  0  0  0  0
   38.0220   24.3690   38.5820 C   0  0  0  0  0  0  0  0  0  0  0  0
   37.9830   24.9800   37.3770 N   0  0  0  0  0  0  0  0  0  0  0  0
   38.6840   24.5840   36.2950 C   0  0  0  0  0  0  0  0  0  0  0  0
   39.5000   23.5160   36.3380 N   0  0  0  0  0  0  0  0  0  0  0  0
   40.9020   25.7170   34.4110 C   0  0  0  0  0  0  0  0  0  0  0  0
   41.9610   25.7120   35.0550 O   0  0  0  0  0  0  0  0  0  0  0  0
   40.9380   25.0020   33.1400 C   0  0  0  0  0  0  0  0  0  0  0  0
   41.0510   23.6350   33.0870 C   0  0  0  0  0  0  0  0  0  0  0  0
   41.0890   22.8670   31.9530 C   0  0  0  0  0  0  0  0  0  0  0  0
   41.0080   23.5170   30.7310 C   0  0  0  0  0  0  0  0  0  0  0  0
   40.8940   24.8790   30.7500 C   0  0  0  0  0  0  0  0  0  0  0  0
   40.8660   25.5300   31.9000 N   0  0  0  0  0  0  0  0  0  0  0  0
   40.8010   25.6980   29.5880 N   0  0  0  0  0  0  0  0  0  0  0  0
   39.6170   26.2020   29.1900 C   0  0  0  0  0  0  0  0  0  0  0  0
   39.8520   26.9530   28.0340 C   0  0  0  0  0  0  0  0  0  0  0  0
   41.1740   26.8800   27.7680 N   0  0  0  0  0  0  0  0  0  0  0  0
   41.7680   26.1070   28.7220 C   0  0  0  0  0  0  0  0  0  0  0  0
   38.6098   24.5840   34.2250 H   0  0  0  0  0  0  0  0  0  0  0  0
   36.5667   25.4600   34.3517 H   0  0  0  0  0  0  0  0  0  0  0  0
   36.8986   26.3938   35.8119 H   0  0  0  0  0  0  0  0  0  0  0  0
   37.2062   27.1755   32.9867 H   0  0  0  0  0  0  0  0  0  0  0  0
   37.3175   28.2122   34.4324 H   0  0  0  0  0  0  0  0  0  0  0  0
   39.4949   26.9332   32.8371 H   0  0  0  0  0  0  0  0  0  0  0  0
   39.6062   28.3220   33.9109 H   0  0  0  0  0  0  0  0  0  0  0  0
   39.9058   26.9204   35.8442 H   0  0  0  0  0  0  0  0  0  0  0  0
   40.2813   21.9654   37.5222 H   0  0  0  0  0  0  0  0  0  0  0  0
   38.9742   22.6782   39.5831 H   0  0  0  0  0  0  0  0  0  0  0  0
   37.4365   24.7194   39.4448 H   0  0  0  0  0  0  0  0  0  0  0  0
   41.1175   23.1046   34.0484 H   0  0  0  0  0  0  0  0  0  0  0  0
   41.1806   21.7723   32.0101 H   0  0  0  0  0  0  0  0  0  0  0  0
   41.0344   22.9587   29.7836 H   0  0  0  0  0  0  0  0  0  0  0  0
   38.6453   26.0509   29.6829 H   0  0  0  0  0  0  0  0  0  0  0  0
   39.0991   27.5019   27.4493 H   0  0  0  0  0  0  0  0  0  0  0  0
   42.8379   25.8585   28.7809 H   0  0  0  0  0  0  0  0  0  0  0  0
  1 10  1  0
  2  1  1  0
  3  2  1  0
  4  3  1  0
  4  5  1  0
  5  1  1  0
  6  7  2  0
  8  7  1  0
  9  8  2  0
 10 11  2  0
 10  9  1  0
 11  6  1  0
 12  5  1  0
 12 13  2  0
 14 12  1  0
 15 14  2  0
 16 15  1  0
 17 18  1  0
 17 16  2  0
 18 19  2  0
 19 14  1  0
 20 18  1  0
 21 20  1  0
 22 21  2  0
 23 22  1  0
 23 24  2  0
 24 20  1  0
  1 25  1  6
  2 26  1  0
  2 27  1  0
  3 28  1  0
  3 29  1  0
  4 30  1  0
  4 31  1  0
  5 32  1  1
  6 33  1  0
  7 34  1  0
  8 35  1  0
 15 36  1  0
 16 37  1  0
 17 38  1  0
 21 39  1  0
 22 40  1  0
 24 41  1  0
M  ISO  8  25  13  26  13  27  13  28  13  29  13  30  13  31  13  32  13
M  ISO  8  33  14  34  14  35  14  36  14  37  14  38  14  39  14  40  14
M  ISO  1  41  14
M  END
>  <minimizedAffinity>  (1) 
-4.55363607

>  <minimizedRMSD>  (1) 
1.02710485

$$$$
