
     RDKit          3D

 41 44  0  0  1  0  0  0  0  0999 V2000
   38.4190   25.4300   35.0880 C   0  0  1  0  0  0  0  0  0  0  0  0
   37.1840   26.1700   35.0220 C   0  0  0  0  0  0  0  0  0  0  0  0
   37.5060   27.4010   34.1860 C   0  0  0  0  0  0  0  0  0  0  0  0
   39.0060   27.4040   33.9330 C   0  0  0  0  0  0  0  0  0  0  0  0
   39.5440   26.4640   34.9460 C   0  0  2  0  0  0  0  0  0  0  0  0
   39.6090   22.8380   37.4170 C   0  0  0  0  0  0  0  0  0  0  0  0
   38.9210   23.1980   38.6360 C   0  0  0  0  0  0  0  0  0  0  0  0
   38.0620   24.3130   38.6530 C   0  0  0  0  0  0  0  0  0  0  0  0
   37.9610   24.9660   37.4700 N   0  0  0  0  0  0  0  0  0  0  0  0
   38.6120   24.6110   36.3430 C   0  0  0  0  0  0  0  0  0  0  0  0
   39.4360   23.5490   36.3110 N   0  0  0  0  0  0  0  0  0  0  0  0
   40.7290   25.7790   34.3700 C   0  0  0  0  0  0  0  0  0  0  0  0
   41.8210   25.7370   34.9470 O   0  0  0  0  0  0  0  0  0  0  0  0
   40.6800   25.1030   33.0730 C   0  0  0  0  0  0  0  0  0  0  0  0
   40.8740   23.7480   32.9540 C   0  0  0  0  0  0  0  0  0  0  0  0
   40.8400   23.0290   31.7950 C   0  0  0  0  0  0  0  0  0  0  0  0
   40.5900   23.7080   30.6110 C   0  0  0  0  0  0  0  0  0  0  0  0
   40.3940   25.0570   30.6990 C   0  0  0  0  0  0  0  0  0  0  0  0
   40.4450   25.6700   31.8720 N   0  0  0  0  0  0  0  0  0  0  0  0
   40.1280   25.8130   29.4750 C   0  0  0  0  0  0  0  0  0  0  0  0
   39.6870   27.1170   29.3520 C   0  0  0  0  0  0  0  0  0  0  0  0
   39.5890   27.3710   27.9790 C   0  0  0  0  0  0  0  0  0  0  0  0
   39.9770   26.2030   27.3540 C   0  0  0  0  0  0  0  0  0  0  0  0
   40.2850   25.3170   28.2540 O   0  0  0  0  0  0  0  0  0  0  0  0
   38.4144   24.6800   34.2833 H   0  0  0  0  0  0  0  0  0  0  0  0
   36.3989   25.5695   34.5393 H   0  0  0  0  0  0  0  0  0  0  0  0
   36.8080   26.4359   36.0209 H   0  0  0  0  0  0  0  0  0  0  0  0
   36.9642   27.3575   33.2297 H   0  0  0  0  0  0  0  0  0  0  0  0
   37.2007   28.3171   34.7128 H   0  0  0  0  0  0  0  0  0  0  0  0
   39.2313   27.0527   32.9153 H   0  0  0  0  0  0  0  0  0  0  0  0
   39.4462   28.4089   34.0128 H   0  0  0  0  0  0  0  0  0  0  0  0
   39.8317   26.9481   35.8909 H   0  0  0  0  0  0  0  0  0  0  0  0
   40.2814   21.9675   37.4065 H   0  0  0  0  0  0  0  0  0  0  0  0
   39.0684   22.6019   39.5486 H   0  0  0  0  0  0  0  0  0  0  0  0
   37.5164   24.6289   39.5544 H   0  0  0  0  0  0  0  0  0  0  0  0
   41.0757   23.1904   33.8805 H   0  0  0  0  0  0  0  0  0  0  0  0
   41.0061   21.9416   31.7990 H   0  0  0  0  0  0  0  0  0  0  0  0
   40.5514   23.1835   29.6449 H   0  0  0  0  0  0  0  0  0  0  0  0
   39.4585   27.8160   30.1701 H   0  0  0  0  0  0  0  0  0  0  0  0
   39.2692   28.3071   27.4979 H   0  0  0  0  0  0  0  0  0  0  0  0
   40.0190   26.0466   26.2660 H   0  0  0  0  0  0  0  0  0  0  0  0
  1 10  1  0
  2  1  1  0
  3  2  1  0
  4  3  1  0
  4  5  1  0
  5  1  1  0
  6  7  2  0
  7  8  1  0
  9  8  2  0
 10  9  1  0
 11 10  2  0
 11  6  1  0
 12  5  1  0
 12 13  2  0
 14 12  1  0
 15 14  2  0
 16 15  1  0
 17 18  1  0
 17 16  2  0
 18 19  2  0
 19 14  1  0
 20 18  1  0
 21 20  2  0
 22 21  1  0
 23 22  2  0
 23 24  1  0
 24 20  1  0
  1 25  1  6
  2 26  1  0
  2 27  1  0
  3 28  1  0
  3 29  1  0
  4 30  1  0
  4 31  1  0
  5 32  1  1
  6 33  1  0
  7 34  1  0
  8 35  1  0
 15 36  1  0
 16 37  1  0
 17 38  1  0
 21 39  1  0
 22 40  1  0
 23 41  1  0
M  ISO  8  25  13  26  13  27  13  28  13  29  13  30  13  31  13  32  13
M  ISO  8  33  14  34  14  35  14  36  14  37  14  38  14  39  14  40  14
M  ISO  1  41  14
M  END
>  <minimizedAffinity>  (1) 
-4.46159458

>  <minimizedRMSD>  (1) 
1.51987231

$$$$
