
     RDKit          3D

 46 48  0  0  1  0  0  0  0  0999 V2000
   38.6480   25.3680   35.0100 C   0  0  1  0  0  0  0  0  0  0  0  0
   37.4270   26.1050   34.8090 C   0  0  0  0  0  0  0  0  0  0  0  0
   37.8220   27.3100   33.9700 C   0  0  0  0  0  0  0  0  0  0  0  0
   39.3380   27.2980   33.8420 C   0  0  0  0  0  0  0  0  0  0  0  0
   39.7860   26.3940   34.9300 C   0  0  2  0  0  0  0  0  0  0  0  0
   39.6110   22.8490   37.5180 C   0  0  0  0  0  0  0  0  0  0  0  0
   38.8430   23.2510   38.6620 C   0  0  0  0  0  0  0  0  0  0  0  0
   37.9980   24.3790   38.5710 C   0  0  0  0  0  0  0  0  0  0  0  0
   37.9940   24.9970   37.3620 N   0  0  0  0  0  0  0  0  0  0  0  0
   38.7300   24.5920   36.3020 C   0  0  0  0  0  0  0  0  0  0  0  0
   39.5390   23.5210   36.3730 N   0  0  0  0  0  0  0  0  0  0  0  0
   41.0110   25.6900   34.4760 C   0  0  0  0  0  0  0  0  0  0  0  0
   42.0910   25.7930   35.0690 O   0  0  0  0  0  0  0  0  0  0  0  0
   41.0220   24.8270   33.2960 C   0  0  0  0  0  0  0  0  0  0  0  0
   41.5190   23.5480   33.3540 C   0  0  0  0  0  0  0  0  0  0  0  0
   41.5680   22.6570   32.3120 C   0  0  0  0  0  0  0  0  0  0  0  0
   41.0770   23.0660   31.0820 C   0  0  0  0  0  0  0  0  0  0  0  0
   40.5770   24.3360   30.9960 C   0  0  0  0  0  0  0  0  0  0  0  0
   40.5730   25.1190   32.0560 N   0  0  0  0  0  0  0  0  0  0  0  0
   40.0110   24.9530   29.7660 C   0  0  0  0  0  0  0  0  0  0  0  0
   39.1960   23.8730   29.0660 C   0  0  0  0  0  0  0  0  0  0  0  0
   41.1430   25.4020   28.8520 C   0  0  0  0  0  0  0  0  0  0  0  0
   39.0990   26.1040   30.0490 C   0  0  0  0  0  0  0  0  0  0  0  0
   38.7084   24.5902   34.2345 H   0  0  0  0  0  0  0  0  0  0  0  0
   36.6881   25.4891   34.2755 H   0  0  0  0  0  0  0  0  0  0  0  0
   36.9642   26.4015   35.7619 H   0  0  0  0  0  0  0  0  0  0  0  0
   37.3600   27.2424   32.9740 H   0  0  0  0  0  0  0  0  0  0  0  0
   37.4796   28.2420   34.4434 H   0  0  0  0  0  0  0  0  0  0  0  0
   39.6439   26.9084   32.8598 H   0  0  0  0  0  0  0  0  0  0  0  0
   39.7763   28.3038   33.9215 H   0  0  0  0  0  0  0  0  0  0  0  0
   39.9959   26.9077   35.8798 H   0  0  0  0  0  0  0  0  0  0  0  0
   40.2697   21.9709   37.5897 H   0  0  0  0  0  0  0  0  0  0  0  0
   38.9120   22.6848   39.6026 H   0  0  0  0  0  0  0  0  0  0  0  0
   37.3886   24.7307   39.4165 H   0  0  0  0  0  0  0  0  0  0  0  0
   41.9131   23.2075   34.3229 H   0  0  0  0  0  0  0  0  0  0  0  0
   41.9845   21.6481   32.4486 H   0  0  0  0  0  0  0  0  0  0  0  0
   41.0890   22.3958   30.2098 H   0  0  0  0  0  0  0  0  0  0  0  0
   38.7128   23.2327   29.8186 H   0  0  0  0  0  0  0  0  0  0  0  0
   38.4264   24.3443   28.4370 H   0  0  0  0  0  0  0  0  0  0  0  0
   39.8603   23.2622   28.4370 H   0  0  0  0  0  0  0  0  0  0  0  0
   41.9943   25.7397   29.4614 H   0  0  0  0  0  0  0  0  0  0  0  0
   41.4574   24.5605   28.2172 H   0  0  0  0  0  0  0  0  0  0  0  0
   40.7951   26.2302   28.2172 H   0  0  0  0  0  0  0  0  0  0  0  0
   38.9973   26.2324   31.1367 H   0  0  0  0  0  0  0  0  0  0  0  0
   39.5184   27.0209   29.6092 H   0  0  0  0  0  0  0  0  0  0  0  0
   38.1105   25.9053   29.6092 H   0  0  0  0  0  0  0  0  0  0  0  0
  1 10  1  0
  2  1  1  0
  3  2  1  0
  4  3  1  0
  4  5  1  0
  5  1  1  0
  6  7  2  0
  8  7  1  0
  9  8  2  0
 10 11  2  0
 10  9  1  0
 11  6  1  0
 12  5  1  0
 12 13  2  0
 14 15  2  0
 14 12  1  0
 16 15  1  0
 17 16  2  0
 18 17  1  0
 18 19  2  0
 19 14  1  0
 20 23  1  0
 20 18  1  0
 21 20  1  0
 22 20  1  0
  1 24  1  6
  2 25  1  0
  2 26  1  0
  3 27  1  0
  3 28  1  0
  4 29  1  0
  4 30  1  0
  5 31  1  1
  6 32  1  0
  7 33  1  0
  8 34  1  0
 15 35  1  0
 16 36  1  0
 17 37  1  0
 21 38  1  0
 21 39  1  0
 21 40  1  0
 22 41  1  0
 22 42  1  0
 22 43  1  0
 23 44  1  0
 23 45  1  0
 23 46  1  0
M  ISO  8  24  13  25  13  26  13  27  13  28  13  29  13  30  13  31  13
M  ISO  8  32  14  33  14  34  14  35  14  36  14  37  14  38   8  39   8
M  ISO  7  40   8  41   8  42   8  43   8  44   8  45   8  46   8
M  END
>  <minimizedAffinity>  (1) 
-4.362535

>  <minimizedRMSD>  (1) 
1.30060971

$$$$
