
     RDKit          3D

 36 38  0  0  1  0  0  0  0  0999 V2000
   38.7550   25.2590   34.8640 C   0  0  1  0  0  0  0  0  0  0  0  0
   37.5210   25.9370   34.5610 C   0  0  0  0  0  0  0  0  0  0  0  0
   37.9240   27.1230   33.6940 C   0  0  0  0  0  0  0  0  0  0  0  0
   39.4450   27.1660   33.6620 C   0  0  0  0  0  0  0  0  0  0  0  0
   39.8590   26.3220   34.8100 C   0  0  2  0  0  0  0  0  0  0  0  0
   39.6060   22.8360   37.5050 C   0  0  0  0  0  0  0  0  0  0  0  0
   38.8060   23.2930   38.6040 C   0  0  0  0  0  0  0  0  0  0  0  0
   37.9770   24.4250   38.4390 C   0  0  0  0  0  0  0  0  0  0  0  0
   38.0160   24.9990   37.2070 N   0  0  0  0  0  0  0  0  0  0  0  0
   38.7890   24.5350   36.1890 C   0  0  0  0  0  0  0  0  0  0  0  0
   39.5840   23.4590   36.3260 N   0  0  0  0  0  0  0  0  0  0  0  0
   41.1330   25.6450   34.4560 C   0  0  0  0  0  0  0  0  0  0  0  0
   42.1030   25.6200   35.2200 O   0  0  0  0  0  0  0  0  0  0  0  0
   41.3250   24.9610   33.1770 C   0  0  0  0  0  0  0  0  0  0  0  0
   41.0650   23.6200   33.0310 C   0  0  0  0  0  0  0  0  0  0  0  0
   41.2020   22.8890   31.8850 C   0  0  0  0  0  0  0  0  0  0  0  0
   41.6460   23.5500   30.7490 C   0  0  0  0  0  0  0  0  0  0  0  0
   41.9140   24.8850   30.8610 C   0  0  0  0  0  0  0  0  0  0  0  0
   41.7480   25.5040   32.0170 N   0  0  0  0  0  0  0  0  0  0  0  0
   42.3750   25.6370   29.7400 N   0  0  0  0  0  0  0  0  0  0  0  0
   38.8891   24.4566   34.1236 H   0  0  0  0  0  0  0  0  0  0  0  0
   36.8389   25.2711   34.0120 H   0  0  0  0  0  0  0  0  0  0  0  0
   36.9893   26.2526   35.4708 H   0  0  0  0  0  0  0  0  0  0  0  0
   37.5298   26.9952   32.6750 H   0  0  0  0  0  0  0  0  0  0  0  0
   37.5171   28.0596   34.1029 H   0  0  0  0  0  0  0  0  0  0  0  0
   39.8268   26.7529   32.7167 H   0  0  0  0  0  0  0  0  0  0  0  0
   39.8383   28.1910   33.7301 H   0  0  0  0  0  0  0  0  0  0  0  0
   39.9948   26.8794   35.7486 H   0  0  0  0  0  0  0  0  0  0  0  0
   40.2504   21.9543   37.6371 H   0  0  0  0  0  0  0  0  0  0  0  0
   38.8376   22.7657   39.5689 H   0  0  0  0  0  0  0  0  0  0  0  0
   37.3444   24.8146   39.2502 H   0  0  0  0  0  0  0  0  0  0  0  0
   40.7122   23.0826   33.9236 H   0  0  0  0  0  0  0  0  0  0  0  0
   40.9685   21.8143   31.8638 H   0  0  0  0  0  0  0  0  0  0  0  0
   41.7773   23.0194   29.7944 H   0  0  0  0  0  0  0  0  0  0  0  0
   42.5726   26.6428   29.8407 H   0  0  0  0  0  0  0  0  0  0  0  0
   42.5102   25.1742   28.8298 H   0  0  0  0  0  0  0  0  0  0  0  0
  1 10  1  0
  2  1  1  0
  3  2  1  0
  4  3  1  0
  4  5  1  0
  5  1  1  0
  6  7  2  0
  8  7  1  0
  9  8  2  0
 10 11  2  0
 10  9  1  0
 11  6  1  0
 12  5  1  0
 12 13  2  0
 14 12  1  0
 15 14  2  0
 16 15  1  0
 17 18  1  0
 17 16  2  0
 18 19  2  0
 19 14  1  0
 20 18  1  0
  1 21  1  6
  2 22  1  0
  2 23  1  0
  3 24  1  0
  3 25  1  0
  4 26  1  0
  4 27  1  0
  5 28  1  1
  6 29  1  0
  7 30  1  0
  8 31  1  0
 15 32  1  0
 16 33  1  0
 17 34  1  0
 20 35  1  0
 20 36  1  0
M  ISO  8  21  13  22  13  23  13  24  13  25  13  26  13  27  13  28  13
M  ISO  6  29  14  30  14  31  14  32  14  33  14  34  14
M  END
>  <minimizedAffinity>  (1) 
-4.0980773

>  <minimizedRMSD>  (1) 
0.00943878945

$$$$
