
     RDKit          3D

 44 47  0  0  1  0  0  0  0  0999 V2000
   38.5470   25.4240   35.3480 C   0  0  1  0  0  0  0  0  0  0  0  0
   37.6530   26.5330   35.3850 C   0  0  0  0  0  0  0  0  0  0  0  0
   38.2430   27.5380   34.3900 C   0  0  0  0  0  0  0  0  0  0  0  0
   39.5770   26.9930   33.9250 C   0  0  0  0  0  0  0  0  0  0  0  0
   39.9290   25.9530   34.9420 C   0  0  2  0  0  0  0  0  0  0  0  0
   39.5160   22.8540   37.8110 C   0  0  0  0  0  0  0  0  0  0  0  0
   38.7650   23.2620   38.9680 C   0  0  0  0  0  0  0  0  0  0  0  0
   37.9310   24.4090   38.8960 C   0  0  0  0  0  0  0  0  0  0  0  0
   37.9320   25.0190   37.7030 N   0  0  0  0  0  0  0  0  0  0  0  0
   38.6480   24.6140   36.6300 C   0  0  0  0  0  0  0  0  0  0  0  0
   39.4390   23.5400   36.6730 N   0  0  0  0  0  0  0  0  0  0  0  0
   40.6750   24.8620   34.2630 C   0  0  0  0  0  0  0  0  0  0  0  0
   41.8770   24.6770   34.4390 O   0  0  0  0  0  0  0  0  0  0  0  0
   40.0140   23.9380   33.3360 C   0  0  0  0  0  0  0  0  0  0  0  0
   40.1640   22.5810   33.4760 C   0  0  0  0  0  0  0  0  0  0  0  0
   39.5900   21.6300   32.6870 C   0  0  0  0  0  0  0  0  0  0  0  0
   38.7730   22.0510   31.6390 C   0  0  0  0  0  0  0  0  0  0  0  0
   38.6100   23.3820   31.4800 C   0  0  0  0  0  0  0  0  0  0  0  0
   39.2080   24.2440   32.2960 N   0  0  0  0  0  0  0  0  0  0  0  0
   38.1950   21.0340   30.8010 C   0  0  0  0  0  0  0  0  0  0  0  0
   38.4210   20.3470   29.6710 C   0  0  0  0  0  0  0  0  0  0  0  0
   37.4500   19.4910   29.3180 N   0  0  0  0  0  0  0  0  0  0  0  0
   36.4960   19.5990   30.2670 C   0  0  0  0  0  0  0  0  0  0  0  0
   36.9710   20.5180   31.1230 N   0  0  0  0  0  0  0  0  0  0  0  0
   37.8050   24.0070   30.4180 C   0  0  0  0  0  0  0  0  0  0  0  0
   36.4890   23.6010   30.4510 F   0  0  0  0  0  0  0  0  0  0  0  0
   37.7540   25.3960   30.5660 F   0  0  0  0  0  0  0  0  0  0  0  0
   38.3330   23.6820   29.1700 F   0  0  0  0  0  0  0  0  0  0  0  0
   38.1367   24.7113   34.6174 H   0  0  0  0  0  0  0  0  0  0  0  0
   36.6425   26.2278   35.0756 H   0  0  0  0  0  0  0  0  0  0  0  0
   37.5539   26.9556   36.3957 H   0  0  0  0  0  0  0  0  0  0  0  0
   37.5663   27.6566   33.5309 H   0  0  0  0  0  0  0  0  0  0  0  0
   38.3721   28.5216   34.8653 H   0  0  0  0  0  0  0  0  0  0  0  0
   39.4869   26.5444   32.9247 H   0  0  0  0  0  0  0  0  0  0  0  0
   40.3447   27.7766   33.8435 H   0  0  0  0  0  0  0  0  0  0  0  0
   40.5382   26.3222   35.7802 H   0  0  0  0  0  0  0  0  0  0  0  0
   40.1613   21.9649   37.8674 H   0  0  0  0  0  0  0  0  0  0  0  0
   38.8364   22.6884   39.9039 H   0  0  0  0  0  0  0  0  0  0  0  0
   37.3343   24.7667   39.7480 H   0  0  0  0  0  0  0  0  0  0  0  0
   40.8046   22.2299   34.2984 H   0  0  0  0  0  0  0  0  0  0  0  0
   39.7664   20.5601   32.8718 H   0  0  0  0  0  0  0  0  0  0  0  0
   39.3372   20.4763   29.0762 H   0  0  0  0  0  0  0  0  0  0  0  0
   35.5417   19.0551   30.3259 H   0  0  0  0  0  0  0  0  0  0  0  0
   36.4506   20.8128   31.9616 H   0  0  0  0  0  0  0  0  0  0  0  0
  1  2  1  0
  1 10  1  0
  3  2  1  0
  4  3  1  0
  4  5  1  0
  5  1  1  0
  6  7  2  0
  8  7  1  0
  9  8  2  0
 10 11  2  0
 10  9  1  0
 11  6  1  0
 12 13  2  0
 12  5  1  0
 14 15  2  0
 14 12  1  0
 16 15  1  0
 17 16  2  0
 18 17  1  0
 18 19  2  0
 19 14  1  0
 20 24  1  0
 20 17  1  0
 21 20  2  0
 22 21  1  0
 22 23  2  0
 23 24  1  0
 25 26  1  0
 25 27  1  0
 25 18  1  0
 28 25  1  0
  1 29  1  6
  2 30  1  0
  2 31  1  0
  3 32  1  0
  3 33  1  0
  4 34  1  0
  4 35  1  0
  5 36  1  1
  6 37  1  0
  7 38  1  0
  8 39  1  0
 15 40  1  0
 16 41  1  0
 21 42  1  0
 23 43  1  0
 24 44  1  0
M  ISO  8  29  13  30  13  31  13  32  13  33  13  34  13  35  13  36  13
M  ISO  8  37  14  38  14  39  14  40  14  41  14  42  14  43  14  44   9
M  END
>  <minimizedAffinity>  (1) 
-4.97986269

>  <minimizedRMSD>  (1) 
1.37033772

$$$$
