
     RDKit          3D

 49 51  0  0  1  0  0  0  0  0999 V2000
   38.3940   25.4100   35.2080 C   0  0  1  0  0  0  0  0  0  0  0  0
   37.3100   26.3380   35.1960 C   0  0  0  0  0  0  0  0  0  0  0  0
   37.7540   27.4360   34.2240 C   0  0  0  0  0  0  0  0  0  0  0  0
   39.1970   27.1450   33.8310 C   0  0  0  0  0  0  0  0  0  0  0  0
   39.6750   26.1870   34.8780 C   0  0  2  0  0  0  0  0  0  0  0  0
   39.4890   22.8780   37.6590 C   0  0  0  0  0  0  0  0  0  0  0  0
   38.8360   23.3280   38.8570 C   0  0  0  0  0  0  0  0  0  0  0  0
   38.0260   24.4830   38.8180 C   0  0  0  0  0  0  0  0  0  0  0  0
   37.9420   25.0790   37.6080 N   0  0  0  0  0  0  0  0  0  0  0  0
   38.5670   24.6330   36.5010 C   0  0  0  0  0  0  0  0  0  0  0  0
   39.3410   23.5390   36.5140 N   0  0  0  0  0  0  0  0  0  0  0  0
   40.6460   25.2490   34.2450 C   0  0  0  0  0  0  0  0  0  0  0  0
   41.8410   25.2460   34.5210 O   0  0  0  0  0  0  0  0  0  0  0  0
   40.2210   24.2720   33.2450 C   0  0  0  0  0  0  0  0  0  0  0  0
   40.7250   22.9860   33.2650 C   0  0  0  0  0  0  0  0  0  0  0  0
   40.3770   21.9800   32.3940 C   0  0  0  0  0  0  0  0  0  0  0  0
   39.4500   22.2530   31.4100 C   0  0  0  0  0  0  0  0  0  0  0  0
   38.9500   23.5110   31.3760 C   0  0  0  0  0  0  0  0  0  0  0  0
   39.3250   24.4340   32.2430 N   0  0  0  0  0  0  0  0  0  0  0  0
   37.9740   23.9580   30.3830 C   0  0  0  0  0  0  0  0  0  0  0  0
   36.7760   23.3120   30.4260 F   0  0  0  0  0  0  0  0  0  0  0  0
   37.6020   25.2900   30.6190 F   0  0  0  0  0  0  0  0  0  0  0  0
   38.4710   23.8640   29.1050 F   0  0  0  0  0  0  0  0  0  0  0  0
   39.0740   21.1700   30.4390 C   0  0  0  0  0  0  0  0  0  0  0  0
   39.9430   19.9530   30.8850 C   0  0  0  0  0  0  0  0  0  0  0  0
   39.5760   21.3140   29.0540 C   0  0  0  0  0  0  0  0  0  0  0  0
   37.6900   20.6520   30.5850 C   0  0  0  0  0  0  0  0  0  0  0  0
   38.1677   24.6387   34.4571 H   0  0  0  0  0  0  0  0  0  0  0  0
   36.3882   25.8542   34.8409 H   0  0  0  0  0  0  0  0  0  0  0  0
   37.0867   26.7326   36.1982 H   0  0  0  0  0  0  0  0  0  0  0  0
   37.1127   27.4281   33.3304 H   0  0  0  0  0  0  0  0  0  0  0  0
   37.6736   28.4264   34.6959 H   0  0  0  0  0  0  0  0  0  0  0  0
   39.2448   26.6872   32.8319 H   0  0  0  0  0  0  0  0  0  0  0  0
   39.8122   28.0554   33.7796 H   0  0  0  0  0  0  0  0  0  0  0  0
   40.1558   26.6609   35.7465 H   0  0  0  0  0  0  0  0  0  0  0  0
   40.1186   21.9765   37.6888 H   0  0  0  0  0  0  0  0  0  0  0  0
   38.9666   22.7755   39.7992 H   0  0  0  0  0  0  0  0  0  0  0  0
   37.5027   24.8689   39.7052 H   0  0  0  0  0  0  0  0  0  0  0  0
   41.4661   22.7467   34.0419 H   0  0  0  0  0  0  0  0  0  0  0  0
   40.8278   20.9803   32.4803 H   0  0  0  0  0  0  0  0  0  0  0  0
   39.9749   19.9083   31.9836 H   0  0  0  0  0  0  0  0  0  0  0  0
   39.5024   19.0245   30.4929 H   0  0  0  0  0  0  0  0  0  0  0  0
   40.9642   20.0684   30.4929 H   0  0  0  0  0  0  0  0  0  0  0  0
   40.6331   21.6172   29.0768 H   0  0  0  0  0  0  0  0  0  0  0  0
   39.4816   20.3526   28.5280 H   0  0  0  0  0  0  0  0  0  0  0  0
   38.9863   22.0792   28.5280 H   0  0  0  0  0  0  0  0  0  0  0  0
   37.4438   20.5598   31.6531 H   0  0  0  0  0  0  0  0  0  0  0  0
   36.9857   21.3474   30.1050 H   0  0  0  0  0  0  0  0  0  0  0  0
   37.6153   19.6651   30.1050 H   0  0  0  0  0  0  0  0  0  0  0  0
  1 10  1  0
  2  1  1  0
  3  2  1  0
  4  3  1  0
  4  5  1  0
  5  1  1  0
  6  7  2  0
  8  7  1  0
  9  8  2  0
 10 11  2  0
 10  9  1  0
 11  6  1  0
 12 13  2  0
 12  5  1  0
 14 15  2  0
 14 12  1  0
 16 15  1  0
 17 16  2  0
 18 17  1  0
 18 19  2  0
 19 14  1  0
 20 21  1  0
 20 22  1  0
 20 18  1  0
 23 20  1  0
 24 27  1  0
 24 25  1  0
 24 17  1  0
 26 24  1  0
  1 28  1  6
  2 29  1  0
  2 30  1  0
  3 31  1  0
  3 32  1  0
  4 33  1  0
  4 34  1  0
  5 35  1  1
  6 36  1  0
  7 37  1  0
  8 38  1  0
 15 39  1  0
 16 40  1  0
 25 41  1  0
 25 42  1  0
 25 43  1  0
 26 44  1  0
 26 45  1  0
 26 46  1  0
 27 47  1  0
 27 48  1  0
 27 49  1  0
M  ISO  8  28  13  29  13  30  13  31  13  32  13  33  13  34  13  35  13
M  ISO  8  36  14  37  14  38  14  39  14  40  14  41   8  42   8  43   8
M  ISO  6  44   8  45   8  46   8  47   8  48   8  49   8
M  END
>  <minimizedAffinity>  (1) 
-4.7807579

>  <minimizedRMSD>  (1) 
0.594212472

$$$$
