
     RDKit          3D

 31 34  0  0  0  0  0  0  0  0999 V2000
   37.9650   22.9030   34.6680 C   0  0  0  0  0  0  0  0  0  0  0  0
   37.3350   21.7530   34.2470 C   0  0  0  0  0  0  0  0  0  0  0  0
   36.9810   21.6240   32.9390 C   0  0  0  0  0  0  0  0  0  0  0  0
   37.2550   22.6320   32.0650 N   0  0  0  0  0  0  0  0  0  0  0  0
   37.8770   23.7670   32.4800 C   0  0  0  0  0  0  0  0  0  0  0  0
   38.2310   23.8940   33.7960 N   0  0  0  0  0  0  0  0  0  0  0  0
   38.1720   24.8390   31.5690 N   0  0  0  0  0  0  0  0  0  0  0  0
   39.1820   24.9310   30.6670 C   0  0  0  0  0  0  0  0  0  0  0  0
   39.0730   26.1240   30.0200 N   0  0  0  0  0  0  0  0  0  0  0  0
   37.9970   26.7460   30.5370 C   0  0  0  0  0  0  0  0  0  0  0  0
   37.3860   27.9610   30.2980 C   0  0  0  0  0  0  0  0  0  0  0  0
   36.2840   28.3740   30.9660 N   0  0  0  0  0  0  0  0  0  0  0  0
   35.7390   27.5820   31.9130 C   0  0  0  0  0  0  0  0  0  0  0  0
   36.3200   26.4170   32.1460 N   0  0  0  0  0  0  0  0  0  0  0  0
   37.4140   25.9570   31.5140 C   0  0  0  0  0  0  0  0  0  0  0  0
   39.7830   22.7980   37.8660 C   0  0  0  0  0  0  0  0  0  0  0  0
   38.9740   23.5630   38.7040 C   0  0  0  0  0  0  0  0  0  0  0  0
   37.8090   24.1040   38.1410 C   0  0  0  0  0  0  0  0  0  0  0  0
   37.5330   23.8540   36.8220 N   0  0  0  0  0  0  0  0  0  0  0  0
   38.3680   23.0970   36.0590 C   0  0  0  0  0  0  0  0  0  0  0  0
   39.4760   22.5770   36.5730 N   0  0  0  0  0  0  0  0  0  0  0  0
   37.8770   28.8540   29.3350 N   0  0  0  0  0  0  0  0  0  0  0  0
   37.1196   20.9453   34.9620 H   0  0  0  0  0  0  0  0  0  0  0  0
   36.4766   20.7110   32.5899 H   0  0  0  0  0  0  0  0  0  0  0  0
   39.9569   24.1709   30.4890 H   0  0  0  0  0  0  0  0  0  0  0  0
   34.8439   27.8941   32.4710 H   0  0  0  0  0  0  0  0  0  0  0  0
   40.7050   22.3590   38.2748 H   0  0  0  0  0  0  0  0  0  0  0  0
   39.2370   23.7346   39.7582 H   0  0  0  0  0  0  0  0  0  0  0  0
   37.1281   24.7188   38.7480 H   0  0  0  0  0  0  0  0  0  0  0  0
   37.4015   29.7539   29.1772 H   0  0  0  0  0  0  0  0  0  0  0  0
   38.7132   28.6101   28.7853 H   0  0  0  0  0  0  0  0  0  0  0  0
  1 20  1  0
  2  1  2  0
  3  2  1  0
  4  5  1  0
  4  3  2  0
  5  6  2  0
  6  1  1  0
  7  5  1  0
  8  7  1  0
  9 10  1  0
  9  8  2  0
 10 15  2  0
 11 10  1  0
 11 12  2  0
 12 13  1  0
 13 14  2  0
 15  7  1  0
 15 14  1  0
 16 17  2  0
 18 17  1  0
 19 18  2  0
 20 21  2  0
 20 19  1  0
 21 16  1  0
 22 11  1  0
  2 23  1  0
  3 24  1  0
  8 25  1  0
 13 26  1  0
 16 27  1  0
 17 28  1  0
 18 29  1  0
 22 30  1  0
 22 31  1  0
M  ISO  7  23  14  24  14  25  14  26  14  27  14  28  14  29  14
M  END
>  <minimizedAffinity>  (1) 
-5.40592241

>  <minimizedRMSD>  (1) 
2.30464911

$$$$
