
     RDKit          3D

 34 37  0  0  0  0  0  0  0  0999 V2000
   37.7230   22.5140   34.7110 C   0  0  0  0  0  0  0  0  0  0  0  0
   36.8710   21.4710   34.4560 C   0  0  0  0  0  0  0  0  0  0  0  0
   36.3990   21.3620   33.1650 C   0  0  0  0  0  0  0  0  0  0  0  0
   36.7570   22.2360   32.2090 N   0  0  0  0  0  0  0  0  0  0  0  0
   37.5930   23.2610   32.4540 C   0  0  0  0  0  0  0  0  0  0  0  0
   38.0340   23.3380   33.7210 N   0  0  0  0  0  0  0  0  0  0  0  0
   38.1200   24.3160   31.5970 C   0  0  0  0  0  0  0  0  0  0  0  0
   39.0160   24.0680   30.5500 C   0  0  0  0  0  0  0  0  0  0  0  0
   39.5220   25.0440   29.7340 C   0  0  0  0  0  0  0  0  0  0  0  0
   39.1590   26.3500   29.9150 C   0  0  0  0  0  0  0  0  0  0  0  0
   38.2870   26.6590   30.9200 C   0  0  0  0  0  0  0  0  0  0  0  0
   37.9410   27.9850   31.0730 C   0  0  0  0  0  0  0  0  0  0  0  0
   37.0650   28.3670   32.0670 C   0  0  0  0  0  0  0  0  0  0  0  0
   36.5530   27.3630   32.8960 C   0  0  0  0  0  0  0  0  0  0  0  0
   36.9420   26.0590   32.6860 C   0  0  0  0  0  0  0  0  0  0  0  0
   37.8110   25.6520   31.7050 C   0  0  0  0  0  0  0  0  0  0  0  0
   40.0040   22.6220   37.5960 C   0  0  0  0  0  0  0  0  0  0  0  0
   39.2290   23.2300   38.5790 C   0  0  0  0  0  0  0  0  0  0  0  0
   37.9210   23.5980   38.2340 C   0  0  0  0  0  0  0  0  0  0  0  0
   37.5130   23.3300   36.9600 N   0  0  0  0  0  0  0  0  0  0  0  0
   38.2950   22.7400   36.0420 C   0  0  0  0  0  0  0  0  0  0  0  0
   39.5590   22.3740   36.3430 N   0  0  0  0  0  0  0  0  0  0  0  0
   36.5789   20.7577   35.2408 H   0  0  0  0  0  0  0  0  0  0  0  0
   35.7132   20.5402   32.9116 H   0  0  0  0  0  0  0  0  0  0  0  0
   39.3315   23.0292   30.3729 H   0  0  0  0  0  0  0  0  0  0  0  0
   40.2232   24.7766   28.9297 H   0  0  0  0  0  0  0  0  0  0  0  0
   39.5624   27.1383   29.2624 H   0  0  0  0  0  0  0  0  0  0  0  0
   38.3663   28.7425   30.3982 H   0  0  0  0  0  0  0  0  0  0  0  0
   36.7797   29.4206   32.2029 H   0  0  0  0  0  0  0  0  0  0  0  0
   35.8495   27.6119   33.7042 H   0  0  0  0  0  0  0  0  0  0  0  0
   36.5265   25.2885   33.3521 H   0  0  0  0  0  0  0  0  0  0  0  0
   41.0326   22.3276   37.8514 H   0  0  0  0  0  0  0  0  0  0  0  0
   39.6273   23.4147   39.5876 H   0  0  0  0  0  0  0  0  0  0  0  0
   37.2517   24.0825   38.9601 H   0  0  0  0  0  0  0  0  0  0  0  0
  1 21  1  0
  2  1  2  0
  3  2  1  0
  4  5  1  0
  4  3  2  0
  5  6  2  0
  6  1  1  0
  7 16  1  0
  7  5  1  0
  8  7  2  0
  9 10  2  0
  9  8  1  0
 10 11  1  0
 11 12  1  0
 11 16  2  0
 12 13  2  0
 13 14  1  0
 15 14  2  0
 16 15  1  0
 17 18  2  0
 19 18  1  0
 20 19  2  0
 21 22  2  0
 21 20  1  0
 22 17  1  0
  2 23  1  0
  3 24  1  0
  8 25  1  0
  9 26  1  0
 10 27  1  0
 12 28  1  0
 13 29  1  0
 14 30  1  0
 15 31  1  0
 17 32  1  0
 18 33  1  0
 19 34  1  0
M  ISO  8  23  14  24  14  25  14  26  14  27  14  28  14  29  14  30  14
M  ISO  4  31  14  32  14  33  14  34  14
M  END
>  <minimizedAffinity>  (1) 
-5.36397791

>  <minimizedRMSD>  (1) 
1.69462967

$$$$
