
     RDKit          3D

 25 26  0  0  0  0  0  0  0  0999 V2000
   37.2230   21.8920   35.0490 C   0  0  0  0  0  0  0  0  0  0  0  0
   36.2090   20.9550   35.2020 C   0  0  0  0  0  0  0  0  0  0  0  0
   35.5170   20.5340   34.1040 C   0  0  0  0  0  0  0  0  0  0  0  0
   35.8210   21.0280   32.8840 N   0  0  0  0  0  0  0  0  0  0  0  0
   36.8180   21.9480   32.7330 C   0  0  0  0  0  0  0  0  0  0  0  0
   37.5130   22.3740   33.8310 N   0  0  0  0  0  0  0  0  0  0  0  0
   37.1470   22.4760   31.4540 N   0  0  0  0  0  0  0  0  0  0  0  0
   36.7670   23.7850   31.0810 C   0  0  0  0  0  0  0  0  0  0  0  0
   35.7080   24.3020   31.5960 N   0  0  0  0  0  0  0  0  0  0  0  0
   37.5480   24.5250   30.1490 N   0  0  0  0  0  0  0  0  0  0  0  0
   35.3880   25.2560   31.3560 H   0  0  0  0  0  0  0  0  0  0  0  0
   39.9490   22.6590   37.3820 C   0  0  0  0  0  0  0  0  0  0  0  0
   39.2880   23.3380   38.4100 C   0  0  0  0  0  0  0  0  0  0  0  0
   37.9030   23.5220   38.2830 C   0  0  0  0  0  0  0  0  0  0  0  0
   37.3010   23.0230   37.1570 N   0  0  0  0  0  0  0  0  0  0  0  0
   37.9860   22.3720   36.1890 C   0  0  0  0  0  0  0  0  0  0  0  0
   39.2990   22.1940   36.3040 N   0  0  0  0  0  0  0  0  0  0  0  0
   35.9664   20.5565   36.1982 H   0  0  0  0  0  0  0  0  0  0  0  0
   34.7117   19.7925   34.2122 H   0  0  0  0  0  0  0  0  0  0  0  0
   37.6723   21.8931   30.7868 H   0  0  0  0  0  0  0  0  0  0  0  0
   37.2646   25.4786   29.8821 H   0  0  0  0  0  0  0  0  0  0  0  0
   38.3966   24.1069   29.7415 H   0  0  0  0  0  0  0  0  0  0  0  0
   41.0349   22.5011   37.4592 H   0  0  0  0  0  0  0  0  0  0  0  0
   39.8345   23.7146   39.2872 H   0  0  0  0  0  0  0  0  0  0  0  0
   37.3228   24.0462   39.0567 H   0  0  0  0  0  0  0  0  0  0  0  0
  1  2  2  0
  1 16  1  0
  3  2  1  0
  4  3  2  0
  5  4  1  0
  5  6  2  0
  6  1  1  0
  7  5  1  0
  8  7  1  0
  8  9  2  0
 10  8  1  0
 11  9  1  0
 12 13  2  0
 14 13  1  0
 15 14  2  0
 16 17  2  0
 16 15  1  0
 17 12  1  0
  2 18  1  0
  3 19  1  0
  7 20  1  0
 10 21  1  0
 10 22  1  0
 12 23  1  0
 13 24  1  0
 14 25  1  0
M  ISO  5  18  14  19  14  23  14  24  14  25  14
M  END
>  <minimizedAffinity>  (1) 
-4.9842577

>  <minimizedRMSD>  (1) 
0.231789798

$$$$
