
     RDKit          3D

 31 34  0  0  0  0  0  0  0  0999 V2000
   37.0840   21.8620   34.4380 C   0  0  0  0  0  0  0  0  0  0  0  0
   36.2420   20.7680   34.5170 C   0  0  0  0  0  0  0  0  0  0  0  0
   35.3430   20.3910   33.5540 C   0  0  0  0  0  0  0  0  0  0  0  0
   35.2310   21.1210   32.4020 C   0  0  0  0  0  0  0  0  0  0  0  0
   36.0360   22.2120   32.2630 C   0  0  0  0  0  0  0  0  0  0  0  0
   35.9230   22.9530   31.0930 C   0  0  0  0  0  0  0  0  0  0  0  0
   36.6860   24.0620   30.8650 C   0  0  0  0  0  0  0  0  0  0  0  0
   37.5930   24.4180   31.8700 C   0  0  0  0  0  0  0  0  0  0  0  0
   37.6720   23.6600   33.0050 C   0  0  0  0  0  0  0  0  0  0  0  0
   36.9240   22.5570   33.2510 C   0  0  0  0  0  0  0  0  0  0  0  0
   38.0560   23.1980   37.6230 C   0  0  0  0  0  0  0  0  0  0  0  0
   39.4290   23.0270   37.7480 C   0  0  0  0  0  0  0  0  0  0  0  0
   40.0480   22.4190   36.6790 C   0  0  0  0  0  0  0  0  0  0  0  0
   39.3000   22.0480   35.6250 N   0  0  0  0  0  0  0  0  0  0  0  0
   38.0100   22.2020   35.4930 C   0  0  0  0  0  0  0  0  0  0  0  0
   37.4320   22.7860   36.5250 N   0  0  0  0  0  0  0  0  0  0  0  0
   41.4840   22.1620   36.6460 C   0  0  0  0  0  0  0  0  0  0  0  0
   42.3300   23.2190   36.6100 N   0  0  0  0  0  0  0  0  0  0  0  0
   43.5690   22.8300   36.5830 O   0  0  0  0  0  0  0  0  0  0  0  0
   43.5410   21.5050   36.6010 C   0  0  0  0  0  0  0  0  0  0  0  0
   42.2630   21.0520   36.6400 N   0  0  0  0  0  0  0  0  0  0  0  0
   36.2984   20.1508   35.4258 H   0  0  0  0  0  0  0  0  0  0  0  0
   34.7123   19.5028   33.7068 H   0  0  0  0  0  0  0  0  0  0  0  0
   34.5162   20.8372   31.6156 H   0  0  0  0  0  0  0  0  0  0  0  0
   35.1980   22.6370   30.3285 H   0  0  0  0  0  0  0  0  0  0  0  0
   36.5927   24.6465   29.9379 H   0  0  0  0  0  0  0  0  0  0  0  0
   38.2374   25.3010   31.7474 H   0  0  0  0  0  0  0  0  0  0  0  0
   38.3953   23.9678   33.7745 H   0  0  0  0  0  0  0  0  0  0  0  0
   37.4853   23.6748   38.4336 H   0  0  0  0  0  0  0  0  0  0  0  0
   39.9834   23.3548   38.6397 H   0  0  0  0  0  0  0  0  0  0  0  0
   44.4324   20.8607   36.5863 H   0  0  0  0  0  0  0  0  0  0  0  0
  1  2  2  0
  1 15  1  0
  3  2  1  0
  4  3  2  0
  5  4  1  0
  5 10  2  0
  6  5  1  0
  7  6  2  0
  7  8  1  0
  8  9  2  0
  9 10  1  0
 10  1  1  0
 11 12  2  0
 13 12  1  0
 14 13  2  0
 15 14  1  0
 15 16  2  0
 16 11  1  0
 17 13  1  0
 18 17  2  0
 19 20  1  0
 19 18  1  0
 20 21  2  0
 21 17  1  0
  2 22  1  0
  3 23  1  0
  4 24  1  0
  6 25  1  0
  7 26  1  0
  8 27  1  0
  9 28  1  0
 11 29  1  0
 12 30  1  0
 20 31  1  0
M  ISO  8  22  14  23  14  24  14  25  14  26  14  27  14  28  14  29  14
M  ISO  2  30  14  31  14
M  END
>  <minimizedAffinity>  (1) 
-5.39172935

>  <minimizedRMSD>  (1) 
3.52588129

$$$$
