
     RDKit          3D

 32 34  0  0  0  0  0  0  0  0999 V2000
   37.2270   21.9030   35.0960 C   0  0  0  0  0  0  0  0  0  0  0  0
   36.2100   20.9580   35.2550 C   0  0  0  0  0  0  0  0  0  0  0  0
   35.5350   20.5490   34.1290 C   0  0  0  0  0  0  0  0  0  0  0  0
   35.8430   21.0420   32.9120 N   0  0  0  0  0  0  0  0  0  0  0  0
   36.8350   21.9630   32.7610 C   0  0  0  0  0  0  0  0  0  0  0  0
   37.5160   22.3820   33.8630 N   0  0  0  0  0  0  0  0  0  0  0  0
   37.1640   22.4860   31.4840 N   0  0  0  0  0  0  0  0  0  0  0  0
   36.8260   23.7930   31.0030 C   0  0  0  0  0  0  0  0  0  0  0  0
   38.0640   24.4920   30.4450 C   0  0  0  0  0  0  0  0  0  0  0  0
   38.7940   23.6320   29.5540 N   0  0  0  0  0  0  0  0  0  0  0  0
   39.1810   22.4030   30.2200 C   0  0  0  0  0  0  0  0  0  0  0  0
   37.9070   21.6500   30.5610 C   0  0  0  0  0  0  0  0  0  0  0  0
   39.9440   22.6580   37.4420 C   0  0  0  0  0  0  0  0  0  0  0  0
   39.2810   23.3560   38.4510 C   0  0  0  0  0  0  0  0  0  0  0  0
   37.8930   23.5620   38.3130 C   0  0  0  0  0  0  0  0  0  0  0  0
   37.3110   23.0550   37.1920 N   0  0  0  0  0  0  0  0  0  0  0  0
   37.9850   22.3840   36.2370 C   0  0  0  0  0  0  0  0  0  0  0  0
   39.2980   22.1830   36.3540 N   0  0  0  0  0  0  0  0  0  0  0  0
   35.9580   20.5550   36.2470 H   0  0  0  0  0  0  0  0  0  0  0  0
   34.7291   19.8062   34.2225 H   0  0  0  0  0  0  0  0  0  0  0  0
   36.0715   23.7025   30.2076 H   0  0  0  0  0  0  0  0  0  0  0  0
   36.4263   24.3878   31.8375 H   0  0  0  0  0  0  0  0  0  0  0  0
   37.7501   25.3924   29.8965 H   0  0  0  0  0  0  0  0  0  0  0  0
   38.7210   24.7573   31.2864 H   0  0  0  0  0  0  0  0  0  0  0  0
   39.6409   24.1216   29.2316 H   0  0  0  0  0  0  0  0  0  0  0  0
   39.8094   21.7954   29.5522 H   0  0  0  0  0  0  0  0  0  0  0  0
   39.7590   22.6202   31.1304 H   0  0  0  0  0  0  0  0  0  0  0  0
   37.3161   21.4725   29.6503 H   0  0  0  0  0  0  0  0  0  0  0  0
   38.1334   20.6708   31.0081 H   0  0  0  0  0  0  0  0  0  0  0  0
   41.0269   22.4887   37.5346 H   0  0  0  0  0  0  0  0  0  0  0  0
   39.8250   23.7348   39.3288 H   0  0  0  0  0  0  0  0  0  0  0  0
   37.3105   24.1045   39.0722 H   0  0  0  0  0  0  0  0  0  0  0  0
  1  2  2  0
  1 17  1  0
  3  2  1  0
  4  3  2  0
  5  4  1  0
  5  6  2  0
  6  1  1  0
  7  5  1  0
  8  7  1  0
  9  8  1  0
 10 11  1  0
 10  9  1  0
 11 12  1  0
 12  7  1  0
 13 14  2  0
 15 14  1  0
 16 15  2  0
 17 18  2  0
 17 16  1  0
 18 13  1  0
  2 19  1  0
  3 20  1  0
  8 21  1  0
  8 22  1  0
  9 23  1  0
  9 24  1  0
 10 25  1  0
 11 26  1  0
 11 27  1  0
 12 28  1  0
 12 29  1  0
 13 30  1  0
 14 31  1  0
 15 32  1  0
M  ISO  8  19  14  20  14  21  13  22  13  23  13  24  13  25   5  26  13
M  ISO  6  27  13  28  13  29  13  30  14  31  14  32  14
M  END
>  <minimizedAffinity>  (1) 
-4.88008451

>  <minimizedRMSD>  (1) 
0.272116661

$$$$
