
     RDKit          3D

 31 33  0  0  0  0  0  0  0  0999 V2000
   37.5340   22.0170   34.8670 C   0  0  0  0  0  0  0  0  0  0  0  0
   36.4280   21.1820   34.8410 C   0  0  0  0  0  0  0  0  0  0  0  0
   35.9050   20.8100   33.6360 C   0  0  0  0  0  0  0  0  0  0  0  0
   36.4690   21.2600   32.4750 N   0  0  0  0  0  0  0  0  0  0  0  0
   37.5460   22.0740   32.5140 C   0  0  0  0  0  0  0  0  0  0  0  0
   38.0770   22.4510   33.7060 N   0  0  0  0  0  0  0  0  0  0  0  0
   39.9420   22.6960   37.5590 C   0  0  0  0  0  0  0  0  0  0  0  0
   39.1370   23.3030   38.5310 C   0  0  0  0  0  0  0  0  0  0  0  0
   37.7720   23.4700   38.2420 C   0  0  0  0  0  0  0  0  0  0  0  0
   37.3170   23.0270   37.0260 N   0  0  0  0  0  0  0  0  0  0  0  0
   38.1370   22.4470   36.1240 C   0  0  0  0  0  0  0  0  0  0  0  0
   39.4370   22.2810   36.3810 N   0  0  0  0  0  0  0  0  0  0  0  0
   39.2170   23.4210   28.8910 C   0  0  0  0  0  0  0  0  0  0  0  0
   39.3190   22.0610   29.2000 C   0  0  0  0  0  0  0  0  0  0  0  0
   38.7560   21.7010   30.3870 C   0  0  0  0  0  0  0  0  0  0  0  0
   38.1260   22.5370   31.2590 C   0  0  0  0  0  0  0  0  0  0  0  0
   38.0280   23.8730   30.9490 C   0  0  0  0  0  0  0  0  0  0  0  0
   38.5870   24.2970   29.7460 C   0  0  0  0  0  0  0  0  0  0  0  0
   39.9120   23.9800   27.3840 S   0  0  0  0  0  0  0  0  0  0  0  0
   39.2680   23.3780   26.1920 O   0  0  0  0  0  0  0  0  0  0  0  0
   39.8520   25.4860   27.2580 O   0  0  0  0  0  0  0  0  0  0  0  0
   35.9777   20.8239   35.7786 H   0  0  0  0  0  0  0  0  0  0  0  0
   35.0281   20.1469   33.5993 H   0  0  0  0  0  0  0  0  0  0  0  0
   41.0137   22.5545   37.7625 H   0  0  0  0  0  0  0  0  0  0  0  0
   39.5596   23.6382   39.4897 H   0  0  0  0  0  0  0  0  0  0  0  0
   37.0910   23.9403   38.9667 H   0  0  0  0  0  0  0  0  0  0  0  0
   39.8154   21.3380   28.5360 H   0  0  0  0  0  0  0  0  0  0  0  0
   38.8154   20.6389   30.6669 H   0  0  0  0  0  0  0  0  0  0  0  0
   37.5268   24.5805   31.6259 H   0  0  0  0  0  0  0  0  0  0  0  0
   38.5235   25.3603   29.4716 H   0  0  0  0  0  0  0  0  0  0  0  0
   41.2198   23.5739   27.4242 H   0  0  0  0  0  0  0  0  0  0  0  0
  1 11  1  0
  2  1  2  0
  3  2  1  0
  4  5  1  0
  4  3  2  0
  5  6  2  0
  6  1  1  0
  7  8  2  0
  9  8  1  0
 10  9  2  0
 11 12  2  0
 11 10  1  0
 12  7  1  0
 13 14  2  0
 13 18  1  0
 14 15  1  0
 15 16  2  0
 16  5  1  0
 17 16  1  0
 18 17  2  0
 19 13  1  0
 20 19  2  0
 21 19  2  0
  2 22  1  0
  3 23  1  0
  7 24  1  0
  8 25  1  0
  9 26  1  0
 14 27  1  0
 15 28  1  0
 17 29  1  0
 18 30  1  0
 19 31  1  0
M  ISO  8  22  14  23  14  24  14  25  14  26  14  27  14  28  14  29  14
M  ISO  2  30  14  31  11
M  END
>  <minimizedAffinity>  (1) 
-4.67209244

>  <minimizedRMSD>  (1) 
0.786628067

$$$$
