
     RDKit          3D

 31 33  0  0  0  0  0  0  0  0999 V2000
   37.1630   21.8190   34.8650 C   0  0  0  0  0  0  0  0  0  0  0  0
   36.1460   20.8890   35.0330 C   0  0  0  0  0  0  0  0  0  0  0  0
   35.4580   20.4660   33.9200 C   0  0  0  0  0  0  0  0  0  0  0  0
   35.7680   20.9460   32.6880 N   0  0  0  0  0  0  0  0  0  0  0  0
   36.7700   21.8580   32.5430 C   0  0  0  0  0  0  0  0  0  0  0  0
   37.4600   22.2880   33.6270 N   0  0  0  0  0  0  0  0  0  0  0  0
   39.9120   22.6320   37.1640 C   0  0  0  0  0  0  0  0  0  0  0  0
   39.2480   23.2740   38.2070 C   0  0  0  0  0  0  0  0  0  0  0  0
   37.8550   23.4190   38.1020 C   0  0  0  0  0  0  0  0  0  0  0  0
   37.2300   22.9240   36.9890 N   0  0  0  0  0  0  0  0  0  0  0  0
   37.9270   22.3060   36.0020 C   0  0  0  0  0  0  0  0  0  0  0  0
   39.2630   22.1520   36.0750 N   0  0  0  0  0  0  0  0  0  0  0  0
   37.1580   22.4210   31.2280 C   0  0  0  0  0  0  0  0  0  0  0  0
   37.6780   23.8540   31.4000 C   0  0  0  0  0  0  0  0  0  0  0  0
   38.3840   24.0130   30.0550 C   0  0  0  0  0  0  0  0  0  0  0  0
   39.2370   22.7640   30.0190 C   0  0  0  0  0  0  0  0  0  0  0  0
   38.3210   21.6990   30.5830 C   0  0  0  0  0  0  0  0  0  0  0  0
   35.8968   20.5002   36.0314 H   0  0  0  0  0  0  0  0  0  0  0  0
   34.6473   19.7305   34.0288 H   0  0  0  0  0  0  0  0  0  0  0  0
   41.0034   22.5101   37.2265 H   0  0  0  0  0  0  0  0  0  0  0  0
   39.7956   23.6540   39.0821 H   0  0  0  0  0  0  0  0  0  0  0  0
   37.2796   23.9185   38.8954 H   0  0  0  0  0  0  0  0  0  0  0  0
   36.2500   22.3382   30.6127 H   0  0  0  0  0  0  0  0  0  0  0  0
   36.8593   24.5780   31.5246 H   0  0  0  0  0  0  0  0  0  0  0  0
   38.3045   24.0273   32.2874 H   0  0  0  0  0  0  0  0  0  0  0  0
   37.6651   24.0338   29.2227 H   0  0  0  0  0  0  0  0  0  0  0  0
   38.9517   24.9495   29.9519 H   0  0  0  0  0  0  0  0  0  0  0  0
   39.5361   22.5209   28.9887 H   0  0  0  0  0  0  0  0  0  0  0  0
   40.1751   22.8675   30.5840 H   0  0  0  0  0  0  0  0  0  0  0  0
   37.9600   21.0439   29.7765 H   0  0  0  0  0  0  0  0  0  0  0  0
   38.8498   21.0696   31.3139 H   0  0  0  0  0  0  0  0  0  0  0  0
  1  2  2  0
  1 11  1  0
  3  2  1  0
  4  3  2  0
  5  4  1  0
  5  6  2  0
  6  1  1  0
  7  8  2  0
  9  8  1  0
 10  9  2  0
 11 12  2  0
 11 10  1  0
 12  7  1  0
 13 14  1  0
 13  5  1  0
 15 14  1  0
 16 15  1  0
 16 17  1  0
 17 13  1  0
  2 18  1  0
  3 19  1  0
  7 20  1  0
  8 21  1  0
  9 22  1  0
 13 23  1  0
 14 24  1  0
 14 25  1  0
 15 26  1  0
 15 27  1  0
 16 28  1  0
 16 29  1  0
 17 30  1  0
 17 31  1  0
M  ISO  8  18  14  19  14  20  14  21  14  22  14  23  13  24  13  25  13
M  ISO  6  26  13  27  13  28  13  29  13  30  13  31  13
M  END
>  <minimizedAffinity>  (1) 
-4.49302816

>  <minimizedRMSD>  (1) 
0.746151328

$$$$
