
     RDKit          3D

 28 30  0  0  0  0  0  0  0  0999 V2000
   37.3600   21.8430   34.9790 C   0  0  0  0  0  0  0  0  0  0  0  0
   36.2080   21.0800   35.0500 C   0  0  0  0  0  0  0  0  0  0  0  0
   35.6590   20.6490   33.8660 C   0  0  0  0  0  0  0  0  0  0  0  0
   36.2230   20.9580   32.6780 N   0  0  0  0  0  0  0  0  0  0  0  0
   37.3530   21.7070   32.6150 C   0  0  0  0  0  0  0  0  0  0  0  0
   37.9140   22.1440   33.7790 N   0  0  0  0  0  0  0  0  0  0  0  0
   39.8940   22.7350   37.4930 C   0  0  0  0  0  0  0  0  0  0  0  0
   39.1270   23.3520   38.4790 C   0  0  0  0  0  0  0  0  0  0  0  0
   37.7260   23.4560   38.2680 C   0  0  0  0  0  0  0  0  0  0  0  0
   37.2220   22.9420   37.1040 N   0  0  0  0  0  0  0  0  0  0  0  0
   38.0260   22.3520   36.1800 C   0  0  0  0  0  0  0  0  0  0  0  0
   39.3400   22.2460   36.3670 N   0  0  0  0  0  0  0  0  0  0  0  0
   38.0240   22.0850   31.3750 C   0  0  0  0  0  0  0  0  0  0  0  0
   38.0140   23.4100   30.9840 C   0  0  0  0  0  0  0  0  0  0  0  0
   38.6300   23.8490   29.8200 C   0  0  0  0  0  0  0  0  0  0  0  0
   39.2660   22.8990   29.0490 C   0  0  0  0  0  0  0  0  0  0  0  0
   39.2980   21.5870   29.3980 C   0  0  0  0  0  0  0  0  0  0  0  0
   38.6760   21.1570   30.5700 C   0  0  0  0  0  0  0  0  0  0  0  0
   35.7489   20.8279   36.0173 H   0  0  0  0  0  0  0  0  0  0  0  0
   34.7427   20.0407   33.8861 H   0  0  0  0  0  0  0  0  0  0  0  0
   40.9807   22.6449   37.6380 H   0  0  0  0  0  0  0  0  0  0  0  0
   39.5926   23.7470   39.3940 H   0  0  0  0  0  0  0  0  0  0  0  0
   37.0707   23.9319   39.0124 H   0  0  0  0  0  0  0  0  0  0  0  0
   37.4983   24.1452   31.6193 H   0  0  0  0  0  0  0  0  0  0  0  0
   38.6116   24.9087   29.5255 H   0  0  0  0  0  0  0  0  0  0  0  0
   39.7640   23.2144   28.1203 H   0  0  0  0  0  0  0  0  0  0  0  0
   39.8162   20.8610   28.7543 H   0  0  0  0  0  0  0  0  0  0  0  0
   38.7009   20.0948   30.8547 H   0  0  0  0  0  0  0  0  0  0  0  0
  1  2  2  0
  1 11  1  0
  3  2  1  0
  4  3  2  0
  5  4  1  0
  5  6  2  0
  6  1  1  0
  7  8  2  0
  9  8  1  0
 10  9  2  0
 11 12  2  0
 11 10  1  0
 12  7  1  0
 13  5  1  0
 14 13  2  0
 15 14  1  0
 16 17  1  0
 16 15  2  0
 17 18  2  0
 18 13  1  0
  2 19  1  0
  3 20  1  0
  7 21  1  0
  8 22  1  0
  9 23  1  0
 14 24  1  0
 15 25  1  0
 16 26  1  0
 17 27  1  0
 18 28  1  0
M  ISO  8  19  14  20  14  21  14  22  14  23  14  24  14  25  14  26  14
M  ISO  2  27  14  28  14
M  END
>  <minimizedAffinity>  (1) 
-4.48130465

>  <minimizedRMSD>  (1) 
0.542513072

$$$$
