
     RDKit          3D

 33 36  0  0  0  0  0  0  0  0999 V2000
   37.5040   23.0810   33.2480 C   0  0  0  0  0  0  0  0  0  0  0  0
   37.0820   21.8670   32.7340 C   0  0  0  0  0  0  0  0  0  0  0  0
   36.1870   21.7290   31.6990 C   0  0  0  0  0  0  0  0  0  0  0  0
   35.6530   22.8340   31.1110 C   0  0  0  0  0  0  0  0  0  0  0  0
   36.0270   24.0680   31.5700 C   0  0  0  0  0  0  0  0  0  0  0  0
   35.4800   25.1830   30.9670 C   0  0  0  0  0  0  0  0  0  0  0  0
   35.8020   26.4440   31.3690 C   0  0  0  0  0  0  0  0  0  0  0  0
   36.7160   26.5610   32.4230 C   0  0  0  0  0  0  0  0  0  0  0  0
   37.2330   25.4310   32.9910 C   0  0  0  0  0  0  0  0  0  0  0  0
   36.9280   24.1620   32.6100 C   0  0  0  0  0  0  0  0  0  0  0  0
   40.7680   23.2840   34.7290 C   0  0  0  0  0  0  0  0  0  0  0  0
   40.6060   23.3210   36.1150 C   0  0  0  0  0  0  0  0  0  0  0  0
   39.2910   23.2730   36.5470 C   0  0  0  0  0  0  0  0  0  0  0  0
   38.3250   23.1980   35.6370 N   0  0  0  0  0  0  0  0  0  0  0  0
   38.4490   23.1610   34.3380 C   0  0  0  0  0  0  0  0  0  0  0  0
   39.7090   23.2080   33.9330 N   0  0  0  0  0  0  0  0  0  0  0  0
   38.9460   23.3040   37.9840 C   0  0  0  0  0  0  0  0  0  0  0  0
   38.1190   24.4350   38.5330 C   0  0  0  0  0  0  0  0  0  0  0  0
   37.5250   23.0830   38.4180 C   0  0  0  0  0  0  0  0  0  0  0  0
   37.4904   20.9501   33.1841 H   0  0  0  0  0  0  0  0  0  0  0  0
   35.9030   20.7264   31.3468 H   0  0  0  0  0  0  0  0  0  0  0  0
   34.9350   22.7374   30.2832 H   0  0  0  0  0  0  0  0  0  0  0  0
   34.7660   25.0497   30.1409 H   0  0  0  0  0  0  0  0  0  0  0  0
   35.3637   27.3304   30.8872 H   0  0  0  0  0  0  0  0  0  0  0  0
   37.0152   27.5537   32.7905 H   0  0  0  0  0  0  0  0  0  0  0  0
   37.9484   25.5572   33.8170 H   0  0  0  0  0  0  0  0  0  0  0  0
   41.7781   23.3180   34.2947 H   0  0  0  0  0  0  0  0  0  0  0  0
   41.4564   23.3834   36.8099 H   0  0  0  0  0  0  0  0  0  0  0  0
   39.9193   22.8541   38.2295 H   0  0  0  0  0  0  0  0  0  0  0  0
   38.3481   24.8513   39.5251 H   0  0  0  0  0  0  0  0  0  0  0  0
   37.8409   25.4372   38.1749 H   0  0  0  0  0  0  0  0  0  0  0  0
   36.7459   22.8884   37.6662 H   0  0  0  0  0  0  0  0  0  0  0  0
   37.0267   22.3942   39.1160 H   0  0  0  0  0  0  0  0  0  0  0  0
  1 15  1  0
  2  1  2  0
  3  2  1  0
  4  5  1  0
  4  3  2  0
  5 10  2  0
  6  7  2  0
  6  5  1  0
  7  8  1  0
  8  9  2  0
 10  9  1  0
 10  1  1  0
 11 12  2  0
 12 13  1  0
 13 17  1  0
 14 13  2  0
 15 14  1  0
 16 15  2  0
 16 11  1  0
 17 19  1  0
 17 18  1  0
 19 18  1  0
  2 20  1  0
  3 21  1  0
  4 22  1  0
  6 23  1  0
  7 24  1  0
  8 25  1  0
  9 26  1  0
 11 27  1  0
 12 28  1  0
 17 29  1  0
 18 30  1  0
 18 31  1  0
 19 32  1  0
 19 33  1  0
M  ISO  8  20  14  21  14  22  14  23  14  24  14  25  14  26  14  27  14
M  ISO  6  28  14  29  13  30  13  31  13  32  13  33  13
M  END
>  <minimizedAffinity>  (1) 
-5.26732779

>  <minimizedRMSD>  (1) 
2.14914203

$$$$
