
     RDKit          3D

 25 27  0  0  0  0  0  0  0  0999 V2000
   37.4570   22.0120   34.8500 C   0  0  0  0  0  0  0  0  0  0  0  0
   36.3770   21.1590   34.8550 C   0  0  0  0  0  0  0  0  0  0  0  0
   35.8130   20.8000   33.6540 C   0  0  0  0  0  0  0  0  0  0  0  0
   36.3210   21.2860   32.4870 N   0  0  0  0  0  0  0  0  0  0  0  0
   37.3820   22.1240   32.4950 C   0  0  0  0  0  0  0  0  0  0  0  0
   37.9510   22.4880   33.6860 N   0  0  0  0  0  0  0  0  0  0  0  0
   37.9780   22.6800   31.3300 N   0  0  0  0  0  0  0  0  0  0  0  0
   38.8360   21.8810   30.6840 N   0  0  0  0  0  0  0  0  0  0  0  0
   39.3110   22.5640   29.6020 C   0  0  0  0  0  0  0  0  0  0  0  0
   38.7050   23.8060   29.6210 C   0  0  0  0  0  0  0  0  0  0  0  0
   37.8520   23.8810   30.7280 C   0  0  0  0  0  0  0  0  0  0  0  0
   39.9570   22.6410   37.4750 C   0  0  0  0  0  0  0  0  0  0  0  0
   39.2010   23.2620   38.4660 C   0  0  0  0  0  0  0  0  0  0  0  0
   37.8150   23.4610   38.2140 C   0  0  0  0  0  0  0  0  0  0  0  0
   37.3240   23.0280   37.0190 N   0  0  0  0  0  0  0  0  0  0  0  0
   38.1030   22.4320   36.0950 C   0  0  0  0  0  0  0  0  0  0  0  0
   39.4180   22.2320   36.3080 N   0  0  0  0  0  0  0  0  0  0  0  0
   35.9729   20.7719   35.8020 H   0  0  0  0  0  0  0  0  0  0  0  0
   34.9495   20.1188   33.6351 H   0  0  0  0  0  0  0  0  0  0  0  0
   40.0351   22.1974   28.8595 H   0  0  0  0  0  0  0  0  0  0  0  0
   38.8671   24.6068   28.8845 H   0  0  0  0  0  0  0  0  0  0  0  0
   37.2214   24.7276   31.0374 H   0  0  0  0  0  0  0  0  0  0  0  0
   41.0308   22.4784   37.6499 H   0  0  0  0  0  0  0  0  0  0  0  0
   39.6598   23.5875   39.4113 H   0  0  0  0  0  0  0  0  0  0  0  0
   37.1641   23.9463   38.9562 H   0  0  0  0  0  0  0  0  0  0  0  0
  1  2  2  0
  1 16  1  0
  3  2  1  0
  4  5  1  0
  4  3  2  0
  5  6  2  0
  6  1  1  0
  7  5  1  0
  8  7  1  0
  9 10  1  0
  9  8  2  0
 10 11  2  0
 11  7  1  0
 12 13  2  0
 14 13  1  0
 15 14  2  0
 16 17  2  0
 16 15  1  0
 17 12  1  0
  2 18  1  0
  3 19  1  0
  9 20  1  0
 10 21  1  0
 11 22  1  0
 12 23  1  0
 13 24  1  0
 14 25  1  0
M  ISO  8  18  14  19  14  20  14  21  14  22  14  23  14  24  14  25  14
M  END
>  <minimizedAffinity>  (1) 
-4.45241928

>  <minimizedRMSD>  (1) 
0.457552642

$$$$
