
     RDKit          3D

 30 31  0  0  0  0  0  0  0  0999 V2000
   37.2210   21.8660   35.2880 C   0  0  0  0  0  0  0  0  0  0  0  0
   36.2050   20.9520   35.5040 C   0  0  0  0  0  0  0  0  0  0  0  0
   35.4970   20.5010   34.4160 C   0  0  0  0  0  0  0  0  0  0  0  0
   35.7950   20.9480   33.1670 N   0  0  0  0  0  0  0  0  0  0  0  0
   36.7890   21.8410   32.9630 C   0  0  0  0  0  0  0  0  0  0  0  0
   37.4950   22.2920   34.0350 N   0  0  0  0  0  0  0  0  0  0  0  0
   40.0120   22.7140   37.5250 C   0  0  0  0  0  0  0  0  0  0  0  0
   39.3850   23.4610   38.5200 C   0  0  0  0  0  0  0  0  0  0  0  0
   37.9990   23.6630   38.4050 C   0  0  0  0  0  0  0  0  0  0  0  0
   37.3680   23.1120   37.3260 N   0  0  0  0  0  0  0  0  0  0  0  0
   38.0230   22.3960   36.3880 C   0  0  0  0  0  0  0  0  0  0  0  0
   39.3340   22.1970   36.4840 N   0  0  0  0  0  0  0  0  0  0  0  0
   37.0960   22.3130   31.5870 C   0  0  0  0  0  0  0  0  0  0  0  0
   38.3330   23.1800   31.5490 C   0  0  0  0  0  0  0  0  0  0  0  0
   35.9500   23.1550   31.0680 C   0  0  0  0  0  0  0  0  0  0  0  0
   37.2490   21.1060   30.6820 C   0  0  0  0  0  0  0  0  0  0  0  0
   35.9706   20.5963   36.5182 H   0  0  0  0  0  0  0  0  0  0  0  0
   34.6839   19.7736   34.5565 H   0  0  0  0  0  0  0  0  0  0  0  0
   41.0963   22.5413   37.5926 H   0  0  0  0  0  0  0  0  0  0  0  0
   39.9538   23.8773   39.3644 H   0  0  0  0  0  0  0  0  0  0  0  0
   37.4429   24.2433   39.1560 H   0  0  0  0  0  0  0  0  0  0  0  0
   38.6545   23.4053   32.5765 H   0  0  0  0  0  0  0  0  0  0  0  0
   39.1380   22.6474   31.0214 H   0  0  0  0  0  0  0  0  0  0  0  0
   38.1070   24.1184   31.0214 H   0  0  0  0  0  0  0  0  0  0  0  0
   35.3859   23.5695   31.9165 H   0  0  0  0  0  0  0  0  0  0  0  0
   36.3475   23.9775   30.4552 H   0  0  0  0  0  0  0  0  0  0  0  0
   35.2839   22.5299   30.4552 H   0  0  0  0  0  0  0  0  0  0  0  0
   37.3638   20.2001   31.2953 H   0  0  0  0  0  0  0  0  0  0  0  0
   36.3561   21.0082   30.0471 H   0  0  0  0  0  0  0  0  0  0  0  0
   38.1381   21.2341   30.0471 H   0  0  0  0  0  0  0  0  0  0  0  0
  1  2  2  0
  1 11  1  0
  3  2  1  0
  4  3  2  0
  5  4  1  0
  5  6  2  0
  6  1  1  0
  7  8  2  0
  9  8  1  0
 10  9  2  0
 11 12  2  0
 11 10  1  0
 12  7  1  0
 13  5  1  0
 14 13  1  0
 15 13  1  0
 16 13  1  0
  2 17  1  0
  3 18  1  0
  7 19  1  0
  8 20  1  0
  9 21  1  0
 14 22  1  0
 14 23  1  0
 14 24  1  0
 15 25  1  0
 15 26  1  0
 15 27  1  0
 16 28  1  0
 16 29  1  0
 16 30  1  0
M  ISO  8  17  14  18  14  19  14  20  14  21  14  22   8  23   8  24   8
M  ISO  6  25   8  26   8  27   8  28   8  29   8  30   8
M  END
>  <minimizedAffinity>  (1) 
-4.35257912

>  <minimizedRMSD>  (1) 
0.618520558

$$$$
