
     RDKit          3D

 25 27  0  0  0  0  0  0  0  0999 V2000
   37.4420   21.9840   34.8600 C   0  0  0  0  0  0  0  0  0  0  0  0
   36.3490   21.1470   34.8650 C   0  0  0  0  0  0  0  0  0  0  0  0
   35.7920   20.7920   33.6600 C   0  0  0  0  0  0  0  0  0  0  0  0
   36.3040   21.2540   32.4990 N   0  0  0  0  0  0  0  0  0  0  0  0
   37.3810   22.0790   32.4920 C   0  0  0  0  0  0  0  0  0  0  0  0
   37.9400   22.4360   33.6830 N   0  0  0  0  0  0  0  0  0  0  0  0
   39.9630   22.6460   37.4630 C   0  0  0  0  0  0  0  0  0  0  0  0
   39.2010   23.2710   38.4470 C   0  0  0  0  0  0  0  0  0  0  0  0
   37.8320   23.4570   38.2060 C   0  0  0  0  0  0  0  0  0  0  0  0
   37.3090   23.0170   37.0130 N   0  0  0  0  0  0  0  0  0  0  0  0
   38.1010   22.4140   36.0920 C   0  0  0  0  0  0  0  0  0  0  0  0
   39.4040   22.2300   36.3080 N   0  0  0  0  0  0  0  0  0  0  0  0
   38.0070   22.6300   31.2950 C   0  0  0  0  0  0  0  0  0  0  0  0
   37.9310   23.8740   30.6560 C   0  0  0  0  0  0  0  0  0  0  0  0
   38.7620   23.7920   29.5540 C   0  0  0  0  0  0  0  0  0  0  0  0
   39.3000   22.5170   29.5690 C   0  0  0  0  0  0  0  0  0  0  0  0
   38.8300   21.8730   30.6060 O   0  0  0  0  0  0  0  0  0  0  0  0
   35.9316   20.7714   35.8109 H   0  0  0  0  0  0  0  0  0  0  0  0
   34.9186   20.1235   33.6409 H   0  0  0  0  0  0  0  0  0  0  0  0
   41.0388   22.4889   37.6305 H   0  0  0  0  0  0  0  0  0  0  0  0
   39.6603   23.6095   39.3875 H   0  0  0  0  0  0  0  0  0  0  0  0
   37.1906   23.9443   38.9551 H   0  0  0  0  0  0  0  0  0  0  0  0
   37.3310   24.7416   30.9680 H   0  0  0  0  0  0  0  0  0  0  0  0
   38.9565   24.5819   28.8136 H   0  0  0  0  0  0  0  0  0  0  0  0
   40.0069   22.1117   28.8301 H   0  0  0  0  0  0  0  0  0  0  0  0
  1  2  2  0
  1 11  1  0
  3  2  1  0
  4  3  2  0
  5  4  1  0
  5  6  2  0
  6  1  1  0
  7  8  2  0
  9  8  1  0
 10  9  2  0
 11 12  2  0
 11 10  1  0
 12  7  1  0
 13  5  1  0
 14 13  2  0
 15 16  2  0
 15 14  1  0
 16 17  1  0
 17 13  1  0
  2 18  1  0
  3 19  1  0
  7 20  1  0
  8 21  1  0
  9 22  1  0
 14 23  1  0
 15 24  1  0
 16 25  1  0
M  ISO  8  18  14  19  14  20  14  21  14  22  14  23  14  24  14  25  14
M  END
>  <minimizedAffinity>  (1) 
-4.2663722

>  <minimizedRMSD>  (1) 
0.481417537

$$$$
