
     RDKit          3D

 23 25  0  0  0  0  0  0  0  0999 V2000
   37.3990   21.9440   35.0030 C   0  0  0  0  0  0  0  0  0  0  0  0
   36.3030   21.1090   35.0510 C   0  0  0  0  0  0  0  0  0  0  0  0
   35.7170   20.7050   33.8810 C   0  0  0  0  0  0  0  0  0  0  0  0
   36.2210   21.1250   32.6890 N   0  0  0  0  0  0  0  0  0  0  0  0
   37.2970   21.9420   32.6440 C   0  0  0  0  0  0  0  0  0  0  0  0
   37.8770   22.3440   33.8110 N   0  0  0  0  0  0  0  0  0  0  0  0
   39.9400   22.7130   37.5520 C   0  0  0  0  0  0  0  0  0  0  0  0
   39.1840   23.3360   38.5430 C   0  0  0  0  0  0  0  0  0  0  0  0
   37.8020   23.4850   38.3190 C   0  0  0  0  0  0  0  0  0  0  0  0
   37.2800   23.0080   37.1390 N   0  0  0  0  0  0  0  0  0  0  0  0
   38.0650   22.4090   36.2110 C   0  0  0  0  0  0  0  0  0  0  0  0
   39.3890   22.2540   36.4000 N   0  0  0  0  0  0  0  0  0  0  0  0
   37.9030   22.4420   31.4150 C   0  0  0  0  0  0  0  0  0  0  0  0
   37.5080   23.6840   31.0470 N   0  0  0  0  0  0  0  0  0  0  0  0
   38.0950   24.0410   29.9540 O   0  0  0  0  0  0  0  0  0  0  0  0
   38.8830   23.0580   29.5730 C   0  0  0  0  0  0  0  0  0  0  0  0
   38.7860   22.0380   30.4700 N   0  0  0  0  0  0  0  0  0  0  0  0
   35.9036   20.7709   36.0186 H   0  0  0  0  0  0  0  0  0  0  0  0
   34.8398   20.0417   33.9049 H   0  0  0  0  0  0  0  0  0  0  0  0
   41.0216   22.5889   37.7091 H   0  0  0  0  0  0  0  0  0  0  0  0
   39.6516   23.6995   39.4699 H   0  0  0  0  0  0  0  0  0  0  0  0
   37.1573   23.9696   39.0671 H   0  0  0  0  0  0  0  0  0  0  0  0
   39.5177   23.0601   28.6746 H   0  0  0  0  0  0  0  0  0  0  0  0
  1  2  2  0
  1 11  1  0
  3  2  1  0
  4  3  2  0
  5  4  1  0
  5  6  2  0
  6  1  1  0
  7  8  2  0
  9  8  1  0
 10  9  2  0
 11 12  2  0
 11 10  1  0
 12  7  1  0
 13  5  1  0
 14 13  2  0
 15 14  1  0
 16 15  1  0
 16 17  2  0
 17 13  1  0
  2 18  1  0
  3 19  1  0
  7 20  1  0
  8 21  1  0
  9 22  1  0
 16 23  1  0
M  ISO  6  18  14  19  14  20  14  21  14  22  14  23  14
M  END
>  <minimizedAffinity>  (1) 
-4.2364006

>  <minimizedRMSD>  (1) 
0.513022244

$$$$
