
     RDKit          3D

 24 26  0  0  0  0  0  0  0  0999 V2000
   37.4940   21.9430   34.8470 C   0  0  0  0  0  0  0  0  0  0  0  0
   36.3440   21.1820   34.8440 C   0  0  0  0  0  0  0  0  0  0  0  0
   35.8130   20.7920   33.6510 C   0  0  0  0  0  0  0  0  0  0  0  0
   36.3980   21.1390   32.4830 N   0  0  0  0  0  0  0  0  0  0  0  0
   37.5390   21.8940   32.4880 C   0  0  0  0  0  0  0  0  0  0  0  0
   38.0790   22.2920   33.6840 N   0  0  0  0  0  0  0  0  0  0  0  0
   39.9500   22.6750   37.4900 C   0  0  0  0  0  0  0  0  0  0  0  0
   39.1600   23.2900   38.4600 C   0  0  0  0  0  0  0  0  0  0  0  0
   37.7780   23.4490   38.1910 C   0  0  0  0  0  0  0  0  0  0  0  0
   37.3100   22.9830   36.9920 N   0  0  0  0  0  0  0  0  0  0  0  0
   38.1140   22.3940   36.0830 C   0  0  0  0  0  0  0  0  0  0  0  0
   39.4160   22.2470   36.3370 N   0  0  0  0  0  0  0  0  0  0  0  0
   38.2160   22.2990   31.2350 C   0  0  0  0  0  0  0  0  0  0  0  0
   38.9790   21.3730   30.4460 C   0  0  0  0  0  0  0  0  0  0  0  0
   39.5370   22.4340   29.0830 S   0  0  0  0  0  0  0  0  0  0  0  0
   38.6420   23.9570   29.8090 C   0  0  0  0  0  0  0  0  0  0  0  0
   38.1480   23.5340   30.7820 N   0  0  0  0  0  0  0  0  0  0  0  0
   35.8625   20.8941   35.7902 H   0  0  0  0  0  0  0  0  0  0  0  0
   34.8950   20.1860   33.6385 H   0  0  0  0  0  0  0  0  0  0  0  0
   41.0261   22.5390   37.6730 H   0  0  0  0  0  0  0  0  0  0  0  0
   39.5967   23.6415   39.4064 H   0  0  0  0  0  0  0  0  0  0  0  0
   37.1065   23.9288   38.9182 H   0  0  0  0  0  0  0  0  0  0  0  0
   39.1736   20.3046   30.6211 H   0  0  0  0  0  0  0  0  0  0  0  0
   38.6009   24.9813   29.4101 H   0  0  0  0  0  0  0  0  0  0  0  0
  1 11  1  0
  2  1  2  0
  3  2  1  0
  4  5  1  0
  4  3  2  0
  5  6  2  0
  6  1  1  0
  7  8  2  0
  9  8  1  0
 10  9  2  0
 11 12  2  0
 11 10  1  0
 12  7  1  0
 13  5  1  0
 14 13  2  0
 15 16  1  0
 15 14  1  0
 16 17  2  0
 17 13  1  0
  2 18  1  0
  3 19  1  0
  7 20  1  0
  8 21  1  0
  9 22  1  0
 14 23  1  0
 16 24  1  0
M  ISO  7  18  14  19  14  20  14  21  14  22  14  23  14  24  14
M  END
>  <minimizedAffinity>  (1) 
-4.11951685

>  <minimizedRMSD>  (1) 
0.614197493

$$$$
