
     RDKit          3D

 34 37  0  0  0  0  0  0  0  0999 V2000
   38.0510   23.8090   34.7320 C   0  0  0  0  0  0  0  0  0  0  0  0
   37.9130   22.7280   33.9030 C   0  0  0  0  0  0  0  0  0  0  0  0
   37.5670   22.9360   32.5910 C   0  0  0  0  0  0  0  0  0  0  0  0
   37.3650   24.1960   32.1280 N   0  0  0  0  0  0  0  0  0  0  0  0
   37.5010   25.2540   32.9480 C   0  0  0  0  0  0  0  0  0  0  0  0
   37.8480   25.0570   34.2620 N   0  0  0  0  0  0  0  0  0  0  0  0
   39.7590   22.8390   37.8490 C   0  0  0  0  0  0  0  0  0  0  0  0
   38.9870   23.4700   38.8150 C   0  0  0  0  0  0  0  0  0  0  0  0
   37.8950   24.2160   38.3830 C   0  0  0  0  0  0  0  0  0  0  0  0
   37.6220   24.3030   37.0440 N   0  0  0  0  0  0  0  0  0  0  0  0
   38.4190   23.6600   36.1390 C   0  0  0  0  0  0  0  0  0  0  0  0
   39.4710   22.9390   36.5330 N   0  0  0  0  0  0  0  0  0  0  0  0
   37.2720   26.5950   32.4040 C   0  0  0  0  0  0  0  0  0  0  0  0
   36.6180   27.5330   33.2010 C   0  0  0  0  0  0  0  0  0  0  0  0
   36.5320   28.7060   32.4500 C   0  0  0  0  0  0  0  0  0  0  0  0
   37.1250   28.4460   31.2480 N   0  0  0  0  0  0  0  0  0  0  0  0
   37.5600   27.2010   31.2230 N   0  0  0  0  0  0  0  0  0  0  0  0
   37.2480   29.3880   30.1880 C   0  0  0  0  0  0  0  0  0  0  0  0
   36.7730   30.6790   30.3020 C   0  0  0  0  0  0  0  0  0  0  0  0
   36.9240   31.5570   29.2220 C   0  0  0  0  0  0  0  0  0  0  0  0
   37.5520   31.0590   28.0930 C   0  0  0  0  0  0  0  0  0  0  0  0
   38.0280   29.7710   27.9730 C   0  0  0  0  0  0  0  0  0  0  0  0
   37.8560   28.9620   29.0470 N   0  0  0  0  0  0  0  0  0  0  0  0
   38.0769   21.7086   34.2825 H   0  0  0  0  0  0  0  0  0  0  0  0
   37.4529   22.0781   31.9120 H   0  0  0  0  0  0  0  0  0  0  0  0
   40.6278   22.2421   38.1634 H   0  0  0  0  0  0  0  0  0  0  0  0
   39.2301   23.3832   39.8843 H   0  0  0  0  0  0  0  0  0  0  0  0
   37.2546   24.7329   39.1129 H   0  0  0  0  0  0  0  0  0  0  0  0
   36.2426   27.3786   34.2234 H   0  0  0  0  0  0  0  0  0  0  0  0
   36.0752   29.6557   32.7652 H   0  0  0  0  0  0  0  0  0  0  0  0
   36.2828   31.0132   31.2283 H   0  0  0  0  0  0  0  0  0  0  0  0
   36.5606   32.5942   29.2683 H   0  0  0  0  0  0  0  0  0  0  0  0
   37.6795   31.7358   27.2353 H   0  0  0  0  0  0  0  0  0  0  0  0
   38.5210   29.4185   27.0550 H   0  0  0  0  0  0  0  0  0  0  0  0
  1 11  1  0
  2  1  2  0
  3  2  1  0
  4  3  2  0
  4  5  1  0
  5  6  2  0
  6  1  1  0
  7  8  2  0
  9  8  1  0
 10  9  2  0
 11 12  2  0
 11 10  1  0
 12  7  1  0
 13  5  1  0
 13 14  1  0
 15 14  2  0
 16 15  1  0
 17 16  1  0
 17 13  2  0
 18 19  2  0
 18 16  1  0
 20 19  1  0
 21 20  2  0
 22 21  1  0
 22 23  2  0
 23 18  1  0
  2 24  1  0
  3 25  1  0
  7 26  1  0
  8 27  1  0
  9 28  1  0
 14 29  1  0
 15 30  1  0
 19 31  1  0
 20 32  1  0
 21 33  1  0
 22 34  1  0
M  ISO  8  24  14  25  14  26  14  27  14  28  14  29  14  30  14  31  14
M  ISO  3  32  14  33  14  34  14
M  END
>  <minimizedAffinity>  (1) 
-5.30329847

>  <minimizedRMSD>  (1) 
3.55130625

$$$$
