
     RDKit          3D

 20 20  0  0  1  0  0  0  0  0999 V2000
   38.9210   25.6550   34.9490 C   0  0  2  0  0  0  0  0  0  0  0  0
   39.6530   22.9190   37.2780 C   0  0  0  0  0  0  0  0  0  0  0  0
   38.7780   23.1760   38.3800 C   0  0  0  0  0  0  0  0  0  0  0  0
   37.9370   24.3080   38.3000 C   0  0  0  0  0  0  0  0  0  0  0  0
   38.0280   25.0770   37.1610 N   0  0  0  0  0  0  0  0  0  0  0  0
   38.8590   24.8060   36.1500 C   0  0  0  0  0  0  0  0  0  0  0  0
   39.6530   23.7370   36.2240 N   0  0  0  0  0  0  0  0  0  0  0  0
   39.0280   27.0960   35.3900 C   0  0  0  0  0  0  0  0  0  0  0  0
   37.6950   25.5290   34.0750 C   0  0  0  0  0  0  0  0  0  0  0  0
   37.7820   24.0790   33.0140 S   0  0  0  0  0  0  0  0  0  0  0  0
   39.7912   25.3285   34.3606 H   0  0  0  0  0  0  0  0  0  0  0  0
   40.3249   22.0483   37.2995 H   0  0  0  0  0  0  0  0  0  0  0  0
   38.7607   22.5151   39.2591 H   0  0  0  0  0  0  0  0  0  0  0  0
   37.2401   24.5641   39.1116 H   0  0  0  0  0  0  0  0  0  0  0  0
   39.0316   27.1438   36.4890 H   0  0  0  0  0  0  0  0  0  0  0  0
   39.9609   27.5302   35.0011 H   0  0  0  0  0  0  0  0  0  0  0  0
   38.1695   27.6632   35.0011 H   0  0  0  0  0  0  0  0  0  0  0  0
   36.8058   25.4480   34.7174 H   0  0  0  0  0  0  0  0  0  0  0  0
   37.6374   26.4208   33.4336 H   0  0  0  0  0  0  0  0  0  0  0  0
   37.8497   22.9504   33.7877 H   0  0  0  0  0  0  0  0  0  0  0  0
  1  8  1  0
  1  6  1  0
  2  3  2  0
  4  3  1  0
  5  4  2  0
  6  7  2  0
  6  5  1  0
  7  2  1  0
  9  1  1  0
 10  9  1  0
  1 11  1  6
  2 12  1  0
  3 13  1  0
  4 14  1  0
  8 15  1  0
  8 16  1  0
  8 17  1  0
  9 18  1  0
  9 19  1  0
 10 20  1  0
M  ISO  8  11   8  12  14  13  14  14  14  15   8  16   8  17   8  18   8
M  ISO  2  19   8  20  11
M  END
>  <minimizedAffinity>  (1) 
-3.16255403

>  <minimizedRMSD>  (1) 
0.282344848

$$$$
