
     RDKit          3D

 41 44  0  0  0  0  0  0  0  0999 V2000
   38.2400   22.2070   31.2150 C   0  0  0  0  0  0  0  0  0  0  0  0
   38.7700   21.1620   30.4490 C   0  0  0  0  0  0  0  0  0  0  0  0
   39.2960   21.7390   29.2970 C   0  0  0  0  0  0  0  0  0  0  0  0
   39.0740   23.0670   29.4010 N   0  0  0  0  0  0  0  0  0  0  0  0
   38.4480   23.3570   30.5360 N   0  0  0  0  0  0  0  0  0  0  0  0
   37.5080   21.9380   34.8560 C   0  0  0  0  0  0  0  0  0  0  0  0
   36.3600   21.2030   34.8390 C   0  0  0  0  0  0  0  0  0  0  0  0
   35.8490   20.8110   33.6320 C   0  0  0  0  0  0  0  0  0  0  0  0
   36.4660   21.1430   32.4710 N   0  0  0  0  0  0  0  0  0  0  0  0
   37.6100   21.8770   32.5000 C   0  0  0  0  0  0  0  0  0  0  0  0
   38.1300   22.2730   33.7010 N   0  0  0  0  0  0  0  0  0  0  0  0
   39.9470   22.7000   37.5220 C   0  0  0  0  0  0  0  0  0  0  0  0
   39.1390   23.3090   38.4800 C   0  0  0  0  0  0  0  0  0  0  0  0
   37.7740   23.4470   38.1940 C   0  0  0  0  0  0  0  0  0  0  0  0
   37.2860   22.9870   37.0020 N   0  0  0  0  0  0  0  0  0  0  0  0
   38.1210   22.3970   36.0960 C   0  0  0  0  0  0  0  0  0  0  0  0
   39.4210   22.2650   36.3670 N   0  0  0  0  0  0  0  0  0  0  0  0
   39.4760   24.0050   28.3840 C   0  0  0  0  0  0  0  0  0  0  0  0
   39.5790   23.2410   27.0810 C   0  0  0  0  0  0  0  0  0  0  0  0
   40.0090   24.2630   26.0560 C   0  0  0  0  0  0  0  0  0  0  0  0
   40.3230   25.5720   26.3560 C   0  0  0  0  0  0  0  0  0  0  0  0
   40.7080   26.4540   25.3730 C   0  0  0  0  0  0  0  0  0  0  0  0
   40.7820   26.0200   24.0540 C   0  0  0  0  0  0  0  0  0  0  0  0
   40.4620   24.7030   23.7800 C   0  0  0  0  0  0  0  0  0  0  0  0
   40.0720   23.7990   24.7560 C   0  0  0  0  0  0  0  0  0  0  0  0
   38.7706   20.0928   30.7074 H   0  0  0  0  0  0  0  0  0  0  0  0
   39.7938   21.2170   28.4665 H   0  0  0  0  0  0  0  0  0  0  0  0
   35.8545   20.9305   35.7772 H   0  0  0  0  0  0  0  0  0  0  0  0
   34.9234   20.2174   33.6029 H   0  0  0  0  0  0  0  0  0  0  0  0
   41.0229   22.5751   37.7139 H   0  0  0  0  0  0  0  0  0  0  0  0
   39.5591   23.6699   39.4304 H   0  0  0  0  0  0  0  0  0  0  0  0
   37.1003   23.9216   38.9226 H   0  0  0  0  0  0  0  0  0  0  0  0
   38.7267   24.8052   28.2928 H   0  0  0  0  0  0  0  0  0  0  0  0
   40.4402   24.4679   28.6409 H   0  0  0  0  0  0  0  0  0  0  0  0
   40.3266   22.4383   27.1625 H   0  0  0  0  0  0  0  0  0  0  0  0
   38.6271   22.7614   26.8092 H   0  0  0  0  0  0  0  0  0  0  0  0
   40.2646   25.9166   27.3990 H   0  0  0  0  0  0  0  0  0  0  0  0
   40.9555   27.4949   25.6285 H   0  0  0  0  0  0  0  0  0  0  0  0
   41.0870   26.7060   23.2500 H   0  0  0  0  0  0  0  0  0  0  0  0
   40.5196   24.3560   22.7378 H   0  0  0  0  0  0  0  0  0  0  0  0
   39.8234   22.7570   24.5062 H   0  0  0  0  0  0  0  0  0  0  0  0
  1 10  1  0
  2  1  1  0
  3  4  1  0
  3  2  2  0
  4  5  1  0
  5  1  2  0
  6 16  1  0
  7  6  2  0
  8  7  1  0
  9 10  1  0
  9  8  2  0
 10 11  2  0
 11  6  1  0
 12 13  2  0
 14 13  1  0
 15 14  2  0
 16 17  2  0
 16 15  1  0
 17 12  1  0
 18  4  1  0
 19 18  1  0
 20 21  2  0
 20 19  1  0
 22 21  1  0
 23 22  2  0
 24 23  1  0
 24 25  2  0
 25 20  1  0
  2 26  1  0
  3 27  1  0
  7 28  1  0
  8 29  1  0
 12 30  1  0
 13 31  1  0
 14 32  1  0
 18 33  1  0
 18 34  1  0
 19 35  1  0
 19 36  1  0
 21 37  1  0
 22 38  1  0
 23 39  1  0
 24 40  1  0
 25 41  1  0
M  ISO  8  26  14  27  14  28  14  29  14  30  14  31  14  32  14  33   8
M  ISO  8  34   8  35   8  36   8  37  14  38  14  39  14  40  14  41  14
M  END
>  <minimizedAffinity>  (1) 
-4.84324026

>  <minimizedRMSD>  (1) 
0.277558476

$$$$
