
     RDKit          3D

 40 43  0  0  0  0  0  0  0  0999 V2000
   38.2100   22.2600   31.2160 C   0  0  0  0  0  0  0  0  0  0  0  0
   38.7570   21.2290   30.4450 C   0  0  0  0  0  0  0  0  0  0  0  0
   39.2880   21.8340   29.3070 C   0  0  0  0  0  0  0  0  0  0  0  0
   39.0540   23.1610   29.4190 N   0  0  0  0  0  0  0  0  0  0  0  0
   38.4180   23.4100   30.5480 N   0  0  0  0  0  0  0  0  0  0  0  0
   37.5180   21.9650   34.8570 C   0  0  0  0  0  0  0  0  0  0  0  0
   36.3700   21.2030   34.8380 C   0  0  0  0  0  0  0  0  0  0  0  0
   35.8480   20.8040   33.6340 C   0  0  0  0  0  0  0  0  0  0  0  0
   36.4570   21.1560   32.4690 N   0  0  0  0  0  0  0  0  0  0  0  0
   37.5760   21.8980   32.4910 C   0  0  0  0  0  0  0  0  0  0  0  0
   38.1070   22.3030   33.6970 N   0  0  0  0  0  0  0  0  0  0  0  0
   39.9430   22.6940   37.5260 C   0  0  0  0  0  0  0  0  0  0  0  0
   39.1380   23.2970   38.4880 C   0  0  0  0  0  0  0  0  0  0  0  0
   37.7740   23.4450   38.2060 C   0  0  0  0  0  0  0  0  0  0  0  0
   37.2870   22.9970   37.0090 N   0  0  0  0  0  0  0  0  0  0  0  0
   38.1130   22.4130   36.1000 C   0  0  0  0  0  0  0  0  0  0  0  0
   39.4140   22.2680   36.3610 N   0  0  0  0  0  0  0  0  0  0  0  0
   39.4780   24.0720   28.4020 C   0  0  0  0  0  0  0  0  0  0  0  0
   39.5970   23.2940   27.0950 C   0  0  0  0  0  0  0  0  0  0  0  0
   40.0160   24.3370   26.0870 C   0  0  0  0  0  0  0  0  0  0  0  0
   40.1640   24.0310   24.7330 C   0  0  0  0  0  0  0  0  0  0  0  0
   40.5500   25.0230   23.8560 C   0  0  0  0  0  0  0  0  0  0  0  0
   40.7850   26.3060   24.3260 C   0  0  0  0  0  0  0  0  0  0  0  0
   40.6350   26.5970   25.6710 C   0  0  0  0  0  0  0  0  0  0  0  0
   40.2600   25.6070   26.4900 N   0  0  0  0  0  0  0  0  0  0  0  0
   38.7663   20.1562   30.6879 H   0  0  0  0  0  0  0  0  0  0  0  0
   39.8003   21.3278   28.4755 H   0  0  0  0  0  0  0  0  0  0  0  0
   35.8771   20.9176   35.7791 H   0  0  0  0  0  0  0  0  0  0  0  0
   34.9317   20.1959   33.6099 H   0  0  0  0  0  0  0  0  0  0  0  0
   41.0184   22.5640   37.7173 H   0  0  0  0  0  0  0  0  0  0  0  0
   39.5604   23.6470   39.4415 H   0  0  0  0  0  0  0  0  0  0  0  0
   37.1023   23.9161   38.9387 H   0  0  0  0  0  0  0  0  0  0  0  0
   38.7383   24.8785   28.2908 H   0  0  0  0  0  0  0  0  0  0  0  0
   40.4456   24.5215   28.6696 H   0  0  0  0  0  0  0  0  0  0  0  0
   40.3569   22.5031   27.1784 H   0  0  0  0  0  0  0  0  0  0  0  0
   38.6610   22.7876   26.8166 H   0  0  0  0  0  0  0  0  0  0  0  0
   39.9749   23.0101   24.3696 H   0  0  0  0  0  0  0  0  0  0  0  0
   40.6711   24.7968   22.7863 H   0  0  0  0  0  0  0  0  0  0  0  0
   41.0924   27.0971   23.6262 H   0  0  0  0  0  0  0  0  0  0  0  0
   40.8185   27.6113   26.0551 H   0  0  0  0  0  0  0  0  0  0  0  0
  1 10  1  0
  2  1  1  0
  3  4  1  0
  3  2  2  0
  4  5  1  0
  5  1  2  0
  6 16  1  0
  7  6  2  0
  8  7  1  0
  9 10  1  0
  9  8  2  0
 10 11  2  0
 11  6  1  0
 12 13  2  0
 14 13  1  0
 15 14  2  0
 16 17  2  0
 16 15  1  0
 17 12  1  0
 18  4  1  0
 19 18  1  0
 20 25  1  0
 20 19  1  0
 21 20  2  0
 22 23  2  0
 22 21  1  0
 23 24  1  0
 24 25  2  0
  2 26  1  0
  3 27  1  0
  7 28  1  0
  8 29  1  0
 12 30  1  0
 13 31  1  0
 14 32  1  0
 18 33  1  0
 18 34  1  0
 19 35  1  0
 19 36  1  0
 21 37  1  0
 22 38  1  0
 23 39  1  0
 24 40  1  0
M  ISO  8  26  14  27  14  28  14  29  14  30  14  31  14  32  14  33   8
M  ISO  7  34   8  35   8  36   8  37  14  38  14  39  14  40  14
M  END
>  <minimizedAffinity>  (1) 
-4.72523355

>  <minimizedRMSD>  (1) 
0.694362402

$$$$
