
     RDKit          3D

 39 42  0  0  0  0  0  0  0  0999 V2000
   37.8210   22.1280   34.4300 C   0  0  0  0  0  0  0  0  0  0  0  0
   37.3990   21.9670   35.7350 C   0  0  0  0  0  0  0  0  0  0  0  0
   36.2880   21.2490   36.1090 C   0  0  0  0  0  0  0  0  0  0  0  0
   35.5250   20.6400   35.1560 C   0  0  0  0  0  0  0  0  0  0  0  0
   35.8920   20.7630   33.8480 C   0  0  0  0  0  0  0  0  0  0  0  0
   35.1100   20.1410   32.8870 C   0  0  0  0  0  0  0  0  0  0  0  0
   35.4180   20.2220   31.5580 C   0  0  0  0  0  0  0  0  0  0  0  0
   36.5460   20.9550   31.2090 C   0  0  0  0  0  0  0  0  0  0  0  0
   37.2920   21.5550   32.1930 C   0  0  0  0  0  0  0  0  0  0  0  0
   37.0090   21.4900   33.5160 C   0  0  0  0  0  0  0  0  0  0  0  0
   41.3440   22.7140   34.0320 C   0  0  0  0  0  0  0  0  0  0  0  0
   41.5100   24.0210   33.5820 C   0  0  0  0  0  0  0  0  0  0  0  0
   40.3440   24.7380   33.4060 C   0  0  0  0  0  0  0  0  0  0  0  0
   39.1900   24.1260   33.6780 N   0  0  0  0  0  0  0  0  0  0  0  0
   39.0100   22.9040   34.1000 C   0  0  0  0  0  0  0  0  0  0  0  0
   40.1410   22.2050   34.2720 N   0  0  0  0  0  0  0  0  0  0  0  0
   40.2660   26.0780   32.9580 N   0  0  0  0  0  0  0  0  0  0  0  0
   40.8910   27.2010   33.6680 C   0  0  0  0  0  0  0  0  0  0  0  0
   42.0120   27.6930   32.7690 C   0  0  0  0  0  0  0  0  0  0  0  0
   41.8310   27.3090   31.4430 O   0  0  0  0  0  0  0  0  0  0  0  0
   40.5140   27.4650   31.0310 C   0  0  0  0  0  0  0  0  0  0  0  0
   39.5770   26.5260   31.7680 C   0  0  0  0  0  0  0  0  0  0  0  0
   37.9917   22.4455   36.5286 H   0  0  0  0  0  0  0  0  0  0  0  0
   36.0155   21.1659   37.1715 H   0  0  0  0  0  0  0  0  0  0  0  0
   34.6323   20.0617   35.4366 H   0  0  0  0  0  0  0  0  0  0  0  0
   34.2233   19.5705   33.2007 H   0  0  0  0  0  0  0  0  0  0  0  0
   34.7984   19.7272   30.7956 H   0  0  0  0  0  0  0  0  0  0  0  0
   36.8386   21.0536   30.1532 H   0  0  0  0  0  0  0  0  0  0  0  0
   38.1798   22.1274   31.8862 H   0  0  0  0  0  0  0  0  0  0  0  0
   42.2328   22.0862   34.1930 H   0  0  0  0  0  0  0  0  0  0  0  0
   42.5017   24.4523   33.3807 H   0  0  0  0  0  0  0  0  0  0  0  0
   40.1568   28.0025   33.8369 H   0  0  0  0  0  0  0  0  0  0  0  0
   41.2706   26.8934   34.6536 H   0  0  0  0  0  0  0  0  0  0  0  0
   42.0487   28.7913   32.8177 H   0  0  0  0  0  0  0  0  0  0  0  0
   42.9512   27.2443   33.1248 H   0  0  0  0  0  0  0  0  0  0  0  0
   40.2017   28.5022   31.2226 H   0  0  0  0  0  0  0  0  0  0  0  0
   40.4613   27.2275   29.9582 H   0  0  0  0  0  0  0  0  0  0  0  0
   38.6537   27.0560   32.0446 H   0  0  0  0  0  0  0  0  0  0  0  0
   39.3021   25.6716   31.1321 H   0  0  0  0  0  0  0  0  0  0  0  0
  1  2  2  0
  2  3  1  0
  4  3  2  0
  5  4  1  0
  6  5  2  0
  7  6  1  0
  8  7  2  0
  8  9  1  0
  9 10  2  0
 10  5  1  0
 10  1  1  0
 11 16  2  0
 12 11  1  0
 13 12  2  0
 13 14  1  0
 14 15  2  0
 15 16  1  0
 15  1  1  0
 17 13  1  0
 17 18  1  0
 19 18  1  0
 20 19  1  0
 21 20  1  0
 21 22  1  0
 22 17  1  0
  2 23  1  0
  3 24  1  0
  4 25  1  0
  6 26  1  0
  7 27  1  0
  8 28  1  0
  9 29  1  0
 11 30  1  0
 12 31  1  0
 18 32  1  0
 18 33  1  0
 19 34  1  0
 19 35  1  0
 21 36  1  0
 21 37  1  0
 22 38  1  0
 22 39  1  0
M  ISO  8  23  14  24  14  25  14  26  14  27  14  28  14  29  14  30  14
M  ISO  8  31  14  32  13  33  13  34  13  35  13  36  13  37  13  38  13
M  ISO  1  39  13
M  END
>  <minimizedAffinity>  (1) 
-5.00768948

>  <minimizedRMSD>  (1) 
5.10201883

$$$$
