
     RDKit          3D

 45 49  0  0  0  0  0  0  0  0999 V2000
   37.0370   19.2590   29.2070 C   0  0  0  0  0  0  0  0  0  0  0  0
   36.3320   19.1830   30.4160 C   0  0  0  0  0  0  0  0  0  0  0  0
   36.9480   20.1100   31.2670 C   0  0  0  0  0  0  0  0  0  0  0  0
   37.9540   20.6830   30.5750 N   0  0  0  0  0  0  0  0  0  0  0  0
   38.0110   20.1830   29.3580 N   0  0  0  0  0  0  0  0  0  0  0  0
   35.9520   18.0890   25.8460 C   0  0  0  0  0  0  0  0  0  0  0  0
   35.8260   16.7390   26.0720 C   0  0  0  0  0  0  0  0  0  0  0  0
   36.1040   16.2450   27.3250 C   0  0  0  0  0  0  0  0  0  0  0  0
   36.4950   17.0790   28.3190 N   0  0  0  0  0  0  0  0  0  0  0  0
   36.6160   18.3960   28.0930 C   0  0  0  0  0  0  0  0  0  0  0  0
   36.3430   18.9030   26.8460 N   0  0  0  0  0  0  0  0  0  0  0  0
   35.4400   20.5080   23.1240 C   0  0  0  0  0  0  0  0  0  0  0  0
   35.1240   19.6720   22.0510 C   0  0  0  0  0  0  0  0  0  0  0  0
   35.0900   18.2910   22.2830 C   0  0  0  0  0  0  0  0  0  0  0  0
   35.3670   17.8130   23.5350 N   0  0  0  0  0  0  0  0  0  0  0  0
   35.6730   18.6730   24.5520 C   0  0  0  0  0  0  0  0  0  0  0  0
   35.7060   19.9900   24.3380 N   0  0  0  0  0  0  0  0  0  0  0  0
   38.7390   21.6740   31.2230 C   0  0  0  0  0  0  0  0  0  0  0  0
   38.0260   22.9790   31.2720 C   0  0  0  0  0  0  0  0  0  0  0  0
   38.7740   24.1460   30.9540 N   0  0  0  0  0  0  0  0  0  0  0  0
   39.2490   25.2470   31.5600 C   0  0  0  0  0  0  0  0  0  0  0  0
   39.9050   26.0770   30.7560 N   0  0  0  0  0  0  0  0  0  0  0  0
   39.9020   25.5500   29.5280 C   0  0  0  0  0  0  0  0  0  0  0  0
   40.4190   25.9690   28.3390 C   0  0  0  0  0  0  0  0  0  0  0  0
   41.0450   27.0590   28.2830 O   0  0  0  0  0  0  0  0  0  0  0  0
   40.2650   25.2280   27.2340 N   0  0  0  0  0  0  0  0  0  0  0  0
   39.5900   24.0760   27.3530 C   0  0  0  0  0  0  0  0  0  0  0  0
   39.4250   23.2880   26.1840 N   0  0  0  0  0  0  0  0  0  0  0  0
   39.0760   23.6520   28.5150 N   0  0  0  0  0  0  0  0  0  0  0  0
   39.2050   24.3700   29.6700 C   0  0  0  0  0  0  0  0  0  0  0  0
   35.4756   18.5327   30.6478 H   0  0  0  0  0  0  0  0  0  0  0  0
   36.6639   20.3297   32.3067 H   0  0  0  0  0  0  0  0  0  0  0  0
   35.5078   16.0645   25.2634 H   0  0  0  0  0  0  0  0  0  0  0  0
   36.0084   15.1669   27.5215 H   0  0  0  0  0  0  0  0  0  0  0  0
   35.4718   21.5976   22.9763 H   0  0  0  0  0  0  0  0  0  0  0  0
   34.9085   20.0851   21.0546 H   0  0  0  0  0  0  0  0  0  0  0  0
   34.8429   17.5970   21.4661 H   0  0  0  0  0  0  0  0  0  0  0  0
   38.9558   21.3449   32.2500 H   0  0  0  0  0  0  0  0  0  0  0  0
   39.6705   21.8075   30.6534 H   0  0  0  0  0  0  0  0  0  0  0  0
   37.1858   22.9227   30.5643 H   0  0  0  0  0  0  0  0  0  0  0  0
   37.7430   23.1053   32.3274 H   0  0  0  0  0  0  0  0  0  0  0  0
   39.1067   25.4449   32.6326 H   0  0  0  0  0  0  0  0  0  0  0  0
   40.6502   25.5314   26.3282 H   0  0  0  0  0  0  0  0  0  0  0  0
   38.9126   22.3958   26.2324 H   0  0  0  0  0  0  0  0  0  0  0  0
   39.8177   23.6084   25.2873 H   0  0  0  0  0  0  0  0  0  0  0  0
  1  5  2  0
  1  2  1  0
  2  3  2  0
  4 18  1  0
  4  3  1  0
  5  4  1  0
  6  7  2  0
  6 11  1  0
  7  8  1  0
  8  9  2  0
 10  9  1  0
 10  1  1  0
 11 10  2  0
 12 17  2  0
 13 14  2  0
 13 12  1  0
 14 15  1  0
 15 16  2  0
 16  6  1  0
 17 16  1  0
 18 19  1  0
 20 19  1  0
 20 21  1  0
 22 21  2  0
 23 30  2  0
 23 22  1  0
 24 23  1  0
 25 24  2  0
 26 27  1  0
 26 24  1  0
 27 29  2  0
 28 27  1  0
 29 30  1  0
 30 20  1  0
  2 31  1  0
  3 32  1  0
  7 33  1  0
  8 34  1  0
 12 35  1  0
 13 36  1  0
 14 37  1  0
 18 38  1  0
 18 39  1  0
 19 40  1  0
 19 41  1  0
 21 42  1  0
 26 43  1  0
 28 44  1  0
 28 45  1  0
M  ISO  8  31  14  32  14  33  14  34  14  35  14  36  14  37  14  38   8
M  ISO  5  39   8  40   8  41   8  42  14  43   9
M  END
>  <minimizedAffinity>  (1) 
-4.56251383

>  <minimizedRMSD>  (1) 
8.66555309

$$$$
