
     RDKit          3D

 38 41  0  0  0  0  0  0  0  0999 V2000
   38.2360   22.2290   31.2190 C   0  0  0  0  0  0  0  0  0  0  0  0
   38.7670   21.1950   30.4380 C   0  0  0  0  0  0  0  0  0  0  0  0
   39.2900   21.7740   29.2970 C   0  0  0  0  0  0  0  0  0  0  0  0
   39.0690   23.1070   29.4110 N   0  0  0  0  0  0  0  0  0  0  0  0
   38.4460   23.3780   30.5470 N   0  0  0  0  0  0  0  0  0  0  0  0
   37.5180   21.9540   34.8560 C   0  0  0  0  0  0  0  0  0  0  0  0
   36.3620   21.2040   34.8370 C   0  0  0  0  0  0  0  0  0  0  0  0
   35.8490   20.8070   33.6260 C   0  0  0  0  0  0  0  0  0  0  0  0
   36.4680   21.1480   32.4700 N   0  0  0  0  0  0  0  0  0  0  0  0
   37.6100   21.8910   32.5010 C   0  0  0  0  0  0  0  0  0  0  0  0
   38.1310   22.2930   33.7030 N   0  0  0  0  0  0  0  0  0  0  0  0
   39.9230   22.7200   37.5370 C   0  0  0  0  0  0  0  0  0  0  0  0
   39.1140   23.3170   38.4920 C   0  0  0  0  0  0  0  0  0  0  0  0
   37.7610   23.4450   38.1970 C   0  0  0  0  0  0  0  0  0  0  0  0
   37.2810   22.9870   36.9990 N   0  0  0  0  0  0  0  0  0  0  0  0
   38.1180   22.4090   36.0980 C   0  0  0  0  0  0  0  0  0  0  0  0
   39.4140   22.2840   36.3730 N   0  0  0  0  0  0  0  0  0  0  0  0
   39.4760   24.0550   28.3990 C   0  0  0  0  0  0  0  0  0  0  0  0
   39.5710   23.2970   27.0890 C   0  0  0  0  0  0  0  0  0  0  0  0
   40.0120   24.2140   26.0060 C   0  0  0  0  0  0  0  0  0  0  0  0
   40.1600   23.9950   24.6350 C   0  0  0  0  0  0  0  0  0  0  0  0
   40.5970   25.1760   24.0720 C   0  0  0  0  0  0  0  0  0  0  0  0
   40.7100   26.0760   25.0650 N   0  0  0  0  0  0  0  0  0  0  0  0
   40.3580   25.4970   26.2220 N   0  0  0  0  0  0  0  0  0  0  0  0
   38.7678   20.1233   30.6860 H   0  0  0  0  0  0  0  0  0  0  0  0
   39.7865   21.2566   28.4629 H   0  0  0  0  0  0  0  0  0  0  0  0
   35.8587   20.9280   35.7754 H   0  0  0  0  0  0  0  0  0  0  0  0
   34.9276   20.2070   33.5946 H   0  0  0  0  0  0  0  0  0  0  0  0
   40.9984   22.6016   37.7358 H   0  0  0  0  0  0  0  0  0  0  0  0
   39.5267   23.6756   39.4465 H   0  0  0  0  0  0  0  0  0  0  0  0
   37.0792   23.9122   38.9229 H   0  0  0  0  0  0  0  0  0  0  0  0
   38.7315   24.8605   28.3155 H   0  0  0  0  0  0  0  0  0  0  0  0
   40.4426   24.5121   28.6574 H   0  0  0  0  0  0  0  0  0  0  0  0
   40.2985   22.4785   27.1929 H   0  0  0  0  0  0  0  0  0  0  0  0
   38.5828   22.8855   26.8357 H   0  0  0  0  0  0  0  0  0  0  0  0
   39.9640   23.0532   24.1016 H   0  0  0  0  0  0  0  0  0  0  0  0
   40.8131   25.3496   23.0075 H   0  0  0  0  0  0  0  0  0  0  0  0
   41.0175   27.0528   24.9545 H   0  0  0  0  0  0  0  0  0  0  0  0
  1 10  1  0
  2  1  1  0
  3  4  1  0
  3  2  2  0
  4  5  1  0
  5  1  2  0
  6 16  1  0
  7  6  2  0
  8  7  1  0
  9 10  1  0
  9  8  2  0
 10 11  2  0
 11  6  1  0
 12 13  2  0
 14 13  1  0
 15 14  2  0
 16 17  2  0
 16 15  1  0
 17 12  1  0
 18  4  1  0
 19 18  1  0
 20 24  2  0
 20 19  1  0
 21 20  1  0
 22 21  2  0
 22 23  1  0
 23 24  1  0
  2 25  1  0
  3 26  1  0
  7 27  1  0
  8 28  1  0
 12 29  1  0
 13 30  1  0
 14 31  1  0
 18 32  1  0
 18 33  1  0
 19 34  1  0
 19 35  1  0
 21 36  1  0
 22 37  1  0
 23 38  1  0
M  ISO  8  25  14  26  14  27  14  28  14  29  14  30  14  31  14  32   8
M  ISO  6  33   8  34   8  35   8  36  14  37  14  38   9
M  END
>  <minimizedAffinity>  (1) 
-4.48974419

>  <minimizedRMSD>  (1) 
0.212810993

$$$$
