
     RDKit          3D

 38 41  0  0  0  0  0  0  0  0999 V2000
   37.4820   21.9080   34.8840 C   0  0  0  0  0  0  0  0  0  0  0  0
   36.3290   21.1800   34.8770 C   0  0  0  0  0  0  0  0  0  0  0  0
   35.8110   20.7740   33.6720 C   0  0  0  0  0  0  0  0  0  0  0  0
   36.4350   21.0930   32.5130 N   0  0  0  0  0  0  0  0  0  0  0  0
   37.5870   21.8210   32.5320 C   0  0  0  0  0  0  0  0  0  0  0  0
   38.1090   22.2280   33.7250 N   0  0  0  0  0  0  0  0  0  0  0  0
   39.9090   22.7440   37.5420 C   0  0  0  0  0  0  0  0  0  0  0  0
   39.1100   23.3330   38.4970 C   0  0  0  0  0  0  0  0  0  0  0  0
   37.7620   23.4330   38.2110 C   0  0  0  0  0  0  0  0  0  0  0  0
   37.2490   22.9620   37.0300 N   0  0  0  0  0  0  0  0  0  0  0  0
   38.1090   22.3840   36.1210 C   0  0  0  0  0  0  0  0  0  0  0  0
   39.3930   22.2880   36.3870 N   0  0  0  0  0  0  0  0  0  0  0  0
   38.2180   22.1310   31.2490 C   0  0  0  0  0  0  0  0  0  0  0  0
   38.7350   21.0810   30.4800 C   0  0  0  0  0  0  0  0  0  0  0  0
   39.2710   21.6340   29.3250 C   0  0  0  0  0  0  0  0  0  0  0  0
   39.0700   22.9650   29.4250 N   0  0  0  0  0  0  0  0  0  0  0  0
   38.4490   23.2640   30.5580 N   0  0  0  0  0  0  0  0  0  0  0  0
   39.4910   23.8990   28.4030 C   0  0  0  0  0  0  0  0  0  0  0  0
   40.1240   23.0830   27.2910 C   0  0  0  0  0  0  0  0  0  0  0  0
   39.3500   23.3340   26.0130 C   0  0  0  0  0  0  0  0  0  0  0  0
   39.1610   22.2850   25.0040 C   0  0  0  0  0  0  0  0  0  0  0  0
   40.1580   23.3940   24.7240 C   0  0  0  0  0  0  0  0  0  0  0  0
   35.8232   20.9228   35.8193 H   0  0  0  0  0  0  0  0  0  0  0  0
   34.8822   20.1852   33.6477 H   0  0  0  0  0  0  0  0  0  0  0  0
   40.9887   22.6449   37.7275 H   0  0  0  0  0  0  0  0  0  0  0  0
   39.5262   23.7067   39.4442 H   0  0  0  0  0  0  0  0  0  0  0  0
   37.0878   23.8992   38.9445 H   0  0  0  0  0  0  0  0  0  0  0  0
   38.7193   20.0131   30.7431 H   0  0  0  0  0  0  0  0  0  0  0  0
   39.7593   21.0976   28.4980 H   0  0  0  0  0  0  0  0  0  0  0  0
   38.6230   24.4539   28.0175 H   0  0  0  0  0  0  0  0  0  0  0  0
   40.2053   24.6303   28.8092 H   0  0  0  0  0  0  0  0  0  0  0  0
   41.1721   23.3885   27.1565 H   0  0  0  0  0  0  0  0  0  0  0  0
   40.0969   22.0131   27.5451 H   0  0  0  0  0  0  0  0  0  0  0  0
   38.6431   23.9853   26.5478 H   0  0  0  0  0  0  0  0  0  0  0  0
   39.5204   21.2646   25.2028 H   0  0  0  0  0  0  0  0  0  0  0  0
   38.2898   21.8794   24.4687 H   0  0  0  0  0  0  0  0  0  0  0  0
   41.2382   23.1865   24.7346 H   0  0  0  0  0  0  0  0  0  0  0  0
   40.3163   24.1316   23.9235 H   0  0  0  0  0  0  0  0  0  0  0  0
  1 11  1  0
  2  1  2  0
  3  2  1  0
  4  5  1  0
  4  3  2  0
  5  6  2  0
  6  1  1  0
  7  8  2  0
  9  8  1  0
 10  9  2  0
 11 12  2  0
 11 10  1  0
 12  7  1  0
 13  5  1  0
 14 13  1  0
 15 16  1  0
 15 14  2  0
 16 17  1  0
 17 13  2  0
 18 16  1  0
 19 18  1  0
 20 19  1  0
 21 20  1  0
 22 21  1  0
 22 20  1  0
  2 23  1  0
  3 24  1  0
  7 25  1  0
  8 26  1  0
  9 27  1  0
 14 28  1  0
 15 29  1  0
 18 30  1  0
 18 31  1  0
 19 32  1  0
 19 33  1  0
 20 34  1  0
 21 35  1  0
 21 36  1  0
 22 37  1  0
 22 38  1  0
M  ISO  8  23  14  24  14  25  14  26  14  27  14  28  14  29  14  30   8
M  ISO  8  31   8  32   8  33   8  34  13  35  13  36  13  37  13  38  13
M  END
>  <minimizedAffinity>  (1) 
-4.46451139

>  <minimizedRMSD>  (1) 
0.983412147

$$$$
