
     RDKit          3D

 38 41  0  0  0  0  0  0  0  0999 V2000
   38.2350   22.2810   31.2250 C   0  0  0  0  0  0  0  0  0  0  0  0
   38.7600   21.2510   30.4310 C   0  0  0  0  0  0  0  0  0  0  0  0
   39.2850   21.8360   29.2960 C   0  0  0  0  0  0  0  0  0  0  0  0
   39.0750   23.1640   29.4220 N   0  0  0  0  0  0  0  0  0  0  0  0
   38.4510   23.4360   30.5670 N   0  0  0  0  0  0  0  0  0  0  0  0
   37.5220   21.9700   34.8620 C   0  0  0  0  0  0  0  0  0  0  0  0
   36.3770   21.2050   34.8340 C   0  0  0  0  0  0  0  0  0  0  0  0
   35.8620   20.8090   33.6160 C   0  0  0  0  0  0  0  0  0  0  0  0
   36.4780   21.1710   32.4640 N   0  0  0  0  0  0  0  0  0  0  0  0
   37.6100   21.9270   32.5020 C   0  0  0  0  0  0  0  0  0  0  0  0
   38.1260   22.3230   33.7070 N   0  0  0  0  0  0  0  0  0  0  0  0
   39.9310   22.7100   37.5410 C   0  0  0  0  0  0  0  0  0  0  0  0
   39.1330   23.3000   38.4960 C   0  0  0  0  0  0  0  0  0  0  0  0
   37.7700   23.4390   38.2080 C   0  0  0  0  0  0  0  0  0  0  0  0
   37.2670   22.9960   37.0140 N   0  0  0  0  0  0  0  0  0  0  0  0
   38.1140   22.4160   36.1030 C   0  0  0  0  0  0  0  0  0  0  0  0
   39.4160   22.2830   36.3730 N   0  0  0  0  0  0  0  0  0  0  0  0
   39.4790   24.1160   28.4200 C   0  0  0  0  0  0  0  0  0  0  0  0
   39.5840   23.3830   27.1080 C   0  0  0  0  0  0  0  0  0  0  0  0
   40.0280   24.2590   26.0350 N   0  0  0  0  0  0  0  0  0  0  0  0
   40.4680   25.5090   26.1930 C   0  0  0  0  0  0  0  0  0  0  0  0
   40.7640   25.9060   24.8900 C   0  0  0  0  0  0  0  0  0  0  0  0
   40.5010   24.9160   24.0420 N   0  0  0  0  0  0  0  0  0  0  0  0
   40.0430   23.8870   24.7390 C   0  0  0  0  0  0  0  0  0  0  0  0
   38.7545   20.1769   30.6684 H   0  0  0  0  0  0  0  0  0  0  0  0
   39.7764   21.3226   28.4564 H   0  0  0  0  0  0  0  0  0  0  0  0
   35.8792   20.9132   35.7705 H   0  0  0  0  0  0  0  0  0  0  0  0
   34.9484   20.1974   33.5801 H   0  0  0  0  0  0  0  0  0  0  0  0
   41.0064   22.5857   37.7359 H   0  0  0  0  0  0  0  0  0  0  0  0
   39.5518   23.6496   39.4512 H   0  0  0  0  0  0  0  0  0  0  0  0
   37.0999   23.9064   38.9445 H   0  0  0  0  0  0  0  0  0  0  0  0
   38.7305   24.9183   28.3421 H   0  0  0  0  0  0  0  0  0  0  0  0
   40.4451   24.5694   28.6865 H   0  0  0  0  0  0  0  0  0  0  0  0
   40.3049   22.5593   27.2168 H   0  0  0  0  0  0  0  0  0  0  0  0
   38.5854   23.0019   26.8478 H   0  0  0  0  0  0  0  0  0  0  0  0
   40.5718   26.0853   27.1242 H   0  0  0  0  0  0  0  0  0  0  0  0
   41.1573   26.8930   24.6051 H   0  0  0  0  0  0  0  0  0  0  0  0
   39.7329   22.9116   24.3360 H   0  0  0  0  0  0  0  0  0  0  0  0
  1 10  1  0
  2  1  1  0
  3  4  1  0
  3  2  2  0
  4  5  1  0
  5  1  2  0
  6 16  1  0
  7  6  2  0
  8  7  1  0
  9 10  1  0
  9  8  2  0
 10 11  2  0
 11  6  1  0
 12 13  2  0
 14 13  1  0
 15 14  2  0
 16 17  2  0
 16 15  1  0
 17 12  1  0
 18  4  1  0
 19 18  1  0
 20 21  1  0
 20 19  1  0
 22 21  2  0
 23 24  2  0
 23 22  1  0
 24 20  1  0
  2 25  1  0
  3 26  1  0
  7 27  1  0
  8 28  1  0
 12 29  1  0
 13 30  1  0
 14 31  1  0
 18 32  1  0
 18 33  1  0
 19 34  1  0
 19 35  1  0
 21 36  1  0
 22 37  1  0
 24 38  1  0
M  ISO  8  25  14  26  14  27  14  28  14  29  14  30  14  31  14  32   8
M  ISO  6  33   8  34   8  35   8  36  14  37  14  38  14
M  END
>  <minimizedAffinity>  (1) 
-4.39598942

>  <minimizedRMSD>  (1) 
0.238629103

$$$$
