
     RDKit          3D

 32 34  0  0  0  0  0  0  0  0999 V2000
   37.5320   21.9790   34.8460 C   0  0  0  0  0  0  0  0  0  0  0  0
   36.3920   21.2040   34.8180 C   0  0  0  0  0  0  0  0  0  0  0  0
   35.8790   20.8180   33.5980 C   0  0  0  0  0  0  0  0  0  0  0  0
   36.4910   21.1980   32.4500 N   0  0  0  0  0  0  0  0  0  0  0  0
   37.6190   21.9650   32.4900 C   0  0  0  0  0  0  0  0  0  0  0  0
   38.1300   22.3500   33.6960 N   0  0  0  0  0  0  0  0  0  0  0  0
   39.9360   22.7040   37.5430 C   0  0  0  0  0  0  0  0  0  0  0  0
   39.1250   23.2980   38.5000 C   0  0  0  0  0  0  0  0  0  0  0  0
   37.7640   23.4410   38.2020 C   0  0  0  0  0  0  0  0  0  0  0  0
   37.2840   22.9980   37.0000 N   0  0  0  0  0  0  0  0  0  0  0  0
   38.1280   22.4200   36.0940 C   0  0  0  0  0  0  0  0  0  0  0  0
   39.4270   22.2810   36.3700 N   0  0  0  0  0  0  0  0  0  0  0  0
   38.2460   22.3330   31.2220 C   0  0  0  0  0  0  0  0  0  0  0  0
   38.7680   21.3100   30.4160 C   0  0  0  0  0  0  0  0  0  0  0  0
   39.3020   21.9100   29.2770 C   0  0  0  0  0  0  0  0  0  0  0  0
   39.0950   23.2330   29.4200 N   0  0  0  0  0  0  0  0  0  0  0  0
   38.4720   23.4870   30.5660 N   0  0  0  0  0  0  0  0  0  0  0  0
   39.4940   24.1880   28.4320 C   0  0  0  0  0  0  0  0  0  0  0  0
   39.5870   23.4930   27.1070 C   0  0  0  0  0  0  0  0  0  0  0  0
   40.7700   23.6100   26.4370 O   0  0  0  0  0  0  0  0  0  0  0  0
   35.9001   20.8988   35.7534 H   0  0  0  0  0  0  0  0  0  0  0  0
   34.9702   20.1997   33.5562 H   0  0  0  0  0  0  0  0  0  0  0  0
   41.0097   22.5769   37.7454 H   0  0  0  0  0  0  0  0  0  0  0  0
   39.5369   23.6445   39.4593 H   0  0  0  0  0  0  0  0  0  0  0  0
   37.0845   23.9071   38.9307 H   0  0  0  0  0  0  0  0  0  0  0  0
   38.7577   20.2334   30.6414 H   0  0  0  0  0  0  0  0  0  0  0  0
   39.7932   21.4051   28.4321 H   0  0  0  0  0  0  0  0  0  0  0  0
   38.7498   24.9960   28.3755 H   0  0  0  0  0  0  0  0  0  0  0  0
   40.4693   24.6208   28.6992 H   0  0  0  0  0  0  0  0  0  0  0  0
   39.4053   22.4218   27.2786 H   0  0  0  0  0  0  0  0  0  0  0  0
   38.8414   23.9877   26.4672 H   0  0  0  0  0  0  0  0  0  0  0  0
   41.5121   23.6834   27.0881 H   0  0  0  0  0  0  0  0  0  0  0  0
  1 11  1  0
  2  1  2  0
  3  2  1  0
  4  5  1  0
  4  3  2  0
  5  6  2  0
  6  1  1  0
  7  8  2  0
  9  8  1  0
 10  9  2  0
 11 12  2  0
 11 10  1  0
 12  7  1  0
 13  5  1  0
 14 13  1  0
 15 16  1  0
 15 14  2  0
 16 17  1  0
 17 13  2  0
 18 16  1  0
 19 18  1  0
 20 19  1  0
  2 21  1  0
  3 22  1  0
  7 23  1  0
  8 24  1  0
  9 25  1  0
 14 26  1  0
 15 27  1  0
 18 28  1  0
 18 29  1  0
 19 30  1  0
 19 31  1  0
 20 32  1  0
M  ISO  8  21  14  22  14  23  14  24  14  25  14  26  14  27  14  28   8
M  ISO  4  29   8  30   8  31   8  32   3
M  END
>  <minimizedAffinity>  (1) 
-4.02713299

>  <minimizedRMSD>  (1) 
0.27945438

$$$$
