
     RDKit          3D

 38 40  0  0  0  0  0  0  0  0999 V2000
   37.2950   22.8610   32.8160 C   0  0  0  0  0  0  0  0  0  0  0  0
   38.3650   23.1420   33.6400 C   0  0  0  0  0  0  0  0  0  0  0  0
   38.8360   24.4030   33.9100 C   0  0  0  0  0  0  0  0  0  0  0  0
   38.2230   25.4860   33.3370 C   0  0  0  0  0  0  0  0  0  0  0  0
   37.1610   25.2780   32.5130 C   0  0  0  0  0  0  0  0  0  0  0  0
   36.5530   26.3750   31.9420 C   0  0  0  0  0  0  0  0  0  0  0  0
   35.4760   26.2390   31.1000 C   0  0  0  0  0  0  0  0  0  0  0  0
   35.0260   24.9520   30.8500 C   0  0  0  0  0  0  0  0  0  0  0  0
   35.6610   23.8890   31.4390 C   0  0  0  0  0  0  0  0  0  0  0  0
   36.7330   23.9930   32.2800 C   0  0  0  0  0  0  0  0  0  0  0  0
   35.3980   19.8770   33.4460 C   0  0  0  0  0  0  0  0  0  0  0  0
   35.7400   18.9460   32.4690 C   0  0  0  0  0  0  0  0  0  0  0  0
   36.6700   19.3680   31.5450 C   0  0  0  0  0  0  0  0  0  0  0  0
   37.1580   20.6130   31.6650 N   0  0  0  0  0  0  0  0  0  0  0  0
   36.8510   21.5030   32.5750 C   0  0  0  0  0  0  0  0  0  0  0  0
   35.9590   21.0860   33.4530 N   0  0  0  0  0  0  0  0  0  0  0  0
   37.1970   18.5640   30.4080 C   0  0  0  0  0  0  0  0  0  0  0  0
   36.6420   19.0730   29.0860 C   0  0  0  0  0  0  0  0  0  0  0  0
   36.7520   17.1220   30.5230 C   0  0  0  0  0  0  0  0  0  0  0  0
   38.6930   18.5770   30.3620 C   0  0  0  0  0  0  0  0  0  0  0  0
   38.8786   22.2935   34.1157 H   0  0  0  0  0  0  0  0  0  0  0  0
   39.6972   24.5425   34.5799 H   0  0  0  0  0  0  0  0  0  0  0  0
   38.5832   26.5054   33.5397 H   0  0  0  0  0  0  0  0  0  0  0  0
   36.9382   27.3809   32.1651 H   0  0  0  0  0  0  0  0  0  0  0  0
   34.9912   27.1145   30.6435 H   0  0  0  0  0  0  0  0  0  0  0  0
   34.1663   24.7848   30.1844 H   0  0  0  0  0  0  0  0  0  0  0  0
   35.2804   22.8807   31.2188 H   0  0  0  0  0  0  0  0  0  0  0  0
   34.6597   19.6130   34.2175 H   0  0  0  0  0  0  0  0  0  0  0  0
   35.2967   17.9398   32.4372 H   0  0  0  0  0  0  0  0  0  0  0  0
   35.8441   19.8048   29.2807 H   0  0  0  0  0  0  0  0  0  0  0  0
   37.4474   19.5530   28.5107 H   0  0  0  0  0  0  0  0  0  0  0  0
   36.2332   18.2292   28.5107 H   0  0  0  0  0  0  0  0  0  0  0  0
   36.6674   16.8480   31.5850 H   0  0  0  0  0  0  0  0  0  0  0  0
   35.7744   16.9998   30.0338 H   0  0  0  0  0  0  0  0  0  0  0  0
   37.4908   16.4702   30.0338 H   0  0  0  0  0  0  0  0  0  0  0  0
   39.0913   18.5805   31.3873 H   0  0  0  0  0  0  0  0  0  0  0  0
   39.0514   17.6819   29.8324 H   0  0  0  0  0  0  0  0  0  0  0  0
   39.0357   19.4782   29.8324 H   0  0  0  0  0  0  0  0  0  0  0  0
  1  2  2  0
  2  3  1  0
  4  3  2  0
  5  4  1  0
  6  5  2  0
  7  6  1  0
  8  7  2  0
  8  9  1  0
  9 10  2  0
 10  5  1  0
 10  1  1  0
 11 16  2  0
 12 11  1  0
 13 14  1  0
 13 12  2  0
 14 15  2  0
 15  1  1  0
 15 16  1  0
 17 19  1  0
 17 13  1  0
 18 17  1  0
 20 17  1  0
  2 21  1  0
  3 22  1  0
  4 23  1  0
  6 24  1  0
  7 25  1  0
  8 26  1  0
  9 27  1  0
 11 28  1  0
 12 29  1  0
 18 30  1  0
 18 31  1  0
 18 32  1  0
 19 33  1  0
 19 34  1  0
 19 35  1  0
 20 36  1  0
 20 37  1  0
 20 38  1  0
M  ISO  8  21  14  22  14  23  14  24  14  25  14  26  14  27  14  28  14
M  ISO  8  29  14  30   8  31   8  32   8  33   8  34   8  35   8  36   8
M  ISO  2  37   8  38   8
M  END
>  <minimizedAffinity>  (1) 
-4.75093842

>  <minimizedRMSD>  (1) 
6.47392225

$$$$
