
     RDKit          3D

 42 46  0  0  0  0  0  0  0  0999 V2000
   38.2360   22.1800   31.2210 C   0  0  0  0  0  0  0  0  0  0  0  0
   38.7770   21.1430   30.4420 C   0  0  0  0  0  0  0  0  0  0  0  0
   39.3030   21.7200   29.2920 C   0  0  0  0  0  0  0  0  0  0  0  0
   39.0800   23.0440   29.3900 N   0  0  0  0  0  0  0  0  0  0  0  0
   38.4510   23.3210   30.5270 N   0  0  0  0  0  0  0  0  0  0  0  0
   37.5160   21.9380   34.8470 C   0  0  0  0  0  0  0  0  0  0  0  0
   36.3600   21.2050   34.8390 C   0  0  0  0  0  0  0  0  0  0  0  0
   35.8370   20.8020   33.6280 C   0  0  0  0  0  0  0  0  0  0  0  0
   36.4590   21.1280   32.4710 N   0  0  0  0  0  0  0  0  0  0  0  0
   37.6150   21.8620   32.4930 C   0  0  0  0  0  0  0  0  0  0  0  0
   38.1300   22.2590   33.6890 N   0  0  0  0  0  0  0  0  0  0  0  0
   39.9330   22.7050   37.5160 C   0  0  0  0  0  0  0  0  0  0  0  0
   39.1370   23.3110   38.4760 C   0  0  0  0  0  0  0  0  0  0  0  0
   37.7670   23.4460   38.1860 C   0  0  0  0  0  0  0  0  0  0  0  0
   37.2910   22.9840   36.9940 N   0  0  0  0  0  0  0  0  0  0  0  0
   38.1240   22.3980   36.0900 C   0  0  0  0  0  0  0  0  0  0  0  0
   39.4190   22.2660   36.3560 N   0  0  0  0  0  0  0  0  0  0  0  0
   39.4800   23.9970   28.3850 C   0  0  0  0  0  0  0  0  0  0  0  0
   39.6250   23.2310   27.0850 C   0  0  0  0  0  0  0  0  0  0  0  0
   40.0000   24.2590   26.0610 C   0  0  0  0  0  0  0  0  0  0  0  0
   40.1060   24.0940   24.7300 N   0  0  0  0  0  0  0  0  0  0  0  0
   40.4580   25.2230   24.1570 O   0  0  0  0  0  0  0  0  0  0  0  0
   40.5930   26.1490   25.0760 C   0  0  0  0  0  0  0  0  0  0  0  0
   40.3080   25.5560   26.2660 N   0  0  0  0  0  0  0  0  0  0  0  0
   40.9590   27.5300   24.9580 N   0  0  0  0  0  0  0  0  0  0  0  0
   41.7300   28.2630   24.1470 C   0  0  0  0  0  0  0  0  0  0  0  0
   41.6560   29.5470   24.5740 N   0  0  0  0  0  0  0  0  0  0  0  0
   40.8420   29.6030   25.6480 C   0  0  0  0  0  0  0  0  0  0  0  0
   40.4270   28.3610   25.8660 N   0  0  0  0  0  0  0  0  0  0  0  0
   38.7831   20.0726   30.6954 H   0  0  0  0  0  0  0  0  0  0  0  0
   39.8036   21.1970   28.4638 H   0  0  0  0  0  0  0  0  0  0  0  0
   35.8572   20.9421   35.7814 H   0  0  0  0  0  0  0  0  0  0  0  0
   34.9089   20.2122   33.6024 H   0  0  0  0  0  0  0  0  0  0  0  0
   41.0088   22.5812   37.7090 H   0  0  0  0  0  0  0  0  0  0  0  0
   39.5594   23.6715   39.4255 H   0  0  0  0  0  0  0  0  0  0  0  0
   37.0881   23.9182   38.9114 H   0  0  0  0  0  0  0  0  0  0  0  0
   38.7142   24.7795   28.2796 H   0  0  0  0  0  0  0  0  0  0  0  0
   40.4254   24.4869   28.6610 H   0  0  0  0  0  0  0  0  0  0  0  0
   40.4133   22.4688   27.1726 H   0  0  0  0  0  0  0  0  0  0  0  0
   38.6994   22.7015   26.8152 H   0  0  0  0  0  0  0  0  0  0  0  0
   42.3152   27.8924   23.2925 H   0  0  0  0  0  0  0  0  0  0  0  0
   40.5752   30.4990   26.2276 H   0  0  0  0  0  0  0  0  0  0  0  0
  1 10  1  0
  2  1  1  0
  3  4  1  0
  3  2  2  0
  4  5  1  0
  5  1  2  0
  6 16  1  0
  7  6  2  0
  8  7  1  0
  9 10  1  0
  9  8  2  0
 10 11  2  0
 11  6  1  0
 12 13  2  0
 14 13  1  0
 15 14  2  0
 16 17  2  0
 16 15  1  0
 17 12  1  0
 18  4  1  0
 19 18  1  0
 20 24  1  0
 20 19  1  0
 21 20  2  0
 22 21  1  0
 22 23  1  0
 23 24  2  0
 25 23  1  0
 25 29  1  0
 26 27  2  0
 26 25  1  0
 27 28  1  0
 28 29  2  0
  2 30  1  0
  3 31  1  0
  7 32  1  0
  8 33  1  0
 12 34  1  0
 13 35  1  0
 14 36  1  0
 18 37  1  0
 18 38  1  0
 19 39  1  0
 19 40  1  0
 26 41  1  0
 28 42  1  0
M  ISO  8  30  14  31  14  32  14  33  14  34  14  35  14  36  14  37   8
M  ISO  5  38   8  39   8  40   8  41  14  42  14
M  END
>  <minimizedAffinity>  (1) 
-4.74944592

>  <minimizedRMSD>  (1) 
0.176770806

$$$$
