
     RDKit          3D

 43 47  0  0  0  0  0  0  0  0999 V2000
   38.1980   22.1070   31.2890 C   0  0  0  0  0  0  0  0  0  0  0  0
   38.6800   21.0450   30.4990 C   0  0  0  0  0  0  0  0  0  0  0  0
   39.2100   21.6200   29.3550 C   0  0  0  0  0  0  0  0  0  0  0  0
   39.0470   22.9640   29.4720 N   0  0  0  0  0  0  0  0  0  0  0  0
   38.4510   23.2360   30.6130 N   0  0  0  0  0  0  0  0  0  0  0  0
   37.4800   21.9200   34.9260 C   0  0  0  0  0  0  0  0  0  0  0  0
   36.3190   21.1690   34.9280 C   0  0  0  0  0  0  0  0  0  0  0  0
   35.7940   20.7370   33.7220 C   0  0  0  0  0  0  0  0  0  0  0  0
   36.4230   21.0560   32.5650 N   0  0  0  0  0  0  0  0  0  0  0  0
   37.5710   21.8000   32.5820 C   0  0  0  0  0  0  0  0  0  0  0  0
   38.0870   22.2240   33.7620 N   0  0  0  0  0  0  0  0  0  0  0  0
   39.8980   22.7530   37.5760 C   0  0  0  0  0  0  0  0  0  0  0  0
   39.0990   23.3320   38.5280 C   0  0  0  0  0  0  0  0  0  0  0  0
   37.7400   23.4340   38.2580 C   0  0  0  0  0  0  0  0  0  0  0  0
   37.2380   22.9610   37.0680 N   0  0  0  0  0  0  0  0  0  0  0  0
   38.0730   22.3970   36.1590 C   0  0  0  0  0  0  0  0  0  0  0  0
   39.3750   22.3000   36.4190 N   0  0  0  0  0  0  0  0  0  0  0  0
   39.4840   23.8890   28.4610 C   0  0  0  0  0  0  0  0  0  0  0  0
   39.7530   23.0990   27.2020 C   0  0  0  0  0  0  0  0  0  0  0  0
   40.0140   24.1170   26.1360 C   0  0  0  0  0  0  0  0  0  0  0  0
   40.1490   23.8870   24.8080 N   0  0  0  0  0  0  0  0  0  0  0  0
   40.3750   25.0410   24.1910 O   0  0  0  0  0  0  0  0  0  0  0  0
   40.3910   26.0000   25.0680 C   0  0  0  0  0  0  0  0  0  0  0  0
   40.1680   25.4410   26.2810 N   0  0  0  0  0  0  0  0  0  0  0  0
   40.6060   27.3700   24.7720 C   0  0  0  0  0  0  0  0  0  0  0  0
   40.5140   28.0700   23.6300 C   0  0  0  0  0  0  0  0  0  0  0  0
   40.7780   29.4090   23.6020 C   0  0  0  0  0  0  0  0  0  0  0  0
   41.1570   30.0100   24.8620 C   0  0  0  0  0  0  0  0  0  0  0  0
   41.1110   28.5620   26.0600 S   0  0  0  0  0  0  0  0  0  0  0  0
   38.6430   19.9728   30.7418 H   0  0  0  0  0  0  0  0  0  0  0  0
   39.6749   21.0888   28.5114 H   0  0  0  0  0  0  0  0  0  0  0  0
   35.8192   20.9181   35.8752 H   0  0  0  0  0  0  0  0  0  0  0  0
   34.8715   20.1382   33.7031 H   0  0  0  0  0  0  0  0  0  0  0  0
   40.9785   22.6570   37.7585 H   0  0  0  0  0  0  0  0  0  0  0  0
   39.5199   23.7034   39.4740 H   0  0  0  0  0  0  0  0  0  0  0  0
   37.0655   23.8930   38.9958 H   0  0  0  0  0  0  0  0  0  0  0  0
   38.6998   24.6373   28.2735 H   0  0  0  0  0  0  0  0  0  0  0  0
   40.3930   24.4156   28.7873 H   0  0  0  0  0  0  0  0  0  0  0  0
   40.6308   22.4499   27.3362 H   0  0  0  0  0  0  0  0  0  0  0  0
   38.9067   22.4459   26.9427 H   0  0  0  0  0  0  0  0  0  0  0  0
   40.2213   27.5564   22.7023 H   0  0  0  0  0  0  0  0  0  0  0  0
   40.7067   29.9969   22.6750 H   0  0  0  0  0  0  0  0  0  0  0  0
   41.4107   31.0601   25.0690 H   0  0  0  0  0  0  0  0  0  0  0  0
  1 10  1  0
  2  1  1  0
  3  4  1  0
  3  2  2  0
  4  5  1  0
  5  1  2  0
  6  7  2  0
  6 16  1  0
  8  7  1  0
  9 10  1  0
  9  8  2  0
 10 11  2  0
 11  6  1  0
 12 13  2  0
 14 13  1  0
 15 14  2  0
 16 17  2  0
 16 15  1  0
 17 12  1  0
 18  4  1  0
 19 18  1  0
 20 24  1  0
 20 19  1  0
 21 20  2  0
 22 21  1  0
 22 23  1  0
 23 24  2  0
 25 23  1  0
 25 29  1  0
 26 25  2  0
 27 26  1  0
 27 28  2  0
 28 29  1  0
  2 30  1  0
  3 31  1  0
  7 32  1  0
  8 33  1  0
 12 34  1  0
 13 35  1  0
 14 36  1  0
 18 37  1  0
 18 38  1  0
 19 39  1  0
 19 40  1  0
 26 41  1  0
 27 42  1  0
 28 43  1  0
M  ISO  8  30  14  31  14  32  14  33  14  34  14  35  14  36  14  37   8
M  ISO  6  38   8  39   8  40   8  41  14  42  14  43  14
M  END
>  <minimizedAffinity>  (1) 
-4.54884958

>  <minimizedRMSD>  (1) 
0.399256587

$$$$
