
     RDKit          3D

 42 46  0  0  0  0  0  0  0  0999 V2000
   38.2010   22.1360   31.2920 C   0  0  0  0  0  0  0  0  0  0  0  0
   38.6740   21.0820   30.4870 C   0  0  0  0  0  0  0  0  0  0  0  0
   39.2030   21.6640   29.3480 C   0  0  0  0  0  0  0  0  0  0  0  0
   39.0490   23.0100   29.4740 N   0  0  0  0  0  0  0  0  0  0  0  0
   38.4590   23.2780   30.6200 N   0  0  0  0  0  0  0  0  0  0  0  0
   37.4910   21.9300   34.9250 C   0  0  0  0  0  0  0  0  0  0  0  0
   36.3370   21.1760   34.9240 C   0  0  0  0  0  0  0  0  0  0  0  0
   35.8190   20.7530   33.7220 C   0  0  0  0  0  0  0  0  0  0  0  0
   36.4390   21.0760   32.5630 N   0  0  0  0  0  0  0  0  0  0  0  0
   37.5800   21.8220   32.5780 C   0  0  0  0  0  0  0  0  0  0  0  0
   38.1040   22.2480   33.7650 N   0  0  0  0  0  0  0  0  0  0  0  0
   39.9070   22.7440   37.5740 C   0  0  0  0  0  0  0  0  0  0  0  0
   39.1050   23.3280   38.5340 C   0  0  0  0  0  0  0  0  0  0  0  0
   37.7390   23.4360   38.2630 C   0  0  0  0  0  0  0  0  0  0  0  0
   37.2440   22.9690   37.0730 N   0  0  0  0  0  0  0  0  0  0  0  0
   38.0800   22.4020   36.1610 C   0  0  0  0  0  0  0  0  0  0  0  0
   39.3930   22.2940   36.4130 N   0  0  0  0  0  0  0  0  0  0  0  0
   39.4880   23.9370   28.4700 C   0  0  0  0  0  0  0  0  0  0  0  0
   39.7440   23.1480   27.1970 C   0  0  0  0  0  0  0  0  0  0  0  0
   40.0210   24.1730   26.1380 C   0  0  0  0  0  0  0  0  0  0  0  0
   40.1660   23.9740   24.8220 N   0  0  0  0  0  0  0  0  0  0  0  0
   40.3990   25.1310   24.2320 O   0  0  0  0  0  0  0  0  0  0  0  0
   40.4150   26.0970   25.1100 C   0  0  0  0  0  0  0  0  0  0  0  0
   40.1770   25.4940   26.2990 N   0  0  0  0  0  0  0  0  0  0  0  0
   40.6420   27.5330   24.8460 C   0  0  0  0  0  0  0  0  0  0  0  0
   40.4590   27.9740   23.4770 C   0  0  0  0  0  0  0  0  0  0  0  0
   40.8370   29.7370   23.6500 S   0  0  0  0  0  0  0  0  0  0  0  0
   41.1750   29.6010   25.5150 C   0  0  0  0  0  0  0  0  0  0  0  0
   40.9910   28.3680   25.8000 N   0  0  0  0  0  0  0  0  0  0  0  0
   38.6315   20.0073   30.7179 H   0  0  0  0  0  0  0  0  0  0  0  0
   39.6624   21.1365   28.4990 H   0  0  0  0  0  0  0  0  0  0  0  0
   35.8382   20.9167   35.8695 H   0  0  0  0  0  0  0  0  0  0  0  0
   34.8987   20.1508   33.7026 H   0  0  0  0  0  0  0  0  0  0  0  0
   40.9864   22.6442   37.7607 H   0  0  0  0  0  0  0  0  0  0  0  0
   39.5275   23.6959   39.4806 H   0  0  0  0  0  0  0  0  0  0  0  0
   37.0637   23.8936   39.0009 H   0  0  0  0  0  0  0  0  0  0  0  0
   38.7098   24.6938   28.2922 H   0  0  0  0  0  0  0  0  0  0  0  0
   40.4031   24.4538   28.7949 H   0  0  0  0  0  0  0  0  0  0  0  0
   40.6112   22.4834   27.3247 H   0  0  0  0  0  0  0  0  0  0  0  0
   38.8872   22.5106   26.9332 H   0  0  0  0  0  0  0  0  0  0  0  0
   40.1714   27.3994   22.5842 H   0  0  0  0  0  0  0  0  0  0  0  0
   41.4663   30.4093   26.2019 H   0  0  0  0  0  0  0  0  0  0  0  0
  1 10  1  0
  2  1  1  0
  3  4  1  0
  3  2  2  0
  4  5  1  0
  5  1  2  0
  6 16  1  0
  7  6  2  0
  8  7  1  0
  9 10  1  0
  9  8  2  0
 10 11  2  0
 11  6  1  0
 12 13  2  0
 14 13  1  0
 15 14  2  0
 16 17  2  0
 16 15  1  0
 17 12  1  0
 18  4  1  0
 19 18  1  0
 20 24  1  0
 20 19  1  0
 21 20  2  0
 22 21  1  0
 22 23  1  0
 23 24  2  0
 25 23  1  0
 25 29  1  0
 26 27  1  0
 26 25  2  0
 27 28  1  0
 28 29  2  0
  2 30  1  0
  3 31  1  0
  7 32  1  0
  8 33  1  0
 12 34  1  0
 13 35  1  0
 14 36  1  0
 18 37  1  0
 18 38  1  0
 19 39  1  0
 19 40  1  0
 26 41  1  0
 28 42  1  0
M  ISO  8  30  14  31  14  32  14  33  14  34  14  35  14  36  14  37   8
M  ISO  5  38   8  39   8  40   8  41  14  42  14
M  END
>  <minimizedAffinity>  (1) 
-4.53664923

>  <minimizedRMSD>  (1) 
0.324264348

$$$$
