
     RDKit          3D

 39 42  0  0  0  0  0  0  0  0999 V2000
   38.2360   22.2050   31.2100 C   0  0  0  0  0  0  0  0  0  0  0  0
   38.7900   21.1570   30.4460 C   0  0  0  0  0  0  0  0  0  0  0  0
   39.3180   21.7310   29.2900 C   0  0  0  0  0  0  0  0  0  0  0  0
   39.0820   23.0480   29.3810 N   0  0  0  0  0  0  0  0  0  0  0  0
   38.4460   23.3240   30.5100 N   0  0  0  0  0  0  0  0  0  0  0  0
   37.5110   21.9440   34.8430 C   0  0  0  0  0  0  0  0  0  0  0  0
   36.3580   21.2050   34.8330 C   0  0  0  0  0  0  0  0  0  0  0  0
   35.8310   20.7980   33.6160 C   0  0  0  0  0  0  0  0  0  0  0  0
   36.4580   21.1350   32.4610 N   0  0  0  0  0  0  0  0  0  0  0  0
   37.6060   21.8730   32.4930 C   0  0  0  0  0  0  0  0  0  0  0  0
   38.1200   22.2690   33.6840 N   0  0  0  0  0  0  0  0  0  0  0  0
   39.9290   22.7070   37.5200 C   0  0  0  0  0  0  0  0  0  0  0  0
   39.1310   23.3120   38.4710 C   0  0  0  0  0  0  0  0  0  0  0  0
   37.7730   23.4480   38.1760 C   0  0  0  0  0  0  0  0  0  0  0  0
   37.3000   22.9880   36.9860 N   0  0  0  0  0  0  0  0  0  0  0  0
   38.1160   22.4020   36.0850 C   0  0  0  0  0  0  0  0  0  0  0  0
   39.4170   22.2660   36.3540 N   0  0  0  0  0  0  0  0  0  0  0  0
   39.4780   24.0010   28.3730 C   0  0  0  0  0  0  0  0  0  0  0  0
   39.6190   23.2250   27.0740 C   0  0  0  0  0  0  0  0  0  0  0  0
   40.0080   24.2770   26.0520 C   0  0  0  0  0  0  0  0  0  0  0  0
   40.0730   24.0800   24.7180 N   0  0  0  0  0  0  0  0  0  0  0  0
   40.4460   25.2120   24.1390 O   0  0  0  0  0  0  0  0  0  0  0  0
   40.6250   26.1370   25.0600 C   0  0  0  0  0  0  0  0  0  0  0  0
   40.3520   25.5570   26.2580 N   0  0  0  0  0  0  0  0  0  0  0  0
   41.0430   27.5270   24.7760 C   0  0  0  0  0  0  0  0  0  0  0  0
   38.8031   20.0896   30.7115 H   0  0  0  0  0  0  0  0  0  0  0  0
   39.8269   21.2076   28.4671 H   0  0  0  0  0  0  0  0  0  0  0  0
   35.8575   20.9383   35.7755 H   0  0  0  0  0  0  0  0  0  0  0  0
   34.9063   20.2030   33.5875 H   0  0  0  0  0  0  0  0  0  0  0  0
   41.0038   22.5826   37.7182 H   0  0  0  0  0  0  0  0  0  0  0  0
   39.5485   23.6723   39.4228 H   0  0  0  0  0  0  0  0  0  0  0  0
   37.0924   23.9223   38.8984 H   0  0  0  0  0  0  0  0  0  0  0  0
   38.7110   24.7823   28.2671 H   0  0  0  0  0  0  0  0  0  0  0  0
   40.4222   24.4961   28.6440 H   0  0  0  0  0  0  0  0  0  0  0  0
   40.4021   22.4575   27.1612 H   0  0  0  0  0  0  0  0  0  0  0  0
   38.6968   22.6918   26.7996 H   0  0  0  0  0  0  0  0  0  0  0  0
   41.2040   28.0623   25.7234 H   0  0  0  0  0  0  0  0  0  0  0  0
   41.9781   27.5176   24.1967 H   0  0  0  0  0  0  0  0  0  0  0  0
   40.2579   28.0349   24.1967 H   0  0  0  0  0  0  0  0  0  0  0  0
  1 10  1  0
  2  1  1  0
  3  4  1  0
  3  2  2  0
  4  5  1  0
  5  1  2  0
  6 16  1  0
  7  6  2  0
  8  7  1  0
  9 10  1  0
  9  8  2  0
 10 11  2  0
 11  6  1  0
 12 13  2  0
 14 13  1  0
 15 14  2  0
 16 17  2  0
 16 15  1  0
 17 12  1  0
 18  4  1  0
 19 18  1  0
 20 24  1  0
 20 19  1  0
 21 20  2  0
 22 21  1  0
 22 23  1  0
 23 24  2  0
 25 23  1  0
  2 26  1  0
  3 27  1  0
  7 28  1  0
  8 29  1  0
 12 30  1  0
 13 31  1  0
 14 32  1  0
 18 33  1  0
 18 34  1  0
 19 35  1  0
 19 36  1  0
 25 37  1  0
 25 38  1  0
 25 39  1  0
M  ISO  8  26  14  27  14  28  14  29  14  30  14  31  14  32  14  33   8
M  ISO  6  34   8  35   8  36   8  37   8  38   8  39   8
M  END
>  <minimizedAffinity>  (1) 
-4.50785303

>  <minimizedRMSD>  (1) 
0.0780382231

$$$$
