
     RDKit          3D

 37 40  0  0  0  0  0  0  0  0999 V2000
   38.2480   22.2640   31.2280 C   0  0  0  0  0  0  0  0  0  0  0  0
   38.7620   21.2400   30.4260 C   0  0  0  0  0  0  0  0  0  0  0  0
   39.2840   21.8350   29.2910 C   0  0  0  0  0  0  0  0  0  0  0  0
   39.0790   23.1720   29.4290 N   0  0  0  0  0  0  0  0  0  0  0  0
   38.4690   23.4110   30.5710 N   0  0  0  0  0  0  0  0  0  0  0  0
   37.5270   21.9630   34.8580 C   0  0  0  0  0  0  0  0  0  0  0  0
   36.3800   21.2040   34.8390 C   0  0  0  0  0  0  0  0  0  0  0  0
   35.8610   20.8020   33.6180 C   0  0  0  0  0  0  0  0  0  0  0  0
   36.4860   21.1590   32.4730 N   0  0  0  0  0  0  0  0  0  0  0  0
   37.6300   21.9170   32.5020 C   0  0  0  0  0  0  0  0  0  0  0  0
   38.1290   22.3050   33.7080 N   0  0  0  0  0  0  0  0  0  0  0  0
   39.9210   22.7220   37.5510 C   0  0  0  0  0  0  0  0  0  0  0  0
   39.1120   23.3120   38.4930 C   0  0  0  0  0  0  0  0  0  0  0  0
   37.7600   23.4490   38.2100 C   0  0  0  0  0  0  0  0  0  0  0  0
   37.2790   22.9950   37.0080 N   0  0  0  0  0  0  0  0  0  0  0  0
   38.1170   22.4140   36.0990 C   0  0  0  0  0  0  0  0  0  0  0  0
   39.4050   22.2880   36.3800 N   0  0  0  0  0  0  0  0  0  0  0  0
   39.4920   24.1210   28.4380 C   0  0  0  0  0  0  0  0  0  0  0  0
   39.6180   23.3830   27.1190 C   0  0  0  0  0  0  0  0  0  0  0  0
   40.0240   24.4330   26.1200 C   0  0  0  0  0  0  0  0  0  0  0  0
   40.1820   24.2950   24.7940 N   0  0  0  0  0  0  0  0  0  0  0  0
   40.5440   25.4370   24.2530 O   0  0  0  0  0  0  0  0  0  0  0  0
   40.6360   26.3480   25.1870 C   0  0  0  0  0  0  0  0  0  0  0  0
   40.3120   25.7260   26.3530 N   0  0  0  0  0  0  0  0  0  0  0  0
   41.0410   28.0700   25.3480 S   0  0  0  0  0  0  0  0  0  0  0  0
   38.7530   20.1640   30.6545 H   0  0  0  0  0  0  0  0  0  0  0  0
   39.7689   21.3268   28.4445 H   0  0  0  0  0  0  0  0  0  0  0  0
   35.8823   20.9204   35.7781 H   0  0  0  0  0  0  0  0  0  0  0  0
   34.9444   20.1950   33.5806 H   0  0  0  0  0  0  0  0  0  0  0  0
   40.9959   22.6024   37.7519 H   0  0  0  0  0  0  0  0  0  0  0  0
   39.5262   23.6670   39.4482 H   0  0  0  0  0  0  0  0  0  0  0  0
   37.0827   23.9157   38.9403 H   0  0  0  0  0  0  0  0  0  0  0  0
   38.7423   24.9211   28.3498 H   0  0  0  0  0  0  0  0  0  0  0  0
   40.4528   24.5777   28.7179 H   0  0  0  0  0  0  0  0  0  0  0  0
   40.3853   22.5978   27.1875 H   0  0  0  0  0  0  0  0  0  0  0  0
   38.6799   22.8840   26.8345 H   0  0  0  0  0  0  0  0  0  0  0  0
   41.1183   28.3987   26.6757 H   0  0  0  0  0  0  0  0  0  0  0  0
  1 10  1  0
  2  1  1  0
  3  4  1  0
  3  2  2  0
  4  5  1  0
  5  1  2  0
  6 16  1  0
  7  6  2  0
  8  7  1  0
  9 10  1  0
  9  8  2  0
 10 11  2  0
 11  6  1  0
 12 13  2  0
 14 13  1  0
 15 14  2  0
 16 17  2  0
 16 15  1  0
 17 12  1  0
 18  4  1  0
 19 18  1  0
 20 24  1  0
 20 19  1  0
 21 20  2  0
 22 21  1  0
 22 23  1  0
 23 25  1  0
 23 24  2  0
  2 26  1  0
  3 27  1  0
  7 28  1  0
  8 29  1  0
 12 30  1  0
 13 31  1  0
 14 32  1  0
 18 33  1  0
 18 34  1  0
 19 35  1  0
 19 36  1  0
 25 37  1  0
M  ISO  8  26  14  27  14  28  14  29  14  30  14  31  14  32  14  33   8
M  ISO  4  34   8  35   8  36   8  37  11
M  END
>  <minimizedAffinity>  (1) 
-4.5012908

>  <minimizedRMSD>  (1) 
0.109095827

$$$$
