
     RDKit          3D

 29 31  0  0  0  0  0  0  0  0999 V2000
   40.2270   22.0780   36.4490 C   0  0  0  0  0  0  0  0  0  0  0  0
   39.6950   22.7790   37.5250 C   0  0  0  0  0  0  0  0  0  0  0  0
   38.5620   23.5440   37.2800 C   0  0  0  0  0  0  0  0  0  0  0  0
   38.0940   23.5240   36.0180 N   0  0  0  0  0  0  0  0  0  0  0  0
   38.5880   22.8620   34.9800 C   0  0  0  0  0  0  0  0  0  0  0  0
   39.6650   22.1480   35.2560 N   0  0  0  0  0  0  0  0  0  0  0  0
   37.8230   23.0740   33.7590 C   0  0  0  0  0  0  0  0  0  0  0  0
   37.9820   24.1970   32.9410 C   0  0  0  0  0  0  0  0  0  0  0  0
   37.2720   24.4150   31.7890 C   0  0  0  0  0  0  0  0  0  0  0  0
   36.3340   23.5010   31.3720 C   0  0  0  0  0  0  0  0  0  0  0  0
   36.1370   22.3830   32.1370 C   0  0  0  0  0  0  0  0  0  0  0  0
   35.1890   21.5040   31.6720 C   0  0  0  0  0  0  0  0  0  0  0  0
   34.9210   20.3500   32.3750 C   0  0  0  0  0  0  0  0  0  0  0  0
   35.6510   20.1410   33.5450 C   0  0  0  0  0  0  0  0  0  0  0  0
   36.5880   21.0640   33.9520 C   0  0  0  0  0  0  0  0  0  0  0  0
   36.8660   22.2140   33.2670 C   0  0  0  0  0  0  0  0  0  0  0  0
   37.8720   24.3610   38.3520 C   0  0  0  0  0  0  0  0  0  0  0  0
   41.1248   21.4589   36.5926 H   0  0  0  0  0  0  0  0  0  0  0  0
   40.1506   22.7301   38.5250 H   0  0  0  0  0  0  0  0  0  0  0  0
   38.7231   24.9526   33.2408 H   0  0  0  0  0  0  0  0  0  0  0  0
   37.4534   25.3239   31.1966 H   0  0  0  0  0  0  0  0  0  0  0  0
   35.7577   23.6634   30.4493 H   0  0  0  0  0  0  0  0  0  0  0  0
   34.6454   21.7211   30.7407 H   0  0  0  0  0  0  0  0  0  0  0  0
   34.1668   19.6274   32.0299 H   0  0  0  0  0  0  0  0  0  0  0  0
   35.4774   19.2354   34.1448 H   0  0  0  0  0  0  0  0  0  0  0  0
   37.1439   20.8650   34.8801 H   0  0  0  0  0  0  0  0  0  0  0  0
   38.1787   23.9979   39.3440 H   0  0  0  0  0  0  0  0  0  0  0  0
   38.1542   25.4188   38.2454 H   0  0  0  0  0  0  0  0  0  0  0  0
   36.7819   24.2598   38.2454 H   0  0  0  0  0  0  0  0  0  0  0  0
  1  2  2  0
  3  2  1  0
  3 17  1  0
  4  3  2  0
  5  6  2  0
  5  4  1  0
  6  1  1  0
  7  5  1  0
  8  7  2  0
  9  8  1  0
 10  9  2  0
 10 11  1  0
 11 16  2  0
 12 11  1  0
 12 13  2  0
 13 14  1  0
 14 15  2  0
 16  7  1  0
 16 15  1  0
  1 18  1  0
  2 19  1  0
  8 20  1  0
  9 21  1  0
 10 22  1  0
 12 23  1  0
 13 24  1  0
 14 25  1  0
 15 26  1  0
 17 27  1  0
 17 28  1  0
 17 29  1  0
M  ISO  8  18  14  19  14  20  14  21  14  22  14  23  14  24  14  25  14
M  ISO  4  26  14  27   8  28   8  29   8
M  END
>  <minimizedAffinity>  (1) 
-5.30213881

>  <minimizedRMSD>  (1) 
2.22502923

$$$$
