
     RDKit          3D

 23 24  0  0  0  0  0  0  0  0999 V2000
   40.2180   22.1610   36.7780 C   0  0  0  0  0  0  0  0  0  0  0  0
   39.7770   22.9970   37.8140 C   0  0  0  0  0  0  0  0  0  0  0  0
   38.4570   23.4590   37.7600 C   0  0  0  0  0  0  0  0  0  0  0  0
   37.6870   23.0660   36.6990 N   0  0  0  0  0  0  0  0  0  0  0  0
   38.1470   22.2660   35.7300 C   0  0  0  0  0  0  0  0  0  0  0  0
   39.4060   21.8260   35.7820 N   0  0  0  0  0  0  0  0  0  0  0  0
   37.2810   21.8790   34.6230 C   0  0  0  0  0  0  0  0  0  0  0  0
   37.4560   22.4480   33.3750 C   0  0  0  0  0  0  0  0  0  0  0  0
   36.6210   22.0640   32.3410 C   0  0  0  0  0  0  0  0  0  0  0  0
   35.6200   21.1360   32.4970 C   0  0  0  0  0  0  0  0  0  0  0  0
   35.4620   20.5800   33.7500 C   0  0  0  0  0  0  0  0  0  0  0  0
   36.2790   20.9470   34.7920 C   0  0  0  0  0  0  0  0  0  0  0  0
   37.9270   24.3570   38.8430 C   0  0  0  0  0  0  0  0  0  0  0  0
   41.2491   21.7781   36.7905 H   0  0  0  0  0  0  0  0  0  0  0  0
   40.4455   23.2799   38.6405 H   0  0  0  0  0  0  0  0  0  0  0  0
   38.2466   23.1941   33.2070 H   0  0  0  0  0  0  0  0  0  0  0  0
   36.7647   22.5215   31.3510 H   0  0  0  0  0  0  0  0  0  0  0  0
   34.9708   20.8479   31.6571 H   0  0  0  0  0  0  0  0  0  0  0  0
   34.6717   19.8333   33.9168 H   0  0  0  0  0  0  0  0  0  0  0  0
   36.1307   20.4882   35.7807 H   0  0  0  0  0  0  0  0  0  0  0  0
   38.1775   23.9326   39.8264 H   0  0  0  0  0  0  0  0  0  0  0  0
   38.3813   25.3542   38.7475 H   0  0  0  0  0  0  0  0  0  0  0  0
   36.8344   24.4412   38.7475 H   0  0  0  0  0  0  0  0  0  0  0  0
  1  2  2  0
  3  2  1  0
  3 13  1  0
  4  3  2  0
  5  6  2  0
  5  4  1  0
  6  1  1  0
  7 12  1  0
  7  5  1  0
  8  7  2  0
  9 10  2  0
  9  8  1  0
 10 11  1  0
 11 12  2  0
  1 14  1  0
  2 15  1  0
  8 16  1  0
  9 17  1  0
 10 18  1  0
 11 19  1  0
 12 20  1  0
 13 21  1  0
 13 22  1  0
 13 23  1  0
M  ISO  8  14  14  15  14  16  14  17  14  18  14  19  14  20  14  21   8
M  ISO  2  22   8  23   8
M  END
>  <minimizedAffinity>  (1) 
-4.30095816

>  <minimizedRMSD>  (1) 
1.27023757

$$$$
