
     RDKit          3D

 26 27  0  0  0  0  0  0  0  0999 V2000
   40.2400   22.1340   36.7260 C   0  0  0  0  0  0  0  0  0  0  0  0
   39.7240   22.8820   37.7910 C   0  0  0  0  0  0  0  0  0  0  0  0
   38.5240   23.5740   37.6060 C   0  0  0  0  0  0  0  0  0  0  0  0
   37.9250   23.4720   36.3780 N   0  0  0  0  0  0  0  0  0  0  0  0
   38.4490   22.7470   35.3820 C   0  0  0  0  0  0  0  0  0  0  0  0
   39.5950   22.0830   35.5500 N   0  0  0  0  0  0  0  0  0  0  0  0
   37.7820   22.6790   34.1270 N   0  0  0  0  0  0  0  0  0  0  0  0
   37.0450   21.5030   33.7120 C   0  0  0  0  0  0  0  0  0  0  0  0
   37.6710   21.0120   32.4360 C   0  0  0  0  0  0  0  0  0  0  0  0
   38.2990   21.9760   31.7010 O   0  0  0  0  0  0  0  0  0  0  0  0
   37.7690   23.2390   31.8030 C   0  0  0  0  0  0  0  0  0  0  0  0
   37.8140   23.8000   33.2070 C   0  0  0  0  0  0  0  0  0  0  0  0
   37.9280   24.3890   38.7120 C   0  0  0  0  0  0  0  0  0  0  0  0
   41.1832   21.5827   36.8542 H   0  0  0  0  0  0  0  0  0  0  0  0
   40.2528   22.9242   38.7546 H   0  0  0  0  0  0  0  0  0  0  0  0
   37.1096   20.7250   34.4870 H   0  0  0  0  0  0  0  0  0  0  0  0
   35.9825   21.7427   33.5582 H   0  0  0  0  0  0  0  0  0  0  0  0
   38.4114   20.2400   32.6925 H   0  0  0  0  0  0  0  0  0  0  0  0
   36.8483   20.6323   31.8123 H   0  0  0  0  0  0  0  0  0  0  0  0
   38.3372   23.9096   31.1416 H   0  0  0  0  0  0  0  0  0  0  0  0
   36.7094   23.1697   31.5158 H   0  0  0  0  0  0  0  0  0  0  0  0
   38.7391   24.3774   33.3510 H   0  0  0  0  0  0  0  0  0  0  0  0
   36.9596   24.4699   33.3835 H   0  0  0  0  0  0  0  0  0  0  0  0
   38.2342   23.9703   39.6820 H   0  0  0  0  0  0  0  0  0  0  0  0
   38.2810   25.4278   38.6332 H   0  0  0  0  0  0  0  0  0  0  0  0
   36.8310   24.3675   38.6332 H   0  0  0  0  0  0  0  0  0  0  0  0
  1  2  2  0
  3  2  1  0
  3 13  1  0
  4  3  2  0
  5  6  2  0
  5  4  1  0
  6  1  1  0
  7  5  1  0
  8  7  1  0
  9  8  1  0
 10 11  1  0
 10  9  1  0
 11 12  1  0
 12  7  1  0
  1 14  1  0
  2 15  1  0
  8 16  1  0
  8 17  1  0
  9 18  1  0
  9 19  1  0
 11 20  1  0
 11 21  1  0
 12 22  1  0
 12 23  1  0
 13 24  1  0
 13 25  1  0
 13 26  1  0
M  ISO  8  14  14  15  14  16  13  17  13  18  13  19  13  20  13  21  13
M  ISO  5  22  13  23  13  24   8  25   8  26   8
M  END
>  <minimizedAffinity>  (1) 
-3.85044909

>  <minimizedRMSD>  (1) 
0.982577622

$$$$
