
     RDKit          3D

 16 16  0  0  0  0  0  0  0  0999 V2000
   40.3900   22.1510   36.9850 C   0  0  0  0  0  0  0  0  0  0  0  0
   39.8390   22.9690   37.9740 C   0  0  0  0  0  0  0  0  0  0  0  0
   38.5550   23.4700   37.7680 C   0  0  0  0  0  0  0  0  0  0  0  0
   37.9100   23.1330   36.6140 N   0  0  0  0  0  0  0  0  0  0  0  0
   38.4630   22.3410   35.6750 C   0  0  0  0  0  0  0  0  0  0  0  0
   39.6990   21.8570   35.8690 N   0  0  0  0  0  0  0  0  0  0  0  0
   37.9050   24.3510   38.7820 C   0  0  0  0  0  0  0  0  0  0  0  0
   37.7250   22.0030   34.4420 C   0  0  0  0  0  0  0  0  0  0  0  0
   38.4900   21.2140   33.6350 F   0  0  0  0  0  0  0  0  0  0  0  0
   36.5880   21.2870   34.7640 F   0  0  0  0  0  0  0  0  0  0  0  0
   37.4290   23.1450   33.7210 F   0  0  0  0  0  0  0  0  0  0  0  0
   41.4021   21.7419   37.1205 H   0  0  0  0  0  0  0  0  0  0  0  0
   40.4016   23.2105   38.8879 H   0  0  0  0  0  0  0  0  0  0  0  0
   38.1637   24.0004   39.7920 H   0  0  0  0  0  0  0  0  0  0  0  0
   38.2588   25.3842   38.6507 H   0  0  0  0  0  0  0  0  0  0  0  0
   36.8134   24.3178   38.6507 H   0  0  0  0  0  0  0  0  0  0  0  0
  1  2  2  0
  3  2  1  0
  3  7  1  0
  4  3  2  0
  5  6  2  0
  5  4  1  0
  6  1  1  0
  8 10  1  0
  8  5  1  0
  9  8  1  0
 11  8  1  0
  1 12  1  0
  2 13  1  0
  7 14  1  0
  7 15  1  0
  7 16  1  0
M  ISO  5  12  14  13  14  14   8  15   8  16   8
M  END
>  <minimizedAffinity>  (1) 
-3.47715569

>  <minimizedRMSD>  (1) 
0.499446213

$$$$
