
     RDKit          3D

 15 15  0  0  0  0  0  0  0  0999 V2000
   40.5430   22.1410   37.1230 C   0  0  0  0  0  0  0  0  0  0  0  0
   39.8830   22.9600   38.0540 C   0  0  0  0  0  0  0  0  0  0  0  0
   38.6200   23.4590   37.7170 C   0  0  0  0  0  0  0  0  0  0  0  0
   38.1070   23.1190   36.5070 N   0  0  0  0  0  0  0  0  0  0  0  0
   38.7600   22.3330   35.6370 C   0  0  0  0  0  0  0  0  0  0  0  0
   39.9680   21.8480   35.9420 N   0  0  0  0  0  0  0  0  0  0  0  0
   37.8710   24.3360   38.6690 C   0  0  0  0  0  0  0  0  0  0  0  0
   38.0740   22.0650   34.3870 C   0  0  0  0  0  0  0  0  0  0  0  0
   36.9590   21.5380   34.3830 O   0  0  0  0  0  0  0  0  0  0  0  0
   41.5376   21.7360   37.3611 H   0  0  0  0  0  0  0  0  0  0  0  0
   40.3465   23.2025   39.0217 H   0  0  0  0  0  0  0  0  0  0  0  0
   38.1161   24.0490   39.7022 H   0  0  0  0  0  0  0  0  0  0  0  0
   38.1559   25.3853   38.5025 H   0  0  0  0  0  0  0  0  0  0  0  0
   36.7900   24.2188   38.5025 H   0  0  0  0  0  0  0  0  0  0  0  0
   38.5528   22.3343   33.4340 H   0  0  0  0  0  0  0  0  0  0  0  0
  1  2  2  0
  3  2  1  0
  3  7  1  0
  4  3  2  0
  5  6  2  0
  5  4  1  0
  6  1  1  0
  8  5  1  0
  9  8  2  0
  1 10  1  0
  2 11  1  0
  7 12  1  0
  7 13  1  0
  7 14  1  0
  8 15  1  0
M  ISO  6  10  14  11  14  12   8  13   8  14   8  15   6
M  END
>  <minimizedAffinity>  (1) 
-3.05535769

>  <minimizedRMSD>  (1) 
0.331972688

$$$$
