
     RDKit          3D

 27 29  0  0  0  0  0  0  0  0999 V2000
   40.1740   22.0100   33.8800 C   0  0  0  0  0  0  0  0  0  0  0  0
   39.8300   22.9260   34.8870 C   0  0  0  0  0  0  0  0  0  0  0  0
   38.4740   23.1340   35.1820 C   0  0  0  0  0  0  0  0  0  0  0  0
   37.5610   22.4210   34.4580 N   0  0  0  0  0  0  0  0  0  0  0  0
   37.9230   21.5470   33.4950 C   0  0  0  0  0  0  0  0  0  0  0  0
   39.2160   21.3460   33.2120 N   0  0  0  0  0  0  0  0  0  0  0  0
   36.9110   20.8090   32.7490 C   0  0  0  0  0  0  0  0  0  0  0  0
   35.7020   20.5490   33.4100 C   0  0  0  0  0  0  0  0  0  0  0  0
   34.8920   19.8400   32.5180 C   0  0  0  0  0  0  0  0  0  0  0  0
   35.6880   19.7200   31.3600 C   0  0  0  0  0  0  0  0  0  0  0  0
   36.8410   20.3030   31.5660 O   0  0  0  0  0  0  0  0  0  0  0  0
   38.0530   24.0920   36.2360 C   0  0  0  0  0  0  0  0  0  0  0  0
   37.8780   25.4620   35.6880 C   0  0  0  0  0  0  0  0  0  0  0  0
   38.3470   26.6280   36.3030 C   0  0  0  0  0  0  0  0  0  0  0  0
   37.9790   27.6890   35.4720 C   0  0  0  0  0  0  0  0  0  0  0  0
   37.3200   27.1200   34.4200 C   0  0  0  0  0  0  0  0  0  0  0  0
   37.2780   25.8230   34.5750 O   0  0  0  0  0  0  0  0  0  0  0  0
   41.2325   21.8353   33.6370 H   0  0  0  0  0  0  0  0  0  0  0  0
   40.6113   23.4720   35.4361 H   0  0  0  0  0  0  0  0  0  0  0  0
   35.4404   20.8466   34.4362 H   0  0  0  0  0  0  0  0  0  0  0  0
   33.8715   19.4634   32.6813 H   0  0  0  0  0  0  0  0  0  0  0  0
   35.3869   19.2156   30.4300 H   0  0  0  0  0  0  0  0  0  0  0  0
   37.0983   23.7541   36.6655 H   0  0  0  0  0  0  0  0  0  0  0  0
   38.8383   24.1257   37.0055 H   0  0  0  0  0  0  0  0  0  0  0  0
   38.8969   26.6959   37.2533 H   0  0  0  0  0  0  0  0  0  0  0  0
   38.1784   28.7589   35.6317 H   0  0  0  0  0  0  0  0  0  0  0  0
   36.8895   27.6703   33.5704 H   0  0  0  0  0  0  0  0  0  0  0  0
  1  2  2  0
  2  3  1  0
  3 12  1  0
  4  3  2  0
  5  4  1  0
  6  5  2  0
  6  1  1  0
  7  8  2  0
  7  5  1  0
  9  8  1  0
 10 11  1  0
 10  9  2  0
 11  7  1  0
 13 12  1  0
 13 14  2  0
 15 14  1  0
 16 17  1  0
 16 15  2  0
 17 13  1  0
  1 18  1  0
  2 19  1  0
  8 20  1  0
  9 21  1  0
 10 22  1  0
 12 23  1  0
 12 24  1  0
 14 25  1  0
 15 26  1  0
 16 27  1  0
M  ISO  8  18  14  19  14  20  14  21  14  22  14  23   8  24   8  25  14
M  ISO  2  26  14  27  14
M  END
>  <minimizedAffinity>  (1) 
-4.27891254

>  <minimizedRMSD>  (1) 
2.66102362

$$$$
