
     RDKit          3D

 27 29  0  0  0  0  0  0  0  0999 V2000
   39.9100   21.9430   33.5380 C   0  0  0  0  0  0  0  0  0  0  0  0
   39.6530   22.8620   34.5600 C   0  0  0  0  0  0  0  0  0  0  0  0
   38.3470   23.0250   35.0020 C   0  0  0  0  0  0  0  0  0  0  0  0
   37.3600   22.2800   34.4210 N   0  0  0  0  0  0  0  0  0  0  0  0
   37.6500   21.3960   33.4300 C   0  0  0  0  0  0  0  0  0  0  0  0
   38.8940   21.2380   33.0060 N   0  0  0  0  0  0  0  0  0  0  0  0
   36.5670   20.6150   32.8310 C   0  0  0  0  0  0  0  0  0  0  0  0
   35.3540   21.2740   32.5850 C   0  0  0  0  0  0  0  0  0  0  0  0
   34.5110   20.3090   32.0200 C   0  0  0  0  0  0  0  0  0  0  0  0
   35.2590   19.1350   31.9580 C   0  0  0  0  0  0  0  0  0  0  0  0
   36.4390   19.3900   32.4450 O   0  0  0  0  0  0  0  0  0  0  0  0
   38.0490   24.0050   36.0980 C   0  0  0  0  0  0  0  0  0  0  0  0
   37.9380   25.3510   35.6190 N   0  0  0  0  0  0  0  0  0  0  0  0
   38.3860   26.3310   36.4100 N   0  0  0  0  0  0  0  0  0  0  0  0
   38.1960   27.5090   35.7910 C   0  0  0  0  0  0  0  0  0  0  0  0
   37.6070   27.2380   34.5690 C   0  0  0  0  0  0  0  0  0  0  0  0
   37.4530   25.8810   34.4810 C   0  0  0  0  0  0  0  0  0  0  0  0
   40.9365   21.7969   33.1708 H   0  0  0  0  0  0  0  0  0  0  0  0
   40.4716   23.4458   35.0062 H   0  0  0  0  0  0  0  0  0  0  0  0
   35.1149   22.3275   32.7923 H   0  0  0  0  0  0  0  0  0  0  0  0
   33.4704   20.4492   31.6920 H   0  0  0  0  0  0  0  0  0  0  0  0
   34.9141   18.1662   31.5675 H   0  0  0  0  0  0  0  0  0  0  0  0
   37.0994   23.7216   36.5754 H   0  0  0  0  0  0  0  0  0  0  0  0
   38.8867   23.9730   36.8102 H   0  0  0  0  0  0  0  0  0  0  0  0
   38.4595   28.5025   36.1828 H   0  0  0  0  0  0  0  0  0  0  0  0
   37.3160   27.9772   33.8081 H   0  0  0  0  0  0  0  0  0  0  0  0
   37.0147   25.3270   33.6378 H   0  0  0  0  0  0  0  0  0  0  0  0
  1  2  2  0
  2  3  1  0
  3 12  1  0
  4  3  2  0
  5  4  1  0
  6  5  2  0
  6  1  1  0
  7  5  1  0
  8  7  2  0
  9  8  1  0
 10  9  2  0
 10 11  1  0
 11  7  1  0
 13 12  1  0
 13 14  1  0
 15 14  2  0
 16 15  1  0
 17 16  2  0
 17 13  1  0
  1 18  1  0
  2 19  1  0
  8 20  1  0
  9 21  1  0
 10 22  1  0
 12 23  1  0
 12 24  1  0
 15 25  1  0
 16 26  1  0
 17 27  1  0
M  ISO  8  18  14  19  14  20  14  21  14  22  14  23   8  24   8  25  14
M  ISO  2  26  14  27  14
M  END
>  <minimizedAffinity>  (1) 
-4.05360889

>  <minimizedRMSD>  (1) 
2.88254309

$$$$
