
     RDKit          3D

 25 26  0  0  0  0  0  0  0  0999 V2000
   38.9470   24.9290   33.2270 C   0  0  0  0  0  0  0  0  0  0  0  0
   39.5300   24.7210   34.4620 C   0  0  0  0  0  0  0  0  0  0  0  0
   39.1680   23.6000   35.2160 C   0  0  0  0  0  0  0  0  0  0  0  0
   38.2430   22.7600   34.6800 N   0  0  0  0  0  0  0  0  0  0  0  0
   37.6880   23.0010   33.4500 C   0  0  0  0  0  0  0  0  0  0  0  0
   38.0330   24.0670   32.7350 N   0  0  0  0  0  0  0  0  0  0  0  0
   36.7020   22.0720   32.9170 C   0  0  0  0  0  0  0  0  0  0  0  0
   36.2720   21.0320   33.7330 C   0  0  0  0  0  0  0  0  0  0  0  0
   35.3460   20.2860   33.0220 C   0  0  0  0  0  0  0  0  0  0  0  0
   35.2610   20.9330   31.7810 C   0  0  0  0  0  0  0  0  0  0  0  0
   36.0730   21.9620   31.7850 O   0  0  0  0  0  0  0  0  0  0  0  0
   39.7500   23.3080   36.5560 C   0  0  0  0  0  0  0  0  0  0  0  0
   38.6780   22.6270   37.2930 N   0  0  0  0  0  0  0  0  0  0  0  0
   38.2220   23.4090   38.4060 C   0  0  0  0  0  0  0  0  0  0  0  0
   37.7270   24.5970   37.8780 F   0  0  0  0  0  0  0  0  0  0  0  0
   37.2030   22.7050   39.0200 F   0  0  0  0  0  0  0  0  0  0  0  0
   39.2130   23.7280   39.3100 F   0  0  0  0  0  0  0  0  0  0  0  0
   39.2324   25.8113   32.6354 H   0  0  0  0  0  0  0  0  0  0  0  0
   40.2740   25.4323   34.8498 H   0  0  0  0  0  0  0  0  0  0  0  0
   36.6078   20.8359   34.7620 H   0  0  0  0  0  0  0  0  0  0  0  0
   34.8015   19.3902   33.3552 H   0  0  0  0  0  0  0  0  0  0  0  0
   34.6186   20.6273   30.9420 H   0  0  0  0  0  0  0  0  0  0  0  0
   40.6302   22.6550   36.4617 H   0  0  0  0  0  0  0  0  0  0  0  0
   40.0896   24.2205   37.0679 H   0  0  0  0  0  0  0  0  0  0  0  0
   37.8868   22.4612   36.6547 H   0  0  0  0  0  0  0  0  0  0  0  0
  1  2  2  0
  2  3  1  0
  3 12  1  0
  4  3  2  0
  5  4  1  0
  6  1  1  0
  6  5  2  0
  7  5  1  0
  7  8  2  0
  9  8  1  0
 10 11  1  0
 10  9  2  0
 11  7  1  0
 12 13  1  0
 13 14  1  0
 14 16  1  0
 14 17  1  0
 15 14  1  0
  1 18  1  0
  2 19  1  0
  8 20  1  0
  9 21  1  0
 10 22  1  0
 12 23  1  0
 12 24  1  0
 13 25  1  0
M  ISO  8  18  14  19  14  20  14  21  14  22  14  23   8  24   8  25   5
M  END
>  <minimizedAffinity>  (1) 
-4.54151821

>  <minimizedRMSD>  (1) 
2.45595145

$$$$
