
     RDKit          3D

 35 37  0  0  0  0  0  0  0  0999 V2000
   38.5620   23.7780   30.1680 C   0  0  0  0  0  0  0  0  0  0  0  0
   38.4860   24.9910   30.8670 C   0  0  0  0  0  0  0  0  0  0  0  0
   37.5930   25.1060   31.9320 C   0  0  0  0  0  0  0  0  0  0  0  0
   36.8510   24.0340   32.2280 N   0  0  0  0  0  0  0  0  0  0  0  0
   36.9370   22.8550   31.5350 C   0  0  0  0  0  0  0  0  0  0  0  0
   37.7820   22.7330   30.5210 N   0  0  0  0  0  0  0  0  0  0  0  0
   36.1120   21.7350   31.9180 C   0  0  0  0  0  0  0  0  0  0  0  0
   36.2970   21.1470   33.1560 C   0  0  0  0  0  0  0  0  0  0  0  0
   35.4100   20.1070   33.3090 C   0  0  0  0  0  0  0  0  0  0  0  0
   34.6990   20.1080   32.1130 C   0  0  0  0  0  0  0  0  0  0  0  0
   35.1490   21.0690   31.3520 O   0  0  0  0  0  0  0  0  0  0  0  0
   37.5150   26.3690   32.6740 C   0  0  0  0  0  0  0  0  0  0  0  0
   37.1280   26.0220   34.0430 N   0  0  0  0  0  0  0  0  0  0  0  0
   38.1060   26.9960   35.0670 S   0  0  0  0  0  0  0  0  0  0  0  0
   39.4180   27.3230   34.3730 O   0  0  0  0  0  0  0  0  0  0  0  0
   37.4250   28.2690   35.3680 O   0  0  0  0  0  0  0  0  0  0  0  0
   38.4210   26.0620   36.5360 C   0  0  0  0  0  0  0  0  0  0  0  0
   38.4250   24.6200   36.2770 C   0  0  0  0  0  0  0  0  0  0  0  0
   37.7140   23.4310   36.4130 C   0  0  0  0  0  0  0  0  0  0  0  0
   38.2340   22.2700   35.9300 C   0  0  0  0  0  0  0  0  0  0  0  0
   39.4980   22.2870   35.2920 C   0  0  0  0  0  0  0  0  0  0  0  0
   39.8990   24.1280   35.4370 S   0  0  0  0  0  0  0  0  0  0  0  0
   39.2621   23.6764   29.3257 H   0  0  0  0  0  0  0  0  0  0  0  0
   39.1224   25.8408   30.5792 H   0  0  0  0  0  0  0  0  0  0  0  0
   37.0396   21.4626   33.9036 H   0  0  0  0  0  0  0  0  0  0  0  0
   35.2911   19.4346   34.1714 H   0  0  0  0  0  0  0  0  0  0  0  0
   33.8887   19.4117   31.8509 H   0  0  0  0  0  0  0  0  0  0  0  0
   38.4929   26.8726   32.6713 H   0  0  0  0  0  0  0  0  0  0  0  0
   36.7877   27.0557   32.2163 H   0  0  0  0  0  0  0  0  0  0  0  0
   36.1307   26.2284   34.1971 H   0  0  0  0  0  0  0  0  0  0  0  0
   39.4021   26.3535   36.9391 H   0  0  0  0  0  0  0  0  0  0  0  0
   37.6168   26.2767   37.2551 H   0  0  0  0  0  0  0  0  0  0  0  0
   36.7329   23.4300   36.9104 H   0  0  0  0  0  0  0  0  0  0  0  0
   37.6775   21.3269   36.0342 H   0  0  0  0  0  0  0  0  0  0  0  0
   40.0778   21.4672   34.8427 H   0  0  0  0  0  0  0  0  0  0  0  0
  1  6  2  0
  1  2  1  0
  2  3  2  0
  3  4  1  0
  3 12  1  0
  5  7  1  0
  5  4  2  0
  6  5  1  0
  7  8  2  0
  8  9  1  0
 10  9  2  0
 11  7  1  0
 11 10  1  0
 12 13  1  0
 13 14  1  0
 14 16  2  0
 14 17  1  0
 15 14  2  0
 18 19  2  0
 18 17  1  0
 20 19  1  0
 21 22  1  0
 21 20  2  0
 22 18  1  0
  1 23  1  0
  2 24  1  0
  8 25  1  0
  9 26  1  0
 10 27  1  0
 12 28  1  0
 12 29  1  0
 13 30  1  0
 17 31  1  0
 17 32  1  0
 19 33  1  0
 20 34  1  0
 21 35  1  0
M  ISO  8  23  14  24  14  25  14  26  14  27  14  28   8  29   8  30   5
M  ISO  5  31   8  32   8  33  14  34  14  35  14
M  END
>  <minimizedAffinity>  (1) 
-4.36151314

>  <minimizedRMSD>  (1) 
4.19118977

$$$$
