
     RDKit          3D

 29 30  0  0  0  0  0  0  0  0999 V2000
   38.1740   22.7700   35.6310 C   0  0  0  0  0  0  0  0  0  0  0  0
   38.4040   24.0260   35.0640 C   0  0  0  0  0  0  0  0  0  0  0  0
   37.9910   24.2740   33.7490 C   0  0  0  0  0  0  0  0  0  0  0  0
   37.3850   23.2780   33.0920 N   0  0  0  0  0  0  0  0  0  0  0  0
   37.1720   22.0480   33.6820 C   0  0  0  0  0  0  0  0  0  0  0  0
   37.5590   21.8060   34.9210 N   0  0  0  0  0  0  0  0  0  0  0  0
   36.5060   21.0090   32.9080 C   0  0  0  0  0  0  0  0  0  0  0  0
   35.1440   21.0770   32.7020 C   0  0  0  0  0  0  0  0  0  0  0  0
   34.7600   19.9870   31.9470 C   0  0  0  0  0  0  0  0  0  0  0  0
   35.9380   19.2960   31.7260 C   0  0  0  0  0  0  0  0  0  0  0  0
   36.9100   19.9380   32.3060 O   0  0  0  0  0  0  0  0  0  0  0  0
   38.2350   25.6010   33.1520 C   0  0  0  0  0  0  0  0  0  0  0  0
   37.1190   26.4460   33.5730 N   0  0  0  0  0  0  0  0  0  0  0  0
   36.5920   27.3170   32.1870 S   0  0  0  0  0  0  0  0  0  0  0  0
   35.4030   28.1730   32.4590 O   0  0  0  0  0  0  0  0  0  0  0  0
   37.7110   28.2010   31.7350 O   0  0  0  0  0  0  0  0  0  0  0  0
   36.2310   26.1310   30.9010 C   0  0  0  0  0  0  0  0  0  0  0  0
   35.0890   25.4370   31.2980 O   0  0  0  0  0  0  0  0  0  0  0  0
   38.4972   22.5679   36.6629 H   0  0  0  0  0  0  0  0  0  0  0  0
   38.9053   24.8136   35.6457 H   0  0  0  0  0  0  0  0  0  0  0  0
   34.4761   21.8668   33.0763 H   0  0  0  0  0  0  0  0  0  0  0  0
   33.7488   19.7273   31.6004 H   0  0  0  0  0  0  0  0  0  0  0  0
   36.0365   18.3606   31.1556 H   0  0  0  0  0  0  0  0  0  0  0  0
   38.2648   25.5265   32.0549 H   0  0  0  0  0  0  0  0  0  0  0  0
   39.1996   26.0172   33.4779 H   0  0  0  0  0  0  0  0  0  0  0  0
   36.3518   25.8627   33.9363 H   0  0  0  0  0  0  0  0  0  0  0  0
   37.0741   25.4347   30.7813 H   0  0  0  0  0  0  0  0  0  0  0  0
   36.0701   26.6339   29.9360 H   0  0  0  0  0  0  0  0  0  0  0  0
   35.0458   25.4108   32.2867 H   0  0  0  0  0  0  0  0  0  0  0  0
  2  1  2  0
  3  2  1  0
  4  5  1  0
  4  3  2  0
  5  6  2  0
  6  1  1  0
  7  5  1  0
  8  7  2  0
  9  8  1  0
 10  9  2  0
 10 11  1  0
 11  7  1  0
 12 13  1  0
 12  3  1  0
 14 15  2  0
 14 13  1  0
 16 14  2  0
 17 18  1  0
 17 14  1  0
  1 19  1  0
  2 20  1  0
  8 21  1  0
  9 22  1  0
 10 23  1  0
 12 24  1  0
 12 25  1  0
 13 26  1  0
 17 27  1  0
 17 28  1  0
 18 29  1  0
M  ISO  8  19  14  20  14  21  14  22  14  23  14  24   8  25   8  26   5
M  ISO  3  27   8  28   8  29   3
M  END
>  <minimizedAffinity>  (1) 
-3.81229901

>  <minimizedRMSD>  (1) 
0.287162155

$$$$
