
     RDKit          3D

 38 39  0  0  0  0  0  0  0  0999 V2000
   37.5730   23.1240   37.2070 C   0  0  0  0  0  0  0  0  0  0  0  0
   38.4720   24.1140   36.8080 C   0  0  0  0  0  0  0  0  0  0  0  0
   38.8940   24.1680   35.4840 C   0  0  0  0  0  0  0  0  0  0  0  0
   38.4070   23.2450   34.6310 N   0  0  0  0  0  0  0  0  0  0  0  0
   37.5170   22.2790   35.0640 C   0  0  0  0  0  0  0  0  0  0  0  0
   37.1180   22.2240   36.3030 N   0  0  0  0  0  0  0  0  0  0  0  0
   37.0300   21.3240   34.0940 C   0  0  0  0  0  0  0  0  0  0  0  0
   35.7840   20.7370   34.2930 C   0  0  0  0  0  0  0  0  0  0  0  0
   35.5350   19.8600   33.2450 C   0  0  0  0  0  0  0  0  0  0  0  0
   36.6640   19.9630   32.4480 C   0  0  0  0  0  0  0  0  0  0  0  0
   37.4720   20.8180   32.9970 O   0  0  0  0  0  0  0  0  0  0  0  0
   39.8390   25.2280   35.1020 C   0  0  0  0  0  0  0  0  0  0  0  0
   39.1860   26.0900   34.1940 N   0  0  0  0  0  0  0  0  0  0  0  0
   39.9040   26.0560   32.6690 S   0  0  0  0  0  0  0  0  0  0  0  0
   40.2460   27.3790   32.0920 O   0  0  0  0  0  0  0  0  0  0  0  0
   41.1560   25.2350   32.7560 O   0  0  0  0  0  0  0  0  0  0  0  0
   38.7670   25.1930   31.5880 C   0  0  0  0  0  0  0  0  0  0  0  0
   37.0480   25.5050   32.0860 S   0  0  0  0  0  0  0  0  0  0  0  0
   35.9230   24.6710   30.9660 C   0  0  0  0  0  0  0  0  0  0  0  0
   34.6000   25.4270   30.7790 C   0  0  0  0  0  0  0  0  0  0  0  0
   35.5080   23.2940   31.4390 C   0  0  0  0  0  0  0  0  0  0  0  0
   37.2349   23.0748   38.2526 H   0  0  0  0  0  0  0  0  0  0  0  0
   38.8451   24.8481   37.5373 H   0  0  0  0  0  0  0  0  0  0  0  0
   35.1091   20.9345   35.1389 H   0  0  0  0  0  0  0  0  0  0  0  0
   34.6476   19.2300   33.0849 H   0  0  0  0  0  0  0  0  0  0  0  0
   36.8444   19.4148   31.5116 H   0  0  0  0  0  0  0  0  0  0  0  0
   40.1483   25.7915   35.9946 H   0  0  0  0  0  0  0  0  0  0  0  0
   40.7347   24.7910   34.6364 H   0  0  0  0  0  0  0  0  0  0  0  0
   38.2024   25.7975   34.1057 H   0  0  0  0  0  0  0  0  0  0  0  0
   38.9680   24.1128   31.6404 H   0  0  0  0  0  0  0  0  0  0  0  0
   38.9097   25.5576   30.5601 H   0  0  0  0  0  0  0  0  0  0  0  0
   36.5045   24.6161   30.0339 H   0  0  0  0  0  0  0  0  0  0  0  0
   34.1743   25.6702   31.7637 H   0  0  0  0  0  0  0  0  0  0  0  0
   34.7845   26.3560   30.2197 H   0  0  0  0  0  0  0  0  0  0  0  0
   33.8932   24.7964   30.2197 H   0  0  0  0  0  0  0  0  0  0  0  0
   35.5010   23.2707   32.5387 H   0  0  0  0  0  0  0  0  0  0  0  0
   34.5008   23.0646   31.0610 H   0  0  0  0  0  0  0  0  0  0  0  0
   36.2207   22.5462   31.0610 H   0  0  0  0  0  0  0  0  0  0  0  0
  2  1  2  0
  3  2  1  0
  4  5  1  0
  4  3  2  0
  5  6  2  0
  6  1  1  0
  7  8  2  0
  7  5  1  0
  9  8  1  0
 10 11  1  0
 10  9  2  0
 11  7  1  0
 12  3  1  0
 13 12  1  0
 14 16  2  0
 14 13  1  0
 15 14  2  0
 17 18  1  0
 17 14  1  0
 19 21  1  0
 19 18  1  0
 20 19  1  0
  1 22  1  0
  2 23  1  0
  8 24  1  0
  9 25  1  0
 10 26  1  0
 12 27  1  0
 12 28  1  0
 13 29  1  0
 17 30  1  0
 17 31  1  0
 19 32  1  0
 20 33  1  0
 20 34  1  0
 20 35  1  0
 21 36  1  0
 21 37  1  0
 21 38  1  0
M  ISO  8  22  14  23  14  24  14  25  14  26  14  27   8  28   8  29   5
M  ISO  8  30   8  31   8  32   8  33   8  34   8  35   8  36   8  37   8
M  ISO  1  38   8
M  END
>  <minimizedAffinity>  (1) 
-4.10115194

>  <minimizedRMSD>  (1) 
2.38611078

$$$$
