
     RDKit          3D

 47 51  0  0  0  0  0  0  0  0999 V2000
   36.5750   23.7250   31.9100 C   0  0  0  0  0  0  0  0  0  0  0  0
   36.1200   25.0350   31.7720 C   0  0  0  0  0  0  0  0  0  0  0  0
   36.7280   25.9430   32.6230 C   0  0  0  0  0  0  0  0  0  0  0  0
   37.6530   25.5070   33.4630 N   0  0  0  0  0  0  0  0  0  0  0  0
   38.0950   24.2780   33.6090 C   0  0  0  0  0  0  0  0  0  0  0  0
   37.5190   23.4190   32.8010 N   0  0  0  0  0  0  0  0  0  0  0  0
   39.0860   23.6860   34.4760 C   0  0  0  0  0  0  0  0  0  0  0  0
   40.2600   23.1500   33.9810 C   0  0  0  0  0  0  0  0  0  0  0  0
   41.2320   22.5750   34.7720 C   0  0  0  0  0  0  0  0  0  0  0  0
   41.0720   22.5080   36.1360 C   0  0  0  0  0  0  0  0  0  0  0  0
   39.9350   23.0230   36.6670 C   0  0  0  0  0  0  0  0  0  0  0  0
   39.7630   22.9610   38.0470 C   0  0  0  0  0  0  0  0  0  0  0  0
   38.6610   23.4500   38.6620 C   0  0  0  0  0  0  0  0  0  0  0  0
   37.6930   24.0250   37.8490 C   0  0  0  0  0  0  0  0  0  0  0  0
   37.8830   24.0750   36.4910 C   0  0  0  0  0  0  0  0  0  0  0  0
   38.9770   23.5920   35.8590 C   0  0  0  0  0  0  0  0  0  0  0  0
   36.3680   27.3090   32.5970 N   0  0  0  0  0  0  0  0  0  0  0  0
   36.0330   28.0440   31.5230 C   0  0  0  0  0  0  0  0  0  0  0  0
   35.7540   29.2920   31.8750 N   0  0  0  0  0  0  0  0  0  0  0  0
   35.9090   29.3710   33.1950 C   0  0  0  0  0  0  0  0  0  0  0  0
   36.2820   28.1570   33.6140 N   0  0  0  0  0  0  0  0  0  0  0  0
   35.7130   30.5260   33.9790 N   0  0  0  0  0  0  0  0  0  0  0  0
   35.3100   31.7830   33.4250 C   0  0  0  0  0  0  0  0  0  0  0  0
   36.2000   32.9090   33.9000 C   0  0  0  0  0  0  0  0  0  0  0  0
   36.4010   32.9000   35.3920 C   0  0  0  0  0  0  0  0  0  0  0  0
   35.7010   31.7700   36.0910 C   0  0  0  0  0  0  0  0  0  0  0  0
   35.9260   30.4480   35.4260 C   0  0  0  0  0  0  0  0  0  0  0  0
   36.1500   22.9331   31.2758 H   0  0  0  0  0  0  0  0  0  0  0  0
   35.3435   25.3235   31.0483 H   0  0  0  0  0  0  0  0  0  0  0  0
   40.4284   23.1841   32.8945 H   0  0  0  0  0  0  0  0  0  0  0  0
   42.1422   22.1668   34.3084 H   0  0  0  0  0  0  0  0  0  0  0  0
   41.8413   22.0514   36.7760 H   0  0  0  0  0  0  0  0  0  0  0  0
   40.5508   22.4981   38.6594 H   0  0  0  0  0  0  0  0  0  0  0  0
   38.5380   23.3946   39.7537 H   0  0  0  0  0  0  0  0  0  0  0  0
   36.7758   24.4395   38.2928 H   0  0  0  0  0  0  0  0  0  0  0  0
   37.0957   24.5372   35.8774 H   0  0  0  0  0  0  0  0  0  0  0  0
   35.9953   27.6624   30.4920 H   0  0  0  0  0  0  0  0  0  0  0  0
   34.2744   31.9927   33.7308 H   0  0  0  0  0  0  0  0  0  0  0  0
   35.3897   31.7188   32.3298 H   0  0  0  0  0  0  0  0  0  0  0  0
   37.1811   32.8120   33.4120 H   0  0  0  0  0  0  0  0  0  0  0  0
   35.7069   33.8563   33.6366 H   0  0  0  0  0  0  0  0  0  0  0  0
   37.4789   32.8196   35.5963 H   0  0  0  0  0  0  0  0  0  0  0  0
   35.9676   33.8339   35.7793 H   0  0  0  0  0  0  0  0  0  0  0  0
   36.0735   31.7115   37.1244 H   0  0  0  0  0  0  0  0  0  0  0  0
   34.6214   31.9780   36.0574 H   0  0  0  0  0  0  0  0  0  0  0  0
   35.2269   29.7121   35.8500 H   0  0  0  0  0  0  0  0  0  0  0  0
   36.9694   30.1483   35.6032 H   0  0  0  0  0  0  0  0  0  0  0  0
  1  6  2  0
  2  1  1  0
  2  3  2  0
  3  4  1  0
  4  5  2  0
  5  7  1  0
  6  5  1  0
  7 16  1  0
  8  7  2  0
  8  9  1  0
  9 10  2  0
 10 11  1  0
 11 12  2  0
 12 13  1  0
 14 13  2  0
 15 14  1  0
 16 15  2  0
 16 11  1  0
 17  3  1  0
 17 21  1  0
 18 19  2  0
 18 17  1  0
 19 20  1  0
 20 21  2  0
 20 22  1  0
 22 27  1  0
 23 24  1  0
 23 22  1  0
 24 25  1  0
 25 26  1  0
 27 26  1  0
  1 28  1  0
  2 29  1  0
  8 30  1  0
  9 31  1  0
 10 32  1  0
 12 33  1  0
 13 34  1  0
 14 35  1  0
 15 36  1  0
 18 37  1  0
 23 38  1  0
 23 39  1  0
 24 40  1  0
 24 41  1  0
 25 42  1  0
 25 43  1  0
 26 44  1  0
 26 45  1  0
 27 46  1  0
 27 47  1  0
M  ISO  8  28  14  29  14  30  14  31  14  32  14  33  14  34  14  35  14
M  ISO  8  36  14  37  14  38  13  39  13  40  13  41  13  42  13  43  13
M  ISO  4  44  13  45  13  46  13  47  13
M  END
>  <minimizedAffinity>  (1) 
-7.14501667

>  <minimizedRMSD>  (1) 
1.14876306

$$$$
