
     RDKit          3D

 49 52  0  0  0  0  0  0  0  0999 V2000
   38.7050   25.2060   32.9790 N   0  0  0  0  0  0  0  0  0  0  0  0
   39.4910   24.3150   33.7730 C   0  0  0  0  0  0  0  0  0  0  0  0
   37.5530   22.4020   36.3670 C   0  0  0  0  0  0  0  0  0  0  0  0
   38.4360   23.2870   35.7680 C   0  0  0  0  0  0  0  0  0  0  0  0
   38.5370   23.3530   34.3850 C   0  0  0  0  0  0  0  0  0  0  0  0
   37.7390   22.5210   33.6850 N   0  0  0  0  0  0  0  0  0  0  0  0
   36.8750   21.6540   34.3020 C   0  0  0  0  0  0  0  0  0  0  0  0
   36.7860   21.5980   35.6040 N   0  0  0  0  0  0  0  0  0  0  0  0
   36.0510   20.7910   33.4860 C   0  0  0  0  0  0  0  0  0  0  0  0
   35.2410   21.3580   32.5150 C   0  0  0  0  0  0  0  0  0  0  0  0
   34.5560   20.3220   31.8770 C   0  0  0  0  0  0  0  0  0  0  0  0
   34.9930   19.1730   32.5020 C   0  0  0  0  0  0  0  0  0  0  0  0
   35.8540   19.5030   33.4240 O   0  0  0  0  0  0  0  0  0  0  0  0
   39.1200   24.9940   31.3480 S   0  0  0  0  0  0  0  0  0  0  0  0
   39.5730   26.2860   30.7070 O   0  0  0  0  0  0  0  0  0  0  0  0
   40.2280   24.0130   31.2460 O   0  0  0  0  0  0  0  0  0  0  0  0
   37.6740   24.4200   30.5020 C   0  0  0  0  0  0  0  0  0  0  0  0
   36.1530   24.9930   31.2350 S   0  0  0  0  0  0  0  0  0  0  0  0
   36.0590   26.7520   31.4110 C   0  0  0  0  0  0  0  0  0  0  0  0
   36.4880   27.6140   30.4490 N   0  0  0  0  0  0  0  0  0  0  0  0
   36.2990   28.8440   30.8420 O   0  0  0  0  0  0  0  0  0  0  0  0
   35.7520   28.8370   32.0450 C   0  0  0  0  0  0  0  0  0  0  0  0
   35.6100   27.5530   32.3860 N   0  0  0  0  0  0  0  0  0  0  0  0
   35.3930   29.9800   32.8140 N   0  0  0  0  0  0  0  0  0  0  0  0
   34.7950   29.8380   34.1320 C   0  0  0  0  0  0  0  0  0  0  0  0
   35.7670   30.5280   35.0670 C   0  0  0  0  0  0  0  0  0  0  0  0
   35.8750   31.9670   34.6990 C   0  0  0  0  0  0  0  0  0  0  0  0
   35.3570   32.3450   33.3560 C   0  0  0  0  0  0  0  0  0  0  0  0
   35.6220   31.3100   32.2820 C   0  0  0  0  0  0  0  0  0  0  0  0
   37.7051   24.9977   33.1118 H   0  0  0  0  0  0  0  0  0  0  0  0
   40.2176   23.7822   33.1420 H   0  0  0  0  0  0  0  0  0  0  0  0
   40.0598   24.8590   34.5415 H   0  0  0  0  0  0  0  0  0  0  0  0
   37.4784   22.3559   37.4635 H   0  0  0  0  0  0  0  0  0  0  0  0
   39.0611   23.9417   36.3930 H   0  0  0  0  0  0  0  0  0  0  0  0
   35.1535   22.4307   32.2879 H   0  0  0  0  0  0  0  0  0  0  0  0
   33.8280   20.4042   31.0565 H   0  0  0  0  0  0  0  0  0  0  0  0
   34.6694   18.1493   32.2627 H   0  0  0  0  0  0  0  0  0  0  0  0
   37.6753   23.3201   30.5155 H   0  0  0  0  0  0  0  0  0  0  0  0
   37.7142   24.8224   29.4790 H   0  0  0  0  0  0  0  0  0  0  0  0
   33.8098   30.3260   34.1664 H   0  0  0  0  0  0  0  0  0  0  0  0
   34.6290   28.7853   34.4044 H   0  0  0  0  0  0  0  0  0  0  0  0
   35.4047   30.4406   36.1019 H   0  0  0  0  0  0  0  0  0  0  0  0
   36.7557   30.0533   34.9828 H   0  0  0  0  0  0  0  0  0  0  0  0
   35.3174   32.5474   35.4488 H   0  0  0  0  0  0  0  0  0  0  0  0
   36.9534   32.1817   34.6684 H   0  0  0  0  0  0  0  0  0  0  0  0
   34.2698   32.4933   33.4333 H   0  0  0  0  0  0  0  0  0  0  0  0
   35.8878   33.2603   33.0552 H   0  0  0  0  0  0  0  0  0  0  0  0
   36.6655   31.3934   31.9440 H   0  0  0  0  0  0  0  0  0  0  0  0
   34.9428   31.4840   31.4344 H   0  0  0  0  0  0  0  0  0  0  0  0
  1  2  1  0
  2  5  1  0
  4  3  2  0
  5  4  1  0
  6  7  1  0
  6  5  2  0
  7  8  2  0
  8  3  1  0
  9  7  1  0
 10  9  2  0
 11 12  2  0
 11 10  1  0
 12 13  1  0
 13  9  1  0
 14  1  1  0
 15 14  2  0
 16 14  2  0
 17 18  1  0
 17 14  1  0
 18 19  1  0
 19 23  1  0
 20 21  1  0
 20 19  2  0
 21 22  1  0
 22 23  2  0
 22 24  1  0
 24 25  1  0
 25 26  1  0
 27 26  1  0
 28 27  1  0
 29 24  1  0
 29 28  1  0
  1 30  1  0
  2 31  1  0
  2 32  1  0
  3 33  1  0
  4 34  1  0
 10 35  1  0
 11 36  1  0
 12 37  1  0
 17 38  1  0
 17 39  1  0
 25 40  1  0
 25 41  1  0
 26 42  1  0
 26 43  1  0
 27 44  1  0
 27 45  1  0
 28 46  1  0
 28 47  1  0
 29 48  1  0
 29 49  1  0
M  ISO  8  30   5  31   8  32   8  33  14  34  14  35  14  36  14  37  14
M  ISO  8  38   8  39   8  40  13  41  13  42  13  43  13  44  13  45  13
M  ISO  4  46  13  47  13  48  13  49  13
M  END
>  <minimizedAffinity>  (1) 
-5.0815444

>  <minimizedRMSD>  (1) 
0.97498107

$$$$
