
     RDKit          3D

 50 53  0  0  0  0  0  0  0  0999 V2000
   38.9940   25.1000   32.9340 N   0  0  0  0  0  0  0  0  0  0  0  0
   39.7200   24.0710   33.6130 C   0  0  0  0  0  0  0  0  0  0  0  0
   37.6420   22.3920   36.2590 C   0  0  0  0  0  0  0  0  0  0  0  0
   38.5830   23.1950   35.6370 C   0  0  0  0  0  0  0  0  0  0  0  0
   38.7030   23.1990   34.2520 C   0  0  0  0  0  0  0  0  0  0  0  0
   37.8660   22.3900   33.5780 N   0  0  0  0  0  0  0  0  0  0  0  0
   36.9430   21.6020   34.2180 C   0  0  0  0  0  0  0  0  0  0  0  0
   36.8310   21.6000   35.5130 N   0  0  0  0  0  0  0  0  0  0  0  0
   36.0750   20.7580   33.4220 C   0  0  0  0  0  0  0  0  0  0  0  0
   35.2240   21.3450   32.5010 C   0  0  0  0  0  0  0  0  0  0  0  0
   34.5070   20.3260   31.8750 C   0  0  0  0  0  0  0  0  0  0  0  0
   34.9670   19.1640   32.4570 C   0  0  0  0  0  0  0  0  0  0  0  0
   35.8700   19.4740   33.3410 O   0  0  0  0  0  0  0  0  0  0  0  0
   39.3010   24.9500   31.2640 S   0  0  0  0  0  0  0  0  0  0  0  0
   39.6260   26.2920   30.6450 O   0  0  0  0  0  0  0  0  0  0  0  0
   40.4480   24.0470   31.0530 O   0  0  0  0  0  0  0  0  0  0  0  0
   37.8300   24.3250   30.5090 C   0  0  0  0  0  0  0  0  0  0  0  0
   36.3290   24.8810   31.2990 S   0  0  0  0  0  0  0  0  0  0  0  0
   36.1910   26.6410   31.4250 C   0  0  0  0  0  0  0  0  0  0  0  0
   36.3950   27.4710   30.3580 N   0  0  0  0  0  0  0  0  0  0  0  0
   36.2300   28.7090   30.7330 O   0  0  0  0  0  0  0  0  0  0  0  0
   35.9210   28.7430   32.0170 C   0  0  0  0  0  0  0  0  0  0  0  0
   35.9000   27.4710   32.4330 N   0  0  0  0  0  0  0  0  0  0  0  0
   35.6530   29.9860   32.8180 C   0  0  0  0  0  0  0  0  0  0  0  0
   34.5730   30.8230   32.2150 C   0  0  0  0  0  0  0  0  0  0  0  0
   33.1880   30.3080   32.4560 C   0  0  0  0  0  0  0  0  0  0  0  0
   33.0110   29.5050   33.6980 C   0  0  0  0  0  0  0  0  0  0  0  0
   34.0220   29.8570   34.7410 C   0  0  0  0  0  0  0  0  0  0  0  0
   35.4230   29.6680   34.2690 C   0  0  0  0  0  0  0  0  0  0  0  0
   37.9856   24.9933   33.1147 H   0  0  0  0  0  0  0  0  0  0  0  0
   40.3220   23.4928   32.8965 H   0  0  0  0  0  0  0  0  0  0  0  0
   40.4111   24.4928   34.3577 H   0  0  0  0  0  0  0  0  0  0  0  0
   37.5520   22.3960   37.3553 H   0  0  0  0  0  0  0  0  0  0  0  0
   39.2408   23.8348   36.2435 H   0  0  0  0  0  0  0  0  0  0  0  0
   35.1303   22.4223   32.2993 H   0  0  0  0  0  0  0  0  0  0  0  0
   33.7430   20.4270   31.0901 H   0  0  0  0  0  0  0  0  0  0  0  0
   34.6277   18.1460   32.2148 H   0  0  0  0  0  0  0  0  0  0  0  0
   37.8121   24.6523   29.4590 H   0  0  0  0  0  0  0  0  0  0  0  0
   37.8585   23.2296   30.6056 H   0  0  0  0  0  0  0  0  0  0  0  0
   36.5598   30.6075   32.7809 H   0  0  0  0  0  0  0  0  0  0  0  0
   34.7391   30.8696   31.1286 H   0  0  0  0  0  0  0  0  0  0  0  0
   34.6312   31.8092   32.6988 H   0  0  0  0  0  0  0  0  0  0  0  0
   32.5096   31.1722   32.5113 H   0  0  0  0  0  0  0  0  0  0  0  0
   32.9691   29.6262   31.6210 H   0  0  0  0  0  0  0  0  0  0  0  0
   32.0048   29.6918   34.1013 H   0  0  0  0  0  0  0  0  0  0  0  0
   33.1452   28.4444   33.4389 H   0  0  0  0  0  0  0  0  0  0  0  0
   33.8846   30.9113   35.0230 H   0  0  0  0  0  0  0  0  0  0  0  0
   33.8654   29.1840   35.5969 H   0  0  0  0  0  0  0  0  0  0  0  0
   35.7004   28.6168   34.4361 H   0  0  0  0  0  0  0  0  0  0  0  0
   36.0384   30.3783   34.8406 H   0  0  0  0  0  0  0  0  0  0  0  0
  1  2  1  0
  2  5  1  0
  4  3  2  0
  5  4  1  0
  6  7  1  0
  6  5  2  0
  7  8  2  0
  8  3  1  0
  9  7  1  0
 10  9  2  0
 11 12  2  0
 11 10  1  0
 12 13  1  0
 13  9  1  0
 14  1  1  0
 15 14  2  0
 16 14  2  0
 17 14  1  0
 17 18  1  0
 18 19  1  0
 19 23  1  0
 20 21  1  0
 20 19  2  0
 21 22  1  0
 22 23  2  0
 22 24  1  0
 24 29  1  0
 25 26  1  0
 25 24  1  0
 26 27  1  0
 27 28  1  0
 29 28  1  0
  1 30  1  0
  2 31  1  0
  2 32  1  0
  3 33  1  0
  4 34  1  0
 10 35  1  0
 11 36  1  0
 12 37  1  0
 17 38  1  0
 17 39  1  0
 24 40  1  0
 25 41  1  0
 25 42  1  0
 26 43  1  0
 26 44  1  0
 27 45  1  0
 27 46  1  0
 28 47  1  0
 28 48  1  0
 29 49  1  0
 29 50  1  0
M  ISO  8  30   5  31   8  32   8  33  14  34  14  35  14  36  14  37  14
M  ISO  8  38   8  39   8  40  13  41  13  42  13  43  13  44  13  45  13
M  ISO  5  46  13  47  13  48  13  49  13  50  13
M  END
>  <minimizedAffinity>  (1) 
-4.94328547

>  <minimizedRMSD>  (1) 
0.91013664

$$$$
