
     RDKit          3D

 47 50  0  0  0  0  0  0  0  0999 V2000
   38.9810   25.1480   32.9120 N   0  0  0  0  0  0  0  0  0  0  0  0
   39.7140   24.0930   33.5490 C   0  0  0  0  0  0  0  0  0  0  0  0
   37.6810   22.4120   36.2180 C   0  0  0  0  0  0  0  0  0  0  0  0
   38.6100   23.2190   35.5820 C   0  0  0  0  0  0  0  0  0  0  0  0
   38.7140   23.2200   34.1960 C   0  0  0  0  0  0  0  0  0  0  0  0
   37.8780   22.4070   33.5420 N   0  0  0  0  0  0  0  0  0  0  0  0
   36.9610   21.6120   34.1770 C   0  0  0  0  0  0  0  0  0  0  0  0
   36.8700   21.6190   35.4820 N   0  0  0  0  0  0  0  0  0  0  0  0
   36.0900   20.7640   33.4030 C   0  0  0  0  0  0  0  0  0  0  0  0
   35.2210   21.3420   32.4840 C   0  0  0  0  0  0  0  0  0  0  0  0
   34.4910   20.3190   31.8700 C   0  0  0  0  0  0  0  0  0  0  0  0
   34.9740   19.1640   32.4670 C   0  0  0  0  0  0  0  0  0  0  0  0
   35.8900   19.4790   33.3400 O   0  0  0  0  0  0  0  0  0  0  0  0
   39.1620   24.9770   31.2260 S   0  0  0  0  0  0  0  0  0  0  0  0
   39.5170   26.2850   30.5640 O   0  0  0  0  0  0  0  0  0  0  0  0
   40.2320   24.0050   30.9410 O   0  0  0  0  0  0  0  0  0  0  0  0
   37.6000   24.4340   30.5850 C   0  0  0  0  0  0  0  0  0  0  0  0
   36.2020   25.0970   31.4710 S   0  0  0  0  0  0  0  0  0  0  0  0
   36.1500   26.8720   31.5390 C   0  0  0  0  0  0  0  0  0  0  0  0
   36.3930   27.6470   30.4450 N   0  0  0  0  0  0  0  0  0  0  0  0
   36.2900   28.9080   30.7580 O   0  0  0  0  0  0  0  0  0  0  0  0
   35.9800   28.9970   32.0540 C   0  0  0  0  0  0  0  0  0  0  0  0
   35.9000   27.7560   32.5140 N   0  0  0  0  0  0  0  0  0  0  0  0
   35.7350   30.0860   32.9630 N   0  0  0  0  0  0  0  0  0  0  0  0
   35.6060   31.5220   32.7380 C   0  0  0  0  0  0  0  0  0  0  0  0
   34.1650   31.8630   33.1390 C   0  0  0  0  0  0  0  0  0  0  0  0
   33.5390   30.7980   33.7880 O   0  0  0  0  0  0  0  0  0  0  0  0
   34.2930   30.3470   34.8620 C   0  0  0  0  0  0  0  0  0  0  0  0
   35.5930   29.7770   34.3950 C   0  0  0  0  0  0  0  0  0  0  0  0
   37.9846   25.0824   33.1644 H   0  0  0  0  0  0  0  0  0  0  0  0
   40.2885   23.5248   32.8026 H   0  0  0  0  0  0  0  0  0  0  0  0
   40.4288   24.4921   34.2837 H   0  0  0  0  0  0  0  0  0  0  0  0
   37.6035   22.4163   37.3153 H   0  0  0  0  0  0  0  0  0  0  0  0
   39.2710   23.8645   36.1789 H   0  0  0  0  0  0  0  0  0  0  0  0
   35.1244   22.4178   32.2759 H   0  0  0  0  0  0  0  0  0  0  0  0
   33.7155   20.4093   31.0951 H   0  0  0  0  0  0  0  0  0  0  0  0
   34.6370   18.1419   32.2396 H   0  0  0  0  0  0  0  0  0  0  0  0
   37.5268   24.7475   29.5332 H   0  0  0  0  0  0  0  0  0  0  0  0
   37.5659   23.3402   30.6962 H   0  0  0  0  0  0  0  0  0  0  0  0
   36.3219   32.0764   33.3627 H   0  0  0  0  0  0  0  0  0  0  0  0
   35.8184   31.7957   31.6940 H   0  0  0  0  0  0  0  0  0  0  0  0
   34.1799   32.7314   33.8140 H   0  0  0  0  0  0  0  0  0  0  0  0
   33.5991   32.0830   32.2217 H   0  0  0  0  0  0  0  0  0  0  0  0
   34.4916   31.1885   35.5420 H   0  0  0  0  0  0  0  0  0  0  0  0
   33.7291   29.5591   35.3828 H   0  0  0  0  0  0  0  0  0  0  0  0
   35.5982   28.6872   34.5443 H   0  0  0  0  0  0  0  0  0  0  0  0
   36.4279   30.2107   34.9649 H   0  0  0  0  0  0  0  0  0  0  0  0
  1  2  1  0
  2  5  1  0
  4  3  2  0
  5  4  1  0
  6  7  1  0
  6  5  2  0
  7  8  2  0
  8  3  1  0
  9  7  1  0
 10  9  2  0
 11 12  2  0
 11 10  1  0
 12 13  1  0
 13  9  1  0
 14  1  1  0
 15 14  2  0
 16 14  2  0
 17 14  1  0
 17 18  1  0
 18 19  1  0
 19 23  1  0
 20 21  1  0
 20 19  2  0
 21 22  1  0
 22 23  2  0
 22 24  1  0
 24 29  1  0
 25 24  1  0
 25 26  1  0
 26 27  1  0
 27 28  1  0
 29 28  1  0
  1 30  1  0
  2 31  1  0
  2 32  1  0
  3 33  1  0
  4 34  1  0
 10 35  1  0
 11 36  1  0
 12 37  1  0
 17 38  1  0
 17 39  1  0
 25 40  1  0
 25 41  1  0
 26 42  1  0
 26 43  1  0
 28 44  1  0
 28 45  1  0
 29 46  1  0
 29 47  1  0
M  ISO  8  30   5  31   8  32   8  33  14  34  14  35  14  36  14  37  14
M  ISO  8  38   8  39   8  40  13  41  13  42  13  43  13  44  13  45  13
M  ISO  2  46  13  47  13
M  END
>  <minimizedAffinity>  (1) 
-4.90612602

>  <minimizedRMSD>  (1) 
0.93030107

$$$$
