
     RDKit          3D

 40 43  0  0  0  0  0  0  0  0999 V2000
   39.6160   24.1850   33.6250 C   0  0  0  0  0  0  0  0  0  0  0  0
   37.6320   22.3830   36.2640 C   0  0  0  0  0  0  0  0  0  0  0  0
   38.5400   23.2290   35.6460 C   0  0  0  0  0  0  0  0  0  0  0  0
   38.6370   23.2670   34.2610 C   0  0  0  0  0  0  0  0  0  0  0  0
   37.8100   22.4490   33.5850 N   0  0  0  0  0  0  0  0  0  0  0  0
   36.9200   21.6200   34.2180 C   0  0  0  0  0  0  0  0  0  0  0  0
   36.8360   21.5900   35.5170 N   0  0  0  0  0  0  0  0  0  0  0  0
   36.0640   20.7690   33.4240 C   0  0  0  0  0  0  0  0  0  0  0  0
   35.2190   21.3450   32.4920 C   0  0  0  0  0  0  0  0  0  0  0  0
   34.5090   20.3210   31.8670 C   0  0  0  0  0  0  0  0  0  0  0  0
   34.9690   19.1650   32.4630 C   0  0  0  0  0  0  0  0  0  0  0  0
   35.8610   19.4840   33.3500 O   0  0  0  0  0  0  0  0  0  0  0  0
   38.8450   25.1550   32.9080 N   0  0  0  0  0  0  0  0  0  0  0  0
   39.1720   24.9670   31.2460 S   0  0  0  0  0  0  0  0  0  0  0  0
   39.5280   26.2890   30.6020 O   0  0  0  0  0  0  0  0  0  0  0  0
   40.3050   24.0390   31.0670 O   0  0  0  0  0  0  0  0  0  0  0  0
   37.7030   24.3490   30.4800 C   0  0  0  0  0  0  0  0  0  0  0  0
   36.2040   24.9470   31.2380 S   0  0  0  0  0  0  0  0  0  0  0  0
   36.1580   26.6990   31.4640 C   0  0  0  0  0  0  0  0  0  0  0  0
   36.3750   27.5710   30.4500 N   0  0  0  0  0  0  0  0  0  0  0  0
   36.2760   28.8050   30.8920 O   0  0  0  0  0  0  0  0  0  0  0  0
   35.9980   28.7730   32.1840 C   0  0  0  0  0  0  0  0  0  0  0  0
   35.9270   27.4750   32.5260 N   0  0  0  0  0  0  0  0  0  0  0  0
   35.7860   29.7960   33.1560 N   0  0  0  0  0  0  0  0  0  0  0  0
   35.4920   31.0990   32.9690 C   0  0  0  0  0  0  0  0  0  0  0  0
   35.3680   31.7400   34.1470 N   0  0  0  0  0  0  0  0  0  0  0  0
   35.5920   30.8070   35.0920 C   0  0  0  0  0  0  0  0  0  0  0  0
   35.8440   29.6360   34.4850 N   0  0  0  0  0  0  0  0  0  0  0  0
   40.2310   24.6780   34.3923 H   0  0  0  0  0  0  0  0  0  0  0  0
   40.2996   23.6417   32.9561 H   0  0  0  0  0  0  0  0  0  0  0  0
   37.5607   22.3583   37.3614 H   0  0  0  0  0  0  0  0  0  0  0  0
   39.1881   23.8746   36.2568 H   0  0  0  0  0  0  0  0  0  0  0  0
   35.1242   22.4205   32.2815 H   0  0  0  0  0  0  0  0  0  0  0  0
   33.7511   20.4140   31.0752 H   0  0  0  0  0  0  0  0  0  0  0  0
   34.6356   18.1439   32.2261 H   0  0  0  0  0  0  0  0  0  0  0  0
   37.8417   25.0043   33.0857 H   0  0  0  0  0  0  0  0  0  0  0  0
   37.7120   23.2509   30.5438 H   0  0  0  0  0  0  0  0  0  0  0  0
   37.7050   24.7050   29.4392 H   0  0  0  0  0  0  0  0  0  0  0  0
   35.3697   31.5750   31.9849 H   0  0  0  0  0  0  0  0  0  0  0  0
   35.5719   30.9758   36.1788 H   0  0  0  0  0  0  0  0  0  0  0  0
  1  4  1  0
  3  2  2  0
  4  3  1  0
  5  6  1  0
  5  4  2  0
  6  7  2  0
  7  2  1  0
  8  6  1  0
  9  8  2  0
 10 11  2  0
 10  9  1  0
 11 12  1  0
 12  8  1  0
 13  1  1  0
 14 13  1  0
 15 14  2  0
 16 14  2  0
 17 18  1  0
 17 14  1  0
 18 19  1  0
 19 23  1  0
 20 21  1  0
 20 19  2  0
 21 22  1  0
 22 23  2  0
 22 24  1  0
 24 28  1  0
 25 24  1  0
 25 26  2  0
 26 27  1  0
 28 27  2  0
  1 29  1  0
  1 30  1  0
  2 31  1  0
  3 32  1  0
  9 33  1  0
 10 34  1  0
 11 35  1  0
 13 36  1  0
 17 37  1  0
 17 38  1  0
 25 39  1  0
 27 40  1  0
M  ISO  8  29   8  30   8  31  14  32  14  33  14  34  14  35  14  36   5
M  ISO  4  37   8  38   8  39  14  40  14
M  END
>  <minimizedAffinity>  (1) 
-4.83687067

>  <minimizedRMSD>  (1) 
0.632188976

$$$$
