
     RDKit          3D

 42 45  0  0  0  0  0  0  0  0999 V2000
   38.9970   25.1070   32.9460 N   0  0  0  0  0  0  0  0  0  0  0  0
   39.7240   24.0610   33.6030 C   0  0  0  0  0  0  0  0  0  0  0  0
   37.6480   22.3840   36.2490 C   0  0  0  0  0  0  0  0  0  0  0  0
   38.5880   23.1860   35.6250 C   0  0  0  0  0  0  0  0  0  0  0  0
   38.7060   23.1890   34.2420 C   0  0  0  0  0  0  0  0  0  0  0  0
   37.8660   22.3790   33.5680 N   0  0  0  0  0  0  0  0  0  0  0  0
   36.9430   21.5940   34.2050 C   0  0  0  0  0  0  0  0  0  0  0  0
   36.8360   21.5950   35.5060 N   0  0  0  0  0  0  0  0  0  0  0  0
   36.0740   20.7490   33.4150 C   0  0  0  0  0  0  0  0  0  0  0  0
   35.2190   21.3390   32.5010 C   0  0  0  0  0  0  0  0  0  0  0  0
   34.4970   20.3230   31.8750 C   0  0  0  0  0  0  0  0  0  0  0  0
   34.9560   19.1570   32.4480 C   0  0  0  0  0  0  0  0  0  0  0  0
   35.8700   19.4640   33.3370 O   0  0  0  0  0  0  0  0  0  0  0  0
   39.2940   24.9880   31.2710 S   0  0  0  0  0  0  0  0  0  0  0  0
   39.5910   26.3410   30.6700 O   0  0  0  0  0  0  0  0  0  0  0  0
   40.4590   24.1140   31.0380 O   0  0  0  0  0  0  0  0  0  0  0  0
   37.8340   24.3440   30.5170 C   0  0  0  0  0  0  0  0  0  0  0  0
   36.3280   24.8890   31.3040 S   0  0  0  0  0  0  0  0  0  0  0  0
   36.2140   26.6390   31.5130 C   0  0  0  0  0  0  0  0  0  0  0  0
   36.2980   27.5030   30.4710 N   0  0  0  0  0  0  0  0  0  0  0  0
   36.1810   28.7350   30.9000 O   0  0  0  0  0  0  0  0  0  0  0  0
   36.0200   28.7170   32.2120 C   0  0  0  0  0  0  0  0  0  0  0  0
   36.0420   27.4250   32.5790 N   0  0  0  0  0  0  0  0  0  0  0  0
   35.8520   29.8780   33.0820 C   0  0  0  0  0  0  0  0  0  0  0  0
   35.6600   29.7000   34.4320 C   0  0  0  0  0  0  0  0  0  0  0  0
   35.5150   30.8580   35.1460 C   0  0  0  0  0  0  0  0  0  0  0  0
   35.5520   32.0850   34.6110 N   0  0  0  0  0  0  0  0  0  0  0  0
   35.7420   32.2280   33.2820 C   0  0  0  0  0  0  0  0  0  0  0  0
   35.8890   31.1050   32.5410 N   0  0  0  0  0  0  0  0  0  0  0  0
   37.9892   25.0005   33.1302 H   0  0  0  0  0  0  0  0  0  0  0  0
   40.3125   23.4877   32.8715 H   0  0  0  0  0  0  0  0  0  0  0  0
   40.4280   24.4662   34.3447 H   0  0  0  0  0  0  0  0  0  0  0  0
   37.5608   22.3876   37.3455 H   0  0  0  0  0  0  0  0  0  0  0  0
   39.2468   23.8262   36.2301 H   0  0  0  0  0  0  0  0  0  0  0  0
   35.1254   22.4170   32.3033 H   0  0  0  0  0  0  0  0  0  0  0  0
   33.7291   20.4293   31.0946 H   0  0  0  0  0  0  0  0  0  0  0  0
   34.6139   18.1410   32.2016 H   0  0  0  0  0  0  0  0  0  0  0  0
   37.8138   24.6662   29.4654 H   0  0  0  0  0  0  0  0  0  0  0  0
   37.8738   23.2493   30.6167 H   0  0  0  0  0  0  0  0  0  0  0  0
   35.6257   28.7054   34.9007 H   0  0  0  0  0  0  0  0  0  0  0  0
   35.3576   30.7757   36.2316 H   0  0  0  0  0  0  0  0  0  0  0  0
   35.7762   33.2242   32.8168 H   0  0  0  0  0  0  0  0  0  0  0  0
  1  2  1  0
  2  5  1  0
  4  3  2  0
  5  4  1  0
  6  7  1  0
  6  5  2  0
  7  8  2  0
  8  3  1  0
  9  7  1  0
 10  9  2  0
 11 12  2  0
 11 10  1  0
 12 13  1  0
 13  9  1  0
 14  1  1  0
 15 14  2  0
 16 14  2  0
 17 14  1  0
 17 18  1  0
 18 19  1  0
 19 23  1  0
 20 21  1  0
 20 19  2  0
 21 22  1  0
 22 23  2  0
 22 24  1  0
 24 25  2  0
 25 26  1  0
 27 26  2  0
 28 27  1  0
 29 24  1  0
 29 28  2  0
  1 30  1  0
  2 31  1  0
  2 32  1  0
  3 33  1  0
  4 34  1  0
 10 35  1  0
 11 36  1  0
 12 37  1  0
 17 38  1  0
 17 39  1  0
 25 40  1  0
 26 41  1  0
 28 42  1  0
M  ISO  8  30   5  31   8  32   8  33  14  34  14  35  14  36  14  37  14
M  ISO  5  38   8  39   8  40  14  41  14  42  14
M  END
>  <minimizedAffinity>  (1) 
-4.81466341

>  <minimizedRMSD>  (1) 
0.614356339

$$$$
