
     RDKit          3D

 48 51  0  0  0  0  0  0  0  0999 V2000
   38.7820   25.1990   33.0650 N   0  0  0  0  0  0  0  0  0  0  0  0
   39.5460   24.2760   33.8540 C   0  0  0  0  0  0  0  0  0  0  0  0
   37.5250   22.4070   36.4180 C   0  0  0  0  0  0  0  0  0  0  0  0
   38.4420   23.2840   35.8310 C   0  0  0  0  0  0  0  0  0  0  0  0
   38.5680   23.3290   34.4510 C   0  0  0  0  0  0  0  0  0  0  0  0
   37.7770   22.5020   33.7350 N   0  0  0  0  0  0  0  0  0  0  0  0
   36.8870   21.6530   34.3410 C   0  0  0  0  0  0  0  0  0  0  0  0
   36.7630   21.6040   35.6340 N   0  0  0  0  0  0  0  0  0  0  0  0
   36.0680   20.7960   33.5030 C   0  0  0  0  0  0  0  0  0  0  0  0
   35.2520   21.3680   32.5450 C   0  0  0  0  0  0  0  0  0  0  0  0
   34.5810   20.3380   31.8860 C   0  0  0  0  0  0  0  0  0  0  0  0
   35.0260   19.1880   32.4830 C   0  0  0  0  0  0  0  0  0  0  0  0
   35.8930   19.5090   33.4210 O   0  0  0  0  0  0  0  0  0  0  0  0
   39.2930   25.0630   31.4420 S   0  0  0  0  0  0  0  0  0  0  0  0
   39.5610   26.4140   30.8370 O   0  0  0  0  0  0  0  0  0  0  0  0
   40.5300   24.2590   31.3830 O   0  0  0  0  0  0  0  0  0  0  0  0
   37.9740   24.2850   30.5470 C   0  0  0  0  0  0  0  0  0  0  0  0
   36.3510   24.7830   31.0950 S   0  0  0  0  0  0  0  0  0  0  0  0
   36.2060   26.5120   31.4450 C   0  0  0  0  0  0  0  0  0  0  0  0
   36.2020   27.4610   30.4640 N   0  0  0  0  0  0  0  0  0  0  0  0
   36.0760   28.6480   30.9910 O   0  0  0  0  0  0  0  0  0  0  0  0
   35.9950   28.5120   32.3170 C   0  0  0  0  0  0  0  0  0  0  0  0
   36.0750   27.2180   32.5890 N   0  0  0  0  0  0  0  0  0  0  0  0
   35.8520   29.7080   33.0620 N   0  0  0  0  0  0  0  0  0  0  0  0
   35.6900   29.6960   34.5170 C   0  0  0  0  0  0  0  0  0  0  0  0
   34.2090   30.0540   34.7050 C   0  0  0  0  0  0  0  0  0  0  0  0
   34.0380   31.4040   34.2740 N   0  0  0  0  0  0  0  0  0  0  0  0
   34.5210   31.7190   32.9860 C   0  0  0  0  0  0  0  0  0  0  0  0
   35.8380   31.0770   32.5920 C   0  0  0  0  0  0  0  0  0  0  0  0
   37.7799   24.9716   33.1353 H   0  0  0  0  0  0  0  0  0  0  0  0
   40.2623   23.7340   33.2190 H   0  0  0  0  0  0  0  0  0  0  0  0
   40.1239   24.7972   34.6315 H   0  0  0  0  0  0  0  0  0  0  0  0
   37.4217   22.3682   37.5125 H   0  0  0  0  0  0  0  0  0  0  0  0
   39.0622   23.9369   36.4627 H   0  0  0  0  0  0  0  0  0  0  0  0
   35.1500   22.4437   32.3391 H   0  0  0  0  0  0  0  0  0  0  0  0
   33.8534   20.4291   31.0660 H   0  0  0  0  0  0  0  0  0  0  0  0
   34.7115   18.1666   32.2223 H   0  0  0  0  0  0  0  0  0  0  0  0
   38.0643   23.1957   30.6710 H   0  0  0  0  0  0  0  0  0  0  0  0
   38.0696   24.5948   29.4959 H   0  0  0  0  0  0  0  0  0  0  0  0
   35.9115   28.7012   34.9309 H   0  0  0  0  0  0  0  0  0  0  0  0
   36.3712   30.3880   35.0338 H   0  0  0  0  0  0  0  0  0  0  0  0
   33.5805   29.3838   34.1002 H   0  0  0  0  0  0  0  0  0  0  0  0
   33.9132   29.9423   35.7586 H   0  0  0  0  0  0  0  0  0  0  0  0
   33.0294   31.6123   34.2897 H   0  0  0  0  0  0  0  0  0  0  0  0
   33.7614   31.4034   32.2557 H   0  0  0  0  0  0  0  0  0  0  0  0
   34.7122   32.8022   32.9987 H   0  0  0  0  0  0  0  0  0  0  0  0
   35.9433   31.0925   31.4972 H   0  0  0  0  0  0  0  0  0  0  0  0
   36.6731   31.6338   33.0420 H   0  0  0  0  0  0  0  0  0  0  0  0
  1  2  1  0
  2  5  1  0
  4  3  2  0
  5  4  1  0
  6  7  1  0
  6  5  2  0
  7  8  2  0
  8  3  1  0
  9  7  1  0
 10  9  2  0
 11 12  2  0
 11 10  1  0
 12 13  1  0
 13  9  1  0
 14  1  1  0
 15 14  2  0
 16 14  2  0
 17 18  1  0
 17 14  1  0
 18 19  1  0
 19 23  1  0
 20 21  1  0
 20 19  2  0
 21 22  1  0
 22 23  2  0
 22 24  1  0
 24 25  1  0
 25 26  1  0
 27 26  1  0
 28 27  1  0
 29 28  1  0
 29 24  1  0
  1 30  1  0
  2 31  1  0
  2 32  1  0
  3 33  1  0
  4 34  1  0
 10 35  1  0
 11 36  1  0
 12 37  1  0
 17 38  1  0
 17 39  1  0
 25 40  1  0
 25 41  1  0
 26 42  1  0
 26 43  1  0
 27 44  1  0
 28 45  1  0
 28 46  1  0
 29 47  1  0
 29 48  1  0
M  ISO  8  30   5  31   8  32   8  33  14  34  14  35  14  36  14  37  14
M  ISO  8  38   8  39   8  40  13  41  13  42  13  43  13  44   5  45  13
M  ISO  3  46  13  47  13  48  13
M  END
>  <minimizedAffinity>  (1) 
-4.79757643

>  <minimizedRMSD>  (1) 
0.546326756

$$$$
