
     RDKit          3D

 37 39  0  0  0  0  0  0  0  0999 V2000
   40.1790   24.8060   33.6140 C   0  0  0  0  0  0  0  0  0  0  0  0
   38.5070   22.5970   36.1510 C   0  0  0  0  0  0  0  0  0  0  0  0
   39.3510   23.5280   35.5680 C   0  0  0  0  0  0  0  0  0  0  0  0
   39.2590   23.8020   34.2090 C   0  0  0  0  0  0  0  0  0  0  0  0
   38.3250   23.1230   33.5240 N   0  0  0  0  0  0  0  0  0  0  0  0
   37.5040   22.2080   34.1290 C   0  0  0  0  0  0  0  0  0  0  0  0
   37.5840   21.9450   35.3990 N   0  0  0  0  0  0  0  0  0  0  0  0
   36.5200   21.5160   33.3150 C   0  0  0  0  0  0  0  0  0  0  0  0
   36.2560   21.9750   32.0390 C   0  0  0  0  0  0  0  0  0  0  0  0
   35.2850   21.1440   31.4800 C   0  0  0  0  0  0  0  0  0  0  0  0
   35.0120   20.2150   32.4660 C   0  0  0  0  0  0  0  0  0  0  0  0
   35.7490   20.4730   33.5020 O   0  0  0  0  0  0  0  0  0  0  0  0
   39.3680   25.9360   33.2710 N   0  0  0  0  0  0  0  0  0  0  0  0
   39.4750   26.1830   31.5860 S   0  0  0  0  0  0  0  0  0  0  0  0
   39.8200   27.6160   31.2620 O   0  0  0  0  0  0  0  0  0  0  0  0
   40.5310   25.3100   31.0350 O   0  0  0  0  0  0  0  0  0  0  0  0
   37.8920   25.8150   30.8950 C   0  0  0  0  0  0  0  0  0  0  0  0
   36.5580   25.9340   32.0710 S   0  0  0  0  0  0  0  0  0  0  0  0
   36.1710   27.5860   32.5620 C   0  0  0  0  0  0  0  0  0  0  0  0
   35.8300   28.5600   31.6740 N   0  0  0  0  0  0  0  0  0  0  0  0
   35.5970   29.6790   32.3110 O   0  0  0  0  0  0  0  0  0  0  0  0
   35.7730   29.4820   33.6080 C   0  0  0  0  0  0  0  0  0  0  0  0
   36.1250   28.2010   33.7540 N   0  0  0  0  0  0  0  0  0  0  0  0
   35.6310   30.4380   34.7470 C   0  0  0  0  0  0  0  0  0  0  0  0
   35.8270   31.7520   34.3370 F   0  0  0  0  0  0  0  0  0  0  0  0
   34.3470   30.3550   35.1950 F   0  0  0  0  0  0  0  0  0  0  0  0
   36.5870   30.2020   35.7190 F   0  0  0  0  0  0  0  0  0  0  0  0
   40.9496   25.0967   34.3432 H   0  0  0  0  0  0  0  0  0  0  0  0
   40.6978   24.4020   32.7322 H   0  0  0  0  0  0  0  0  0  0  0  0
   38.5851   22.3852   37.2276 H   0  0  0  0  0  0  0  0  0  0  0  0
   40.0969   24.0524   36.1834 H   0  0  0  0  0  0  0  0  0  0  0  0
   36.7272   22.8409   31.5511 H   0  0  0  0  0  0  0  0  0  0  0  0
   34.8366   21.2128   30.4779 H   0  0  0  0  0  0  0  0  0  0  0  0
   34.2878   19.3910   32.3855 H   0  0  0  0  0  0  0  0  0  0  0  0
   38.3890   25.7546   33.5346 H   0  0  0  0  0  0  0  0  0  0  0  0
   37.6973   26.5217   30.0749 H   0  0  0  0  0  0  0  0  0  0  0  0
   37.9251   24.7718   30.5477 H   0  0  0  0  0  0  0  0  0  0  0  0
  1  4  1  0
  3  2  2  0
  4  3  1  0
  5  6  1  0
  5  4  2  0
  6  7  2  0
  7  2  1  0
  8 12  1  0
  8  6  1  0
  9  8  2  0
 10  9  1  0
 10 11  2  0
 11 12  1  0
 13  1  1  0
 14 13  1  0
 15 14  2  0
 16 14  2  0
 17 14  1  0
 17 18  1  0
 18 19  1  0
 19 23  1  0
 20 21  1  0
 20 19  2  0
 21 22  1  0
 22 23  2  0
 22 24  1  0
 24 26  1  0
 24 27  1  0
 25 24  1  0
  1 28  1  0
  1 29  1  0
  2 30  1  0
  3 31  1  0
  9 32  1  0
 10 33  1  0
 11 34  1  0
 13 35  1  0
 17 36  1  0
 17 37  1  0
M  ISO  8  28   8  29   8  30  14  31  14  32  14  33  14  34  14  35   5
M  ISO  2  36   8  37   8
M  END
>  <minimizedAffinity>  (1) 
-4.64591455

>  <minimizedRMSD>  (1) 
1.39150453

$$$$
