
     RDKit          3D

 43 45  0  0  0  0  0  0  0  0999 V2000
   39.9530   23.7610   33.3830 C   0  0  0  0  0  0  0  0  0  0  0  0
   37.7330   22.3820   36.0880 C   0  0  0  0  0  0  0  0  0  0  0  0
   38.7330   23.0860   35.4330 C   0  0  0  0  0  0  0  0  0  0  0  0
   38.8710   22.9930   34.0530 C   0  0  0  0  0  0  0  0  0  0  0  0
   37.9930   22.1940   33.4150 N   0  0  0  0  0  0  0  0  0  0  0  0
   37.0160   21.5110   34.0890 C   0  0  0  0  0  0  0  0  0  0  0  0
   36.8860   21.5980   35.3810 N   0  0  0  0  0  0  0  0  0  0  0  0
   36.1090   20.6690   33.3290 C   0  0  0  0  0  0  0  0  0  0  0  0
   35.1430   21.2700   32.5350 C   0  0  0  0  0  0  0  0  0  0  0  0
   34.4160   20.2470   31.9210 C   0  0  0  0  0  0  0  0  0  0  0  0
   34.9860   19.0840   32.3800 C   0  0  0  0  0  0  0  0  0  0  0  0
   35.9560   19.3830   33.1880 O   0  0  0  0  0  0  0  0  0  0  0  0
   39.3220   24.8900   32.7760 N   0  0  0  0  0  0  0  0  0  0  0  0
   39.7680   24.9490   31.1420 S   0  0  0  0  0  0  0  0  0  0  0  0
   39.8700   26.3620   30.6290 O   0  0  0  0  0  0  0  0  0  0  0  0
   41.0910   24.2980   30.9680 O   0  0  0  0  0  0  0  0  0  0  0  0
   38.5150   24.1080   30.2120 C   0  0  0  0  0  0  0  0  0  0  0  0
   36.8810   24.2990   30.9020 S   0  0  0  0  0  0  0  0  0  0  0  0
   36.5260   25.9390   31.4670 C   0  0  0  0  0  0  0  0  0  0  0  0
   36.0090   26.9000   30.6470 N   0  0  0  0  0  0  0  0  0  0  0  0
   35.8450   28.0080   31.3210 O   0  0  0  0  0  0  0  0  0  0  0  0
   36.2380   27.8170   32.5690 C   0  0  0  0  0  0  0  0  0  0  0  0
   36.6520   26.5470   32.6490 N   0  0  0  0  0  0  0  0  0  0  0  0
   36.2130   28.8330   33.6550 C   0  0  0  0  0  0  0  0  0  0  0  0
   34.7840   29.3230   33.9190 C   0  0  0  0  0  0  0  0  0  0  0  0
   36.7400   28.3000   34.9490 C   0  0  0  0  0  0  0  0  0  0  0  0
   40.6991   24.0917   34.1206 H   0  0  0  0  0  0  0  0  0  0  0  0
   40.4789   23.1464   32.6376 H   0  0  0  0  0  0  0  0  0  0  0  0
   37.6286   22.4608   37.1802 H   0  0  0  0  0  0  0  0  0  0  0  0
   39.4211   23.7218   36.0094 H   0  0  0  0  0  0  0  0  0  0  0  0
   34.9798   22.3508   32.4118 H   0  0  0  0  0  0  0  0  0  0  0  0
   33.5721   20.3500   31.2230 H   0  0  0  0  0  0  0  0  0  0  0  0
   34.6713   18.0659   32.1070 H   0  0  0  0  0  0  0  0  0  0  0  0
   38.2990   24.7981   32.8529 H   0  0  0  0  0  0  0  0  0  0  0  0
   38.7600   23.0360   30.1849 H   0  0  0  0  0  0  0  0  0  0  0  0
   38.4995   24.5537   29.2065 H   0  0  0  0  0  0  0  0  0  0  0  0
   36.8549   29.6545   33.3043 H   0  0  0  0  0  0  0  0  0  0  0  0
   34.6112   29.3822   35.0037 H   0  0  0  0  0  0  0  0  0  0  0  0
   34.6492   30.3187   33.4713 H   0  0  0  0  0  0  0  0  0  0  0  0
   34.0666   28.6195   33.4713 H   0  0  0  0  0  0  0  0  0  0  0  0
   36.2383   28.8075   35.7861 H   0  0  0  0  0  0  0  0  0  0  0  0
   36.5460   27.2188   35.0064 H   0  0  0  0  0  0  0  0  0  0  0  0
   37.8234   28.4817   35.0064 H   0  0  0  0  0  0  0  0  0  0  0  0
  1  4  1  0
  3  2  2  0
  4  3  1  0
  5  4  2  0
  5  6  1  0
  6  7  2  0
  7  2  1  0
  8  6  1  0
  9  8  2  0
 10 11  2  0
 10  9  1  0
 11 12  1  0
 12  8  1  0
 13  1  1  0
 14 13  1  0
 15 14  2  0
 16 14  2  0
 17 18  1  0
 17 14  1  0
 18 19  1  0
 19 23  1  0
 20 21  1  0
 20 19  2  0
 21 22  1  0
 22 23  2  0
 22 24  1  0
 24 25  1  0
 24 26  1  0
  1 27  1  0
  1 28  1  0
  2 29  1  0
  3 30  1  0
  9 31  1  0
 10 32  1  0
 11 33  1  0
 13 34  1  0
 17 35  1  0
 17 36  1  0
 24 37  1  0
 25 38  1  0
 25 39  1  0
 25 40  1  0
 26 41  1  0
 26 42  1  0
 26 43  1  0
M  ISO  8  27   8  28   8  29  14  30  14  31  14  32  14  33  14  34   5
M  ISO  8  35   8  36   8  37   8  38   8  39   8  40   8  41   8  42   8
M  ISO  1  43   8
M  END
>  <minimizedAffinity>  (1) 
-4.43057156

>  <minimizedRMSD>  (1) 
0.540334225

$$$$
