
     RDKit          3D

 36 38  0  0  0  0  0  0  0  0999 V2000
   39.9690   23.8510   33.3870 C   0  0  0  0  0  0  0  0  0  0  0  0
   37.7860   22.4210   36.0910 C   0  0  0  0  0  0  0  0  0  0  0  0
   38.7740   23.1460   35.4400 C   0  0  0  0  0  0  0  0  0  0  0  0
   38.9000   23.0640   34.0490 C   0  0  0  0  0  0  0  0  0  0  0  0
   38.0300   22.2690   33.4170 N   0  0  0  0  0  0  0  0  0  0  0  0
   37.0620   21.5660   34.0880 C   0  0  0  0  0  0  0  0  0  0  0  0
   36.9380   21.6360   35.3820 N   0  0  0  0  0  0  0  0  0  0  0  0
   36.1590   20.7260   33.3230 C   0  0  0  0  0  0  0  0  0  0  0  0
   35.1850   21.3210   32.5430 C   0  0  0  0  0  0  0  0  0  0  0  0
   34.4610   20.3100   31.9190 C   0  0  0  0  0  0  0  0  0  0  0  0
   35.0400   19.1330   32.3570 C   0  0  0  0  0  0  0  0  0  0  0  0
   36.0190   19.4360   33.1680 O   0  0  0  0  0  0  0  0  0  0  0  0
   39.3220   24.9990   32.8200 N   0  0  0  0  0  0  0  0  0  0  0  0
   39.7460   25.0910   31.1700 S   0  0  0  0  0  0  0  0  0  0  0  0
   39.8030   26.5210   30.6870 O   0  0  0  0  0  0  0  0  0  0  0  0
   41.0810   24.4870   30.9750 O   0  0  0  0  0  0  0  0  0  0  0  0
   38.5000   24.2430   30.2540 C   0  0  0  0  0  0  0  0  0  0  0  0
   36.8660   24.4210   30.9430 S   0  0  0  0  0  0  0  0  0  0  0  0
   36.4990   26.0490   31.5240 C   0  0  0  0  0  0  0  0  0  0  0  0
   36.0260   27.0220   30.7060 N   0  0  0  0  0  0  0  0  0  0  0  0
   35.8370   28.1300   31.3850 O   0  0  0  0  0  0  0  0  0  0  0  0
   36.1770   27.9120   32.6460 C   0  0  0  0  0  0  0  0  0  0  0  0
   36.5790   26.6400   32.7210 N   0  0  0  0  0  0  0  0  0  0  0  0
   36.0850   28.9270   33.6380 N   0  0  0  0  0  0  0  0  0  0  0  0
   40.7251   24.1629   34.1225 H   0  0  0  0  0  0  0  0  0  0  0  0
   40.4868   23.2595   32.6175 H   0  0  0  0  0  0  0  0  0  0  0  0
   37.6906   22.4834   37.1851 H   0  0  0  0  0  0  0  0  0  0  0  0
   39.4581   23.7851   36.0175 H   0  0  0  0  0  0  0  0  0  0  0  0
   35.0129   22.4021   32.4349 H   0  0  0  0  0  0  0  0  0  0  0  0
   33.6127   20.4224   31.2278 H   0  0  0  0  0  0  0  0  0  0  0  0
   34.7300   18.1168   32.0719 H   0  0  0  0  0  0  0  0  0  0  0  0
   38.3005   24.9045   32.9125 H   0  0  0  0  0  0  0  0  0  0  0  0
   38.7531   23.1728   30.2301 H   0  0  0  0  0  0  0  0  0  0  0  0
   38.4776   24.6890   29.2487 H   0  0  0  0  0  0  0  0  0  0  0  0
   36.3579   28.7233   34.6101 H   0  0  0  0  0  0  0  0  0  0  0  0
   35.7455   29.8658   33.3843 H   0  0  0  0  0  0  0  0  0  0  0  0
  1  4  1  0
  3  2  2  0
  4  3  1  0
  5  4  2  0
  5  6  1  0
  6  7  2  0
  7  2  1  0
  8  6  1  0
  9  8  2  0
 10 11  2  0
 10  9  1  0
 11 12  1  0
 12  8  1  0
 13  1  1  0
 14 13  1  0
 15 14  2  0
 16 14  2  0
 17 18  1  0
 17 14  1  0
 18 19  1  0
 19 23  1  0
 20 21  1  0
 20 19  2  0
 21 22  1  0
 22 23  2  0
 22 24  1  0
  1 25  1  0
  1 26  1  0
  2 27  1  0
  3 28  1  0
  9 29  1  0
 10 30  1  0
 11 31  1  0
 13 32  1  0
 17 33  1  0
 17 34  1  0
 24 35  1  0
 24 36  1  0
M  ISO  8  25   8  26   8  27  14  28  14  29  14  30  14  31  14  32   5
M  ISO  2  33   8  34   8
M  END
>  <minimizedAffinity>  (1) 
-4.16726637

>  <minimizedRMSD>  (1) 
0.45296672

$$$$
