
     RDKit          3D

 41 45  0  0  0  0  0  0  0  0999 V2000
   36.8880   24.5240   31.8390 C   0  0  0  0  0  0  0  0  0  0  0  0
   36.3510   25.8080   31.9060 C   0  0  0  0  0  0  0  0  0  0  0  0
   36.8350   26.5760   32.9350 C   0  0  0  0  0  0  0  0  0  0  0  0
   37.7370   26.0600   33.7510 N   0  0  0  0  0  0  0  0  0  0  0  0
   38.2640   24.8500   33.7110 C   0  0  0  0  0  0  0  0  0  0  0  0
   37.7950   24.1190   32.7230 N   0  0  0  0  0  0  0  0  0  0  0  0
   39.2410   24.1720   34.5270 C   0  0  0  0  0  0  0  0  0  0  0  0
   40.4470   23.7420   34.0090 C   0  0  0  0  0  0  0  0  0  0  0  0
   41.4200   23.0890   34.7420 C   0  0  0  0  0  0  0  0  0  0  0  0
   41.2060   22.8340   36.0730 C   0  0  0  0  0  0  0  0  0  0  0  0
   40.0400   23.2340   36.6290 C   0  0  0  0  0  0  0  0  0  0  0  0
   39.8320   22.9730   37.9770 C   0  0  0  0  0  0  0  0  0  0  0  0
   38.6810   23.3440   38.6130 C   0  0  0  0  0  0  0  0  0  0  0  0
   37.7160   23.9990   37.8600 C   0  0  0  0  0  0  0  0  0  0  0  0
   37.9640   24.2390   36.5240 C   0  0  0  0  0  0  0  0  0  0  0  0
   39.0960   23.8830   35.8650 C   0  0  0  0  0  0  0  0  0  0  0  0
   36.3870   27.9070   33.1390 N   0  0  0  0  0  0  0  0  0  0  0  0
   36.3850   28.8970   32.2350 C   0  0  0  0  0  0  0  0  0  0  0  0
   35.8930   30.0210   32.7720 N   0  0  0  0  0  0  0  0  0  0  0  0
   35.5770   29.7470   34.0330 C   0  0  0  0  0  0  0  0  0  0  0  0
   35.8890   28.4500   34.2360 N   0  0  0  0  0  0  0  0  0  0  0  0
   35.0070   30.6110   35.0620 C   0  0  0  0  0  0  0  0  0  0  0  0
   35.8420   31.5350   35.6540 C   0  0  0  0  0  0  0  0  0  0  0  0
   35.3290   32.3710   36.6340 C   0  0  0  0  0  0  0  0  0  0  0  0
   33.9960   32.2350   36.9720 C   0  0  0  0  0  0  0  0  0  0  0  0
   33.1680   31.3020   36.3680 C   0  0  0  0  0  0  0  0  0  0  0  0
   33.7250   30.5170   35.4210 N   0  0  0  0  0  0  0  0  0  0  0  0
   36.5578   23.8374   31.0456 H   0  0  0  0  0  0  0  0  0  0  0  0
   35.5998   26.1762   31.1918 H   0  0  0  0  0  0  0  0  0  0  0  0
   40.6461   23.9315   32.9439 H   0  0  0  0  0  0  0  0  0  0  0  0
   42.3589   22.7761   34.2618 H   0  0  0  0  0  0  0  0  0  0  0  0
   41.9666   22.3153   36.6750 H   0  0  0  0  0  0  0  0  0  0  0  0
   40.6153   22.4534   38.5484 H   0  0  0  0  0  0  0  0  0  0  0  0
   38.5249   23.1318   39.6810 H   0  0  0  0  0  0  0  0  0  0  0  0
   36.7703   24.3210   38.3203 H   0  0  0  0  0  0  0  0  0  0  0  0
   37.1840   24.7590   35.9485 H   0  0  0  0  0  0  0  0  0  0  0  0
   36.7379   28.7998   31.1977 H   0  0  0  0  0  0  0  0  0  0  0  0
   36.8977   31.6077   35.3537 H   0  0  0  0  0  0  0  0  0  0  0  0
   35.9646   33.1207   37.1280 H   0  0  0  0  0  0  0  0  0  0  0  0
   33.5767   32.8913   37.7489 H   0  0  0  0  0  0  0  0  0  0  0  0
   32.1082   31.2056   36.6466 H   0  0  0  0  0  0  0  0  0  0  0  0
  1  2  2  0
  1  6  1  0
  2  3  1  0
  3 17  1  0
  3  4  2  0
  5  4  1  0
  5  7  1  0
  6  5  2  0
  7 16  1  0
  8  7  2  0
  8  9  1  0
  9 10  2  0
 10 11  1  0
 11 12  2  0
 12 13  1  0
 14 13  2  0
 15 14  1  0
 16 15  2  0
 16 11  1  0
 17 21  1  0
 18 19  2  0
 18 17  1  0
 19 20  1  0
 20 21  2  0
 20 22  1  0
 22 27  1  0
 22 23  2  0
 23 24  1  0
 24 25  2  0
 26 25  1  0
 27 26  2  0
  1 28  1  0
  2 29  1  0
  8 30  1  0
  9 31  1  0
 10 32  1  0
 12 33  1  0
 13 34  1  0
 14 35  1  0
 15 36  1  0
 18 37  1  0
 23 38  1  0
 24 39  1  0
 25 40  1  0
 26 41  1  0
M  ISO  8  28  14  29  14  30  14  31  14  32  14  33  14  34  14  35  14
M  ISO  6  36  14  37  14  38  14  39  14  40  14  41  14
M  END
>  <minimizedAffinity>  (1) 
-6.99444389

>  <minimizedRMSD>  (1) 
2.08405876

$$$$
