
     RDKit          3D

 23 25  0  0  0  0  0  0  0  0999 V2000
   38.4630   22.8080   34.2080 C   0  0  0  0  0  0  0  0  0  0  0  0
   39.6530   22.6900   33.8220 O   0  0  0  0  0  0  0  0  0  0  0  0
   38.3570   26.9190   36.5060 N   0  0  0  0  0  0  0  0  0  0  0  0
   38.5980   27.0150   35.1840 C   0  0  0  0  0  0  0  0  0  0  0  0
   38.6200   25.8360   34.5720 N   0  0  0  0  0  0  0  0  0  0  0  0
   38.3830   24.9080   35.5270 C   0  0  0  0  0  0  0  0  0  0  0  0
   38.2900   23.5200   35.4810 C   0  0  0  0  0  0  0  0  0  0  0  0
   38.0370   22.8680   36.6460 N   0  0  0  0  0  0  0  0  0  0  0  0
   37.8800   23.5540   37.8110 C   0  0  0  0  0  0  0  0  0  0  0  0
   37.9740   24.8910   37.8320 N   0  0  0  0  0  0  0  0  0  0  0  0
   38.2230   25.5900   36.7090 C   0  0  0  0  0  0  0  0  0  0  0  0
   35.8100   22.5150   31.7060 C   0  0  0  0  0  0  0  0  0  0  0  0
   36.9460   23.0090   32.3740 C   0  0  0  0  0  0  0  0  0  0  0  0
   37.3010   22.3120   33.5160 C   0  0  0  0  0  0  0  0  0  0  0  0
   36.5910   21.2420   33.9330 N   0  0  0  0  0  0  0  0  0  0  0  0
   35.5040   20.8040   33.2560 C   0  0  0  0  0  0  0  0  0  0  0  0
   35.1240   21.4510   32.1410 N   0  0  0  0  0  0  0  0  0  0  0  0
   38.2906   27.6789   37.1981 H   0  0  0  0  0  0  0  0  0  0  0  0
   38.7599   27.9711   34.6648 H   0  0  0  0  0  0  0  0  0  0  0  0
   37.6743   23.0069   38.7428 H   0  0  0  0  0  0  0  0  0  0  0  0
   35.4726   23.0231   30.7906 H   0  0  0  0  0  0  0  0  0  0  0  0
   37.5093   23.8832   32.0156 H   0  0  0  0  0  0  0  0  0  0  0  0
   34.9392   19.9304   33.6135 H   0  0  0  0  0  0  0  0  0  0  0  0
  1  7  1  0
  2  1  2  0
  3 11  1  0
  4  3  1  0
  5  4  2  0
  5  6  1  0
  6 11  2  0
  7  6  1  0
  7  8  2  0
  8  9  1  0
  9 10  2  0
 11 10  1  0
 12 17  2  0
 12 13  1  0
 13 14  2  0
 14 15  1  0
 14  1  1  0
 16 15  2  0
 17 16  1  0
  3 18  1  0
  4 19  1  0
  9 20  1  0
 12 21  1  0
 13 22  1  0
 16 23  1  0
M  ISO  6  18   9  19  14  20  14  21  14  22  14  23  14
M  END
>  <minimizedAffinity>  (1) 
-4.25673771

>  <minimizedRMSD>  (1) 
4.67744875

$$$$
